MODEL 1
REMARK VINA RESULT:    -8.529      0.000      0.000
REMARK INTER + INTRA:         -12.725
REMARK INTER:                 -11.521
REMARK INTRA:                  -1.204
REMARK UNBOUND:                -1.204
REMARK SMILES CC(C)CCNc1nc(Nc2ccc(Cl)cc2Cl)c2cnn(C)c2n1
REMARK SMILES IDX 6 1 5 3 4 4 2 5 1 6 3 7 7 8 8 9 25 10 9 11 24 12 19 13 22 14
REMARK SMILES IDX 20 15 21 16 23 17 10 18 11 20 12 21 17 22 13 23 16 24 14 25
REMARK SMILES IDX 18 26 15 27
REMARK H PARENT 6 2 10 19
ROOT
ATOM      1  N   UNL     1       3.477  45.005  52.095  1.00  0.00    -0.354 N 
ATOM      2  H   UNL     1       2.766  44.849  51.392  1.00  0.00     0.163 HD
ENDROOT
BRANCH   1   3
ATOM      3  C   UNL     1       3.312  44.287  53.347  1.00  0.00     0.116 C 
BRANCH   3   4
ATOM      4  C   UNL     1       2.947  45.201  54.523  1.00  0.00     0.024 C 
BRANCH   4   5
ATOM      5  C   UNL     1       4.139  45.823  55.280  1.00  0.00    -0.016 C 
ATOM      6  C   UNL     1       5.339  44.874  55.219  1.00  0.00     0.007 C 
ATOM      7  C   UNL     1       4.533  47.191  54.726  1.00  0.00     0.007 C 
ENDBRANCH   4   5
ENDBRANCH   3   4
ENDBRANCH   1   3
BRANCH   1   8
ATOM      8  C   UNL     1       4.708  44.923  51.467  1.00  0.00     0.226 A 
ATOM      9  N   UNL     1       5.651  45.849  51.726  1.00  0.00    -0.195 NA
ATOM     10  N   UNL     1       4.845  43.885  50.634  1.00  0.00    -0.193 NA
ATOM     11  C   UNL     1       6.853  45.801  51.099  1.00  0.00     0.147 A 
ATOM     12  C   UNL     1       6.058  43.828  50.063  1.00  0.00     0.165 A 
ATOM     13  C   UNL     1       7.094  44.722  50.246  1.00  0.00     0.082 A 
ATOM     14  N   UNL     1       6.524  42.880  49.195  1.00  0.00    -0.250 N 
ATOM     15  C   UNL     1       8.152  44.190  49.480  1.00  0.00     0.149 A 
ATOM     16  N   UNL     1       7.809  43.077  48.819  1.00  0.00    -0.179 NA
ATOM     17  C   UNL     1       5.805  41.739  48.688  1.00  0.00     0.176 C 
BRANCH  11  18
ATOM     18  N   UNL     1       7.772  46.800  51.432  1.00  0.00    -0.338 N 
ATOM     19  H   UNL     1       8.312  47.043  50.604  1.00  0.00     0.168 HD
BRANCH  18  20
ATOM     20  C   UNL     1       8.495  47.042  52.620  1.00  0.00     0.059 A 
ATOM     21  C   UNL     1       7.979  47.804  53.676  1.00  0.00     0.029 A 
ATOM     22  C   UNL     1       9.809  46.542  52.755  1.00  0.00     0.066 A 
ATOM     23  C   UNL     1       8.740  48.062  54.822  1.00  0.00     0.023 A 
ATOM     24  C   UNL     1      10.575  46.796  53.896  1.00  0.00     0.043 A 
ATOM     25  C   UNL     1      10.035  47.558  54.924  1.00  0.00     0.042 A 
ATOM     26  Cl  UNL     1      10.522  45.580  51.503  1.00  0.00    -0.082 Cl
ATOM     27  Cl  UNL     1      10.966  47.877  56.334  1.00  0.00    -0.084 Cl
ENDBRANCH  18  20
ENDBRANCH  11  18
ENDBRANCH   1   8
TORSDOF 6
ENDMDL
MODEL 2
REMARK VINA RESULT:    -8.316      2.634      5.791
REMARK INTER + INTRA:         -12.436
REMARK INTER:                 -11.559
REMARK INTRA:                  -0.877
REMARK UNBOUND:                -1.204
REMARK SMILES CC(C)CCNc1nc(Nc2ccc(Cl)cc2Cl)c2cnn(C)c2n1
REMARK SMILES IDX 6 1 5 3 4 4 2 5 1 6 3 7 7 8 8 9 25 10 9 11 24 12 19 13 22 14
REMARK SMILES IDX 20 15 21 16 23 17 10 18 11 20 12 21 17 22 13 23 16 24 14 25
REMARK SMILES IDX 18 26 15 27
REMARK H PARENT 6 2 10 19
ROOT
ATOM      1  N   UNL     1       4.748  46.971  54.954  1.00  0.00    -0.354 N 
ATOM      2  H   UNL     1       4.154  47.606  54.435  1.00  0.00     0.163 HD
ENDROOT
BRANCH   1   3
ATOM      3  C   UNL     1       4.095  45.817  55.546  1.00  0.00     0.116 C 
BRANCH   3   4
ATOM      4  C   UNL     1       2.618  45.690  55.152  1.00  0.00     0.024 C 
BRANCH   4   5
ATOM      5  C   UNL     1       2.348  45.045  53.776  1.00  0.00    -0.016 C 
ATOM      6  C   UNL     1       1.283  43.954  53.920  1.00  0.00     0.007 C 
ATOM      7  C   UNL     1       1.905  46.065  52.728  1.00  0.00     0.007 C 
ENDBRANCH   4   5
ENDBRANCH   3   4
ENDBRANCH   1   3
BRANCH   1   8
ATOM      8  C   UNL     1       5.881  46.745  54.192  1.00  0.00     0.226 A 
ATOM      9  N   UNL     1       5.768  46.146  52.991  1.00  0.00    -0.195 NA
ATOM     10  N   UNL     1       7.024  47.166  54.748  1.00  0.00    -0.193 NA
ATOM     11  C   UNL     1       6.871  45.891  52.243  1.00  0.00     0.147 A 
ATOM     12  C   UNL     1       8.095  46.948  53.970  1.00  0.00     0.165 A 
ATOM     13  C   UNL     1       8.100  46.339  52.730  1.00  0.00     0.082 A 
ATOM     14  N   UNL     1       9.394  47.287  54.230  1.00  0.00    -0.250 N 
ATOM     15  C   UNL     1       9.447  46.408  52.315  1.00  0.00     0.149 A 
ATOM     16  N   UNL     1      10.248  46.967  53.230  1.00  0.00    -0.179 NA
ATOM     17  C   UNL     1       9.900  47.939  55.411  1.00  0.00     0.176 C 
BRANCH  11  18
ATOM     18  N   UNL     1       6.659  45.270  51.009  1.00  0.00    -0.338 N 
ATOM     19  H   UNL     1       6.641  45.981  50.280  1.00  0.00     0.168 HD
BRANCH  18  20
ATOM     20  C   UNL     1       5.899  44.135  50.655  1.00  0.00     0.059 A 
ATOM     21  C   UNL     1       4.651  43.854  51.227  1.00  0.00     0.029 A 
ATOM     22  C   UNL     1       6.414  43.209  49.721  1.00  0.00     0.066 A 
ATOM     23  C   UNL     1       3.944  42.696  50.886  1.00  0.00     0.023 A 
ATOM     24  C   UNL     1       5.713  42.051  49.376  1.00  0.00     0.043 A 
ATOM     25  C   UNL     1       4.479  41.800  49.964  1.00  0.00     0.042 A 
ATOM     26  Cl  UNL     1       7.944  43.485  48.955  1.00  0.00    -0.082 Cl
ATOM     27  Cl  UNL     1       3.606  40.378  49.547  1.00  0.00    -0.084 Cl
ENDBRANCH  18  20
ENDBRANCH  11  18
ENDBRANCH   1   8
TORSDOF 6
ENDMDL
MODEL 3
REMARK VINA RESULT:    -8.303      1.667      5.116
REMARK INTER + INTRA:         -12.419
REMARK INTER:                 -11.708
REMARK INTRA:                  -0.711
REMARK UNBOUND:                -1.204
REMARK SMILES CC(C)CCNc1nc(Nc2ccc(Cl)cc2Cl)c2cnn(C)c2n1
REMARK SMILES IDX 6 1 5 3 4 4 2 5 1 6 3 7 7 8 8 9 25 10 9 11 24 12 19 13 22 14
REMARK SMILES IDX 20 15 21 16 23 17 10 18 11 20 12 21 17 22 13 23 16 24 14 25
REMARK SMILES IDX 18 26 15 27
REMARK H PARENT 6 2 10 19
ROOT
ATOM      1  N   UNL     1       6.524  42.090  48.925  1.00  0.00    -0.354 N 
ATOM      2  H   UNL     1       7.119  41.416  49.390  1.00  0.00     0.163 HD
ENDROOT
BRANCH   1   3
ATOM      3  C   UNL     1       5.514  41.550  48.032  1.00  0.00     0.116 C 
BRANCH   3   4
ATOM      4  C   UNL     1       5.740  41.930  46.564  1.00  0.00     0.024 C 
BRANCH   4   5
ATOM      5  C   UNL     1       4.642  41.474  45.580  1.00  0.00    -0.016 C 
ATOM      6  C   UNL     1       5.287  40.808  44.362  1.00  0.00     0.007 C 
ATOM      7  C   UNL     1       3.641  40.515  46.224  1.00  0.00     0.007 C 
ENDBRANCH   4   5
ENDBRANCH   3   4
ENDBRANCH   1   3
BRANCH   1   8
ATOM      8  C   UNL     1       6.113  43.009  49.875  1.00  0.00     0.226 A 
ATOM      9  N   UNL     1       6.874  44.091  50.130  1.00  0.00    -0.195 NA
ATOM     10  N   UNL     1       4.948  42.719  50.468  1.00  0.00    -0.193 NA
ATOM     11  C   UNL     1       6.501  44.986  51.078  1.00  0.00     0.147 A 
ATOM     12  C   UNL     1       4.574  43.643  51.366  1.00  0.00     0.165 A 
ATOM     13  C   UNL     1       5.274  44.782  51.713  1.00  0.00     0.082 A 
ATOM     14  N   UNL     1       3.429  43.660  52.114  1.00  0.00    -0.250 N 
ATOM     15  C   UNL     1       4.437  45.435  52.642  1.00  0.00     0.149 A 
ATOM     16  N   UNL     1       3.318  44.750  52.908  1.00  0.00    -0.179 NA
ATOM     17  C   UNL     1       2.379  42.673  52.114  1.00  0.00     0.176 C 
BRANCH  11  18
ATOM     18  N   UNL     1       7.348  46.080  51.273  1.00  0.00    -0.338 N 
ATOM     19  H   UNL     1       7.832  46.283  50.401  1.00  0.00     0.168 HD
BRANCH  18  20
ATOM     20  C   UNL     1       8.096  46.491  52.397  1.00  0.00     0.059 A 
ATOM     21  C   UNL     1       7.514  47.132  53.499  1.00  0.00     0.029 A 
ATOM     22  C   UNL     1       9.496  46.297  52.418  1.00  0.00     0.066 A 
ATOM     23  C   UNL     1       8.293  47.565  54.577  1.00  0.00     0.023 A 
ATOM     24  C   UNL     1      10.279  46.727  53.491  1.00  0.00     0.043 A 
ATOM     25  C   UNL     1       9.671  47.362  54.567  1.00  0.00     0.042 A 
ATOM     26  Cl  UNL     1      10.296  45.501  51.103  1.00  0.00    -0.082 Cl
ATOM     27  Cl  UNL     1      10.623  47.897  55.896  1.00  0.00    -0.084 Cl
ENDBRANCH  18  20
ENDBRANCH  11  18
ENDBRANCH   1   8
TORSDOF 6
ENDMDL
MODEL 4
REMARK VINA RESULT:    -8.261      3.181      5.773
REMARK INTER + INTRA:         -12.362
REMARK INTER:                 -11.322
REMARK INTRA:                  -1.040
REMARK UNBOUND:                -1.204
REMARK SMILES CC(C)CCNc1nc(Nc2ccc(Cl)cc2Cl)c2cnn(C)c2n1
REMARK SMILES IDX 6 1 5 3 4 4 2 5 1 6 3 7 7 8 8 9 25 10 9 11 24 12 19 13 22 14
REMARK SMILES IDX 20 15 21 16 23 17 10 18 11 20 12 21 17 22 13 23 16 24 14 25
REMARK SMILES IDX 18 26 15 27
REMARK H PARENT 6 2 10 19
ROOT
ATOM      1  N   UNL     1       8.106  46.094  50.676  1.00  0.00    -0.354 N 
ATOM      2  H   UNL     1       8.237  46.177  49.676  1.00  0.00     0.163 HD
ENDROOT
BRANCH   1   3
ATOM      3  C   UNL     1       8.357  47.290  51.461  1.00  0.00     0.116 C 
BRANCH   3   4
ATOM      4  C   UNL     1       9.479  47.112  52.491  1.00  0.00     0.024 C 
BRANCH   4   5
ATOM      5  C   UNL     1       9.178  47.650  53.905  1.00  0.00    -0.016 C 
ATOM      6  C   UNL     1       7.825  47.116  54.382  1.00  0.00     0.007 C 
ATOM      7  C   UNL     1      10.265  47.281  54.915  1.00  0.00     0.007 C 
ENDBRANCH   4   5
ENDBRANCH   3   4
ENDBRANCH   1   3
BRANCH   1   8
ATOM      8  C   UNL     1       6.908  45.431  50.885  1.00  0.00     0.226 A 
ATOM      9  N   UNL     1       5.888  46.072  51.487  1.00  0.00    -0.195 NA
ATOM     10  N   UNL     1       6.883  44.167  50.445  1.00  0.00    -0.193 NA
ATOM     11  C   UNL     1       4.717  45.429  51.726  1.00  0.00     0.147 A 
ATOM     12  C   UNL     1       5.700  43.567  50.646  1.00  0.00     0.165 A 
ATOM     13  C   UNL     1       4.591  44.120  51.257  1.00  0.00     0.082 A 
ATOM     14  N   UNL     1       5.340  42.298  50.285  1.00  0.00    -0.250 N 
ATOM     15  C   UNL     1       3.607  43.114  51.166  1.00  0.00     0.149 A 
ATOM     16  N   UNL     1       4.058  41.992  50.593  1.00  0.00    -0.179 NA
ATOM     17  C   UNL     1       6.163  41.318  49.623  1.00  0.00     0.176 C 
BRANCH  11  18
ATOM     18  N   UNL     1       3.712  46.172  52.351  1.00  0.00    -0.338 N 
ATOM     19  H   UNL     1       3.905  47.163  52.223  1.00  0.00     0.168 HD
BRANCH  18  20
ATOM     20  C   UNL     1       2.968  45.929  53.525  1.00  0.00     0.059 A 
ATOM     21  C   UNL     1       3.522  46.039  54.807  1.00  0.00     0.029 A 
ATOM     22  C   UNL     1       1.620  45.517  53.428  1.00  0.00     0.066 A 
ATOM     23  C   UNL     1       2.767  45.747  55.949  1.00  0.00     0.023 A 
ATOM     24  C   UNL     1       0.860  45.224  54.563  1.00  0.00     0.043 A 
ATOM     25  C   UNL     1       1.441  45.340  55.820  1.00  0.00     0.042 A 
ATOM     26  Cl  UNL     1       0.851  45.367  51.882  1.00  0.00    -0.082 Cl
ATOM     27  Cl  UNL     1       0.517  44.983  57.227  1.00  0.00    -0.084 Cl
ENDBRANCH  18  20
ENDBRANCH  11  18
ENDBRANCH   1   8
TORSDOF 6
ENDMDL
MODEL 5
REMARK VINA RESULT:    -8.258      3.702      6.758
REMARK INTER + INTRA:         -12.358
REMARK INTER:                 -11.537
REMARK INTRA:                  -0.821
REMARK UNBOUND:                -1.204
REMARK SMILES CC(C)CCNc1nc(Nc2ccc(Cl)cc2Cl)c2cnn(C)c2n1
REMARK SMILES IDX 6 1 5 3 4 4 2 5 1 6 3 7 7 8 8 9 25 10 9 11 24 12 19 13 22 14
REMARK SMILES IDX 20 15 21 16 23 17 10 18 11 20 12 21 17 22 13 23 16 24 14 25
REMARK SMILES IDX 18 26 15 27
REMARK H PARENT 6 2 10 19
ROOT
ATOM      1  N   UNL     1       6.104  46.915  52.262  1.00  0.00    -0.354 N 
ATOM      2  H   UNL     1       5.254  47.396  52.528  1.00  0.00     0.163 HD
ENDROOT
BRANCH   1   3
ATOM      3  C   UNL     1       7.247  47.095  53.139  1.00  0.00     0.116 C 
BRANCH   3   4
ATOM      4  C   UNL     1       8.424  47.807  52.459  1.00  0.00     0.024 C 
BRANCH   4   5
ATOM      5  C   UNL     1       9.826  47.276  52.824  1.00  0.00    -0.016 C 
ATOM      6  C   UNL     1       9.868  46.914  54.311  1.00  0.00     0.007 C 
ATOM      7  C   UNL     1      10.229  46.064  51.985  1.00  0.00     0.007 C 
ENDBRANCH   4   5
ENDBRANCH   3   4
ENDBRANCH   1   3
BRANCH   1   8
ATOM      8  C   UNL     1       5.759  45.620  51.916  1.00  0.00     0.226 A 
ATOM      9  N   UNL     1       4.762  44.997  52.574  1.00  0.00    -0.195 NA
ATOM     10  N   UNL     1       6.479  45.095  50.918  1.00  0.00    -0.193 NA
ATOM     11  C   UNL     1       4.429  43.718  52.268  1.00  0.00     0.147 A 
ATOM     12  C   UNL     1       6.101  43.848  50.599  1.00  0.00     0.165 A 
ATOM     13  C   UNL     1       5.103  43.112  51.206  1.00  0.00     0.082 A 
ATOM     14  N   UNL     1       6.610  43.052  49.609  1.00  0.00    -0.250 N 
ATOM     15  C   UNL     1       5.064  41.907  50.472  1.00  0.00     0.149 A 
ATOM     16  N   UNL     1       5.991  41.853  49.509  1.00  0.00    -0.179 NA
ATOM     17  C   UNL     1       7.681  43.375  48.702  1.00  0.00     0.176 C 
BRANCH  11  18
ATOM     18  N   UNL     1       3.380  43.154  52.998  1.00  0.00    -0.338 N 
ATOM     19  H   UNL     1       3.623  42.196  53.241  1.00  0.00     0.168 HD
BRANCH  18  20
ATOM     20  C   UNL     1       1.983  43.336  52.914  1.00  0.00     0.059 A 
ATOM     21  C   UNL     1       1.204  42.752  51.906  1.00  0.00     0.029 A 
ATOM     22  C   UNL     1       1.327  44.169  53.848  1.00  0.00     0.066 A 
ATOM     23  C   UNL     1      -0.172  42.990  51.827  1.00  0.00     0.023 A 
ATOM     24  C   UNL     1      -0.047  44.410  53.774  1.00  0.00     0.043 A 
ATOM     25  C   UNL     1      -0.790  43.819  52.760  1.00  0.00     0.042 A 
ATOM     26  Cl  UNL     1       2.210  44.921  55.135  1.00  0.00    -0.082 Cl
ATOM     27  Cl  UNL     1      -2.483  44.107  52.658  1.00  0.00    -0.084 Cl
ENDBRANCH  18  20
ENDBRANCH  11  18
ENDBRANCH   1   8
TORSDOF 6
ENDMDL
MODEL 6
REMARK VINA RESULT:    -8.236      0.921      1.250
REMARK INTER + INTRA:         -12.329
REMARK INTER:                 -11.464
REMARK INTRA:                  -0.865
REMARK UNBOUND:                -1.204
REMARK SMILES CC(C)CCNc1nc(Nc2ccc(Cl)cc2Cl)c2cnn(C)c2n1
REMARK SMILES IDX 6 1 5 3 4 4 2 5 1 6 3 7 7 8 8 9 25 10 9 11 24 12 19 13 22 14
REMARK SMILES IDX 20 15 21 16 23 17 10 18 11 20 12 21 17 22 13 23 16 24 14 25
REMARK SMILES IDX 18 26 15 27
REMARK H PARENT 6 2 10 19
ROOT
ATOM      1  N   UNL     1       3.561  43.639  52.920  1.00  0.00    -0.354 N 
ATOM      2  H   UNL     1       3.914  43.770  53.860  1.00  0.00     0.163 HD
ENDROOT
BRANCH   1   3
ATOM      3  C   UNL     1       2.276  44.249  52.625  1.00  0.00     0.116 C 
BRANCH   3   4
ATOM      4  C   UNL     1       1.858  45.306  53.654  1.00  0.00     0.024 C 
BRANCH   4   5
ATOM      5  C   UNL     1       2.391  45.090  55.086  1.00  0.00    -0.016 C 
ATOM      6  C   UNL     1       3.561  46.042  55.349  1.00  0.00     0.007 C 
ATOM      7  C   UNL     1       1.311  45.293  56.149  1.00  0.00     0.007 C 
ENDBRANCH   4   5
ENDBRANCH   3   4
ENDBRANCH   1   3
BRANCH   1   8
ATOM      8  C   UNL     1       4.604  43.887  52.045  1.00  0.00     0.226 A 
ATOM      9  N   UNL     1       5.383  44.971  52.226  1.00  0.00    -0.195 NA
ATOM     10  N   UNL     1       4.742  42.983  51.067  1.00  0.00    -0.193 NA
ATOM     11  C   UNL     1       6.392  45.244  51.362  1.00  0.00     0.147 A 
ATOM     12  C   UNL     1       5.776  43.246  50.254  1.00  0.00     0.165 A 
ATOM     13  C   UNL     1       6.633  44.326  50.338  1.00  0.00     0.082 A 
ATOM     14  N   UNL     1       6.204  42.505  49.186  1.00  0.00    -0.250 N 
ATOM     15  C   UNL     1       7.567  44.110  49.302  1.00  0.00     0.149 A 
ATOM     16  N   UNL     1       7.303  43.013  48.582  1.00  0.00    -0.179 NA
ATOM     17  C   UNL     1       5.622  41.285  48.690  1.00  0.00     0.176 C 
BRANCH  11  18
ATOM     18  N   UNL     1       7.151  46.387  51.629  1.00  0.00    -0.338 N 
ATOM     19  H   UNL     1       7.470  46.786  50.749  1.00  0.00     0.168 HD
BRANCH  18  20
ATOM     20  C   UNL     1       8.025  46.696  52.693  1.00  0.00     0.059 A 
ATOM     21  C   UNL     1       7.588  47.305  53.877  1.00  0.00     0.029 A 
ATOM     22  C   UNL     1       9.407  46.429  52.567  1.00  0.00     0.066 A 
ATOM     23  C   UNL     1       8.489  47.639  54.894  1.00  0.00     0.023 A 
ATOM     24  C   UNL     1      10.312  46.760  53.579  1.00  0.00     0.043 A 
ATOM     25  C   UNL     1       9.846  47.366  54.739  1.00  0.00     0.042 A 
ATOM     26  Cl  UNL     1      10.032  45.667  51.142  1.00  0.00    -0.082 Cl
ATOM     27  Cl  UNL     1      10.949  47.778  55.992  1.00  0.00    -0.084 Cl
ENDBRANCH  18  20
ENDBRANCH  11  18
ENDBRANCH   1   8
TORSDOF 6
ENDMDL
MODEL 7
REMARK VINA RESULT:    -8.230      1.687      2.208
REMARK INTER + INTRA:         -12.320
REMARK INTER:                 -11.316
REMARK INTRA:                  -1.005
REMARK UNBOUND:                -1.204
REMARK SMILES CC(C)CCNc1nc(Nc2ccc(Cl)cc2Cl)c2cnn(C)c2n1
REMARK SMILES IDX 6 1 5 3 4 4 2 5 1 6 3 7 7 8 8 9 25 10 9 11 24 12 19 13 22 14
REMARK SMILES IDX 20 15 21 16 23 17 10 18 11 20 12 21 17 22 13 23 16 24 14 25
REMARK SMILES IDX 18 26 15 27
REMARK H PARENT 6 2 10 19
ROOT
ATOM      1  N   UNL     1       3.395  42.998  53.015  1.00  0.00    -0.354 N 
ATOM      2  H   UNL     1       3.646  43.302  53.948  1.00  0.00     0.163 HD
ENDROOT
BRANCH   1   3
ATOM      3  C   UNL     1       2.015  43.214  52.617  1.00  0.00     0.116 C 
BRANCH   3   4
ATOM      4  C   UNL     1       1.137  43.754  53.753  1.00  0.00     0.024 C 
BRANCH   4   5
ATOM      5  C   UNL     1       1.303  45.256  54.068  1.00  0.00    -0.016 C 
ATOM      6  C   UNL     1       2.353  45.437  55.168  1.00  0.00     0.007 C 
ATOM      7  C   UNL     1       1.699  46.071  52.838  1.00  0.00     0.007 C 
ENDBRANCH   4   5
ENDBRANCH   3   4
ENDBRANCH   1   3
BRANCH   1   8
ATOM      8  C   UNL     1       4.386  43.438  52.154  1.00  0.00     0.226 A 
ATOM      9  N   UNL     1       4.989  44.620  52.380  1.00  0.00    -0.195 NA
ATOM     10  N   UNL     1       4.658  42.606  51.141  1.00  0.00    -0.193 NA
ATOM     11  C   UNL     1       5.942  45.080  51.531  1.00  0.00     0.147 A 
ATOM     12  C   UNL     1       5.637  43.057  50.343  1.00  0.00     0.165 A 
ATOM     13  C   UNL     1       6.319  44.251  50.472  1.00  0.00     0.082 A 
ATOM     14  N   UNL     1       6.170  42.434  49.248  1.00  0.00    -0.250 N 
ATOM     15  C   UNL     1       7.271  44.223  49.432  1.00  0.00     0.149 A 
ATOM     16  N   UNL     1       7.177  43.128  48.668  1.00  0.00    -0.179 NA
ATOM     17  C   UNL     1       5.781  41.159  48.701  1.00  0.00     0.176 C 
BRANCH  11  18
ATOM     18  N   UNL     1       6.518  46.314  51.846  1.00  0.00    -0.338 N 
ATOM     19  H   UNL     1       6.492  46.911  51.022  1.00  0.00     0.168 HD
BRANCH  18  20
ATOM     20  C   UNL     1       7.584  46.652  52.707  1.00  0.00     0.059 A 
ATOM     21  C   UNL     1       8.925  46.606  52.303  1.00  0.00     0.029 A 
ATOM     22  C   UNL     1       7.316  47.012  54.047  1.00  0.00     0.066 A 
ATOM     23  C   UNL     1       9.960  46.905  53.197  1.00  0.00     0.023 A 
ATOM     24  C   UNL     1       8.345  47.312  54.944  1.00  0.00     0.043 A 
ATOM     25  C   UNL     1       9.664  47.254  54.512  1.00  0.00     0.042 A 
ATOM     26  Cl  UNL     1       5.686  47.106  54.627  1.00  0.00    -0.082 Cl
ATOM     27  Cl  UNL     1      10.940  47.621  55.606  1.00  0.00    -0.084 Cl
ENDBRANCH  18  20
ENDBRANCH  11  18
ENDBRANCH   1   8
TORSDOF 6
ENDMDL
MODEL 8
REMARK VINA RESULT:    -8.223      3.674      6.606
REMARK INTER + INTRA:         -12.311
REMARK INTER:                 -11.553
REMARK INTRA:                  -0.758
REMARK UNBOUND:                -1.204
REMARK SMILES CC(C)CCNc1nc(Nc2ccc(Cl)cc2Cl)c2cnn(C)c2n1
REMARK SMILES IDX 6 1 5 3 4 4 2 5 1 6 3 7 7 8 8 9 25 10 9 11 24 12 19 13 22 14
REMARK SMILES IDX 20 15 21 16 23 17 10 18 11 20 12 21 17 22 13 23 16 24 14 25
REMARK SMILES IDX 18 26 15 27
REMARK H PARENT 6 2 10 19
ROOT
ATOM      1  N   UNL     1       6.045  46.961  52.344  1.00  0.00    -0.354 N 
ATOM      2  H   UNL     1       5.208  47.412  52.691  1.00  0.00     0.163 HD
ENDROOT
BRANCH   1   3
ATOM      3  C   UNL     1       7.248  47.138  53.138  1.00  0.00     0.116 C 
BRANCH   3   4
ATOM      4  C   UNL     1       8.407  47.758  52.347  1.00  0.00     0.024 C 
BRANCH   4   5
ATOM      5  C   UNL     1       9.815  47.245  52.714  1.00  0.00    -0.016 C 
ATOM      6  C   UNL     1       9.873  46.929  54.211  1.00  0.00     0.007 C 
ATOM      7  C   UNL     1      10.216  46.010  51.909  1.00  0.00     0.007 C 
ENDBRANCH   4   5
ENDBRANCH   3   4
ENDBRANCH   1   3
BRANCH   1   8
ATOM      8  C   UNL     1       5.701  45.670  51.981  1.00  0.00     0.226 A 
ATOM      9  N   UNL     1       4.684  45.049  52.608  1.00  0.00    -0.195 NA
ATOM     10  N   UNL     1       6.445  45.147  50.998  1.00  0.00    -0.193 NA
ATOM     11  C   UNL     1       4.352  43.774  52.285  1.00  0.00     0.147 A 
ATOM     12  C   UNL     1       6.067  43.905  50.661  1.00  0.00     0.165 A 
ATOM     13  C   UNL     1       5.049  43.170  51.237  1.00  0.00     0.082 A 
ATOM     14  N   UNL     1       6.598  43.112  49.680  1.00  0.00    -0.250 N 
ATOM     15  C   UNL     1       5.023  41.971  50.494  1.00  0.00     0.149 A 
ATOM     16  N   UNL     1       5.975  41.917  49.555  1.00  0.00    -0.179 NA
ATOM     17  C   UNL     1       7.695  43.435  48.803  1.00  0.00     0.176 C 
BRANCH  11  18
ATOM     18  N   UNL     1       3.280  43.211  52.983  1.00  0.00    -0.338 N 
ATOM     19  H   UNL     1       3.309  42.199  52.874  1.00  0.00     0.168 HD
BRANCH  18  20
ATOM     20  C   UNL     1       1.968  43.678  53.210  1.00  0.00     0.059 A 
ATOM     21  C   UNL     1       1.559  44.215  54.439  1.00  0.00     0.029 A 
ATOM     22  C   UNL     1       0.999  43.573  52.188  1.00  0.00     0.066 A 
ATOM     23  C   UNL     1       0.238  44.628  54.643  1.00  0.00     0.023 A 
ATOM     24  C   UNL     1      -0.322  43.984  52.385  1.00  0.00     0.043 A 
ATOM     25  C   UNL     1      -0.695  44.508  53.617  1.00  0.00     0.042 A 
ATOM     26  Cl  UNL     1       1.421  42.934  50.633  1.00  0.00    -0.082 Cl
ATOM     27  Cl  UNL     1      -2.318  45.018  53.873  1.00  0.00    -0.084 Cl
ENDBRANCH  18  20
ENDBRANCH  11  18
ENDBRANCH   1   8
TORSDOF 6
ENDMDL
MODEL 9
REMARK VINA RESULT:    -8.215      3.092      5.863
REMARK INTER + INTRA:         -12.300
REMARK INTER:                 -11.385
REMARK INTRA:                  -0.915
REMARK UNBOUND:                -1.204
REMARK SMILES CC(C)CCNc1nc(Nc2ccc(Cl)cc2Cl)c2cnn(C)c2n1
REMARK SMILES IDX 6 1 5 3 4 4 2 5 1 6 3 7 7 8 8 9 25 10 9 11 24 12 19 13 22 14
REMARK SMILES IDX 20 15 21 16 23 17 10 18 11 20 12 21 17 22 13 23 16 24 14 25
REMARK SMILES IDX 18 26 15 27
REMARK H PARENT 6 2 10 19
ROOT
ATOM      1  N   UNL     1       8.095  46.050  50.587  1.00  0.00    -0.354 N 
ATOM      2  H   UNL     1       8.139  46.170  49.582  1.00  0.00     0.163 HD
ENDROOT
BRANCH   1   3
ATOM      3  C   UNL     1       8.430  47.214  51.388  1.00  0.00     0.116 C 
BRANCH   3   4
ATOM      4  C   UNL     1       9.465  46.917  52.481  1.00  0.00     0.024 C 
BRANCH   4   5
ATOM      5  C   UNL     1       9.192  47.566  53.854  1.00  0.00    -0.016 C 
ATOM      6  C   UNL     1       7.841  47.083  54.391  1.00  0.00     0.007 C 
ATOM      7  C   UNL     1      10.290  47.264  54.872  1.00  0.00     0.007 C 
ENDBRANCH   4   5
ENDBRANCH   3   4
ENDBRANCH   1   3
BRANCH   1   8
ATOM      8  C   UNL     1       6.912  45.392  50.876  1.00  0.00     0.226 A 
ATOM      9  N   UNL     1       5.948  46.027  51.569  1.00  0.00    -0.195 NA
ATOM     10  N   UNL     1       6.841  44.137  50.415  1.00  0.00    -0.193 NA
ATOM     11  C   UNL     1       4.794  45.388  51.886  1.00  0.00     0.147 A 
ATOM     12  C   UNL     1       5.673  43.542  50.697  1.00  0.00     0.165 A 
ATOM     13  C   UNL     1       4.620  44.090  51.403  1.00  0.00     0.082 A 
ATOM     14  N   UNL     1       5.275  42.282  50.341  1.00  0.00    -0.250 N 
ATOM     15  C   UNL     1       3.624  43.092  51.371  1.00  0.00     0.149 A 
ATOM     16  N   UNL     1       4.019  41.979  50.743  1.00  0.00    -0.179 NA
ATOM     17  C   UNL     1       6.036  41.310  49.598  1.00  0.00     0.176 C 
BRANCH  11  18
ATOM     18  N   UNL     1       3.848  46.126  52.603  1.00  0.00    -0.338 N 
ATOM     19  H   UNL     1       4.282  46.981  52.942  1.00  0.00     0.168 HD
BRANCH  18  20
ATOM     20  C   UNL     1       2.778  45.717  53.427  1.00  0.00     0.059 A 
ATOM     21  C   UNL     1       1.452  45.669  52.976  1.00  0.00     0.029 A 
ATOM     22  C   UNL     1       3.022  45.376  54.776  1.00  0.00     0.066 A 
ATOM     23  C   UNL     1       0.409  45.301  53.834  1.00  0.00     0.023 A 
ATOM     24  C   UNL     1       1.986  45.008  55.638  1.00  0.00     0.043 A 
ATOM     25  C   UNL     1       0.681  44.975  55.160  1.00  0.00     0.042 A 
ATOM     26  Cl  UNL     1       4.633  45.396  55.414  1.00  0.00    -0.082 Cl
ATOM     27  Cl  UNL     1      -0.604  44.522  56.210  1.00  0.00    -0.084 Cl
ENDBRANCH  18  20
ENDBRANCH  11  18
ENDBRANCH   1   8
TORSDOF 6
ENDMDL
MODEL 10
REMARK VINA RESULT:    -8.188      1.742      2.362
REMARK INTER + INTRA:         -12.264
REMARK INTER:                 -11.530
REMARK INTRA:                  -0.734
REMARK UNBOUND:                -1.204
REMARK SMILES CC(C)CCNc1nc(Nc2ccc(Cl)cc2Cl)c2cnn(C)c2n1
REMARK SMILES IDX 6 1 5 3 4 4 2 5 1 6 3 7 7 8 8 9 25 10 9 11 24 12 19 13 22 14
REMARK SMILES IDX 20 15 21 16 23 17 10 18 11 20 12 21 17 22 13 23 16 24 14 25
REMARK SMILES IDX 18 26 15 27
REMARK H PARENT 6 2 10 19
ROOT
ATOM      1  N   UNL     1       3.295  43.450  53.018  1.00  0.00    -0.354 N 
ATOM      2  H   UNL     1       3.683  42.979  53.826  1.00  0.00     0.163 HD
ENDROOT
BRANCH   1   3
ATOM      3  C   UNL     1       2.328  44.499  53.288  1.00  0.00     0.116 C 
BRANCH   3   4
ATOM      4  C   UNL     1       2.245  44.878  54.772  1.00  0.00     0.024 C 
BRANCH   4   5
ATOM      5  C   UNL     1       0.849  45.297  55.277  1.00  0.00    -0.016 C 
ATOM      6  C   UNL     1      -0.213  44.367  54.684  1.00  0.00     0.007 C 
ATOM      7  C   UNL     1       0.751  45.287  56.802  1.00  0.00     0.007 C 
ENDBRANCH   4   5
ENDBRANCH   3   4
ENDBRANCH   1   3
BRANCH   1   8
ATOM      8  C   UNL     1       4.345  43.750  52.167  1.00  0.00     0.226 A 
ATOM      9  N   UNL     1       5.045  44.887  52.347  1.00  0.00    -0.195 NA
ATOM     10  N   UNL     1       4.571  42.839  51.212  1.00  0.00    -0.193 NA
ATOM     11  C   UNL     1       6.058  45.211  51.505  1.00  0.00     0.147 A 
ATOM     12  C   UNL     1       5.608  43.156  50.423  1.00  0.00     0.165 A 
ATOM     13  C   UNL     1       6.389  44.292  50.508  1.00  0.00     0.082 A 
ATOM     14  N   UNL     1       6.114  42.425  49.383  1.00  0.00    -0.250 N 
ATOM     15  C   UNL     1       7.364  44.119  49.503  1.00  0.00     0.149 A 
ATOM     16  N   UNL     1       7.194  42.994  48.799  1.00  0.00    -0.179 NA
ATOM     17  C   UNL     1       5.628  41.159  48.895  1.00  0.00     0.176 C 
BRANCH  11  18
ATOM     18  N   UNL     1       6.732  46.406  51.770  1.00  0.00    -0.338 N 
ATOM     19  H   UNL     1       6.814  46.938  50.906  1.00  0.00     0.168 HD
BRANCH  18  20
ATOM     20  C   UNL     1       7.773  46.708  52.674  1.00  0.00     0.059 A 
ATOM     21  C   UNL     1       9.127  46.629  52.322  1.00  0.00     0.029 A 
ATOM     22  C   UNL     1       7.464  47.066  54.005  1.00  0.00     0.066 A 
ATOM     23  C   UNL     1      10.134  46.893  53.257  1.00  0.00     0.023 A 
ATOM     24  C   UNL     1       8.464  47.331  54.944  1.00  0.00     0.043 A 
ATOM     25  C   UNL     1       9.798  47.240  54.562  1.00  0.00     0.042 A 
ATOM     26  Cl  UNL     1       5.816  47.200  54.524  1.00  0.00    -0.082 Cl
ATOM     27  Cl  UNL     1      11.040  47.563  55.707  1.00  0.00    -0.084 Cl
ENDBRANCH  18  20
ENDBRANCH  11  18
ENDBRANCH   1   8
TORSDOF 6
ENDMDL
MODEL 11
REMARK VINA RESULT:    -8.128      3.499      7.516
REMARK INTER + INTRA:         -12.182
REMARK INTER:                 -11.572
REMARK INTRA:                  -0.610
REMARK UNBOUND:                -1.204
REMARK SMILES CC(C)CCNc1nc(Nc2ccc(Cl)cc2Cl)c2cnn(C)c2n1
REMARK SMILES IDX 6 1 5 3 4 4 2 5 1 6 3 7 7 8 8 9 25 10 9 11 24 12 19 13 22 14
REMARK SMILES IDX 20 15 21 16 23 17 10 18 11 20 12 21 17 22 13 23 16 24 14 25
REMARK SMILES IDX 18 26 15 27
REMARK H PARENT 6 2 10 19
ROOT
ATOM      1  N   UNL     1       7.245  46.042  51.017  1.00  0.00    -0.354 N 
ATOM      2  H   UNL     1       7.286  46.342  50.051  1.00  0.00     0.163 HD
ENDROOT
BRANCH   1   3
ATOM      3  C   UNL     1       7.193  47.096  52.015  1.00  0.00     0.116 C 
BRANCH   3   4
ATOM      4  C   UNL     1       8.577  47.631  52.401  1.00  0.00     0.024 C 
BRANCH   4   5
ATOM      5  C   UNL     1       9.536  46.604  53.039  1.00  0.00    -0.016 C 
ATOM      6  C   UNL     1      10.585  46.172  52.010  1.00  0.00     0.007 C 
ATOM      7  C   UNL     1      10.230  47.148  54.287  1.00  0.00     0.007 C 
ENDBRANCH   4   5
ENDBRANCH   3   4
ENDBRANCH   1   3
BRANCH   1   8
ATOM      8  C   UNL     1       6.300  45.034  51.100  1.00  0.00     0.226 A 
ATOM      9  N   UNL     1       6.445  43.921  50.355  1.00  0.00    -0.195 NA
ATOM     10  N   UNL     1       5.296  45.275  51.953  1.00  0.00    -0.193 NA
ATOM     11  C   UNL     1       5.514  42.935  50.403  1.00  0.00     0.147 A 
ATOM     12  C   UNL     1       4.415  44.266  52.021  1.00  0.00     0.165 A 
ATOM     13  C   UNL     1       4.457  43.087  51.302  1.00  0.00     0.082 A 
ATOM     14  N   UNL     1       3.303  44.185  52.814  1.00  0.00    -0.250 N 
ATOM     15  C   UNL     1       3.351  42.351  51.776  1.00  0.00     0.149 A 
ATOM     16  N   UNL     1       2.630  43.018  52.684  1.00  0.00    -0.179 NA
ATOM     17  C   UNL     1       2.826  45.180  53.741  1.00  0.00     0.176 C 
BRANCH  11  18
ATOM     18  N   UNL     1       5.748  41.816  49.599  1.00  0.00    -0.338 N 
ATOM     19  H   UNL     1       6.697  41.485  49.761  1.00  0.00     0.168 HD
BRANCH  18  20
ATOM     20  C   UNL     1       5.289  41.485  48.306  1.00  0.00     0.059 A 
ATOM     21  C   UNL     1       5.910  41.955  47.141  1.00  0.00     0.029 A 
ATOM     22  C   UNL     1       4.135  40.684  48.155  1.00  0.00     0.066 A 
ATOM     23  C   UNL     1       5.402  41.643  45.875  1.00  0.00     0.023 A 
ATOM     24  C   UNL     1       3.623  40.369  46.894  1.00  0.00     0.043 A 
ATOM     25  C   UNL     1       4.260  40.854  45.759  1.00  0.00     0.042 A 
ATOM     26  Cl  UNL     1       3.312  40.050  49.542  1.00  0.00    -0.082 Cl
ATOM     27  Cl  UNL     1       3.640  40.473  44.200  1.00  0.00    -0.084 Cl
ENDBRANCH  18  20
ENDBRANCH  11  18
ENDBRANCH   1   8
TORSDOF 6
ENDMDL
MODEL 12
REMARK VINA RESULT:    -8.092      2.324      5.389
REMARK INTER + INTRA:         -12.135
REMARK INTER:                 -11.212
REMARK INTRA:                  -0.923
REMARK UNBOUND:                -1.204
REMARK SMILES CC(C)CCNc1nc(Nc2ccc(Cl)cc2Cl)c2cnn(C)c2n1
REMARK SMILES IDX 6 1 5 3 4 4 2 5 1 6 3 7 7 8 8 9 25 10 9 11 24 12 19 13 22 14
REMARK SMILES IDX 20 15 21 16 23 17 10 18 11 20 12 21 17 22 13 23 16 24 14 25
REMARK SMILES IDX 18 26 15 27
REMARK H PARENT 6 2 10 19
ROOT
ATOM      1  N   UNL     1       3.999  41.413  51.512  1.00  0.00    -0.354 N 
ATOM      2  H   UNL     1       3.378  40.708  51.888  1.00  0.00     0.163 HD
ENDROOT
BRANCH   1   3
ATOM      3  C   UNL     1       4.384  41.256  50.120  1.00  0.00     0.116 C 
BRANCH   3   4
ATOM      4  C   UNL     1       5.884  41.465  49.881  1.00  0.00     0.024 C 
BRANCH   4   5
ATOM      5  C   UNL     1       6.254  42.626  48.934  1.00  0.00    -0.016 C 
ATOM      6  C   UNL     1       7.667  43.120  49.254  1.00  0.00     0.007 C 
ATOM      7  C   UNL     1       6.165  42.231  47.461  1.00  0.00     0.007 C 
ENDBRANCH   4   5
ENDBRANCH   3   4
ENDBRANCH   1   3
BRANCH   1   8
ATOM      8  C   UNL     1       3.516  42.649  51.907  1.00  0.00     0.226 A 
ATOM      9  N   UNL     1       4.253  43.754  51.688  1.00  0.00    -0.195 NA
ATOM     10  N   UNL     1       2.310  42.619  52.488  1.00  0.00    -0.193 NA
ATOM     11  C   UNL     1       3.808  44.969  52.095  1.00  0.00     0.147 A 
ATOM     12  C   UNL     1       1.868  43.837  52.836  1.00  0.00     0.165 A 
ATOM     13  C   UNL     1       2.537  45.033  52.670  1.00  0.00     0.082 A 
ATOM     14  N   UNL     1       0.669  44.151  53.416  1.00  0.00    -0.250 N 
ATOM     15  C   UNL     1       1.630  46.007  53.139  1.00  0.00     0.149 A 
ATOM     16  N   UNL     1       0.496  45.478  53.614  1.00  0.00    -0.179 NA
ATOM     17  C   UNL     1      -0.376  43.235  53.797  1.00  0.00     0.176 C 
BRANCH  11  18
ATOM     18  N   UNL     1       4.636  46.062  51.822  1.00  0.00    -0.338 N 
ATOM     19  H   UNL     1       4.440  46.400  50.883  1.00  0.00     0.168 HD
BRANCH  18  20
ATOM     20  C   UNL     1       5.960  46.348  52.219  1.00  0.00     0.059 A 
ATOM     21  C   UNL     1       7.063  46.129  51.382  1.00  0.00     0.029 A 
ATOM     22  C   UNL     1       6.213  46.836  53.520  1.00  0.00     0.066 A 
ATOM     23  C   UNL     1       8.366  46.383  51.824  1.00  0.00     0.023 A 
ATOM     24  C   UNL     1       7.512  47.091  53.967  1.00  0.00     0.043 A 
ATOM     25  C   UNL     1       8.584  46.860  53.114  1.00  0.00     0.042 A 
ATOM     26  Cl  UNL     1       4.907  47.147  54.616  1.00  0.00    -0.082 Cl
ATOM     27  Cl  UNL     1      10.188  47.171  53.651  1.00  0.00    -0.084 Cl
ENDBRANCH  18  20
ENDBRANCH  11  18
ENDBRANCH   1   8
TORSDOF 6
ENDMDL
MODEL 13
REMARK VINA RESULT:    -8.055      3.681      6.373
REMARK INTER + INTRA:         -12.084
REMARK INTER:                 -11.370
REMARK INTRA:                  -0.714
REMARK UNBOUND:                -1.204
REMARK SMILES CC(C)CCNc1nc(Nc2ccc(Cl)cc2Cl)c2cnn(C)c2n1
REMARK SMILES IDX 6 1 5 3 4 4 2 5 1 6 3 7 7 8 8 9 25 10 9 11 24 12 19 13 22 14
REMARK SMILES IDX 20 15 21 16 23 17 10 18 11 20 12 21 17 22 13 23 16 24 14 25
REMARK SMILES IDX 18 26 15 27
REMARK H PARENT 6 2 10 19
ROOT
ATOM      1  N   UNL     1       6.853  46.307  51.219  1.00  0.00    -0.354 N 
ATOM      2  H   UNL     1       6.866  46.724  50.297  1.00  0.00     0.163 HD
ENDROOT
BRANCH   1   3
ATOM      3  C   UNL     1       6.846  47.228  52.341  1.00  0.00     0.116 C 
BRANCH   3   4
ATOM      4  C   UNL     1       8.236  47.782  52.677  1.00  0.00     0.024 C 
BRANCH   4   5
ATOM      5  C   UNL     1       9.259  46.749  53.194  1.00  0.00    -0.016 C 
ATOM      6  C   UNL     1      10.295  46.460  52.104  1.00  0.00     0.007 C 
ATOM      7  C   UNL     1       9.965  47.212  54.468  1.00  0.00     0.007 C 
ENDBRANCH   4   5
ENDBRANCH   3   4
ENDBRANCH   1   3
BRANCH   1   8
ATOM      8  C   UNL     1       5.899  45.303  51.209  1.00  0.00     0.226 A 
ATOM      9  N   UNL     1       4.631  45.584  51.565  1.00  0.00    -0.195 NA
ATOM     10  N   UNL     1       6.353  44.103  50.826  1.00  0.00    -0.193 NA
ATOM     11  C   UNL     1       3.690  44.607  51.588  1.00  0.00     0.147 A 
ATOM     12  C   UNL     1       5.395  43.164  50.808  1.00  0.00     0.165 A 
ATOM     13  C   UNL     1       4.070  43.334  51.158  1.00  0.00     0.082 A 
ATOM     14  N   UNL     1       5.523  41.854  50.435  1.00  0.00    -0.250 N 
ATOM     15  C   UNL     1       3.481  42.076  50.913  1.00  0.00     0.149 A 
ATOM     16  N   UNL     1       4.362  41.161  50.490  1.00  0.00    -0.179 NA
ATOM     17  C   UNL     1       6.724  41.190  49.996  1.00  0.00     0.176 C 
BRANCH  11  18
ATOM     18  N   UNL     1       2.400  44.990  51.965  1.00  0.00    -0.338 N 
ATOM     19  H   UNL     1       2.110  45.783  51.396  1.00  0.00     0.168 HD
BRANCH  18  20
ATOM     20  C   UNL     1       1.756  44.981  53.220  1.00  0.00     0.059 A 
ATOM     21  C   UNL     1       2.460  45.017  54.432  1.00  0.00     0.029 A 
ATOM     22  C   UNL     1       0.348  44.891  53.286  1.00  0.00     0.066 A 
ATOM     23  C   UNL     1       1.791  44.962  55.659  1.00  0.00     0.023 A 
ATOM     24  C   UNL     1      -0.327  44.836  54.508  1.00  0.00     0.043 A 
ATOM     25  C   UNL     1       0.402  44.870  55.691  1.00  0.00     0.042 A 
ATOM     26  Cl  UNL     1      -0.603  44.855  51.837  1.00  0.00    -0.082 Cl
ATOM     27  Cl  UNL     1      -0.416  44.803  57.202  1.00  0.00    -0.084 Cl
ENDBRANCH  18  20
ENDBRANCH  11  18
ENDBRANCH   1   8
TORSDOF 6
ENDMDL
MODEL 14
REMARK VINA RESULT:    -7.956      3.243      6.885
REMARK INTER + INTRA:         -11.950
REMARK INTER:                 -10.805
REMARK INTRA:                  -1.145
REMARK UNBOUND:                -1.204
REMARK SMILES CC(C)CCNc1nc(Nc2ccc(Cl)cc2Cl)c2cnn(C)c2n1
REMARK SMILES IDX 6 1 5 3 4 4 2 5 1 6 3 7 7 8 8 9 25 10 9 11 24 12 19 13 22 14
REMARK SMILES IDX 20 15 21 16 23 17 10 18 11 20 12 21 17 22 13 23 16 24 14 25
REMARK SMILES IDX 18 26 15 27
REMARK H PARENT 6 2 10 19
ROOT
ATOM      1  N   UNL     1       7.699  45.096  49.632  1.00  0.00    -0.354 N 
ATOM      2  H   UNL     1       8.505  45.632  49.335  1.00  0.00     0.163 HD
ENDROOT
BRANCH   1   3
ATOM      3  C   UNL     1       7.827  43.651  49.567  1.00  0.00     0.116 C 
BRANCH   3   4
ATOM      4  C   UNL     1       6.678  42.977  48.807  1.00  0.00     0.024 C 
BRANCH   4   5
ATOM      5  C   UNL     1       5.940  41.857  49.571  1.00  0.00    -0.016 C 
ATOM      6  C   UNL     1       5.112  42.467  50.706  1.00  0.00     0.007 C 
ATOM      7  C   UNL     1       5.036  41.026  48.660  1.00  0.00     0.007 C 
ENDBRANCH   4   5
ENDBRANCH   3   4
ENDBRANCH   1   3
BRANCH   1   8
ATOM      8  C   UNL     1       7.248  45.647  50.820  1.00  0.00     0.226 A 
ATOM      9  N   UNL     1       5.924  45.768  51.038  1.00  0.00    -0.195 NA
ATOM     10  N   UNL     1       8.214  46.015  51.670  1.00  0.00    -0.193 NA
ATOM     11  C   UNL     1       5.465  46.330  52.184  1.00  0.00     0.147 A 
ATOM     12  C   UNL     1       7.736  46.523  52.816  1.00  0.00     0.165 A 
ATOM     13  C   UNL     1       6.407  46.701  53.145  1.00  0.00     0.082 A 
ATOM     14  N   UNL     1       8.455  46.959  53.895  1.00  0.00    -0.250 N 
ATOM     15  C   UNL     1       6.440  47.205  54.462  1.00  0.00     0.149 A 
ATOM     16  N   UNL     1       7.683  47.384  54.922  1.00  0.00    -0.179 NA
ATOM     17  C   UNL     1       9.890  46.984  54.028  1.00  0.00     0.176 C 
BRANCH  11  18
ATOM     18  N   UNL     1       4.077  46.411  52.327  1.00  0.00    -0.338 N 
ATOM     19  H   UNL     1       3.854  47.160  52.979  1.00  0.00     0.168 HD
BRANCH  18  20
ATOM     20  C   UNL     1       3.080  45.412  52.314  1.00  0.00     0.059 A 
ATOM     21  C   UNL     1       2.408  45.031  51.145  1.00  0.00     0.029 A 
ATOM     22  C   UNL     1       2.697  44.787  53.522  1.00  0.00     0.066 A 
ATOM     23  C   UNL     1       1.393  44.068  51.176  1.00  0.00     0.023 A 
ATOM     24  C   UNL     1       1.684  43.826  53.560  1.00  0.00     0.043 A 
ATOM     25  C   UNL     1       1.035  43.473  52.383  1.00  0.00     0.042 A 
ATOM     26  Cl  UNL     1       3.484  45.189  55.013  1.00  0.00    -0.082 Cl
ATOM     27  Cl  UNL     1      -0.213  42.290  52.416  1.00  0.00    -0.084 Cl
ENDBRANCH  18  20
ENDBRANCH  11  18
ENDBRANCH   1   8
TORSDOF 6
ENDMDL
MODEL 15
REMARK VINA RESULT:    -7.892      3.132      6.128
REMARK INTER + INTRA:         -11.864
REMARK INTER:                 -10.774
REMARK INTRA:                  -1.090
REMARK UNBOUND:                -1.204
REMARK SMILES CC(C)CCNc1nc(Nc2ccc(Cl)cc2Cl)c2cnn(C)c2n1
REMARK SMILES IDX 6 1 5 3 4 4 2 5 1 6 3 7 7 8 8 9 25 10 9 11 24 12 19 13 22 14
REMARK SMILES IDX 20 15 21 16 23 17 10 18 11 20 12 21 17 22 13 23 16 24 14 25
REMARK SMILES IDX 18 26 15 27
REMARK H PARENT 6 2 10 19
ROOT
ATOM      1  N   UNL     1       6.263  43.867  49.510  1.00  0.00    -0.354 N 
ATOM      2  H   UNL     1       6.403  44.295  48.604  1.00  0.00     0.163 HD
ENDROOT
BRANCH   1   3
ATOM      3  C   UNL     1       6.880  42.568  49.712  1.00  0.00     0.116 C 
BRANCH   3   4
ATOM      4  C   UNL     1       5.927  41.535  50.328  1.00  0.00     0.024 C 
BRANCH   4   5
ATOM      5  C   UNL     1       4.430  41.908  50.299  1.00  0.00    -0.016 C 
ATOM      6  C   UNL     1       3.630  40.772  49.656  1.00  0.00     0.007 C 
ATOM      7  C   UNL     1       3.875  42.207  51.691  1.00  0.00     0.007 C 
ENDBRANCH   4   5
ENDBRANCH   3   4
ENDBRANCH   1   3
BRANCH   1   8
ATOM      8  C   UNL     1       6.490  44.839  50.470  1.00  0.00     0.226 A 
ATOM      9  N   UNL     1       5.448  45.382  51.128  1.00  0.00    -0.195 NA
ATOM     10  N   UNL     1       7.777  45.152  50.657  1.00  0.00    -0.193 NA
ATOM     11  C   UNL     1       5.649  46.356  52.051  1.00  0.00     0.147 A 
ATOM     12  C   UNL     1       7.957  46.081  51.608  1.00  0.00     0.165 A 
ATOM     13  C   UNL     1       6.968  46.710  52.339  1.00  0.00     0.082 A 
ATOM     14  N   UNL     1       9.144  46.590  52.059  1.00  0.00    -0.250 N 
ATOM     15  C   UNL     1       7.674  47.542  53.233  1.00  0.00     0.149 A 
ATOM     16  N   UNL     1       9.000  47.492  53.058  1.00  0.00    -0.179 NA
ATOM     17  C   UNL     1      10.465  46.252  51.594  1.00  0.00     0.176 C 
BRANCH  11  18
ATOM     18  N   UNL     1       4.511  46.858  52.688  1.00  0.00    -0.338 N 
ATOM     19  H   UNL     1       4.784  47.630  53.292  1.00  0.00     0.168 HD
BRANCH  18  20
ATOM     20  C   UNL     1       3.342  46.216  53.150  1.00  0.00     0.059 A 
ATOM     21  C   UNL     1       2.140  46.227  52.431  1.00  0.00     0.029 A 
ATOM     22  C   UNL     1       3.348  45.565  54.404  1.00  0.00     0.066 A 
ATOM     23  C   UNL     1       0.987  45.617  52.939  1.00  0.00     0.023 A 
ATOM     24  C   UNL     1       2.202  44.955  54.917  1.00  0.00     0.043 A 
ATOM     25  C   UNL     1       1.024  44.987  54.180  1.00  0.00     0.042 A 
ATOM     26  Cl  UNL     1       4.796  45.492  55.354  1.00  0.00    -0.082 Cl
ATOM     27  Cl  UNL     1      -0.395  44.239  54.801  1.00  0.00    -0.084 Cl
ENDBRANCH  18  20
ENDBRANCH  11  18
ENDBRANCH   1   8
TORSDOF 6
ENDMDL
MODEL 16
REMARK VINA RESULT:    -7.875      2.986      5.585
REMARK INTER + INTRA:         -11.842
REMARK INTER:                 -10.575
REMARK INTRA:                  -1.267
REMARK UNBOUND:                -1.204
REMARK SMILES CC(C)CCNc1nc(Nc2ccc(Cl)cc2Cl)c2cnn(C)c2n1
REMARK SMILES IDX 6 1 5 3 4 4 2 5 1 6 3 7 7 8 8 9 25 10 9 11 24 12 19 13 22 14
REMARK SMILES IDX 20 15 21 16 23 17 10 18 11 20 12 21 17 22 13 23 16 24 14 25
REMARK SMILES IDX 18 26 15 27
REMARK H PARENT 6 2 10 19
ROOT
ATOM      1  N   UNL     1       3.488  41.414  50.536  1.00  0.00    -0.354 N 
ATOM      2  H   UNL     1       3.123  41.345  49.594  1.00  0.00     0.163 HD
ENDROOT
BRANCH   1   3
ATOM      3  C   UNL     1       4.934  41.408  50.668  1.00  0.00     0.116 C 
BRANCH   3   4
ATOM      4  C   UNL     1       5.644  42.217  49.575  1.00  0.00     0.024 C 
BRANCH   4   5
ATOM      5  C   UNL     1       6.693  43.234  50.072  1.00  0.00    -0.016 C 
ATOM      6  C   UNL     1       7.784  43.407  49.012  1.00  0.00     0.007 C 
ATOM      7  C   UNL     1       6.078  44.592  50.408  1.00  0.00     0.007 C 
ENDBRANCH   4   5
ENDBRANCH   3   4
ENDBRANCH   1   3
BRANCH   1   8
ATOM      8  C   UNL     1       2.790  42.420  51.181  1.00  0.00     0.226 A 
ATOM      9  N   UNL     1       3.410  43.170  52.113  1.00  0.00    -0.195 NA
ATOM     10  N   UNL     1       1.516  42.556  50.794  1.00  0.00    -0.193 NA
ATOM     11  C   UNL     1       2.734  44.142  52.775  1.00  0.00     0.147 A 
ATOM     12  C   UNL     1       0.881  43.555  51.426  1.00  0.00     0.165 A 
ATOM     13  C   UNL     1       1.411  44.380  52.399  1.00  0.00     0.082 A 
ATOM     14  N   UNL     1      -0.408  43.972  51.236  1.00  0.00    -0.250 N 
ATOM     15  C   UNL     1       0.370  45.286  52.690  1.00  0.00     0.149 A 
ATOM     16  N   UNL     1      -0.750  45.035  52.001  1.00  0.00    -0.179 NA
ATOM     17  C   UNL     1      -1.375  43.413  50.326  1.00  0.00     0.176 C 
BRANCH  11  18
ATOM     18  N   UNL     1       3.457  44.872  53.722  1.00  0.00    -0.338 N 
ATOM     19  H   UNL     1       2.805  45.348  54.342  1.00  0.00     0.168 HD
BRANCH  18  20
ATOM     20  C   UNL     1       4.688  45.557  53.628  1.00  0.00     0.059 A 
ATOM     21  C   UNL     1       5.887  45.027  54.123  1.00  0.00     0.029 A 
ATOM     22  C   UNL     1       4.731  46.847  53.054  1.00  0.00     0.066 A 
ATOM     23  C   UNL     1       7.082  45.752  54.053  1.00  0.00     0.023 A 
ATOM     24  C   UNL     1       5.920  47.576  52.981  1.00  0.00     0.043 A 
ATOM     25  C   UNL     1       7.091  47.023  53.485  1.00  0.00     0.042 A 
ATOM     26  Cl  UNL     1       3.298  47.573  52.405  1.00  0.00    -0.082 Cl
ATOM     27  Cl  UNL     1       8.563  47.910  53.401  1.00  0.00    -0.084 Cl
ENDBRANCH  18  20
ENDBRANCH  11  18
ENDBRANCH   1   8
TORSDOF 6
ENDMDL
MODEL 17
REMARK VINA RESULT:    -7.860      2.876      6.435
REMARK INTER + INTRA:         -11.821
REMARK INTER:                 -11.285
REMARK INTRA:                  -0.535
REMARK UNBOUND:                -1.204
REMARK SMILES CC(C)CCNc1nc(Nc2ccc(Cl)cc2Cl)c2cnn(C)c2n1
REMARK SMILES IDX 6 1 5 3 4 4 2 5 1 6 3 7 7 8 8 9 25 10 9 11 24 12 19 13 22 14
REMARK SMILES IDX 20 15 21 16 23 17 10 18 11 20 12 21 17 22 13 23 16 24 14 25
REMARK SMILES IDX 18 26 15 27
REMARK H PARENT 6 2 10 19
ROOT
ATOM      1  N   UNL     1       4.286  46.523  55.333  1.00  0.00    -0.354 N 
ATOM      2  H   UNL     1       4.596  46.085  56.192  1.00  0.00     0.163 HD
ENDROOT
BRANCH   1   3
ATOM      3  C   UNL     1       5.321  47.110  54.500  1.00  0.00     0.116 C 
BRANCH   3   4
ATOM      4  C   UNL     1       6.697  46.463  54.701  1.00  0.00     0.024 C 
BRANCH   4   5
ATOM      5  C   UNL     1       7.716  46.694  53.566  1.00  0.00    -0.016 C 
ATOM      6  C   UNL     1       7.145  47.698  52.560  1.00  0.00     0.007 C 
ATOM      7  C   UNL     1       9.065  47.191  54.083  1.00  0.00     0.007 C 
ENDBRANCH   4   5
ENDBRANCH   3   4
ENDBRANCH   1   3
BRANCH   1   8
ATOM      8  C   UNL     1       3.388  45.662  54.727  1.00  0.00     0.226 A 
ATOM      9  N   UNL     1       3.771  44.947  53.651  1.00  0.00    -0.195 NA
ATOM     10  N   UNL     1       2.178  45.621  55.298  1.00  0.00    -0.193 NA
ATOM     11  C   UNL     1       2.896  44.120  53.027  1.00  0.00     0.147 A 
ATOM     12  C   UNL     1       1.344  44.759  54.695  1.00  0.00     0.165 A 
ATOM     13  C   UNL     1       1.624  43.984  53.587  1.00  0.00     0.082 A 
ATOM     14  N   UNL     1       0.057  44.461  55.051  1.00  0.00    -0.250 N 
ATOM     15  C   UNL     1       0.452  43.223  53.391  1.00  0.00     0.149 A 
ATOM     16  N   UNL     1      -0.516  43.520  54.265  1.00  0.00    -0.179 NA
ATOM     17  C   UNL     1      -0.693  45.024  56.145  1.00  0.00     0.176 C 
BRANCH  11  18
ATOM     18  N   UNL     1       3.381  43.415  51.922  1.00  0.00    -0.338 N 
ATOM     19  H   UNL     1       3.057  42.452  51.976  1.00  0.00     0.168 HD
BRANCH  18  20
ATOM     20  C   UNL     1       4.593  43.523  51.208  1.00  0.00     0.059 A 
ATOM     21  C   UNL     1       5.372  44.688  51.212  1.00  0.00     0.029 A 
ATOM     22  C   UNL     1       5.040  42.441  50.416  1.00  0.00     0.066 A 
ATOM     23  C   UNL     1       6.547  44.775  50.457  1.00  0.00     0.023 A 
ATOM     24  C   UNL     1       6.211  42.522  49.660  1.00  0.00     0.043 A 
ATOM     25  C   UNL     1       6.959  43.693  49.684  1.00  0.00     0.042 A 
ATOM     26  Cl  UNL     1       4.146  40.958  50.363  1.00  0.00    -0.082 Cl
ATOM     27  Cl  UNL     1       8.404  43.806  48.757  1.00  0.00    -0.084 Cl
ENDBRANCH  18  20
ENDBRANCH  11  18
ENDBRANCH   1   8
TORSDOF 6
ENDMDL
MODEL 18
REMARK VINA RESULT:    -7.743      2.887      7.145
REMARK INTER + INTRA:         -11.663
REMARK INTER:                 -10.888
REMARK INTRA:                  -0.775
REMARK UNBOUND:                -1.204
REMARK SMILES CC(C)CCNc1nc(Nc2ccc(Cl)cc2Cl)c2cnn(C)c2n1
REMARK SMILES IDX 6 1 5 3 4 4 2 5 1 6 3 7 7 8 8 9 25 10 9 11 24 12 19 13 22 14
REMARK SMILES IDX 20 15 21 16 23 17 10 18 11 20 12 21 17 22 13 23 16 24 14 25
REMARK SMILES IDX 18 26 15 27
REMARK H PARENT 6 2 10 19
ROOT
ATOM      1  N   UNL     1       6.157  46.776  52.480  1.00  0.00    -0.354 N 
ATOM      2  H   UNL     1       6.156  47.113  53.435  1.00  0.00     0.163 HD
ENDROOT
BRANCH   1   3
ATOM      3  C   UNL     1       7.454  46.677  51.835  1.00  0.00     0.116 C 
BRANCH   3   4
ATOM      4  C   UNL     1       8.452  47.736  52.319  1.00  0.00     0.024 C 
BRANCH   4   5
ATOM      5  C   UNL     1       9.850  47.208  52.707  1.00  0.00    -0.016 C 
ATOM      6  C   UNL     1       9.900  46.943  54.214  1.00  0.00     0.007 C 
ATOM      7  C   UNL     1      10.227  45.938  51.945  1.00  0.00     0.007 C 
ENDBRANCH   4   5
ENDBRANCH   3   4
ENDBRANCH   1   3
BRANCH   1   8
ATOM      8  C   UNL     1       5.330  45.668  52.429  1.00  0.00     0.226 A 
ATOM      9  N   UNL     1       5.725  44.572  51.752  1.00  0.00    -0.195 NA
ATOM     10  N   UNL     1       4.173  45.800  53.089  1.00  0.00    -0.193 NA
ATOM     11  C   UNL     1       4.915  43.487  51.667  1.00  0.00     0.147 A 
ATOM     12  C   UNL     1       3.410  44.698  53.033  1.00  0.00     0.165 A 
ATOM     13  C   UNL     1       3.707  43.526  52.366  1.00  0.00     0.082 A 
ATOM     14  N   UNL     1       2.193  44.499  53.626  1.00  0.00    -0.250 N 
ATOM     15  C   UNL     1       2.623  42.673  52.664  1.00  0.00     0.149 A 
ATOM     16  N   UNL     1       1.686  43.262  53.415  1.00  0.00    -0.179 NA
ATOM     17  C   UNL     1       1.454  45.441  54.428  1.00  0.00     0.176 C 
BRANCH  11  18
ATOM     18  N   UNL     1       5.407  42.394  50.949  1.00  0.00    -0.338 N 
ATOM     19  H   UNL     1       6.418  42.350  51.064  1.00  0.00     0.168 HD
BRANCH  18  20
ATOM     20  C   UNL     1       4.992  41.817  49.730  1.00  0.00     0.059 A 
ATOM     21  C   UNL     1       3.879  40.970  49.635  1.00  0.00     0.029 A 
ATOM     22  C   UNL     1       5.735  42.054  48.552  1.00  0.00     0.066 A 
ATOM     23  C   UNL     1       3.522  40.380  48.418  1.00  0.00     0.023 A 
ATOM     24  C   UNL     1       5.383  41.468  47.334  1.00  0.00     0.043 A 
ATOM     25  C   UNL     1       4.276  40.630  47.275  1.00  0.00     0.042 A 
ATOM     26  Cl  UNL     1       7.118  43.099  48.575  1.00  0.00    -0.082 Cl
ATOM     27  Cl  UNL     1       3.832  39.902  45.782  1.00  0.00    -0.084 Cl
ENDBRANCH  18  20
ENDBRANCH  11  18
ENDBRANCH   1   8
TORSDOF 6
ENDMDL
MODEL 19
REMARK VINA RESULT:    -7.629      3.236      6.409
REMARK INTER + INTRA:         -11.509
REMARK INTER:                 -10.439
REMARK INTRA:                  -1.070
REMARK UNBOUND:                -1.204
REMARK SMILES CC(C)CCNc1nc(Nc2ccc(Cl)cc2Cl)c2cnn(C)c2n1
REMARK SMILES IDX 6 1 5 3 4 4 2 5 1 6 3 7 7 8 8 9 25 10 9 11 24 12 19 13 22 14
REMARK SMILES IDX 20 15 21 16 23 17 10 18 11 20 12 21 17 22 13 23 16 24 14 25
REMARK SMILES IDX 18 26 15 27
REMARK H PARENT 6 2 10 19
ROOT
ATOM      1  N   UNL     1       1.790  42.442  52.234  1.00  0.00    -0.354 N 
ATOM      2  H   UNL     1       0.868  42.127  51.960  1.00  0.00     0.163 HD
ENDROOT
BRANCH   1   3
ATOM      3  C   UNL     1       2.681  42.838  51.157  1.00  0.00     0.116 C 
BRANCH   3   4
ATOM      4  C   UNL     1       3.912  41.932  51.028  1.00  0.00     0.024 C 
BRANCH   4   5
ATOM      5  C   UNL     1       5.119  42.548  50.290  1.00  0.00    -0.016 C 
ATOM      6  C   UNL     1       5.596  43.797  51.037  1.00  0.00     0.007 C 
ATOM      7  C   UNL     1       6.278  41.562  50.139  1.00  0.00     0.007 C 
ENDBRANCH   4   5
ENDBRANCH   3   4
ENDBRANCH   1   3
BRANCH   1   8
ATOM      8  C   UNL     1       1.633  43.322  53.291  1.00  0.00     0.226 A 
ATOM      9  N   UNL     1       2.663  44.104  53.666  1.00  0.00    -0.195 NA
ATOM     10  N   UNL     1       0.420  43.309  53.856  1.00  0.00    -0.193 NA
ATOM     11  C   UNL     1       2.536  44.951  54.718  1.00  0.00     0.147 A 
ATOM     12  C   UNL     1       0.301  44.189  54.861  1.00  0.00     0.165 A 
ATOM     13  C   UNL     1       1.287  45.032  55.335  1.00  0.00     0.082 A 
ATOM     14  N   UNL     1      -0.811  44.444  55.616  1.00  0.00    -0.250 N 
ATOM     15  C   UNL     1       0.646  45.783  56.343  1.00  0.00     0.149 A 
ATOM     16  N   UNL     1      -0.627  45.420  56.535  1.00  0.00    -0.179 NA
ATOM     17  C   UNL     1      -2.098  43.805  55.507  1.00  0.00     0.176 C 
BRANCH  11  18
ATOM     18  N   UNL     1       3.654  45.728  55.034  1.00  0.00    -0.338 N 
ATOM     19  H   UNL     1       3.357  46.524  55.594  1.00  0.00     0.168 HD
BRANCH  18  20
ATOM     20  C   UNL     1       4.830  46.007  54.305  1.00  0.00     0.059 A 
ATOM     21  C   UNL     1       6.081  45.484  54.658  1.00  0.00     0.029 A 
ATOM     22  C   UNL     1       4.777  46.881  53.196  1.00  0.00     0.066 A 
ATOM     23  C   UNL     1       7.234  45.817  53.939  1.00  0.00     0.023 A 
ATOM     24  C   UNL     1       5.924  47.218  52.474  1.00  0.00     0.043 A 
ATOM     25  C   UNL     1       7.150  46.684  52.852  1.00  0.00     0.042 A 
ATOM     26  Cl  UNL     1       3.270  47.565  52.681  1.00  0.00    -0.082 Cl
ATOM     27  Cl  UNL     1       8.570  47.091  51.972  1.00  0.00    -0.084 Cl
ENDBRANCH  18  20
ENDBRANCH  11  18
ENDBRANCH   1   8
TORSDOF 6
ENDMDL
MODEL 20
REMARK VINA RESULT:    -7.607      2.188      2.969
REMARK INTER + INTRA:         -11.479
REMARK INTER:                 -10.673
REMARK INTRA:                  -0.806
REMARK UNBOUND:                -1.204
REMARK SMILES CC(C)CCNc1nc(Nc2ccc(Cl)cc2Cl)c2cnn(C)c2n1
REMARK SMILES IDX 6 1 5 3 4 4 2 5 1 6 3 7 7 8 8 9 25 10 9 11 24 12 19 13 22 14
REMARK SMILES IDX 20 15 21 16 23 17 10 18 11 20 12 21 17 22 13 23 16 24 14 25
REMARK SMILES IDX 18 26 15 27
REMARK H PARENT 6 2 10 19
ROOT
ATOM      1  N   UNL     1       1.523  44.539  52.800  1.00  0.00    -0.354 N 
ATOM      2  H   UNL     1       0.804  44.308  52.125  1.00  0.00     0.163 HD
ENDROOT
BRANCH   1   3
ATOM      3  C   UNL     1       1.389  43.935  54.114  1.00  0.00     0.116 C 
BRANCH   3   4
ATOM      4  C   UNL     1       1.647  44.921  55.260  1.00  0.00     0.024 C 
BRANCH   4   5
ATOM      5  C   UNL     1       0.388  45.528  55.914  1.00  0.00    -0.016 C 
ATOM      6  C   UNL     1      -0.802  44.587  55.712  1.00  0.00     0.007 C 
ATOM      7  C   UNL     1       0.580  45.807  57.405  1.00  0.00     0.007 C 
ENDBRANCH   4   5
ENDBRANCH   3   4
ENDBRANCH   1   3
BRANCH   1   8
ATOM      8  C   UNL     1       2.746  44.421  52.163  1.00  0.00     0.226 A 
ATOM      9  N   UNL     1       3.620  45.445  52.202  1.00  0.00    -0.195 NA
ATOM     10  N   UNL     1       2.948  43.249  51.549  1.00  0.00    -0.193 NA
ATOM     11  C   UNL     1       4.811  45.358  51.560  1.00  0.00     0.147 A 
ATOM     12  C   UNL     1       4.152  43.166  50.963  1.00  0.00     0.165 A 
ATOM     13  C   UNL     1       5.120  44.150  50.932  1.00  0.00     0.082 A 
ATOM     14  N   UNL     1       4.675  42.098  50.287  1.00  0.00    -0.250 N 
ATOM     15  C   UNL     1       6.203  43.551  50.254  1.00  0.00     0.149 A 
ATOM     16  N   UNL     1       5.936  42.307  49.839  1.00  0.00    -0.179 NA
ATOM     17  C   UNL     1       4.037  40.830  50.040  1.00  0.00     0.176 C 
BRANCH  11  18
ATOM     18  N   UNL     1       5.657  46.467  51.658  1.00  0.00    -0.338 N 
ATOM     19  H   UNL     1       5.702  46.930  50.752  1.00  0.00     0.168 HD
BRANCH  18  20
ATOM     20  C   UNL     1       6.827  46.681  52.416  1.00  0.00     0.059 A 
ATOM     21  C   UNL     1       8.113  46.542  51.877  1.00  0.00     0.029 A 
ATOM     22  C   UNL     1       6.725  47.009  53.787  1.00  0.00     0.066 A 
ATOM     23  C   UNL     1       9.253  46.719  52.670  1.00  0.00     0.023 A 
ATOM     24  C   UNL     1       7.859  47.187  54.584  1.00  0.00     0.043 A 
ATOM     25  C   UNL     1       9.119  47.038  54.018  1.00  0.00     0.042 A 
ATOM     26  Cl  UNL     1       5.174  47.213  54.533  1.00  0.00    -0.082 Cl
ATOM     27  Cl  UNL     1      10.523  47.255  54.988  1.00  0.00    -0.084 Cl
ENDBRANCH  18  20
ENDBRANCH  11  18
ENDBRANCH   1   8
TORSDOF 6
ENDMDL
