MODEL 1
REMARK VINA RESULT:    -8.451      0.000      0.000
REMARK INTER + INTRA:         -12.812
REMARK INTER:                 -11.416
REMARK INTRA:                  -1.397
REMARK UNBOUND:                -1.397
REMARK SMILES CC(C)CCNc1nc(Nc2ccccc2F)c2cnn(C)c2n1
REMARK SMILES IDX 6 1 5 3 4 4 2 5 1 6 3 7 7 8 8 9 24 10 9 11 23 12 18 13 21 14
REMARK SMILES IDX 19 15 20 16 22 17 10 18 11 20 12 21 16 22 13 23 15 24 14 25
REMARK SMILES IDX 17 26
REMARK H PARENT 6 2 10 19
ROOT
ATOM      1  N   UNL     1       2.424  45.727  51.821  1.00  0.00    -0.354 N 
ATOM      2  H   UNL     1       2.063  46.268  51.045  1.00  0.00     0.163 HD
ENDROOT
BRANCH   1   3
ATOM      3  C   UNL     1       2.578  46.440  53.077  1.00  0.00     0.116 C 
BRANCH   3   4
ATOM      4  C   UNL     1       2.951  45.525  54.252  1.00  0.00     0.024 C 
BRANCH   4   5
ATOM      5  C   UNL     1       4.239  45.907  55.010  1.00  0.00    -0.016 C 
ATOM      6  C   UNL     1       4.653  47.333  54.634  1.00  0.00     0.007 C 
ATOM      7  C   UNL     1       5.392  44.944  54.727  1.00  0.00     0.007 C 
ENDBRANCH   4   5
ENDBRANCH   3   4
ENDBRANCH   1   3
BRANCH   1   8
ATOM      8  C   UNL     1       3.530  45.039  51.345  1.00  0.00     0.226 A 
ATOM      9  N   UNL     1       4.644  45.785  51.237  1.00  0.00    -0.195 NA
ATOM     10  N   UNL     1       3.429  43.738  51.045  1.00  0.00    -0.193 NA
ATOM     11  C   UNL     1       5.807  45.244  50.788  1.00  0.00     0.147 A 
ATOM     12  C   UNL     1       4.582  43.219  50.601  1.00  0.00     0.165 A 
ATOM     13  C   UNL     1       5.781  43.885  50.451  1.00  0.00     0.082 A 
ATOM     14  N   UNL     1       4.813  41.929  50.208  1.00  0.00    -0.250 N 
ATOM     15  C   UNL     1       6.667  42.902  49.964  1.00  0.00     0.149 A 
ATOM     16  N   UNL     1       6.088  41.704  49.816  1.00  0.00    -0.179 NA
ATOM     17  C   UNL     1       3.860  40.847  50.177  1.00  0.00     0.176 C 
BRANCH  11  18
ATOM     18  N   UNL     1       6.982  45.998  50.678  1.00  0.00    -0.337 N 
ATOM     19  H   UNL     1       7.211  46.288  49.733  1.00  0.00     0.168 HD
BRANCH  18  20
ATOM     20  C   UNL     1       7.929  46.440  51.620  1.00  0.00     0.076 A 
ATOM     21  C   UNL     1       7.653  47.323  52.666  1.00  0.00     0.029 A 
ATOM     22  C   UNL     1       9.247  45.957  51.517  1.00  0.00     0.146 A 
ATOM     23  C   UNL     1       8.655  47.707  53.569  1.00  0.00     0.002 A 
ATOM     24  C   UNL     1      10.250  46.331  52.408  1.00  0.00     0.041 A 
ATOM     25  C   UNL     1       9.951  47.212  53.441  1.00  0.00     0.003 A 
ATOM     26  F   UNL     1       9.551  45.105  50.523  1.00  0.00    -0.205 F 
ENDBRANCH  18  20
ENDBRANCH  11  18
ENDBRANCH   1   8
TORSDOF 6
ENDMDL
MODEL 2
REMARK VINA RESULT:    -8.357      2.348      5.346
REMARK INTER + INTRA:         -12.684
REMARK INTER:                 -12.064
REMARK INTRA:                  -0.620
REMARK UNBOUND:                -1.397
REMARK SMILES CC(C)CCNc1nc(Nc2ccccc2F)c2cnn(C)c2n1
REMARK SMILES IDX 6 1 5 3 4 4 2 5 1 6 3 7 7 8 8 9 24 10 9 11 23 12 18 13 21 14
REMARK SMILES IDX 19 15 20 16 22 17 10 18 11 20 12 21 16 22 13 23 15 24 14 25
REMARK SMILES IDX 17 26
REMARK H PARENT 6 2 10 19
ROOT
ATOM      1  N   UNL     1       5.810  47.115  54.771  1.00  0.00    -0.354 N 
ATOM      2  H   UNL     1       5.544  48.035  54.445  1.00  0.00     0.163 HD
ENDROOT
BRANCH   1   3
ATOM      3  C   UNL     1       7.154  46.682  54.429  1.00  0.00     0.116 C 
BRANCH   3   4
ATOM      4  C   UNL     1       7.746  47.433  53.229  1.00  0.00     0.024 C 
BRANCH   4   5
ATOM      5  C   UNL     1       9.287  47.480  53.167  1.00  0.00    -0.016 C 
ATOM      6  C   UNL     1       9.789  46.484  52.117  1.00  0.00     0.007 C 
ATOM      7  C   UNL     1       9.936  47.178  54.518  1.00  0.00     0.007 C 
ENDBRANCH   4   5
ENDBRANCH   3   4
ENDBRANCH   1   3
BRANCH   1   8
ATOM      8  C   UNL     1       4.768  46.260  54.446  1.00  0.00     0.226 A 
ATOM      9  N   UNL     1       4.956  45.563  53.311  1.00  0.00    -0.195 NA
ATOM     10  N   UNL     1       3.697  46.178  55.245  1.00  0.00    -0.193 NA
ATOM     11  C   UNL     1       4.020  44.683  52.867  1.00  0.00     0.147 A 
ATOM     12  C   UNL     1       2.782  45.309  54.794  1.00  0.00     0.165 A 
ATOM     13  C   UNL     1       2.867  44.543  53.650  1.00  0.00     0.082 A 
ATOM     14  N   UNL     1       1.580  44.999  55.369  1.00  0.00    -0.250 N 
ATOM     15  C   UNL     1       1.665  43.805  53.634  1.00  0.00     0.149 A 
ATOM     16  N   UNL     1       0.874  44.072  54.681  1.00  0.00    -0.179 NA
ATOM     17  C   UNL     1       1.032  45.549  56.585  1.00  0.00     0.176 C 
BRANCH  11  18
ATOM     18  N   UNL     1       4.199  43.938  51.695  1.00  0.00    -0.337 N 
ATOM     19  H   UNL     1       3.358  43.491  51.347  1.00  0.00     0.168 HD
BRANCH  18  20
ATOM     20  C   UNL     1       5.323  43.671  50.891  1.00  0.00     0.076 A 
ATOM     21  C   UNL     1       6.245  44.633  50.474  1.00  0.00     0.029 A 
ATOM     22  C   UNL     1       5.548  42.344  50.481  1.00  0.00     0.146 A 
ATOM     23  C   UNL     1       7.345  44.281  49.680  1.00  0.00     0.002 A 
ATOM     24  C   UNL     1       6.637  41.982  49.691  1.00  0.00     0.041 A 
ATOM     25  C   UNL     1       7.542  42.959  49.289  1.00  0.00     0.003 A 
ATOM     26  F   UNL     1       4.682  41.389  50.862  1.00  0.00    -0.205 F 
ENDBRANCH  18  20
ENDBRANCH  11  18
ENDBRANCH   1   8
TORSDOF 6
ENDMDL
MODEL 3
REMARK VINA RESULT:    -8.350      1.853      2.324
REMARK INTER + INTRA:         -12.676
REMARK INTER:                 -11.755
REMARK INTRA:                  -0.921
REMARK UNBOUND:                -1.397
REMARK SMILES CC(C)CCNc1nc(Nc2ccccc2F)c2cnn(C)c2n1
REMARK SMILES IDX 6 1 5 3 4 4 2 5 1 6 3 7 7 8 8 9 24 10 9 11 23 12 18 13 21 14
REMARK SMILES IDX 19 15 20 16 22 17 10 18 11 20 12 21 16 22 13 23 15 24 14 25
REMARK SMILES IDX 17 26
REMARK H PARENT 6 2 10 19
ROOT
ATOM      1  N   UNL     1       2.974  43.345  53.128  1.00  0.00    -0.354 N 
ATOM      2  H   UNL     1       2.911  42.339  53.214  1.00  0.00     0.163 HD
ENDROOT
BRANCH   1   3
ATOM      3  C   UNL     1       1.727  44.042  52.865  1.00  0.00     0.116 C 
BRANCH   3   4
ATOM      4  C   UNL     1       1.432  45.159  53.875  1.00  0.00     0.024 C 
BRANCH   4   5
ATOM      5  C   UNL     1       2.015  44.951  55.288  1.00  0.00    -0.016 C 
ATOM      6  C   UNL     1       0.929  45.211  56.336  1.00  0.00     0.007 C 
ATOM      7  C   UNL     1       3.222  45.849  55.562  1.00  0.00     0.007 C 
ENDBRANCH   4   5
ENDBRANCH   3   4
ENDBRANCH   1   3
BRANCH   1   8
ATOM      8  C   UNL     1       4.036  43.605  52.275  1.00  0.00     0.226 A 
ATOM      9  N   UNL     1       4.676  44.763  52.523  1.00  0.00    -0.195 NA
ATOM     10  N   UNL     1       4.350  42.730  51.312  1.00  0.00    -0.193 NA
ATOM     11  C   UNL     1       5.740  45.149  51.770  1.00  0.00     0.147 A 
ATOM     12  C   UNL     1       5.398  43.125  50.576  1.00  0.00     0.165 A 
ATOM     13  C   UNL     1       6.128  44.285  50.738  1.00  0.00     0.082 A 
ATOM     14  N   UNL     1       5.963  42.466  49.519  1.00  0.00    -0.250 N 
ATOM     15  C   UNL     1       7.111  44.223  49.728  1.00  0.00     0.149 A 
ATOM     16  N   UNL     1       7.022  43.115  48.981  1.00  0.00    -0.179 NA
ATOM     17  C   UNL     1       5.547  41.204  48.960  1.00  0.00     0.176 C 
BRANCH  11  18
ATOM     18  N   UNL     1       6.427  46.344  52.016  1.00  0.00    -0.337 N 
ATOM     19  H   UNL     1       5.945  47.180  51.705  1.00  0.00     0.168 HD
BRANCH  18  20
ATOM     20  C   UNL     1       7.672  46.629  52.608  1.00  0.00     0.076 A 
ATOM     21  C   UNL     1       8.901  46.532  51.953  1.00  0.00     0.029 A 
ATOM     22  C   UNL     1       7.690  47.049  53.950  1.00  0.00     0.146 A 
ATOM     23  C   UNL     1      10.098  46.844  52.614  1.00  0.00     0.002 A 
ATOM     24  C   UNL     1       8.872  47.362  54.618  1.00  0.00     0.041 A 
ATOM     25  C   UNL     1      10.084  47.258  53.944  1.00  0.00     0.003 A 
ATOM     26  F   UNL     1       6.527  47.154  54.615  1.00  0.00    -0.205 F 
ENDBRANCH  18  20
ENDBRANCH  11  18
ENDBRANCH   1   8
TORSDOF 6
ENDMDL
MODEL 4
REMARK VINA RESULT:    -8.345      2.231      5.044
REMARK INTER + INTRA:         -12.668
REMARK INTER:                 -11.894
REMARK INTRA:                  -0.775
REMARK UNBOUND:                -1.397
REMARK SMILES CC(C)CCNc1nc(Nc2ccccc2F)c2cnn(C)c2n1
REMARK SMILES IDX 6 1 5 3 4 4 2 5 1 6 3 7 7 8 8 9 24 10 9 11 23 12 18 13 21 14
REMARK SMILES IDX 19 15 20 16 22 17 10 18 11 20 12 21 16 22 13 23 15 24 14 25
REMARK SMILES IDX 17 26
REMARK H PARENT 6 2 10 19
ROOT
ATOM      1  N   UNL     1       6.069  41.438  49.263  1.00  0.00    -0.354 N 
ATOM      2  H   UNL     1       7.063  41.559  49.114  1.00  0.00     0.163 HD
ENDROOT
BRANCH   1   3
ATOM      3  C   UNL     1       5.274  41.177  48.075  1.00  0.00     0.116 C 
BRANCH   3   4
ATOM      4  C   UNL     1       5.783  41.915  46.830  1.00  0.00     0.024 C 
BRANCH   4   5
ATOM      5  C   UNL     1       5.173  41.458  45.489  1.00  0.00    -0.016 C 
ATOM      6  C   UNL     1       5.102  42.647  44.526  1.00  0.00     0.007 C 
ATOM      7  C   UNL     1       3.782  40.846  45.657  1.00  0.00     0.007 C 
ENDBRANCH   4   5
ENDBRANCH   3   4
ENDBRANCH   1   3
BRANCH   1   8
ATOM      8  C   UNL     1       5.659  42.479  50.081  1.00  0.00     0.226 A 
ATOM      9  N   UNL     1       6.474  43.550  50.065  1.00  0.00    -0.195 NA
ATOM     10  N   UNL     1       4.532  42.366  50.794  1.00  0.00    -0.193 NA
ATOM     11  C   UNL     1       6.199  44.650  50.816  1.00  0.00     0.147 A 
ATOM     12  C   UNL     1       4.275  43.455  51.531  1.00  0.00     0.165 A 
ATOM     13  C   UNL     1       5.035  44.606  51.593  1.00  0.00     0.082 A 
ATOM     14  N   UNL     1       3.213  43.657  52.369  1.00  0.00    -0.250 N 
ATOM     15  C   UNL     1       4.337  45.436  52.495  1.00  0.00     0.149 A 
ATOM     16  N   UNL     1       3.221  44.869  52.971  1.00  0.00    -0.179 NA
ATOM     17  C   UNL     1       2.141  42.734  52.649  1.00  0.00     0.176 C 
BRANCH  11  18
ATOM     18  N   UNL     1       7.026  45.780  50.807  1.00  0.00    -0.337 N 
ATOM     19  H   UNL     1       6.947  46.354  49.975  1.00  0.00     0.168 HD
BRANCH  18  20
ATOM     20  C   UNL     1       7.963  46.288  51.725  1.00  0.00     0.076 A 
ATOM     21  C   UNL     1       7.647  47.120  52.801  1.00  0.00     0.029 A 
ATOM     22  C   UNL     1       9.315  45.934  51.561  1.00  0.00     0.146 A 
ATOM     23  C   UNL     1       8.643  47.577  53.676  1.00  0.00     0.002 A 
ATOM     24  C   UNL     1      10.313  46.382  52.424  1.00  0.00     0.041 A 
ATOM     25  C   UNL     1       9.973  47.209  53.489  1.00  0.00     0.003 A 
ATOM     26  F   UNL     1       9.659  45.135  50.537  1.00  0.00    -0.205 F 
ENDBRANCH  18  20
ENDBRANCH  11  18
ENDBRANCH   1   8
TORSDOF 6
ENDMDL
MODEL 5
REMARK VINA RESULT:    -8.309      2.387      5.181
REMARK INTER + INTRA:         -12.619
REMARK INTER:                 -11.857
REMARK INTRA:                  -0.763
REMARK UNBOUND:                -1.397
REMARK SMILES CC(C)CCNc1nc(Nc2ccccc2F)c2cnn(C)c2n1
REMARK SMILES IDX 6 1 5 3 4 4 2 5 1 6 3 7 7 8 8 9 24 10 9 11 23 12 18 13 21 14
REMARK SMILES IDX 19 15 20 16 22 17 10 18 11 20 12 21 16 22 13 23 15 24 14 25
REMARK SMILES IDX 17 26
REMARK H PARENT 6 2 10 19
ROOT
ATOM      1  N   UNL     1       6.157  41.559  49.437  1.00  0.00    -0.354 N 
ATOM      2  H   UNL     1       7.135  41.773  49.290  1.00  0.00     0.163 HD
ENDROOT
BRANCH   1   3
ATOM      3  C   UNL     1       5.403  41.180  48.255  1.00  0.00     0.116 C 
BRANCH   3   4
ATOM      4  C   UNL     1       5.812  41.961  46.999  1.00  0.00     0.024 C 
BRANCH   4   5
ATOM      5  C   UNL     1       5.209  41.452  45.673  1.00  0.00    -0.016 C 
ATOM      6  C   UNL     1       5.114  42.610  44.674  1.00  0.00     0.007 C 
ATOM      7  C   UNL     1       3.831  40.818  45.862  1.00  0.00     0.007 C 
ENDBRANCH   4   5
ENDBRANCH   3   4
ENDBRANCH   1   3
BRANCH   1   8
ATOM      8  C   UNL     1       5.639  42.582  50.217  1.00  0.00     0.226 A 
ATOM      9  N   UNL     1       6.402  43.689  50.258  1.00  0.00    -0.195 NA
ATOM     10  N   UNL     1       4.467  42.417  50.843  1.00  0.00    -0.193 NA
ATOM     11  C   UNL     1       6.021  44.776  50.980  1.00  0.00     0.147 A 
ATOM     12  C   UNL     1       4.105  43.495  51.553  1.00  0.00     0.165 A 
ATOM     13  C   UNL     1       4.804  44.679  51.667  1.00  0.00     0.082 A 
ATOM     14  N   UNL     1       2.974  43.648  52.307  1.00  0.00    -0.250 N 
ATOM     15  C   UNL     1       4.002  45.478  52.509  1.00  0.00     0.149 A 
ATOM     16  N   UNL     1       2.881  44.860  52.902  1.00  0.00    -0.179 NA
ATOM     17  C   UNL     1       1.928  42.677  52.510  1.00  0.00     0.176 C 
BRANCH  11  18
ATOM     18  N   UNL     1       6.793  45.943  51.028  1.00  0.00    -0.337 N 
ATOM     19  H   UNL     1       6.525  46.654  50.356  1.00  0.00     0.168 HD
BRANCH  18  20
ATOM     20  C   UNL     1       7.885  46.337  51.822  1.00  0.00     0.076 A 
ATOM     21  C   UNL     1       9.218  46.020  51.550  1.00  0.00     0.029 A 
ATOM     22  C   UNL     1       7.630  47.113  52.968  1.00  0.00     0.146 A 
ATOM     23  C   UNL     1      10.250  46.461  52.391  1.00  0.00     0.002 A 
ATOM     24  C   UNL     1       8.646  47.557  53.811  1.00  0.00     0.041 A 
ATOM     25  C   UNL     1       9.966  47.228  53.518  1.00  0.00     0.003 A 
ATOM     26  F   UNL     1       6.359  47.438  53.264  1.00  0.00    -0.205 F 
ENDBRANCH  18  20
ENDBRANCH  11  18
ENDBRANCH   1   8
TORSDOF 6
ENDMDL
MODEL 6
REMARK VINA RESULT:    -8.263      2.049      5.492
REMARK INTER + INTRA:         -12.558
REMARK INTER:                 -11.792
REMARK INTRA:                  -0.766
REMARK UNBOUND:                -1.397
REMARK SMILES CC(C)CCNc1nc(Nc2ccccc2F)c2cnn(C)c2n1
REMARK SMILES IDX 6 1 5 3 4 4 2 5 1 6 3 7 7 8 8 9 24 10 9 11 23 12 18 13 21 14
REMARK SMILES IDX 19 15 20 16 22 17 10 18 11 20 12 21 16 22 13 23 15 24 14 25
REMARK SMILES IDX 17 26
REMARK H PARENT 6 2 10 19
ROOT
ATOM      1  N   UNL     1       5.826  47.198  54.726  1.00  0.00    -0.354 N 
ATOM      2  H   UNL     1       5.607  48.136  54.415  1.00  0.00     0.163 HD
ENDROOT
BRANCH   1   3
ATOM      3  C   UNL     1       7.148  46.706  54.382  1.00  0.00     0.116 C 
BRANCH   3   4
ATOM      4  C   UNL     1       7.794  47.466  53.216  1.00  0.00     0.024 C 
BRANCH   4   5
ATOM      5  C   UNL     1       9.337  47.502  53.217  1.00  0.00    -0.016 C 
ATOM      6  C   UNL     1       9.876  46.491  52.201  1.00  0.00     0.007 C 
ATOM      7  C   UNL     1       9.927  47.212  54.597  1.00  0.00     0.007 C 
ENDBRANCH   4   5
ENDBRANCH   3   4
ENDBRANCH   1   3
BRANCH   1   8
ATOM      8  C   UNL     1       4.745  46.401  54.381  1.00  0.00     0.226 A 
ATOM      9  N   UNL     1       4.825  45.857  53.153  1.00  0.00    -0.195 NA
ATOM     10  N   UNL     1       3.742  46.223  55.250  1.00  0.00    -0.193 NA
ATOM     11  C   UNL     1       3.840  45.050  52.679  1.00  0.00     0.147 A 
ATOM     12  C   UNL     1       2.777  45.428  54.769  1.00  0.00     0.165 A 
ATOM     13  C   UNL     1       2.753  44.818  53.531  1.00  0.00     0.082 A 
ATOM     14  N   UNL     1       1.621  45.054  55.399  1.00  0.00    -0.250 N 
ATOM     15  C   UNL     1       1.540  44.097  53.522  1.00  0.00     0.149 A 
ATOM     16  N   UNL     1       0.844  44.231  54.657  1.00  0.00    -0.179 NA
ATOM     17  C   UNL     1       1.186  45.443  56.717  1.00  0.00     0.176 C 
BRANCH  11  18
ATOM     18  N   UNL     1       3.907  44.465  51.410  1.00  0.00    -0.337 N 
ATOM     19  H   UNL     1       3.213  44.802  50.752  1.00  0.00     0.168 HD
BRANCH  18  20
ATOM     20  C   UNL     1       4.747  43.484  50.849  1.00  0.00     0.076 A 
ATOM     21  C   UNL     1       4.448  42.121  50.799  1.00  0.00     0.029 A 
ATOM     22  C   UNL     1       5.971  43.896  50.291  1.00  0.00     0.146 A 
ATOM     23  C   UNL     1       5.338  41.209  50.213  1.00  0.00     0.002 A 
ATOM     24  C   UNL     1       6.864  42.999  49.707  1.00  0.00     0.041 A 
ATOM     25  C   UNL     1       6.544  41.646  49.668  1.00  0.00     0.003 A 
ATOM     26  F   UNL     1       6.295  45.200  50.321  1.00  0.00    -0.205 F 
ENDBRANCH  18  20
ENDBRANCH  11  18
ENDBRANCH   1   8
TORSDOF 6
ENDMDL
MODEL 7
REMARK VINA RESULT:    -8.171      1.945      4.696
REMARK INTER + INTRA:         -12.434
REMARK INTER:                 -11.415
REMARK INTRA:                  -1.019
REMARK UNBOUND:                -1.397
REMARK SMILES CC(C)CCNc1nc(Nc2ccccc2F)c2cnn(C)c2n1
REMARK SMILES IDX 6 1 5 3 4 4 2 5 1 6 3 7 7 8 8 9 24 10 9 11 23 12 18 13 21 14
REMARK SMILES IDX 19 15 20 16 22 17 10 18 11 20 12 21 16 22 13 23 15 24 14 25
REMARK SMILES IDX 17 26
REMARK H PARENT 6 2 10 19
ROOT
ATOM      1  N   UNL     1       4.168  42.748  50.720  1.00  0.00    -0.354 N 
ATOM      2  H   UNL     1       3.208  42.541  50.474  1.00  0.00     0.163 HD
ENDROOT
BRANCH   1   3
ATOM      3  C   UNL     1       5.020  41.601  50.980  1.00  0.00     0.116 C 
BRANCH   3   4
ATOM      4  C   UNL     1       6.241  41.529  50.052  1.00  0.00     0.024 C 
BRANCH   4   5
ATOM      5  C   UNL     1       6.373  42.683  49.037  1.00  0.00    -0.016 C 
ATOM      6  C   UNL     1       6.147  42.148  47.619  1.00  0.00     0.007 C 
ATOM      7  C   UNL     1       7.733  43.378  49.115  1.00  0.00     0.007 C 
ENDBRANCH   4   5
ENDBRANCH   3   4
ENDBRANCH   1   3
BRANCH   1   8
ATOM      8  C   UNL     1       4.126  43.737  51.691  1.00  0.00     0.226 A 
ATOM      9  N   UNL     1       5.082  44.676  51.568  1.00  0.00    -0.195 NA
ATOM     10  N   UNL     1       3.179  43.705  52.637  1.00  0.00    -0.193 NA
ATOM     11  C   UNL     1       5.163  45.711  52.446  1.00  0.00     0.147 A 
ATOM     12  C   UNL     1       3.272  44.729  53.496  1.00  0.00     0.165 A 
ATOM     13  C   UNL     1       4.206  45.745  53.468  1.00  0.00     0.082 A 
ATOM     14  N   UNL     1       2.468  44.983  54.573  1.00  0.00    -0.250 N 
ATOM     15  C   UNL     1       3.869  46.558  54.570  1.00  0.00     0.149 A 
ATOM     16  N   UNL     1       2.808  46.105  55.249  1.00  0.00    -0.179 NA
ATOM     17  C   UNL     1       1.347  44.196  55.023  1.00  0.00     0.176 C 
BRANCH  11  18
ATOM     18  N   UNL     1       6.142  46.705  52.331  1.00  0.00    -0.337 N 
ATOM     19  H   UNL     1       5.798  47.600  52.002  1.00  0.00     0.168 HD
BRANCH  18  20
ATOM     20  C   UNL     1       7.528  46.718  52.576  1.00  0.00     0.076 A 
ATOM     21  C   UNL     1       8.506  46.517  51.600  1.00  0.00     0.029 A 
ATOM     22  C   UNL     1       7.970  46.958  53.890  1.00  0.00     0.146 A 
ATOM     23  C   UNL     1       9.869  46.555  51.927  1.00  0.00     0.002 A 
ATOM     24  C   UNL     1       9.321  46.998  54.227  1.00  0.00     0.041 A 
ATOM     25  C   UNL     1      10.277  46.795  53.237  1.00  0.00     0.003 A 
ATOM     26  F   UNL     1       7.058  47.156  54.858  1.00  0.00    -0.205 F 
ENDBRANCH  18  20
ENDBRANCH  11  18
ENDBRANCH   1   8
TORSDOF 6
ENDMDL
MODEL 8
REMARK VINA RESULT:    -8.165      2.110      2.701
REMARK INTER + INTRA:         -12.425
REMARK INTER:                 -11.665
REMARK INTRA:                  -0.760
REMARK UNBOUND:                -1.397
REMARK SMILES CC(C)CCNc1nc(Nc2ccccc2F)c2cnn(C)c2n1
REMARK SMILES IDX 6 1 5 3 4 4 2 5 1 6 3 7 7 8 8 9 24 10 9 11 23 12 18 13 21 14
REMARK SMILES IDX 19 15 20 16 22 17 10 18 11 20 12 21 16 22 13 23 15 24 14 25
REMARK SMILES IDX 17 26
REMARK H PARENT 6 2 10 19
ROOT
ATOM      1  N   UNL     1       2.574  43.812  53.753  1.00  0.00    -0.354 N 
ATOM      2  H   UNL     1       1.935  43.100  53.420  1.00  0.00     0.163 HD
ENDROOT
BRANCH   1   3
ATOM      3  C   UNL     1       1.966  45.053  54.201  1.00  0.00     0.116 C 
BRANCH   3   4
ATOM      4  C   UNL     1       1.814  45.139  55.725  1.00  0.00     0.024 C 
BRANCH   4   5
ATOM      5  C   UNL     1       0.376  44.977  56.261  1.00  0.00    -0.016 C 
ATOM      6  C   UNL     1      -0.601  44.866  55.087  1.00  0.00     0.007 C 
ATOM      7  C   UNL     1      -0.042  46.131  57.173  1.00  0.00     0.007 C 
ENDBRANCH   4   5
ENDBRANCH   3   4
ENDBRANCH   1   3
BRANCH   1   8
ATOM      8  C   UNL     1       3.589  43.907  52.814  1.00  0.00     0.226 A 
ATOM      9  N   UNL     1       4.331  45.026  52.911  1.00  0.00    -0.195 NA
ATOM     10  N   UNL     1       3.766  42.927  51.920  1.00  0.00    -0.193 NA
ATOM     11  C   UNL     1       5.364  45.256  52.059  1.00  0.00     0.147 A 
ATOM     12  C   UNL     1       4.787  43.168  51.085  1.00  0.00     0.165 A 
ATOM     13  C   UNL     1       5.612  44.274  51.090  1.00  0.00     0.082 A 
ATOM     14  N   UNL     1       5.224  42.374  50.060  1.00  0.00    -0.250 N 
ATOM     15  C   UNL     1       6.513  44.042  50.030  1.00  0.00     0.149 A 
ATOM     16  N   UNL     1       6.288  42.884  49.398  1.00  0.00    -0.179 NA
ATOM     17  C   UNL     1       4.674  41.106  49.650  1.00  0.00     0.176 C 
BRANCH  11  18
ATOM     18  N   UNL     1       6.157  46.407  52.147  1.00  0.00    -0.337 N 
ATOM     19  H   UNL     1       5.699  47.259  51.843  1.00  0.00     0.168 HD
BRANCH  18  20
ATOM     20  C   UNL     1       7.480  46.629  52.571  1.00  0.00     0.076 A 
ATOM     21  C   UNL     1       8.605  46.508  51.753  1.00  0.00     0.029 A 
ATOM     22  C   UNL     1       7.696  47.009  53.909  1.00  0.00     0.146 A 
ATOM     23  C   UNL     1       9.891  46.757  52.253  1.00  0.00     0.002 A 
ATOM     24  C   UNL     1       8.968  47.259  54.418  1.00  0.00     0.041 A 
ATOM     25  C   UNL     1      10.073  47.132  53.582  1.00  0.00     0.003 A 
ATOM     26  F   UNL     1       6.638  47.136  54.728  1.00  0.00    -0.205 F 
ENDBRANCH  18  20
ENDBRANCH  11  18
ENDBRANCH   1   8
TORSDOF 6
ENDMDL
MODEL 9
REMARK VINA RESULT:    -8.162      2.296      3.034
REMARK INTER + INTRA:         -12.421
REMARK INTER:                 -11.409
REMARK INTRA:                  -1.012
REMARK UNBOUND:                -1.397
REMARK SMILES CC(C)CCNc1nc(Nc2ccccc2F)c2cnn(C)c2n1
REMARK SMILES IDX 6 1 5 3 4 4 2 5 1 6 3 7 7 8 8 9 24 10 9 11 23 12 18 13 21 14
REMARK SMILES IDX 19 15 20 16 22 17 10 18 11 20 12 21 16 22 13 23 15 24 14 25
REMARK SMILES IDX 17 26
REMARK H PARENT 6 2 10 19
ROOT
ATOM      1  N   UNL     1       2.532  44.446  54.479  1.00  0.00    -0.354 N 
ATOM      2  H   UNL     1       2.377  43.494  54.787  1.00  0.00     0.163 HD
ENDROOT
BRANCH   1   3
ATOM      3  C   UNL     1       1.340  45.240  54.241  1.00  0.00     0.116 C 
BRANCH   3   4
ATOM      4  C   UNL     1       0.041  44.428  54.336  1.00  0.00     0.024 C 
BRANCH   4   5
ATOM      5  C   UNL     1      -0.436  43.777  53.021  1.00  0.00    -0.016 C 
ATOM      6  C   UNL     1      -0.020  42.303  52.997  1.00  0.00     0.007 C 
ATOM      7  C   UNL     1       0.113  44.489  51.784  1.00  0.00     0.007 C 
ENDBRANCH   4   5
ENDBRANCH   3   4
ENDBRANCH   1   3
BRANCH   1   8
ATOM      8  C   UNL     1       3.468  44.386  53.457  1.00  0.00     0.226 A 
ATOM      9  N   UNL     1       4.300  45.443  53.405  1.00  0.00    -0.195 NA
ATOM     10  N   UNL     1       3.491  43.332  52.633  1.00  0.00    -0.193 NA
ATOM     11  C   UNL     1       5.271  45.521  52.457  1.00  0.00     0.147 A 
ATOM     12  C   UNL     1       4.452  43.424  51.703  1.00  0.00     0.165 A 
ATOM     13  C   UNL     1       5.358  44.454  51.554  1.00  0.00     0.082 A 
ATOM     14  N   UNL     1       4.737  42.523  50.714  1.00  0.00    -0.250 N 
ATOM     15  C   UNL     1       6.144  44.070  50.448  1.00  0.00     0.149 A 
ATOM     16  N   UNL     1       5.777  42.891  49.930  1.00  0.00    -0.179 NA
ATOM     17  C   UNL     1       4.057  41.279  50.452  1.00  0.00     0.176 C 
BRANCH  11  18
ATOM     18  N   UNL     1       6.155  46.605  52.390  1.00  0.00    -0.337 N 
ATOM     19  H   UNL     1       5.744  47.464  52.039  1.00  0.00     0.168 HD
BRANCH  18  20
ATOM     20  C   UNL     1       7.518  46.752  52.707  1.00  0.00     0.076 A 
ATOM     21  C   UNL     1       8.562  46.630  51.788  1.00  0.00     0.029 A 
ATOM     22  C   UNL     1       7.865  47.050  54.038  1.00  0.00     0.146 A 
ATOM     23  C   UNL     1       9.896  46.800  52.184  1.00  0.00     0.002 A 
ATOM     24  C   UNL     1       9.186  47.221  54.444  1.00  0.00     0.041 A 
ATOM     25  C   UNL     1      10.208  47.095  53.510  1.00  0.00     0.003 A 
ATOM     26  F   UNL     1       6.887  47.175  54.952  1.00  0.00    -0.205 F 
ENDBRANCH  18  20
ENDBRANCH  11  18
ENDBRANCH   1   8
TORSDOF 6
ENDMDL
MODEL 10
REMARK VINA RESULT:    -8.143      1.663      4.491
REMARK INTER + INTRA:         -12.396
REMARK INTER:                 -11.365
REMARK INTRA:                  -1.031
REMARK UNBOUND:                -1.397
REMARK SMILES CC(C)CCNc1nc(Nc2ccccc2F)c2cnn(C)c2n1
REMARK SMILES IDX 6 1 5 3 4 4 2 5 1 6 3 7 7 8 8 9 24 10 9 11 23 12 18 13 21 14
REMARK SMILES IDX 19 15 20 16 22 17 10 18 11 20 12 21 16 22 13 23 15 24 14 25
REMARK SMILES IDX 17 26
REMARK H PARENT 6 2 10 19
ROOT
ATOM      1  N   UNL     1       3.663  43.020  50.824  1.00  0.00    -0.354 N 
ATOM      2  H   UNL     1       2.682  43.033  50.572  1.00  0.00     0.163 HD
ENDROOT
BRANCH   1   3
ATOM      3  C   UNL     1       4.240  41.709  51.064  1.00  0.00     0.116 C 
BRANCH   3   4
ATOM      4  C   UNL     1       5.617  41.524  50.411  1.00  0.00     0.024 C 
BRANCH   4   5
ATOM      5  C   UNL     1       5.921  42.459  49.222  1.00  0.00    -0.016 C 
ATOM      6  C   UNL     1       5.778  41.684  47.909  1.00  0.00     0.007 C 
ATOM      7  C   UNL     1       7.316  43.078  49.307  1.00  0.00     0.007 C 
ENDBRANCH   4   5
ENDBRANCH   3   4
ENDBRANCH   1   3
BRANCH   1   8
ATOM      8  C   UNL     1       3.833  43.978  51.812  1.00  0.00     0.226 A 
ATOM      9  N   UNL     1       4.836  44.844  51.579  1.00  0.00    -0.195 NA
ATOM     10  N   UNL     1       3.024  43.988  52.879  1.00  0.00    -0.193 NA
ATOM     11  C   UNL     1       5.119  45.840  52.459  1.00  0.00     0.147 A 
ATOM     12  C   UNL     1       3.316  44.973  53.739  1.00  0.00     0.165 A 
ATOM     13  C   UNL     1       4.316  45.915  53.604  1.00  0.00     0.082 A 
ATOM     14  N   UNL     1       2.689  45.253  54.922  1.00  0.00    -0.250 N 
ATOM     15  C   UNL     1       4.200  46.715  54.760  1.00  0.00     0.149 A 
ATOM     16  N   UNL     1       3.207  46.323  55.569  1.00  0.00    -0.179 NA
ATOM     17  C   UNL     1       1.580  44.541  55.506  1.00  0.00     0.176 C 
BRANCH  11  18
ATOM     18  N   UNL     1       6.150  46.759  52.232  1.00  0.00    -0.337 N 
ATOM     19  H   UNL     1       5.888  47.556  51.662  1.00  0.00     0.168 HD
BRANCH  18  20
ATOM     20  C   UNL     1       7.499  46.803  52.630  1.00  0.00     0.076 A 
ATOM     21  C   UNL     1       7.937  47.180  53.901  1.00  0.00     0.029 A 
ATOM     22  C   UNL     1       8.483  46.437  51.693  1.00  0.00     0.146 A 
ATOM     23  C   UNL     1       9.303  47.188  54.221  1.00  0.00     0.002 A 
ATOM     24  C   UNL     1       9.842  46.442  51.998  1.00  0.00     0.041 A 
ATOM     25  C   UNL     1      10.254  46.820  53.271  1.00  0.00     0.003 A 
ATOM     26  F   UNL     1       8.101  46.069  50.458  1.00  0.00    -0.205 F 
ENDBRANCH  18  20
ENDBRANCH  11  18
ENDBRANCH   1   8
TORSDOF 6
ENDMDL
MODEL 11
REMARK VINA RESULT:    -8.084      2.056      5.254
REMARK INTER + INTRA:         -12.316
REMARK INTER:                 -11.290
REMARK INTRA:                  -1.027
REMARK UNBOUND:                -1.397
REMARK SMILES CC(C)CCNc1nc(Nc2ccccc2F)c2cnn(C)c2n1
REMARK SMILES IDX 6 1 5 3 4 4 2 5 1 6 3 7 7 8 8 9 24 10 9 11 23 12 18 13 21 14
REMARK SMILES IDX 19 15 20 16 22 17 10 18 11 20 12 21 16 22 13 23 15 24 14 25
REMARK SMILES IDX 17 26
REMARK H PARENT 6 2 10 19
ROOT
ATOM      1  N   UNL     1       4.491  46.870  54.945  1.00  0.00    -0.354 N 
ATOM      2  H   UNL     1       4.756  47.511  55.682  1.00  0.00     0.163 HD
ENDROOT
BRANCH   1   3
ATOM      3  C   UNL     1       3.763  45.685  55.364  1.00  0.00     0.116 C 
BRANCH   3   4
ATOM      4  C   UNL     1       2.324  45.638  54.833  1.00  0.00     0.024 C 
BRANCH   4   5
ATOM      5  C   UNL     1       2.104  44.763  53.582  1.00  0.00    -0.016 C 
ATOM      6  C   UNL     1       1.644  45.642  52.415  1.00  0.00     0.007 C 
ATOM      7  C   UNL     1       1.088  43.646  53.819  1.00  0.00     0.007 C 
ENDBRANCH   4   5
ENDBRANCH   3   4
ENDBRANCH   1   3
BRANCH   1   8
ATOM      8  C   UNL     1       5.617  46.676  54.161  1.00  0.00     0.226 A 
ATOM      9  N   UNL     1       5.383  46.028  53.005  1.00  0.00    -0.195 NA
ATOM     10  N   UNL     1       6.806  47.130  54.575  1.00  0.00    -0.193 NA
ATOM     11  C   UNL     1       6.392  45.769  52.132  1.00  0.00     0.147 A 
ATOM     12  C   UNL     1       7.791  46.866  53.706  1.00  0.00     0.165 A 
ATOM     13  C   UNL     1       7.669  46.212  52.496  1.00  0.00     0.082 A 
ATOM     14  N   UNL     1       9.115  47.187  53.831  1.00  0.00    -0.250 N 
ATOM     15  C   UNL     1       8.980  46.198  51.974  1.00  0.00     0.149 A 
ATOM     16  N   UNL     1       9.869  46.794  52.778  1.00  0.00    -0.179 NA
ATOM     17  C   UNL     1       9.741  47.874  54.934  1.00  0.00     0.176 C 
BRANCH  11  18
ATOM     18  N   UNL     1       6.170  45.106  50.918  1.00  0.00    -0.337 N 
ATOM     19  H   UNL     1       6.380  45.656  50.092  1.00  0.00     0.168 HD
BRANCH  18  20
ATOM     20  C   UNL     1       5.703  43.817  50.602  1.00  0.00     0.076 A 
ATOM     21  C   UNL     1       4.570  43.225  51.164  1.00  0.00     0.029 A 
ATOM     22  C   UNL     1       6.414  43.066  49.648  1.00  0.00     0.146 A 
ATOM     23  C   UNL     1       4.167  41.937  50.787  1.00  0.00     0.002 A 
ATOM     24  C   UNL     1       6.023  41.786  49.264  1.00  0.00     0.041 A 
ATOM     25  C   UNL     1       4.891  41.218  49.838  1.00  0.00     0.003 A 
ATOM     26  F   UNL     1       7.510  43.602  49.084  1.00  0.00    -0.205 F 
ENDBRANCH  18  20
ENDBRANCH  11  18
ENDBRANCH   1   8
TORSDOF 6
ENDMDL
MODEL 12
REMARK VINA RESULT:    -8.045      2.741      6.234
REMARK INTER + INTRA:         -12.263
REMARK INTER:                 -11.393
REMARK INTRA:                  -0.871
REMARK UNBOUND:                -1.397
REMARK SMILES CC(C)CCNc1nc(Nc2ccccc2F)c2cnn(C)c2n1
REMARK SMILES IDX 6 1 5 3 4 4 2 5 1 6 3 7 7 8 8 9 24 10 9 11 23 12 18 13 21 14
REMARK SMILES IDX 19 15 20 16 22 17 10 18 11 20 12 21 16 22 13 23 15 24 14 25
REMARK SMILES IDX 17 26
REMARK H PARENT 6 2 10 19
ROOT
ATOM      1  N   UNL     1       7.919  45.661  50.449  1.00  0.00    -0.354 N 
ATOM      2  H   UNL     1       8.766  45.123  50.319  1.00  0.00     0.163 HD
ENDROOT
BRANCH   1   3
ATOM      3  C   UNL     1       8.006  46.772  51.380  1.00  0.00     0.116 C 
BRANCH   3   4
ATOM      4  C   UNL     1       9.327  46.808  52.160  1.00  0.00     0.024 C 
BRANCH   4   5
ATOM      5  C   UNL     1       9.224  46.469  53.661  1.00  0.00    -0.016 C 
ATOM      6  C   UNL     1       7.824  46.820  54.172  1.00  0.00     0.007 C 
ATOM      7  C   UNL     1      10.277  47.195  54.499  1.00  0.00     0.007 C 
ENDBRANCH   4   5
ENDBRANCH   3   4
ENDBRANCH   1   3
BRANCH   1   8
ATOM      8  C   UNL     1       6.894  44.749  50.645  1.00  0.00     0.226 A 
ATOM      9  N   UNL     1       6.894  43.719  49.779  1.00  0.00    -0.195 NA
ATOM     10  N   UNL     1       6.017  44.933  51.639  1.00  0.00    -0.193 NA
ATOM     11  C   UNL     1       5.950  42.744  49.852  1.00  0.00     0.147 A 
ATOM     12  C   UNL     1       5.091  43.966  51.698  1.00  0.00     0.165 A 
ATOM     13  C   UNL     1       4.994  42.868  50.867  1.00  0.00     0.082 A 
ATOM     14  N   UNL     1       4.056  43.861  52.586  1.00  0.00    -0.250 N 
ATOM     15  C   UNL     1       3.868  42.166  51.346  1.00  0.00     0.149 A 
ATOM     16  N   UNL     1       3.290  42.761  52.398  1.00  0.00    -0.179 NA
ATOM     17  C   UNL     1       3.731  44.778  53.651  1.00  0.00     0.176 C 
BRANCH  11  18
ATOM     18  N   UNL     1       5.937  41.657  48.968  1.00  0.00    -0.337 N 
ATOM     19  H   UNL     1       6.515  40.874  49.254  1.00  0.00     0.168 HD
BRANCH  18  20
ATOM     20  C   UNL     1       5.284  41.426  47.743  1.00  0.00     0.076 A 
ATOM     21  C   UNL     1       5.708  41.929  46.512  1.00  0.00     0.029 A 
ATOM     22  C   UNL     1       4.127  40.625  47.747  1.00  0.00     0.146 A 
ATOM     23  C   UNL     1       5.003  41.643  45.334  1.00  0.00     0.002 A 
ATOM     24  C   UNL     1       3.418  40.334  46.583  1.00  0.00     0.041 A 
ATOM     25  C   UNL     1       3.861  40.847  45.369  1.00  0.00     0.003 A 
ATOM     26  F   UNL     1       3.687  40.122  48.913  1.00  0.00    -0.205 F 
ENDBRANCH  18  20
ENDBRANCH  11  18
ENDBRANCH   1   8
TORSDOF 6
ENDMDL
MODEL 13
REMARK VINA RESULT:    -8.044      2.669      5.911
REMARK INTER + INTRA:         -12.262
REMARK INTER:                 -11.480
REMARK INTRA:                  -0.782
REMARK UNBOUND:                -1.397
REMARK SMILES CC(C)CCNc1nc(Nc2ccccc2F)c2cnn(C)c2n1
REMARK SMILES IDX 6 1 5 3 4 4 2 5 1 6 3 7 7 8 8 9 24 10 9 11 23 12 18 13 21 14
REMARK SMILES IDX 19 15 20 16 22 17 10 18 11 20 12 21 16 22 13 23 15 24 14 25
REMARK SMILES IDX 17 26
REMARK H PARENT 6 2 10 19
ROOT
ATOM      1  N   UNL     1       5.803  47.036  52.572  1.00  0.00    -0.354 N 
ATOM      2  H   UNL     1       5.079  47.604  52.150  1.00  0.00     0.163 HD
ENDROOT
BRANCH   1   3
ATOM      3  C   UNL     1       7.134  47.616  52.594  1.00  0.00     0.116 C 
BRANCH   3   4
ATOM      4  C   UNL     1       8.007  47.087  53.740  1.00  0.00     0.024 C 
BRANCH   4   5
ATOM      5  C   UNL     1       9.516  47.389  53.622  1.00  0.00    -0.016 C 
ATOM      6  C   UNL     1      10.145  46.462  52.576  1.00  0.00     0.007 C 
ATOM      7  C   UNL     1      10.249  47.237  54.954  1.00  0.00     0.007 C 
ENDBRANCH   4   5
ENDBRANCH   3   4
ENDBRANCH   1   3
BRANCH   1   8
ATOM      8  C   UNL     1       5.675  45.764  52.035  1.00  0.00     0.226 A 
ATOM      9  N   UNL     1       4.690  45.028  52.581  1.00  0.00    -0.195 NA
ATOM     10  N   UNL     1       6.492  45.370  51.051  1.00  0.00    -0.193 NA
ATOM     11  C   UNL     1       4.444  43.762  52.152  1.00  0.00     0.147 A 
ATOM     12  C   UNL     1       6.240  44.119  50.640  1.00  0.00     0.165 A 
ATOM     13  C   UNL     1       5.261  43.275  51.124  1.00  0.00     0.082 A 
ATOM     14  N   UNL     1       6.893  43.420  49.662  1.00  0.00    -0.250 N 
ATOM     15  C   UNL     1       5.411  42.096  50.364  1.00  0.00     0.149 A 
ATOM     16  N   UNL     1       6.401  42.175  49.467  1.00  0.00    -0.179 NA
ATOM     17  C   UNL     1       8.004  43.877  48.865  1.00  0.00     0.176 C 
BRANCH  11  18
ATOM     18  N   UNL     1       3.418  42.981  52.697  1.00  0.00    -0.337 N 
ATOM     19  H   UNL     1       3.731  42.135  53.160  1.00  0.00     0.168 HD
BRANCH  18  20
ATOM     20  C   UNL     1       2.018  43.126  52.731  1.00  0.00     0.076 A 
ATOM     21  C   UNL     1       1.289  43.511  53.858  1.00  0.00     0.029 A 
ATOM     22  C   UNL     1       1.293  42.875  51.552  1.00  0.00     0.146 A 
ATOM     23  C   UNL     1      -0.106  43.641  53.805  1.00  0.00     0.002 A 
ATOM     24  C   UNL     1      -0.092  43.000  51.486  1.00  0.00     0.041 A 
ATOM     25  C   UNL     1      -0.796  43.386  52.622  1.00  0.00     0.003 A 
ATOM     26  F   UNL     1       1.960  42.502  50.446  1.00  0.00    -0.205 F 
ENDBRANCH  18  20
ENDBRANCH  11  18
ENDBRANCH   1   8
TORSDOF 6
ENDMDL
MODEL 14
REMARK VINA RESULT:    -8.004      2.600      5.940
REMARK INTER + INTRA:         -12.208
REMARK INTER:                 -11.466
REMARK INTRA:                  -0.741
REMARK UNBOUND:                -1.397
REMARK SMILES CC(C)CCNc1nc(Nc2ccccc2F)c2cnn(C)c2n1
REMARK SMILES IDX 6 1 5 3 4 4 2 5 1 6 3 7 7 8 8 9 24 10 9 11 23 12 18 13 21 14
REMARK SMILES IDX 19 15 20 16 22 17 10 18 11 20 12 21 16 22 13 23 15 24 14 25
REMARK SMILES IDX 17 26
REMARK H PARENT 6 2 10 19
ROOT
ATOM      1  N   UNL     1       5.987  46.906  52.357  1.00  0.00    -0.354 N 
ATOM      2  H   UNL     1       5.863  47.522  51.563  1.00  0.00     0.163 HD
ENDROOT
BRANCH   1   3
ATOM      3  C   UNL     1       7.197  47.109  53.136  1.00  0.00     0.116 C 
BRANCH   3   4
ATOM      4  C   UNL     1       8.341  47.735  52.328  1.00  0.00     0.024 C 
BRANCH   4   5
ATOM      5  C   UNL     1       9.761  47.276  52.719  1.00  0.00    -0.016 C 
ATOM      6  C   UNL     1      10.147  46.041  51.900  1.00  0.00     0.007 C 
ATOM      7  C   UNL     1       9.885  46.965  54.211  1.00  0.00     0.007 C 
ENDBRANCH   4   5
ENDBRANCH   3   4
ENDBRANCH   1   3
BRANCH   1   8
ATOM      8  C   UNL     1       5.732  45.620  51.907  1.00  0.00     0.226 A 
ATOM      9  N   UNL     1       4.746  44.987  52.568  1.00  0.00    -0.195 NA
ATOM     10  N   UNL     1       6.439  45.116  50.889  1.00  0.00    -0.193 NA
ATOM     11  C   UNL     1       4.382  43.720  52.235  1.00  0.00     0.147 A 
ATOM     12  C   UNL     1       6.072  43.866  50.573  1.00  0.00     0.165 A 
ATOM     13  C   UNL     1       5.079  43.122  51.179  1.00  0.00     0.082 A 
ATOM     14  N   UNL     1       6.596  43.071  49.592  1.00  0.00    -0.250 N 
ATOM     15  C   UNL     1       5.088  41.896  50.481  1.00  0.00     0.149 A 
ATOM     16  N   UNL     1       6.007  41.855  49.508  1.00  0.00    -0.179 NA
ATOM     17  C   UNL     1       7.668  43.403  48.687  1.00  0.00     0.176 C 
BRANCH  11  18
ATOM     18  N   UNL     1       3.351  43.046  52.902  1.00  0.00    -0.337 N 
ATOM     19  H   UNL     1       3.629  42.171  53.333  1.00  0.00     0.168 HD
BRANCH  18  20
ATOM     20  C   UNL     1       1.987  43.331  53.094  1.00  0.00     0.076 A 
ATOM     21  C   UNL     1       0.955  42.845  52.287  1.00  0.00     0.029 A 
ATOM     22  C   UNL     1       1.624  44.153  54.176  1.00  0.00     0.146 A 
ATOM     23  C   UNL     1      -0.383  43.170  52.554  1.00  0.00     0.002 A 
ATOM     24  C   UNL     1       0.299  44.484  54.451  1.00  0.00     0.041 A 
ATOM     25  C   UNL     1      -0.711  43.987  53.634  1.00  0.00     0.003 A 
ATOM     26  F   UNL     1       2.589  44.640  54.975  1.00  0.00    -0.205 F 
ENDBRANCH  18  20
ENDBRANCH  11  18
ENDBRANCH   1   8
TORSDOF 6
ENDMDL
MODEL 15
REMARK VINA RESULT:    -7.994      1.975      2.438
REMARK INTER + INTRA:         -12.194
REMARK INTER:                 -11.570
REMARK INTRA:                  -0.624
REMARK UNBOUND:                -1.397
REMARK SMILES CC(C)CCNc1nc(Nc2ccccc2F)c2cnn(C)c2n1
REMARK SMILES IDX 6 1 5 3 4 4 2 5 1 6 3 7 7 8 8 9 24 10 9 11 23 12 18 13 21 14
REMARK SMILES IDX 19 15 20 16 22 17 10 18 11 20 12 21 16 22 13 23 15 24 14 25
REMARK SMILES IDX 17 26
REMARK H PARENT 6 2 10 19
ROOT
ATOM      1  N   UNL     1       2.364  43.850  53.838  1.00  0.00    -0.354 N 
ATOM      2  H   UNL     1       1.519  43.694  53.303  1.00  0.00     0.163 HD
ENDROOT
BRANCH   1   3
ATOM      3  C   UNL     1       2.287  44.875  54.864  1.00  0.00     0.116 C 
BRANCH   3   4
ATOM      4  C   UNL     1       0.852  45.327  55.164  1.00  0.00     0.024 C 
BRANCH   4   5
ATOM      5  C   UNL     1       0.374  45.110  56.615  1.00  0.00    -0.016 C 
ATOM      6  C   UNL     1      -1.157  45.088  56.655  1.00  0.00     0.007 C 
ATOM      7  C   UNL     1       0.900  46.182  57.570  1.00  0.00     0.007 C 
ENDBRANCH   4   5
ENDBRANCH   3   4
ENDBRANCH   1   3
BRANCH   1   8
ATOM      8  C   UNL     1       3.402  43.947  52.924  1.00  0.00     0.226 A 
ATOM      9  N   UNL     1       4.119  45.082  53.016  1.00  0.00    -0.195 NA
ATOM     10  N   UNL     1       3.623  42.952  52.057  1.00  0.00    -0.193 NA
ATOM     11  C   UNL     1       5.170  45.315  52.187  1.00  0.00     0.147 A 
ATOM     12  C   UNL     1       4.660  43.196  51.244  1.00  0.00     0.165 A 
ATOM     13  C   UNL     1       5.463  44.319  51.247  1.00  0.00     0.082 A 
ATOM     14  N   UNL     1       5.141  42.389  50.249  1.00  0.00    -0.250 N 
ATOM     15  C   UNL     1       6.397  44.083  50.216  1.00  0.00     0.149 A 
ATOM     16  N   UNL     1       6.212  42.907  49.603  1.00  0.00    -0.179 NA
ATOM     17  C   UNL     1       4.628  41.102  49.852  1.00  0.00     0.176 C 
BRANCH  11  18
ATOM     18  N   UNL     1       5.936  46.484  52.271  1.00  0.00    -0.337 N 
ATOM     19  H   UNL     1       5.485  47.312  51.900  1.00  0.00     0.168 HD
BRANCH  18  20
ATOM     20  C   UNL     1       7.227  46.750  52.765  1.00  0.00     0.076 A 
ATOM     21  C   UNL     1       7.526  46.991  54.108  1.00  0.00     0.029 A 
ATOM     22  C   UNL     1       8.298  46.770  51.854  1.00  0.00     0.146 A 
ATOM     23  C   UNL     1       8.843  47.240  54.520  1.00  0.00     0.002 A 
ATOM     24  C   UNL     1       9.611  47.016  52.251  1.00  0.00     0.041 A 
ATOM     25  C   UNL     1       9.884  47.253  53.594  1.00  0.00     0.003 A 
ATOM     26  F   UNL     1       8.050  46.543  50.553  1.00  0.00    -0.205 F 
ENDBRANCH  18  20
ENDBRANCH  11  18
ENDBRANCH   1   8
TORSDOF 6
ENDMDL
MODEL 16
REMARK VINA RESULT:    -7.924      2.445      5.353
REMARK INTER + INTRA:         -12.100
REMARK INTER:                 -11.475
REMARK INTRA:                  -0.625
REMARK UNBOUND:                -1.397
REMARK SMILES CC(C)CCNc1nc(Nc2ccccc2F)c2cnn(C)c2n1
REMARK SMILES IDX 6 1 5 3 4 4 2 5 1 6 3 7 7 8 8 9 24 10 9 11 23 12 18 13 21 14
REMARK SMILES IDX 19 15 20 16 22 17 10 18 11 20 12 21 16 22 13 23 15 24 14 25
REMARK SMILES IDX 17 26
REMARK H PARENT 6 2 10 19
ROOT
ATOM      1  N   UNL     1       5.014  46.879  54.605  1.00  0.00    -0.354 N 
ATOM      2  H   UNL     1       4.537  47.669  55.021  1.00  0.00     0.163 HD
ENDROOT
BRANCH   1   3
ATOM      3  C   UNL     1       6.012  47.195  53.599  1.00  0.00     0.116 C 
BRANCH   3   4
ATOM      4  C   UNL     1       7.447  46.895  54.053  1.00  0.00     0.024 C 
BRANCH   4   5
ATOM      5  C   UNL     1       8.503  46.842  52.929  1.00  0.00    -0.016 C 
ATOM      6  C   UNL     1       9.907  46.852  53.543  1.00  0.00     0.007 C 
ATOM      7  C   UNL     1       8.364  48.000  51.940  1.00  0.00     0.007 C 
ENDBRANCH   4   5
ENDBRANCH   3   4
ENDBRANCH   1   3
BRANCH   1   8
ATOM      8  C   UNL     1       4.034  45.961  54.258  1.00  0.00     0.226 A 
ATOM      9  N   UNL     1       4.328  45.218  53.175  1.00  0.00    -0.195 NA
ATOM     10  N   UNL     1       2.917  45.867  54.990  1.00  0.00    -0.193 NA
ATOM     11  C   UNL     1       3.464  44.274  52.719  1.00  0.00     0.147 A 
ATOM     12  C   UNL     1       2.073  44.935  54.527  1.00  0.00     0.165 A 
ATOM     13  C   UNL     1       2.268  44.118  53.431  1.00  0.00     0.082 A 
ATOM     14  N   UNL     1       0.851  44.596  55.039  1.00  0.00    -0.250 N 
ATOM     15  C   UNL     1       1.104  43.324  53.377  1.00  0.00     0.149 A 
ATOM     16  N   UNL     1       0.234  43.604  54.355  1.00  0.00    -0.179 NA
ATOM     17  C   UNL     1       0.199  45.178  56.186  1.00  0.00     0.176 C 
BRANCH  11  18
ATOM     18  N   UNL     1       3.753  43.482  51.601  1.00  0.00    -0.337 N 
ATOM     19  H   UNL     1       2.961  42.968  51.231  1.00  0.00     0.168 HD
BRANCH  18  20
ATOM     20  C   UNL     1       4.936  43.243  50.876  1.00  0.00     0.076 A 
ATOM     21  C   UNL     1       5.846  44.231  50.497  1.00  0.00     0.029 A 
ATOM     22  C   UNL     1       5.236  41.917  50.510  1.00  0.00     0.146 A 
ATOM     23  C   UNL     1       7.008  43.906  49.783  1.00  0.00     0.002 A 
ATOM     24  C   UNL     1       6.386  41.582  49.800  1.00  0.00     0.041 A 
ATOM     25  C   UNL     1       7.278  42.584  49.434  1.00  0.00     0.003 A 
ATOM     26  F   UNL     1       4.383  40.938  50.857  1.00  0.00    -0.205 F 
ENDBRANCH  18  20
ENDBRANCH  11  18
ENDBRANCH   1   8
TORSDOF 6
ENDMDL
MODEL 17
REMARK VINA RESULT:    -7.795      2.758      5.962
REMARK INTER + INTRA:         -11.925
REMARK INTER:                 -11.223
REMARK INTRA:                  -0.702
REMARK UNBOUND:                -1.397
REMARK SMILES CC(C)CCNc1nc(Nc2ccccc2F)c2cnn(C)c2n1
REMARK SMILES IDX 6 1 5 3 4 4 2 5 1 6 3 7 7 8 8 9 24 10 9 11 23 12 18 13 21 14
REMARK SMILES IDX 19 15 20 16 22 17 10 18 11 20 12 21 16 22 13 23 15 24 14 25
REMARK SMILES IDX 17 26
REMARK H PARENT 6 2 10 19
ROOT
ATOM      1  N   UNL     1       5.649  46.827  52.313  1.00  0.00    -0.354 N 
ATOM      2  H   UNL     1       5.747  47.353  51.453  1.00  0.00     0.163 HD
ENDROOT
BRANCH   1   3
ATOM      3  C   UNL     1       6.689  47.032  53.306  1.00  0.00     0.116 C 
BRANCH   3   4
ATOM      4  C   UNL     1       8.039  47.432  52.697  1.00  0.00     0.024 C 
BRANCH   4   5
ATOM      5  C   UNL     1       9.239  46.551  53.100  1.00  0.00    -0.016 C 
ATOM      6  C   UNL     1       9.933  47.157  54.323  1.00  0.00     0.007 C 
ATOM      7  C   UNL     1      10.249  46.381  51.964  1.00  0.00     0.007 C 
ENDBRANCH   4   5
ENDBRANCH   3   4
ENDBRANCH   1   3
BRANCH   1   8
ATOM      8  C   UNL     1       5.370  45.519  51.949  1.00  0.00     0.226 A 
ATOM      9  N   UNL     1       4.365  44.953  52.643  1.00  0.00    -0.195 NA
ATOM     10  N   UNL     1       6.074  44.931  50.975  1.00  0.00    -0.193 NA
ATOM     11  C   UNL     1       3.976  43.674  52.395  1.00  0.00     0.147 A 
ATOM     12  C   UNL     1       5.682  43.671  50.742  1.00  0.00     0.165 A 
ATOM     13  C   UNL     1       4.669  42.991  51.388  1.00  0.00     0.082 A 
ATOM     14  N   UNL     1       6.197  42.799  49.822  1.00  0.00    -0.250 N 
ATOM     15  C   UNL     1       4.657  41.720  50.776  1.00  0.00     0.149 A 
ATOM     16  N   UNL     1       5.582  41.593  49.816  1.00  0.00    -0.179 NA
ATOM     17  C   UNL     1       7.283  43.046  48.906  1.00  0.00     0.176 C 
BRANCH  11  18
ATOM     18  N   UNL     1       2.927  43.069  53.096  1.00  0.00    -0.337 N 
ATOM     19  H   UNL     1       3.104  42.111  53.377  1.00  0.00     0.168 HD
BRANCH  18  20
ATOM     20  C   UNL     1       1.654  43.519  53.493  1.00  0.00     0.076 A 
ATOM     21  C   UNL     1       1.411  44.325  54.607  1.00  0.00     0.029 A 
ATOM     22  C   UNL     1       0.542  43.143  52.716  1.00  0.00     0.146 A 
ATOM     23  C   UNL     1       0.110  44.737  54.929  1.00  0.00     0.002 A 
ATOM     24  C   UNL     1      -0.754  43.546  53.026  1.00  0.00     0.041 A 
ATOM     25  C   UNL     1      -0.971  44.350  54.140  1.00  0.00     0.003 A 
ATOM     26  F   UNL     1       0.736  42.367  51.636  1.00  0.00    -0.205 F 
ENDBRANCH  18  20
ENDBRANCH  11  18
ENDBRANCH   1   8
TORSDOF 6
ENDMDL
MODEL 18
REMARK VINA RESULT:    -7.722      2.458      5.680
REMARK INTER + INTRA:         -11.828
REMARK INTER:                 -11.043
REMARK INTRA:                  -0.785
REMARK UNBOUND:                -1.397
REMARK SMILES CC(C)CCNc1nc(Nc2ccccc2F)c2cnn(C)c2n1
REMARK SMILES IDX 6 1 5 3 4 4 2 5 1 6 3 7 7 8 8 9 24 10 9 11 23 12 18 13 21 14
REMARK SMILES IDX 19 15 20 16 22 17 10 18 11 20 12 21 16 22 13 23 15 24 14 25
REMARK SMILES IDX 17 26
REMARK H PARENT 6 2 10 19
ROOT
ATOM      1  N   UNL     1       6.972  46.406  51.199  1.00  0.00    -0.354 N 
ATOM      2  H   UNL     1       7.860  45.979  50.964  1.00  0.00     0.163 HD
ENDROOT
BRANCH   1   3
ATOM      3  C   UNL     1       6.978  47.297  52.345  1.00  0.00     0.116 C 
BRANCH   3   4
ATOM      4  C   UNL     1       8.381  47.785  52.728  1.00  0.00     0.024 C 
BRANCH   4   5
ATOM      5  C   UNL     1       9.358  46.692  53.209  1.00  0.00    -0.016 C 
ATOM      6  C   UNL     1      10.053  47.154  54.494  1.00  0.00     0.007 C 
ATOM      7  C   UNL     1      10.406  46.337  52.154  1.00  0.00     0.007 C 
ENDBRANCH   4   5
ENDBRANCH   3   4
ENDBRANCH   1   3
BRANCH   1   8
ATOM      8  C   UNL     1       6.028  45.391  51.191  1.00  0.00     0.226 A 
ATOM      9  N   UNL     1       4.813  45.760  51.638  1.00  0.00    -0.195 NA
ATOM     10  N   UNL     1       6.362  44.171  50.753  1.00  0.00    -0.193 NA
ATOM     11  C   UNL     1       3.786  44.871  51.685  1.00  0.00     0.147 A 
ATOM     12  C   UNL     1       5.340  43.305  50.807  1.00  0.00     0.165 A 
ATOM     13  C   UNL     1       4.058  43.570  51.244  1.00  0.00     0.082 A 
ATOM     14  N   UNL     1       5.351  41.987  50.441  1.00  0.00    -0.250 N 
ATOM     15  C   UNL     1       3.379  42.343  51.096  1.00  0.00     0.149 A 
ATOM     16  N   UNL     1       4.157  41.371  50.603  1.00  0.00    -0.179 NA
ATOM     17  C   UNL     1       6.470  41.239  49.925  1.00  0.00     0.176 C 
BRANCH  11  18
ATOM     18  N   UNL     1       2.511  45.235  52.136  1.00  0.00    -0.337 N 
ATOM     19  H   UNL     1       1.937  45.704  51.444  1.00  0.00     0.168 HD
BRANCH  18  20
ATOM     20  C   UNL     1       1.854  45.088  53.371  1.00  0.00     0.076 A 
ATOM     21  C   UNL     1       2.358  45.534  54.594  1.00  0.00     0.029 A 
ATOM     22  C   UNL     1       0.596  44.457  53.386  1.00  0.00     0.146 A 
ATOM     23  C   UNL     1       1.633  45.356  55.782  1.00  0.00     0.002 A 
ATOM     24  C   UNL     1      -0.133  44.274  54.558  1.00  0.00     0.041 A 
ATOM     25  C   UNL     1       0.390  44.728  55.764  1.00  0.00     0.003 A 
ATOM     26  F   UNL     1       0.077  44.014  52.228  1.00  0.00    -0.205 F 
ENDBRANCH  18  20
ENDBRANCH  11  18
ENDBRANCH   1   8
TORSDOF 6
ENDMDL
MODEL 19
REMARK VINA RESULT:    -7.621      2.413      6.531
REMARK INTER + INTRA:         -11.691
REMARK INTER:                 -10.525
REMARK INTRA:                  -1.166
REMARK UNBOUND:                -1.397
REMARK SMILES CC(C)CCNc1nc(Nc2ccccc2F)c2cnn(C)c2n1
REMARK SMILES IDX 6 1 5 3 4 4 2 5 1 6 3 7 7 8 8 9 24 10 9 11 23 12 18 13 21 14
REMARK SMILES IDX 19 15 20 16 22 17 10 18 11 20 12 21 16 22 13 23 15 24 14 25
REMARK SMILES IDX 17 26
REMARK H PARENT 6 2 10 19
ROOT
ATOM      1  N   UNL     1       8.040  45.139  49.607  1.00  0.00    -0.354 N 
ATOM      2  H   UNL     1       7.520  45.602  48.872  1.00  0.00     0.163 HD
ENDROOT
BRANCH   1   3
ATOM      3  C   UNL     1       8.118  43.692  49.517  1.00  0.00     0.116 C 
BRANCH   3   4
ATOM      4  C   UNL     1       6.927  43.065  48.779  1.00  0.00     0.024 C 
BRANCH   4   5
ATOM      5  C   UNL     1       6.158  41.979  49.559  1.00  0.00    -0.016 C 
ATOM      6  C   UNL     1       5.327  41.138  48.585  1.00  0.00     0.007 C 
ATOM      7  C   UNL     1       5.250  42.566  50.639  1.00  0.00     0.007 C 
ENDBRANCH   4   5
ENDBRANCH   3   4
ENDBRANCH   1   3
BRANCH   1   8
ATOM      8  C   UNL     1       7.597  45.676  50.806  1.00  0.00     0.226 A 
ATOM      9  N   UNL     1       6.258  45.748  50.921  1.00  0.00    -0.195 NA
ATOM     10  N   UNL     1       8.482  46.060  51.734  1.00  0.00    -0.193 NA
ATOM     11  C   UNL     1       5.678  46.249  52.043  1.00  0.00     0.147 A 
ATOM     12  C   UNL     1       7.897  46.554  52.833  1.00  0.00     0.165 A 
ATOM     13  C   UNL     1       6.541  46.676  53.061  1.00  0.00     0.082 A 
ATOM     14  N   UNL     1       8.514  47.037  53.955  1.00  0.00    -0.250 N 
ATOM     15  C   UNL     1       6.453  47.239  54.351  1.00  0.00     0.149 A 
ATOM     16  N   UNL     1       7.650  47.460  54.908  1.00  0.00    -0.179 NA
ATOM     17  C   UNL     1       9.933  47.127  54.194  1.00  0.00     0.176 C 
BRANCH  11  18
ATOM     18  N   UNL     1       4.288  46.323  52.189  1.00  0.00    -0.337 N 
ATOM     19  H   UNL     1       3.933  47.254  52.383  1.00  0.00     0.168 HD
BRANCH  18  20
ATOM     20  C   UNL     1       3.264  45.359  52.129  1.00  0.00     0.076 A 
ATOM     21  C   UNL     1       2.415  45.173  51.036  1.00  0.00     0.029 A 
ATOM     22  C   UNL     1       3.080  44.513  53.237  1.00  0.00     0.146 A 
ATOM     23  C   UNL     1       1.424  44.182  51.053  1.00  0.00     0.002 A 
ATOM     24  C   UNL     1       2.099  43.524  53.266  1.00  0.00     0.041 A 
ATOM     25  C   UNL     1       1.266  43.358  52.165  1.00  0.00     0.003 A 
ATOM     26  F   UNL     1       3.878  44.661  54.309  1.00  0.00    -0.205 F 
ENDBRANCH  18  20
ENDBRANCH  11  18
ENDBRANCH   1   8
TORSDOF 6
ENDMDL
MODEL 20
REMARK VINA RESULT:    -7.607      2.068      5.558
REMARK INTER + INTRA:         -11.672
REMARK INTER:                 -11.044
REMARK INTRA:                  -0.628
REMARK UNBOUND:                -1.397
REMARK SMILES CC(C)CCNc1nc(Nc2ccccc2F)c2cnn(C)c2n1
REMARK SMILES IDX 6 1 5 3 4 4 2 5 1 6 3 7 7 8 8 9 24 10 9 11 23 12 18 13 21 14
REMARK SMILES IDX 19 15 20 16 22 17 10 18 11 20 12 21 16 22 13 23 15 24 14 25
REMARK SMILES IDX 17 26
REMARK H PARENT 6 2 10 19
ROOT
ATOM      1  N   UNL     1       6.877  46.421  51.188  1.00  0.00    -0.354 N 
ATOM      2  H   UNL     1       7.600  46.187  50.518  1.00  0.00     0.163 HD
ENDROOT
BRANCH   1   3
ATOM      3  C   UNL     1       7.337  46.890  52.483  1.00  0.00     0.116 C 
BRANCH   3   4
ATOM      4  C   UNL     1       8.539  47.841  52.392  1.00  0.00     0.024 C 
BRANCH   4   5
ATOM      5  C   UNL     1       9.885  47.261  52.875  1.00  0.00    -0.016 C 
ATOM      6  C   UNL     1      10.252  46.040  52.026  1.00  0.00     0.007 C 
ATOM      7  C   UNL     1       9.858  46.873  54.354  1.00  0.00     0.007 C 
ENDBRANCH   4   5
ENDBRANCH   3   4
ENDBRANCH   1   3
BRANCH   1   8
ATOM      8  C   UNL     1       5.971  45.372  51.180  1.00  0.00     0.226 A 
ATOM      9  N   UNL     1       4.740  45.700  51.613  1.00  0.00    -0.195 NA
ATOM     10  N   UNL     1       6.353  44.162  50.755  1.00  0.00    -0.193 NA
ATOM     11  C   UNL     1       3.745  44.774  51.658  1.00  0.00     0.147 A 
ATOM     12  C   UNL     1       5.364  43.260  50.807  1.00  0.00     0.165 A 
ATOM     13  C   UNL     1       4.069  43.481  51.231  1.00  0.00     0.082 A 
ATOM     14  N   UNL     1       5.427  41.940  50.452  1.00  0.00    -0.250 N 
ATOM     15  C   UNL     1       3.436  42.228  51.086  1.00  0.00     0.149 A 
ATOM     16  N   UNL     1       4.254  41.282  50.608  1.00  0.00    -0.179 NA
ATOM     17  C   UNL     1       6.577  41.229  49.952  1.00  0.00     0.176 C 
BRANCH  11  18
ATOM     18  N   UNL     1       2.454  45.094  52.095  1.00  0.00    -0.337 N 
ATOM     19  H   UNL     1       1.865  45.525  51.391  1.00  0.00     0.168 HD
BRANCH  18  20
ATOM     20  C   UNL     1       1.796  44.946  53.330  1.00  0.00     0.076 A 
ATOM     21  C   UNL     1       0.624  44.211  53.519  1.00  0.00     0.029 A 
ATOM     22  C   UNL     1       2.353  45.570  54.461  1.00  0.00     0.146 A 
ATOM     23  C   UNL     1       0.035  44.106  54.787  1.00  0.00     0.002 A 
ATOM     24  C   UNL     1       1.777  45.473  55.726  1.00  0.00     0.041 A 
ATOM     25  C   UNL     1       0.610  44.735  55.889  1.00  0.00     0.003 A 
ATOM     26  F   UNL     1       3.481  46.287  54.319  1.00  0.00    -0.205 F 
ENDBRANCH  18  20
ENDBRANCH  11  18
ENDBRANCH   1   8
TORSDOF 6
ENDMDL
