MODEL 1
REMARK VINA RESULT:    -9.058      0.000      0.000
REMARK INTER + INTRA:         -13.539
REMARK INTER:                 -12.236
REMARK INTRA:                  -1.303
REMARK UNBOUND:                -1.303
REMARK SMILES CC(=O)NCCNc1nc(Nc2ccccc2Cl)c2cnn(C)c2n1
REMARK SMILES IDX 7 1 6 3 5 4 4 5 2 6 1 7 3 8 8 10 9 11 25 12 10 13 24 14
REMARK SMILES IDX 19 15 22 16 20 17 21 18 23 19 11 20 12 22 13 23 17 24 14 25
REMARK SMILES IDX 16 26 15 27 18 28
REMARK H PARENT 7 2 4 9 11 21
ROOT
ATOM      1  N   UNL     1       4.647  46.951  54.972  1.00  0.00    -0.352 N 
ATOM      2  H   UNL     1       4.056  47.611  54.479  1.00  0.00     0.163 HD
ENDROOT
BRANCH   1   3
ATOM      3  C   UNL     1       3.989  45.733  55.419  1.00  0.00     0.137 C 
BRANCH   3   4
ATOM      4  C   UNL     1       2.517  45.657  54.977  1.00  0.00     0.137 C 
BRANCH   4   5
ATOM      5  N   UNL     1       2.356  45.148  53.626  1.00  0.00    -0.355 N 
ATOM      6  C   UNL     1       2.293  45.993  52.543  1.00  0.00     0.216 C 
ATOM      7  C   UNL     1       2.088  45.298  51.224  1.00  0.00     0.114 C 
ATOM      8  O   UNL     1       2.376  47.213  52.633  1.00  0.00    -0.275 OA
ATOM      9  H   UNL     1       2.177  44.160  53.502  1.00  0.00     0.163 HD
ENDBRANCH   4   5
ENDBRANCH   3   4
ENDBRANCH   1   3
BRANCH   1  10
ATOM     10  C   UNL     1       5.806  46.802  54.226  1.00  0.00     0.226 A 
ATOM     11  N   UNL     1       5.627  46.227  53.026  1.00  0.00    -0.195 NA
ATOM     12  N   UNL     1       6.978  47.205  54.733  1.00  0.00    -0.193 NA
ATOM     13  C   UNL     1       6.674  46.019  52.185  1.00  0.00     0.147 A 
ATOM     14  C   UNL     1       8.002  46.999  53.892  1.00  0.00     0.165 A 
ATOM     15  C   UNL     1       7.935  46.425  52.639  1.00  0.00     0.082 A 
ATOM     16  N   UNL     1       9.318  47.315  54.095  1.00  0.00    -0.250 N 
ATOM     17  C   UNL     1       9.269  46.433  52.179  1.00  0.00     0.149 A 
ATOM     18  N   UNL     1      10.122  46.966  53.062  1.00  0.00    -0.179 NA
ATOM     19  C   UNL     1       9.890  47.954  55.253  1.00  0.00     0.176 C 
BRANCH  13  20
ATOM     20  N   UNL     1       6.514  45.413  50.933  1.00  0.00    -0.338 N 
ATOM     21  H   UNL     1       6.693  46.026  50.145  1.00  0.00     0.168 HD
BRANCH  20  22
ATOM     22  C   UNL     1       6.158  44.109  50.528  1.00  0.00     0.058 A 
ATOM     23  C   UNL     1       5.036  43.430  51.017  1.00  0.00     0.027 A 
ATOM     24  C   UNL     1       6.967  43.428  49.592  1.00  0.00     0.064 A 
ATOM     25  C   UNL     1       4.730  42.130  50.593  1.00  0.00     0.002 A 
ATOM     26  C   UNL     1       6.668  42.131  49.166  1.00  0.00     0.023 A 
ATOM     27  C   UNL     1       5.545  41.480  49.670  1.00  0.00     0.002 A 
ATOM     28  Cl  UNL     1       8.378  44.192  48.932  1.00  0.00    -0.082 Cl
ENDBRANCH  20  22
ENDBRANCH  13  20
ENDBRANCH   1  10
TORSDOF 6
ENDMDL
MODEL 2
REMARK VINA RESULT:    -8.801      0.978      0.978
REMARK INTER + INTRA:         -13.191
REMARK INTER:                 -12.065
REMARK INTRA:                  -1.126
REMARK UNBOUND:                -1.303
REMARK SMILES CC(=O)NCCNc1nc(Nc2ccccc2Cl)c2cnn(C)c2n1
REMARK SMILES IDX 7 1 6 3 5 4 4 5 2 6 1 7 3 8 8 10 9 11 25 12 10 13 24 14
REMARK SMILES IDX 19 15 22 16 20 17 21 18 23 19 11 20 12 22 13 23 17 24 14 25
REMARK SMILES IDX 16 26 15 27 18 28
REMARK H PARENT 7 2 4 9 11 21
ROOT
ATOM      1  N   UNL     1       4.504  46.965  54.963  1.00  0.00    -0.352 N 
ATOM      2  H   UNL     1       3.890  47.564  54.421  1.00  0.00     0.163 HD
ENDROOT
BRANCH   1   3
ATOM      3  C   UNL     1       3.879  45.784  55.539  1.00  0.00     0.137 C 
BRANCH   3   4
ATOM      4  C   UNL     1       2.392  45.658  55.165  1.00  0.00     0.137 C 
BRANCH   4   5
ATOM      5  N   UNL     1       2.039  44.336  54.676  1.00  0.00    -0.355 N 
ATOM      6  C   UNL     1       1.806  44.103  53.341  1.00  0.00     0.216 C 
ATOM      7  C   UNL     1       1.418  42.687  53.016  1.00  0.00     0.114 C 
ATOM      8  O   UNL     1       1.887  44.973  52.480  1.00  0.00    -0.275 OA
ATOM      9  H   UNL     1       1.856  43.606  55.351  1.00  0.00     0.163 HD
ENDBRANCH   4   5
ENDBRANCH   3   4
ENDBRANCH   1   3
BRANCH   1  10
ATOM     10  C   UNL     1       5.650  46.766  54.209  1.00  0.00     0.226 A 
ATOM     11  N   UNL     1       5.444  46.155  53.030  1.00  0.00    -0.195 NA
ATOM     12  N   UNL     1       6.837  47.158  54.689  1.00  0.00    -0.193 NA
ATOM     13  C   UNL     1       6.476  45.897  52.185  1.00  0.00     0.147 A 
ATOM     14  C   UNL     1       7.846  46.902  53.844  1.00  0.00     0.165 A 
ATOM     15  C   UNL     1       7.751  46.289  52.611  1.00  0.00     0.082 A 
ATOM     16  N   UNL     1       9.171  47.194  54.021  1.00  0.00    -0.250 N 
ATOM     17  C   UNL     1       9.079  46.251  52.136  1.00  0.00     0.149 A 
ATOM     18  N   UNL     1       9.954  46.793  52.992  1.00  0.00    -0.179 NA
ATOM     19  C   UNL     1       9.770  47.858  55.151  1.00  0.00     0.176 C 
BRANCH  13  20
ATOM     20  N   UNL     1       6.287  45.254  50.955  1.00  0.00    -0.338 N 
ATOM     21  H   UNL     1       6.496  45.828  50.147  1.00  0.00     0.168 HD
BRANCH  20  22
ATOM     22  C   UNL     1       5.869  43.954  50.598  1.00  0.00     0.058 A 
ATOM     23  C   UNL     1       4.698  43.361  51.084  1.00  0.00     0.027 A 
ATOM     24  C   UNL     1       6.662  43.188  49.715  1.00  0.00     0.064 A 
ATOM     25  C   UNL     1       4.331  42.062  50.708  1.00  0.00     0.002 A 
ATOM     26  C   UNL     1       6.301  41.892  49.338  1.00  0.00     0.023 A 
ATOM     27  C   UNL     1       5.131  41.328  49.837  1.00  0.00     0.002 A 
ATOM     28  Cl  UNL     1       8.131  43.843  49.063  1.00  0.00    -0.082 Cl
ENDBRANCH  20  22
ENDBRANCH  13  20
ENDBRANCH   1  10
TORSDOF 6
ENDMDL
MODEL 3
REMARK VINA RESULT:    -8.771      2.728      5.622
REMARK INTER + INTRA:         -13.150
REMARK INTER:                 -12.414
REMARK INTRA:                  -0.737
REMARK UNBOUND:                -1.303
REMARK SMILES CC(=O)NCCNc1nc(Nc2ccccc2Cl)c2cnn(C)c2n1
REMARK SMILES IDX 7 1 6 3 5 4 4 5 2 6 1 7 3 8 8 10 9 11 25 12 10 13 24 14
REMARK SMILES IDX 19 15 22 16 20 17 21 18 23 19 11 20 12 22 13 23 17 24 14 25
REMARK SMILES IDX 16 26 15 27 18 28
REMARK H PARENT 7 2 4 9 11 21
ROOT
ATOM      1  N   UNL     1       2.528  44.164  53.963  1.00  0.00    -0.352 N 
ATOM      2  H   UNL     1       2.400  43.224  54.323  1.00  0.00     0.163 HD
ENDROOT
BRANCH   1   3
ATOM      3  C   UNL     1       2.683  45.205  54.968  1.00  0.00     0.137 C 
BRANCH   3   4
ATOM      4  C   UNL     1       1.475  45.299  55.917  1.00  0.00     0.137 C 
BRANCH   4   5
ATOM      5  N   UNL     1       1.774  46.006  57.149  1.00  0.00    -0.355 N 
ATOM      6  C   UNL     1       0.775  46.438  57.989  1.00  0.00     0.216 C 
ATOM      7  C   UNL     1       1.262  47.183  59.202  1.00  0.00     0.114 C 
ATOM      8  O   UNL     1      -0.418  46.254  57.770  1.00  0.00    -0.275 OA
ATOM      9  H   UNL     1       2.732  46.277  57.329  1.00  0.00     0.163 HD
ENDBRANCH   4   5
ENDBRANCH   3   4
ENDBRANCH   1   3
BRANCH   1  10
ATOM     10  C   UNL     1       3.496  44.095  52.974  1.00  0.00     0.226 A 
ATOM     11  N   UNL     1       4.326  45.151  52.930  1.00  0.00    -0.195 NA
ATOM     12  N   UNL     1       3.530  43.040  52.150  1.00  0.00    -0.193 NA
ATOM     13  C   UNL     1       5.326  45.219  52.013  1.00  0.00     0.147 A 
ATOM     14  C   UNL     1       4.523  43.116  51.253  1.00  0.00     0.165 A 
ATOM     15  C   UNL     1       5.434  44.145  51.121  1.00  0.00     0.082 A 
ATOM     16  N   UNL     1       4.844  42.199  50.290  1.00  0.00    -0.250 N 
ATOM     17  C   UNL     1       6.252  43.751  50.040  1.00  0.00     0.149 A 
ATOM     18  N   UNL     1       5.895  42.569  49.521  1.00  0.00    -0.179 NA
ATOM     19  C   UNL     1       4.192  40.939  50.040  1.00  0.00     0.176 C 
BRANCH  13  20
ATOM     20  N   UNL     1       6.197  46.313  51.941  1.00  0.00    -0.338 N 
ATOM     21  H   UNL     1       5.804  47.132  51.493  1.00  0.00     0.168 HD
BRANCH  20  22
ATOM     22  C   UNL     1       7.524  46.522  52.374  1.00  0.00     0.058 A 
ATOM     23  C   UNL     1       8.636  46.405  51.533  1.00  0.00     0.027 A 
ATOM     24  C   UNL     1       7.769  46.855  53.725  1.00  0.00     0.064 A 
ATOM     25  C   UNL     1       9.936  46.612  52.012  1.00  0.00     0.002 A 
ATOM     26  C   UNL     1       9.064  47.061  54.209  1.00  0.00     0.023 A 
ATOM     27  C   UNL     1      10.150  46.938  53.348  1.00  0.00     0.002 A 
ATOM     28  Cl  UNL     1       6.450  47.020  54.840  1.00  0.00    -0.082 Cl
ENDBRANCH  20  22
ENDBRANCH  13  20
ENDBRANCH   1  10
TORSDOF 6
ENDMDL
MODEL 4
REMARK VINA RESULT:    -8.749      2.001      5.195
REMARK INTER + INTRA:         -13.121
REMARK INTER:                 -11.743
REMARK INTRA:                  -1.378
REMARK UNBOUND:                -1.303
REMARK SMILES CC(=O)NCCNc1nc(Nc2ccccc2Cl)c2cnn(C)c2n1
REMARK SMILES IDX 7 1 6 3 5 4 4 5 2 6 1 7 3 8 8 10 9 11 25 12 10 13 24 14
REMARK SMILES IDX 19 15 22 16 20 17 21 18 23 19 11 20 12 22 13 23 17 24 14 25
REMARK SMILES IDX 16 26 15 27 18 28
REMARK H PARENT 7 2 4 9 11 21
ROOT
ATOM      1  N   UNL     1       2.436  45.420  52.426  1.00  0.00    -0.352 N 
ATOM      2  H   UNL     1       1.840  45.833  51.716  1.00  0.00     0.163 HD
ENDROOT
BRANCH   1   3
ATOM      3  C   UNL     1       1.751  44.623  53.431  1.00  0.00     0.137 C 
BRANCH   3   4
ATOM      4  C   UNL     1       2.063  45.082  54.867  1.00  0.00     0.137 C 
BRANCH   4   5
ATOM      5  N   UNL     1       3.410  44.743  55.291  1.00  0.00    -0.355 N 
ATOM      6  C   UNL     1       4.435  45.657  55.224  1.00  0.00     0.216 C 
ATOM      7  C   UNL     1       5.770  45.128  55.671  1.00  0.00     0.114 C 
ATOM      8  O   UNL     1       4.290  46.806  54.818  1.00  0.00    -0.275 OA
ATOM      9  H   UNL     1       3.611  43.782  55.535  1.00  0.00     0.163 HD
ENDBRANCH   4   5
ENDBRANCH   3   4
ENDBRANCH   1   3
BRANCH   1  10
ATOM     10  C   UNL     1       3.501  44.825  51.770  1.00  0.00     0.226 A 
ATOM     11  N   UNL     1       4.588  45.606  51.646  1.00  0.00    -0.195 NA
ATOM     12  N   UNL     1       3.381  43.574  51.306  1.00  0.00    -0.193 NA
ATOM     13  C   UNL     1       5.710  45.153  51.027  1.00  0.00     0.147 A 
ATOM     14  C   UNL     1       4.495  43.138  50.702  1.00  0.00     0.165 A 
ATOM     15  C   UNL     1       5.666  43.847  50.523  1.00  0.00     0.082 A 
ATOM     16  N   UNL     1       4.708  41.907  50.142  1.00  0.00    -0.250 N 
ATOM     17  C   UNL     1       6.514  42.954  49.834  1.00  0.00     0.149 A 
ATOM     18  N   UNL     1       5.937  41.771  49.590  1.00  0.00    -0.179 NA
ATOM     19  C   UNL     1       3.784  40.803  50.095  1.00  0.00     0.176 C 
BRANCH  13  20
ATOM     20  N   UNL     1       6.850  45.951  50.877  1.00  0.00    -0.338 N 
ATOM     21  H   UNL     1       6.992  46.307  49.938  1.00  0.00     0.168 HD
BRANCH  20  22
ATOM     22  C   UNL     1       7.857  46.377  51.770  1.00  0.00     0.058 A 
ATOM     23  C   UNL     1       7.613  47.225  52.857  1.00  0.00     0.027 A 
ATOM     24  C   UNL     1       9.188  45.951  51.570  1.00  0.00     0.064 A 
ATOM     25  C   UNL     1       8.648  47.630  53.710  1.00  0.00     0.002 A 
ATOM     26  C   UNL     1      10.225  46.352  52.416  1.00  0.00     0.023 A 
ATOM     27  C   UNL     1       9.953  47.196  53.489  1.00  0.00     0.002 A 
ATOM     28  Cl  UNL     1       9.583  44.899  50.247  1.00  0.00    -0.082 Cl
ENDBRANCH  20  22
ENDBRANCH  13  20
ENDBRANCH   1  10
TORSDOF 6
ENDMDL
MODEL 5
REMARK VINA RESULT:    -8.649      2.416      5.427
REMARK INTER + INTRA:         -12.987
REMARK INTER:                 -11.942
REMARK INTRA:                  -1.045
REMARK UNBOUND:                -1.303
REMARK SMILES CC(=O)NCCNc1nc(Nc2ccccc2Cl)c2cnn(C)c2n1
REMARK SMILES IDX 7 1 6 3 5 4 4 5 2 6 1 7 3 8 8 10 9 11 25 12 10 13 24 14
REMARK SMILES IDX 19 15 22 16 20 17 21 18 23 19 11 20 12 22 13 23 17 24 14 25
REMARK SMILES IDX 16 26 15 27 18 28
REMARK H PARENT 7 2 4 9 11 21
ROOT
ATOM      1  N   UNL     1       2.817  43.361  53.089  1.00  0.00    -0.352 N 
ATOM      2  H   UNL     1       3.093  43.683  54.010  1.00  0.00     0.163 HD
ENDROOT
BRANCH   1   3
ATOM      3  C   UNL     1       1.514  43.818  52.629  1.00  0.00     0.137 C 
BRANCH   3   4
ATOM      4  C   UNL     1       1.208  45.264  53.057  1.00  0.00     0.137 C 
BRANCH   4   5
ATOM      5  N   UNL     1       0.601  45.350  54.374  1.00  0.00    -0.355 N 
ATOM      6  C   UNL     1       1.363  45.352  55.517  1.00  0.00     0.216 C 
ATOM      7  C   UNL     1       0.570  45.411  56.794  1.00  0.00     0.114 C 
ATOM      8  O   UNL     1       2.589  45.291  55.512  1.00  0.00    -0.275 OA
ATOM      9  H   UNL     1      -0.407  45.297  54.443  1.00  0.00     0.163 HD
ENDBRANCH   4   5
ENDBRANCH   3   4
ENDBRANCH   1   3
BRANCH   1  10
ATOM     10  C   UNL     1       3.893  43.574  52.242  1.00  0.00     0.226 A 
ATOM     11  N   UNL     1       4.554  44.723  52.457  1.00  0.00    -0.195 NA
ATOM     12  N   UNL     1       4.181  42.673  51.293  1.00  0.00    -0.193 NA
ATOM     13  C   UNL     1       5.633  45.064  51.703  1.00  0.00     0.147 A 
ATOM     14  C   UNL     1       5.249  43.018  50.560  1.00  0.00     0.165 A 
ATOM     15  C   UNL     1       6.004  44.165  50.696  1.00  0.00     0.082 A 
ATOM     16  N   UNL     1       5.814  42.311  49.533  1.00  0.00    -0.250 N 
ATOM     17  C   UNL     1       6.991  44.054  49.694  1.00  0.00     0.149 A 
ATOM     18  N   UNL     1       6.879  42.931  48.974  1.00  0.00    -0.179 NA
ATOM     19  C   UNL     1       5.392  41.030  49.026  1.00  0.00     0.176 C 
BRANCH  13  20
ATOM     20  N   UNL     1       6.332  46.260  51.903  1.00  0.00    -0.338 N 
ATOM     21  H   UNL     1       5.851  47.087  51.569  1.00  0.00     0.168 HD
BRANCH  20  22
ATOM     22  C   UNL     1       7.581  46.565  52.485  1.00  0.00     0.058 A 
ATOM     23  C   UNL     1       8.792  46.506  51.786  1.00  0.00     0.027 A 
ATOM     24  C   UNL     1       7.639  46.939  53.846  1.00  0.00     0.064 A 
ATOM     25  C   UNL     1      10.009  46.807  52.412  1.00  0.00     0.002 A 
ATOM     26  C   UNL     1       8.850  47.240  54.476  1.00  0.00     0.023 A 
ATOM     27  C   UNL     1      10.038  47.172  53.755  1.00  0.00     0.002 A 
ATOM     28  Cl  UNL     1       6.187  47.039  54.791  1.00  0.00    -0.082 Cl
ENDBRANCH  20  22
ENDBRANCH  13  20
ENDBRANCH   1  10
TORSDOF 6
ENDMDL
MODEL 6
REMARK VINA RESULT:    -8.542      1.263      1.697
REMARK INTER + INTRA:         -12.842
REMARK INTER:                 -12.048
REMARK INTRA:                  -0.794
REMARK UNBOUND:                -1.303
REMARK SMILES CC(=O)NCCNc1nc(Nc2ccccc2Cl)c2cnn(C)c2n1
REMARK SMILES IDX 7 1 6 3 5 4 4 5 2 6 1 7 3 8 8 10 9 11 25 12 10 13 24 14
REMARK SMILES IDX 19 15 22 16 20 17 21 18 23 19 11 20 12 22 13 23 17 24 14 25
REMARK SMILES IDX 16 26 15 27 18 28
REMARK H PARENT 7 2 4 9 11 21
ROOT
ATOM      1  N   UNL     1       4.795  47.277  54.904  1.00  0.00    -0.352 N 
ATOM      2  H   UNL     1       4.744  48.289  54.968  1.00  0.00     0.163 HD
ENDROOT
BRANCH   1   3
ATOM      3  C   UNL     1       3.556  46.611  54.531  1.00  0.00     0.137 C 
BRANCH   3   4
ATOM      4  C   UNL     1       3.324  45.308  55.316  1.00  0.00     0.137 C 
BRANCH   4   5
ATOM      5  N   UNL     1       2.137  45.351  56.151  1.00  0.00    -0.355 N 
ATOM      6  C   UNL     1       0.915  44.925  55.686  1.00  0.00     0.216 C 
ATOM      7  C   UNL     1      -0.212  45.073  56.671  1.00  0.00     0.114 C 
ATOM      8  O   UNL     1       0.742  44.476  54.557  1.00  0.00    -0.275 OA
ATOM      9  H   UNL     1       2.198  45.807  57.052  1.00  0.00     0.163 HD
ENDBRANCH   4   5
ENDBRANCH   3   4
ENDBRANCH   1   3
BRANCH   1  10
ATOM     10  C   UNL     1       5.923  46.970  54.161  1.00  0.00     0.226 A 
ATOM     11  N   UNL     1       5.671  46.382  52.980  1.00  0.00    -0.195 NA
ATOM     12  N   UNL     1       7.138  47.249  54.651  1.00  0.00    -0.193 NA
ATOM     13  C   UNL     1       6.681  46.026  52.143  1.00  0.00     0.147 A 
ATOM     14  C   UNL     1       8.125  46.898  53.815  1.00  0.00     0.165 A 
ATOM     15  C   UNL     1       7.983  46.296  52.581  1.00  0.00     0.082 A 
ATOM     16  N   UNL     1       9.470  47.064  54.004  1.00  0.00    -0.250 N 
ATOM     17  C   UNL     1       9.306  46.133  52.118  1.00  0.00     0.149 A 
ATOM     18  N   UNL     1      10.221  46.590  52.982  1.00  0.00    -0.179 NA
ATOM     19  C   UNL     1      10.120  47.668  55.139  1.00  0.00     0.176 C 
BRANCH  13  20
ATOM     20  N   UNL     1       6.443  45.403  50.912  1.00  0.00    -0.338 N 
ATOM     21  H   UNL     1       6.604  45.996  50.105  1.00  0.00     0.168 HD
BRANCH  20  22
ATOM     22  C   UNL     1       6.027  44.104  50.550  1.00  0.00     0.058 A 
ATOM     23  C   UNL     1       4.864  43.502  51.042  1.00  0.00     0.027 A 
ATOM     24  C   UNL     1       6.816  43.348  49.654  1.00  0.00     0.064 A 
ATOM     25  C   UNL     1       4.499  42.205  50.662  1.00  0.00     0.002 A 
ATOM     26  C   UNL     1       6.458  42.052  49.272  1.00  0.00     0.023 A 
ATOM     27  C   UNL     1       5.295  41.480  49.779  1.00  0.00     0.002 A 
ATOM     28  Cl  UNL     1       8.275  44.014  48.993  1.00  0.00    -0.082 Cl
ENDBRANCH  20  22
ENDBRANCH  13  20
ENDBRANCH   1  10
TORSDOF 6
ENDMDL
MODEL 7
REMARK VINA RESULT:    -8.413      2.456      5.794
REMARK INTER + INTRA:         -12.667
REMARK INTER:                 -12.034
REMARK INTRA:                  -0.632
REMARK UNBOUND:                -1.303
REMARK SMILES CC(=O)NCCNc1nc(Nc2ccccc2Cl)c2cnn(C)c2n1
REMARK SMILES IDX 7 1 6 3 5 4 4 5 2 6 1 7 3 8 8 10 9 11 25 12 10 13 24 14
REMARK SMILES IDX 19 15 22 16 20 17 21 18 23 19 11 20 12 22 13 23 17 24 14 25
REMARK SMILES IDX 16 26 15 27 18 28
REMARK H PARENT 7 2 4 9 11 21
ROOT
ATOM      1  N   UNL     1       4.205  45.632  55.194  1.00  0.00    -0.352 N 
ATOM      2  H   UNL     1       3.759  45.443  56.086  1.00  0.00     0.163 HD
ENDROOT
BRANCH   1   3
ATOM      3  C   UNL     1       5.659  45.567  55.196  1.00  0.00     0.137 C 
BRANCH   3   4
ATOM      4  C   UNL     1       6.311  46.852  54.654  1.00  0.00     0.137 C 
BRANCH   4   5
ATOM      5  N   UNL     1       7.558  46.605  53.953  1.00  0.00    -0.355 N 
ATOM      6  C   UNL     1       8.700  47.310  54.250  1.00  0.00     0.216 C 
ATOM      7  C   UNL     1       9.891  46.951  53.404  1.00  0.00     0.114 C 
ATOM      8  O   UNL     1       8.753  48.177  55.117  1.00  0.00    -0.275 OA
ATOM      9  H   UNL     1       7.548  45.978  53.160  1.00  0.00     0.163 HD
ENDBRANCH   4   5
ENDBRANCH   3   4
ENDBRANCH   1   3
BRANCH   1  10
ATOM     10  C   UNL     1       3.543  44.880  54.238  1.00  0.00     0.226 A 
ATOM     11  N   UNL     1       4.311  44.482  53.209  1.00  0.00    -0.195 NA
ATOM     12  N   UNL     1       2.236  44.625  54.381  1.00  0.00    -0.193 NA
ATOM     13  C   UNL     1       3.796  43.735  52.198  1.00  0.00     0.147 A 
ATOM     14  C   UNL     1       1.742  43.883  53.380  1.00  0.00     0.165 A 
ATOM     15  C   UNL     1       2.435  43.416  52.282  1.00  0.00     0.082 A 
ATOM     16  N   UNL     1       0.457  43.433  53.236  1.00  0.00    -0.250 N 
ATOM     17  C   UNL     1       1.471  42.707  51.534  1.00  0.00     0.149 A 
ATOM     18  N   UNL     1       0.259  42.718  52.104  1.00  0.00    -0.179 NA
ATOM     19  C   UNL     1      -0.643  43.645  54.142  1.00  0.00     0.176 C 
BRANCH  13  20
ATOM     20  N   UNL     1       4.574  43.317  51.111  1.00  0.00    -0.338 N 
ATOM     21  H   UNL     1       4.175  42.552  50.580  1.00  0.00     0.168 HD
BRANCH  20  22
ATOM     22  C   UNL     1       5.812  43.746  50.586  1.00  0.00     0.058 A 
ATOM     23  C   UNL     1       6.366  45.004  50.849  1.00  0.00     0.027 A 
ATOM     24  C   UNL     1       6.542  42.884  49.738  1.00  0.00     0.064 A 
ATOM     25  C   UNL     1       7.594  45.389  50.295  1.00  0.00     0.002 A 
ATOM     26  C   UNL     1       7.767  43.263  49.181  1.00  0.00     0.023 A 
ATOM     27  C   UNL     1       8.293  44.521  49.461  1.00  0.00     0.002 A 
ATOM     28  Cl  UNL     1       5.932  41.306  49.357  1.00  0.00    -0.082 Cl
ENDBRANCH  20  22
ENDBRANCH  13  20
ENDBRANCH   1  10
TORSDOF 6
ENDMDL
MODEL 8
REMARK VINA RESULT:    -8.349      2.655      5.386
REMARK INTER + INTRA:         -12.581
REMARK INTER:                 -11.581
REMARK INTRA:                  -1.000
REMARK UNBOUND:                -1.303
REMARK SMILES CC(=O)NCCNc1nc(Nc2ccccc2Cl)c2cnn(C)c2n1
REMARK SMILES IDX 7 1 6 3 5 4 4 5 2 6 1 7 3 8 8 10 9 11 25 12 10 13 24 14
REMARK SMILES IDX 19 15 22 16 20 17 21 18 23 19 11 20 12 22 13 23 17 24 14 25
REMARK SMILES IDX 16 26 15 27 18 28
REMARK H PARENT 7 2 4 9 11 21
ROOT
ATOM      1  N   UNL     1       2.560  43.886  53.739  1.00  0.00    -0.352 N 
ATOM      2  H   UNL     1       2.677  43.031  54.273  1.00  0.00     0.163 HD
ENDROOT
BRANCH   1   3
ATOM      3  C   UNL     1       2.361  45.094  54.527  1.00  0.00     0.137 C 
BRANCH   3   4
ATOM      4  C   UNL     1       1.234  44.946  55.564  1.00  0.00     0.137 C 
BRANCH   4   5
ATOM      5  N   UNL     1      -0.071  45.311  55.040  1.00  0.00    -0.355 N 
ATOM      6  C   UNL     1      -0.862  44.397  54.385  1.00  0.00     0.216 C 
ATOM      7  C   UNL     1      -2.165  44.953  53.878  1.00  0.00     0.114 C 
ATOM      8  O   UNL     1      -0.537  43.228  54.206  1.00  0.00    -0.275 OA
ATOM      9  H   UNL     1      -0.346  46.284  55.066  1.00  0.00     0.163 HD
ENDBRANCH   4   5
ENDBRANCH   3   4
ENDBRANCH   1   3
BRANCH   1  10
ATOM     10  C   UNL     1       3.567  43.915  52.788  1.00  0.00     0.226 A 
ATOM     11  N   UNL     1       4.338  45.014  52.823  1.00  0.00    -0.195 NA
ATOM     12  N   UNL     1       3.689  42.902  51.920  1.00  0.00    -0.193 NA
ATOM     13  C   UNL     1       5.367  45.178  51.951  1.00  0.00     0.147 A 
ATOM     14  C   UNL     1       4.710  43.073  51.068  1.00  0.00     0.165 A 
ATOM     15  C   UNL     1       5.567  44.153  51.017  1.00  0.00     0.082 A 
ATOM     16  N   UNL     1       5.117  42.220  50.078  1.00  0.00    -0.250 N 
ATOM     17  C   UNL     1       6.445  43.854  49.953  1.00  0.00     0.149 A 
ATOM     18  N   UNL     1       6.173  42.681  49.368  1.00  0.00    -0.179 NA
ATOM     19  C   UNL     1       4.545  40.939  49.747  1.00  0.00     0.176 C 
BRANCH  13  20
ATOM     20  N   UNL     1       6.179  46.319  51.962  1.00  0.00    -0.338 N 
ATOM     21  H   UNL     1       5.747  47.144  51.562  1.00  0.00     0.168 HD
BRANCH  20  22
ATOM     22  C   UNL     1       7.488  46.569  52.426  1.00  0.00     0.058 A 
ATOM     23  C   UNL     1       8.621  46.505  51.607  1.00  0.00     0.027 A 
ATOM     24  C   UNL     1       7.692  46.891  53.786  1.00  0.00     0.064 A 
ATOM     25  C   UNL     1       9.902  46.751  52.117  1.00  0.00     0.002 A 
ATOM     26  C   UNL     1       8.968  47.137  54.301  1.00  0.00     0.023 A 
ATOM     27  C   UNL     1      10.076  47.065  53.462  1.00  0.00     0.002 A 
ATOM     28  Cl  UNL     1       6.345  46.993  54.875  1.00  0.00    -0.082 Cl
ENDBRANCH  20  22
ENDBRANCH  13  20
ENDBRANCH   1  10
TORSDOF 6
ENDMDL
MODEL 9
REMARK VINA RESULT:    -8.255      3.215      6.827
REMARK INTER + INTRA:         -12.453
REMARK INTER:                 -11.673
REMARK INTRA:                  -0.781
REMARK UNBOUND:                -1.303
REMARK SMILES CC(=O)NCCNc1nc(Nc2ccccc2Cl)c2cnn(C)c2n1
REMARK SMILES IDX 7 1 6 3 5 4 4 5 2 6 1 7 3 8 8 10 9 11 25 12 10 13 24 14
REMARK SMILES IDX 19 15 22 16 20 17 21 18 23 19 11 20 12 22 13 23 17 24 14 25
REMARK SMILES IDX 16 26 15 27 18 28
REMARK H PARENT 7 2 4 9 11 21
ROOT
ATOM      1  N   UNL     1       5.491  42.013  50.573  1.00  0.00    -0.352 N 
ATOM      2  H   UNL     1       4.801  41.283  50.717  1.00  0.00     0.163 HD
ENDROOT
BRANCH   1   3
ATOM      3  C   UNL     1       6.141  42.013  49.271  1.00  0.00     0.137 C 
BRANCH   3   4
ATOM      4  C   UNL     1       5.374  41.185  48.225  1.00  0.00     0.137 C 
BRANCH   4   5
ATOM      5  N   UNL     1       5.701  41.553  46.859  1.00  0.00    -0.355 N 
ATOM      6  C   UNL     1       4.820  41.334  45.826  1.00  0.00     0.216 C 
ATOM      7  C   UNL     1       5.334  41.743  44.473  1.00  0.00     0.114 C 
ATOM      8  O   UNL     1       3.712  40.831  45.980  1.00  0.00    -0.275 OA
ATOM      9  H   UNL     1       6.639  41.875  46.658  1.00  0.00     0.163 HD
ENDBRANCH   4   5
ENDBRANCH   3   4
ENDBRANCH   1   3
BRANCH   1  10
ATOM     10  C   UNL     1       4.920  43.204  50.990  1.00  0.00     0.226 A 
ATOM     11  N   UNL     1       5.781  44.230  51.099  1.00  0.00    -0.195 NA
ATOM     12  N   UNL     1       3.610  43.252  51.265  1.00  0.00    -0.193 NA
ATOM     13  C   UNL     1       5.361  45.459  51.495  1.00  0.00     0.147 A 
ATOM     14  C   UNL     1       3.207  44.471  51.650  1.00  0.00     0.165 A 
ATOM     15  C   UNL     1       3.998  45.593  51.790  1.00  0.00     0.082 A 
ATOM     16  N   UNL     1       1.937  44.860  51.980  1.00  0.00    -0.250 N 
ATOM     17  C   UNL     1       3.107  46.599  52.221  1.00  0.00     0.149 A 
ATOM     18  N   UNL     1       1.849  46.160  52.348  1.00  0.00    -0.179 NA
ATOM     19  C   UNL     1       0.749  44.044  51.969  1.00  0.00     0.176 C 
BRANCH  13  20
ATOM     20  N   UNL     1       6.241  46.541  51.625  1.00  0.00    -0.338 N 
ATOM     21  H   UNL     1       5.928  47.392  51.172  1.00  0.00     0.168 HD
BRANCH  20  22
ATOM     22  C   UNL     1       7.487  46.702  52.268  1.00  0.00     0.058 A 
ATOM     23  C   UNL     1       8.715  46.606  51.603  1.00  0.00     0.027 A 
ATOM     24  C   UNL     1       7.523  46.961  53.656  1.00  0.00     0.064 A 
ATOM     25  C   UNL     1       9.927  46.762  52.288  1.00  0.00     0.002 A 
ATOM     26  C   UNL     1       8.729  47.117  54.345  1.00  0.00     0.023 A 
ATOM     27  C   UNL     1       9.935  47.016  53.657  1.00  0.00     0.002 A 
ATOM     28  Cl  UNL     1       6.049  47.096  54.561  1.00  0.00    -0.082 Cl
ENDBRANCH  20  22
ENDBRANCH  13  20
ENDBRANCH   1  10
TORSDOF 6
ENDMDL
MODEL 10
REMARK VINA RESULT:    -8.209      2.955      6.403
REMARK INTER + INTRA:         -12.392
REMARK INTER:                 -11.319
REMARK INTRA:                  -1.073
REMARK UNBOUND:                -1.303
REMARK SMILES CC(=O)NCCNc1nc(Nc2ccccc2Cl)c2cnn(C)c2n1
REMARK SMILES IDX 7 1 6 3 5 4 4 5 2 6 1 7 3 8 8 10 9 11 25 12 10 13 24 14
REMARK SMILES IDX 19 15 22 16 20 17 21 18 23 19 11 20 12 22 13 23 17 24 14 25
REMARK SMILES IDX 16 26 15 27 18 28
REMARK H PARENT 7 2 4 9 11 21
ROOT
ATOM      1  N   UNL     1       4.734  41.998  51.244  1.00  0.00    -0.352 N 
ATOM      2  H   UNL     1       4.639  41.463  52.101  1.00  0.00     0.163 HD
ENDROOT
BRANCH   1   3
ATOM      3  C   UNL     1       4.165  41.381  50.055  1.00  0.00     0.137 C 
BRANCH   3   4
ATOM      4  C   UNL     1       5.205  41.169  48.941  1.00  0.00     0.137 C 
BRANCH   4   5
ATOM      5  N   UNL     1       6.079  42.313  48.754  1.00  0.00    -0.355 N 
ATOM      6  C   UNL     1       7.277  42.417  49.420  1.00  0.00     0.216 C 
ATOM      7  C   UNL     1       8.039  43.682  49.136  1.00  0.00     0.114 C 
ATOM      8  O   UNL     1       7.693  41.565  50.199  1.00  0.00    -0.275 OA
ATOM      9  H   UNL     1       5.741  43.093  48.206  1.00  0.00     0.163 HD
ENDBRANCH   4   5
ENDBRANCH   3   4
ENDBRANCH   1   3
BRANCH   1  10
ATOM     10  C   UNL     1       4.345  43.297  51.526  1.00  0.00     0.226 A 
ATOM     11  N   UNL     1       5.332  44.206  51.448  1.00  0.00    -0.195 NA
ATOM     12  N   UNL     1       3.074  43.552  51.862  1.00  0.00    -0.193 NA
ATOM     13  C   UNL     1       5.096  45.521  51.697  1.00  0.00     0.147 A 
ATOM     14  C   UNL     1       2.853  44.852  52.100  1.00  0.00     0.165 A 
ATOM     15  C   UNL     1       3.784  45.869  52.044  1.00  0.00     0.082 A 
ATOM     16  N   UNL     1       1.667  45.444  52.442  1.00  0.00    -0.250 N 
ATOM     17  C   UNL     1       3.057  47.030  52.382  1.00  0.00     0.149 A 
ATOM     18  N   UNL     1       1.766  46.780  52.634  1.00  0.00    -0.179 NA
ATOM     19  C   UNL     1       0.390  44.797  52.606  1.00  0.00     0.176 C 
BRANCH  13  20
ATOM     20  N   UNL     1       6.110  46.484  51.631  1.00  0.00    -0.338 N 
ATOM     21  H   UNL     1       5.899  47.273  51.030  1.00  0.00     0.168 HD
BRANCH  20  22
ATOM     22  C   UNL     1       7.379  46.595  52.238  1.00  0.00     0.058 A 
ATOM     23  C   UNL     1       8.583  46.461  51.537  1.00  0.00     0.027 A 
ATOM     24  C   UNL     1       7.465  46.843  53.626  1.00  0.00     0.064 A 
ATOM     25  C   UNL     1       9.819  46.568  52.187  1.00  0.00     0.002 A 
ATOM     26  C   UNL     1       8.695  46.950  54.281  1.00  0.00     0.023 A 
ATOM     27  C   UNL     1       9.876  46.811  53.557  1.00  0.00     0.002 A 
ATOM     28  Cl  UNL     1       6.023  47.024  54.575  1.00  0.00    -0.082 Cl
ENDBRANCH  20  22
ENDBRANCH  13  20
ENDBRANCH   1  10
TORSDOF 6
ENDMDL
MODEL 11
REMARK VINA RESULT:    -8.172      2.882      6.458
REMARK INTER + INTRA:         -12.342
REMARK INTER:                 -11.663
REMARK INTRA:                  -0.679
REMARK UNBOUND:                -1.303
REMARK SMILES CC(=O)NCCNc1nc(Nc2ccccc2Cl)c2cnn(C)c2n1
REMARK SMILES IDX 7 1 6 3 5 4 4 5 2 6 1 7 3 8 8 10 9 11 25 12 10 13 24 14
REMARK SMILES IDX 19 15 22 16 20 17 21 18 23 19 11 20 12 22 13 23 17 24 14 25
REMARK SMILES IDX 16 26 15 27 18 28
REMARK H PARENT 7 2 4 9 11 21
ROOT
ATOM      1  N   UNL     1       4.897  41.858  50.795  1.00  0.00    -0.352 N 
ATOM      2  H   UNL     1       4.066  41.300  50.627  1.00  0.00     0.163 HD
ENDROOT
BRANCH   1   3
ATOM      3  C   UNL     1       5.756  42.064  49.639  1.00  0.00     0.137 C 
BRANCH   3   4
ATOM      4  C   UNL     1       5.434  41.102  48.481  1.00  0.00     0.137 C 
BRANCH   4   5
ATOM      5  N   UNL     1       5.704  41.675  47.175  1.00  0.00    -0.355 N 
ATOM      6  C   UNL     1       4.864  41.458  46.108  1.00  0.00     0.216 C 
ATOM      7  C   UNL     1       5.313  42.096  44.823  1.00  0.00     0.114 C 
ATOM      8  O   UNL     1       3.839  40.787  46.182  1.00  0.00    -0.275 OA
ATOM      9  H   UNL     1       6.586  42.149  47.029  1.00  0.00     0.163 HD
ENDBRANCH   4   5
ENDBRANCH   3   4
ENDBRANCH   1   3
BRANCH   1  10
ATOM     10  C   UNL     1       4.499  42.986  51.493  1.00  0.00     0.226 A 
ATOM     11  N   UNL     1       5.334  44.034  51.384  1.00  0.00    -0.195 NA
ATOM     12  N   UNL     1       3.371  42.958  52.214  1.00  0.00    -0.193 NA
ATOM     13  C   UNL     1       5.070  45.209  52.013  1.00  0.00     0.147 A 
ATOM     14  C   UNL     1       3.120  44.125  52.825  1.00  0.00     0.165 A 
ATOM     15  C   UNL     1       3.899  45.263  52.779  1.00  0.00     0.082 A 
ATOM     16  N   UNL     1       2.045  44.433  53.615  1.00  0.00    -0.250 N 
ATOM     17  C   UNL     1       3.209  46.193  53.585  1.00  0.00     0.149 A 
ATOM     18  N   UNL     1       2.081  45.694  54.106  1.00  0.00    -0.179 NA
ATOM     19  C   UNL     1       0.938  43.574  53.949  1.00  0.00     0.176 C 
BRANCH  13  20
ATOM     20  N   UNL     1       5.930  46.311  51.922  1.00  0.00    -0.338 N 
ATOM     21  H   UNL     1       5.524  47.122  51.469  1.00  0.00     0.168 HD
BRANCH  20  22
ATOM     22  C   UNL     1       7.258  46.538  52.339  1.00  0.00     0.058 A 
ATOM     23  C   UNL     1       7.591  47.157  53.549  1.00  0.00     0.027 A 
ATOM     24  C   UNL     1       8.326  46.140  51.503  1.00  0.00     0.064 A 
ATOM     25  C   UNL     1       8.926  47.371  53.914  1.00  0.00     0.002 A 
ATOM     26  C   UNL     1       9.660  46.352  51.861  1.00  0.00     0.023 A 
ATOM     27  C   UNL     1       9.960  46.970  53.072  1.00  0.00     0.002 A 
ATOM     28  Cl  UNL     1       8.008  45.365  49.984  1.00  0.00    -0.082 Cl
ENDBRANCH  20  22
ENDBRANCH  13  20
ENDBRANCH   1  10
TORSDOF 6
ENDMDL
MODEL 12
REMARK VINA RESULT:    -8.159      2.459      5.973
REMARK INTER + INTRA:         -12.324
REMARK INTER:                 -11.641
REMARK INTRA:                  -0.683
REMARK UNBOUND:                -1.303
REMARK SMILES CC(=O)NCCNc1nc(Nc2ccccc2Cl)c2cnn(C)c2n1
REMARK SMILES IDX 7 1 6 3 5 4 4 5 2 6 1 7 3 8 8 10 9 11 25 12 10 13 24 14
REMARK SMILES IDX 19 15 22 16 20 17 21 18 23 19 11 20 12 22 13 23 17 24 14 25
REMARK SMILES IDX 16 26 15 27 18 28
REMARK H PARENT 7 2 4 9 11 21
ROOT
ATOM      1  N   UNL     1       4.325  45.843  55.764  1.00  0.00    -0.352 N 
ATOM      2  H   UNL     1       4.213  45.617  56.747  1.00  0.00     0.163 HD
ENDROOT
BRANCH   1   3
ATOM      3  C   UNL     1       5.650  45.600  55.212  1.00  0.00     0.137 C 
BRANCH   3   4
ATOM      4  C   UNL     1       6.276  46.862  54.594  1.00  0.00     0.137 C 
BRANCH   4   5
ATOM      5  N   UNL     1       7.535  46.600  53.919  1.00  0.00    -0.355 N 
ATOM      6  C   UNL     1       8.681  47.286  54.244  1.00  0.00     0.216 C 
ATOM      7  C   UNL     1       9.883  46.912  53.421  1.00  0.00     0.114 C 
ATOM      8  O   UNL     1       8.728  48.146  55.118  1.00  0.00    -0.275 OA
ATOM      9  H   UNL     1       7.532  45.978  53.121  1.00  0.00     0.163 HD
ENDBRANCH   4   5
ENDBRANCH   3   4
ENDBRANCH   1   3
BRANCH   1  10
ATOM     10  C   UNL     1       3.251  45.285  55.090  1.00  0.00     0.226 A 
ATOM     11  N   UNL     1       3.536  44.839  53.855  1.00  0.00    -0.195 NA
ATOM     12  N   UNL     1       2.048  45.244  55.677  1.00  0.00    -0.193 NA
ATOM     13  C   UNL     1       2.580  44.265  53.079  1.00  0.00     0.147 A 
ATOM     14  C   UNL     1       1.115  44.671  54.903  1.00  0.00     0.165 A 
ATOM     15  C   UNL     1       1.295  44.175  53.628  1.00  0.00     0.082 A 
ATOM     16  N   UNL     1      -0.201  44.456  55.211  1.00  0.00    -0.250 N 
ATOM     17  C   UNL     1       0.021  43.695  53.256  1.00  0.00     0.149 A 
ATOM     18  N   UNL     1      -0.900  43.869  54.211  1.00  0.00    -0.179 NA
ATOM     19  C   UNL     1      -0.869  44.784  56.445  1.00  0.00     0.176 C 
BRANCH  13  20
ATOM     20  N   UNL     1       2.851  43.802  51.785  1.00  0.00    -0.338 N 
ATOM     21  H   UNL     1       2.054  43.819  51.159  1.00  0.00     0.168 HD
BRANCH  20  22
ATOM     22  C   UNL     1       4.018  43.316  51.157  1.00  0.00     0.058 A 
ATOM     23  C   UNL     1       4.273  41.955  50.954  1.00  0.00     0.027 A 
ATOM     24  C   UNL     1       4.998  44.230  50.712  1.00  0.00     0.064 A 
ATOM     25  C   UNL     1       5.452  41.520  50.335  1.00  0.00     0.002 A 
ATOM     26  C   UNL     1       6.177  43.803  50.094  1.00  0.00     0.023 A 
ATOM     27  C   UNL     1       6.404  42.442  49.906  1.00  0.00     0.002 A 
ATOM     28  Cl  UNL     1       4.766  45.937  50.921  1.00  0.00    -0.082 Cl
ENDBRANCH  20  22
ENDBRANCH  13  20
ENDBRANCH   1  10
TORSDOF 6
ENDMDL
MODEL 13
REMARK VINA RESULT:    -8.125      2.169      5.217
REMARK INTER + INTRA:         -12.279
REMARK INTER:                 -11.230
REMARK INTRA:                  -1.049
REMARK UNBOUND:                -1.303
REMARK SMILES CC(=O)NCCNc1nc(Nc2ccccc2Cl)c2cnn(C)c2n1
REMARK SMILES IDX 7 1 6 3 5 4 4 5 2 6 1 7 3 8 8 10 9 11 25 12 10 13 24 14
REMARK SMILES IDX 19 15 22 16 20 17 21 18 23 19 11 20 12 22 13 23 17 24 14 25
REMARK SMILES IDX 16 26 15 27 18 28
REMARK H PARENT 7 2 4 9 11 21
ROOT
ATOM      1  N   UNL     1       3.088  44.245  53.749  1.00  0.00    -0.352 N 
ATOM      2  H   UNL     1       3.553  43.916  54.589  1.00  0.00     0.163 HD
ENDROOT
BRANCH   1   3
ATOM      3  C   UNL     1       2.487  45.567  53.844  1.00  0.00     0.137 C 
BRANCH   3   4
ATOM      4  C   UNL     1       1.644  45.925  52.607  1.00  0.00     0.137 C 
BRANCH   4   5
ATOM      5  N   UNL     1       0.230  45.647  52.783  1.00  0.00    -0.355 N 
ATOM      6  C   UNL     1      -0.290  44.396  52.548  1.00  0.00     0.216 C 
ATOM      7  C   UNL     1      -1.778  44.294  52.745  1.00  0.00     0.114 C 
ATOM      8  O   UNL     1       0.389  43.439  52.190  1.00  0.00    -0.275 OA
ATOM      9  H   UNL     1      -0.393  46.420  52.975  1.00  0.00     0.163 HD
ENDBRANCH   4   5
ENDBRANCH   3   4
ENDBRANCH   1   3
BRANCH   1  10
ATOM     10  C   UNL     1       3.952  44.022  52.689  1.00  0.00     0.226 A 
ATOM     11  N   UNL     1       4.912  44.950  52.545  1.00  0.00    -0.195 NA
ATOM     12  N   UNL     1       3.772  42.955  51.899  1.00  0.00    -0.193 NA
ATOM     13  C   UNL     1       5.832  44.859  51.549  1.00  0.00     0.147 A 
ATOM     14  C   UNL     1       4.688  42.874  50.924  1.00  0.00     0.165 A 
ATOM     15  C   UNL     1       5.717  43.762  50.686  1.00  0.00     0.082 A 
ATOM     16  N   UNL     1       4.798  41.901  49.968  1.00  0.00    -0.250 N 
ATOM     17  C   UNL     1       6.380  43.236  49.557  1.00  0.00     0.149 A 
ATOM     18  N   UNL     1       5.822  42.105  49.106  1.00  0.00    -0.179 NA
ATOM     19  C   UNL     1       3.961  40.739  49.811  1.00  0.00     0.176 C 
BRANCH  13  20
ATOM     20  N   UNL     1       6.836  45.819  51.374  1.00  0.00    -0.338 N 
ATOM     21  H   UNL     1       6.850  46.247  50.455  1.00  0.00     0.168 HD
BRANCH  20  22
ATOM     22  C   UNL     1       7.844  46.330  52.219  1.00  0.00     0.058 A 
ATOM     23  C   UNL     1       7.577  47.107  53.352  1.00  0.00     0.027 A 
ATOM     24  C   UNL     1       9.199  46.069  51.920  1.00  0.00     0.064 A 
ATOM     25  C   UNL     1       8.613  47.602  54.155  1.00  0.00     0.002 A 
ATOM     26  C   UNL     1      10.237  46.561  52.716  1.00  0.00     0.023 A 
ATOM     27  C   UNL     1       9.941  47.331  53.837  1.00  0.00     0.002 A 
ATOM     28  Cl  UNL     1       9.623  45.115  50.534  1.00  0.00    -0.082 Cl
ENDBRANCH  20  22
ENDBRANCH  13  20
ENDBRANCH   1  10
TORSDOF 6
ENDMDL
MODEL 14
REMARK VINA RESULT:    -8.100      2.960      6.307
REMARK INTER + INTRA:         -12.245
REMARK INTER:                 -11.429
REMARK INTRA:                  -0.816
REMARK UNBOUND:                -1.303
REMARK SMILES CC(=O)NCCNc1nc(Nc2ccccc2Cl)c2cnn(C)c2n1
REMARK SMILES IDX 7 1 6 3 5 4 4 5 2 6 1 7 3 8 8 10 9 11 25 12 10 13 24 14
REMARK SMILES IDX 19 15 22 16 20 17 21 18 23 19 11 20 12 22 13 23 17 24 14 25
REMARK SMILES IDX 16 26 15 27 18 28
REMARK H PARENT 7 2 4 9 11 21
ROOT
ATOM      1  N   UNL     1       4.307  41.627  51.183  1.00  0.00    -0.352 N 
ATOM      2  H   UNL     1       3.415  41.171  51.347  1.00  0.00     0.163 HD
ENDROOT
BRANCH   1   3
ATOM      3  C   UNL     1       4.984  41.253  49.951  1.00  0.00     0.137 C 
BRANCH   3   4
ATOM      4  C   UNL     1       4.019  40.695  48.890  1.00  0.00     0.137 C 
BRANCH   4   5
ATOM      5  N   UNL     1       4.556  40.762  47.542  1.00  0.00    -0.355 N 
ATOM      6  C   UNL     1       3.738  40.689  46.439  1.00  0.00     0.216 C 
ATOM      7  C   UNL     1       4.464  40.739  45.123  1.00  0.00     0.114 C 
ATOM      8  O   UNL     1       2.518  40.574  46.509  1.00  0.00    -0.275 OA
ATOM      9  H   UNL     1       5.560  40.751  47.423  1.00  0.00     0.163 HD
ENDBRANCH   4   5
ENDBRANCH   3   4
ENDBRANCH   1   3
BRANCH   1  10
ATOM     10  C   UNL     1       4.124  42.981  51.415  1.00  0.00     0.226 A 
ATOM     11  N   UNL     1       5.161  43.755  51.054  1.00  0.00    -0.195 NA
ATOM     12  N   UNL     1       2.986  43.411  51.975  1.00  0.00    -0.193 NA
ATOM     13  C   UNL     1       5.121  45.103  51.220  1.00  0.00     0.147 A 
ATOM     14  C   UNL     1       2.957  44.742  52.129  1.00  0.00     0.165 A 
ATOM     15  C   UNL     1       3.957  45.631  51.791  1.00  0.00     0.082 A 
ATOM     16  N   UNL     1       1.939  45.496  52.647  1.00  0.00    -0.250 N 
ATOM     17  C   UNL     1       3.442  46.893  52.158  1.00  0.00     0.149 A 
ATOM     18  N   UNL     1       2.215  46.821  52.688  1.00  0.00    -0.179 NA
ATOM     19  C   UNL     1       0.665  45.022  53.125  1.00  0.00     0.176 C 
BRANCH  13  20
ATOM     20  N   UNL     1       6.193  45.929  50.860  1.00  0.00    -0.338 N 
ATOM     21  H   UNL     1       6.080  46.396  49.968  1.00  0.00     0.168 HD
BRANCH  20  22
ATOM     22  C   UNL     1       7.413  46.259  51.489  1.00  0.00     0.058 A 
ATOM     23  C   UNL     1       7.514  47.178  52.539  1.00  0.00     0.027 A 
ATOM     24  C   UNL     1       8.609  45.653  51.044  1.00  0.00     0.064 A 
ATOM     25  C   UNL     1       8.751  47.482  53.123  1.00  0.00     0.002 A 
ATOM     26  C   UNL     1       9.846  45.953  51.622  1.00  0.00     0.023 A 
ATOM     27  C   UNL     1       9.915  46.871  52.665  1.00  0.00     0.002 A 
ATOM     28  Cl  UNL     1       8.579  44.501  49.747  1.00  0.00    -0.082 Cl
ENDBRANCH  20  22
ENDBRANCH  13  20
ENDBRANCH   1  10
TORSDOF 6
ENDMDL
MODEL 15
REMARK VINA RESULT:    -8.012      3.257      6.767
REMARK INTER + INTRA:         -12.126
REMARK INTER:                 -11.381
REMARK INTRA:                  -0.745
REMARK UNBOUND:                -1.303
REMARK SMILES CC(=O)NCCNc1nc(Nc2ccccc2Cl)c2cnn(C)c2n1
REMARK SMILES IDX 7 1 6 3 5 4 4 5 2 6 1 7 3 8 8 10 9 11 25 12 10 13 24 14
REMARK SMILES IDX 19 15 22 16 20 17 21 18 23 19 11 20 12 22 13 23 17 24 14 25
REMARK SMILES IDX 16 26 15 27 18 28
REMARK H PARENT 7 2 4 9 11 21
ROOT
ATOM      1  N   UNL     1       5.595  41.215  49.669  1.00  0.00    -0.352 N 
ATOM      2  H   UNL     1       5.531  40.419  50.295  1.00  0.00     0.163 HD
ENDROOT
BRANCH   1   3
ATOM      3  C   UNL     1       4.933  41.056  48.383  1.00  0.00     0.137 C 
BRANCH   3   4
ATOM      4  C   UNL     1       5.592  41.888  47.269  1.00  0.00     0.137 C 
BRANCH   4   5
ATOM      5  N   UNL     1       5.859  41.119  46.067  1.00  0.00    -0.355 N 
ATOM      6  C   UNL     1       5.088  41.260  44.938  1.00  0.00     0.216 C 
ATOM      7  C   UNL     1       5.483  40.361  43.799  1.00  0.00     0.114 C 
ATOM      8  O   UNL     1       4.142  42.038  44.860  1.00  0.00    -0.275 OA
ATOM      9  H   UNL     1       6.559  40.389  46.108  1.00  0.00     0.163 HD
ENDBRANCH   4   5
ENDBRANCH   3   4
ENDBRANCH   1   3
BRANCH   1  10
ATOM     10  C   UNL     1       5.274  42.343  50.407  1.00  0.00     0.226 A 
ATOM     11  N   UNL     1       6.121  43.374  50.250  1.00  0.00    -0.195 NA
ATOM     12  N   UNL     1       4.200  42.329  51.207  1.00  0.00    -0.193 NA
ATOM     13  C   UNL     1       5.928  44.546  50.910  1.00  0.00     0.147 A 
ATOM     14  C   UNL     1       4.018  43.492  51.849  1.00  0.00     0.165 A 
ATOM     15  C   UNL     1       4.817  44.614  51.759  1.00  0.00     0.082 A 
ATOM     16  N   UNL     1       3.011  43.813  52.717  1.00  0.00    -0.250 N 
ATOM     17  C   UNL     1       4.207  45.548  52.624  1.00  0.00     0.149 A 
ATOM     18  N   UNL     1       3.109  45.066  53.219  1.00  0.00    -0.179 NA
ATOM     19  C   UNL     1       1.912  42.972  53.120  1.00  0.00     0.176 C 
BRANCH  13  20
ATOM     20  N   UNL     1       6.803  45.631  50.769  1.00  0.00    -0.338 N 
ATOM     21  H   UNL     1       6.659  46.179  49.929  1.00  0.00     0.168 HD
BRANCH  20  22
ATOM     22  C   UNL     1       7.853  46.136  51.565  1.00  0.00     0.058 A 
ATOM     23  C   UNL     1       7.661  47.061  52.598  1.00  0.00     0.027 A 
ATOM     24  C   UNL     1       9.177  45.711  51.318  1.00  0.00     0.064 A 
ATOM     25  C   UNL     1       8.738  47.542  53.354  1.00  0.00     0.002 A 
ATOM     26  C   UNL     1      10.256  46.188  52.068  1.00  0.00     0.023 A 
ATOM     27  C   UNL     1      10.033  47.108  53.089  1.00  0.00     0.002 A 
ATOM     28  Cl  UNL     1       9.509  44.566  50.058  1.00  0.00    -0.082 Cl
ENDBRANCH  20  22
ENDBRANCH  13  20
ENDBRANCH   1  10
TORSDOF 6
ENDMDL
MODEL 16
REMARK VINA RESULT:    -7.920      2.881      5.945
REMARK INTER + INTRA:         -12.001
REMARK INTER:                 -11.327
REMARK INTRA:                  -0.674
REMARK UNBOUND:                -1.303
REMARK SMILES CC(=O)NCCNc1nc(Nc2ccccc2Cl)c2cnn(C)c2n1
REMARK SMILES IDX 7 1 6 3 5 4 4 5 2 6 1 7 3 8 8 10 9 11 25 12 10 13 24 14
REMARK SMILES IDX 19 15 22 16 20 17 21 18 23 19 11 20 12 22 13 23 17 24 14 25
REMARK SMILES IDX 16 26 15 27 18 28
REMARK H PARENT 7 2 4 9 11 21
ROOT
ATOM      1  N   UNL     1       8.011  45.678  50.394  1.00  0.00    -0.352 N 
ATOM      2  H   UNL     1       7.595  46.562  50.119  1.00  0.00     0.163 HD
ENDROOT
BRANCH   1   3
ATOM      3  C   UNL     1       9.032  45.762  51.428  1.00  0.00     0.137 C 
BRANCH   3   4
ATOM      4  C   UNL     1       8.945  47.064  52.243  1.00  0.00     0.137 C 
BRANCH   4   5
ATOM      5  N   UNL     1       9.876  47.100  53.358  1.00  0.00    -0.355 N 
ATOM      6  C   UNL     1       9.484  47.521  54.606  1.00  0.00     0.216 C 
ATOM      7  C   UNL     1      10.583  47.528  55.633  1.00  0.00     0.114 C 
ATOM      8  O   UNL     1       8.341  47.882  54.870  1.00  0.00    -0.275 OA
ATOM      9  H   UNL     1      10.853  46.915  53.175  1.00  0.00     0.163 HD
ENDBRANCH   4   5
ENDBRANCH   3   4
ENDBRANCH   1   3
BRANCH   1  10
ATOM     10  C   UNL     1       6.973  44.786  50.606  1.00  0.00     0.226 A 
ATOM     11  N   UNL     1       6.946  43.747  49.754  1.00  0.00    -0.195 NA
ATOM     12  N   UNL     1       6.092  45.013  51.589  1.00  0.00    -0.193 NA
ATOM     13  C   UNL     1       5.985  42.791  49.844  1.00  0.00     0.147 A 
ATOM     14  C   UNL     1       5.152  44.060  51.670  1.00  0.00     0.165 A 
ATOM     15  C   UNL     1       5.031  42.952  50.857  1.00  0.00     0.082 A 
ATOM     16  N   UNL     1       4.125  43.982  52.572  1.00  0.00    -0.250 N 
ATOM     17  C   UNL     1       3.891  42.280  51.347  1.00  0.00     0.149 A 
ATOM     18  N   UNL     1       3.326  42.905  52.387  1.00  0.00    -0.179 NA
ATOM     19  C   UNL     1       3.839  44.902  53.643  1.00  0.00     0.176 C 
BRANCH  13  20
ATOM     20  N   UNL     1       5.931  41.705  48.961  1.00  0.00    -0.338 N 
ATOM     21  H   UNL     1       6.422  40.879  49.284  1.00  0.00     0.168 HD
BRANCH  20  22
ATOM     22  C   UNL     1       5.323  41.511  47.703  1.00  0.00     0.058 A 
ATOM     23  C   UNL     1       5.810  42.075  46.518  1.00  0.00     0.027 A 
ATOM     24  C   UNL     1       4.155  40.722  47.610  1.00  0.00     0.064 A 
ATOM     25  C   UNL     1       5.164  41.862  45.292  1.00  0.00     0.002 A 
ATOM     26  C   UNL     1       3.506  40.508  46.391  1.00  0.00     0.023 A 
ATOM     27  C   UNL     1       4.014  41.081  45.229  1.00  0.00     0.002 A 
ATOM     28  Cl  UNL     1       3.481  39.984  49.028  1.00  0.00    -0.082 Cl
ENDBRANCH  20  22
ENDBRANCH  13  20
ENDBRANCH   1  10
TORSDOF 6
ENDMDL
MODEL 17
REMARK VINA RESULT:    -7.918      3.130      6.405
REMARK INTER + INTRA:         -11.999
REMARK INTER:                 -11.420
REMARK INTRA:                  -0.579
REMARK UNBOUND:                -1.303
REMARK SMILES CC(=O)NCCNc1nc(Nc2ccccc2Cl)c2cnn(C)c2n1
REMARK SMILES IDX 7 1 6 3 5 4 4 5 2 6 1 7 3 8 8 10 9 11 25 12 10 13 24 14
REMARK SMILES IDX 19 15 22 16 20 17 21 18 23 19 11 20 12 22 13 23 17 24 14 25
REMARK SMILES IDX 16 26 15 27 18 28
REMARK H PARENT 7 2 4 9 11 21
ROOT
ATOM      1  N   UNL     1       5.199  46.875  52.522  1.00  0.00    -0.352 N 
ATOM      2  H   UNL     1       4.564  47.457  51.985  1.00  0.00     0.163 HD
ENDROOT
BRANCH   1   3
ATOM      3  C   UNL     1       5.296  47.196  53.938  1.00  0.00     0.137 C 
BRANCH   3   4
ATOM      4  C   UNL     1       6.433  46.433  54.642  1.00  0.00     0.137 C 
BRANCH   4   5
ATOM      5  N   UNL     1       7.659  46.395  53.864  1.00  0.00    -0.355 N 
ATOM      6  C   UNL     1       8.721  47.218  54.158  1.00  0.00     0.216 C 
ATOM      7  C   UNL     1       9.895  47.071  53.230  1.00  0.00     0.114 C 
ATOM      8  O   UNL     1       8.716  48.022  55.085  1.00  0.00    -0.275 OA
ATOM      9  H   UNL     1       7.680  45.828  53.027  1.00  0.00     0.163 HD
ENDBRANCH   4   5
ENDBRANCH   3   4
ENDBRANCH   1   3
BRANCH   1  10
ATOM     10  C   UNL     1       4.924  45.557  52.193  1.00  0.00     0.226 A 
ATOM     11  N   UNL     1       3.862  45.033  52.827  1.00  0.00    -0.195 NA
ATOM     12  N   UNL     1       5.709  44.913  51.320  1.00  0.00    -0.193 NA
ATOM     13  C   UNL     1       3.472  43.751  52.601  1.00  0.00     0.147 A 
ATOM     14  C   UNL     1       5.311  43.651  51.101  1.00  0.00     0.165 A 
ATOM     15  C   UNL     1       4.237  43.014  51.689  1.00  0.00     0.082 A 
ATOM     16  N   UNL     1       5.879  42.737  50.256  1.00  0.00    -0.250 N 
ATOM     17  C   UNL     1       4.256  41.715  51.136  1.00  0.00     0.149 A 
ATOM     18  N   UNL     1       5.258  41.534  50.267  1.00  0.00    -0.179 NA
ATOM     19  C   UNL     1       7.020  42.937  49.400  1.00  0.00     0.176 C 
BRANCH  13  20
ATOM     20  N   UNL     1       2.375  43.180  53.257  1.00  0.00    -0.338 N 
ATOM     21  H   UNL     1       2.299  42.175  53.149  1.00  0.00     0.168 HD
BRANCH  20  22
ATOM     22  C   UNL     1       1.339  43.714  54.054  1.00  0.00     0.058 A 
ATOM     23  C   UNL     1       1.563  44.585  55.126  1.00  0.00     0.027 A 
ATOM     24  C   UNL     1       0.000  43.355  53.783  1.00  0.00     0.064 A 
ATOM     25  C   UNL     1       0.502  45.080  55.895  1.00  0.00     0.002 A 
ATOM     26  C   UNL     1      -1.062  43.844  54.548  1.00  0.00     0.023 A 
ATOM     27  C   UNL     1      -0.808  44.709  55.608  1.00  0.00     0.002 A 
ATOM     28  Cl  UNL     1      -0.372  42.280  52.473  1.00  0.00    -0.082 Cl
ENDBRANCH  20  22
ENDBRANCH  13  20
ENDBRANCH   1  10
TORSDOF 6
ENDMDL
MODEL 18
REMARK VINA RESULT:    -7.846      2.584      4.806
REMARK INTER + INTRA:         -11.902
REMARK INTER:                 -10.499
REMARK INTRA:                  -1.402
REMARK UNBOUND:                -1.303
REMARK SMILES CC(=O)NCCNc1nc(Nc2ccccc2Cl)c2cnn(C)c2n1
REMARK SMILES IDX 7 1 6 3 5 4 4 5 2 6 1 7 3 8 8 10 9 11 25 12 10 13 24 14
REMARK SMILES IDX 19 15 22 16 20 17 21 18 23 19 11 20 12 22 13 23 17 24 14 25
REMARK SMILES IDX 16 26 15 27 18 28
REMARK H PARENT 7 2 4 9 11 21
ROOT
ATOM      1  N   UNL     1       7.917  45.232  49.588  1.00  0.00    -0.352 N 
ATOM      2  H   UNL     1       8.654  45.842  49.249  1.00  0.00     0.163 HD
ENDROOT
BRANCH   1   3
ATOM      3  C   UNL     1       8.196  43.806  49.504  1.00  0.00     0.137 C 
BRANCH   3   4
ATOM      4  C   UNL     1       6.971  42.987  49.062  1.00  0.00     0.137 C 
BRANCH   4   5
ATOM      5  N   UNL     1       6.043  42.722  50.147  1.00  0.00    -0.355 N 
ATOM      6  C   UNL     1       5.068  41.759  50.038  1.00  0.00     0.216 C 
ATOM      7  C   UNL     1       4.173  41.642  51.241  1.00  0.00     0.114 C 
ATOM      8  O   UNL     1       4.919  41.058  49.042  1.00  0.00    -0.275 OA
ATOM      9  H   UNL     1       6.051  43.339  50.949  1.00  0.00     0.163 HD
ENDBRANCH   4   5
ENDBRANCH   3   4
ENDBRANCH   1   3
BRANCH   1  10
ATOM     10  C   UNL     1       7.515  45.722  50.820  1.00  0.00     0.226 A 
ATOM     11  N   UNL     1       6.183  45.797  50.984  1.00  0.00    -0.195 NA
ATOM     12  N   UNL     1       8.434  46.092  51.721  1.00  0.00    -0.193 NA
ATOM     13  C   UNL     1       5.644  46.257  52.143  1.00  0.00     0.147 A 
ATOM     14  C   UNL     1       7.890  46.539  52.862  1.00  0.00     0.165 A 
ATOM     15  C   UNL     1       6.543  46.653  53.141  1.00  0.00     0.082 A 
ATOM     16  N   UNL     1       8.548  46.970  53.982  1.00  0.00    -0.250 N 
ATOM     17  C   UNL     1       6.501  47.174  54.452  1.00  0.00     0.149 A 
ATOM     18  N   UNL     1       7.718  47.379  54.970  1.00  0.00    -0.179 NA
ATOM     19  C   UNL     1       9.973  47.022  54.186  1.00  0.00     0.176 C 
BRANCH  13  20
ATOM     20  N   UNL     1       4.260  46.353  52.334  1.00  0.00    -0.338 N 
ATOM     21  H   UNL     1       3.932  47.286  52.556  1.00  0.00     0.168 HD
BRANCH  20  22
ATOM     22  C   UNL     1       3.208  45.414  52.275  1.00  0.00     0.058 A 
ATOM     23  C   UNL     1       2.506  45.117  51.101  1.00  0.00     0.027 A 
ATOM     24  C   UNL     1       2.817  44.734  53.450  1.00  0.00     0.064 A 
ATOM     25  C   UNL     1       1.460  44.184  51.095  1.00  0.00     0.002 A 
ATOM     26  C   UNL     1       1.774  43.804  53.450  1.00  0.00     0.023 A 
ATOM     27  C   UNL     1       1.094  43.529  52.268  1.00  0.00     0.002 A 
ATOM     28  Cl  UNL     1       3.632  45.039  54.951  1.00  0.00    -0.082 Cl
ENDBRANCH  20  22
ENDBRANCH  13  20
ENDBRANCH   1  10
TORSDOF 6
ENDMDL
MODEL 19
REMARK VINA RESULT:    -7.790      3.233      6.197
REMARK INTER + INTRA:         -11.826
REMARK INTER:                 -10.978
REMARK INTRA:                  -0.848
REMARK UNBOUND:                -1.303
REMARK SMILES CC(=O)NCCNc1nc(Nc2ccccc2Cl)c2cnn(C)c2n1
REMARK SMILES IDX 7 1 6 3 5 4 4 5 2 6 1 7 3 8 8 10 9 11 25 12 10 13 24 14
REMARK SMILES IDX 19 15 22 16 20 17 21 18 23 19 11 20 12 22 13 23 17 24 14 25
REMARK SMILES IDX 16 26 15 27 18 28
REMARK H PARENT 7 2 4 9 11 21
ROOT
ATOM      1  N   UNL     1       5.172  46.791  52.502  1.00  0.00    -0.352 N 
ATOM      2  H   UNL     1       4.495  47.355  52.000  1.00  0.00     0.163 HD
ENDROOT
BRANCH   1   3
ATOM      3  C   UNL     1       5.272  47.057  53.930  1.00  0.00     0.137 C 
BRANCH   3   4
ATOM      4  C   UNL     1       6.485  46.368  54.578  1.00  0.00     0.137 C 
BRANCH   4   5
ATOM      5  N   UNL     1       7.672  46.402  53.742  1.00  0.00    -0.355 N 
ATOM      6  C   UNL     1       8.732  47.229  54.032  1.00  0.00     0.216 C 
ATOM      7  C   UNL     1       9.862  47.162  53.041  1.00  0.00     0.114 C 
ATOM      8  O   UNL     1       8.758  47.976  55.004  1.00  0.00    -0.275 OA
ATOM      9  H   UNL     1       7.663  45.886  52.872  1.00  0.00     0.163 HD
ENDBRANCH   4   5
ENDBRANCH   3   4
ENDBRANCH   1   3
BRANCH   1  10
ATOM     10  C   UNL     1       4.973  45.475  52.120  1.00  0.00     0.226 A 
ATOM     11  N   UNL     1       3.941  44.866  52.728  1.00  0.00    -0.195 NA
ATOM     12  N   UNL     1       5.795  44.911  51.226  1.00  0.00    -0.193 NA
ATOM     13  C   UNL     1       3.625  43.574  52.450  1.00  0.00     0.147 A 
ATOM     14  C   UNL     1       5.471  43.639  50.956  1.00  0.00     0.165 A 
ATOM     15  C   UNL     1       4.433  42.918  51.513  1.00  0.00     0.082 A 
ATOM     16  N   UNL     1       6.091  42.792  50.077  1.00  0.00    -0.250 N 
ATOM     17  C   UNL     1       4.527  41.646  50.909  1.00  0.00     0.149 A 
ATOM     18  N   UNL     1       5.539  41.556  50.038  1.00  0.00    -0.179 NA
ATOM     19  C   UNL     1       7.222  43.091  49.236  1.00  0.00     0.176 C 
BRANCH  13  20
ATOM     20  N   UNL     1       2.560  42.917  53.077  1.00  0.00    -0.338 N 
ATOM     21  H   UNL     1       2.831  42.103  53.618  1.00  0.00     0.168 HD
BRANCH  20  22
ATOM     22  C   UNL     1       1.169  43.153  53.123  1.00  0.00     0.058 A 
ATOM     23  C   UNL     1       0.275  42.677  52.158  1.00  0.00     0.027 A 
ATOM     24  C   UNL     1       0.630  43.918  54.181  1.00  0.00     0.064 A 
ATOM     25  C   UNL     1      -1.097  42.947  52.240  1.00  0.00     0.002 A 
ATOM     26  C   UNL     1      -0.737  44.193  54.268  1.00  0.00     0.023 A 
ATOM     27  C   UNL     1      -1.603  43.706  53.293  1.00  0.00     0.002 A 
ATOM     28  Cl  UNL     1       1.665  44.550  55.422  1.00  0.00    -0.082 Cl
ENDBRANCH  20  22
ENDBRANCH  13  20
ENDBRANCH   1  10
TORSDOF 6
ENDMDL
