MODEL 1
REMARK VINA RESULT:    -9.429      0.000      0.000
REMARK INTER + INTRA:         -14.060
REMARK INTER:                 -12.737
REMARK INTRA:                  -1.324
REMARK UNBOUND:                -1.324
REMARK SMILES CC(=O)NCCNc1nc(Nc2ccccc2C)c2cnn(C)c2n1
REMARK SMILES IDX 7 1 6 3 5 4 4 5 2 6 1 7 3 8 8 10 9 11 25 12 10 13 24 14
REMARK SMILES IDX 19 15 22 16 20 17 21 18 23 19 11 20 12 22 13 23 17 24 14 25
REMARK SMILES IDX 16 26 15 27 18 28
REMARK H PARENT 7 2 4 9 11 21
ROOT
ATOM      1  N   UNL     1       4.857  46.969  54.935  1.00  0.00    -0.352 N 
ATOM      2  H   UNL     1       5.105  47.624  55.685  1.00  0.00     0.163 HD
ENDROOT
BRANCH   1   3
ATOM      3  C   UNL     1       4.202  45.750  55.378  1.00  0.00     0.137 C 
BRANCH   3   4
ATOM      4  C   UNL     1       2.678  45.843  55.184  1.00  0.00     0.137 C 
BRANCH   4   5
ATOM      5  N   UNL     1       2.214  45.289  53.918  1.00  0.00    -0.355 N 
ATOM      6  C   UNL     1       2.167  46.022  52.756  1.00  0.00     0.216 C 
ATOM      7  C   UNL     1       1.676  45.257  51.558  1.00  0.00     0.114 C 
ATOM      8  O   UNL     1       2.467  47.210  52.693  1.00  0.00    -0.275 OA
ATOM      9  H   UNL     1       1.911  44.324  53.903  1.00  0.00     0.163 HD
ENDBRANCH   4   5
ENDBRANCH   3   4
ENDBRANCH   1   3
BRANCH   1  10
ATOM     10  C   UNL     1       5.980  46.790  54.145  1.00  0.00     0.226 A 
ATOM     11  N   UNL     1       5.739  46.305  52.914  1.00  0.00    -0.195 NA
ATOM     12  N   UNL     1       7.189  47.103  54.638  1.00  0.00    -0.193 NA
ATOM     13  C   UNL     1       6.761  46.085  52.052  1.00  0.00     0.147 A 
ATOM     14  C   UNL     1       8.183  46.866  53.769  1.00  0.00     0.165 A 
ATOM     15  C   UNL     1       8.056  46.372  52.487  1.00  0.00     0.082 A 
ATOM     16  N   UNL     1       9.523  47.059  53.966  1.00  0.00    -0.250 N 
ATOM     17  C   UNL     1       9.377  46.311  52.000  1.00  0.00     0.149 A 
ATOM     18  N   UNL     1      10.281  46.736  52.892  1.00  0.00    -0.179 NA
ATOM     19  C   UNL     1      10.162  47.549  55.161  1.00  0.00     0.176 C 
BRANCH  13  20
ATOM     20  N   UNL     1       6.426  45.571  50.785  1.00  0.00    -0.339 N 
ATOM     21  H   UNL     1       7.145  45.925  50.154  1.00  0.00     0.168 HD
BRANCH  20  22
ATOM     22  C   UNL     1       6.132  44.217  50.514  1.00  0.00     0.043 A 
ATOM     23  C   UNL     1       4.944  43.695  51.047  1.00  0.00     0.026 A 
ATOM     24  C   UNL     1       6.932  43.405  49.688  1.00  0.00    -0.028 A 
ATOM     25  C   UNL     1       4.576  42.370  50.816  1.00  0.00     0.002 A 
ATOM     26  C   UNL     1       6.557  42.067  49.476  1.00  0.00     0.005 A 
ATOM     27  C   UNL     1       5.388  41.554  50.037  1.00  0.00     0.000 A 
ATOM     28  C   UNL     1       8.196  43.910  49.045  1.00  0.00     0.046 C 
ENDBRANCH  20  22
ENDBRANCH  13  20
ENDBRANCH   1  10
TORSDOF 6
ENDMDL
MODEL 2
REMARK VINA RESULT:    -9.210      1.133      1.133
REMARK INTER + INTRA:         -13.764
REMARK INTER:                 -12.658
REMARK INTRA:                  -1.106
REMARK UNBOUND:                -1.324
REMARK SMILES CC(=O)NCCNc1nc(Nc2ccccc2C)c2cnn(C)c2n1
REMARK SMILES IDX 7 1 6 3 5 4 4 5 2 6 1 7 3 8 8 10 9 11 25 12 10 13 24 14
REMARK SMILES IDX 19 15 22 16 20 17 21 18 23 19 11 20 12 22 13 23 17 24 14 25
REMARK SMILES IDX 16 26 15 27 18 28
REMARK H PARENT 7 2 4 9 11 21
ROOT
ATOM      1  N   UNL     1       4.889  47.083  54.962  1.00  0.00    -0.352 N 
ATOM      2  H   UNL     1       5.112  46.740  55.903  1.00  0.00     0.163 HD
ENDROOT
BRANCH   1   3
ATOM      3  C   UNL     1       3.620  46.619  54.427  1.00  0.00     0.137 C 
BRANCH   3   4
ATOM      4  C   UNL     1       3.145  45.351  55.159  1.00  0.00     0.137 C 
BRANCH   4   5
ATOM      5  N   UNL     1       2.799  44.253  54.264  1.00  0.00    -0.355 N 
ATOM      6  C   UNL     1       1.503  43.950  53.923  1.00  0.00     0.216 C 
ATOM      7  C   UNL     1       1.366  42.792  52.972  1.00  0.00     0.114 C 
ATOM      8  O   UNL     1       0.528  44.544  54.371  1.00  0.00    -0.275 OA
ATOM      9  H   UNL     1       3.551  43.692  53.888  1.00  0.00     0.163 HD
ENDBRANCH   4   5
ENDBRANCH   3   4
ENDBRANCH   1   3
BRANCH   1  10
ATOM     10  C   UNL     1       5.994  46.856  54.159  1.00  0.00     0.226 A 
ATOM     11  N   UNL     1       5.719  46.360  52.939  1.00  0.00    -0.195 NA
ATOM     12  N   UNL     1       7.219  47.137  54.630  1.00  0.00    -0.193 NA
ATOM     13  C   UNL     1       6.720  46.094  52.066  1.00  0.00     0.147 A 
ATOM     14  C   UNL     1       8.193  46.855  53.750  1.00  0.00     0.165 A 
ATOM     15  C   UNL     1       8.030  46.346  52.478  1.00  0.00     0.082 A 
ATOM     16  N   UNL     1       9.540  47.007  53.925  1.00  0.00    -0.250 N 
ATOM     17  C   UNL     1       9.342  46.235  51.973  1.00  0.00     0.149 A 
ATOM     18  N   UNL     1      10.272  46.643  52.846  1.00  0.00    -0.179 NA
ATOM     19  C   UNL     1      10.212  47.494  55.103  1.00  0.00     0.176 C 
BRANCH  13  20
ATOM     20  N   UNL     1       6.350  45.573  50.812  1.00  0.00    -0.339 N 
ATOM     21  H   UNL     1       7.049  45.926  50.159  1.00  0.00     0.168 HD
BRANCH  20  22
ATOM     22  C   UNL     1       6.054  44.216  50.557  1.00  0.00     0.043 A 
ATOM     23  C   UNL     1       4.860  43.704  51.086  1.00  0.00     0.026 A 
ATOM     24  C   UNL     1       6.859  43.391  49.748  1.00  0.00    -0.028 A 
ATOM     25  C   UNL     1       4.490  42.378  50.870  1.00  0.00     0.002 A 
ATOM     26  C   UNL     1       6.481  42.051  49.551  1.00  0.00     0.005 A 
ATOM     27  C   UNL     1       5.305  41.549  50.109  1.00  0.00     0.000 A 
ATOM     28  C   UNL     1       8.130  43.883  49.109  1.00  0.00     0.046 C 
ENDBRANCH  20  22
ENDBRANCH  13  20
ENDBRANCH   1  10
TORSDOF 6
ENDMDL
MODEL 3
REMARK VINA RESULT:    -8.952      1.224      1.563
REMARK INTER + INTRA:         -13.416
REMARK INTER:                 -12.582
REMARK INTRA:                  -0.834
REMARK UNBOUND:                -1.324
REMARK SMILES CC(=O)NCCNc1nc(Nc2ccccc2C)c2cnn(C)c2n1
REMARK SMILES IDX 7 1 6 3 5 4 4 5 2 6 1 7 3 8 8 10 9 11 25 12 10 13 24 14
REMARK SMILES IDX 19 15 22 16 20 17 21 18 23 19 11 20 12 22 13 23 17 24 14 25
REMARK SMILES IDX 16 26 15 27 18 28
REMARK H PARENT 7 2 4 9 11 21
ROOT
ATOM      1  N   UNL     1       4.924  47.115  54.953  1.00  0.00    -0.352 N 
ATOM      2  H   UNL     1       5.172  46.823  55.905  1.00  0.00     0.163 HD
ENDROOT
BRANCH   1   3
ATOM      3  C   UNL     1       3.664  46.587  54.459  1.00  0.00     0.137 C 
BRANCH   3   4
ATOM      4  C   UNL     1       3.310  45.262  55.160  1.00  0.00     0.137 C 
BRANCH   4   5
ATOM      5  N   UNL     1       2.177  45.367  56.072  1.00  0.00    -0.355 N 
ATOM      6  C   UNL     1       0.879  45.158  55.674  1.00  0.00     0.216 C 
ATOM      7  C   UNL     1      -0.138  45.295  56.775  1.00  0.00     0.114 C 
ATOM      8  O   UNL     1       0.557  44.910  54.517  1.00  0.00    -0.275 OA
ATOM      9  H   UNL     1       2.364  45.609  57.037  1.00  0.00     0.163 HD
ENDBRANCH   4   5
ENDBRANCH   3   4
ENDBRANCH   1   3
BRANCH   1  10
ATOM     10  C   UNL     1       6.024  46.889  54.144  1.00  0.00     0.226 A 
ATOM     11  N   UNL     1       5.742  46.400  52.922  1.00  0.00    -0.195 NA
ATOM     12  N   UNL     1       7.253  47.163  54.610  1.00  0.00    -0.193 NA
ATOM     13  C   UNL     1       6.738  46.136  52.043  1.00  0.00     0.147 A 
ATOM     14  C   UNL     1       8.221  46.882  53.725  1.00  0.00     0.165 A 
ATOM     15  C   UNL     1       8.050  46.381  52.451  1.00  0.00     0.082 A 
ATOM     16  N   UNL     1       9.570  47.029  53.894  1.00  0.00    -0.250 N 
ATOM     17  C   UNL     1       9.359  46.269  51.938  1.00  0.00     0.149 A 
ATOM     18  N   UNL     1      10.295  46.669  52.809  1.00  0.00    -0.179 NA
ATOM     19  C   UNL     1      10.249  47.507  55.071  1.00  0.00     0.176 C 
BRANCH  13  20
ATOM     20  N   UNL     1       6.360  45.623  50.789  1.00  0.00    -0.339 N 
ATOM     21  H   UNL     1       7.036  46.007  50.128  1.00  0.00     0.168 HD
BRANCH  20  22
ATOM     22  C   UNL     1       6.099  44.262  50.518  1.00  0.00     0.043 A 
ATOM     23  C   UNL     1       4.909  43.719  51.023  1.00  0.00     0.026 A 
ATOM     24  C   UNL     1       6.936  43.462  49.716  1.00  0.00    -0.028 A 
ATOM     25  C   UNL     1       4.572  42.386  50.790  1.00  0.00     0.002 A 
ATOM     26  C   UNL     1       6.592  42.116  49.502  1.00  0.00     0.005 A 
ATOM     27  C   UNL     1       5.419  41.582  50.036  1.00  0.00     0.000 A 
ATOM     28  C   UNL     1       8.205  43.988  49.102  1.00  0.00     0.046 C 
ENDBRANCH  20  22
ENDBRANCH  13  20
ENDBRANCH   1  10
TORSDOF 6
ENDMDL
MODEL 4
REMARK VINA RESULT:    -8.755      2.306      5.462
REMARK INTER + INTRA:         -13.150
REMARK INTER:                 -12.379
REMARK INTRA:                  -0.771
REMARK UNBOUND:                -1.324
REMARK SMILES CC(=O)NCCNc1nc(Nc2ccccc2C)c2cnn(C)c2n1
REMARK SMILES IDX 7 1 6 3 5 4 4 5 2 6 1 7 3 8 8 10 9 11 25 12 10 13 24 14
REMARK SMILES IDX 19 15 22 16 20 17 21 18 23 19 11 20 12 22 13 23 17 24 14 25
REMARK SMILES IDX 16 26 15 27 18 28
REMARK H PARENT 7 2 4 9 11 21
ROOT
ATOM      1  N   UNL     1       2.749  44.182  53.944  1.00  0.00    -0.352 N 
ATOM      2  H   UNL     1       1.830  44.172  53.488  1.00  0.00     0.163 HD
ENDROOT
BRANCH   1   3
ATOM      3  C   UNL     1       2.915  45.204  54.964  1.00  0.00     0.137 C 
BRANCH   3   4
ATOM      4  C   UNL     1       1.659  45.306  55.849  1.00  0.00     0.137 C 
BRANCH   4   5
ATOM      5  N   UNL     1       1.870  46.061  57.079  1.00  0.00    -0.355 N 
ATOM      6  C   UNL     1       0.847  46.385  57.939  1.00  0.00     0.216 C 
ATOM      7  C   UNL     1       1.282  47.149  59.160  1.00  0.00     0.114 C 
ATOM      8  O   UNL     1      -0.329  46.107  57.727  1.00  0.00    -0.275 OA
ATOM      9  H   UNL     1       2.811  46.360  57.298  1.00  0.00     0.163 HD
ENDBRANCH   4   5
ENDBRANCH   3   4
ENDBRANCH   1   3
BRANCH   1  10
ATOM     10  C   UNL     1       3.712  44.171  52.949  1.00  0.00     0.226 A 
ATOM     11  N   UNL     1       4.485  45.271  52.891  1.00  0.00    -0.195 NA
ATOM     12  N   UNL     1       3.811  43.104  52.141  1.00  0.00    -0.193 NA
ATOM     13  C   UNL     1       5.459  45.375  51.956  1.00  0.00     0.147 A 
ATOM     14  C   UNL     1       4.776  43.237  51.218  1.00  0.00     0.165 A 
ATOM     15  C   UNL     1       5.625  44.315  51.065  1.00  0.00     0.082 A 
ATOM     16  N   UNL     1       5.120  42.345  50.240  1.00  0.00    -0.250 N 
ATOM     17  C   UNL     1       6.443  43.965  49.970  1.00  0.00     0.149 A 
ATOM     18  N   UNL     1       6.148  42.761  49.464  1.00  0.00    -0.179 NA
ATOM     19  C   UNL     1       4.509  41.067  49.979  1.00  0.00     0.176 C 
BRANCH  13  20
ATOM     20  N   UNL     1       6.220  46.559  51.959  1.00  0.00    -0.339 N 
ATOM     21  H   UNL     1       5.602  47.273  52.348  1.00  0.00     0.168 HD
BRANCH  20  22
ATOM     22  C   UNL     1       7.527  46.679  52.479  1.00  0.00     0.043 A 
ATOM     23  C   UNL     1       8.593  46.593  51.572  1.00  0.00     0.026 A 
ATOM     24  C   UNL     1       7.795  46.947  53.835  1.00  0.00    -0.028 A 
ATOM     25  C   UNL     1       9.914  46.712  52.004  1.00  0.00     0.002 A 
ATOM     26  C   UNL     1       9.131  47.049  54.259  1.00  0.00     0.005 A 
ATOM     27  C   UNL     1      10.182  46.932  53.350  1.00  0.00     0.000 A 
ATOM     28  C   UNL     1       6.701  47.098  54.858  1.00  0.00     0.046 C 
ENDBRANCH  20  22
ENDBRANCH  13  20
ENDBRANCH   1  10
TORSDOF 6
ENDMDL
MODEL 5
REMARK VINA RESULT:    -8.679      0.751      1.569
REMARK INTER + INTRA:         -13.047
REMARK INTER:                 -11.815
REMARK INTRA:                  -1.232
REMARK UNBOUND:                -1.324
REMARK SMILES CC(=O)NCCNc1nc(Nc2ccccc2C)c2cnn(C)c2n1
REMARK SMILES IDX 7 1 6 3 5 4 4 5 2 6 1 7 3 8 8 10 9 11 25 12 10 13 24 14
REMARK SMILES IDX 19 15 22 16 20 17 21 18 23 19 11 20 12 22 13 23 17 24 14 25
REMARK SMILES IDX 16 26 15 27 18 28
REMARK H PARENT 7 2 4 9 11 21
ROOT
ATOM      1  N   UNL     1       4.291  46.782  55.045  1.00  0.00    -0.352 N 
ATOM      2  H   UNL     1       4.587  47.310  55.873  1.00  0.00     0.163 HD
ENDROOT
BRANCH   1   3
ATOM      3  C   UNL     1       3.637  45.515  55.329  1.00  0.00     0.137 C 
BRANCH   3   4
ATOM      4  C   UNL     1       2.108  45.685  55.379  1.00  0.00     0.137 C 
BRANCH   4   5
ATOM      5  N   UNL     1       1.418  45.124  54.223  1.00  0.00    -0.355 N 
ATOM      6  C   UNL     1       1.379  45.754  53.002  1.00  0.00     0.216 C 
ATOM      7  C   UNL     1       0.632  44.997  51.937  1.00  0.00     0.114 C 
ATOM      8  O   UNL     1       1.878  46.854  52.790  1.00  0.00    -0.275 OA
ATOM      9  H   UNL     1       0.947  44.236  54.335  1.00  0.00     0.163 HD
ENDBRANCH   4   5
ENDBRANCH   3   4
ENDBRANCH   1   3
BRANCH   1  10
ATOM     10  C   UNL     1       5.371  46.715  54.181  1.00  0.00     0.226 A 
ATOM     11  N   UNL     1       5.102  46.188  52.972  1.00  0.00    -0.195 NA
ATOM     12  N   UNL     1       6.568  47.165  54.587  1.00  0.00    -0.193 NA
ATOM     13  C   UNL     1       6.080  46.069  52.043  1.00  0.00     0.147 A 
ATOM     14  C   UNL     1       7.522  47.026  53.653  1.00  0.00     0.165 A 
ATOM     15  C   UNL     1       7.362  46.502  52.386  1.00  0.00     0.082 A 
ATOM     16  N   UNL     1       8.842  47.366  53.756  1.00  0.00    -0.250 N 
ATOM     17  C   UNL     1       8.646  46.579  51.809  1.00  0.00     0.149 A 
ATOM     18  N   UNL     1       9.556  47.113  52.634  1.00  0.00    -0.179 NA
ATOM     19  C   UNL     1       9.503  47.940  54.900  1.00  0.00     0.176 C 
BRANCH  13  20
ATOM     20  N   UNL     1       5.718  45.503  50.807  1.00  0.00    -0.339 N 
ATOM     21  H   UNL     1       6.088  46.142  50.102  1.00  0.00     0.168 HD
BRANCH  20  22
ATOM     22  C   UNL     1       5.936  44.158  50.439  1.00  0.00     0.043 A 
ATOM     23  C   UNL     1       7.099  43.867  49.711  1.00  0.00     0.026 A 
ATOM     24  C   UNL     1       5.084  43.106  50.826  1.00  0.00    -0.028 A 
ATOM     25  C   UNL     1       7.392  42.561  49.319  1.00  0.00     0.002 A 
ATOM     26  C   UNL     1       5.383  41.797  50.411  1.00  0.00     0.005 A 
ATOM     27  C   UNL     1       6.529  41.527  49.663  1.00  0.00     0.000 A 
ATOM     28  C   UNL     1       3.842  43.336  51.646  1.00  0.00     0.046 C 
ENDBRANCH  20  22
ENDBRANCH  13  20
ENDBRANCH   1  10
TORSDOF 6
ENDMDL
MODEL 6
REMARK VINA RESULT:    -8.654      1.960      5.274
REMARK INTER + INTRA:         -13.013
REMARK INTER:                 -11.950
REMARK INTRA:                  -1.063
REMARK UNBOUND:                -1.324
REMARK SMILES CC(=O)NCCNc1nc(Nc2ccccc2C)c2cnn(C)c2n1
REMARK SMILES IDX 7 1 6 3 5 4 4 5 2 6 1 7 3 8 8 10 9 11 25 12 10 13 24 14
REMARK SMILES IDX 19 15 22 16 20 17 21 18 23 19 11 20 12 22 13 23 17 24 14 25
REMARK SMILES IDX 16 26 15 27 18 28
REMARK H PARENT 7 2 4 9 11 21
ROOT
ATOM      1  N   UNL     1       2.964  43.509  53.092  1.00  0.00    -0.352 N 
ATOM      2  H   UNL     1       3.017  42.540  53.426  1.00  0.00     0.163 HD
ENDROOT
BRANCH   1   3
ATOM      3  C   UNL     1       1.665  43.908  52.577  1.00  0.00     0.137 C 
BRANCH   3   4
ATOM      4  C   UNL     1       1.301  45.329  53.045  1.00  0.00     0.137 C 
BRANCH   4   5
ATOM      5  N   UNL     1       0.596  45.363  54.321  1.00  0.00    -0.355 N 
ATOM      6  C   UNL     1       1.245  45.333  55.532  1.00  0.00     0.216 C 
ATOM      7  C   UNL     1       0.333  45.396  56.727  1.00  0.00     0.114 C 
ATOM      8  O   UNL     1       2.462  45.232  55.645  1.00  0.00    -0.275 OA
ATOM      9  H   UNL     1      -0.415  45.405  54.305  1.00  0.00     0.163 HD
ENDBRANCH   4   5
ENDBRANCH   3   4
ENDBRANCH   1   3
BRANCH   1  10
ATOM     10  C   UNL     1       4.035  43.720  52.240  1.00  0.00     0.226 A 
ATOM     11  N   UNL     1       4.668  44.896  52.401  1.00  0.00    -0.195 NA
ATOM     12  N   UNL     1       4.361  42.774  51.346  1.00  0.00    -0.193 NA
ATOM     13  C   UNL     1       5.729  45.216  51.622  1.00  0.00     0.147 A 
ATOM     14  C   UNL     1       5.408  43.120  50.580  1.00  0.00     0.165 A 
ATOM     15  C   UNL     1       6.130  44.293  50.655  1.00  0.00     0.082 A 
ATOM     16  N   UNL     1       5.975  42.393  49.570  1.00  0.00    -0.250 N 
ATOM     17  C   UNL     1       7.112  44.167  49.651  1.00  0.00     0.149 A 
ATOM     18  N   UNL     1       7.031  43.007  48.987  1.00  0.00    -0.179 NA
ATOM     19  C   UNL     1       5.561  41.096  49.097  1.00  0.00     0.176 C 
BRANCH  13  20
ATOM     20  N   UNL     1       6.333  46.466  51.851  1.00  0.00    -0.339 N 
ATOM     21  H   UNL     1       5.596  47.051  52.245  1.00  0.00     0.168 HD
BRANCH  20  22
ATOM     22  C   UNL     1       7.556  46.661  52.529  1.00  0.00     0.043 A 
ATOM     23  C   UNL     1       8.729  46.657  51.761  1.00  0.00     0.026 A 
ATOM     24  C   UNL     1       7.637  46.926  53.910  1.00  0.00    -0.028 A 
ATOM     25  C   UNL     1       9.976  46.853  52.353  1.00  0.00     0.002 A 
ATOM     26  C   UNL     1       8.901  47.107  54.496  1.00  0.00     0.005 A 
ATOM     27  C   UNL     1      10.062  47.070  53.723  1.00  0.00     0.000 A 
ATOM     28  C   UNL     1       6.418  46.991  54.790  1.00  0.00     0.046 C 
ENDBRANCH  20  22
ENDBRANCH  13  20
ENDBRANCH   1  10
TORSDOF 6
ENDMDL
MODEL 7
REMARK VINA RESULT:    -8.650      1.935      5.014
REMARK INTER + INTRA:         -13.008
REMARK INTER:                 -11.695
REMARK INTRA:                  -1.313
REMARK UNBOUND:                -1.324
REMARK SMILES CC(=O)NCCNc1nc(Nc2ccccc2C)c2cnn(C)c2n1
REMARK SMILES IDX 7 1 6 3 5 4 4 5 2 6 1 7 3 8 8 10 9 11 25 12 10 13 24 14
REMARK SMILES IDX 19 15 22 16 20 17 21 18 23 19 11 20 12 22 13 23 17 24 14 25
REMARK SMILES IDX 16 26 15 27 18 28
REMARK H PARENT 7 2 4 9 11 21
ROOT
ATOM      1  N   UNL     1       2.665  45.978  52.442  1.00  0.00    -0.352 N 
ATOM      2  H   UNL     1       3.047  46.806  52.911  1.00  0.00     0.163 HD
ENDROOT
BRANCH   1   3
ATOM      3  C   UNL     1       1.799  45.152  53.267  1.00  0.00     0.137 C 
BRANCH   3   4
ATOM      4  C   UNL     1       2.110  45.352  54.762  1.00  0.00     0.137 C 
BRANCH   4   5
ATOM      5  N   UNL     1       3.415  44.838  55.162  1.00  0.00    -0.355 N 
ATOM      6  C   UNL     1       4.534  45.630  55.245  1.00  0.00     0.216 C 
ATOM      7  C   UNL     1       5.775  44.907  55.696  1.00  0.00     0.114 C 
ATOM      8  O   UNL     1       4.545  46.821  54.950  1.00  0.00    -0.275 OA
ATOM      9  H   UNL     1       3.491  43.853  55.382  1.00  0.00     0.163 HD
ENDBRANCH   4   5
ENDBRANCH   3   4
ENDBRANCH   1   3
BRANCH   1  10
ATOM     10  C   UNL     1       3.718  45.316  51.834  1.00  0.00     0.226 A 
ATOM     11  N   UNL     1       4.818  46.064  51.628  1.00  0.00    -0.195 NA
ATOM     12  N   UNL     1       3.582  44.022  51.505  1.00  0.00    -0.193 NA
ATOM     13  C   UNL     1       5.912  45.526  51.038  1.00  0.00     0.147 A 
ATOM     14  C   UNL     1       4.675  43.517  50.912  1.00  0.00     0.165 A 
ATOM     15  C   UNL     1       5.853  44.186  50.651  1.00  0.00     0.082 A 
ATOM     16  N   UNL     1       4.853  42.245  50.443  1.00  0.00    -0.250 N 
ATOM     17  C   UNL     1       6.674  43.224  50.029  1.00  0.00     0.149 A 
ATOM     18  N   UNL     1       6.076  42.032  49.903  1.00  0.00    -0.179 NA
ATOM     19  C   UNL     1       3.896  41.168  50.471  1.00  0.00     0.176 C 
BRANCH  13  20
ATOM     20  N   UNL     1       7.019  46.376  50.855  1.00  0.00    -0.339 N 
ATOM     21  H   UNL     1       6.629  47.249  50.498  1.00  0.00     0.168 HD
BRANCH  20  22
ATOM     22  C   UNL     1       8.018  46.621  51.821  1.00  0.00     0.043 A 
ATOM     23  C   UNL     1       7.661  47.389  52.939  1.00  0.00     0.026 A 
ATOM     24  C   UNL     1       9.314  46.076  51.744  1.00  0.00    -0.028 A 
ATOM     25  C   UNL     1       8.587  47.668  53.944  1.00  0.00     0.002 A 
ATOM     26  C   UNL     1      10.242  46.377  52.757  1.00  0.00     0.005 A 
ATOM     27  C   UNL     1       9.881  47.167  53.848  1.00  0.00     0.000 A 
ATOM     28  C   UNL     1       9.754  45.205  50.599  1.00  0.00     0.046 C 
ENDBRANCH  20  22
ENDBRANCH  13  20
ENDBRANCH   1  10
TORSDOF 6
ENDMDL
MODEL 8
REMARK VINA RESULT:    -8.442      1.919      5.058
REMARK INTER + INTRA:         -12.727
REMARK INTER:                 -11.796
REMARK INTRA:                  -0.931
REMARK UNBOUND:                -1.324
REMARK SMILES CC(=O)NCCNc1nc(Nc2ccccc2C)c2cnn(C)c2n1
REMARK SMILES IDX 7 1 6 3 5 4 4 5 2 6 1 7 3 8 8 10 9 11 25 12 10 13 24 14
REMARK SMILES IDX 19 15 22 16 20 17 21 18 23 19 11 20 12 22 13 23 17 24 14 25
REMARK SMILES IDX 16 26 15 27 18 28
REMARK H PARENT 7 2 4 9 11 21
ROOT
ATOM      1  N   UNL     1       3.210  45.254  52.919  1.00  0.00    -0.352 N 
ATOM      2  H   UNL     1       2.414  45.478  52.312  1.00  0.00     0.163 HD
ENDROOT
BRANCH   1   3
ATOM      3  C   UNL     1       3.525  46.265  53.914  1.00  0.00     0.137 C 
BRANCH   3   4
ATOM      4  C   UNL     1       3.666  45.636  55.312  1.00  0.00     0.137 C 
BRANCH   4   5
ATOM      5  N   UNL     1       2.468  45.760  56.134  1.00  0.00    -0.355 N 
ATOM      6  C   UNL     1       1.351  44.983  55.945  1.00  0.00     0.216 C 
ATOM      7  C   UNL     1       0.232  45.257  56.913  1.00  0.00     0.114 C 
ATOM      8  O   UNL     1       1.247  44.152  55.048  1.00  0.00    -0.275 OA
ATOM      9  H   UNL     1       2.466  46.455  56.869  1.00  0.00     0.163 HD
ENDBRANCH   4   5
ENDBRANCH   3   4
ENDBRANCH   1   3
BRANCH   1  10
ATOM     10  C   UNL     1       4.263  44.869  52.105  1.00  0.00     0.226 A 
ATOM     11  N   UNL     1       5.271  45.756  52.020  1.00  0.00    -0.195 NA
ATOM     12  N   UNL     1       4.213  43.682  51.481  1.00  0.00    -0.193 NA
ATOM     13  C   UNL     1       6.354  45.491  51.251  1.00  0.00     0.147 A 
ATOM     14  C   UNL     1       5.292  43.449  50.718  1.00  0.00     0.165 A 
ATOM     15  C   UNL     1       6.380  44.281  50.555  1.00  0.00     0.082 A 
ATOM     16  N   UNL     1       5.541  42.349  49.944  1.00  0.00    -0.250 N 
ATOM     17  C   UNL     1       7.227  43.585  49.669  1.00  0.00     0.149 A 
ATOM     18  N   UNL     1       6.727  42.400  49.295  1.00  0.00    -0.179 NA
ATOM     19  C   UNL     1       4.688  41.201  49.769  1.00  0.00     0.176 C 
BRANCH  13  20
ATOM     20  N   UNL     1       7.362  46.472  51.211  1.00  0.00    -0.339 N 
ATOM     21  H   UNL     1       6.906  47.309  50.847  1.00  0.00     0.168 HD
BRANCH  20  22
ATOM     22  C   UNL     1       8.225  46.788  52.283  1.00  0.00     0.043 A 
ATOM     23  C   UNL     1       7.680  47.494  53.366  1.00  0.00     0.026 A 
ATOM     24  C   UNL     1       9.568  46.368  52.339  1.00  0.00    -0.028 A 
ATOM     25  C   UNL     1       8.463  47.834  54.468  1.00  0.00     0.002 A 
ATOM     26  C   UNL     1      10.350  46.731  53.449  1.00  0.00     0.005 A 
ATOM     27  C   UNL     1       9.801  47.459  54.505  1.00  0.00     0.000 A 
ATOM     28  C   UNL     1      10.209  45.569  51.237  1.00  0.00     0.046 C 
ENDBRANCH  20  22
ENDBRANCH  13  20
ENDBRANCH   1  10
TORSDOF 6
ENDMDL
MODEL 9
REMARK VINA RESULT:    -8.343      2.090      5.065
REMARK INTER + INTRA:         -12.593
REMARK INTER:                 -11.596
REMARK INTRA:                  -0.997
REMARK UNBOUND:                -1.324
REMARK SMILES CC(=O)NCCNc1nc(Nc2ccccc2C)c2cnn(C)c2n1
REMARK SMILES IDX 7 1 6 3 5 4 4 5 2 6 1 7 3 8 8 10 9 11 25 12 10 13 24 14
REMARK SMILES IDX 19 15 22 16 20 17 21 18 23 19 11 20 12 22 13 23 17 24 14 25
REMARK SMILES IDX 16 26 15 27 18 28
REMARK H PARENT 7 2 4 9 11 21
ROOT
ATOM      1  N   UNL     1       3.314  44.853  53.651  1.00  0.00    -0.352 N 
ATOM      2  H   UNL     1       2.791  43.984  53.803  1.00  0.00     0.163 HD
ENDROOT
BRANCH   1   3
ATOM      3  C   UNL     1       2.493  46.035  53.455  1.00  0.00     0.137 C 
BRANCH   3   4
ATOM      4  C   UNL     1       1.204  45.689  52.686  1.00  0.00     0.137 C 
BRANCH   4   5
ATOM      5  N   UNL     1       0.087  45.326  53.551  1.00  0.00    -0.355 N 
ATOM      6  C   UNL     1      -0.069  44.068  54.079  1.00  0.00     0.216 C 
ATOM      7  C   UNL     1      -1.278  43.909  54.960  1.00  0.00     0.114 C 
ATOM      8  O   UNL     1       0.689  43.133  53.838  1.00  0.00    -0.275 OA
ATOM      9  H   UNL     1      -0.602  46.037  53.760  1.00  0.00     0.163 HD
ENDBRANCH   4   5
ENDBRANCH   3   4
ENDBRANCH   1   3
BRANCH   1  10
ATOM     10  C   UNL     1       4.256  44.610  52.666  1.00  0.00     0.226 A 
ATOM     11  N   UNL     1       5.193  45.566  52.526  1.00  0.00    -0.195 NA
ATOM     12  N   UNL     1       4.179  43.480  51.945  1.00  0.00    -0.193 NA
ATOM     13  C   UNL     1       6.166  45.440  51.591  1.00  0.00     0.147 A 
ATOM     14  C   UNL     1       5.147  43.386  51.020  1.00  0.00     0.165 A 
ATOM     15  C   UNL     1       6.155  44.299  50.787  1.00  0.00     0.082 A 
ATOM     16  N   UNL     1       5.339  42.376  50.118  1.00  0.00    -0.250 N 
ATOM     17  C   UNL     1       6.900  43.739  49.729  1.00  0.00     0.149 A 
ATOM     18  N   UNL     1       6.415  42.560  49.318  1.00  0.00    -0.179 NA
ATOM     19  C   UNL     1       4.531  41.194  49.956  1.00  0.00     0.176 C 
BRANCH  13  20
ATOM     20  N   UNL     1       7.104  46.485  51.505  1.00  0.00    -0.339 N 
ATOM     21  H   UNL     1       6.559  47.316  51.277  1.00  0.00     0.168 HD
BRANCH  20  22
ATOM     22  C   UNL     1       8.086  46.771  52.478  1.00  0.00     0.043 A 
ATOM     23  C   UNL     1       7.672  47.448  53.635  1.00  0.00     0.026 A 
ATOM     24  C   UNL     1       9.426  46.351  52.368  1.00  0.00    -0.028 A 
ATOM     25  C   UNL     1       8.578  47.759  54.648  1.00  0.00     0.002 A 
ATOM     26  C   UNL     1      10.332  46.684  53.390  1.00  0.00     0.005 A 
ATOM     27  C   UNL     1       9.911  47.383  54.521  1.00  0.00     0.000 A 
ATOM     28  C   UNL     1       9.932  45.581  51.178  1.00  0.00     0.046 C 
ENDBRANCH  20  22
ENDBRANCH  13  20
ENDBRANCH   1  10
TORSDOF 6
ENDMDL
MODEL 10
REMARK VINA RESULT:    -8.319      2.224      5.945
REMARK INTER + INTRA:         -12.561
REMARK INTER:                 -11.759
REMARK INTRA:                  -0.802
REMARK UNBOUND:                -1.324
REMARK SMILES CC(=O)NCCNc1nc(Nc2ccccc2C)c2cnn(C)c2n1
REMARK SMILES IDX 7 1 6 3 5 4 4 5 2 6 1 7 3 8 8 10 9 11 25 12 10 13 24 14
REMARK SMILES IDX 19 15 22 16 20 17 21 18 23 19 11 20 12 22 13 23 17 24 14 25
REMARK SMILES IDX 16 26 15 27 18 28
REMARK H PARENT 7 2 4 9 11 21
ROOT
ATOM      1  N   UNL     1       4.554  45.358  55.748  1.00  0.00    -0.352 N 
ATOM      2  H   UNL     1       4.393  46.270  56.190  1.00  0.00     0.163 HD
ENDROOT
BRANCH   1   3
ATOM      3  C   UNL     1       5.823  45.231  55.051  1.00  0.00     0.137 C 
BRANCH   3   4
ATOM      4  C   UNL     1       6.368  46.613  54.646  1.00  0.00     0.137 C 
BRANCH   4   5
ATOM      5  N   UNL     1       7.606  46.551  53.877  1.00  0.00    -0.355 N 
ATOM      6  C   UNL     1       8.704  47.324  54.170  1.00  0.00     0.216 C 
ATOM      7  C   UNL     1       9.885  47.093  53.266  1.00  0.00     0.114 C 
ATOM      8  O   UNL     1       8.725  48.158  55.070  1.00  0.00    -0.275 OA
ATOM      9  H   UNL     1       7.647  45.914  53.093  1.00  0.00     0.163 HD
ENDBRANCH   4   5
ENDBRANCH   3   4
ENDBRANCH   1   3
BRANCH   1  10
ATOM     10  C   UNL     1       3.430  45.048  55.002  1.00  0.00     0.226 A 
ATOM     11  N   UNL     1       3.657  44.827  53.694  1.00  0.00    -0.195 NA
ATOM     12  N   UNL     1       2.233  44.987  55.607  1.00  0.00    -0.193 NA
ATOM     13  C   UNL     1       2.632  44.519  52.863  1.00  0.00     0.147 A 
ATOM     14  C   UNL     1       1.235  44.691  54.761  1.00  0.00     0.165 A 
ATOM     15  C   UNL     1       1.349  44.446  53.407  1.00  0.00     0.082 A 
ATOM     16  N   UNL     1      -0.095  44.572  55.054  1.00  0.00    -0.250 N 
ATOM     17  C   UNL     1       0.030  44.185  52.984  1.00  0.00     0.149 A 
ATOM     18  N   UNL     1      -0.860  44.252  53.983  1.00  0.00    -0.179 NA
ATOM     19  C   UNL     1      -0.720  44.752  56.339  1.00  0.00     0.176 C 
BRANCH  13  20
ATOM     20  N   UNL     1       2.953  44.308  51.509  1.00  0.00    -0.339 N 
ATOM     21  H   UNL     1       2.960  45.237  51.088  1.00  0.00     0.168 HD
BRANCH  20  22
ATOM     22  C   UNL     1       4.037  43.530  51.047  1.00  0.00     0.043 A 
ATOM     23  C   UNL     1       3.835  42.148  50.925  1.00  0.00     0.026 A 
ATOM     24  C   UNL     1       5.266  44.085  50.644  1.00  0.00    -0.028 A 
ATOM     25  C   UNL     1       4.852  41.312  50.466  1.00  0.00     0.002 A 
ATOM     26  C   UNL     1       6.288  43.230  50.197  1.00  0.00     0.005 A 
ATOM     27  C   UNL     1       6.081  41.853  50.109  1.00  0.00     0.000 A 
ATOM     28  C   UNL     1       5.540  45.564  50.702  1.00  0.00     0.046 C 
ENDBRANCH  20  22
ENDBRANCH  13  20
ENDBRANCH   1  10
TORSDOF 6
ENDMDL
MODEL 11
REMARK VINA RESULT:    -8.311      3.184      6.741
REMARK INTER + INTRA:         -12.550
REMARK INTER:                 -11.718
REMARK INTRA:                  -0.832
REMARK UNBOUND:                -1.324
REMARK SMILES CC(=O)NCCNc1nc(Nc2ccccc2C)c2cnn(C)c2n1
REMARK SMILES IDX 7 1 6 3 5 4 4 5 2 6 1 7 3 8 8 10 9 11 25 12 10 13 24 14
REMARK SMILES IDX 19 15 22 16 20 17 21 18 23 19 11 20 12 22 13 23 17 24 14 25
REMARK SMILES IDX 16 26 15 27 18 28
REMARK H PARENT 7 2 4 9 11 21
ROOT
ATOM      1  N   UNL     1       6.255  41.743  49.828  1.00  0.00    -0.352 N 
ATOM      2  H   UNL     1       7.237  41.924  49.592  1.00  0.00     0.163 HD
ENDROOT
BRANCH   1   3
ATOM      3  C   UNL     1       5.443  41.251  48.728  1.00  0.00     0.137 C 
BRANCH   3   4
ATOM      4  C   UNL     1       5.782  41.990  47.420  1.00  0.00     0.137 C 
BRANCH   4   5
ATOM      5  N   UNL     1       5.747  41.136  46.239  1.00  0.00    -0.355 N 
ATOM      6  C   UNL     1       5.303  41.575  45.015  1.00  0.00     0.216 C 
ATOM      7  C   UNL     1       5.368  40.541  43.923  1.00  0.00     0.114 C 
ATOM      8  O   UNL     1       4.860  42.702  44.820  1.00  0.00    -0.275 OA
ATOM      9  H   UNL     1       6.059  40.179  46.335  1.00  0.00     0.163 HD
ENDBRANCH   4   5
ENDBRANCH   3   4
ENDBRANCH   1   3
BRANCH   1  10
ATOM     10  C   UNL     1       5.765  42.864  50.477  1.00  0.00     0.226 A 
ATOM     11  N   UNL     1       6.549  43.954  50.402  1.00  0.00    -0.195 NA
ATOM     12  N   UNL     1       4.585  42.793  51.113  1.00  0.00    -0.193 NA
ATOM     13  C   UNL     1       6.176  45.110  51.001  1.00  0.00     0.147 A 
ATOM     14  C   UNL     1       4.244  43.947  51.707  1.00  0.00     0.165 A 
ATOM     15  C   UNL     1       4.965  45.123  51.696  1.00  0.00     0.082 A 
ATOM     16  N   UNL     1       3.121  44.202  52.445  1.00  0.00    -0.250 N 
ATOM     17  C   UNL     1       4.185  46.022  52.452  1.00  0.00     0.149 A 
ATOM     18  N   UNL     1       3.052  45.472  52.908  1.00  0.00    -0.179 NA
ATOM     19  C   UNL     1       2.060  43.277  52.757  1.00  0.00     0.176 C 
BRANCH  13  20
ATOM     20  N   UNL     1       7.054  46.203  50.880  1.00  0.00    -0.339 N 
ATOM     21  H   UNL     1       6.457  47.002  50.662  1.00  0.00     0.168 HD
BRANCH  20  22
ATOM     22  C   UNL     1       8.048  46.550  51.821  1.00  0.00     0.043 A 
ATOM     23  C   UNL     1       7.659  47.350  52.905  1.00  0.00     0.026 A 
ATOM     24  C   UNL     1       9.372  46.076  51.753  1.00  0.00    -0.028 A 
ATOM     25  C   UNL     1       8.578  47.728  53.883  1.00  0.00     0.002 A 
ATOM     26  C   UNL     1      10.291  46.477  52.737  1.00  0.00     0.005 A 
ATOM     27  C   UNL     1       9.897  47.297  53.794  1.00  0.00     0.000 A 
ATOM     28  C   UNL     1       9.849  45.177  50.644  1.00  0.00     0.046 C 
ENDBRANCH  20  22
ENDBRANCH  13  20
ENDBRANCH   1  10
TORSDOF 6
ENDMDL
MODEL 12
REMARK VINA RESULT:    -8.309      2.489      6.022
REMARK INTER + INTRA:         -12.546
REMARK INTER:                 -11.508
REMARK INTRA:                  -1.039
REMARK UNBOUND:                -1.324
REMARK SMILES CC(=O)NCCNc1nc(Nc2ccccc2C)c2cnn(C)c2n1
REMARK SMILES IDX 7 1 6 3 5 4 4 5 2 6 1 7 3 8 8 10 9 11 25 12 10 13 24 14
REMARK SMILES IDX 19 15 22 16 20 17 21 18 23 19 11 20 12 22 13 23 17 24 14 25
REMARK SMILES IDX 16 26 15 27 18 28
REMARK H PARENT 7 2 4 9 11 21
ROOT
ATOM      1  N   UNL     1       4.591  42.860  50.879  1.00  0.00    -0.352 N 
ATOM      2  H   UNL     1       4.391  42.000  51.401  1.00  0.00     0.163 HD
ENDROOT
BRANCH   1   3
ATOM      3  C   UNL     1       5.762  42.796  50.021  1.00  0.00     0.137 C 
BRANCH   3   4
ATOM      4  C   UNL     1       6.010  41.356  49.535  1.00  0.00     0.137 C 
BRANCH   4   5
ATOM      5  N   UNL     1       5.298  41.022  48.307  1.00  0.00    -0.355 N 
ATOM      6  C   UNL     1       4.005  40.558  48.298  1.00  0.00     0.216 C 
ATOM      7  C   UNL     1       3.450  40.292  46.924  1.00  0.00     0.114 C 
ATOM      8  O   UNL     1       3.355  40.344  49.316  1.00  0.00    -0.275 OA
ATOM      9  H   UNL     1       5.787  41.135  47.428  1.00  0.00     0.163 HD
ENDBRANCH   4   5
ENDBRANCH   3   4
ENDBRANCH   1   3
BRANCH   1  10
ATOM     10  C   UNL     1       4.567  43.913  51.778  1.00  0.00     0.226 A 
ATOM     11  N   UNL     1       5.498  44.862  51.568  1.00  0.00    -0.195 NA
ATOM     12  N   UNL     1       3.651  43.920  52.759  1.00  0.00    -0.193 NA
ATOM     13  C   UNL     1       5.574  45.940  52.386  1.00  0.00     0.147 A 
ATOM     14  C   UNL     1       3.755  44.992  53.560  1.00  0.00     0.165 A 
ATOM     15  C   UNL     1       4.665  46.022  53.442  1.00  0.00     0.082 A 
ATOM     16  N   UNL     1       2.991  45.288  54.655  1.00  0.00    -0.250 N 
ATOM     17  C   UNL     1       4.358  46.887  54.513  1.00  0.00     0.149 A 
ATOM     18  N   UNL     1       3.332  46.452  55.256  1.00  0.00    -0.179 NA
ATOM     19  C   UNL     1       1.911  44.503  55.197  1.00  0.00     0.176 C 
BRANCH  13  20
ATOM     20  N   UNL     1       6.577  46.884  52.103  1.00  0.00    -0.339 N 
ATOM     21  H   UNL     1       6.108  47.790  52.133  1.00  0.00     0.168 HD
BRANCH  20  22
ATOM     22  C   UNL     1       7.837  46.941  52.739  1.00  0.00     0.043 A 
ATOM     23  C   UNL     1       7.896  47.547  54.002  1.00  0.00     0.026 A 
ATOM     24  C   UNL     1       9.000  46.362  52.197  1.00  0.00    -0.028 A 
ATOM     25  C   UNL     1       9.099  47.633  54.701  1.00  0.00     0.002 A 
ATOM     26  C   UNL     1      10.209  46.469  52.905  1.00  0.00     0.005 A 
ATOM     27  C   UNL     1      10.258  47.101  54.147  1.00  0.00     0.000 A 
ATOM     28  C   UNL     1       9.003  45.655  50.868  1.00  0.00     0.046 C 
ENDBRANCH  20  22
ENDBRANCH  13  20
ENDBRANCH   1  10
TORSDOF 6
ENDMDL
MODEL 13
REMARK VINA RESULT:    -8.284      3.061      6.837
REMARK INTER + INTRA:         -12.513
REMARK INTER:                 -11.786
REMARK INTRA:                  -0.727
REMARK UNBOUND:                -1.324
REMARK SMILES CC(=O)NCCNc1nc(Nc2ccccc2C)c2cnn(C)c2n1
REMARK SMILES IDX 7 1 6 3 5 4 4 5 2 6 1 7 3 8 8 10 9 11 25 12 10 13 24 14
REMARK SMILES IDX 19 15 22 16 20 17 21 18 23 19 11 20 12 22 13 23 17 24 14 25
REMARK SMILES IDX 16 26 15 27 18 28
REMARK H PARENT 7 2 4 9 11 21
ROOT
ATOM      1  N   UNL     1       5.722  41.888  50.517  1.00  0.00    -0.352 N 
ATOM      2  H   UNL     1       6.468  41.543  51.131  1.00  0.00     0.163 HD
ENDROOT
BRANCH   1   3
ATOM      3  C   UNL     1       6.135  42.177  49.155  1.00  0.00     0.137 C 
BRANCH   3   4
ATOM      4  C   UNL     1       5.415  41.255  48.154  1.00  0.00     0.137 C 
BRANCH   4   5
ATOM      5  N   UNL     1       5.715  41.557  46.759  1.00  0.00    -0.355 N 
ATOM      6  C   UNL     1       4.828  41.315  45.737  1.00  0.00     0.216 C 
ATOM      7  C   UNL     1       5.325  41.718  44.375  1.00  0.00     0.114 C 
ATOM      8  O   UNL     1       3.733  40.787  45.901  1.00  0.00    -0.275 OA
ATOM      9  H   UNL     1       6.618  41.958  46.542  1.00  0.00     0.163 HD
ENDBRANCH   4   5
ENDBRANCH   3   4
ENDBRANCH   1   3
BRANCH   1  10
ATOM     10  C   UNL     1       5.077  42.920  51.177  1.00  0.00     0.226 A 
ATOM     11  N   UNL     1       5.728  44.098  51.165  1.00  0.00    -0.195 NA
ATOM     12  N   UNL     1       3.891  42.690  51.761  1.00  0.00    -0.193 NA
ATOM     13  C   UNL     1       5.198  45.181  51.782  1.00  0.00     0.147 A 
ATOM     14  C   UNL     1       3.393  43.776  52.373  1.00  0.00     0.165 A 
ATOM     15  C   UNL     1       3.969  45.028  52.426  1.00  0.00     0.082 A 
ATOM     16  N   UNL     1       2.220  43.871  53.071  1.00  0.00    -0.250 N 
ATOM     17  C   UNL     1       3.059  45.803  53.174  1.00  0.00     0.149 A 
ATOM     18  N   UNL     1       1.983  45.109  53.566  1.00  0.00    -0.179 NA
ATOM     19  C   UNL     1       1.266  42.818  53.312  1.00  0.00     0.176 C 
BRANCH  13  20
ATOM     20  N   UNL     1       5.943  46.373  51.727  1.00  0.00    -0.339 N 
ATOM     21  H   UNL     1       5.302  47.103  52.040  1.00  0.00     0.168 HD
BRANCH  20  22
ATOM     22  C   UNL     1       7.228  46.549  52.286  1.00  0.00     0.043 A 
ATOM     23  C   UNL     1       8.318  46.573  51.404  1.00  0.00     0.026 A 
ATOM     24  C   UNL     1       7.447  46.769  53.659  1.00  0.00    -0.028 A 
ATOM     25  C   UNL     1       9.618  46.753  51.874  1.00  0.00     0.002 A 
ATOM     26  C   UNL     1       8.764  46.935  54.121  1.00  0.00     0.005 A 
ATOM     27  C   UNL     1       9.841  46.926  53.235  1.00  0.00     0.000 A 
ATOM     28  C   UNL     1       6.323  46.804  54.659  1.00  0.00     0.046 C 
ENDBRANCH  20  22
ENDBRANCH  13  20
ENDBRANCH   1  10
TORSDOF 6
ENDMDL
MODEL 14
REMARK VINA RESULT:    -8.265      2.166      5.209
REMARK INTER + INTRA:         -12.487
REMARK INTER:                 -11.439
REMARK INTRA:                  -1.048
REMARK UNBOUND:                -1.324
REMARK SMILES CC(=O)NCCNc1nc(Nc2ccccc2C)c2cnn(C)c2n1
REMARK SMILES IDX 7 1 6 3 5 4 4 5 2 6 1 7 3 8 8 10 9 11 25 12 10 13 24 14
REMARK SMILES IDX 19 15 22 16 20 17 21 18 23 19 11 20 12 22 13 23 17 24 14 25
REMARK SMILES IDX 16 26 15 27 18 28
REMARK H PARENT 7 2 4 9 11 21
ROOT
ATOM      1  N   UNL     1       2.719  43.748  53.430  1.00  0.00    -0.352 N 
ATOM      2  H   UNL     1       1.883  43.420  52.933  1.00  0.00     0.163 HD
ENDROOT
BRANCH   1   3
ATOM      3  C   UNL     1       2.511  44.912  54.275  1.00  0.00     0.137 C 
BRANCH   3   4
ATOM      4  C   UNL     1       1.157  44.829  55.002  1.00  0.00     0.137 C 
BRANCH   4   5
ATOM      5  N   UNL     1       0.031  45.290  54.198  1.00  0.00    -0.355 N 
ATOM      6  C   UNL     1      -0.698  44.454  53.386  1.00  0.00     0.216 C 
ATOM      7  C   UNL     1      -1.830  45.126  52.658  1.00  0.00     0.114 C 
ATOM      8  O   UNL     1      -0.440  43.264  53.235  1.00  0.00    -0.275 OA
ATOM      9  H   UNL     1      -0.214  46.271  54.241  1.00  0.00     0.163 HD
ENDBRANCH   4   5
ENDBRANCH   3   4
ENDBRANCH   1   3
BRANCH   1  10
ATOM     10  C   UNL     1       3.743  43.857  52.505  1.00  0.00     0.226 A 
ATOM     11  N   UNL     1       4.430  45.013  52.549  1.00  0.00    -0.195 NA
ATOM     12  N   UNL     1       3.978  42.841  51.659  1.00  0.00    -0.193 NA
ATOM     13  C   UNL     1       5.453  45.235  51.690  1.00  0.00     0.147 A 
ATOM     14  C   UNL     1       4.988  43.091  50.812  1.00  0.00     0.165 A 
ATOM     15  C   UNL     1       5.759  44.235  50.766  1.00  0.00     0.082 A 
ATOM     16  N   UNL     1       5.464  42.276  49.823  1.00  0.00    -0.250 N 
ATOM     17  C   UNL     1       6.672  44.002  49.717  1.00  0.00     0.149 A 
ATOM     18  N   UNL     1       6.506  42.805  49.139  1.00  0.00    -0.179 NA
ATOM     19  C   UNL     1       4.973  40.970  49.464  1.00  0.00     0.176 C 
BRANCH  13  20
ATOM     20  N   UNL     1       6.118  46.471  51.798  1.00  0.00    -0.339 N 
ATOM     21  H   UNL     1       5.431  47.110  52.199  1.00  0.00     0.168 HD
BRANCH  20  22
ATOM     22  C   UNL     1       7.389  46.657  52.383  1.00  0.00     0.043 A 
ATOM     23  C   UNL     1       8.496  46.703  51.523  1.00  0.00     0.026 A 
ATOM     24  C   UNL     1       7.579  46.864  53.762  1.00  0.00    -0.028 A 
ATOM     25  C   UNL     1       9.784  46.894  52.020  1.00  0.00     0.002 A 
ATOM     26  C   UNL     1       8.885  47.040  54.253  1.00  0.00     0.005 A 
ATOM     27  C   UNL     1       9.979  47.055  53.388  1.00  0.00     0.000 A 
ATOM     28  C   UNL     1       6.435  46.873  54.740  1.00  0.00     0.046 C 
ENDBRANCH  20  22
ENDBRANCH  13  20
ENDBRANCH   1  10
TORSDOF 6
ENDMDL
MODEL 15
REMARK VINA RESULT:    -8.194      2.805      6.480
REMARK INTER + INTRA:         -12.391
REMARK INTER:                 -11.589
REMARK INTRA:                  -0.803
REMARK UNBOUND:                -1.324
REMARK SMILES CC(=O)NCCNc1nc(Nc2ccccc2C)c2cnn(C)c2n1
REMARK SMILES IDX 7 1 6 3 5 4 4 5 2 6 1 7 3 8 8 10 9 11 25 12 10 13 24 14
REMARK SMILES IDX 19 15 22 16 20 17 21 18 23 19 11 20 12 22 13 23 17 24 14 25
REMARK SMILES IDX 16 26 15 27 18 28
REMARK H PARENT 7 2 4 9 11 21
ROOT
ATOM      1  N   UNL     1       6.467  43.218  49.367  1.00  0.00    -0.352 N 
ATOM      2  H   UNL     1       6.019  43.541  48.502  1.00  0.00     0.163 HD
ENDROOT
BRANCH   1   3
ATOM      3  C   UNL     1       6.308  41.800  49.645  1.00  0.00     0.137 C 
BRANCH   3   4
ATOM      4  C   UNL     1       5.395  41.133  48.600  1.00  0.00     0.137 C 
BRANCH   4   5
ATOM      5  N   UNL     1       5.675  41.545  47.230  1.00  0.00    -0.355 N 
ATOM      6  C   UNL     1       4.793  41.343  46.196  1.00  0.00     0.216 C 
ATOM      7  C   UNL     1       5.267  41.860  44.864  1.00  0.00     0.114 C 
ATOM      8  O   UNL     1       3.720  40.763  46.325  1.00  0.00    -0.275 OA
ATOM      9  H   UNL     1       6.562  41.994  47.040  1.00  0.00     0.163 HD
ENDBRANCH   4   5
ENDBRANCH   3   4
ENDBRANCH   1   3
BRANCH   1  10
ATOM     10  C   UNL     1       6.080  44.073  50.385  1.00  0.00     0.226 A 
ATOM     11  N   UNL     1       6.890  45.129  50.580  1.00  0.00    -0.195 NA
ATOM     12  N   UNL     1       4.964  43.806  51.081  1.00  0.00    -0.193 NA
ATOM     13  C   UNL     1       6.616  46.033  51.551  1.00  0.00     0.147 A 
ATOM     14  C   UNL     1       4.721  44.710  52.043  1.00  0.00     0.165 A 
ATOM     15  C   UNL     1       5.478  45.826  52.333  1.00  0.00     0.082 A 
ATOM     16  N   UNL     1       3.683  44.717  52.933  1.00  0.00    -0.250 N 
ATOM     17  C   UNL     1       4.805  46.438  53.410  1.00  0.00     0.149 A 
ATOM     18  N   UNL     1       3.702  45.774  53.780  1.00  0.00    -0.179 NA
ATOM     19  C   UNL     1       2.626  43.744  53.041  1.00  0.00     0.176 C 
BRANCH  13  20
ATOM     20  N   UNL     1       7.515  47.106  51.694  1.00  0.00    -0.339 N 
ATOM     21  H   UNL     1       6.946  47.947  51.595  1.00  0.00     0.168 HD
BRANCH  20  22
ATOM     22  C   UNL     1       8.448  47.244  52.745  1.00  0.00     0.043 A 
ATOM     23  C   UNL     1       8.043  47.962  53.879  1.00  0.00     0.026 A 
ATOM     24  C   UNL     1       9.720  46.640  52.729  1.00  0.00    -0.028 A 
ATOM     25  C   UNL     1       8.902  48.134  54.964  1.00  0.00     0.002 A 
ATOM     26  C   UNL     1      10.581  46.834  53.823  1.00  0.00     0.005 A 
ATOM     27  C   UNL     1      10.175  47.575  54.932  1.00  0.00     0.000 A 
ATOM     28  C   UNL     1      10.206  45.817  51.566  1.00  0.00     0.046 C 
ENDBRANCH  20  22
ENDBRANCH  13  20
ENDBRANCH   1  10
TORSDOF 6
ENDMDL
MODEL 16
REMARK VINA RESULT:    -8.182      2.244      5.834
REMARK INTER + INTRA:         -12.376
REMARK INTER:                 -11.997
REMARK INTRA:                  -0.379
REMARK UNBOUND:                -1.324
REMARK SMILES CC(=O)NCCNc1nc(Nc2ccccc2C)c2cnn(C)c2n1
REMARK SMILES IDX 7 1 6 3 5 4 4 5 2 6 1 7 3 8 8 10 9 11 25 12 10 13 24 14
REMARK SMILES IDX 19 15 22 16 20 17 21 18 23 19 11 20 12 22 13 23 17 24 14 25
REMARK SMILES IDX 16 26 15 27 18 28
REMARK H PARENT 7 2 4 9 11 21
ROOT
ATOM      1  N   UNL     1       4.256  45.511  55.104  1.00  0.00    -0.352 N 
ATOM      2  H   UNL     1       3.906  46.472  55.189  1.00  0.00     0.163 HD
ENDROOT
BRANCH   1   3
ATOM      3  C   UNL     1       5.700  45.392  55.000  1.00  0.00     0.137 C 
BRANCH   3   4
ATOM      4  C   UNL     1       6.339  46.745  54.640  1.00  0.00     0.137 C 
BRANCH   4   5
ATOM      5  N   UNL     1       7.602  46.624  53.921  1.00  0.00    -0.355 N 
ATOM      6  C   UNL     1       8.720  47.351  54.251  1.00  0.00     0.216 C 
ATOM      7  C   UNL     1       9.924  47.062  53.395  1.00  0.00     0.114 C 
ATOM      8  O   UNL     1       8.743  48.191  55.145  1.00  0.00    -0.275 OA
ATOM      9  H   UNL     1       7.646  45.979  53.143  1.00  0.00     0.163 HD
ENDBRANCH   4   5
ENDBRANCH   3   4
ENDBRANCH   1   3
BRANCH   1  10
ATOM     10  C   UNL     1       3.532  44.887  54.101  1.00  0.00     0.226 A 
ATOM     11  N   UNL     1       4.272  44.248  53.177  1.00  0.00    -0.195 NA
ATOM     12  N   UNL     1       2.192  44.955  54.117  1.00  0.00    -0.193 NA
ATOM     13  C   UNL     1       3.675  43.604  52.146  1.00  0.00     0.147 A 
ATOM     14  C   UNL     1       1.626  44.319  53.080  1.00  0.00     0.165 A 
ATOM     15  C   UNL     1       2.281  43.634  52.078  1.00  0.00     0.082 A 
ATOM     16  N   UNL     1       0.292  44.216  52.796  1.00  0.00    -0.250 N 
ATOM     17  C   UNL     1       1.249  43.153  51.246  1.00  0.00     0.149 A 
ATOM     18  N   UNL     1       0.029  43.497  51.679  1.00  0.00    -0.179 NA
ATOM     19  C   UNL     1      -0.801  44.782  53.545  1.00  0.00     0.176 C 
BRANCH  13  20
ATOM     20  N   UNL     1       4.520  42.965  51.220  1.00  0.00    -0.339 N 
ATOM     21  H   UNL     1       3.899  42.612  50.491  1.00  0.00     0.168 HD
BRANCH  20  22
ATOM     22  C   UNL     1       5.687  43.533  50.665  1.00  0.00     0.043 A 
ATOM     23  C   UNL     1       5.986  44.859  51.007  1.00  0.00     0.026 A 
ATOM     24  C   UNL     1       6.583  42.811  49.853  1.00  0.00    -0.028 A 
ATOM     25  C   UNL     1       7.126  45.490  50.509  1.00  0.00     0.002 A 
ATOM     26  C   UNL     1       7.721  43.463  49.346  1.00  0.00     0.005 A 
ATOM     27  C   UNL     1       7.989  44.793  49.672  1.00  0.00     0.000 A 
ATOM     28  C   UNL     1       6.352  41.371  49.481  1.00  0.00     0.046 C 
ENDBRANCH  20  22
ENDBRANCH  13  20
ENDBRANCH   1  10
TORSDOF 6
ENDMDL
MODEL 17
REMARK VINA RESULT:    -8.062      2.263      5.712
REMARK INTER + INTRA:         -12.213
REMARK INTER:                 -11.903
REMARK INTRA:                  -0.311
REMARK UNBOUND:                -1.324
REMARK SMILES CC(=O)NCCNc1nc(Nc2ccccc2C)c2cnn(C)c2n1
REMARK SMILES IDX 7 1 6 3 5 4 4 5 2 6 1 7 3 8 8 10 9 11 25 12 10 13 24 14
REMARK SMILES IDX 19 15 22 16 20 17 21 18 23 19 11 20 12 22 13 23 17 24 14 25
REMARK SMILES IDX 16 26 15 27 18 28
REMARK H PARENT 7 2 4 9 11 21
ROOT
ATOM      1  N   UNL     1       5.416  45.629  55.012  1.00  0.00    -0.352 N 
ATOM      2  H   UNL     1       5.076  45.691  55.978  1.00  0.00     0.163 HD
ENDROOT
BRANCH   1   3
ATOM      3  C   UNL     1       5.946  46.869  54.469  1.00  0.00     0.137 C 
BRANCH   3   4
ATOM      4  C   UNL     1       7.470  46.951  54.673  1.00  0.00     0.137 C 
BRANCH   4   5
ATOM      5  N   UNL     1       8.238  46.649  53.471  1.00  0.00    -0.355 N 
ATOM      6  C   UNL     1       9.608  46.750  53.418  1.00  0.00     0.216 C 
ATOM      7  C   UNL     1      10.207  46.374  52.089  1.00  0.00     0.114 C 
ATOM      8  O   UNL     1      10.295  47.142  54.355  1.00  0.00    -0.275 OA
ATOM      9  H   UNL     1       7.734  46.358  52.644  1.00  0.00     0.163 HD
ENDBRANCH   4   5
ENDBRANCH   3   4
ENDBRANCH   1   3
BRANCH   1  10
ATOM     10  C   UNL     1       4.427  45.022  54.257  1.00  0.00     0.226 A 
ATOM     11  N   UNL     1       4.853  44.448  53.117  1.00  0.00    -0.195 NA
ATOM     12  N   UNL     1       3.158  45.041  54.694  1.00  0.00    -0.193 NA
ATOM     13  C   UNL     1       3.976  43.825  52.293  1.00  0.00     0.147 A 
ATOM     14  C   UNL     1       2.309  44.428  53.856  1.00  0.00     0.165 A 
ATOM     15  C   UNL     1       2.631  43.808  52.666  1.00  0.00     0.082 A 
ATOM     16  N   UNL     1       0.956  44.289  53.999  1.00  0.00    -0.250 N 
ATOM     17  C   UNL     1       1.400  43.325  52.176  1.00  0.00     0.149 A 
ATOM     18  N   UNL     1       0.371  43.607  52.986  1.00  0.00    -0.179 NA
ATOM     19  C   UNL     1       0.142  44.785  55.079  1.00  0.00     0.176 C 
BRANCH  13  20
ATOM     20  N   UNL     1       4.500  43.254  51.119  1.00  0.00    -0.339 N 
ATOM     21  H   UNL     1       3.731  43.269  50.448  1.00  0.00     0.168 HD
BRANCH  20  22
ATOM     22  C   UNL     1       5.715  43.634  50.509  1.00  0.00     0.043 A 
ATOM     23  C   UNL     1       6.181  44.934  50.750  1.00  0.00     0.026 A 
ATOM     24  C   UNL     1       6.499  42.752  49.740  1.00  0.00    -0.028 A 
ATOM     25  C   UNL     1       7.378  45.383  50.193  1.00  0.00     0.002 A 
ATOM     26  C   UNL     1       7.697  43.222  49.173  1.00  0.00     0.005 A 
ATOM     27  C   UNL     1       8.132  44.527  49.398  1.00  0.00     0.000 A 
ATOM     28  C   UNL     1       6.087  41.329  49.477  1.00  0.00     0.046 C 
ENDBRANCH  20  22
ENDBRANCH  13  20
ENDBRANCH   1  10
TORSDOF 6
ENDMDL
MODEL 18
REMARK VINA RESULT:    -7.899      2.722      4.526
REMARK INTER + INTRA:         -11.993
REMARK INTER:                 -10.802
REMARK INTRA:                  -1.191
REMARK UNBOUND:                -1.324
REMARK SMILES CC(=O)NCCNc1nc(Nc2ccccc2C)c2cnn(C)c2n1
REMARK SMILES IDX 7 1 6 3 5 4 4 5 2 6 1 7 3 8 8 10 9 11 25 12 10 13 24 14
REMARK SMILES IDX 19 15 22 16 20 17 21 18 23 19 11 20 12 22 13 23 17 24 14 25
REMARK SMILES IDX 16 26 15 27 18 28
REMARK H PARENT 7 2 4 9 11 21
ROOT
ATOM      1  N   UNL     1       3.084  42.293  52.579  1.00  0.00    -0.352 N 
ATOM      2  H   UNL     1       3.049  41.267  52.556  1.00  0.00     0.163 HD
ENDROOT
BRANCH   1   3
ATOM      3  C   UNL     1       1.815  42.954  52.327  1.00  0.00     0.137 C 
BRANCH   3   4
ATOM      4  C   UNL     1       1.304  43.664  53.594  1.00  0.00     0.137 C 
BRANCH   4   5
ATOM      5  N   UNL     1       2.359  44.302  54.374  1.00  0.00    -0.355 N 
ATOM      6  C   UNL     1       2.644  45.643  54.284  1.00  0.00     0.216 C 
ATOM      7  C   UNL     1       3.756  46.103  55.188  1.00  0.00     0.114 C 
ATOM      8  O   UNL     1       2.071  46.408  53.515  1.00  0.00    -0.275 OA
ATOM      9  H   UNL     1       2.902  43.723  55.001  1.00  0.00     0.163 HD
ENDBRANCH   4   5
ENDBRANCH   3   4
ENDBRANCH   1   3
BRANCH   1  10
ATOM     10  C   UNL     1       4.137  42.694  51.773  1.00  0.00     0.226 A 
ATOM     11  N   UNL     1       4.448  41.845  50.777  1.00  0.00    -0.195 NA
ATOM     12  N   UNL     1       4.752  43.860  52.026  1.00  0.00    -0.193 NA
ATOM     13  C   UNL     1       5.463  42.129  49.926  1.00  0.00     0.147 A 
ATOM     14  C   UNL     1       5.759  44.112  51.176  1.00  0.00     0.165 A 
ATOM     15  C   UNL     1       6.166  43.318  50.124  1.00  0.00     0.082 A 
ATOM     16  N   UNL     1       6.591  45.198  51.172  1.00  0.00    -0.250 N 
ATOM     17  C   UNL     1       7.245  44.021  49.549  1.00  0.00     0.149 A 
ATOM     18  N   UNL     1       7.509  45.174  50.177  1.00  0.00    -0.179 NA
ATOM     19  C   UNL     1       6.575  46.306  52.092  1.00  0.00     0.176 C 
BRANCH  13  20
ATOM     20  N   UNL     1       5.728  41.187  48.915  1.00  0.00    -0.339 N 
ATOM     21  H   UNL     1       5.652  40.277  49.370  1.00  0.00     0.168 HD
BRANCH  20  22
ATOM     22  C   UNL     1       5.115  41.173  47.643  1.00  0.00     0.043 A 
ATOM     23  C   UNL     1       5.718  41.930  46.627  1.00  0.00     0.026 A 
ATOM     24  C   UNL     1       3.986  40.389  47.340  1.00  0.00    -0.028 A 
ATOM     25  C   UNL     1       5.182  41.960  45.341  1.00  0.00     0.002 A 
ATOM     26  C   UNL     1       3.446  40.441  46.044  1.00  0.00     0.005 A 
ATOM     27  C   UNL     1       4.040  41.221  45.051  1.00  0.00     0.000 A 
ATOM     28  C   UNL     1       3.313  39.517  48.366  1.00  0.00     0.046 C 
ENDBRANCH  20  22
ENDBRANCH  13  20
ENDBRANCH   1  10
TORSDOF 6
ENDMDL
MODEL 19
REMARK VINA RESULT:    -7.793      2.532      6.048
REMARK INTER + INTRA:         -11.850
REMARK INTER:                 -10.997
REMARK INTRA:                  -0.853
REMARK UNBOUND:                -1.324
REMARK SMILES CC(=O)NCCNc1nc(Nc2ccccc2C)c2cnn(C)c2n1
REMARK SMILES IDX 7 1 6 3 5 4 4 5 2 6 1 7 3 8 8 10 9 11 25 12 10 13 24 14
REMARK SMILES IDX 19 15 22 16 20 17 21 18 23 19 11 20 12 22 13 23 17 24 14 25
REMARK SMILES IDX 16 26 15 27 18 28
REMARK H PARENT 7 2 4 9 11 21
ROOT
ATOM      1  N   UNL     1       5.356  46.632  52.493  1.00  0.00    -0.352 N 
ATOM      2  H   UNL     1       6.298  46.910  52.196  1.00  0.00     0.163 HD
ENDROOT
BRANCH   1   3
ATOM      3  C   UNL     1       5.060  46.873  53.895  1.00  0.00     0.137 C 
BRANCH   3   4
ATOM      4  C   UNL     1       6.348  46.867  54.738  1.00  0.00     0.137 C 
BRANCH   4   5
ATOM      5  N   UNL     1       7.566  46.737  53.946  1.00  0.00    -0.355 N 
ATOM      6  C   UNL     1       8.727  47.406  54.249  1.00  0.00     0.216 C 
ATOM      7  C   UNL     1       9.872  47.116  53.316  1.00  0.00     0.114 C 
ATOM      8  O   UNL     1       8.829  48.199  55.179  1.00  0.00    -0.275 OA
ATOM      9  H   UNL     1       7.544  46.130  53.137  1.00  0.00     0.163 HD
ENDBRANCH   4   5
ENDBRANCH   3   4
ENDBRANCH   1   3
BRANCH   1  10
ATOM     10  C   UNL     1       5.141  45.337  52.051  1.00  0.00     0.226 A 
ATOM     11  N   UNL     1       4.144  44.682  52.672  1.00  0.00    -0.195 NA
ATOM     12  N   UNL     1       5.910  44.840  51.069  1.00  0.00    -0.193 NA
ATOM     13  C   UNL     1       3.842  43.407  52.328  1.00  0.00     0.147 A 
ATOM     14  C   UNL     1       5.598  43.573  50.755  1.00  0.00     0.165 A 
ATOM     15  C   UNL     1       4.601  42.806  51.322  1.00  0.00     0.082 A 
ATOM     16  N   UNL     1       6.197  42.778  49.817  1.00  0.00    -0.250 N 
ATOM     17  C   UNL     1       4.682  41.570  50.649  1.00  0.00     0.149 A 
ATOM     18  N   UNL     1       5.649  41.544  49.722  1.00  0.00    -0.179 NA
ATOM     19  C   UNL     1       7.307  43.126  48.967  1.00  0.00     0.176 C 
BRANCH  13  20
ATOM     20  N   UNL     1       2.789  42.790  53.028  1.00  0.00    -0.339 N 
ATOM     21  H   UNL     1       3.108  42.733  53.995  1.00  0.00     0.168 HD
BRANCH  20  22
ATOM     22  C   UNL     1       1.435  43.184  52.961  1.00  0.00     0.043 A 
ATOM     23  C   UNL     1       0.666  42.678  51.903  1.00  0.00     0.026 A 
ATOM     24  C   UNL     1       0.819  43.992  53.936  1.00  0.00    -0.028 A 
ATOM     25  C   UNL     1      -0.681  43.009  51.772  1.00  0.00     0.002 A 
ATOM     26  C   UNL     1      -0.537  44.331  53.783  1.00  0.00     0.005 A 
ATOM     27  C   UNL     1      -1.281  43.843  52.709  1.00  0.00     0.000 A 
ATOM     28  C   UNL     1       1.568  44.533  55.124  1.00  0.00     0.046 C 
ENDBRANCH  20  22
ENDBRANCH  13  20
ENDBRANCH   1  10
TORSDOF 6
ENDMDL
MODEL 20
REMARK VINA RESULT:    -7.739      2.196      5.792
REMARK INTER + INTRA:         -11.777
REMARK INTER:                 -10.589
REMARK INTRA:                  -1.187
REMARK UNBOUND:                -1.324
REMARK SMILES CC(=O)NCCNc1nc(Nc2ccccc2C)c2cnn(C)c2n1
REMARK SMILES IDX 7 1 6 3 5 4 4 5 2 6 1 7 3 8 8 10 9 11 25 12 10 13 24 14
REMARK SMILES IDX 19 15 22 16 20 17 21 18 23 19 11 20 12 22 13 23 17 24 14 25
REMARK SMILES IDX 16 26 15 27 18 28
REMARK H PARENT 7 2 4 9 11 21
ROOT
ATOM      1  N   UNL     1       5.963  46.700  53.120  1.00  0.00    -0.352 N 
ATOM      2  H   UNL     1       6.416  47.358  52.476  1.00  0.00     0.163 HD
ENDROOT
BRANCH   1   3
ATOM      3  C   UNL     1       6.635  46.533  54.397  1.00  0.00     0.137 C 
BRANCH   3   4
ATOM      4  C   UNL     1       8.025  47.194  54.378  1.00  0.00     0.137 C 
BRANCH   4   5
ATOM      5  N   UNL     1       9.004  46.475  53.571  1.00  0.00    -0.355 N 
ATOM      6  C   UNL     1       9.330  46.847  52.288  1.00  0.00     0.216 C 
ATOM      7  C   UNL     1      10.377  45.983  51.639  1.00  0.00     0.114 C 
ATOM      8  O   UNL     1       8.798  47.781  51.698  1.00  0.00    -0.275 OA
ATOM      9  H   UNL     1       9.455  45.667  53.979  1.00  0.00     0.163 HD
ENDBRANCH   4   5
ENDBRANCH   3   4
ENDBRANCH   1   3
BRANCH   1  10
ATOM     10  C   UNL     1       5.712  45.532  52.419  1.00  0.00     0.226 A 
ATOM     11  N   UNL     1       4.647  44.830  52.845  1.00  0.00    -0.195 NA
ATOM     12  N   UNL     1       6.516  45.191  51.400  1.00  0.00    -0.193 NA
ATOM     13  C   UNL     1       4.305  43.668  52.239  1.00  0.00     0.147 A 
ATOM     14  C   UNL     1       6.162  44.031  50.824  1.00  0.00     0.165 A 
ATOM     15  C   UNL     1       5.094  43.230  51.175  1.00  0.00     0.082 A 
ATOM     16  N   UNL     1       6.779  43.400  49.779  1.00  0.00    -0.250 N 
ATOM     17  C   UNL     1       5.157  42.147  50.275  1.00  0.00     0.149 A 
ATOM     18  N   UNL     1       6.178  42.244  49.413  1.00  0.00    -0.179 NA
ATOM     19  C   UNL     1       7.956  43.839  49.074  1.00  0.00     0.176 C 
BRANCH  13  20
ATOM     20  N   UNL     1       3.180  42.992  52.747  1.00  0.00    -0.339 N 
ATOM     21  H   UNL     1       3.367  42.872  53.743  1.00  0.00     0.168 HD
BRANCH  20  22
ATOM     22  C   UNL     1       1.839  43.372  52.522  1.00  0.00     0.043 A 
ATOM     23  C   UNL     1       1.250  42.978  51.312  1.00  0.00     0.026 A 
ATOM     24  C   UNL     1       1.062  44.056  53.477  1.00  0.00    -0.028 A 
ATOM     25  C   UNL     1      -0.073  43.304  51.019  1.00  0.00     0.002 A 
ATOM     26  C   UNL     1      -0.266  44.391  53.162  1.00  0.00     0.005 A 
ATOM     27  C   UNL     1      -0.829  44.018  51.942  1.00  0.00     0.000 A 
ATOM     28  C   UNL     1       1.612  44.470  54.815  1.00  0.00     0.046 C 
ENDBRANCH  20  22
ENDBRANCH  13  20
ENDBRANCH   1  10
TORSDOF 6
ENDMDL
