MODEL 1
REMARK VINA RESULT:    -8.914      0.000      0.000
REMARK INTER + INTRA:         -13.056
REMARK INTER:                 -12.040
REMARK INTRA:                  -1.016
REMARK UNBOUND:                -1.016
REMARK SMILES CC(=O)NCCNc1nc(Nc2ccc(C)cc2Br)c2cnn(C)c2n1
REMARK SMILES IDX 7 1 6 3 5 4 4 5 2 6 1 7 3 8 8 10 9 11 26 12 10 13 25 14
REMARK SMILES IDX 20 15 23 16 21 17 22 18 24 19 11 20 12 22 13 23 18 24 14 25
REMARK SMILES IDX 17 26 15 27 19 28 16 29
REMARK H PARENT 7 2 4 9 11 21
ROOT
ATOM      1  N   UNL     1       4.742  46.780  55.188  1.00  0.00    -0.352 N 
ATOM      2  H   UNL     1       5.029  47.127  56.097  1.00  0.00     0.163 HD
ENDROOT
BRANCH   1   3
ATOM      3  C   UNL     1       3.904  45.592  55.217  1.00  0.00     0.137 C 
BRANCH   3   4
ATOM      4  C   UNL     1       2.544  45.825  54.546  1.00  0.00     0.137 C 
BRANCH   4   5
ATOM      5  N   UNL     1       2.623  45.691  53.097  1.00  0.00    -0.355 N 
ATOM      6  C   UNL     1       2.887  46.783  52.301  1.00  0.00     0.216 C 
ATOM      7  C   UNL     1       3.101  46.445  50.850  1.00  0.00     0.114 C 
ATOM      8  O   UNL     1       2.956  47.935  52.716  1.00  0.00    -0.275 OA
ATOM      9  H   UNL     1       2.882  44.783  52.733  1.00  0.00     0.163 HD
ENDBRANCH   4   5
ENDBRANCH   3   4
ENDBRANCH   1   3
BRANCH   1  10
ATOM     10  C   UNL     1       5.917  46.671  54.454  1.00  0.00     0.226 A 
ATOM     11  N   UNL     1       5.774  46.058  53.266  1.00  0.00    -0.195 NA
ATOM     12  N   UNL     1       7.060  47.168  54.944  1.00  0.00    -0.193 NA
ATOM     13  C   UNL     1       6.839  45.873  52.441  1.00  0.00     0.147 A 
ATOM     14  C   UNL     1       8.102  46.974  54.124  1.00  0.00     0.165 A 
ATOM     15  C   UNL     1       8.074  46.357  52.889  1.00  0.00     0.082 A 
ATOM     16  N   UNL     1       9.404  47.339  54.336  1.00  0.00    -0.250 N 
ATOM     17  C   UNL     1       9.409  46.418  52.439  1.00  0.00     0.149 A 
ATOM     18  N   UNL     1      10.226  47.021  53.309  1.00  0.00    -0.179 NA
ATOM     19  C   UNL     1       9.942  47.996  55.499  1.00  0.00     0.176 C 
BRANCH  13  20
ATOM     20  N   UNL     1       6.713  45.249  51.194  1.00  0.00    -0.339 N 
ATOM     21  H   UNL     1       7.186  45.731  50.438  1.00  0.00     0.168 HD
BRANCH  20  22
ATOM     22  C   UNL     1       6.050  44.084  50.759  1.00  0.00     0.054 A 
ATOM     23  C   UNL     1       4.832  43.651  51.295  1.00  0.00     0.027 A 
ATOM     24  C   UNL     1       6.609  43.302  49.726  1.00  0.00     0.041 A 
ATOM     25  C   UNL     1       4.196  42.494  50.825  1.00  0.00     0.005 A 
ATOM     26  C   UNL     1       5.979  42.147  49.250  1.00  0.00     0.021 A 
ATOM     27  C   UNL     1       4.756  41.741  49.791  1.00  0.00    -0.050 A 
ATOM     28  Br  UNL     1       8.270  43.791  48.926  1.00  0.00    -0.049 Br
ATOM     29  C   UNL     1       4.090  40.485  49.315  1.00  0.00     0.044 C 
ENDBRANCH  20  22
ENDBRANCH  13  20
ENDBRANCH   1  10
TORSDOF 6
ENDMDL
MODEL 2
REMARK VINA RESULT:    -8.798      1.930      5.662
REMARK INTER + INTRA:         -12.900
REMARK INTER:                 -11.572
REMARK INTRA:                  -1.328
REMARK UNBOUND:                -1.016
REMARK SMILES CC(=O)NCCNc1nc(Nc2ccc(C)cc2Br)c2cnn(C)c2n1
REMARK SMILES IDX 7 1 6 3 5 4 4 5 2 6 1 7 3 8 8 10 9 11 26 12 10 13 25 14
REMARK SMILES IDX 20 15 23 16 21 17 22 18 24 19 11 20 12 22 13 23 18 24 14 25
REMARK SMILES IDX 17 26 15 27 19 28 16 29
REMARK H PARENT 7 2 4 9 11 21
ROOT
ATOM      1  N   UNL     1       2.337  45.639  52.154  1.00  0.00    -0.352 N 
ATOM      2  H   UNL     1       2.658  46.550  52.466  1.00  0.00     0.163 HD
ENDROOT
BRANCH   1   3
ATOM      3  C   UNL     1       1.590  44.876  53.142  1.00  0.00     0.137 C 
BRANCH   3   4
ATOM      4  C   UNL     1       1.982  45.247  54.578  1.00  0.00     0.137 C 
BRANCH   4   5
ATOM      5  N   UNL     1       3.295  44.726  54.935  1.00  0.00    -0.355 N 
ATOM      6  C   UNL     1       4.356  45.577  55.155  1.00  0.00     0.216 C 
ATOM      7  C   UNL     1       5.591  44.892  55.677  1.00  0.00     0.114 C 
ATOM      8  O   UNL     1       4.318  46.786  54.959  1.00  0.00    -0.275 OA
ATOM      9  H   UNL     1       3.323  43.827  55.400  1.00  0.00     0.163 HD
ENDBRANCH   4   5
ENDBRANCH   3   4
ENDBRANCH   1   3
BRANCH   1  10
ATOM     10  C   UNL     1       3.466  45.014  51.639  1.00  0.00     0.226 A 
ATOM     11  N   UNL     1       4.576  45.772  51.658  1.00  0.00    -0.195 NA
ATOM     12  N   UNL     1       3.387  43.756  51.188  1.00  0.00    -0.193 NA
ATOM     13  C   UNL     1       5.757  45.297  51.179  1.00  0.00     0.147 A 
ATOM     14  C   UNL     1       4.556  43.301  50.714  1.00  0.00     0.165 A 
ATOM     15  C   UNL     1       5.753  43.989  50.680  1.00  0.00     0.082 A 
ATOM     16  N   UNL     1       4.807  42.073  50.166  1.00  0.00    -0.250 N 
ATOM     17  C   UNL     1       6.662  43.076  50.104  1.00  0.00     0.149 A 
ATOM     18  N   UNL     1       6.098  41.903  49.795  1.00  0.00    -0.179 NA
ATOM     19  C   UNL     1       3.863  41.005  49.960  1.00  0.00     0.176 C 
BRANCH  13  20
ATOM     20  N   UNL     1       6.929  46.062  51.200  1.00  0.00    -0.339 N 
ATOM     21  H   UNL     1       7.219  46.405  50.292  1.00  0.00     0.168 HD
BRANCH  20  22
ATOM     22  C   UNL     1       7.810  46.451  52.230  1.00  0.00     0.054 A 
ATOM     23  C   UNL     1       7.396  47.160  53.363  1.00  0.00     0.027 A 
ATOM     24  C   UNL     1       9.177  46.113  52.150  1.00  0.00     0.041 A 
ATOM     25  C   UNL     1       8.299  47.516  54.374  1.00  0.00     0.005 A 
ATOM     26  C   UNL     1      10.084  46.464  53.156  1.00  0.00     0.021 A 
ATOM     27  C   UNL     1       9.647  47.160  54.286  1.00  0.00    -0.050 A 
ATOM     28  Br  UNL     1       9.856  45.155  50.648  1.00  0.00    -0.049 Br
ATOM     29  C   UNL     1      10.616  47.573  55.352  1.00  0.00     0.044 C 
ENDBRANCH  20  22
ENDBRANCH  13  20
ENDBRANCH   1  10
TORSDOF 6
ENDMDL
MODEL 3
REMARK VINA RESULT:    -8.740      2.535      5.939
REMARK INTER + INTRA:         -12.822
REMARK INTER:                 -12.004
REMARK INTRA:                  -0.819
REMARK UNBOUND:                -1.016
REMARK SMILES CC(=O)NCCNc1nc(Nc2ccc(C)cc2Br)c2cnn(C)c2n1
REMARK SMILES IDX 7 1 6 3 5 4 4 5 2 6 1 7 3 8 8 10 9 11 26 12 10 13 25 14
REMARK SMILES IDX 20 15 23 16 21 17 22 18 24 19 11 20 12 22 13 23 18 24 14 25
REMARK SMILES IDX 17 26 15 27 19 28 16 29
REMARK H PARENT 7 2 4 9 11 21
ROOT
ATOM      1  N   UNL     1       2.675  43.798  52.439  1.00  0.00    -0.352 N 
ATOM      2  H   UNL     1       2.406  42.824  52.355  1.00  0.00     0.163 HD
ENDROOT
BRANCH   1   3
ATOM      3  C   UNL     1       1.646  44.757  52.069  1.00  0.00     0.137 C 
BRANCH   3   4
ATOM      4  C   UNL     1       1.606  45.960  53.021  1.00  0.00     0.137 C 
BRANCH   4   5
ATOM      5  N   UNL     1       0.844  45.672  54.229  1.00  0.00    -0.355 N 
ATOM      6  C   UNL     1       1.476  45.247  55.377  1.00  0.00     0.216 C 
ATOM      7  C   UNL     1       0.570  45.158  56.576  1.00  0.00     0.114 C 
ATOM      8  O   UNL     1       2.668  44.971  55.443  1.00  0.00    -0.275 OA
ATOM      9  H   UNL     1      -0.039  46.153  54.342  1.00  0.00     0.163 HD
ENDBRANCH   4   5
ENDBRANCH   3   4
ENDBRANCH   1   3
BRANCH   1  10
ATOM     10  C   UNL     1       3.874  43.905  51.746  1.00  0.00     0.226 A 
ATOM     11  N   UNL     1       4.578  45.016  52.021  1.00  0.00    -0.195 NA
ATOM     12  N   UNL     1       4.244  42.937  50.897  1.00  0.00    -0.193 NA
ATOM     13  C   UNL     1       5.769  45.260  51.413  1.00  0.00     0.147 A 
ATOM     14  C   UNL     1       5.417  43.192  50.300  1.00  0.00     0.165 A 
ATOM     15  C   UNL     1       6.219  44.297  50.502  1.00  0.00     0.082 A 
ATOM     16  N   UNL     1       6.059  42.421  49.370  1.00  0.00    -0.250 N 
ATOM     17  C   UNL     1       7.327  44.083  49.655  1.00  0.00     0.149 A 
ATOM     18  N   UNL     1       7.243  42.939  48.967  1.00  0.00    -0.179 NA
ATOM     19  C   UNL     1       5.605  41.173  48.814  1.00  0.00     0.176 C 
BRANCH  13  20
ATOM     20  N   UNL     1       6.526  46.404  51.694  1.00  0.00    -0.339 N 
ATOM     21  H   UNL     1       6.288  47.210  51.129  1.00  0.00     0.168 HD
BRANCH  20  22
ATOM     22  C   UNL     1       7.571  46.672  52.601  1.00  0.00     0.054 A 
ATOM     23  C   UNL     1       8.924  46.614  52.248  1.00  0.00     0.027 A 
ATOM     24  C   UNL     1       7.271  47.032  53.932  1.00  0.00     0.041 A 
ATOM     25  C   UNL     1       9.935  46.903  53.176  1.00  0.00     0.005 A 
ATOM     26  C   UNL     1       8.275  47.323  54.862  1.00  0.00     0.021 A 
ATOM     27  C   UNL     1       9.619  47.273  54.485  1.00  0.00    -0.050 A 
ATOM     28  Br  UNL     1       5.463  47.134  54.527  1.00  0.00    -0.049 Br
ATOM     29  C   UNL     1      10.704  47.547  55.482  1.00  0.00     0.044 C 
ENDBRANCH  20  22
ENDBRANCH  13  20
ENDBRANCH   1  10
TORSDOF 6
ENDMDL
MODEL 4
REMARK VINA RESULT:    -8.687      2.512      5.801
REMARK INTER + INTRA:         -12.751
REMARK INTER:                 -12.132
REMARK INTRA:                  -0.619
REMARK UNBOUND:                -1.016
REMARK SMILES CC(=O)NCCNc1nc(Nc2ccc(C)cc2Br)c2cnn(C)c2n1
REMARK SMILES IDX 7 1 6 3 5 4 4 5 2 6 1 7 3 8 8 10 9 11 26 12 10 13 25 14
REMARK SMILES IDX 20 15 23 16 21 17 22 18 24 19 11 20 12 22 13 23 18 24 14 25
REMARK SMILES IDX 17 26 15 27 19 28 16 29
REMARK H PARENT 7 2 4 9 11 21
ROOT
ATOM      1  N   UNL     1       4.368  45.814  55.808  1.00  0.00    -0.352 N 
ATOM      2  H   UNL     1       4.052  46.767  55.955  1.00  0.00     0.163 HD
ENDROOT
BRANCH   1   3
ATOM      3  C   UNL     1       5.749  45.683  55.370  1.00  0.00     0.137 C 
BRANCH   3   4
ATOM      4  C   UNL     1       6.266  46.959  54.693  1.00  0.00     0.137 C 
BRANCH   4   5
ATOM      5  N   UNL     1       7.498  46.721  53.952  1.00  0.00    -0.355 N 
ATOM      6  C   UNL     1       8.670  47.346  54.314  1.00  0.00     0.216 C 
ATOM      7  C   UNL     1       9.879  46.865  53.557  1.00  0.00     0.114 C 
ATOM      8  O   UNL     1       8.749  48.213  55.177  1.00  0.00    -0.275 OA
ATOM      9  H   UNL     1       7.579  45.837  53.467  1.00  0.00     0.163 HD
ENDBRANCH   4   5
ENDBRANCH   3   4
ENDBRANCH   1   3
BRANCH   1  10
ATOM     10  C   UNL     1       3.415  45.240  54.976  1.00  0.00     0.226 A 
ATOM     11  N   UNL     1       3.877  44.885  53.765  1.00  0.00    -0.195 NA
ATOM     12  N   UNL     1       2.160  45.073  55.413  1.00  0.00    -0.193 NA
ATOM     13  C   UNL     1       3.057  44.317  52.841  1.00  0.00     0.147 A 
ATOM     14  C   UNL     1       1.361  44.517  54.491  1.00  0.00     0.165 A 
ATOM     15  C   UNL     1       1.725  44.118  53.221  1.00  0.00     0.082 A 
ATOM     16  N   UNL     1       0.028  44.234  54.612  1.00  0.00    -0.250 N 
ATOM     17  C   UNL     1       0.537  43.596  52.667  1.00  0.00     0.149 A 
ATOM     18  N   UNL     1      -0.501  43.654  53.509  1.00  0.00    -0.179 NA
ATOM     19  C   UNL     1      -0.814  44.489  55.752  1.00  0.00     0.176 C 
BRANCH  13  20
ATOM     20  N   UNL     1       3.518  43.926  51.578  1.00  0.00    -0.339 N 
ATOM     21  H   UNL     1       2.806  43.522  50.982  1.00  0.00     0.168 HD
BRANCH  20  22
ATOM     22  C   UNL     1       4.783  43.968  50.956  1.00  0.00     0.054 A 
ATOM     23  C   UNL     1       5.600  45.104  50.961  1.00  0.00     0.027 A 
ATOM     24  C   UNL     1       5.281  42.823  50.301  1.00  0.00     0.041 A 
ATOM     25  C   UNL     1       6.859  45.102  50.344  1.00  0.00     0.005 A 
ATOM     26  C   UNL     1       6.537  42.813  49.684  1.00  0.00     0.021 A 
ATOM     27  C   UNL     1       7.343  43.954  49.713  1.00  0.00    -0.050 A 
ATOM     28  Br  UNL     1       4.251  41.220  50.223  1.00  0.00    -0.049 Br
ATOM     29  C   UNL     1       8.675  43.967  49.025  1.00  0.00     0.044 C 
ENDBRANCH  20  22
ENDBRANCH  13  20
ENDBRANCH   1  10
TORSDOF 6
ENDMDL
MODEL 5
REMARK VINA RESULT:    -8.671      1.310      1.520
REMARK INTER + INTRA:         -12.729
REMARK INTER:                 -11.846
REMARK INTRA:                  -0.883
REMARK UNBOUND:                -1.016
REMARK SMILES CC(=O)NCCNc1nc(Nc2ccc(C)cc2Br)c2cnn(C)c2n1
REMARK SMILES IDX 7 1 6 3 5 4 4 5 2 6 1 7 3 8 8 10 9 11 26 12 10 13 25 14
REMARK SMILES IDX 20 15 23 16 21 17 22 18 24 19 11 20 12 22 13 23 18 24 14 25
REMARK SMILES IDX 17 26 15 27 19 28 16 29
REMARK H PARENT 7 2 4 9 11 21
ROOT
ATOM      1  N   UNL     1       4.422  46.850  55.081  1.00  0.00    -0.352 N 
ATOM      2  H   UNL     1       4.634  47.543  55.791  1.00  0.00     0.163 HD
ENDROOT
BRANCH   1   3
ATOM      3  C   UNL     1       3.840  45.614  55.579  1.00  0.00     0.137 C 
BRANCH   3   4
ATOM      4  C   UNL     1       2.305  45.648  55.561  1.00  0.00     0.137 C 
BRANCH   4   5
ATOM      5  N   UNL     1       1.739  44.366  55.162  1.00  0.00    -0.355 N 
ATOM      6  C   UNL     1       1.483  44.090  53.837  1.00  0.00     0.216 C 
ATOM      7  C   UNL     1       1.060  42.668  53.580  1.00  0.00     0.114 C 
ATOM      8  O   UNL     1       1.593  44.908  52.931  1.00  0.00    -0.275 OA
ATOM      9  H   UNL     1       1.912  43.577  55.771  1.00  0.00     0.163 HD
ENDBRANCH   4   5
ENDBRANCH   3   4
ENDBRANCH   1   3
BRANCH   1  10
ATOM     10  C   UNL     1       5.594  46.711  54.348  1.00  0.00     0.226 A 
ATOM     11  N   UNL     1       5.455  46.016  53.205  1.00  0.00    -0.195 NA
ATOM     12  N   UNL     1       6.731  47.260  54.795  1.00  0.00    -0.193 NA
ATOM     13  C   UNL     1       6.517  45.793  52.387  1.00  0.00     0.147 A 
ATOM     14  C   UNL     1       7.772  47.029  53.982  1.00  0.00     0.165 A 
ATOM     15  C   UNL     1       7.746  46.328  52.792  1.00  0.00     0.082 A 
ATOM     16  N   UNL     1       9.068  47.429  54.159  1.00  0.00    -0.250 N 
ATOM     17  C   UNL     1       9.078  46.381  52.329  1.00  0.00     0.149 A 
ATOM     18  N   UNL     1       9.890  47.056  53.150  1.00  0.00    -0.179 NA
ATOM     19  C   UNL     1       9.602  48.173  55.271  1.00  0.00     0.176 C 
BRANCH  13  20
ATOM     20  N   UNL     1       6.395  45.084  51.186  1.00  0.00    -0.339 N 
ATOM     21  H   UNL     1       6.910  45.486  50.412  1.00  0.00     0.168 HD
BRANCH  20  22
ATOM     22  C   UNL     1       5.689  43.920  50.819  1.00  0.00     0.054 A 
ATOM     23  C   UNL     1       4.465  43.556  51.390  1.00  0.00     0.027 A 
ATOM     24  C   UNL     1       6.209  43.070  49.822  1.00  0.00     0.041 A 
ATOM     25  C   UNL     1       3.785  42.398  50.987  1.00  0.00     0.005 A 
ATOM     26  C   UNL     1       5.535  41.913  49.413  1.00  0.00     0.021 A 
ATOM     27  C   UNL     1       4.307  41.576  49.987  1.00  0.00    -0.050 A 
ATOM     28  Br  UNL     1       7.874  43.462  48.979  1.00  0.00    -0.049 Br
ATOM     29  C   UNL     1       3.594  40.320  49.584  1.00  0.00     0.044 C 
ENDBRANCH  20  22
ENDBRANCH  13  20
ENDBRANCH   1  10
TORSDOF 6
ENDMDL
MODEL 6
REMARK VINA RESULT:    -8.668      3.227      7.009
REMARK INTER + INTRA:         -12.725
REMARK INTER:                 -11.541
REMARK INTRA:                  -1.184
REMARK UNBOUND:                -1.016
REMARK SMILES CC(=O)NCCNc1nc(Nc2ccc(C)cc2Br)c2cnn(C)c2n1
REMARK SMILES IDX 7 1 6 3 5 4 4 5 2 6 1 7 3 8 8 10 9 11 26 12 10 13 25 14
REMARK SMILES IDX 20 15 23 16 21 17 22 18 24 19 11 20 12 22 13 23 18 24 14 25
REMARK SMILES IDX 17 26 15 27 19 28 16 29
REMARK H PARENT 7 2 4 9 11 21
ROOT
ATOM      1  N   UNL     1       4.109  41.455  51.013  1.00  0.00    -0.352 N 
ATOM      2  H   UNL     1       5.109  41.600  51.114  1.00  0.00     0.163 HD
ENDROOT
BRANCH   1   3
ATOM      3  C   UNL     1       3.694  40.889  49.739  1.00  0.00     0.137 C 
BRANCH   3   4
ATOM      4  C   UNL     1       4.844  40.843  48.723  1.00  0.00     0.137 C 
BRANCH   4   5
ATOM      5  N   UNL     1       5.656  42.052  48.767  1.00  0.00    -0.355 N 
ATOM      6  C   UNL     1       6.840  42.081  49.471  1.00  0.00     0.216 C 
ATOM      7  C   UNL     1       7.635  43.344  49.276  1.00  0.00     0.114 C 
ATOM      8  O   UNL     1       7.234  41.170  50.190  1.00  0.00    -0.275 OA
ATOM      9  H   UNL     1       5.567  42.694  47.990  1.00  0.00     0.163 HD
ENDBRANCH   4   5
ENDBRANCH   3   4
ENDBRANCH   1   3
BRANCH   1  10
ATOM     10  C   UNL     1       3.530  42.673  51.348  1.00  0.00     0.226 A 
ATOM     11  N   UNL     1       4.385  43.710  51.356  1.00  0.00    -0.195 NA
ATOM     12  N   UNL     1       2.220  42.738  51.618  1.00  0.00    -0.193 NA
ATOM     13  C   UNL     1       3.964  44.963  51.673  1.00  0.00     0.147 A 
ATOM     14  C   UNL     1       1.818  43.977  51.933  1.00  0.00     0.165 A 
ATOM     15  C   UNL     1       2.605  45.111  51.978  1.00  0.00     0.082 A 
ATOM     16  N   UNL     1       0.556  44.377  52.280  1.00  0.00    -0.250 N 
ATOM     17  C   UNL     1       1.713  46.140  52.348  1.00  0.00     0.149 A 
ATOM     18  N   UNL     1       0.461  45.705  52.526  1.00  0.00    -0.179 NA
ATOM     19  C   UNL     1      -0.615  43.548  52.399  1.00  0.00     0.176 C 
BRANCH  13  20
ATOM     20  N   UNL     1       4.832  46.061  51.675  1.00  0.00    -0.339 N 
ATOM     21  H   UNL     1       4.484  46.868  51.171  1.00  0.00     0.168 HD
BRANCH  20  22
ATOM     22  C   UNL     1       6.109  46.281  52.229  1.00  0.00     0.054 A 
ATOM     23  C   UNL     1       7.295  46.133  51.501  1.00  0.00     0.027 A 
ATOM     24  C   UNL     1       6.230  46.686  53.575  1.00  0.00     0.041 A 
ATOM     25  C   UNL     1       8.546  46.376  52.084  1.00  0.00     0.005 A 
ATOM     26  C   UNL     1       7.476  46.932  54.163  1.00  0.00     0.021 A 
ATOM     27  C   UNL     1       8.647  46.791  53.413  1.00  0.00    -0.050 A 
ATOM     28  Br  UNL     1       4.683  46.913  54.666  1.00  0.00    -0.049 Br
ATOM     29  C   UNL     1       9.989  47.017  54.042  1.00  0.00     0.044 C 
ENDBRANCH  20  22
ENDBRANCH  13  20
ENDBRANCH   1  10
TORSDOF 6
ENDMDL
MODEL 7
REMARK VINA RESULT:    -8.573      3.375      7.268
REMARK INTER + INTRA:         -12.596
REMARK INTER:                 -11.819
REMARK INTRA:                  -0.778
REMARK UNBOUND:                -1.016
REMARK SMILES CC(=O)NCCNc1nc(Nc2ccc(C)cc2Br)c2cnn(C)c2n1
REMARK SMILES IDX 7 1 6 3 5 4 4 5 2 6 1 7 3 8 8 10 9 11 26 12 10 13 25 14
REMARK SMILES IDX 20 15 23 16 21 17 22 18 24 19 11 20 12 22 13 23 18 24 14 25
REMARK SMILES IDX 17 26 15 27 19 28 16 29
REMARK H PARENT 7 2 4 9 11 21
ROOT
ATOM      1  N   UNL     1       5.648  41.559  50.545  1.00  0.00    -0.352 N 
ATOM      2  H   UNL     1       6.303  41.446  51.312  1.00  0.00     0.163 HD
ENDROOT
BRANCH   1   3
ATOM      3  C   UNL     1       6.240  41.516  49.218  1.00  0.00     0.137 C 
BRANCH   3   4
ATOM      4  C   UNL     1       5.216  41.138  48.139  1.00  0.00     0.137 C 
BRANCH   4   5
ATOM      5  N   UNL     1       5.658  41.532  46.808  1.00  0.00    -0.355 N 
ATOM      6  C   UNL     1       4.805  41.453  45.729  1.00  0.00     0.216 C 
ATOM      7  C   UNL     1       5.360  42.054  44.466  1.00  0.00     0.114 C 
ATOM      8  O   UNL     1       3.687  40.953  45.773  1.00  0.00    -0.275 OA
ATOM      9  H   UNL     1       6.406  42.211  46.754  1.00  0.00     0.163 HD
ENDBRANCH   4   5
ENDBRANCH   3   4
ENDBRANCH   1   3
BRANCH   1  10
ATOM     10  C   UNL     1       4.929  42.709  50.848  1.00  0.00     0.226 A 
ATOM     11  N   UNL     1       5.688  43.801  51.044  1.00  0.00    -0.195 NA
ATOM     12  N   UNL     1       3.592  42.664  50.910  1.00  0.00    -0.193 NA
ATOM     13  C   UNL     1       5.124  44.999  51.354  1.00  0.00     0.147 A 
ATOM     14  C   UNL     1       3.049  43.850  51.222  1.00  0.00     0.165 A 
ATOM     15  C   UNL     1       3.727  45.031  51.448  1.00  0.00     0.082 A 
ATOM     16  N   UNL     1       1.722  44.137  51.385  1.00  0.00    -0.250 N 
ATOM     17  C   UNL     1       2.710  45.969  51.725  1.00  0.00     0.149 A 
ATOM     18  N   UNL     1       1.484  45.436  51.681  1.00  0.00    -0.179 NA
ATOM     19  C   UNL     1       0.616  43.221  51.275  1.00  0.00     0.176 C 
BRANCH  13  20
ATOM     20  N   UNL     1       5.891  46.153  51.550  1.00  0.00    -0.339 N 
ATOM     21  H   UNL     1       5.587  46.953  51.007  1.00  0.00     0.168 HD
BRANCH  20  22
ATOM     22  C   UNL     1       7.019  46.440  52.345  1.00  0.00     0.054 A 
ATOM     23  C   UNL     1       8.332  46.365  51.867  1.00  0.00     0.027 A 
ATOM     24  C   UNL     1       6.848  46.839  53.687  1.00  0.00     0.041 A 
ATOM     25  C   UNL     1       9.427  46.673  52.685  1.00  0.00     0.005 A 
ATOM     26  C   UNL     1       7.937  47.150  54.509  1.00  0.00     0.021 A 
ATOM     27  C   UNL     1       9.239  47.081  54.007  1.00  0.00    -0.050 A 
ATOM     28  Br  UNL     1       5.105  46.969  54.450  1.00  0.00    -0.049 Br
ATOM     29  C   UNL     1      10.415  47.377  54.889  1.00  0.00     0.044 C 
ENDBRANCH  20  22
ENDBRANCH  13  20
ENDBRANCH   1  10
TORSDOF 6
ENDMDL
MODEL 8
REMARK VINA RESULT:    -8.545      2.154      5.808
REMARK INTER + INTRA:         -12.558
REMARK INTER:                 -11.574
REMARK INTRA:                  -0.985
REMARK UNBOUND:                -1.016
REMARK SMILES CC(=O)NCCNc1nc(Nc2ccc(C)cc2Br)c2cnn(C)c2n1
REMARK SMILES IDX 7 1 6 3 5 4 4 5 2 6 1 7 3 8 8 10 9 11 26 12 10 13 25 14
REMARK SMILES IDX 20 15 23 16 21 17 22 18 24 19 11 20 12 22 13 23 18 24 14 25
REMARK SMILES IDX 17 26 15 27 19 28 16 29
REMARK H PARENT 7 2 4 9 11 21
ROOT
ATOM      1  N   UNL     1       3.446  43.849  53.109  1.00  0.00    -0.352 N 
ATOM      2  H   UNL     1       3.558  42.949  53.565  1.00  0.00     0.163 HD
ENDROOT
BRANCH   1   3
ATOM      3  C   UNL     1       2.115  44.114  52.586  1.00  0.00     0.137 C 
BRANCH   3   4
ATOM      4  C   UNL     1       1.587  45.490  53.015  1.00  0.00     0.137 C 
BRANCH   4   5
ATOM      5  N   UNL     1       0.776  45.408  54.223  1.00  0.00    -0.355 N 
ATOM      6  C   UNL     1       1.359  45.465  55.470  1.00  0.00     0.216 C 
ATOM      7  C   UNL     1       0.372  45.537  56.604  1.00  0.00     0.114 C 
ATOM      8  O   UNL     1       2.570  45.467  55.662  1.00  0.00    -0.275 OA
ATOM      9  H   UNL     1      -0.187  45.711  54.152  1.00  0.00     0.163 HD
ENDBRANCH   4   5
ENDBRANCH   3   4
ENDBRANCH   1   3
BRANCH   1  10
ATOM     10  C   UNL     1       4.481  43.920  52.185  1.00  0.00     0.226 A 
ATOM     11  N   UNL     1       5.306  44.968  52.356  1.00  0.00    -0.195 NA
ATOM     12  N   UNL     1       4.596  42.982  51.237  1.00  0.00    -0.193 NA
ATOM     13  C   UNL     1       6.361  45.171  51.523  1.00  0.00     0.147 A 
ATOM     14  C   UNL     1       5.637  43.197  50.419  1.00  0.00     0.165 A 
ATOM     15  C   UNL     1       6.542  44.236  50.497  1.00  0.00     0.082 A 
ATOM     16  N   UNL     1       6.016  42.442  49.343  1.00  0.00    -0.250 N 
ATOM     17  C   UNL     1       7.433  44.002  49.427  1.00  0.00     0.149 A 
ATOM     18  N   UNL     1       7.126  42.907  48.723  1.00  0.00    -0.179 NA
ATOM     19  C   UNL     1       5.366  41.259  48.840  1.00  0.00     0.176 C 
BRANCH  13  20
ATOM     20  N   UNL     1       7.242  46.247  51.688  1.00  0.00    -0.339 N 
ATOM     21  H   UNL     1       7.311  46.856  50.882  1.00  0.00     0.168 HD
BRANCH  20  22
ATOM     22  C   UNL     1       8.071  46.662  52.750  1.00  0.00     0.054 A 
ATOM     23  C   UNL     1       7.581  47.280  53.906  1.00  0.00     0.027 A 
ATOM     24  C   UNL     1       9.463  46.445  52.680  1.00  0.00     0.041 A 
ATOM     25  C   UNL     1       8.437  47.665  54.948  1.00  0.00     0.005 A 
ATOM     26  C   UNL     1      10.322  46.825  53.717  1.00  0.00     0.021 A 
ATOM     27  C   UNL     1       9.811  47.428  54.868  1.00  0.00    -0.050 A 
ATOM     28  Br  UNL     1      10.243  45.619  51.149  1.00  0.00    -0.049 Br
ATOM     29  C   UNL     1      10.726  47.873  55.969  1.00  0.00     0.044 C 
ENDBRANCH  20  22
ENDBRANCH  13  20
ENDBRANCH   1  10
TORSDOF 6
ENDMDL
MODEL 9
REMARK VINA RESULT:    -8.492      3.026      6.886
REMARK INTER + INTRA:         -12.486
REMARK INTER:                 -11.675
REMARK INTRA:                  -0.811
REMARK UNBOUND:                -1.016
REMARK SMILES CC(=O)NCCNc1nc(Nc2ccc(C)cc2Br)c2cnn(C)c2n1
REMARK SMILES IDX 7 1 6 3 5 4 4 5 2 6 1 7 3 8 8 10 9 11 26 12 10 13 25 14
REMARK SMILES IDX 20 15 23 16 21 17 22 18 24 19 11 20 12 22 13 23 18 24 14 25
REMARK SMILES IDX 17 26 15 27 19 28 16 29
REMARK H PARENT 7 2 4 9 11 21
ROOT
ATOM      1  N   UNL     1       5.119  41.827  50.448  1.00  0.00    -0.352 N 
ATOM      2  H   UNL     1       5.391  41.329  51.290  1.00  0.00     0.163 HD
ENDROOT
BRANCH   1   3
ATOM      3  C   UNL     1       6.035  41.689  49.327  1.00  0.00     0.137 C 
BRANCH   3   4
ATOM      4  C   UNL     1       5.356  41.072  48.097  1.00  0.00     0.137 C 
BRANCH   4   5
ATOM      5  N   UNL     1       5.711  41.774  46.870  1.00  0.00    -0.355 N 
ATOM      6  C   UNL     1       5.038  41.525  45.695  1.00  0.00     0.216 C 
ATOM      7  C   UNL     1       5.412  42.451  44.568  1.00  0.00     0.114 C 
ATOM      8  O   UNL     1       4.200  40.641  45.557  1.00  0.00    -0.275 OA
ATOM      9  H   UNL     1       6.140  42.685  46.970  1.00  0.00     0.163 HD
ENDBRANCH   4   5
ENDBRANCH   3   4
ENDBRANCH   1   3
BRANCH   1  10
ATOM     10  C   UNL     1       4.865  43.129  50.862  1.00  0.00     0.226 A 
ATOM     11  N   UNL     1       5.951  43.919  50.905  1.00  0.00    -0.195 NA
ATOM     12  N   UNL     1       3.615  43.501  51.167  1.00  0.00    -0.193 NA
ATOM     13  C   UNL     1       5.858  45.217  51.298  1.00  0.00     0.147 A 
ATOM     14  C   UNL     1       3.537  44.781  51.558  1.00  0.00     0.165 A 
ATOM     15  C   UNL     1       4.582  45.679  51.643  1.00  0.00     0.082 A 
ATOM     16  N   UNL     1       2.418  45.460  51.956  1.00  0.00    -0.250 N 
ATOM     17  C   UNL     1       3.977  46.874  52.089  1.00  0.00     0.149 A 
ATOM     18  N   UNL     1       2.658  46.754  52.274  1.00  0.00    -0.179 NA
ATOM     19  C   UNL     1       1.079  44.941  52.059  1.00  0.00     0.176 C 
BRANCH  13  20
ATOM     20  N   UNL     1       6.971  46.064  51.337  1.00  0.00    -0.339 N 
ATOM     21  H   UNL     1       7.213  46.476  50.444  1.00  0.00     0.168 HD
BRANCH  20  22
ATOM     22  C   UNL     1       7.846  46.462  52.369  1.00  0.00     0.054 A 
ATOM     23  C   UNL     1       7.420  47.153  53.509  1.00  0.00     0.027 A 
ATOM     24  C   UNL     1       9.219  46.152  52.284  1.00  0.00     0.041 A 
ATOM     25  C   UNL     1       8.318  47.518  54.521  1.00  0.00     0.005 A 
ATOM     26  C   UNL     1      10.121  46.512  53.291  1.00  0.00     0.021 A 
ATOM     27  C   UNL     1       9.672  47.189  54.427  1.00  0.00    -0.050 A 
ATOM     28  Br  UNL     1       9.915  45.220  50.772  1.00  0.00    -0.049 Br
ATOM     29  C   UNL     1      10.635  47.612  55.496  1.00  0.00     0.044 C 
ENDBRANCH  20  22
ENDBRANCH  13  20
ENDBRANCH   1  10
TORSDOF 6
ENDMDL
MODEL 10
REMARK VINA RESULT:    -8.293      3.057      6.122
REMARK INTER + INTRA:         -12.218
REMARK INTER:                 -11.347
REMARK INTRA:                  -0.872
REMARK UNBOUND:                -1.016
REMARK SMILES CC(=O)NCCNc1nc(Nc2ccc(C)cc2Br)c2cnn(C)c2n1
REMARK SMILES IDX 7 1 6 3 5 4 4 5 2 6 1 7 3 8 8 10 9 11 26 12 10 13 25 14
REMARK SMILES IDX 20 15 23 16 21 17 22 18 24 19 11 20 12 22 13 23 18 24 14 25
REMARK SMILES IDX 17 26 15 27 19 28 16 29
REMARK H PARENT 7 2 4 9 11 21
ROOT
ATOM      1  N   UNL     1       2.690  43.149  53.072  1.00  0.00    -0.352 N 
ATOM      2  H   UNL     1       1.950  42.749  52.504  1.00  0.00     0.163 HD
ENDROOT
BRANCH   1   3
ATOM      3  C   UNL     1       2.299  44.295  53.877  1.00  0.00     0.137 C 
BRANCH   3   4
ATOM      4  C   UNL     1       0.850  44.190  54.370  1.00  0.00     0.137 C 
BRANCH   4   5
ATOM      5  N   UNL     1      -0.081  43.954  53.274  1.00  0.00    -0.355 N 
ATOM      6  C   UNL     1      -0.578  42.693  53.028  1.00  0.00     0.216 C 
ATOM      7  C   UNL     1      -1.651  42.653  51.973  1.00  0.00     0.114 C 
ATOM      8  O   UNL     1      -0.201  41.682  53.610  1.00  0.00    -0.275 OA
ATOM      9  H   UNL     1      -0.649  44.737  52.976  1.00  0.00     0.163 HD
ENDBRANCH   4   5
ENDBRANCH   3   4
ENDBRANCH   1   3
BRANCH   1  10
ATOM     10  C   UNL     1       3.747  43.361  52.194  1.00  0.00     0.226 A 
ATOM     11  N   UNL     1       4.408  44.514  52.391  1.00  0.00    -0.195 NA
ATOM     12  N   UNL     1       4.035  42.444  51.262  1.00  0.00    -0.193 NA
ATOM     13  C   UNL     1       5.461  44.861  51.604  1.00  0.00     0.147 A 
ATOM     14  C   UNL     1       5.071  42.800  50.489  1.00  0.00     0.165 A 
ATOM     15  C   UNL     1       5.818  43.956  50.597  1.00  0.00     0.082 A 
ATOM     16  N   UNL     1       5.600  42.102  49.438  1.00  0.00    -0.250 N 
ATOM     17  C   UNL     1       6.780  43.845  49.570  1.00  0.00     0.149 A 
ATOM     18  N   UNL     1       6.662  42.716  48.864  1.00  0.00    -0.179 NA
ATOM     19  C   UNL     1       5.147  40.837  48.920  1.00  0.00     0.176 C 
BRANCH  13  20
ATOM     20  N   UNL     1       6.174  46.050  51.797  1.00  0.00    -0.339 N 
ATOM     21  H   UNL     1       5.844  46.828  51.238  1.00  0.00     0.168 HD
BRANCH  20  22
ATOM     22  C   UNL     1       7.274  46.396  52.608  1.00  0.00     0.054 A 
ATOM     23  C   UNL     1       8.602  46.293  52.180  1.00  0.00     0.027 A 
ATOM     24  C   UNL     1       7.057  46.886  53.913  1.00  0.00     0.041 A 
ATOM     25  C   UNL     1       9.669  46.662  53.011  1.00  0.00     0.005 A 
ATOM     26  C   UNL     1       8.117  47.258  54.747  1.00  0.00     0.021 A 
ATOM     27  C   UNL     1       9.435  47.160  54.295  1.00  0.00    -0.050 A 
ATOM     28  Br  UNL     1       5.289  47.062  54.606  1.00  0.00    -0.049 Br
ATOM     29  C   UNL     1      10.580  47.521  55.193  1.00  0.00     0.044 C 
ENDBRANCH  20  22
ENDBRANCH  13  20
ENDBRANCH   1  10
TORSDOF 6
ENDMDL
MODEL 11
REMARK VINA RESULT:    -8.259      3.189      6.494
REMARK INTER + INTRA:         -12.172
REMARK INTER:                 -11.543
REMARK INTRA:                  -0.629
REMARK UNBOUND:                -1.016
REMARK SMILES CC(=O)NCCNc1nc(Nc2ccc(C)cc2Br)c2cnn(C)c2n1
REMARK SMILES IDX 7 1 6 3 5 4 4 5 2 6 1 7 3 8 8 10 9 11 26 12 10 13 25 14
REMARK SMILES IDX 20 15 23 16 21 17 22 18 24 19 11 20 12 22 13 23 18 24 14 25
REMARK SMILES IDX 17 26 15 27 19 28 16 29
REMARK H PARENT 7 2 4 9 11 21
ROOT
ATOM      1  N   UNL     1       5.141  46.901  52.542  1.00  0.00    -0.352 N 
ATOM      2  H   UNL     1       5.953  47.130  51.978  1.00  0.00     0.163 HD
ENDROOT
BRANCH   1   3
ATOM      3  C   UNL     1       5.268  47.204  53.959  1.00  0.00     0.137 C 
BRANCH   3   4
ATOM      4  C   UNL     1       6.436  46.449  54.609  1.00  0.00     0.137 C 
BRANCH   4   5
ATOM      5  N   UNL     1       7.631  46.477  53.776  1.00  0.00    -0.355 N 
ATOM      6  C   UNL     1       8.720  47.243  54.130  1.00  0.00     0.216 C 
ATOM      7  C   UNL     1       9.928  47.029  53.258  1.00  0.00     0.114 C 
ATOM      8  O   UNL     1       8.730  48.029  55.071  1.00  0.00    -0.275 OA
ATOM      9  H   UNL     1       7.809  45.664  53.200  1.00  0.00     0.163 HD
ENDBRANCH   4   5
ENDBRANCH   3   4
ENDBRANCH   1   3
BRANCH   1  10
ATOM     10  C   UNL     1       4.844  45.579  52.232  1.00  0.00     0.226 A 
ATOM     11  N   UNL     1       3.786  45.079  52.891  1.00  0.00    -0.195 NA
ATOM     12  N   UNL     1       5.587  44.922  51.332  1.00  0.00    -0.193 NA
ATOM     13  C   UNL     1       3.381  43.796  52.696  1.00  0.00     0.147 A 
ATOM     14  C   UNL     1       5.181  43.657  51.152  1.00  0.00     0.165 A 
ATOM     15  C   UNL     1       4.115  43.039  51.775  1.00  0.00     0.082 A 
ATOM     16  N   UNL     1       5.735  42.718  50.325  1.00  0.00    -0.250 N 
ATOM     17  C   UNL     1       4.108  41.733  51.239  1.00  0.00     0.149 A 
ATOM     18  N   UNL     1       5.085  41.530  50.348  1.00  0.00    -0.179 NA
ATOM     19  C   UNL     1       6.888  42.879  49.479  1.00  0.00     0.176 C 
BRANCH  13  20
ATOM     20  N   UNL     1       2.274  43.256  53.361  1.00  0.00    -0.339 N 
ATOM     21  H   UNL     1       2.151  42.260  53.224  1.00  0.00     0.168 HD
BRANCH  20  22
ATOM     22  C   UNL     1       1.274  43.814  54.183  1.00  0.00     0.054 A 
ATOM     23  C   UNL     1       1.558  44.586  55.315  1.00  0.00     0.027 A 
ATOM     24  C   UNL     1      -0.086  43.616  53.868  1.00  0.00     0.041 A 
ATOM     25  C   UNL     1       0.536  45.138  56.099  1.00  0.00     0.005 A 
ATOM     26  C   UNL     1      -1.112  44.165  54.645  1.00  0.00     0.021 A 
ATOM     27  C   UNL     1      -0.806  44.944  55.764  1.00  0.00    -0.050 A 
ATOM     28  Br  UNL     1      -0.592  42.574  52.353  1.00  0.00    -0.049 Br
ATOM     29  C   UNL     1      -1.896  45.507  56.625  1.00  0.00     0.044 C 
ENDBRANCH  20  22
ENDBRANCH  13  20
ENDBRANCH   1  10
TORSDOF 6
ENDMDL
MODEL 12
REMARK VINA RESULT:    -8.250      3.131      6.856
REMARK INTER + INTRA:         -12.160
REMARK INTER:                 -11.322
REMARK INTRA:                  -0.838
REMARK UNBOUND:                -1.016
REMARK SMILES CC(=O)NCCNc1nc(Nc2ccc(C)cc2Br)c2cnn(C)c2n1
REMARK SMILES IDX 7 1 6 3 5 4 4 5 2 6 1 7 3 8 8 10 9 11 26 12 10 13 25 14
REMARK SMILES IDX 20 15 23 16 21 17 22 18 24 19 11 20 12 22 13 23 18 24 14 25
REMARK SMILES IDX 17 26 15 27 19 28 16 29
REMARK H PARENT 7 2 4 9 11 21
ROOT
ATOM      1  N   UNL     1       3.565  41.267  50.825  1.00  0.00    -0.352 N 
ATOM      2  H   UNL     1       3.749  40.622  51.586  1.00  0.00     0.163 HD
ENDROOT
BRANCH   1   3
ATOM      3  C   UNL     1       4.540  41.244  49.747  1.00  0.00     0.137 C 
BRANCH   3   4
ATOM      4  C   UNL     1       4.022  40.494  48.512  1.00  0.00     0.137 C 
BRANCH   4   5
ATOM      5  N   UNL     1       4.789  40.819  47.317  1.00  0.00    -0.355 N 
ATOM      6  C   UNL     1       4.164  40.981  46.100  1.00  0.00     0.216 C 
ATOM      7  C   UNL     1       5.073  41.478  45.008  1.00  0.00     0.114 C 
ATOM      8  O   UNL     1       2.976  40.755  45.903  1.00  0.00    -0.275 OA
ATOM      9  H   UNL     1       5.666  41.306  47.451  1.00  0.00     0.163 HD
ENDBRANCH   4   5
ENDBRANCH   3   4
ENDBRANCH   1   3
BRANCH   1  10
ATOM     10  C   UNL     1       3.368  42.500  51.434  1.00  0.00     0.226 A 
ATOM     11  N   UNL     1       4.301  43.421  51.136  1.00  0.00    -0.195 NA
ATOM     12  N   UNL     1       2.310  42.691  52.232  1.00  0.00    -0.193 NA
ATOM     13  C   UNL     1       4.244  44.673  51.663  1.00  0.00     0.147 A 
ATOM     14  C   UNL     1       2.268  43.927  52.750  1.00  0.00     0.165 A 
ATOM     15  C   UNL     1       3.169  44.947  52.518  1.00  0.00     0.082 A 
ATOM     16  N   UNL     1       1.336  44.433  53.614  1.00  0.00    -0.250 N 
ATOM     17  C   UNL     1       2.676  46.027  53.280  1.00  0.00     0.149 A 
ATOM     18  N   UNL     1       1.555  45.727  53.945  1.00  0.00    -0.179 NA
ATOM     19  C   UNL     1       0.203  43.740  54.171  1.00  0.00     0.176 C 
BRANCH  13  20
ATOM     20  N   UNL     1       5.196  45.652  51.357  1.00  0.00    -0.339 N 
ATOM     21  H   UNL     1       5.014  46.154  50.496  1.00  0.00     0.168 HD
BRANCH  20  22
ATOM     22  C   UNL     1       6.374  46.088  51.996  1.00  0.00     0.054 A 
ATOM     23  C   UNL     1       6.372  46.804  53.199  1.00  0.00     0.027 A 
ATOM     24  C   UNL     1       7.631  45.791  51.429  1.00  0.00     0.041 A 
ATOM     25  C   UNL     1       7.567  47.206  53.812  1.00  0.00     0.005 A 
ATOM     26  C   UNL     1       8.828  46.188  52.037  1.00  0.00     0.021 A 
ATOM     27  C   UNL     1       8.803  46.890  53.245  1.00  0.00    -0.050 A 
ATOM     28  Br  UNL     1       7.756  44.828  49.788  1.00  0.00    -0.049 Br
ATOM     29  C   UNL     1      10.077  47.352  53.886  1.00  0.00     0.044 C 
ENDBRANCH  20  22
ENDBRANCH  13  20
ENDBRANCH   1  10
TORSDOF 6
ENDMDL
MODEL 13
REMARK VINA RESULT:    -8.249      2.688      6.695
REMARK INTER + INTRA:         -12.159
REMARK INTER:                 -11.245
REMARK INTRA:                  -0.914
REMARK UNBOUND:                -1.016
REMARK SMILES CC(=O)NCCNc1nc(Nc2ccc(C)cc2Br)c2cnn(C)c2n1
REMARK SMILES IDX 7 1 6 3 5 4 4 5 2 6 1 7 3 8 8 10 9 11 26 12 10 13 25 14
REMARK SMILES IDX 20 15 23 16 21 17 22 18 24 19 11 20 12 22 13 23 18 24 14 25
REMARK SMILES IDX 17 26 15 27 19 28 16 29
REMARK H PARENT 7 2 4 9 11 21
ROOT
ATOM      1  N   UNL     1       7.669  46.233  50.638  1.00  0.00    -0.352 N 
ATOM      2  H   UNL     1       8.017  46.040  49.704  1.00  0.00     0.163 HD
ENDROOT
BRANCH   1   3
ATOM      3  C   UNL     1       8.667  46.175  51.693  1.00  0.00     0.137 C 
BRANCH   3   4
ATOM      4  C   UNL     1       8.921  47.549  52.327  1.00  0.00     0.137 C 
BRANCH   4   5
ATOM      5  N   UNL     1       9.899  47.478  53.405  1.00  0.00    -0.355 N 
ATOM      6  C   UNL     1       9.519  47.669  54.715  1.00  0.00     0.216 C 
ATOM      7  C   UNL     1      10.611  47.397  55.714  1.00  0.00     0.114 C 
ATOM      8  O   UNL     1       8.397  48.020  55.061  1.00  0.00    -0.275 OA
ATOM      9  H   UNL     1      10.722  46.913  53.243  1.00  0.00     0.163 HD
ENDBRANCH   4   5
ENDBRANCH   3   4
ENDBRANCH   1   3
BRANCH   1  10
ATOM     10  C   UNL     1       6.574  45.392  50.797  1.00  0.00     0.226 A 
ATOM     11  N   UNL     1       5.511  45.971  51.383  1.00  0.00    -0.195 NA
ATOM     12  N   UNL     1       6.636  44.125  50.369  1.00  0.00    -0.193 NA
ATOM     13  C   UNL     1       4.369  45.270  51.611  1.00  0.00     0.147 A 
ATOM     14  C   UNL     1       5.506  43.443  50.605  1.00  0.00     0.165 A 
ATOM     15  C   UNL     1       4.359  43.932  51.200  1.00  0.00     0.082 A 
ATOM     16  N   UNL     1       5.253  42.131  50.313  1.00  0.00    -0.250 N 
ATOM     17  C   UNL     1       3.474  42.833  51.203  1.00  0.00     0.149 A 
ATOM     18  N   UNL     1       4.005  41.734  50.658  1.00  0.00    -0.179 NA
ATOM     19  C   UNL     1       6.155  41.188  49.704  1.00  0.00     0.176 C 
BRANCH  13  20
ATOM     20  N   UNL     1       3.245  45.854  52.206  1.00  0.00    -0.339 N 
ATOM     21  H   UNL     1       2.790  46.558  51.636  1.00  0.00     0.168 HD
BRANCH  20  22
ATOM     22  C   UNL     1       2.609  45.676  53.452  1.00  0.00     0.054 A 
ATOM     23  C   UNL     1       3.242  45.919  54.676  1.00  0.00     0.027 A 
ATOM     24  C   UNL     1       1.266  45.247  53.499  1.00  0.00     0.041 A 
ATOM     25  C   UNL     1       2.570  45.744  55.894  1.00  0.00     0.005 A 
ATOM     26  C   UNL     1       0.589  45.073  54.711  1.00  0.00     0.021 A 
ATOM     27  C   UNL     1       1.236  45.334  55.921  1.00  0.00    -0.050 A 
ATOM     28  Br  UNL     1       0.304  44.879  51.894  1.00  0.00    -0.049 Br
ATOM     29  C   UNL     1       0.533  45.116  57.227  1.00  0.00     0.044 C 
ENDBRANCH  20  22
ENDBRANCH  13  20
ENDBRANCH   1  10
TORSDOF 6
ENDMDL
MODEL 14
REMARK VINA RESULT:    -8.223      2.660      5.992
REMARK INTER + INTRA:         -12.124
REMARK INTER:                 -11.956
REMARK INTRA:                  -0.168
REMARK UNBOUND:                -1.016
REMARK SMILES CC(=O)NCCNc1nc(Nc2ccc(C)cc2Br)c2cnn(C)c2n1
REMARK SMILES IDX 7 1 6 3 5 4 4 5 2 6 1 7 3 8 8 10 9 11 26 12 10 13 25 14
REMARK SMILES IDX 20 15 23 16 21 17 22 18 24 19 11 20 12 22 13 23 18 24 14 25
REMARK SMILES IDX 17 26 15 27 19 28 16 29
REMARK H PARENT 7 2 4 9 11 21
ROOT
ATOM      1  N   UNL     1       3.850  45.889  55.714  1.00  0.00    -0.352 N 
ATOM      2  H   UNL     1       3.544  46.855  55.654  1.00  0.00     0.163 HD
ENDROOT
BRANCH   1   3
ATOM      3  C   UNL     1       5.233  45.655  55.329  1.00  0.00     0.137 C 
BRANCH   3   4
ATOM      4  C   UNL     1       5.859  46.878  54.645  1.00  0.00     0.137 C 
BRANCH   4   5
ATOM      5  N   UNL     1       7.047  46.523  53.880  1.00  0.00    -0.355 N 
ATOM      6  C   UNL     1       8.274  47.065  54.191  1.00  0.00     0.216 C 
ATOM      7  C   UNL     1       9.420  46.469  53.417  1.00  0.00     0.114 C 
ATOM      8  O   UNL     1       8.444  47.947  55.025  1.00  0.00    -0.275 OA
ATOM      9  H   UNL     1       7.046  45.622  53.420  1.00  0.00     0.163 HD
ENDBRANCH   4   5
ENDBRANCH   3   4
ENDBRANCH   1   3
BRANCH   1  10
ATOM     10  C   UNL     1       2.897  45.162  55.010  1.00  0.00     0.226 A 
ATOM     11  N   UNL     1       3.338  44.650  53.848  1.00  0.00    -0.195 NA
ATOM     12  N   UNL     1       1.665  45.014  55.513  1.00  0.00    -0.193 NA
ATOM     13  C   UNL     1       2.515  43.921  53.047  1.00  0.00     0.147 A 
ATOM     14  C   UNL     1       0.862  44.298  54.712  1.00  0.00     0.165 A 
ATOM     15  C   UNL     1       1.204  43.730  53.500  1.00  0.00     0.082 A 
ATOM     16  N   UNL     1      -0.453  43.986  54.920  1.00  0.00    -0.250 N 
ATOM     17  C   UNL     1       0.023  43.087  53.073  1.00  0.00     0.149 A 
ATOM     18  N   UNL     1      -0.990  43.229  53.934  1.00  0.00    -0.179 NA
ATOM     19  C   UNL     1      -1.270  44.375  56.040  1.00  0.00     0.176 C 
BRANCH  13  20
ATOM     20  N   UNL     1       2.954  43.366  51.840  1.00  0.00    -0.339 N 
ATOM     21  H   UNL     1       2.244  42.847  51.338  1.00  0.00     0.168 HD
BRANCH  20  22
ATOM     22  C   UNL     1       4.194  43.369  51.170  1.00  0.00     0.054 A 
ATOM     23  C   UNL     1       4.888  42.199  50.841  1.00  0.00     0.027 A 
ATOM     24  C   UNL     1       4.782  44.592  50.786  1.00  0.00     0.041 A 
ATOM     25  C   UNL     1       6.113  42.243  50.159  1.00  0.00     0.005 A 
ATOM     26  C   UNL     1       6.003  44.643  50.104  1.00  0.00     0.021 A 
ATOM     27  C   UNL     1       6.673  43.462  49.774  1.00  0.00    -0.050 A 
ATOM     28  Br  UNL     1       3.930  46.250  51.189  1.00  0.00    -0.049 Br
ATOM     29  C   UNL     1       7.999  43.505  49.076  1.00  0.00     0.044 C 
ENDBRANCH  20  22
ENDBRANCH  13  20
ENDBRANCH   1  10
TORSDOF 6
ENDMDL
MODEL 15
REMARK VINA RESULT:    -8.219      2.911      4.863
REMARK INTER + INTRA:         -12.118
REMARK INTER:                 -10.733
REMARK INTRA:                  -1.384
REMARK UNBOUND:                -1.016
REMARK SMILES CC(=O)NCCNc1nc(Nc2ccc(C)cc2Br)c2cnn(C)c2n1
REMARK SMILES IDX 7 1 6 3 5 4 4 5 2 6 1 7 3 8 8 10 9 11 26 12 10 13 25 14
REMARK SMILES IDX 20 15 23 16 21 17 22 18 24 19 11 20 12 22 13 23 18 24 14 25
REMARK SMILES IDX 17 26 15 27 19 28 16 29
REMARK H PARENT 7 2 4 9 11 21
ROOT
ATOM      1  N   UNL     1       7.682  45.223  49.545  1.00  0.00    -0.352 N 
ATOM      2  H   UNL     1       6.889  45.434  48.949  1.00  0.00     0.163 HD
ENDROOT
BRANCH   1   3
ATOM      3  C   UNL     1       8.121  43.837  49.520  1.00  0.00     0.137 C 
BRANCH   3   4
ATOM      4  C   UNL     1       7.004  42.883  49.078  1.00  0.00     0.137 C 
BRANCH   4   5
ATOM      5  N   UNL     1       5.984  42.727  50.107  1.00  0.00    -0.355 N 
ATOM      6  C   UNL     1       5.015  41.755  49.998  1.00  0.00     0.216 C 
ATOM      7  C   UNL     1       4.146  41.618  51.220  1.00  0.00     0.114 C 
ATOM      8  O   UNL     1       4.860  41.047  49.009  1.00  0.00    -0.275 OA
ATOM      9  H   UNL     1       6.222  43.036  51.041  1.00  0.00     0.163 HD
ENDBRANCH   4   5
ENDBRANCH   3   4
ENDBRANCH   1   3
BRANCH   1  10
ATOM     10  C   UNL     1       7.339  45.724  50.795  1.00  0.00     0.226 A 
ATOM     11  N   UNL     1       6.016  45.819  51.011  1.00  0.00    -0.195 NA
ATOM     12  N   UNL     1       8.299  46.053  51.669  1.00  0.00    -0.193 NA
ATOM     13  C   UNL     1       5.530  46.298  52.187  1.00  0.00     0.147 A 
ATOM     14  C   UNL     1       7.807  46.529  52.822  1.00  0.00     0.165 A 
ATOM     15  C   UNL     1       6.474  46.674  53.150  1.00  0.00     0.082 A 
ATOM     16  N   UNL     1       8.515  46.972  53.906  1.00  0.00    -0.250 N 
ATOM     17  C   UNL     1       6.493  47.200  54.460  1.00  0.00     0.149 A 
ATOM     18  N   UNL     1       7.731  47.377  54.933  1.00  0.00    -0.179 NA
ATOM     19  C   UNL     1       9.948  47.041  54.037  1.00  0.00     0.176 C 
BRANCH  13  20
ATOM     20  N   UNL     1       4.157  46.394  52.440  1.00  0.00    -0.339 N 
ATOM     21  H   UNL     1       3.847  47.319  52.712  1.00  0.00     0.168 HD
BRANCH  20  22
ATOM     22  C   UNL     1       3.101  45.460  52.406  1.00  0.00     0.054 A 
ATOM     23  C   UNL     1       2.496  45.033  51.219  1.00  0.00     0.027 A 
ATOM     24  C   UNL     1       2.619  44.901  53.608  1.00  0.00     0.041 A 
ATOM     25  C   UNL     1       1.458  44.091  51.225  1.00  0.00     0.005 A 
ATOM     26  C   UNL     1       1.585  43.959  53.621  1.00  0.00     0.021 A 
ATOM     27  C   UNL     1       1.004  43.536  52.423  1.00  0.00    -0.050 A 
ATOM     28  Br  UNL     1       3.363  45.415  55.287  1.00  0.00    -0.049 Br
ATOM     29  C   UNL     1      -0.130  42.555  52.428  1.00  0.00     0.044 C 
ENDBRANCH  20  22
ENDBRANCH  13  20
ENDBRANCH   1  10
TORSDOF 6
ENDMDL
MODEL 16
REMARK VINA RESULT:    -8.209      3.478      6.180
REMARK INTER + INTRA:         -12.105
REMARK INTER:                 -11.331
REMARK INTRA:                  -0.774
REMARK UNBOUND:                -1.016
REMARK SMILES CC(=O)NCCNc1nc(Nc2ccc(C)cc2Br)c2cnn(C)c2n1
REMARK SMILES IDX 7 1 6 3 5 4 4 5 2 6 1 7 3 8 8 10 9 11 26 12 10 13 25 14
REMARK SMILES IDX 20 15 23 16 21 17 22 18 24 19 11 20 12 22 13 23 18 24 14 25
REMARK SMILES IDX 17 26 15 27 19 28 16 29
REMARK H PARENT 7 2 4 9 11 21
ROOT
ATOM      1  N   UNL     1       5.269  46.830  52.390  1.00  0.00    -0.352 N 
ATOM      2  H   UNL     1       6.173  47.043  51.980  1.00  0.00     0.163 HD
ENDROOT
BRANCH   1   3
ATOM      3  C   UNL     1       5.138  47.158  53.801  1.00  0.00     0.137 C 
BRANCH   3   4
ATOM      4  C   UNL     1       6.381  46.757  54.606  1.00  0.00     0.137 C 
BRANCH   4   5
ATOM      5  N   UNL     1       7.578  46.720  53.776  1.00  0.00    -0.355 N 
ATOM      6  C   UNL     1       8.716  47.403  54.148  1.00  0.00     0.216 C 
ATOM      7  C   UNL     1       9.909  47.125  53.273  1.00  0.00     0.114 C 
ATOM      8  O   UNL     1       8.777  48.164  55.106  1.00  0.00    -0.275 OA
ATOM      9  H   UNL     1       7.702  45.911  53.182  1.00  0.00     0.163 HD
ENDBRANCH   4   5
ENDBRANCH   3   4
ENDBRANCH   1   3
BRANCH   1  10
ATOM     10  C   UNL     1       5.022  45.504  52.054  1.00  0.00     0.226 A 
ATOM     11  N   UNL     1       4.022  44.934  52.748  1.00  0.00    -0.195 NA
ATOM     12  N   UNL     1       5.749  44.910  51.099  1.00  0.00    -0.193 NA
ATOM     13  C   UNL     1       3.670  43.638  52.532  1.00  0.00     0.147 A 
ATOM     14  C   UNL     1       5.396  43.632  50.900  1.00  0.00     0.165 A 
ATOM     15  C   UNL     1       4.393  42.945  51.554  1.00  0.00     0.082 A 
ATOM     16  N   UNL     1       5.953  42.746  50.019  1.00  0.00    -0.250 N 
ATOM     17  C   UNL     1       4.422  41.657  50.979  1.00  0.00     0.149 A 
ATOM     18  N   UNL     1       5.363  41.527  50.037  1.00  0.00    -0.179 NA
ATOM     19  C   UNL     1       7.054  42.988  49.124  1.00  0.00     0.176 C 
BRANCH  13  20
ATOM     20  N   UNL     1       2.624  43.026  53.232  1.00  0.00    -0.339 N 
ATOM     21  H   UNL     1       2.920  42.292  53.864  1.00  0.00     0.168 HD
BRANCH  20  22
ATOM     22  C   UNL     1       1.226  43.210  53.236  1.00  0.00     0.054 A 
ATOM     23  C   UNL     1       0.372  42.602  52.309  1.00  0.00     0.027 A 
ATOM     24  C   UNL     1       0.629  44.028  54.218  1.00  0.00     0.041 A 
ATOM     25  C   UNL     1      -1.015  42.798  52.356  1.00  0.00     0.005 A 
ATOM     26  C   UNL     1      -0.755  44.226  54.271  1.00  0.00     0.021 A 
ATOM     27  C   UNL     1      -1.591  43.599  53.344  1.00  0.00    -0.050 A 
ATOM     28  Br  UNL     1       1.696  44.913  55.528  1.00  0.00    -0.049 Br
ATOM     29  C   UNL     1      -3.072  43.833  53.369  1.00  0.00     0.044 C 
ENDBRANCH  20  22
ENDBRANCH  13  20
ENDBRANCH   1  10
TORSDOF 6
ENDMDL
MODEL 17
REMARK VINA RESULT:    -8.010      3.673      5.867
REMARK INTER + INTRA:         -11.836
REMARK INTER:                 -11.099
REMARK INTRA:                  -0.737
REMARK UNBOUND:                -1.016
REMARK SMILES CC(=O)NCCNc1nc(Nc2ccc(C)cc2Br)c2cnn(C)c2n1
REMARK SMILES IDX 7 1 6 3 5 4 4 5 2 6 1 7 3 8 8 10 9 11 26 12 10 13 25 14
REMARK SMILES IDX 20 15 23 16 21 17 22 18 24 19 11 20 12 22 13 23 18 24 14 25
REMARK SMILES IDX 17 26 15 27 19 28 16 29
REMARK H PARENT 7 2 4 9 11 21
ROOT
ATOM      1  N   UNL     1       6.604  43.372  49.377  1.00  0.00    -0.352 N 
ATOM      2  H   UNL     1       5.983  43.716  48.653  1.00  0.00     0.163 HD
ENDROOT
BRANCH   1   3
ATOM      3  C   UNL     1       6.542  41.938  49.613  1.00  0.00     0.137 C 
BRANCH   3   4
ATOM      4  C   UNL     1       5.561  41.237  48.664  1.00  0.00     0.137 C 
BRANCH   4   5
ATOM      5  N   UNL     1       5.825  41.568  47.269  1.00  0.00    -0.355 N 
ATOM      6  C   UNL     1       4.876  41.334  46.298  1.00  0.00     0.216 C 
ATOM      7  C   UNL     1       5.239  41.885  44.945  1.00  0.00     0.114 C 
ATOM      8  O   UNL     1       3.822  40.742  46.496  1.00  0.00    -0.275 OA
ATOM      9  H   UNL     1       6.495  42.304  47.090  1.00  0.00     0.163 HD
ENDBRANCH   4   5
ENDBRANCH   3   4
ENDBRANCH   1   3
BRANCH   1  10
ATOM     10  C   UNL     1       6.354  44.176  50.482  1.00  0.00     0.226 A 
ATOM     11  N   UNL     1       5.352  43.744  51.267  1.00  0.00    -0.195 NA
ATOM     12  N   UNL     1       7.096  45.271  50.694  1.00  0.00    -0.193 NA
ATOM     13  C   UNL     1       4.989  44.432  52.382  1.00  0.00     0.147 A 
ATOM     14  C   UNL     1       6.724  45.944  51.792  1.00  0.00     0.165 A 
ATOM     15  C   UNL     1       5.712  45.597  52.666  1.00  0.00     0.082 A 
ATOM     16  N   UNL     1       7.259  47.107  52.274  1.00  0.00    -0.250 N 
ATOM     17  C   UNL     1       5.735  46.613  53.645  1.00  0.00     0.149 A 
ATOM     18  N   UNL     1       6.679  47.533  53.420  1.00  0.00    -0.179 NA
ATOM     19  C   UNL     1       8.330  47.875  51.693  1.00  0.00     0.176 C 
BRANCH  13  20
ATOM     20  N   UNL     1       3.958  43.995  53.223  1.00  0.00    -0.339 N 
ATOM     21  H   UNL     1       4.251  43.798  54.172  1.00  0.00     0.168 HD
BRANCH  20  22
ATOM     22  C   UNL     1       2.583  43.758  53.023  1.00  0.00     0.054 A 
ATOM     23  C   UNL     1       2.080  43.056  51.922  1.00  0.00     0.027 A 
ATOM     24  C   UNL     1       1.646  44.227  53.966  1.00  0.00     0.041 A 
ATOM     25  C   UNL     1       0.706  42.827  51.766  1.00  0.00     0.005 A 
ATOM     26  C   UNL     1       0.273  44.001  53.818  1.00  0.00     0.021 A 
ATOM     27  C   UNL     1      -0.207  43.285  52.718  1.00  0.00    -0.050 A 
ATOM     28  Br  UNL     1       2.215  45.204  55.501  1.00  0.00    -0.049 Br
ATOM     29  C   UNL     1      -1.678  43.069  52.530  1.00  0.00     0.044 C 
ENDBRANCH  20  22
ENDBRANCH  13  20
ENDBRANCH   1  10
TORSDOF 6
ENDMDL
MODEL 18
REMARK VINA RESULT:    -7.995      2.343      5.790
REMARK INTER + INTRA:         -11.816
REMARK INTER:                 -10.797
REMARK INTRA:                  -1.019
REMARK UNBOUND:                -1.016
REMARK SMILES CC(=O)NCCNc1nc(Nc2ccc(C)cc2Br)c2cnn(C)c2n1
REMARK SMILES IDX 7 1 6 3 5 4 4 5 2 6 1 7 3 8 8 10 9 11 26 12 10 13 25 14
REMARK SMILES IDX 20 15 23 16 21 17 22 18 24 19 11 20 12 22 13 23 18 24 14 25
REMARK SMILES IDX 17 26 15 27 19 28 16 29
REMARK H PARENT 7 2 4 9 11 21
ROOT
ATOM      1  N   UNL     1       2.400  45.889  52.373  1.00  0.00    -0.352 N 
ATOM      2  H   UNL     1       2.355  46.763  51.859  1.00  0.00     0.163 HD
ENDROOT
BRANCH   1   3
ATOM      3  C   UNL     1       2.390  46.023  53.821  1.00  0.00     0.137 C 
BRANCH   3   4
ATOM      4  C   UNL     1       1.676  44.850  54.506  1.00  0.00     0.137 C 
BRANCH   4   5
ATOM      5  N   UNL     1       0.440  44.491  53.822  1.00  0.00    -0.355 N 
ATOM      6  C   UNL     1       0.206  43.194  53.425  1.00  0.00     0.216 C 
ATOM      7  C   UNL     1      -1.181  42.960  52.887  1.00  0.00     0.114 C 
ATOM      8  O   UNL     1       1.032  42.292  53.501  1.00  0.00    -0.275 OA
ATOM      9  H   UNL     1      -0.370  45.071  54.001  1.00  0.00     0.163 HD
ENDBRANCH   4   5
ENDBRANCH   3   4
ENDBRANCH   1   3
BRANCH   1  10
ATOM     10  C   UNL     1       3.488  45.209  51.838  1.00  0.00     0.226 A 
ATOM     11  N   UNL     1       4.637  45.905  51.852  1.00  0.00    -0.195 NA
ATOM     12  N   UNL     1       3.335  43.962  51.375  1.00  0.00    -0.193 NA
ATOM     13  C   UNL     1       5.785  45.372  51.355  1.00  0.00     0.147 A 
ATOM     14  C   UNL     1       4.472  43.450  50.883  1.00  0.00     0.165 A 
ATOM     15  C   UNL     1       5.704  44.071  50.842  1.00  0.00     0.082 A 
ATOM     16  N   UNL     1       4.650  42.216  50.319  1.00  0.00    -0.250 N 
ATOM     17  C   UNL     1       6.555  43.117  50.246  1.00  0.00     0.149 A 
ATOM     18  N   UNL     1       5.925  41.980  49.932  1.00  0.00    -0.179 NA
ATOM     19  C   UNL     1       3.647  41.203  50.113  1.00  0.00     0.176 C 
BRANCH  13  20
ATOM     20  N   UNL     1       6.997  46.071  51.370  1.00  0.00    -0.339 N 
ATOM     21  H   UNL     1       7.330  46.349  50.454  1.00  0.00     0.168 HD
BRANCH  20  22
ATOM     22  C   UNL     1       7.871  46.468  52.403  1.00  0.00     0.054 A 
ATOM     23  C   UNL     1       7.443  47.157  53.544  1.00  0.00     0.027 A 
ATOM     24  C   UNL     1       9.244  46.157  52.320  1.00  0.00     0.041 A 
ATOM     25  C   UNL     1       8.341  47.520  54.558  1.00  0.00     0.005 A 
ATOM     26  C   UNL     1      10.145  46.515  53.329  1.00  0.00     0.021 A 
ATOM     27  C   UNL     1       9.694  47.191  54.466  1.00  0.00    -0.050 A 
ATOM     28  Br  UNL     1       9.941  45.227  50.808  1.00  0.00    -0.049 Br
ATOM     29  C   UNL     1      10.656  47.612  55.536  1.00  0.00     0.044 C 
ENDBRANCH  20  22
ENDBRANCH  13  20
ENDBRANCH   1  10
TORSDOF 6
ENDMDL
MODEL 19
REMARK VINA RESULT:    -7.932      3.161      5.887
REMARK INTER + INTRA:         -11.731
REMARK INTER:                 -10.860
REMARK INTRA:                  -0.870
REMARK UNBOUND:                -1.016
REMARK SMILES CC(=O)NCCNc1nc(Nc2ccc(C)cc2Br)c2cnn(C)c2n1
REMARK SMILES IDX 7 1 6 3 5 4 4 5 2 6 1 7 3 8 8 10 9 11 26 12 10 13 25 14
REMARK SMILES IDX 20 15 23 16 21 17 22 18 24 19 11 20 12 22 13 23 18 24 14 25
REMARK SMILES IDX 17 26 15 27 19 28 16 29
REMARK H PARENT 7 2 4 9 11 21
ROOT
ATOM      1  N   UNL     1       6.819  43.127  49.156  1.00  0.00    -0.352 N 
ATOM      2  H   UNL     1       6.401  43.487  48.305  1.00  0.00     0.163 HD
ENDROOT
BRANCH   1   3
ATOM      3  C   UNL     1       6.222  41.905  49.669  1.00  0.00     0.137 C 
BRANCH   3   4
ATOM      4  C   UNL     1       5.442  41.143  48.588  1.00  0.00     0.137 C 
BRANCH   4   5
ATOM      5  N   UNL     1       5.741  41.641  47.252  1.00  0.00    -0.355 N 
ATOM      6  C   UNL     1       4.871  41.419  46.206  1.00  0.00     0.216 C 
ATOM      7  C   UNL     1       5.244  42.139  44.938  1.00  0.00     0.114 C 
ATOM      8  O   UNL     1       3.874  40.710  46.281  1.00  0.00    -0.275 OA
ATOM      9  H   UNL     1       6.340  42.453  47.186  1.00  0.00     0.163 HD
ENDBRANCH   4   5
ENDBRANCH   3   4
ENDBRANCH   1   3
BRANCH   1  10
ATOM     10  C   UNL     1       6.837  44.204  50.034  1.00  0.00     0.226 A 
ATOM     11  N   UNL     1       5.622  44.604  50.446  1.00  0.00    -0.195 NA
ATOM     12  N   UNL     1       8.005  44.743  50.407  1.00  0.00    -0.193 NA
ATOM     13  C   UNL     1       5.481  45.651  51.302  1.00  0.00     0.147 A 
ATOM     14  C   UNL     1       7.853  45.778  51.247  1.00  0.00     0.165 A 
ATOM     15  C   UNL     1       6.659  46.275  51.731  1.00  0.00     0.082 A 
ATOM     16  N   UNL     1       8.838  46.554  51.793  1.00  0.00    -0.250 N 
ATOM     17  C   UNL     1       7.042  47.342  52.571  1.00  0.00     0.149 A 
ATOM     18  N   UNL     1       8.367  47.515  52.623  1.00  0.00    -0.179 NA
ATOM     19  C   UNL     1      10.256  46.442  51.570  1.00  0.00     0.176 C 
BRANCH  13  20
ATOM     20  N   UNL     1       4.228  46.078  51.755  1.00  0.00    -0.339 N 
ATOM     21  H   UNL     1       3.747  46.704  51.121  1.00  0.00     0.168 HD
BRANCH  20  22
ATOM     22  C   UNL     1       3.487  45.824  52.928  1.00  0.00     0.054 A 
ATOM     23  C   UNL     1       3.866  46.297  54.189  1.00  0.00     0.027 A 
ATOM     24  C   UNL     1       2.295  45.073  52.857  1.00  0.00     0.041 A 
ATOM     25  C   UNL     1       3.094  46.037  55.330  1.00  0.00     0.005 A 
ATOM     26  C   UNL     1       1.519  44.811  53.991  1.00  0.00     0.021 A 
ATOM     27  C   UNL     1       1.908  45.305  55.238  1.00  0.00    -0.050 A 
ATOM     28  Br  UNL     1       1.685  44.371  51.192  1.00  0.00    -0.049 Br
ATOM     29  C   UNL     1       1.104  45.000  56.466  1.00  0.00     0.044 C 
ENDBRANCH  20  22
ENDBRANCH  13  20
ENDBRANCH   1  10
TORSDOF 6
ENDMDL
