MODEL 1
REMARK VINA RESULT:    -8.729      0.000      0.000
REMARK INTER + INTRA:         -13.204
REMARK INTER:                 -12.557
REMARK INTRA:                  -0.648
REMARK UNBOUND:                -0.648
REMARK SMILES COc1ccc(Nc2nc(NCCCO)c3ccccc3n2)cc1
REMARK SMILES IDX 11 1 10 3 8 4 9 5 22 6 21 7 16 8 20 9 17 10 19 11 18 12 7 13
REMARK SMILES IDX 6 15 3 16 4 17 24 18 5 19 23 20 2 21 1 22 12 23 13 24 14 25
REMARK SMILES IDX 15 26
REMARK H PARENT 11 2 7 14 15 27
ROOT
ATOM      1  N   UNL     1       7.107  45.256  50.386  1.00  0.00    -0.369 N 
ATOM      2  H   UNL     1       8.067  44.921  50.420  1.00  0.00     0.162 HD
ENDROOT
BRANCH   1   3
ATOM      3  C   UNL     1       6.849  45.956  51.591  1.00  0.00     0.139 A 
ATOM      4  C   UNL     1       5.341  46.841  53.091  1.00  0.00     0.229 A 
ATOM      5  N   UNL     1       5.575  46.190  51.947  1.00  0.00    -0.195 NA
ATOM      6  N   UNL     1       6.313  47.275  53.906  1.00  0.00    -0.213 NA
ATOM      7  C   UNL     1       7.581  47.065  53.545  1.00  0.00     0.078 A 
ATOM      8  C   UNL     1       7.931  46.401  52.367  1.00  0.00     0.043 A 
ATOM      9  C   UNL     1       8.596  47.526  54.375  1.00  0.00     0.029 A 
ATOM     10  C   UNL     1       9.301  46.235  52.038  1.00  0.00     0.014 A 
ATOM     11  C   UNL     1       9.947  47.354  54.059  1.00  0.00     0.002 A 
ATOM     12  C   UNL     1      10.302  46.708  52.883  1.00  0.00     0.001 A 
BRANCH   4  13
ATOM     13  N   UNL     1       4.050  47.106  53.540  1.00  0.00    -0.324 N 
ATOM     14  H   UNL     1       3.975  48.094  53.734  1.00  0.00     0.170 HD
BRANCH  13  15
ATOM     15  C   UNL     1       2.894  46.337  53.696  1.00  0.00     0.041 A 
ATOM     16  C   UNL     1       0.610  44.710  54.133  1.00  0.00     0.119 A 
ATOM     17  C   UNL     1       1.571  44.852  55.129  1.00  0.00     0.048 A 
ATOM     18  C   UNL     1       0.793  45.376  52.922  1.00  0.00     0.048 A 
ATOM     19  C   UNL     1       2.699  45.655  54.908  1.00  0.00     0.030 A 
ATOM     20  C   UNL     1       1.922  46.177  52.707  1.00  0.00     0.030 A 
BRANCH  16  21
ATOM     21  O   UNL     1      -0.531  43.963  54.211  1.00  0.00    -0.497 OA
ATOM     22  C   UNL     1      -1.052  43.459  52.987  1.00  0.00     0.278 C 
ENDBRANCH  16  21
ENDBRANCH  13  15
ENDBRANCH   4  13
ENDBRANCH   1   3
BRANCH   1  23
ATOM     23  C   UNL     1       6.169  44.172  50.099  1.00  0.00     0.117 C 
BRANCH  23  24
ATOM     24  C   UNL     1       6.899  43.068  49.340  1.00  0.00     0.049 C 
BRANCH  24  25
ATOM     25  C   UNL     1       6.304  41.703  49.646  1.00  0.00     0.158 C 
BRANCH  25  26
ATOM     26  O   UNL     1       7.332  40.809  50.053  1.00  0.00    -0.396 OA
ATOM     27  H   UNL     1       6.968  39.908  50.019  1.00  0.00     0.210 HD
ENDBRANCH  25  26
ENDBRANCH  24  25
ENDBRANCH  23  24
ENDBRANCH   1  23
TORSDOF 8
ENDMDL
MODEL 2
REMARK VINA RESULT:    -8.713      0.486      1.117
REMARK INTER + INTRA:         -13.181
REMARK INTER:                 -12.555
REMARK INTRA:                  -0.626
REMARK UNBOUND:                -0.648
REMARK SMILES COc1ccc(Nc2nc(NCCCO)c3ccccc3n2)cc1
REMARK SMILES IDX 11 1 10 3 8 4 9 5 22 6 21 7 16 8 20 9 17 10 19 11 18 12 7 13
REMARK SMILES IDX 6 15 3 16 4 17 24 18 5 19 23 20 2 21 1 22 12 23 13 24 14 25
REMARK SMILES IDX 15 26
REMARK H PARENT 11 2 7 14 15 27
ROOT
ATOM      1  N   UNL     1       7.121  45.251  50.388  1.00  0.00    -0.369 N 
ATOM      2  H   UNL     1       8.079  44.910  50.424  1.00  0.00     0.162 HD
ENDROOT
BRANCH   1   3
ATOM      3  C   UNL     1       6.863  45.946  51.595  1.00  0.00     0.139 A 
ATOM      4  C   UNL     1       5.354  46.816  53.103  1.00  0.00     0.229 A 
ATOM      5  N   UNL     1       5.589  46.170  51.956  1.00  0.00    -0.195 NA
ATOM      6  N   UNL     1       6.326  47.256  53.915  1.00  0.00    -0.213 NA
ATOM      7  C   UNL     1       7.594  47.056  53.549  1.00  0.00     0.078 A 
ATOM      8  C   UNL     1       7.944  46.398  52.368  1.00  0.00     0.043 A 
ATOM      9  C   UNL     1       8.609  47.524  54.375  1.00  0.00     0.029 A 
ATOM     10  C   UNL     1       9.315  46.243  52.033  1.00  0.00     0.014 A 
ATOM     11  C   UNL     1       9.960  47.363  54.055  1.00  0.00     0.002 A 
ATOM     12  C   UNL     1      10.315  46.722  52.876  1.00  0.00     0.001 A 
BRANCH   4  13
ATOM     13  N   UNL     1       4.063  47.071  53.558  1.00  0.00    -0.324 N 
ATOM     14  H   UNL     1       3.967  48.064  53.710  1.00  0.00     0.170 HD
BRANCH  13  15
ATOM     15  C   UNL     1       2.927  46.283  53.761  1.00  0.00     0.041 A 
ATOM     16  C   UNL     1       0.556  44.751  54.055  1.00  0.00     0.119 A 
ATOM     17  C   UNL     1       0.803  45.440  52.872  1.00  0.00     0.048 A 
ATOM     18  C   UNL     1       1.489  44.831  55.088  1.00  0.00     0.048 A 
ATOM     19  C   UNL     1       1.975  46.198  52.733  1.00  0.00     0.030 A 
ATOM     20  C   UNL     1       2.658  45.589  54.942  1.00  0.00     0.030 A 
BRANCH  16  21
ATOM     21  O   UNL     1      -0.538  43.980  54.327  1.00  0.00    -0.497 OA
ATOM     22  C   UNL     1      -1.319  44.350  55.457  1.00  0.00     0.278 C 
ENDBRANCH  16  21
ENDBRANCH  13  15
ENDBRANCH   4  13
ENDBRANCH   1   3
BRANCH   1  23
ATOM     23  C   UNL     1       6.179  44.173  50.092  1.00  0.00     0.117 C 
BRANCH  23  24
ATOM     24  C   UNL     1       6.913  43.054  49.360  1.00  0.00     0.049 C 
BRANCH  24  25
ATOM     25  C   UNL     1       6.273  41.703  49.638  1.00  0.00     0.158 C 
BRANCH  25  26
ATOM     26  O   UNL     1       7.256  40.793  50.115  1.00  0.00    -0.396 OA
ATOM     27  H   UNL     1       7.517  40.226  49.369  1.00  0.00     0.210 HD
ENDBRANCH  25  26
ENDBRANCH  24  25
ENDBRANCH  23  24
ENDBRANCH   1  23
TORSDOF 8
ENDMDL
MODEL 3
REMARK VINA RESULT:    -8.674      2.754      7.221
REMARK INTER + INTRA:         -13.124
REMARK INTER:                 -12.146
REMARK INTRA:                  -0.978
REMARK UNBOUND:                -0.648
REMARK SMILES COc1ccc(Nc2nc(NCCCO)c3ccccc3n2)cc1
REMARK SMILES IDX 11 1 10 3 8 4 9 5 22 6 21 7 16 8 20 9 17 10 19 11 18 12 7 13
REMARK SMILES IDX 6 15 3 16 4 17 24 18 5 19 23 20 2 21 1 22 12 23 13 24 14 25
REMARK SMILES IDX 15 26
REMARK H PARENT 11 2 7 14 15 27
ROOT
ATOM      1  N   UNL     1       3.598  43.279  52.906  1.00  0.00    -0.369 N 
ATOM      2  H   UNL     1       4.028  43.166  53.821  1.00  0.00     0.162 HD
ENDROOT
BRANCH   1   3
ATOM      3  C   UNL     1       4.631  43.543  51.972  1.00  0.00     0.139 A 
ATOM      4  C   UNL     1       6.408  44.841  51.289  1.00  0.00     0.229 A 
ATOM      5  N   UNL     1       5.428  44.606  52.168  1.00  0.00    -0.195 NA
ATOM      6  N   UNL     1       6.639  44.070  50.218  1.00  0.00    -0.213 NA
ATOM      7  C   UNL     1       5.835  43.025  50.006  1.00  0.00     0.078 A 
ATOM      8  C   UNL     1       4.780  42.699  50.860  1.00  0.00     0.043 A 
ATOM      9  C   UNL     1       6.055  42.229  48.888  1.00  0.00     0.029 A 
ATOM     10  C   UNL     1       3.952  41.586  50.558  1.00  0.00     0.014 A 
ATOM     11  C   UNL     1       5.249  41.126  48.593  1.00  0.00     0.002 A 
ATOM     12  C   UNL     1       4.190  40.804  49.430  1.00  0.00     0.001 A 
BRANCH   4  13
ATOM     13  N   UNL     1       7.289  45.909  51.431  1.00  0.00    -0.324 N 
ATOM     14  H   UNL     1       7.400  46.355  50.532  1.00  0.00     0.170 HD
BRANCH  13  15
ATOM     15  C   UNL     1       7.949  46.493  52.516  1.00  0.00     0.041 A 
ATOM     16  C   UNL     1       9.415  47.602  54.679  1.00  0.00     0.119 A 
ATOM     17  C   UNL     1      10.079  46.976  53.630  1.00  0.00     0.048 A 
ATOM     18  C   UNL     1       8.022  47.669  54.648  1.00  0.00     0.048 A 
ATOM     19  C   UNL     1       9.351  46.427  52.564  1.00  0.00     0.030 A 
ATOM     20  C   UNL     1       7.300  47.120  53.581  1.00  0.00     0.030 A 
BRANCH  16  21
ATOM     21  O   UNL     1       9.993  48.176  55.775  1.00  0.00    -0.497 OA
ATOM     22  C   UNL     1      11.150  47.536  56.299  1.00  0.00     0.278 C 
ENDBRANCH  16  21
ENDBRANCH  13  15
ENDBRANCH   4  13
ENDBRANCH   1   3
BRANCH   1  23
ATOM     23  C   UNL     1       2.532  44.278  52.933  1.00  0.00     0.117 C 
BRANCH  23  24
ATOM     24  C   UNL     1       2.192  44.607  54.383  1.00  0.00     0.049 C 
BRANCH  24  25
ATOM     25  C   UNL     1       3.275  45.460  55.023  1.00  0.00     0.158 C 
BRANCH  25  26
ATOM     26  O   UNL     1       4.361  44.637  55.429  1.00  0.00    -0.396 OA
ATOM     27  H   UNL     1       4.263  43.780  54.979  1.00  0.00     0.210 HD
ENDBRANCH  25  26
ENDBRANCH  24  25
ENDBRANCH  23  24
ENDBRANCH   1  23
TORSDOF 8
ENDMDL
MODEL 4
REMARK VINA RESULT:    -8.514      2.603      7.232
REMARK INTER + INTRA:         -12.894
REMARK INTER:                 -12.187
REMARK INTRA:                  -0.707
REMARK UNBOUND:                -0.648
REMARK SMILES COc1ccc(Nc2nc(NCCCO)c3ccccc3n2)cc1
REMARK SMILES IDX 11 1 10 3 8 4 9 5 22 6 21 7 16 8 20 9 17 10 19 11 18 12 7 13
REMARK SMILES IDX 6 15 3 16 4 17 24 18 5 19 23 20 2 21 1 22 12 23 13 24 14 25
REMARK SMILES IDX 15 26
REMARK H PARENT 11 2 7 14 15 27
ROOT
ATOM      1  N   UNL     1       3.509  43.415  52.822  1.00  0.00    -0.369 N 
ATOM      2  H   UNL     1       3.858  42.819  53.569  1.00  0.00     0.162 HD
ENDROOT
BRANCH   1   3
ATOM      3  C   UNL     1       4.571  43.628  51.908  1.00  0.00     0.139 A 
ATOM      4  C   UNL     1       6.399  44.860  51.238  1.00  0.00     0.229 A 
ATOM      5  N   UNL     1       5.393  44.673  52.098  1.00  0.00    -0.195 NA
ATOM      6  N   UNL     1       6.633  44.058  50.190  1.00  0.00    -0.213 NA
ATOM      7  C   UNL     1       5.805  43.031  49.983  1.00  0.00     0.078 A 
ATOM      8  C   UNL     1       4.721  42.754  50.819  1.00  0.00     0.043 A 
ATOM      9  C   UNL     1       6.028  42.203  48.889  1.00  0.00     0.029 A 
ATOM     10  C   UNL     1       3.870  41.658  50.523  1.00  0.00     0.014 A 
ATOM     11  C   UNL     1       5.198  41.116  48.600  1.00  0.00     0.002 A 
ATOM     12  C   UNL     1       4.112  40.844  49.419  1.00  0.00     0.001 A 
BRANCH   4  13
ATOM     13  N   UNL     1       7.306  45.907  51.376  1.00  0.00    -0.324 N 
ATOM     14  H   UNL     1       7.431  46.345  50.475  1.00  0.00     0.170 HD
BRANCH  13  15
ATOM     15  C   UNL     1       7.978  46.480  52.460  1.00  0.00     0.041 A 
ATOM     16  C   UNL     1       9.466  47.568  54.617  1.00  0.00     0.119 A 
ATOM     17  C   UNL     1      10.120  46.960  53.551  1.00  0.00     0.048 A 
ATOM     18  C   UNL     1       8.073  47.628  54.606  1.00  0.00     0.048 A 
ATOM     19  C   UNL     1       9.380  46.421  52.488  1.00  0.00     0.030 A 
ATOM     20  C   UNL     1       7.340  47.089  53.542  1.00  0.00     0.030 A 
BRANCH  16  21
ATOM     21  O   UNL     1      10.057  48.130  55.713  1.00  0.00    -0.497 OA
ATOM     22  C   UNL     1      11.135  47.413  56.300  1.00  0.00     0.278 C 
ENDBRANCH  16  21
ENDBRANCH  13  15
ENDBRANCH   4  13
ENDBRANCH   1   3
BRANCH   1  23
ATOM     23  C   UNL     1       2.903  44.637  53.347  1.00  0.00     0.117 C 
BRANCH  23  24
ATOM     24  C   UNL     1       1.790  44.264  54.322  1.00  0.00     0.049 C 
BRANCH  24  25
ATOM     25  C   UNL     1       0.785  43.324  53.676  1.00  0.00     0.158 C 
BRANCH  25  26
ATOM     26  O   UNL     1       1.274  41.989  53.722  1.00  0.00    -0.396 OA
ATOM     27  H   UNL     1       0.836  41.542  54.466  1.00  0.00     0.210 HD
ENDBRANCH  25  26
ENDBRANCH  24  25
ENDBRANCH  23  24
ENDBRANCH   1  23
TORSDOF 8
ENDMDL
MODEL 5
REMARK VINA RESULT:    -8.272      2.211      4.117
REMARK INTER + INTRA:         -12.546
REMARK INTER:                 -11.872
REMARK INTRA:                  -0.674
REMARK UNBOUND:                -0.648
REMARK SMILES COc1ccc(Nc2nc(NCCCO)c3ccccc3n2)cc1
REMARK SMILES IDX 11 1 10 3 8 4 9 5 22 6 21 7 16 8 20 9 17 10 19 11 18 12 7 13
REMARK SMILES IDX 6 15 3 16 4 17 24 18 5 19 23 20 2 21 1 22 12 23 13 24 14 25
REMARK SMILES IDX 15 26
REMARK H PARENT 11 2 7 14 15 27
ROOT
ATOM      1  N   UNL     1       8.350  47.346  51.626  1.00  0.00    -0.369 N 
ATOM      2  H   UNL     1       8.222  48.062  50.914  1.00  0.00     0.162 HD
ENDROOT
BRANCH   1   3
ATOM      3  C   UNL     1       7.182  46.546  51.652  1.00  0.00     0.139 A 
ATOM      4  C   UNL     1       5.059  46.153  52.457  1.00  0.00     0.229 A 
ATOM      5  N   UNL     1       6.163  46.908  52.448  1.00  0.00    -0.195 NA
ATOM      6  N   UNL     1       4.914  45.049  51.712  1.00  0.00    -0.213 NA
ATOM      7  C   UNL     1       5.933  44.672  50.937  1.00  0.00     0.078 A 
ATOM      8  C   UNL     1       7.130  45.387  50.861  1.00  0.00     0.043 A 
ATOM      9  C   UNL     1       5.799  43.518  50.173  1.00  0.00     0.029 A 
ATOM     10  C   UNL     1       8.178  44.912  50.030  1.00  0.00     0.014 A 
ATOM     11  C   UNL     1       6.825  43.053  49.345  1.00  0.00     0.002 A 
ATOM     12  C   UNL     1       8.022  43.752  49.276  1.00  0.00     0.001 A 
BRANCH   4  13
ATOM     13  N   UNL     1       3.952  46.471  53.240  1.00  0.00    -0.324 N 
ATOM     14  H   UNL     1       4.121  47.359  53.689  1.00  0.00     0.170 HD
BRANCH  13  15
ATOM     15  C   UNL     1       2.705  45.877  53.453  1.00  0.00     0.041 A 
ATOM     16  C   UNL     1       0.235  44.591  53.999  1.00  0.00     0.119 A 
ATOM     17  C   UNL     1       1.274  44.534  54.922  1.00  0.00     0.048 A 
ATOM     18  C   UNL     1       0.433  45.285  52.806  1.00  0.00     0.048 A 
ATOM     19  C   UNL     1       2.494  45.169  54.647  1.00  0.00     0.030 A 
ATOM     20  C   UNL     1       1.653  45.918  52.537  1.00  0.00     0.030 A 
BRANCH  16  21
ATOM     21  O   UNL     1      -0.999  44.021  54.134  1.00  0.00    -0.497 OA
ATOM     22  C   UNL     1      -1.591  43.487  52.956  1.00  0.00     0.278 C 
ENDBRANCH  16  21
ENDBRANCH  13  15
ENDBRANCH   4  13
ENDBRANCH   1   3
BRANCH   1  23
ATOM     23  C   UNL     1       8.717  47.932  52.914  1.00  0.00     0.117 C 
BRANCH  23  24
ATOM     24  C   UNL     1       9.813  47.085  53.554  1.00  0.00     0.049 C 
BRANCH  24  25
ATOM     25  C   UNL     1      10.053  47.494  54.998  1.00  0.00     0.158 C 
BRANCH  25  26
ATOM     26  O   UNL     1       9.104  48.480  55.384  1.00  0.00    -0.396 OA
ATOM     27  H   UNL     1       8.289  48.316  54.879  1.00  0.00     0.210 HD
ENDBRANCH  25  26
ENDBRANCH  24  25
ENDBRANCH  23  24
ENDBRANCH   1  23
TORSDOF 8
ENDMDL
MODEL 6
REMARK VINA RESULT:    -7.888      2.541      4.467
REMARK INTER + INTRA:         -11.994
REMARK INTER:                 -11.312
REMARK INTRA:                  -0.682
REMARK UNBOUND:                -0.648
REMARK SMILES COc1ccc(Nc2nc(NCCCO)c3ccccc3n2)cc1
REMARK SMILES IDX 11 1 10 3 8 4 9 5 22 6 21 7 16 8 20 9 17 10 19 11 18 12 7 13
REMARK SMILES IDX 6 15 3 16 4 17 24 18 5 19 23 20 2 21 1 22 12 23 13 24 14 25
REMARK SMILES IDX 15 26
REMARK H PARENT 11 2 7 14 15 27
ROOT
ATOM      1  N   UNL     1       6.756  47.069  52.331  1.00  0.00    -0.369 N 
ATOM      2  H   UNL     1       6.089  47.830  52.229  1.00  0.00     0.162 HD
ENDROOT
BRANCH   1   3
ATOM      3  C   UNL     1       6.061  45.852  52.123  1.00  0.00     0.139 A 
ATOM      4  C   UNL     1       4.351  44.418  52.696  1.00  0.00     0.229 A 
ATOM      5  N   UNL     1       5.009  45.562  52.907  1.00  0.00    -0.195 NA
ATOM      6  N   UNL     1       4.686  43.539  51.741  1.00  0.00    -0.213 NA
ATOM      7  C   UNL     1       5.745  43.811  50.975  1.00  0.00     0.078 A 
ATOM      8  C   UNL     1       6.502  44.976  51.119  1.00  0.00     0.043 A 
ATOM      9  C   UNL     1       6.112  42.898  49.993  1.00  0.00     0.029 A 
ATOM     10  C   UNL     1       7.629  45.186  50.283  1.00  0.00     0.014 A 
ATOM     11  C   UNL     1       7.214  43.107  49.160  1.00  0.00     0.002 A 
ATOM     12  C   UNL     1       7.979  44.255  49.307  1.00  0.00     0.001 A 
BRANCH   4  13
ATOM     13  N   UNL     1       3.240  44.053  53.451  1.00  0.00    -0.324 N 
ATOM     14  H   UNL     1       3.538  43.886  54.400  1.00  0.00     0.170 HD
BRANCH  13  15
ATOM     15  C   UNL     1       1.871  43.952  53.187  1.00  0.00     0.041 A 
ATOM     16  C   UNL     1      -0.891  43.595  52.642  1.00  0.00     0.119 A 
ATOM     17  C   UNL     1      -0.106  42.512  53.022  1.00  0.00     0.048 A 
ATOM     18  C   UNL     1      -0.296  44.851  52.531  1.00  0.00     0.048 A 
ATOM     19  C   UNL     1       1.259  42.692  53.288  1.00  0.00     0.030 A 
ATOM     20  C   UNL     1       1.068  45.025  52.799  1.00  0.00     0.030 A 
BRANCH  16  21
ATOM     21  O   UNL     1      -2.226  43.565  52.353  1.00  0.00    -0.497 OA
ATOM     22  C   UNL     1      -3.109  44.067  53.348  1.00  0.00     0.278 C 
ENDBRANCH  16  21
ENDBRANCH  13  15
ENDBRANCH   4  13
ENDBRANCH   1   3
BRANCH   1  23
ATOM     23  C   UNL     1       7.475  47.151  53.601  1.00  0.00     0.117 C 
BRANCH  23  24
ATOM     24  C   UNL     1       8.959  47.365  53.323  1.00  0.00     0.049 C 
BRANCH  24  25
ATOM     25  C   UNL     1       9.742  47.540  54.614  1.00  0.00     0.158 C 
BRANCH  25  26
ATOM     26  O   UNL     1       9.110  48.514  55.434  1.00  0.00    -0.396 OA
ATOM     27  H   UNL     1       8.326  48.098  55.832  1.00  0.00     0.210 HD
ENDBRANCH  25  26
ENDBRANCH  24  25
ENDBRANCH  23  24
ENDBRANCH   1  23
TORSDOF 8
ENDMDL
MODEL 7
REMARK VINA RESULT:    -7.829      1.854      2.579
REMARK INTER + INTRA:         -11.910
REMARK INTER:                 -10.740
REMARK INTRA:                  -1.170
REMARK UNBOUND:                -0.648
REMARK SMILES COc1ccc(Nc2nc(NCCCO)c3ccccc3n2)cc1
REMARK SMILES IDX 11 1 10 3 8 4 9 5 22 6 21 7 16 8 20 9 17 10 19 11 18 12 7 13
REMARK SMILES IDX 6 15 3 16 4 17 24 18 5 19 23 20 2 21 1 22 12 23 13 24 14 25
REMARK SMILES IDX 15 26
REMARK H PARENT 11 2 7 14 15 27
ROOT
ATOM      1  N   UNL     1       5.827  43.453  49.980  1.00  0.00    -0.369 N 
ATOM      2  H   UNL     1       6.552  43.980  49.499  1.00  0.00     0.162 HD
ENDROOT
BRANCH   1   3
ATOM      3  C   UNL     1       5.538  44.122  51.195  1.00  0.00     0.139 A 
ATOM      4  C   UNL     1       4.232  44.343  53.080  1.00  0.00     0.229 A 
ATOM      5  N   UNL     1       4.490  43.714  51.928  1.00  0.00    -0.195 NA
ATOM      6  N   UNL     1       4.966  45.364  53.545  1.00  0.00    -0.213 NA
ATOM      7  C   UNL     1       5.995  45.788  52.808  1.00  0.00     0.078 A 
ATOM      8  C   UNL     1       6.343  45.203  51.588  1.00  0.00     0.043 A 
ATOM      9  C   UNL     1       6.753  46.857  53.272  1.00  0.00     0.029 A 
ATOM     10  C   UNL     1       7.438  45.723  50.849  1.00  0.00     0.014 A 
ATOM     11  C   UNL     1       7.838  47.365  52.552  1.00  0.00     0.002 A 
ATOM     12  C   UNL     1       8.180  46.797  51.333  1.00  0.00     0.001 A 
BRANCH   4  13
ATOM     13  N   UNL     1       3.176  43.969  53.907  1.00  0.00    -0.324 N 
ATOM     14  H   UNL     1       3.527  43.866  54.848  1.00  0.00     0.170 HD
BRANCH  13  15
ATOM     15  C   UNL     1       1.803  43.792  53.717  1.00  0.00     0.041 A 
ATOM     16  C   UNL     1      -0.955  43.305  53.254  1.00  0.00     0.119 A 
ATOM     17  C   UNL     1      -0.021  42.292  53.060  1.00  0.00     0.048 A 
ATOM     18  C   UNL     1      -0.509  44.557  53.675  1.00  0.00     0.048 A 
ATOM     19  C   UNL     1       1.340  42.538  53.287  1.00  0.00     0.030 A 
ATOM     20  C   UNL     1       0.852  44.797  53.901  1.00  0.00     0.030 A 
BRANCH  16  21
ATOM     21  O   UNL     1      -2.305  43.207  53.071  1.00  0.00    -0.497 OA
ATOM     22  C   UNL     1      -2.801  43.524  51.776  1.00  0.00     0.278 C 
ENDBRANCH  16  21
ENDBRANCH  13  15
ENDBRANCH   4  13
ENDBRANCH   1   3
BRANCH   1  23
ATOM     23  C   UNL     1       6.195  42.047  50.131  1.00  0.00     0.117 C 
BRANCH  23  24
ATOM     24  C   UNL     1       5.525  41.233  49.029  1.00  0.00     0.049 C 
BRANCH  24  25
ATOM     25  C   UNL     1       4.088  40.895  49.390  1.00  0.00     0.158 C 
BRANCH  25  26
ATOM     26  O   UNL     1       3.917  40.961  50.800  1.00  0.00    -0.396 OA
ATOM     27  H   UNL     1       3.959  40.053  51.144  1.00  0.00     0.210 HD
ENDBRANCH  25  26
ENDBRANCH  24  25
ENDBRANCH  23  24
ENDBRANCH   1  23
TORSDOF 8
ENDMDL
MODEL 8
REMARK VINA RESULT:    -7.790      2.754      4.632
REMARK INTER + INTRA:         -11.853
REMARK INTER:                 -10.834
REMARK INTRA:                  -1.019
REMARK UNBOUND:                -0.648
REMARK SMILES COc1ccc(Nc2nc(NCCCO)c3ccccc3n2)cc1
REMARK SMILES IDX 11 1 10 3 8 4 9 5 22 6 21 7 16 8 20 9 17 10 19 11 18 12 7 13
REMARK SMILES IDX 6 15 3 16 4 17 24 18 5 19 23 20 2 21 1 22 12 23 13 24 14 25
REMARK SMILES IDX 15 26
REMARK H PARENT 11 2 7 14 15 27
ROOT
ATOM      1  N   UNL     1       5.231  46.470  52.360  1.00  0.00    -0.369 N 
ATOM      2  H   UNL     1       4.813  47.125  51.703  1.00  0.00     0.162 HD
ENDROOT
BRANCH   1   3
ATOM      3  C   UNL     1       5.074  45.166  51.829  1.00  0.00     0.139 A 
ATOM      4  C   UNL     1       3.863  43.211  51.686  1.00  0.00     0.229 A 
ATOM      5  N   UNL     1       4.010  44.436  52.201  1.00  0.00    -0.195 NA
ATOM      6  N   UNL     1       4.725  42.668  50.815  1.00  0.00    -0.213 NA
ATOM      7  C   UNL     1       5.797  43.380  50.461  1.00  0.00     0.078 A 
ATOM      8  C   UNL     1       6.045  44.666  50.947  1.00  0.00     0.043 A 
ATOM      9  C   UNL     1       6.707  42.819  49.572  1.00  0.00     0.029 A 
ATOM     10  C   UNL     1       7.219  45.353  50.542  1.00  0.00     0.014 A 
ATOM     11  C   UNL     1       7.859  43.497  49.162  1.00  0.00     0.002 A 
ATOM     12  C   UNL     1       8.118  44.770  49.652  1.00  0.00     0.001 A 
BRANCH   4  13
ATOM     13  N   UNL     1       2.778  42.400  52.005  1.00  0.00    -0.324 N 
ATOM     14  H   UNL     1       3.094  41.442  52.046  1.00  0.00     0.170 HD
BRANCH  13  15
ATOM     15  C   UNL     1       1.440  42.642  52.330  1.00  0.00     0.041 A 
ATOM     16  C   UNL     1      -1.294  43.198  52.853  1.00  0.00     0.119 A 
ATOM     17  C   UNL     1      -0.801  43.263  51.554  1.00  0.00     0.048 A 
ATOM     18  C   UNL     1      -0.421  42.859  53.886  1.00  0.00     0.048 A 
ATOM     19  C   UNL     1       0.551  42.990  51.300  1.00  0.00     0.030 A 
ATOM     20  C   UNL     1       0.928  42.587  53.627  1.00  0.00     0.030 A 
BRANCH  16  21
ATOM     21  O   UNL     1      -2.580  43.438  53.243  1.00  0.00    -0.497 OA
ATOM     22  C   UNL     1      -3.588  43.307  52.248  1.00  0.00     0.278 C 
ENDBRANCH  16  21
ENDBRANCH  13  15
ENDBRANCH   4  13
ENDBRANCH   1   3
BRANCH   1  23
ATOM     23  C   UNL     1       4.697  46.647  53.709  1.00  0.00     0.117 C 
BRANCH  23  24
ATOM     24  C   UNL     1       5.798  46.358  54.724  1.00  0.00     0.049 C 
BRANCH  24  25
ATOM     25  C   UNL     1       5.600  45.001  55.380  1.00  0.00     0.158 C 
BRANCH  25  26
ATOM     26  O   UNL     1       4.215  44.680  55.415  1.00  0.00    -0.396 OA
ATOM     27  H   UNL     1       3.782  45.315  56.011  1.00  0.00     0.210 HD
ENDBRANCH  25  26
ENDBRANCH  24  25
ENDBRANCH  23  24
ENDBRANCH   1  23
TORSDOF 8
ENDMDL
MODEL 9
REMARK VINA RESULT:    -7.779      2.480      6.708
REMARK INTER + INTRA:         -11.837
REMARK INTER:                 -11.204
REMARK INTRA:                  -0.633
REMARK UNBOUND:                -0.648
REMARK SMILES COc1ccc(Nc2nc(NCCCO)c3ccccc3n2)cc1
REMARK SMILES IDX 11 1 10 3 8 4 9 5 22 6 21 7 16 8 20 9 17 10 19 11 18 12 7 13
REMARK SMILES IDX 6 15 3 16 4 17 24 18 5 19 23 20 2 21 1 22 12 23 13 24 14 25
REMARK SMILES IDX 15 26
REMARK H PARENT 11 2 7 14 15 27
ROOT
ATOM      1  N   UNL     1       3.121  42.010  50.845  1.00  0.00    -0.369 N 
ATOM      2  H   UNL     1       2.814  42.217  49.898  1.00  0.00     0.162 HD
ENDROOT
BRANCH   1   3
ATOM      3  C   UNL     1       3.208  43.235  51.551  1.00  0.00     0.139 A 
ATOM      4  C   UNL     1       4.292  45.231  51.939  1.00  0.00     0.229 A 
ATOM      5  N   UNL     1       4.224  44.071  51.278  1.00  0.00    -0.195 NA
ATOM      6  N   UNL     1       3.398  45.607  52.865  1.00  0.00    -0.213 NA
ATOM      7  C   UNL     1       2.400  44.770  53.156  1.00  0.00     0.078 A 
ATOM      8  C   UNL     1       2.244  43.533  52.527  1.00  0.00     0.043 A 
ATOM      9  C   UNL     1       1.478  45.142  54.127  1.00  0.00     0.029 A 
ATOM     10  C   UNL     1       1.171  42.685  52.905  1.00  0.00     0.014 A 
ATOM     11  C   UNL     1       0.413  44.315  54.495  1.00  0.00     0.002 A 
ATOM     12  C   UNL     1       0.260  43.078  53.883  1.00  0.00     0.001 A 
BRANCH   4  13
ATOM     13  N   UNL     1       5.301  46.160  51.702  1.00  0.00    -0.324 N 
ATOM     14  H   UNL     1       4.989  46.796  50.982  1.00  0.00     0.170 HD
BRANCH  13  15
ATOM     15  C   UNL     1       6.550  46.414  52.277  1.00  0.00     0.041 A 
ATOM     16  C   UNL     1       9.148  46.897  53.309  1.00  0.00     0.119 A 
ATOM     17  C   UNL     1       8.940  46.838  51.936  1.00  0.00     0.048 A 
ATOM     18  C   UNL     1       8.062  46.711  54.163  1.00  0.00     0.048 A 
ATOM     19  C   UNL     1       7.654  46.597  51.430  1.00  0.00     0.030 A 
ATOM     20  C   UNL     1       6.780  46.471  53.652  1.00  0.00     0.030 A 
BRANCH  16  21
ATOM     21  O   UNL     1      10.340  47.122  53.938  1.00  0.00    -0.497 OA
ATOM     22  C   UNL     1      10.282  47.495  55.309  1.00  0.00     0.278 C 
ENDBRANCH  16  21
ENDBRANCH  13  15
ENDBRANCH   4  13
ENDBRANCH   1   3
BRANCH   1  23
ATOM     23  C   UNL     1       4.347  41.214  50.851  1.00  0.00     0.117 C 
BRANCH  23  24
ATOM     24  C   UNL     1       4.979  41.260  49.463  1.00  0.00     0.049 C 
BRANCH  24  25
ATOM     25  C   UNL     1       6.401  41.792  49.522  1.00  0.00     0.158 C 
BRANCH  25  26
ATOM     26  O   UNL     1       7.265  40.803  50.066  1.00  0.00    -0.396 OA
ATOM     27  H   UNL     1       8.172  41.022  49.792  1.00  0.00     0.210 HD
ENDBRANCH  25  26
ENDBRANCH  24  25
ENDBRANCH  23  24
ENDBRANCH   1  23
TORSDOF 8
ENDMDL
MODEL 10
REMARK VINA RESULT:    -7.751      2.824      6.174
REMARK INTER + INTRA:         -11.797
REMARK INTER:                 -10.969
REMARK INTRA:                  -0.828
REMARK UNBOUND:                -0.648
REMARK SMILES COc1ccc(Nc2nc(NCCCO)c3ccccc3n2)cc1
REMARK SMILES IDX 11 1 10 3 8 4 9 5 22 6 21 7 16 8 20 9 17 10 19 11 18 12 7 13
REMARK SMILES IDX 6 15 3 16 4 17 24 18 5 19 23 20 2 21 1 22 12 23 13 24 14 25
REMARK SMILES IDX 15 26
REMARK H PARENT 11 2 7 14 15 27
ROOT
ATOM      1  N   UNL     1       4.788  46.068  51.582  1.00  0.00    -0.369 N 
ATOM      2  H   UNL     1       4.146  46.247  50.813  1.00  0.00     0.162 HD
ENDROOT
BRANCH   1   3
ATOM      3  C   UNL     1       5.945  45.449  51.047  1.00  0.00     0.139 A 
ATOM      4  C   UNL     1       6.896  43.802  49.748  1.00  0.00     0.229 A 
ATOM      5  N   UNL     1       5.800  44.373  50.258  1.00  0.00    -0.195 NA
ATOM      6  N   UNL     1       8.138  44.248  49.982  1.00  0.00    -0.213 NA
ATOM      7  C   UNL     1       8.289  45.305  50.785  1.00  0.00     0.078 A 
ATOM      8  C   UNL     1       7.209  45.967  51.372  1.00  0.00     0.043 A 
ATOM      9  C   UNL     1       9.573  45.765  51.049  1.00  0.00     0.029 A 
ATOM     10  C   UNL     1       7.448  47.070  52.233  1.00  0.00     0.014 A 
ATOM     11  C   UNL     1       9.812  46.857  51.887  1.00  0.00     0.002 A 
ATOM     12  C   UNL     1       8.744  47.511  52.485  1.00  0.00     0.001 A 
BRANCH   4  13
ATOM     13  N   UNL     1       6.831  42.695  48.906  1.00  0.00    -0.324 N 
ATOM     14  H   UNL     1       7.772  42.402  48.687  1.00  0.00     0.170 HD
BRANCH  13  15
ATOM     15  C   UNL     1       5.788  41.916  48.397  1.00  0.00     0.041 A 
ATOM     16  C   UNL     1       3.687  40.406  47.231  1.00  0.00     0.119 A 
ATOM     17  C   UNL     1       4.569  41.119  46.425  1.00  0.00     0.048 A 
ATOM     18  C   UNL     1       3.854  40.451  48.614  1.00  0.00     0.048 A 
ATOM     19  C   UNL     1       5.604  41.866  47.006  1.00  0.00     0.030 A 
ATOM     20  C   UNL     1       4.890  41.198  49.188  1.00  0.00     0.030 A 
BRANCH  16  21
ATOM     21  O   UNL     1       2.639  39.641  46.803  1.00  0.00    -0.497 OA
ATOM     22  C   UNL     1       2.707  38.248  47.081  1.00  0.00     0.278 C 
ENDBRANCH  16  21
ENDBRANCH  13  15
ENDBRANCH   4  13
ENDBRANCH   1   3
BRANCH   1  23
ATOM     23  C   UNL     1       4.140  45.321  52.659  1.00  0.00     0.117 C 
BRANCH  23  24
ATOM     24  C   UNL     1       3.435  46.301  53.593  1.00  0.00     0.049 C 
BRANCH  24  25
ATOM     25  C   UNL     1       4.426  46.990  54.517  1.00  0.00     0.158 C 
BRANCH  25  26
ATOM     26  O   UNL     1       4.713  48.294  54.031  1.00  0.00    -0.396 OA
ATOM     27  H   UNL     1       4.933  48.214  53.087  1.00  0.00     0.210 HD
ENDBRANCH  25  26
ENDBRANCH  24  25
ENDBRANCH  23  24
ENDBRANCH   1  23
TORSDOF 8
ENDMDL
MODEL 11
REMARK VINA RESULT:    -7.745      2.964      6.785
REMARK INTER + INTRA:         -11.789
REMARK INTER:                 -11.222
REMARK INTRA:                  -0.567
REMARK UNBOUND:                -0.648
REMARK SMILES COc1ccc(Nc2nc(NCCCO)c3ccccc3n2)cc1
REMARK SMILES IDX 11 1 10 3 8 4 9 5 22 6 21 7 16 8 20 9 17 10 19 11 18 12 7 13
REMARK SMILES IDX 6 15 3 16 4 17 24 18 5 19 23 20 2 21 1 22 12 23 13 24 14 25
REMARK SMILES IDX 15 26
REMARK H PARENT 11 2 7 14 15 27
ROOT
ATOM      1  N   UNL     1       5.032  41.448  50.450  1.00  0.00    -0.369 N 
ATOM      2  H   UNL     1       4.215  40.983  50.838  1.00  0.00     0.162 HD
ENDROOT
BRANCH   1   3
ATOM      3  C   UNL     1       4.944  42.824  50.775  1.00  0.00     0.139 A 
ATOM      4  C   UNL     1       5.980  44.844  51.165  1.00  0.00     0.229 A 
ATOM      5  N   UNL     1       6.074  43.543  50.870  1.00  0.00    -0.195 NA
ATOM      6  N   UNL     1       4.815  45.473  51.372  1.00  0.00    -0.213 NA
ATOM      7  C   UNL     1       3.690  44.757  51.301  1.00  0.00     0.078 A 
ATOM      8  C   UNL     1       3.681  43.392  51.006  1.00  0.00     0.043 A 
ATOM      9  C   UNL     1       2.477  45.395  51.532  1.00  0.00     0.029 A 
ATOM     10  C   UNL     1       2.447  42.691  50.970  1.00  0.00     0.014 A 
ATOM     11  C   UNL     1       1.259  44.711  51.486  1.00  0.00     0.002 A 
ATOM     12  C   UNL     1       1.244  43.351  51.207  1.00  0.00     0.001 A 
BRANCH   4  13
ATOM     13  N   UNL     1       7.102  45.663  51.264  1.00  0.00    -0.324 N 
ATOM     14  H   UNL     1       7.437  45.862  50.332  1.00  0.00     0.170 HD
BRANCH  13  15
ATOM     15  C   UNL     1       7.768  46.283  52.325  1.00  0.00     0.041 A 
ATOM     16  C   UNL     1       9.252  47.504  54.413  1.00  0.00     0.119 A 
ATOM     17  C   UNL     1       9.872  47.175  53.212  1.00  0.00     0.048 A 
ATOM     18  C   UNL     1       7.896  47.219  54.570  1.00  0.00     0.048 A 
ATOM     19  C   UNL     1       9.135  46.570  52.184  1.00  0.00     0.030 A 
ATOM     20  C   UNL     1       7.166  46.615  53.539  1.00  0.00     0.030 A 
BRANCH  16  21
ATOM     21  O   UNL     1       9.844  48.092  55.494  1.00  0.00    -0.497 OA
ATOM     22  C   UNL     1      10.951  47.410  56.070  1.00  0.00     0.278 C 
ENDBRANCH  16  21
ENDBRANCH  13  15
ENDBRANCH   4  13
ENDBRANCH   1   3
BRANCH   1  23
ATOM     23  C   UNL     1       5.183  41.167  49.023  1.00  0.00     0.117 C 
BRANCH  23  24
ATOM     24  C   UNL     1       3.935  40.447  48.522  1.00  0.00     0.049 C 
BRANCH  24  25
ATOM     25  C   UNL     1       3.835  40.509  47.006  1.00  0.00     0.158 C 
BRANCH  25  26
ATOM     26  O   UNL     1       5.027  41.066  46.467  1.00  0.00    -0.396 OA
ATOM     27  H   UNL     1       4.768  41.696  45.772  1.00  0.00     0.210 HD
ENDBRANCH  25  26
ENDBRANCH  24  25
ENDBRANCH  23  24
ENDBRANCH   1  23
TORSDOF 8
ENDMDL
MODEL 12
REMARK VINA RESULT:    -7.734      2.560      4.537
REMARK INTER + INTRA:         -11.773
REMARK INTER:                 -10.976
REMARK INTRA:                  -0.797
REMARK UNBOUND:                -0.648
REMARK SMILES COc1ccc(Nc2nc(NCCCO)c3ccccc3n2)cc1
REMARK SMILES IDX 11 1 10 3 8 4 9 5 22 6 21 7 16 8 20 9 17 10 19 11 18 12 7 13
REMARK SMILES IDX 6 15 3 16 4 17 24 18 5 19 23 20 2 21 1 22 12 23 13 24 14 25
REMARK SMILES IDX 15 26
REMARK H PARENT 11 2 7 14 15 27
ROOT
ATOM      1  N   UNL     1       6.223  46.685  52.588  1.00  0.00    -0.369 N 
ATOM      2  H   UNL     1       5.547  47.429  52.431  1.00  0.00     0.162 HD
ENDROOT
BRANCH   1   3
ATOM      3  C   UNL     1       5.601  45.457  52.252  1.00  0.00     0.139 A 
ATOM      4  C   UNL     1       3.937  43.907  52.619  1.00  0.00     0.229 A 
ATOM      5  N   UNL     1       4.524  45.062  52.950  1.00  0.00    -0.195 NA
ATOM      6  N   UNL     1       4.366  43.119  51.624  1.00  0.00    -0.213 NA
ATOM      7  C   UNL     1       5.451  43.496  50.943  1.00  0.00     0.078 A 
ATOM      8  C   UNL     1       6.140  44.680  51.215  1.00  0.00     0.043 A 
ATOM      9  C   UNL     1       5.916  42.677  49.920  1.00  0.00     0.029 A 
ATOM     10  C   UNL     1       7.299  45.004  50.462  1.00  0.00     0.014 A 
ATOM     11  C   UNL     1       7.050  42.998  49.170  1.00  0.00     0.002 A 
ATOM     12  C   UNL     1       7.747  44.166  49.444  1.00  0.00     0.001 A 
BRANCH   4  13
ATOM     13  N   UNL     1       2.805  43.436  53.280  1.00  0.00    -0.324 N 
ATOM     14  H   UNL     1       2.753  42.436  53.153  1.00  0.00     0.170 HD
BRANCH  13  15
ATOM     15  C   UNL     1       1.833  44.027  54.092  1.00  0.00     0.041 A 
ATOM     16  C   UNL     1      -0.245  45.193  55.634  1.00  0.00     0.119 A 
ATOM     17  C   UNL     1      -0.550  44.368  54.557  1.00  0.00     0.048 A 
ATOM     18  C   UNL     1       1.095  45.437  55.936  1.00  0.00     0.048 A 
ATOM     19  C   UNL     1       0.480  43.795  53.796  1.00  0.00     0.030 A 
ATOM     20  C   UNL     1       2.119  44.862  55.173  1.00  0.00     0.030 A 
BRANCH  16  21
ATOM     21  O   UNL     1      -1.141  45.815  56.456  1.00  0.00    -0.497 OA
ATOM     22  C   UNL     1      -0.606  46.668  57.460  1.00  0.00     0.278 C 
ENDBRANCH  16  21
ENDBRANCH  13  15
ENDBRANCH   4  13
ENDBRANCH   1   3
BRANCH   1  23
ATOM     23  C   UNL     1       6.776  46.739  53.940  1.00  0.00     0.117 C 
BRANCH  23  24
ATOM     24  C   UNL     1       8.296  46.845  53.854  1.00  0.00     0.049 C 
BRANCH  24  25
ATOM     25  C   UNL     1       8.723  47.691  52.666  1.00  0.00     0.158 C 
BRANCH  25  26
ATOM     26  O   UNL     1       7.968  48.896  52.636  1.00  0.00    -0.396 OA
ATOM     27  H   UNL     1       7.094  48.704  53.017  1.00  0.00     0.210 HD
ENDBRANCH  25  26
ENDBRANCH  24  25
ENDBRANCH  23  24
ENDBRANCH   1  23
TORSDOF 8
ENDMDL
MODEL 13
REMARK VINA RESULT:    -7.718      1.746      2.295
REMARK INTER + INTRA:         -11.749
REMARK INTER:                 -11.055
REMARK INTRA:                  -0.694
REMARK UNBOUND:                -0.648
REMARK SMILES COc1ccc(Nc2nc(NCCCO)c3ccccc3n2)cc1
REMARK SMILES IDX 11 1 10 3 8 4 9 5 22 6 21 7 16 8 20 9 17 10 19 11 18 12 7 13
REMARK SMILES IDX 6 15 3 16 4 17 24 18 5 19 23 20 2 21 1 22 12 23 13 24 14 25
REMARK SMILES IDX 15 26
REMARK H PARENT 11 2 7 14 15 27
ROOT
ATOM      1  N   UNL     1       5.232  43.418  51.007  1.00  0.00    -0.369 N 
ATOM      2  H   UNL     1       6.186  43.087  50.887  1.00  0.00     0.162 HD
ENDROOT
BRANCH   1   3
ATOM      3  C   UNL     1       5.215  44.301  52.115  1.00  0.00     0.139 A 
ATOM      4  C   UNL     1       4.289  44.953  54.122  1.00  0.00     0.229 A 
ATOM      5  N   UNL     1       4.290  44.123  53.073  1.00  0.00    -0.195 NA
ATOM      6  N   UNL     1       5.164  45.958  54.269  1.00  0.00    -0.213 NA
ATOM      7  C   UNL     1       6.070  46.153  53.308  1.00  0.00     0.078 A 
ATOM      8  C   UNL     1       6.150  45.346  52.171  1.00  0.00     0.043 A 
ATOM      9  C   UNL     1       6.971  47.203  53.443  1.00  0.00     0.029 A 
ATOM     10  C   UNL     1       7.126  45.628  51.180  1.00  0.00     0.014 A 
ATOM     11  C   UNL     1       7.940  47.477  52.474  1.00  0.00     0.002 A 
ATOM     12  C   UNL     1       8.017  46.687  51.335  1.00  0.00     0.001 A 
BRANCH   4  13
ATOM     13  N   UNL     1       3.377  44.825  55.166  1.00  0.00    -0.324 N 
ATOM     14  H   UNL     1       3.887  44.798  56.036  1.00  0.00     0.170 HD
BRANCH  13  15
ATOM     15  C   UNL     1       1.982  44.802  55.246  1.00  0.00     0.041 A 
ATOM     16  C   UNL     1      -0.839  44.784  55.558  1.00  0.00     0.119 A 
ATOM     17  C   UNL     1      -0.027  45.313  56.555  1.00  0.00     0.048 A 
ATOM     18  C   UNL     1      -0.242  44.262  54.411  1.00  0.00     0.048 A 
ATOM     19  C   UNL     1       1.367  45.318  56.398  1.00  0.00     0.030 A 
ATOM     20  C   UNL     1       1.150  44.270  54.259  1.00  0.00     0.030 A 
BRANCH  16  21
ATOM     21  O   UNL     1      -2.203  44.713  55.577  1.00  0.00    -0.497 OA
ATOM     22  C   UNL     1      -2.829  44.086  54.465  1.00  0.00     0.278 C 
ENDBRANCH  16  21
ENDBRANCH  13  15
ENDBRANCH   4  13
ENDBRANCH   1   3
BRANCH   1  23
ATOM     23  C   UNL     1       4.286  42.307  51.098  1.00  0.00     0.117 C 
BRANCH  23  24
ATOM     24  C   UNL     1       4.670  41.239  50.079  1.00  0.00     0.049 C 
BRANCH  24  25
ATOM     25  C   UNL     1       5.974  41.588  49.380  1.00  0.00     0.158 C 
BRANCH  25  26
ATOM     26  O   UNL     1       7.054  40.908  50.005  1.00  0.00    -0.396 OA
ATOM     27  H   UNL     1       6.954  41.020  50.966  1.00  0.00     0.210 HD
ENDBRANCH  25  26
ENDBRANCH  24  25
ENDBRANCH  23  24
ENDBRANCH   1  23
TORSDOF 8
ENDMDL
MODEL 14
REMARK VINA RESULT:    -7.702      2.428      6.791
REMARK INTER + INTRA:         -11.727
REMARK INTER:                 -11.064
REMARK INTRA:                  -0.663
REMARK UNBOUND:                -0.648
REMARK SMILES COc1ccc(Nc2nc(NCCCO)c3ccccc3n2)cc1
REMARK SMILES IDX 11 1 10 3 8 4 9 5 22 6 21 7 16 8 20 9 17 10 19 11 18 12 7 13
REMARK SMILES IDX 6 15 3 16 4 17 24 18 5 19 23 20 2 21 1 22 12 23 13 24 14 25
REMARK SMILES IDX 15 26
REMARK H PARENT 11 2 7 14 15 27
ROOT
ATOM      1  N   UNL     1       3.230  42.197  52.224  1.00  0.00    -0.369 N 
ATOM      2  H   UNL     1       2.423  41.583  52.315  1.00  0.00     0.162 HD
ENDROOT
BRANCH   1   3
ATOM      3  C   UNL     1       2.919  43.420  52.868  1.00  0.00     0.139 A 
ATOM      4  C   UNL     1       3.556  45.529  53.540  1.00  0.00     0.229 A 
ATOM      5  N   UNL     1       3.862  44.373  52.942  1.00  0.00    -0.195 NA
ATOM      6  N   UNL     1       2.354  45.790  54.073  1.00  0.00    -0.213 NA
ATOM      7  C   UNL     1       1.421  44.836  54.023  1.00  0.00     0.078 A 
ATOM      8  C   UNL     1       1.642  43.593  53.426  1.00  0.00     0.043 A 
ATOM      9  C   UNL     1       0.176  45.089  54.588  1.00  0.00     0.029 A 
ATOM     10  C   UNL     1       0.609  42.620  53.430  1.00  0.00     0.014 A 
ATOM     11  C   UNL     1      -0.847  44.137  54.584  1.00  0.00     0.002 A 
ATOM     12  C   UNL     1      -0.629  42.895  54.005  1.00  0.00     0.001 A 
BRANCH   4  13
ATOM     13  N   UNL     1       4.470  46.575  53.642  1.00  0.00    -0.324 N 
ATOM     14  H   UNL     1       3.997  47.377  54.030  1.00  0.00     0.170 HD
BRANCH  13  15
ATOM     15  C   UNL     1       5.840  46.700  53.396  1.00  0.00     0.041 A 
ATOM     16  C   UNL     1       8.640  47.001  53.042  1.00  0.00     0.119 A 
ATOM     17  C   UNL     1       8.095  46.958  54.321  1.00  0.00     0.048 A 
ATOM     18  C   UNL     1       7.786  46.897  51.945  1.00  0.00     0.048 A 
ATOM     19  C   UNL     1       6.711  46.812  54.492  1.00  0.00     0.030 A 
ATOM     20  C   UNL     1       6.405  46.751  52.121  1.00  0.00     0.030 A 
BRANCH  16  21
ATOM     21  O   UNL     1       9.963  47.139  52.730  1.00  0.00    -0.497 OA
ATOM     22  C   UNL     1      10.537  46.129  51.910  1.00  0.00     0.278 C 
ENDBRANCH  16  21
ENDBRANCH  13  15
ENDBRANCH   4  13
ENDBRANCH   1   3
BRANCH   1  23
ATOM     23  C   UNL     1       3.648  42.331  50.830  1.00  0.00     0.117 C 
BRANCH  23  24
ATOM     24  C   UNL     1       4.704  41.274  50.520  1.00  0.00     0.049 C 
BRANCH  24  25
ATOM     25  C   UNL     1       6.037  41.915  50.171  1.00  0.00     0.158 C 
BRANCH  25  26
ATOM     26  O   UNL     1       6.996  40.906  49.883  1.00  0.00    -0.396 OA
ATOM     27  H   UNL     1       6.527  40.054  49.858  1.00  0.00     0.210 HD
ENDBRANCH  25  26
ENDBRANCH  24  25
ENDBRANCH  23  24
ENDBRANCH   1  23
TORSDOF 8
ENDMDL
MODEL 15
REMARK VINA RESULT:    -7.684      1.971      5.197
REMARK INTER + INTRA:         -11.701
REMARK INTER:                 -11.032
REMARK INTRA:                  -0.669
REMARK UNBOUND:                -0.648
REMARK SMILES COc1ccc(Nc2nc(NCCCO)c3ccccc3n2)cc1
REMARK SMILES IDX 11 1 10 3 8 4 9 5 22 6 21 7 16 8 20 9 17 10 19 11 18 12 7 13
REMARK SMILES IDX 6 15 3 16 4 17 24 18 5 19 23 20 2 21 1 22 12 23 13 24 14 25
REMARK SMILES IDX 15 26
REMARK H PARENT 11 2 7 14 15 27
ROOT
ATOM      1  N   UNL     1       5.308  47.823  53.236  1.00  0.00    -0.369 N 
ATOM      2  H   UNL     1       5.195  48.616  52.609  1.00  0.00     0.162 HD
ENDROOT
BRANCH   1   3
ATOM      3  C   UNL     1       6.344  47.006  52.718  1.00  0.00     0.139 A 
ATOM      4  C   UNL     1       7.046  45.390  51.234  1.00  0.00     0.229 A 
ATOM      5  N   UNL     1       6.060  46.148  51.725  1.00  0.00    -0.195 NA
ATOM      6  N   UNL     1       8.308  45.439  51.682  1.00  0.00    -0.213 NA
ATOM      7  C   UNL     1       8.590  46.273  52.686  1.00  0.00     0.078 A 
ATOM      8  C   UNL     1       7.630  47.102  53.271  1.00  0.00     0.043 A 
ATOM      9  C   UNL     1       9.892  46.319  53.170  1.00  0.00     0.029 A 
ATOM     10  C   UNL     1       7.999  47.947  54.350  1.00  0.00     0.014 A 
ATOM     11  C   UNL     1      10.262  47.158  54.225  1.00  0.00     0.002 A 
ATOM     12  C   UNL     1       9.310  47.974  54.820  1.00  0.00     0.001 A 
BRANCH   4  13
ATOM     13  N   UNL     1       6.839  44.491  50.192  1.00  0.00    -0.324 N 
ATOM     14  H   UNL     1       7.483  44.710  49.446  1.00  0.00     0.170 HD
BRANCH  13  15
ATOM     15  C   UNL     1       6.019  43.372  50.016  1.00  0.00     0.041 A 
ATOM     16  C   UNL     1       4.403  41.094  49.514  1.00  0.00     0.119 A 
ATOM     17  C   UNL     1       5.423  41.437  48.633  1.00  0.00     0.048 A 
ATOM     18  C   UNL     1       4.190  41.890  50.639  1.00  0.00     0.048 A 
ATOM     19  C   UNL     1       6.217  42.565  48.884  1.00  0.00     0.030 A 
ATOM     20  C   UNL     1       4.987  43.014  50.885  1.00  0.00     0.030 A 
BRANCH  16  21
ATOM     21  O   UNL     1       3.555  40.029  49.395  1.00  0.00    -0.497 OA
ATOM     22  C   UNL     1       3.347  39.519  48.084  1.00  0.00     0.278 C 
ENDBRANCH  16  21
ENDBRANCH  13  15
ENDBRANCH   4  13
ENDBRANCH   1   3
BRANCH   1  23
ATOM     23  C   UNL     1       4.040  47.131  53.459  1.00  0.00     0.117 C 
BRANCH  23  24
ATOM     24  C   UNL     1       4.183  46.200  54.660  1.00  0.00     0.049 C 
BRANCH  24  25
ATOM     25  C   UNL     1       3.301  44.971  54.512  1.00  0.00     0.158 C 
BRANCH  25  26
ATOM     26  O   UNL     1       2.711  44.648  55.765  1.00  0.00    -0.396 OA
ATOM     27  H   UNL     1       1.831  44.273  55.587  1.00  0.00     0.210 HD
ENDBRANCH  25  26
ENDBRANCH  24  25
ENDBRANCH  23  24
ENDBRANCH   1  23
TORSDOF 8
ENDMDL
MODEL 16
REMARK VINA RESULT:    -7.624      2.625      4.826
REMARK INTER + INTRA:         -11.615
REMARK INTER:                 -10.773
REMARK INTRA:                  -0.842
REMARK UNBOUND:                -0.648
REMARK SMILES COc1ccc(Nc2nc(NCCCO)c3ccccc3n2)cc1
REMARK SMILES IDX 11 1 10 3 8 4 9 5 22 6 21 7 16 8 20 9 17 10 19 11 18 12 7 13
REMARK SMILES IDX 6 15 3 16 4 17 24 18 5 19 23 20 2 21 1 22 12 23 13 24 14 25
REMARK SMILES IDX 15 26
REMARK H PARENT 11 2 7 14 15 27
ROOT
ATOM      1  N   UNL     1       5.073  46.340  51.967  1.00  0.00    -0.369 N 
ATOM      2  H   UNL     1       4.524  46.944  51.361  1.00  0.00     0.162 HD
ENDROOT
BRANCH   1   3
ATOM      3  C   UNL     1       4.468  45.058  51.965  1.00  0.00     0.139 A 
ATOM      4  C   UNL     1       2.805  43.645  52.703  1.00  0.00     0.229 A 
ATOM      5  N   UNL     1       3.377  44.854  52.720  1.00  0.00    -0.195 NA
ATOM      6  N   UNL     1       3.264  42.622  51.969  1.00  0.00    -0.213 NA
ATOM      7  C   UNL     1       4.362  42.813  51.235  1.00  0.00     0.078 A 
ATOM      8  C   UNL     1       5.037  44.035  51.189  1.00  0.00     0.043 A 
ATOM      9  C   UNL     1       4.857  41.753  50.484  1.00  0.00     0.029 A 
ATOM     10  C   UNL     1       6.212  44.158  50.402  1.00  0.00     0.014 A 
ATOM     11  C   UNL     1       6.008  41.873  49.699  1.00  0.00     0.002 A 
ATOM     12  C   UNL     1       6.690  43.081  49.660  1.00  0.00     0.001 A 
BRANCH   4  13
ATOM     13  N   UNL     1       1.661  43.357  53.442  1.00  0.00    -0.324 N 
ATOM     14  H   UNL     1       1.318  42.451  53.161  1.00  0.00     0.170 HD
BRANCH  13  15
ATOM     15  C   UNL     1       0.982  44.001  54.480  1.00  0.00     0.041 A 
ATOM     16  C   UNL     1      -0.265  45.320  56.662  1.00  0.00     0.119 A 
ATOM     17  C   UNL     1       1.119  45.350  56.522  1.00  0.00     0.048 A 
ATOM     18  C   UNL     1      -1.021  44.630  55.716  1.00  0.00     0.048 A 
ATOM     19  C   UNL     1       1.731  44.695  55.444  1.00  0.00     0.030 A 
ATOM     20  C   UNL     1      -0.404  43.978  54.640  1.00  0.00     0.030 A 
BRANCH  16  21
ATOM     21  O   UNL     1      -0.990  45.910  57.658  1.00  0.00    -0.497 OA
ATOM     22  C   UNL     1      -1.241  47.304  57.529  1.00  0.00     0.278 C 
ENDBRANCH  16  21
ENDBRANCH  13  15
ENDBRANCH   4  13
ENDBRANCH   1   3
BRANCH   1  23
ATOM     23  C   UNL     1       5.252  46.927  53.293  1.00  0.00     0.117 C 
BRANCH  23  24
ATOM     24  C   UNL     1       6.328  46.149  54.044  1.00  0.00     0.049 C 
BRANCH  24  25
ATOM     25  C   UNL     1       5.774  45.531  55.317  1.00  0.00     0.158 C 
BRANCH  25  26
ATOM     26  O   UNL     1       5.376  44.189  55.069  1.00  0.00    -0.396 OA
ATOM     27  H   UNL     1       6.181  43.672  54.893  1.00  0.00     0.210 HD
ENDBRANCH  25  26
ENDBRANCH  24  25
ENDBRANCH  23  24
ENDBRANCH   1  23
TORSDOF 8
ENDMDL
MODEL 17
REMARK VINA RESULT:    -7.583      3.509      6.841
REMARK INTER + INTRA:         -11.556
REMARK INTER:                 -10.992
REMARK INTRA:                  -0.563
REMARK UNBOUND:                -0.648
REMARK SMILES COc1ccc(Nc2nc(NCCCO)c3ccccc3n2)cc1
REMARK SMILES IDX 11 1 10 3 8 4 9 5 22 6 21 7 16 8 20 9 17 10 19 11 18 12 7 13
REMARK SMILES IDX 6 15 3 16 4 17 24 18 5 19 23 20 2 21 1 22 12 23 13 24 14 25
REMARK SMILES IDX 15 26
REMARK H PARENT 11 2 7 14 15 27
ROOT
ATOM      1  N   UNL     1       6.477  41.838  48.529  1.00  0.00    -0.369 N 
ATOM      2  H   UNL     1       5.999  40.981  48.796  1.00  0.00     0.162 HD
ENDROOT
BRANCH   1   3
ATOM      3  C   UNL     1       6.229  42.805  49.534  1.00  0.00     0.139 A 
ATOM      4  C   UNL     1       6.862  44.719  50.648  1.00  0.00     0.229 A 
ATOM      5  N   UNL     1       7.110  43.804  49.705  1.00  0.00    -0.195 NA
ATOM      6  N   UNL     1       5.779  44.693  51.437  1.00  0.00    -0.213 NA
ATOM      7  C   UNL     1       4.913  43.688  51.286  1.00  0.00     0.078 A 
ATOM      8  C   UNL     1       5.083  42.680  50.335  1.00  0.00     0.043 A 
ATOM      9  C   UNL     1       3.794  43.641  52.111  1.00  0.00     0.029 A 
ATOM     10  C   UNL     1       4.131  41.630  50.249  1.00  0.00     0.014 A 
ATOM     11  C   UNL     1       2.849  42.615  52.021  1.00  0.00     0.002 A 
ATOM     12  C   UNL     1       3.020  41.603  51.088  1.00  0.00     0.001 A 
BRANCH   4  13
ATOM     13  N   UNL     1       7.714  45.797  50.876  1.00  0.00    -0.324 N 
ATOM     14  H   UNL     1       7.927  46.230  49.989  1.00  0.00     0.170 HD
BRANCH  13  15
ATOM     15  C   UNL     1       8.239  46.401  52.021  1.00  0.00     0.041 A 
ATOM     16  C   UNL     1       9.426  47.539  54.334  1.00  0.00     0.119 A 
ATOM     17  C   UNL     1      10.192  46.784  53.453  1.00  0.00     0.048 A 
ATOM     18  C   UNL     1       8.071  47.722  54.062  1.00  0.00     0.048 A 
ATOM     19  C   UNL     1       9.600  46.221  52.313  1.00  0.00     0.030 A 
ATOM     20  C   UNL     1       7.486  47.158  52.921  1.00  0.00     0.030 A 
BRANCH  16  21
ATOM     21  O   UNL     1       9.868  48.142  55.478  1.00  0.00    -0.497 OA
ATOM     22  C   UNL     1      11.008  47.568  56.106  1.00  0.00     0.278 C 
ENDBRANCH  16  21
ENDBRANCH  13  15
ENDBRANCH   4  13
ENDBRANCH   1   3
BRANCH   1  23
ATOM     23  C   UNL     1       6.110  42.257  47.177  1.00  0.00     0.117 C 
BRANCH  23  24
ATOM     24  C   UNL     1       5.048  41.308  46.630  1.00  0.00     0.049 C 
BRANCH  24  25
ATOM     25  C   UNL     1       4.867  41.489  45.132  1.00  0.00     0.158 C 
BRANCH  25  26
ATOM     26  O   UNL     1       5.295  42.789  44.747  1.00  0.00    -0.396 OA
ATOM     27  H   UNL     1       4.568  43.406  44.940  1.00  0.00     0.210 HD
ENDBRANCH  25  26
ENDBRANCH  24  25
ENDBRANCH  23  24
ENDBRANCH   1  23
TORSDOF 8
ENDMDL
MODEL 18
REMARK VINA RESULT:    -7.478      3.411      7.122
REMARK INTER + INTRA:         -11.404
REMARK INTER:                 -10.477
REMARK INTRA:                  -0.927
REMARK UNBOUND:                -0.648
REMARK SMILES COc1ccc(Nc2nc(NCCCO)c3ccccc3n2)cc1
REMARK SMILES IDX 11 1 10 3 8 4 9 5 22 6 21 7 16 8 20 9 17 10 19 11 18 12 7 13
REMARK SMILES IDX 6 15 3 16 4 17 24 18 5 19 23 20 2 21 1 22 12 23 13 24 14 25
REMARK SMILES IDX 15 26
REMARK H PARENT 11 2 7 14 15 27
ROOT
ATOM      1  N   UNL     1       3.386  43.136  53.076  1.00  0.00    -0.369 N 
ATOM      2  H   UNL     1       3.705  43.646  53.896  1.00  0.00     0.162 HD
ENDROOT
BRANCH   1   3
ATOM      3  C   UNL     1       4.375  43.270  52.070  1.00  0.00     0.139 A 
ATOM      4  C   UNL     1       5.437  42.436  50.203  1.00  0.00     0.229 A 
ATOM      5  N   UNL     1       4.510  42.295  51.156  1.00  0.00    -0.195 NA
ATOM      6  N   UNL     1       6.245  43.501  50.111  1.00  0.00    -0.213 NA
ATOM      7  C   UNL     1       6.131  44.462  51.031  1.00  0.00     0.078 A 
ATOM      8  C   UNL     1       5.199  44.407  52.069  1.00  0.00     0.043 A 
ATOM      9  C   UNL     1       6.976  45.563  50.954  1.00  0.00     0.029 A 
ATOM     10  C   UNL     1       5.152  45.456  53.024  1.00  0.00     0.014 A 
ATOM     11  C   UNL     1       6.925  46.603  51.886  1.00  0.00     0.002 A 
ATOM     12  C   UNL     1       6.010  46.548  52.928  1.00  0.00     0.001 A 
BRANCH   4  13
ATOM     13  N   UNL     1       5.627  41.480  49.209  1.00  0.00    -0.324 N 
ATOM     14  H   UNL     1       6.302  40.805  49.536  1.00  0.00     0.170 HD
BRANCH  13  15
ATOM     15  C   UNL     1       5.050  41.246  47.957  1.00  0.00     0.041 A 
ATOM     16  C   UNL     1       3.798  40.657  45.479  1.00  0.00     0.119 A 
ATOM     17  C   UNL     1       3.279  40.150  46.665  1.00  0.00     0.048 A 
ATOM     18  C   UNL     1       4.942  41.453  45.532  1.00  0.00     0.048 A 
ATOM     19  C   UNL     1       3.902  40.441  47.887  1.00  0.00     0.030 A 
ATOM     20  C   UNL     1       5.559  41.742  46.756  1.00  0.00     0.030 A 
BRANCH  16  21
ATOM     21  O   UNL     1       3.298  40.455  44.224  1.00  0.00    -0.497 OA
ATOM     22  C   UNL     1       3.875  39.399  43.466  1.00  0.00     0.278 C 
ENDBRANCH  16  21
ENDBRANCH  13  15
ENDBRANCH   4  13
ENDBRANCH   1   3
BRANCH   1  23
ATOM     23  C   UNL     1       2.045  43.553  52.670  1.00  0.00     0.117 C 
BRANCH  23  24
ATOM     24  C   UNL     1       1.218  43.856  53.916  1.00  0.00     0.049 C 
BRANCH  24  25
ATOM     25  C   UNL     1       1.795  45.031  54.688  1.00  0.00     0.158 C 
BRANCH  25  26
ATOM     26  O   UNL     1       2.687  44.560  55.690  1.00  0.00    -0.396 OA
ATOM     27  H   UNL     1       3.560  44.445  55.276  1.00  0.00     0.210 HD
ENDBRANCH  25  26
ENDBRANCH  24  25
ENDBRANCH  23  24
ENDBRANCH   1  23
TORSDOF 8
ENDMDL
MODEL 19
REMARK VINA RESULT:    -7.474      3.107      7.657
REMARK INTER + INTRA:         -11.399
REMARK INTER:                 -10.496
REMARK INTRA:                  -0.903
REMARK UNBOUND:                -0.648
REMARK SMILES COc1ccc(Nc2nc(NCCCO)c3ccccc3n2)cc1
REMARK SMILES IDX 11 1 10 3 8 4 9 5 22 6 21 7 16 8 20 9 17 10 19 11 18 12 7 13
REMARK SMILES IDX 6 15 3 16 4 17 24 18 5 19 23 20 2 21 1 22 12 23 13 24 14 25
REMARK SMILES IDX 15 26
REMARK H PARENT 11 2 7 14 15 27
ROOT
ATOM      1  N   UNL     1       3.106  45.861  55.702  1.00  0.00    -0.369 N 
ATOM      2  H   UNL     1       3.065  45.542  56.667  1.00  0.00     0.162 HD
ENDROOT
BRANCH   1   3
ATOM      3  C   UNL     1       2.303  44.992  54.923  1.00  0.00     0.139 A 
ATOM      4  C   UNL     1       2.085  43.560  53.132  1.00  0.00     0.229 A 
ATOM      5  N   UNL     1       2.847  44.388  53.854  1.00  0.00    -0.195 NA
ATOM      6  N   UNL     1       0.802  43.299  53.417  1.00  0.00    -0.213 NA
ATOM      7  C   UNL     1       0.250  43.915  54.465  1.00  0.00     0.078 A 
ATOM      8  C   UNL     1       0.958  44.802  55.278  1.00  0.00     0.043 A 
ATOM      9  C   UNL     1      -1.085  43.665  54.759  1.00  0.00     0.029 A 
ATOM     10  C   UNL     1       0.298  45.438  56.362  1.00  0.00     0.014 A 
ATOM     11  C   UNL     1      -1.736  44.280  55.832  1.00  0.00     0.002 A 
ATOM     12  C   UNL     1      -1.042  45.173  56.636  1.00  0.00     0.001 A 
BRANCH   4  13
ATOM     13  N   UNL     1       2.579  42.880  52.021  1.00  0.00    -0.324 N 
ATOM     14  H   UNL     1       1.834  42.322  51.630  1.00  0.00     0.170 HD
BRANCH  13  15
ATOM     15  C   UNL     1       3.801  42.876  51.343  1.00  0.00     0.041 A 
ATOM     16  C   UNL     1       6.286  42.715  49.983  1.00  0.00     0.119 A 
ATOM     17  C   UNL     1       5.522  41.571  50.183  1.00  0.00     0.048 A 
ATOM     18  C   UNL     1       5.811  43.935  50.464  1.00  0.00     0.048 A 
ATOM     19  C   UNL     1       4.296  41.654  50.858  1.00  0.00     0.030 A 
ATOM     20  C   UNL     1       4.585  44.012  51.137  1.00  0.00     0.030 A 
BRANCH  16  21
ATOM     21  O   UNL     1       7.494  42.781  49.347  1.00  0.00    -0.497 OA
ATOM     22  C   UNL     1       8.148  44.043  49.341  1.00  0.00     0.278 C 
ENDBRANCH  16  21
ENDBRANCH  13  15
ENDBRANCH   4  13
ENDBRANCH   1   3
BRANCH   1  23
ATOM     23  C   UNL     1       4.487  45.993  55.239  1.00  0.00     0.117 C 
BRANCH  23  24
ATOM     24  C   UNL     1       4.697  47.401  54.690  1.00  0.00     0.049 C 
BRANCH  24  25
ATOM     25  C   UNL     1       4.468  47.446  53.188  1.00  0.00     0.158 C 
BRANCH  25  26
ATOM     26  O   UNL     1       3.075  47.520  52.915  1.00  0.00    -0.396 OA
ATOM     27  H   UNL     1       2.898  48.394  52.525  1.00  0.00     0.210 HD
ENDBRANCH  25  26
ENDBRANCH  24  25
ENDBRANCH  23  24
ENDBRANCH   1  23
TORSDOF 8
ENDMDL
MODEL 20
REMARK VINA RESULT:    -7.347      2.118      4.491
REMARK INTER + INTRA:         -11.216
REMARK INTER:                 -10.769
REMARK INTRA:                  -0.447
REMARK UNBOUND:                -0.648
REMARK SMILES COc1ccc(Nc2nc(NCCCO)c3ccccc3n2)cc1
REMARK SMILES IDX 11 1 10 3 8 4 9 5 22 6 21 7 16 8 20 9 17 10 19 11 18 12 7 13
REMARK SMILES IDX 6 15 3 16 4 17 24 18 5 19 23 20 2 21 1 22 12 23 13 24 14 25
REMARK SMILES IDX 15 26
REMARK H PARENT 11 2 7 14 15 27
ROOT
ATOM      1  N   UNL     1       6.898  45.704  51.197  1.00  0.00    -0.369 N 
ATOM      2  H   UNL     1       6.667  46.120  50.298  1.00  0.00     0.162 HD
ENDROOT
BRANCH   1   3
ATOM      3  C   UNL     1       5.867  44.791  51.529  1.00  0.00     0.139 A 
ATOM      4  C   UNL     1       4.106  44.190  52.888  1.00  0.00     0.229 A 
ATOM      5  N   UNL     1       5.084  45.051  52.589  1.00  0.00    -0.195 NA
ATOM      6  N   UNL     1       3.863  43.075  52.185  1.00  0.00    -0.213 NA
ATOM      7  C   UNL     1       4.653  42.800  51.145  1.00  0.00     0.078 A 
ATOM      8  C   UNL     1       5.706  43.631  50.754  1.00  0.00     0.043 A 
ATOM      9  C   UNL     1       4.422  41.637  50.419  1.00  0.00     0.029 A 
ATOM     10  C   UNL     1       6.518  43.261  49.651  1.00  0.00     0.014 A 
ATOM     11  C   UNL     1       5.212  41.275  49.325  1.00  0.00     0.002 A 
ATOM     12  C   UNL     1       6.268  42.090  48.941  1.00  0.00     0.001 A 
BRANCH   4  13
ATOM     13  N   UNL     1       3.240  44.397  53.958  1.00  0.00    -0.324 N 
ATOM     14  H   UNL     1       3.746  44.864  54.695  1.00  0.00     0.170 HD
BRANCH  13  15
ATOM     15  C   UNL     1       1.877  44.167  54.169  1.00  0.00     0.041 A 
ATOM     16  C   UNL     1      -0.878  43.778  54.729  1.00  0.00     0.119 A 
ATOM     17  C   UNL     1      -0.154  44.751  55.411  1.00  0.00     0.048 A 
ATOM     18  C   UNL     1      -0.225  43.001  53.773  1.00  0.00     0.048 A 
ATOM     19  C   UNL     1       1.208  44.937  55.133  1.00  0.00     0.030 A 
ATOM     20  C   UNL     1       1.135  43.192  53.500  1.00  0.00     0.030 A 
BRANCH  16  21
ATOM     21  O   UNL     1      -2.202  43.488  54.898  1.00  0.00    -0.497 OA
ATOM     22  C   UNL     1      -2.801  43.910  56.117  1.00  0.00     0.278 C 
ENDBRANCH  16  21
ENDBRANCH  13  15
ENDBRANCH   4  13
ENDBRANCH   1   3
BRANCH   1  23
ATOM     23  C   UNL     1       7.157  46.725  52.210  1.00  0.00     0.117 C 
BRANCH  23  24
ATOM     24  C   UNL     1       8.472  46.407  52.916  1.00  0.00     0.049 C 
BRANCH  24  25
ATOM     25  C   UNL     1       9.665  46.769  52.046  1.00  0.00     0.158 C 
BRANCH  25  26
ATOM     26  O   UNL     1      10.058  45.643  51.273  1.00  0.00    -0.396 OA
ATOM     27  H   UNL     1      10.105  45.927  50.344  1.00  0.00     0.210 HD
ENDBRANCH  25  26
ENDBRANCH  24  25
ENDBRANCH  23  24
ENDBRANCH   1  23
TORSDOF 8
ENDMDL
