MODEL 1
REMARK VINA RESULT:    -8.784      0.000      0.000
REMARK INTER + INTRA:         -13.185
REMARK INTER:                 -12.122
REMARK INTRA:                  -1.063
REMARK UNBOUND:                -1.063
REMARK SMILES OCCCNc1nc(Nc2ccc(F)cc2)nc2ccccc12
REMARK SMILES IDX 4 1 3 2 2 3 1 4 5 6 6 8 7 9 23 10 8 11 22 12 18 13 17 14
REMARK SMILES IDX 21 15 19 16 20 17 9 18 10 20 11 21 16 22 12 23 15 24 13 25
REMARK SMILES IDX 14 26
REMARK H PARENT 1 5 5 7 9 19
ROOT
ATOM      1  C   UNL     1       2.309  44.243  52.977  1.00  0.00     0.117 C 
ENDROOT
BRANCH   1   2
ATOM      2  C   UNL     1       1.994  44.575  54.438  1.00  0.00     0.049 C 
BRANCH   2   3
ATOM      3  C   UNL     1       3.082  45.436  55.061  1.00  0.00     0.158 C 
BRANCH   3   4
ATOM      4  O   UNL     1       4.221  44.650  55.387  1.00  0.00    -0.396 OA
ATOM      5  H   UNL     1       4.200  43.860  54.818  1.00  0.00     0.210 HD
ENDBRANCH   3   4
ENDBRANCH   2   3
ENDBRANCH   1   2
BRANCH   1   6
ATOM      6  N   UNL     1       3.425  43.298  52.887  1.00  0.00    -0.369 N 
ATOM      7  H   UNL     1       3.835  43.133  53.804  1.00  0.00     0.162 HD
BRANCH   6   8
ATOM      8  C   UNL     1       4.475  43.641  52.002  1.00  0.00     0.139 A 
ATOM      9  N   UNL     1       5.169  44.770  52.220  1.00  0.00    -0.195 NA
ATOM     10  C   UNL     1       4.750  42.800  50.912  1.00  0.00     0.043 A 
ATOM     11  C   UNL     1       6.168  45.078  51.381  1.00  0.00     0.229 A 
ATOM     12  C   UNL     1       4.039  41.616  50.587  1.00  0.00     0.014 A 
ATOM     13  C   UNL     1       5.813  43.208  50.102  1.00  0.00     0.078 A 
ATOM     14  N   UNL     1       6.512  44.320  50.335  1.00  0.00    -0.213 NA
ATOM     15  C   UNL     1       4.397  40.846  49.484  1.00  0.00     0.001 A 
ATOM     16  C   UNL     1       6.155  42.423  49.007  1.00  0.00     0.029 A 
ATOM     17  C   UNL     1       5.463  41.249  48.692  1.00  0.00     0.002 A 
BRANCH  11  18
ATOM     18  N   UNL     1       6.839  46.258  51.689  1.00  0.00    -0.324 N 
ATOM     19  H   UNL     1       6.451  47.003  51.131  1.00  0.00     0.170 HD
BRANCH  18  20
ATOM     20  C   UNL     1       7.887  46.587  52.554  1.00  0.00     0.041 A 
ATOM     21  C   UNL     1       9.242  46.473  52.220  1.00  0.00     0.029 A 
ATOM     22  C   UNL     1       7.568  47.057  53.842  1.00  0.00     0.029 A 
ATOM     23  C   UNL     1      10.245  46.816  53.134  1.00  0.00     0.041 A 
ATOM     24  C   UNL     1       8.565  47.401  54.759  1.00  0.00     0.041 A 
ATOM     25  C   UNL     1       9.897  47.277  54.395  1.00  0.00     0.123 A 
ATOM     26  F   UNL     1      10.857  47.605  55.269  1.00  0.00    -0.207 F 
ENDBRANCH  18  20
ENDBRANCH  11  18
ENDBRANCH   6   8
ENDBRANCH   1   6
TORSDOF 7
ENDMDL
MODEL 2
REMARK VINA RESULT:    -8.767      0.279      1.040
REMARK INTER + INTRA:         -13.161
REMARK INTER:                 -12.104
REMARK INTRA:                  -1.057
REMARK UNBOUND:                -1.063
REMARK SMILES OCCCNc1nc(Nc2ccc(F)cc2)nc2ccccc12
REMARK SMILES IDX 4 1 3 2 2 3 1 4 5 6 6 8 7 9 23 10 8 11 22 12 18 13 17 14
REMARK SMILES IDX 21 15 19 16 20 17 9 18 10 20 11 21 16 22 12 23 15 24 13 25
REMARK SMILES IDX 14 26
REMARK H PARENT 1 5 5 7 9 19
ROOT
ATOM      1  C   UNL     1       2.432  44.643  53.288  1.00  0.00     0.117 C 
ENDROOT
BRANCH   1   2
ATOM      2  C   UNL     1       2.302  44.920  54.788  1.00  0.00     0.049 C 
BRANCH   2   3
ATOM      3  C   UNL     1       3.516  45.662  55.325  1.00  0.00     0.158 C 
BRANCH   3   4
ATOM      4  O   UNL     1       4.591  44.762  55.563  1.00  0.00    -0.396 OA
ATOM      5  H   UNL     1       4.221  43.862  55.556  1.00  0.00     0.210 HD
ENDBRANCH   3   4
ENDBRANCH   2   3
ENDBRANCH   1   2
BRANCH   1   6
ATOM      6  N   UNL     1       3.358  43.534  53.043  1.00  0.00    -0.369 N 
ATOM      7  H   UNL     1       3.770  43.206  53.914  1.00  0.00     0.162 HD
BRANCH   6   8
ATOM      8  C   UNL     1       4.416  43.782  52.135  1.00  0.00     0.139 A 
ATOM      9  N   UNL     1       5.171  44.881  52.298  1.00  0.00    -0.195 NA
ATOM     10  C   UNL     1       4.635  42.881  51.080  1.00  0.00     0.043 A 
ATOM     11  C   UNL     1       6.176  45.098  51.437  1.00  0.00     0.229 A 
ATOM     12  C   UNL     1       3.858  41.724  50.814  1.00  0.00     0.014 A 
ATOM     13  C   UNL     1       5.709  43.196  50.245  1.00  0.00     0.078 A 
ATOM     14  N   UNL     1       6.468  44.279  50.423  1.00  0.00    -0.213 NA
ATOM     15  C   UNL     1       4.164  40.888  49.743  1.00  0.00     0.001 A 
ATOM     16  C   UNL     1       5.997  42.347  49.183  1.00  0.00     0.029 A 
ATOM     17  C   UNL     1       5.241  41.200  48.925  1.00  0.00     0.002 A 
BRANCH  11  18
ATOM     18  N   UNL     1       6.911  46.254  51.688  1.00  0.00    -0.324 N 
ATOM     19  H   UNL     1       6.642  46.958  51.017  1.00  0.00     0.170 HD
BRANCH  18  20
ATOM     20  C   UNL     1       7.896  46.601  52.618  1.00  0.00     0.041 A 
ATOM     21  C   UNL     1       7.623  47.138  53.881  1.00  0.00     0.029 A 
ATOM     22  C   UNL     1       9.246  46.407  52.268  1.00  0.00     0.029 A 
ATOM     23  C   UNL     1       8.655  47.469  54.768  1.00  0.00     0.041 A 
ATOM     24  C   UNL     1      10.280  46.735  53.148  1.00  0.00     0.041 A 
ATOM     25  C   UNL     1       9.974  47.264  54.392  1.00  0.00     0.123 A 
ATOM     26  F   UNL     1      10.962  47.580  55.239  1.00  0.00    -0.207 F 
ENDBRANCH  18  20
ENDBRANCH  11  18
ENDBRANCH   6   8
ENDBRANCH   1   6
TORSDOF 7
ENDMDL
MODEL 3
REMARK VINA RESULT:    -8.738      3.228      6.770
REMARK INTER + INTRA:         -13.121
REMARK INTER:                 -12.503
REMARK INTRA:                  -0.618
REMARK UNBOUND:                -1.063
REMARK SMILES OCCCNc1nc(Nc2ccc(F)cc2)nc2ccccc12
REMARK SMILES IDX 4 1 3 2 2 3 1 4 5 6 6 8 7 9 23 10 8 11 22 12 18 13 17 14
REMARK SMILES IDX 21 15 19 16 20 17 9 18 10 20 11 21 16 22 12 23 15 24 13 25
REMARK SMILES IDX 14 26
REMARK H PARENT 1 5 5 7 9 19
ROOT
ATOM      1  C   UNL     1       6.003  44.058  50.226  1.00  0.00     0.117 C 
ENDROOT
BRANCH   1   2
ATOM      2  C   UNL     1       6.778  43.016  49.415  1.00  0.00     0.049 C 
BRANCH   2   3
ATOM      3  C   UNL     1       6.280  41.607  49.697  1.00  0.00     0.158 C 
BRANCH   3   4
ATOM      4  O   UNL     1       7.344  40.777  50.145  1.00  0.00    -0.396 OA
ATOM      5  H   UNL     1       7.473  40.958  51.092  1.00  0.00     0.210 HD
ENDBRANCH   3   4
ENDBRANCH   2   3
ENDBRANCH   1   2
BRANCH   1   6
ATOM      6  N   UNL     1       6.774  45.297  50.353  1.00  0.00    -0.369 N 
ATOM      7  H   UNL     1       7.763  45.127  50.184  1.00  0.00     0.162 HD
BRANCH   6   8
ATOM      8  C   UNL     1       6.662  45.988  51.584  1.00  0.00     0.139 A 
ATOM      9  N   UNL     1       5.440  46.258  52.072  1.00  0.00    -0.195 NA
ATOM     10  C   UNL     1       7.832  46.386  52.251  1.00  0.00     0.043 A 
ATOM     11  C   UNL     1       5.348  46.904  53.243  1.00  0.00     0.229 A 
ATOM     12  C   UNL     1       9.155  46.177  51.785  1.00  0.00     0.014 A 
ATOM     13  C   UNL     1       7.626  47.046  53.465  1.00  0.00     0.078 A 
ATOM     14  N   UNL     1       6.410  47.295  53.954  1.00  0.00    -0.213 NA
ATOM     15  C   UNL     1      10.252  46.606  52.528  1.00  0.00     0.001 A 
ATOM     16  C   UNL     1       8.735  47.463  54.192  1.00  0.00     0.029 A 
ATOM     17  C   UNL     1      10.040  47.248  53.740  1.00  0.00     0.002 A 
BRANCH  11  18
ATOM     18  N   UNL     1       4.045  47.132  53.677  1.00  0.00    -0.324 N 
ATOM     19  H   UNL     1       3.932  48.120  53.849  1.00  0.00     0.170 HD
BRANCH  18  20
ATOM     20  C   UNL     1       2.939  46.312  53.917  1.00  0.00     0.041 A 
ATOM     21  C   UNL     1       1.896  46.118  53.003  1.00  0.00     0.029 A 
ATOM     22  C   UNL     1       2.859  45.641  55.152  1.00  0.00     0.029 A 
ATOM     23  C   UNL     1       0.812  45.285  53.305  1.00  0.00     0.041 A 
ATOM     24  C   UNL     1       1.780  44.808  55.459  1.00  0.00     0.041 A 
ATOM     25  C   UNL     1       0.765  44.638  54.531  1.00  0.00     0.123 A 
ATOM     26  F   UNL     1      -0.271  43.840  54.820  1.00  0.00    -0.207 F 
ENDBRANCH  18  20
ENDBRANCH  11  18
ENDBRANCH   6   8
ENDBRANCH   1   6
TORSDOF 7
ENDMDL
MODEL 4
REMARK VINA RESULT:    -8.703      3.246      6.822
REMARK INTER + INTRA:         -13.073
REMARK INTER:                 -12.489
REMARK INTRA:                  -0.583
REMARK UNBOUND:                -1.063
REMARK SMILES OCCCNc1nc(Nc2ccc(F)cc2)nc2ccccc12
REMARK SMILES IDX 4 1 3 2 2 3 1 4 5 6 6 8 7 9 23 10 8 11 22 12 18 13 17 14
REMARK SMILES IDX 21 15 19 16 20 17 9 18 10 20 11 21 16 22 12 23 15 24 13 25
REMARK SMILES IDX 14 26
REMARK H PARENT 1 5 5 7 9 19
ROOT
ATOM      1  C   UNL     1       5.970  43.947  50.287  1.00  0.00     0.117 C 
ENDROOT
BRANCH   1   2
ATOM      2  C   UNL     1       6.627  42.946  49.334  1.00  0.00     0.049 C 
BRANCH   2   3
ATOM      3  C   UNL     1       6.251  41.514  49.682  1.00  0.00     0.158 C 
BRANCH   3   4
ATOM      4  O   UNL     1       7.397  40.777  50.088  1.00  0.00    -0.396 OA
ATOM      5  H   UNL     1       7.249  39.849  49.832  1.00  0.00     0.210 HD
ENDBRANCH   3   4
ENDBRANCH   2   3
ENDBRANCH   1   2
BRANCH   1   6
ATOM      6  N   UNL     1       6.772  45.168  50.394  1.00  0.00    -0.369 N 
ATOM      7  H   UNL     1       7.760  44.967  50.253  1.00  0.00     0.162 HD
BRANCH   6   8
ATOM      8  C   UNL     1       6.651  45.901  51.599  1.00  0.00     0.139 A 
ATOM      9  N   UNL     1       5.426  46.167  52.081  1.00  0.00    -0.195 NA
ATOM     10  C   UNL     1       7.815  46.344  52.247  1.00  0.00     0.043 A 
ATOM     11  C   UNL     1       5.326  46.853  53.228  1.00  0.00     0.229 A 
ATOM     12  C   UNL     1       9.141  46.142  51.784  1.00  0.00     0.014 A 
ATOM     13  C   UNL     1       7.602  47.044  53.437  1.00  0.00     0.078 A 
ATOM     14  N   UNL     1       6.383  47.288  53.921  1.00  0.00    -0.213 NA
ATOM     15  C   UNL     1      10.232  46.617  52.508  1.00  0.00     0.001 A 
ATOM     16  C   UNL     1       8.705  47.507  54.144  1.00  0.00     0.029 A 
ATOM     17  C   UNL     1      10.013  47.299  53.695  1.00  0.00     0.002 A 
BRANCH  11  18
ATOM     18  N   UNL     1       4.021  47.074  53.658  1.00  0.00    -0.324 N 
ATOM     19  H   UNL     1       3.911  48.056  53.862  1.00  0.00     0.170 HD
BRANCH  18  20
ATOM     20  C   UNL     1       2.909  46.251  53.863  1.00  0.00     0.041 A 
ATOM     21  C   UNL     1       2.691  45.507  55.029  1.00  0.00     0.029 A 
ATOM     22  C   UNL     1       1.949  46.157  52.838  1.00  0.00     0.029 A 
ATOM     23  C   UNL     1       1.558  44.698  55.171  1.00  0.00     0.041 A 
ATOM     24  C   UNL     1       0.815  45.351  52.974  1.00  0.00     0.041 A 
ATOM     25  C   UNL     1       0.630  44.628  54.142  1.00  0.00     0.123 A 
ATOM     26  F   UNL     1      -0.454  43.854  54.278  1.00  0.00    -0.207 F 
ENDBRANCH  18  20
ENDBRANCH  11  18
ENDBRANCH   6   8
ENDBRANCH   1   6
TORSDOF 7
ENDMDL
MODEL 5
REMARK VINA RESULT:    -8.511      1.053      1.307
REMARK INTER + INTRA:         -12.809
REMARK INTER:                 -11.953
REMARK INTRA:                  -0.855
REMARK UNBOUND:                -1.063
REMARK SMILES OCCCNc1nc(Nc2ccc(F)cc2)nc2ccccc12
REMARK SMILES IDX 4 1 3 2 2 3 1 4 5 6 6 8 7 9 23 10 8 11 22 12 18 13 17 14
REMARK SMILES IDX 21 15 19 16 20 17 9 18 10 20 11 21 16 22 12 23 15 24 13 25
REMARK SMILES IDX 14 26
REMARK H PARENT 1 5 5 7 9 19
ROOT
ATOM      1  C   UNL     1       2.811  44.448  53.370  1.00  0.00     0.117 C 
ENDROOT
BRANCH   1   2
ATOM      2  C   UNL     1       1.337  44.250  53.008  1.00  0.00     0.049 C 
BRANCH   2   3
ATOM      3  C   UNL     1       1.045  42.807  52.628  1.00  0.00     0.158 C 
BRANCH   3   4
ATOM      4  O   UNL     1       1.276  41.939  53.730  1.00  0.00    -0.396 OA
ATOM      5  H   UNL     1       0.652  42.192  54.433  1.00  0.00     0.210 HD
ENDBRANCH   3   4
ENDBRANCH   2   3
ENDBRANCH   1   2
BRANCH   1   6
ATOM      6  N   UNL     1       3.621  43.327  52.885  1.00  0.00    -0.369 N 
ATOM      7  H   UNL     1       4.063  42.837  53.660  1.00  0.00     0.162 HD
BRANCH   6   8
ATOM      8  C   UNL     1       4.630  43.637  51.942  1.00  0.00     0.139 A 
ATOM      9  N   UNL     1       5.364  44.749  52.114  1.00  0.00    -0.195 NA
ATOM     10  C   UNL     1       4.824  42.782  50.845  1.00  0.00     0.043 A 
ATOM     11  C   UNL     1       6.324  45.025  51.220  1.00  0.00     0.229 A 
ATOM     12  C   UNL     1       4.066  41.615  50.568  1.00  0.00     0.014 A 
ATOM     13  C   UNL     1       5.852  43.157  49.976  1.00  0.00     0.078 A 
ATOM     14  N   UNL     1       6.591  44.252  50.163  1.00  0.00    -0.213 NA
ATOM     15  C   UNL     1       4.344  40.829  49.453  1.00  0.00     0.001 A 
ATOM     16  C   UNL     1       6.114  42.356  48.870  1.00  0.00     0.029 A 
ATOM     17  C   UNL     1       5.376  41.200  48.602  1.00  0.00     0.002 A 
BRANCH  11  18
ATOM     18  N   UNL     1       7.041  46.189  51.482  1.00  0.00    -0.324 N 
ATOM     19  H   UNL     1       6.771  46.891  50.810  1.00  0.00     0.170 HD
BRANCH  18  20
ATOM     20  C   UNL     1       8.009  46.547  52.426  1.00  0.00     0.041 A 
ATOM     21  C   UNL     1       9.387  46.408  52.222  1.00  0.00     0.029 A 
ATOM     22  C   UNL     1       7.580  47.073  53.658  1.00  0.00     0.029 A 
ATOM     23  C   UNL     1      10.307  46.782  53.209  1.00  0.00     0.041 A 
ATOM     24  C   UNL     1       8.493  47.448  54.647  1.00  0.00     0.041 A 
ATOM     25  C   UNL     1       9.851  47.299  54.412  1.00  0.00     0.123 A 
ATOM     26  F   UNL     1      10.730  47.657  55.356  1.00  0.00    -0.207 F 
ENDBRANCH  18  20
ENDBRANCH  11  18
ENDBRANCH   6   8
ENDBRANCH   1   6
TORSDOF 7
ENDMDL
MODEL 6
REMARK VINA RESULT:    -8.245      3.231      6.828
REMARK INTER + INTRA:         -12.440
REMARK INTER:                 -11.854
REMARK INTRA:                  -0.586
REMARK UNBOUND:                -1.063
REMARK SMILES OCCCNc1nc(Nc2ccc(F)cc2)nc2ccccc12
REMARK SMILES IDX 4 1 3 2 2 3 1 4 5 6 6 8 7 9 23 10 8 11 22 12 18 13 17 14
REMARK SMILES IDX 21 15 19 16 20 17 9 18 10 20 11 21 16 22 12 23 15 24 13 25
REMARK SMILES IDX 14 26
REMARK H PARENT 1 5 5 7 9 19
ROOT
ATOM      1  C   UNL     1       7.802  43.532  49.659  1.00  0.00     0.117 C 
ENDROOT
BRANCH   1   2
ATOM      2  C   UNL     1       6.552  42.864  49.080  1.00  0.00     0.049 C 
BRANCH   2   3
ATOM      3  C   UNL     1       6.188  41.603  49.847  1.00  0.00     0.158 C 
BRANCH   3   4
ATOM      4  O   UNL     1       7.340  40.800  50.072  1.00  0.00    -0.396 OA
ATOM      5  H   UNL     1       7.328  40.086  49.410  1.00  0.00     0.210 HD
ENDBRANCH   3   4
ENDBRANCH   2   3
ENDBRANCH   1   2
BRANCH   1   6
ATOM      6  N   UNL     1       7.645  44.988  49.697  1.00  0.00    -0.369 N 
ATOM      7  H   UNL     1       8.530  45.454  49.511  1.00  0.00     0.162 HD
BRANCH   6   8
ATOM      8  C   UNL     1       7.115  45.536  50.890  1.00  0.00     0.139 A 
ATOM      9  N   UNL     1       5.786  45.501  51.090  1.00  0.00    -0.195 NA
ATOM     10  C   UNL     1       7.990  46.116  51.822  1.00  0.00     0.043 A 
ATOM     11  C   UNL     1       5.299  46.014  52.229  1.00  0.00     0.229 A 
ATOM     12  C   UNL     1       9.396  46.232  51.667  1.00  0.00     0.014 A 
ATOM     13  C   UNL     1       7.382  46.616  52.975  1.00  0.00     0.078 A 
ATOM     14  N   UNL     1       6.064  46.561  53.178  1.00  0.00    -0.213 NA
ATOM     15  C   UNL     1      10.179  46.820  52.657  1.00  0.00     0.001 A 
ATOM     16  C   UNL     1       8.183  47.197  53.952  1.00  0.00     0.029 A 
ATOM     17  C   UNL     1       9.569  47.301  53.807  1.00  0.00     0.002 A 
BRANCH  11  18
ATOM     18  N   UNL     1       3.916  45.925  52.357  1.00  0.00    -0.324 N 
ATOM     19  H   UNL     1       3.518  46.836  52.186  1.00  0.00     0.170 HD
BRANCH  18  20
ATOM     20  C   UNL     1       3.029  44.890  52.670  1.00  0.00     0.041 A 
ATOM     21  C   UNL     1       2.791  43.788  51.839  1.00  0.00     0.029 A 
ATOM     22  C   UNL     1       2.326  44.955  53.887  1.00  0.00     0.029 A 
ATOM     23  C   UNL     1       1.888  42.784  52.207  1.00  0.00     0.041 A 
ATOM     24  C   UNL     1       1.423  43.957  54.261  1.00  0.00     0.041 A 
ATOM     25  C   UNL     1       1.212  42.878  53.415  1.00  0.00     0.123 A 
ATOM     26  F   UNL     1       0.348  41.919  53.768  1.00  0.00    -0.207 F 
ENDBRANCH  18  20
ENDBRANCH  11  18
ENDBRANCH   6   8
ENDBRANCH   1   6
TORSDOF 7
ENDMDL
MODEL 7
REMARK VINA RESULT:    -8.149      3.105      6.057
REMARK INTER + INTRA:         -12.308
REMARK INTER:                 -11.637
REMARK INTRA:                  -0.671
REMARK UNBOUND:                -1.063
REMARK SMILES OCCCNc1nc(Nc2ccc(F)cc2)nc2ccccc12
REMARK SMILES IDX 4 1 3 2 2 3 1 4 5 6 6 8 7 9 23 10 8 11 22 12 18 13 17 14
REMARK SMILES IDX 21 15 19 16 20 17 9 18 10 20 11 21 16 22 12 23 15 24 13 25
REMARK SMILES IDX 14 26
REMARK H PARENT 1 5 5 7 9 19
ROOT
ATOM      1  C   UNL     1       9.682  46.776  51.977  1.00  0.00     0.117 C 
ENDROOT
BRANCH   1   2
ATOM      2  C   UNL     1       9.659  46.415  53.465  1.00  0.00     0.049 C 
BRANCH   2   3
ATOM      3  C   UNL     1       9.454  47.646  54.334  1.00  0.00     0.158 C 
BRANCH   3   4
ATOM      4  O   UNL     1       8.120  47.700  54.823  1.00  0.00    -0.396 OA
ATOM      5  H   UNL     1       7.946  46.859  55.282  1.00  0.00     0.210 HD
ENDBRANCH   3   4
ENDBRANCH   2   3
ENDBRANCH   1   2
BRANCH   1   6
ATOM      6  N   UNL     1       8.398  47.345  51.560  1.00  0.00    -0.369 N 
ATOM      7  H   UNL     1       8.189  48.192  52.085  1.00  0.00     0.162 HD
BRANCH   6   8
ATOM      8  C   UNL     1       7.270  46.495  51.650  1.00  0.00     0.139 A 
ATOM      9  N   UNL     1       6.299  46.790  52.531  1.00  0.00    -0.195 NA
ATOM     10  C   UNL     1       7.205  45.358  50.829  1.00  0.00     0.043 A 
ATOM     11  C   UNL     1       5.232  45.983  52.599  1.00  0.00     0.229 A 
ATOM     12  C   UNL     1       8.204  44.953  49.906  1.00  0.00     0.014 A 
ATOM     13  C   UNL     1       6.050  44.586  50.974  1.00  0.00     0.078 A 
ATOM     14  N   UNL     1       5.080  44.896  51.837  1.00  0.00    -0.213 NA
ATOM     15  C   UNL     1       8.039  43.808  49.131  1.00  0.00     0.001 A 
ATOM     16  C   UNL     1       5.905  43.449  50.189  1.00  0.00     0.029 A 
ATOM     17  C   UNL     1       6.883  43.055  49.270  1.00  0.00     0.002 A 
BRANCH  11  18
ATOM     18  N   UNL     1       4.272  46.370  53.530  1.00  0.00    -0.324 N 
ATOM     19  H   UNL     1       4.604  47.193  54.011  1.00  0.00     0.170 HD
BRANCH  18  20
ATOM     20  C   UNL     1       3.025  45.866  53.914  1.00  0.00     0.041 A 
ATOM     21  C   UNL     1       1.917  45.791  53.061  1.00  0.00     0.029 A 
ATOM     22  C   UNL     1       2.865  45.411  55.236  1.00  0.00     0.029 A 
ATOM     23  C   UNL     1       0.693  45.279  53.506  1.00  0.00     0.041 A 
ATOM     24  C   UNL     1       1.646  44.898  55.686  1.00  0.00     0.041 A 
ATOM     25  C   UNL     1       0.569  44.837  54.815  1.00  0.00     0.123 A 
ATOM     26  F   UNL     1      -0.602  44.347  55.242  1.00  0.00    -0.207 F 
ENDBRANCH  18  20
ENDBRANCH  11  18
ENDBRANCH   6   8
ENDBRANCH   1   6
TORSDOF 7
ENDMDL
MODEL 8
REMARK VINA RESULT:    -7.896      2.755      6.183
REMARK INTER + INTRA:         -11.959
REMARK INTER:                 -11.312
REMARK INTRA:                  -0.647
REMARK UNBOUND:                -1.063
REMARK SMILES OCCCNc1nc(Nc2ccc(F)cc2)nc2ccccc12
REMARK SMILES IDX 4 1 3 2 2 3 1 4 5 6 6 8 7 9 23 10 8 11 22 12 18 13 17 14
REMARK SMILES IDX 21 15 19 16 20 17 9 18 10 20 11 21 16 22 12 23 15 24 13 25
REMARK SMILES IDX 14 26
REMARK H PARENT 1 5 5 7 9 19
ROOT
ATOM      1  C   UNL     1       3.841  47.034  53.211  1.00  0.00     0.117 C 
ENDROOT
BRANCH   1   2
ATOM      2  C   UNL     1       3.116  45.935  53.992  1.00  0.00     0.049 C 
BRANCH   2   3
ATOM      3  C   UNL     1       3.546  45.911  55.450  1.00  0.00     0.158 C 
BRANCH   3   4
ATOM      4  O   UNL     1       4.518  44.898  55.672  1.00  0.00    -0.396 OA
ATOM      5  H   UNL     1       4.139  44.267  56.310  1.00  0.00     0.210 HD
ENDBRANCH   3   4
ENDBRANCH   2   3
ENDBRANCH   1   2
BRANCH   1   6
ATOM      6  N   UNL     1       5.199  47.229  53.727  1.00  0.00    -0.369 N 
ATOM      7  H   UNL     1       5.409  48.220  53.828  1.00  0.00     0.162 HD
BRANCH   6   8
ATOM      8  C   UNL     1       6.250  46.643  52.982  1.00  0.00     0.139 A 
ATOM      9  N   UNL     1       5.948  45.866  51.928  1.00  0.00    -0.195 NA
ATOM     10  C   UNL     1       7.577  46.875  53.376  1.00  0.00     0.043 A 
ATOM     11  C   UNL     1       6.952  45.325  51.225  1.00  0.00     0.229 A 
ATOM     12  C   UNL     1       7.979  47.644  54.498  1.00  0.00     0.014 A 
ATOM     13  C   UNL     1       8.548  46.270  52.574  1.00  0.00     0.078 A 
ATOM     14  N   UNL     1       8.242  45.516  51.516  1.00  0.00    -0.213 NA
ATOM     15  C   UNL     1       9.327  47.820  54.800  1.00  0.00     0.001 A 
ATOM     16  C   UNL     1       9.887  46.461  52.892  1.00  0.00     0.029 A 
ATOM     17  C   UNL     1      10.286  47.229  53.990  1.00  0.00     0.002 A 
BRANCH  11  18
ATOM     18  N   UNL     1       6.548  44.545  50.145  1.00  0.00    -0.324 N 
ATOM     19  H   UNL     1       6.886  44.972  49.296  1.00  0.00     0.170 HD
BRANCH  18  20
ATOM     20  C   UNL     1       5.802  43.370  50.015  1.00  0.00     0.041 A 
ATOM     21  C   UNL     1       6.080  42.367  49.078  1.00  0.00     0.029 A 
ATOM     22  C   UNL     1       4.701  43.178  50.871  1.00  0.00     0.029 A 
ATOM     23  C   UNL     1       5.292  41.213  48.995  1.00  0.00     0.041 A 
ATOM     24  C   UNL     1       3.910  42.029  50.793  1.00  0.00     0.041 A 
ATOM     25  C   UNL     1       4.214  41.055  49.854  1.00  0.00     0.123 A 
ATOM     26  F   UNL     1       3.460  39.951  49.776  1.00  0.00    -0.207 F 
ENDBRANCH  18  20
ENDBRANCH  11  18
ENDBRANCH   6   8
ENDBRANCH   1   6
TORSDOF 7
ENDMDL
MODEL 9
REMARK VINA RESULT:    -7.859      1.858      4.213
REMARK INTER + INTRA:         -11.909
REMARK INTER:                 -11.395
REMARK INTRA:                  -0.514
REMARK UNBOUND:                -1.063
REMARK SMILES OCCCNc1nc(Nc2ccc(F)cc2)nc2ccccc12
REMARK SMILES IDX 4 1 3 2 2 3 1 4 5 6 6 8 7 9 23 10 8 11 22 12 18 13 17 14
REMARK SMILES IDX 21 15 19 16 20 17 9 18 10 20 11 21 16 22 12 23 15 24 13 25
REMARK SMILES IDX 14 26
REMARK H PARENT 1 5 5 7 9 19
ROOT
ATOM      1  C   UNL     1       4.294  41.389  50.871  1.00  0.00     0.117 C 
ENDROOT
BRANCH   1   2
ATOM      2  C   UNL     1       4.945  41.176  49.501  1.00  0.00     0.049 C 
BRANCH   2   3
ATOM      3  C   UNL     1       6.362  41.727  49.465  1.00  0.00     0.158 C 
BRANCH   3   4
ATOM      4  O   UNL     1       7.271  40.819  50.075  1.00  0.00    -0.396 OA
ATOM      5  H   UNL     1       7.941  40.590  49.407  1.00  0.00     0.210 HD
ENDBRANCH   3   4
ENDBRANCH   2   3
ENDBRANCH   1   2
BRANCH   1   6
ATOM      6  N   UNL     1       3.321  42.483  50.820  1.00  0.00    -0.369 N 
ATOM      7  H   UNL     1       3.199  42.815  49.865  1.00  0.00     0.162 HD
BRANCH   6   8
ATOM      8  C   UNL     1       3.590  43.609  51.635  1.00  0.00     0.139 A 
ATOM      9  N   UNL     1       4.656  44.377  51.353  1.00  0.00    -0.195 NA
ATOM     10  C   UNL     1       2.747  43.880  52.724  1.00  0.00     0.043 A 
ATOM     11  C   UNL     1       4.894  45.446  52.127  1.00  0.00     0.229 A 
ATOM     12  C   UNL     1       1.630  43.096  53.113  1.00  0.00     0.014 A 
ATOM     13  C   UNL     1       3.079  45.018  53.462  1.00  0.00     0.078 A 
ATOM     14  N   UNL     1       4.127  45.789  53.166  1.00  0.00    -0.213 NA
ATOM     15  C   UNL     1       0.850  43.457  54.209  1.00  0.00     0.001 A 
ATOM     16  C   UNL     1       2.285  45.361  54.550  1.00  0.00     0.029 A 
ATOM     17  C   UNL     1       1.177  44.597  54.929  1.00  0.00     0.002 A 
BRANCH  11  18
ATOM     18  N   UNL     1       6.010  46.190  51.756  1.00  0.00    -0.324 N 
ATOM     19  H   UNL     1       5.870  46.536  50.819  1.00  0.00     0.170 HD
BRANCH  18  20
ATOM     20  C   UNL     1       7.215  46.520  52.384  1.00  0.00     0.041 A 
ATOM     21  C   UNL     1       8.459  46.515  51.741  1.00  0.00     0.029 A 
ATOM     22  C   UNL     1       7.185  46.874  53.746  1.00  0.00     0.029 A 
ATOM     23  C   UNL     1       9.632  46.851  52.427  1.00  0.00     0.041 A 
ATOM     24  C   UNL     1       8.353  47.211  54.437  1.00  0.00     0.041 A 
ATOM     25  C   UNL     1       9.567  47.197  53.769  1.00  0.00     0.123 A 
ATOM     26  F   UNL     1      10.689  47.519  54.425  1.00  0.00    -0.207 F 
ENDBRANCH  18  20
ENDBRANCH  11  18
ENDBRANCH   6   8
ENDBRANCH   1   6
TORSDOF 7
ENDMDL
MODEL 10
REMARK VINA RESULT:    -7.835      3.356      6.944
REMARK INTER + INTRA:         -11.875
REMARK INTER:                 -11.519
REMARK INTRA:                  -0.356
REMARK UNBOUND:                -1.063
REMARK SMILES OCCCNc1nc(Nc2ccc(F)cc2)nc2ccccc12
REMARK SMILES IDX 4 1 3 2 2 3 1 4 5 6 6 8 7 9 23 10 8 11 22 12 18 13 17 14
REMARK SMILES IDX 21 15 19 16 20 17 9 18 10 20 11 21 16 22 12 23 15 24 13 25
REMARK SMILES IDX 14 26
REMARK H PARENT 1 5 5 7 9 19
ROOT
ATOM      1  C   UNL     1       5.392  43.600  50.625  1.00  0.00     0.117 C 
ENDROOT
BRANCH   1   2
ATOM      2  C   UNL     1       6.229  42.919  49.539  1.00  0.00     0.049 C 
BRANCH   2   3
ATOM      3  C   UNL     1       6.116  41.404  49.616  1.00  0.00     0.158 C 
BRANCH   3   4
ATOM      4  O   UNL     1       7.340  40.829  50.054  1.00  0.00    -0.396 OA
ATOM      5  H   UNL     1       7.259  40.672  51.012  1.00  0.00     0.210 HD
ENDBRANCH   3   4
ENDBRANCH   2   3
ENDBRANCH   1   2
BRANCH   1   6
ATOM      6  N   UNL     1       5.881  44.957  50.884  1.00  0.00    -0.369 N 
ATOM      7  H   UNL     1       6.788  45.105  50.446  1.00  0.00     0.162 HD
BRANCH   6   8
ATOM      8  C   UNL     1       5.993  45.340  52.242  1.00  0.00     0.139 A 
ATOM      9  N   UNL     1       5.024  44.985  53.102  1.00  0.00    -0.195 NA
ATOM     10  C   UNL     1       7.104  46.096  52.648  1.00  0.00     0.043 A 
ATOM     11  C   UNL     1       5.147  45.346  54.387  1.00  0.00     0.229 A 
ATOM     12  C   UNL     1       8.147  46.547  51.797  1.00  0.00     0.014 A 
ATOM     13  C   UNL     1       7.140  46.415  54.007  1.00  0.00     0.078 A 
ATOM     14  N   UNL     1       6.185  46.042  54.861  1.00  0.00    -0.213 NA
ATOM     15  C   UNL     1       9.213  47.287  52.302  1.00  0.00     0.001 A 
ATOM     16  C   UNL     1       8.215  47.152  54.490  1.00  0.00     0.029 A 
ATOM     17  C   UNL     1       9.249  47.587  53.655  1.00  0.00     0.002 A 
BRANCH  11  18
ATOM     18  N   UNL     1       4.104  44.927  55.208  1.00  0.00    -0.324 N 
ATOM     19  H   UNL     1       4.493  44.596  56.078  1.00  0.00     0.170 HD
BRANCH  18  20
ATOM     20  C   UNL     1       2.714  44.867  55.066  1.00  0.00     0.041 A 
ATOM     21  C   UNL     1       2.063  44.180  54.034  1.00  0.00     0.029 A 
ATOM     22  C   UNL     1       1.915  45.538  56.010  1.00  0.00     0.029 A 
ATOM     23  C   UNL     1       0.667  44.160  53.944  1.00  0.00     0.041 A 
ATOM     24  C   UNL     1       0.521  45.522  55.926  1.00  0.00     0.041 A 
ATOM     25  C   UNL     1      -0.092  44.832  54.892  1.00  0.00     0.123 A 
ATOM     26  F   UNL     1      -1.428  44.813  54.807  1.00  0.00    -0.207 F 
ENDBRANCH  18  20
ENDBRANCH  11  18
ENDBRANCH   6   8
ENDBRANCH   1   6
TORSDOF 7
ENDMDL
MODEL 11
REMARK VINA RESULT:    -7.819      2.398      4.031
REMARK INTER + INTRA:         -11.853
REMARK INTER:                 -11.134
REMARK INTRA:                  -0.719
REMARK UNBOUND:                -1.063
REMARK SMILES OCCCNc1nc(Nc2ccc(F)cc2)nc2ccccc12
REMARK SMILES IDX 4 1 3 2 2 3 1 4 5 6 6 8 7 9 23 10 8 11 22 12 18 13 17 14
REMARK SMILES IDX 21 15 19 16 20 17 9 18 10 20 11 21 16 22 12 23 15 24 13 25
REMARK SMILES IDX 14 26
REMARK H PARENT 1 5 5 7 9 19
ROOT
ATOM      1  C   UNL     1       6.107  41.527  49.441  1.00  0.00     0.117 C 
ENDROOT
BRANCH   1   2
ATOM      2  C   UNL     1       5.275  41.155  48.211  1.00  0.00     0.049 C 
BRANCH   2   3
ATOM      3  C   UNL     1       3.977  40.466  48.604  1.00  0.00     0.158 C 
BRANCH   3   4
ATOM      4  O   UNL     1       3.067  40.446  47.511  1.00  0.00    -0.396 OA
ATOM      5  H   UNL     1       2.176  40.591  47.875  1.00  0.00     0.210 HD
ENDBRANCH   3   4
ENDBRANCH   2   3
ENDBRANCH   1   2
BRANCH   1   6
ATOM      6  N   UNL     1       5.241  41.854  50.576  1.00  0.00    -0.369 N 
ATOM      7  H   UNL     1       4.333  41.403  50.481  1.00  0.00     0.162 HD
BRANCH   6   8
ATOM      8  C   UNL     1       5.012  43.229  50.822  1.00  0.00     0.139 A 
ATOM      9  N   UNL     1       6.059  44.071  50.846  1.00  0.00    -0.195 NA
ATOM     10  C   UNL     1       3.700  43.672  51.052  1.00  0.00     0.043 A 
ATOM     11  C   UNL     1       5.828  45.372  51.070  1.00  0.00     0.229 A 
ATOM     12  C   UNL     1       2.547  42.845  51.087  1.00  0.00     0.014 A 
ATOM     13  C   UNL     1       3.567  45.045  51.269  1.00  0.00     0.078 A 
ATOM     14  N   UNL     1       4.608  45.879  51.272  1.00  0.00    -0.213 NA
ATOM     15  C   UNL     1       1.285  43.386  51.316  1.00  0.00     0.001 A 
ATOM     16  C   UNL     1       2.297  45.564  51.494  1.00  0.00     0.029 A 
ATOM     17  C   UNL     1       1.159  44.752  51.517  1.00  0.00     0.002 A 
BRANCH  11  18
ATOM     18  N   UNL     1       6.968  46.171  51.066  1.00  0.00    -0.324 N 
ATOM     19  H   UNL     1       7.059  46.596  50.155  1.00  0.00     0.170 HD
BRANCH  18  20
ATOM     20  C   UNL     1       7.953  46.469  52.012  1.00  0.00     0.041 A 
ATOM     21  C   UNL     1       9.324  46.278  51.799  1.00  0.00     0.029 A 
ATOM     22  C   UNL     1       7.551  46.988  53.257  1.00  0.00     0.029 A 
ATOM     23  C   UNL     1      10.263  46.593  52.788  1.00  0.00     0.041 A 
ATOM     24  C   UNL     1       8.483  47.305  54.249  1.00  0.00     0.041 A 
ATOM     25  C   UNL     1       9.833  47.104  54.004  1.00  0.00     0.123 A 
ATOM     26  F   UNL     1      10.730  47.406  54.951  1.00  0.00    -0.207 F 
ENDBRANCH  18  20
ENDBRANCH  11  18
ENDBRANCH   6   8
ENDBRANCH   1   6
TORSDOF 7
ENDMDL
MODEL 12
REMARK VINA RESULT:    -7.758      1.769      4.241
REMARK INTER + INTRA:         -11.769
REMARK INTER:                 -10.732
REMARK INTRA:                  -1.037
REMARK UNBOUND:                -1.063
REMARK SMILES OCCCNc1nc(Nc2ccc(F)cc2)nc2ccccc12
REMARK SMILES IDX 4 1 3 2 2 3 1 4 5 6 6 8 7 9 23 10 8 11 22 12 18 13 17 14
REMARK SMILES IDX 21 15 19 16 20 17 9 18 10 20 11 21 16 22 12 23 15 24 13 25
REMARK SMILES IDX 14 26
REMARK H PARENT 1 5 5 7 9 19
ROOT
ATOM      1  C   UNL     1       3.313  41.585  50.181  1.00  0.00     0.117 C 
ENDROOT
BRANCH   1   2
ATOM      2  C   UNL     1       4.303  40.731  49.386  1.00  0.00     0.049 C 
BRANCH   2   3
ATOM      3  C   UNL     1       5.593  41.487  49.106  1.00  0.00     0.158 C 
BRANCH   3   4
ATOM      4  O   UNL     1       6.445  41.467  50.244  1.00  0.00    -0.396 OA
ATOM      5  H   UNL     1       5.876  41.508  51.033  1.00  0.00     0.210 HD
ENDBRANCH   3   4
ENDBRANCH   2   3
ENDBRANCH   1   2
BRANCH   1   6
ATOM      6  N   UNL     1       3.801  41.816  51.543  1.00  0.00    -0.369 N 
ATOM      7  H   UNL     1       3.262  41.275  52.217  1.00  0.00     0.162 HD
BRANCH   6   8
ATOM      8  C   UNL     1       3.821  43.159  51.989  1.00  0.00     0.139 A 
ATOM      9  N   UNL     1       4.886  43.926  51.702  1.00  0.00    -0.195 NA
ATOM     10  C   UNL     1       2.735  43.646  52.734  1.00  0.00     0.043 A 
ATOM     11  C   UNL     1       4.887  45.199  52.122  1.00  0.00     0.229 A 
ATOM     12  C   UNL     1       1.595  42.892  53.116  1.00  0.00     0.014 A 
ATOM     13  C   UNL     1       2.832  44.986  53.118  1.00  0.00     0.078 A 
ATOM     14  N   UNL     1       3.884  45.749  52.813  1.00  0.00    -0.213 NA
ATOM     15  C   UNL     1       0.565  43.473  53.851  1.00  0.00     0.001 A 
ATOM     16  C   UNL     1       1.792  45.546  53.850  1.00  0.00     0.029 A 
ATOM     17  C   UNL     1       0.663  44.808  54.216  1.00  0.00     0.002 A 
BRANCH  11  18
ATOM     18  N   UNL     1       6.023  45.923  51.771  1.00  0.00    -0.324 N 
ATOM     19  H   UNL     1       5.946  46.192  50.802  1.00  0.00     0.170 HD
BRANCH  18  20
ATOM     20  C   UNL     1       7.181  46.311  52.452  1.00  0.00     0.041 A 
ATOM     21  C   UNL     1       7.200  46.718  53.792  1.00  0.00     0.029 A 
ATOM     22  C   UNL     1       8.403  46.301  51.754  1.00  0.00     0.029 A 
ATOM     23  C   UNL     1       8.393  47.100  54.417  1.00  0.00     0.041 A 
ATOM     24  C   UNL     1       9.598  46.681  52.372  1.00  0.00     0.041 A 
ATOM     25  C   UNL     1       9.581  47.077  53.701  1.00  0.00     0.123 A 
ATOM     26  F   UNL     1      10.723  47.442  54.298  1.00  0.00    -0.207 F 
ENDBRANCH  18  20
ENDBRANCH  11  18
ENDBRANCH   6   8
ENDBRANCH   1   6
TORSDOF 7
ENDMDL
MODEL 13
REMARK VINA RESULT:    -7.728      3.561      6.701
REMARK INTER + INTRA:         -11.728
REMARK INTER:                 -11.133
REMARK INTRA:                  -0.595
REMARK UNBOUND:                -1.063
REMARK SMILES OCCCNc1nc(Nc2ccc(F)cc2)nc2ccccc12
REMARK SMILES IDX 4 1 3 2 2 3 1 4 5 6 6 8 7 9 23 10 8 11 22 12 18 13 17 14
REMARK SMILES IDX 21 15 19 16 20 17 9 18 10 20 11 21 16 22 12 23 15 24 13 25
REMARK SMILES IDX 14 26
REMARK H PARENT 1 5 5 7 9 19
ROOT
ATOM      1  C   UNL     1       7.531  46.981  53.756  1.00  0.00     0.117 C 
ENDROOT
BRANCH   1   2
ATOM      2  C   UNL     1       8.945  47.535  53.557  1.00  0.00     0.049 C 
BRANCH   2   3
ATOM      3  C   UNL     1       9.692  47.641  54.877  1.00  0.00     0.158 C 
BRANCH   3   4
ATOM      4  O   UNL     1       9.161  48.691  55.675  1.00  0.00    -0.396 OA
ATOM      5  H   UNL     1       8.422  48.319  56.189  1.00  0.00     0.210 HD
ENDBRANCH   3   4
ENDBRANCH   2   3
ENDBRANCH   1   2
BRANCH   1   6
ATOM      6  N   UNL     1       6.805  46.940  52.484  1.00  0.00    -0.369 N 
ATOM      7  H   UNL     1       6.159  47.723  52.410  1.00  0.00     0.162 HD
BRANCH   6   8
ATOM      8  C   UNL     1       6.078  45.757  52.208  1.00  0.00     0.139 A 
ATOM      9  N   UNL     1       5.006  45.460  52.961  1.00  0.00    -0.195 NA
ATOM     10  C   UNL     1       6.508  44.920  51.166  1.00  0.00     0.043 A 
ATOM     11  C   UNL     1       4.321  44.342  52.683  1.00  0.00     0.229 A 
ATOM     12  C   UNL     1       7.651  45.139  50.354  1.00  0.00     0.014 A 
ATOM     13  C   UNL     1       5.723  43.785  50.955  1.00  0.00     0.078 A 
ATOM     14  N   UNL     1       4.647  43.504  51.694  1.00  0.00    -0.213 NA
ATOM     15  C   UNL     1       7.989  44.248  49.339  1.00  0.00     0.001 A 
ATOM     16  C   UNL     1       6.076  42.910  49.935  1.00  0.00     0.029 A 
ATOM     17  C   UNL     1       7.195  43.130  49.126  1.00  0.00     0.002 A 
BRANCH  11  18
ATOM     18  N   UNL     1       3.220  44.119  53.505  1.00  0.00    -0.324 N 
ATOM     19  H   UNL     1       3.544  44.016  54.455  1.00  0.00     0.170 HD
BRANCH  18  20
ATOM     20  C   UNL     1       1.844  44.003  53.284  1.00  0.00     0.041 A 
ATOM     21  C   UNL     1       1.015  45.078  52.942  1.00  0.00     0.029 A 
ATOM     22  C   UNL     1       1.249  42.734  53.416  1.00  0.00     0.029 A 
ATOM     23  C   UNL     1      -0.358  44.898  52.737  1.00  0.00     0.041 A 
ATOM     24  C   UNL     1      -0.120  42.547  53.212  1.00  0.00     0.041 A 
ATOM     25  C   UNL     1      -0.913  43.633  52.874  1.00  0.00     0.123 A 
ATOM     26  F   UNL     1      -2.226  43.460  52.677  1.00  0.00    -0.207 F 
ENDBRANCH  18  20
ENDBRANCH  11  18
ENDBRANCH   6   8
ENDBRANCH   1   6
TORSDOF 7
ENDMDL
MODEL 14
REMARK VINA RESULT:    -7.685      2.168      4.661
REMARK INTER + INTRA:         -11.668
REMARK INTER:                 -11.380
REMARK INTRA:                  -0.287
REMARK UNBOUND:                -1.063
REMARK SMILES OCCCNc1nc(Nc2ccc(F)cc2)nc2ccccc12
REMARK SMILES IDX 4 1 3 2 2 3 1 4 5 6 6 8 7 9 23 10 8 11 22 12 18 13 17 14
REMARK SMILES IDX 21 15 19 16 20 17 9 18 10 20 11 21 16 22 12 23 15 24 13 25
REMARK SMILES IDX 14 26
REMARK H PARENT 1 5 5 7 9 19
ROOT
ATOM      1  C   UNL     1       4.868  42.865  50.906  1.00  0.00     0.117 C 
ENDROOT
BRANCH   1   2
ATOM      2  C   UNL     1       4.960  41.531  50.161  1.00  0.00     0.049 C 
BRANCH   2   3
ATOM      3  C   UNL     1       6.231  41.443  49.330  1.00  0.00     0.158 C 
BRANCH   3   4
ATOM      4  O   UNL     1       7.275  40.823  50.070  1.00  0.00    -0.396 OA
ATOM      5  H   UNL     1       6.987  40.786  51.000  1.00  0.00     0.210 HD
ENDBRANCH   3   4
ENDBRANCH   2   3
ENDBRANCH   1   2
BRANCH   1   6
ATOM      6  N   UNL     1       3.901  42.783  52.004  1.00  0.00    -0.369 N 
ATOM      7  H   UNL     1       2.966  42.591  51.649  1.00  0.00     0.162 HD
BRANCH   6   8
ATOM      8  C   UNL     1       3.814  43.910  52.856  1.00  0.00     0.139 A 
ATOM      9  N   UNL     1       4.893  44.694  53.012  1.00  0.00    -0.195 NA
ATOM     10  C   UNL     1       2.607  44.165  53.527  1.00  0.00     0.043 A 
ATOM     11  C   UNL     1       4.794  45.764  53.814  1.00  0.00     0.229 A 
ATOM     12  C   UNL     1       1.438  43.365  53.450  1.00  0.00     0.014 A 
ATOM     13  C   UNL     1       2.607  45.306  54.333  1.00  0.00     0.078 A 
ATOM     14  N   UNL     1       3.676  46.093  54.469  1.00  0.00    -0.213 NA
ATOM     15  C   UNL     1       0.287  43.711  54.152  1.00  0.00     0.001 A 
ATOM     16  C   UNL     1       1.446  45.634  55.023  1.00  0.00     0.029 A 
ATOM     17  C   UNL     1       0.290  44.853  54.939  1.00  0.00     0.002 A 
BRANCH  11  18
ATOM     18  N   UNL     1       5.955  46.526  53.908  1.00  0.00    -0.324 N 
ATOM     19  H   UNL     1       5.809  47.252  54.593  1.00  0.00     0.170 HD
BRANCH  18  20
ATOM     20  C   UNL     1       7.200  46.490  53.272  1.00  0.00     0.041 A 
ATOM     21  C   UNL     1       7.375  46.192  51.915  1.00  0.00     0.029 A 
ATOM     22  C   UNL     1       8.350  46.764  54.034  1.00  0.00     0.029 A 
ATOM     23  C   UNL     1       8.649  46.169  51.336  1.00  0.00     0.041 A 
ATOM     24  C   UNL     1       9.625  46.743  53.463  1.00  0.00     0.041 A 
ATOM     25  C   UNL     1       9.762  46.445  52.116  1.00  0.00     0.123 A 
ATOM     26  F   UNL     1      10.982  46.423  51.563  1.00  0.00    -0.207 F 
ENDBRANCH  18  20
ENDBRANCH  11  18
ENDBRANCH   6   8
ENDBRANCH   1   6
TORSDOF 7
ENDMDL
MODEL 15
REMARK VINA RESULT:    -7.617      3.678      6.519
REMARK INTER + INTRA:         -11.575
REMARK INTER:                 -10.585
REMARK INTRA:                  -0.990
REMARK UNBOUND:                -1.063
REMARK SMILES OCCCNc1nc(Nc2ccc(F)cc2)nc2ccccc12
REMARK SMILES IDX 4 1 3 2 2 3 1 4 5 6 6 8 7 9 23 10 8 11 22 12 18 13 17 14
REMARK SMILES IDX 21 15 19 16 20 17 9 18 10 20 11 21 16 22 12 23 15 24 13 25
REMARK SMILES IDX 14 26
REMARK H PARENT 1 5 5 7 9 19
ROOT
ATOM      1  C   UNL     1       4.928  46.761  53.914  1.00  0.00     0.117 C 
ENDROOT
BRANCH   1   2
ATOM      2  C   UNL     1       6.084  46.126  54.690  1.00  0.00     0.049 C 
BRANCH   2   3
ATOM      3  C   UNL     1       5.616  44.938  55.516  1.00  0.00     0.158 C 
BRANCH   3   4
ATOM      4  O   UNL     1       4.196  44.873  55.545  1.00  0.00    -0.396 OA
ATOM      5  H   UNL     1       3.942  43.973  55.273  1.00  0.00     0.210 HD
ENDBRANCH   3   4
ENDBRANCH   2   3
ENDBRANCH   1   2
BRANCH   1   6
ATOM      6  N   UNL     1       5.073  46.521  52.476  1.00  0.00    -0.369 N 
ATOM      7  H   UNL     1       4.421  47.095  51.945  1.00  0.00     0.162 HD
BRANCH   6   8
ATOM      8  C   UNL     1       4.919  45.183  52.039  1.00  0.00     0.139 A 
ATOM      9  N   UNL     1       3.896  44.454  52.516  1.00  0.00    -0.195 NA
ATOM     10  C   UNL     1       5.850  44.650  51.133  1.00  0.00     0.043 A 
ATOM     11  C   UNL     1       3.757  43.193  52.086  1.00  0.00     0.229 A 
ATOM     12  C   UNL     1       6.979  45.337  50.616  1.00  0.00     0.014 A 
ATOM     13  C   UNL     1       5.612  43.330  50.745  1.00  0.00     0.078 A 
ATOM     14  N   UNL     1       4.582  42.618  51.207  1.00  0.00    -0.213 NA
ATOM     15  C   UNL     1       7.841  44.719  49.714  1.00  0.00     0.001 A 
ATOM     16  C   UNL     1       6.483  42.734  49.841  1.00  0.00     0.029 A 
ATOM     17  C   UNL     1       7.590  43.412  49.322  1.00  0.00     0.002 A 
BRANCH  11  18
ATOM     18  N   UNL     1       2.665  42.516  52.623  1.00  0.00    -0.324 N 
ATOM     19  H   UNL     1       2.956  41.583  52.874  1.00  0.00     0.170 HD
BRANCH  18  20
ATOM     20  C   UNL     1       1.327  42.851  52.855  1.00  0.00     0.041 A 
ATOM     21  C   UNL     1       0.841  43.323  54.081  1.00  0.00     0.029 A 
ATOM     22  C   UNL     1       0.407  42.703  51.801  1.00  0.00     0.029 A 
ATOM     23  C   UNL     1      -0.512  43.639  54.251  1.00  0.00     0.041 A 
ATOM     24  C   UNL     1      -0.945  43.017  51.964  1.00  0.00     0.041 A 
ATOM     25  C   UNL     1      -1.392  43.482  53.191  1.00  0.00     0.123 A 
ATOM     26  F   UNL     1      -2.687  43.784  53.353  1.00  0.00    -0.207 F 
ENDBRANCH  18  20
ENDBRANCH  11  18
ENDBRANCH   6   8
ENDBRANCH   1   6
TORSDOF 7
ENDMDL
MODEL 16
REMARK VINA RESULT:    -7.573      2.474      3.430
REMARK INTER + INTRA:         -11.513
REMARK INTER:                 -11.074
REMARK INTRA:                  -0.439
REMARK UNBOUND:                -1.063
REMARK SMILES OCCCNc1nc(Nc2ccc(F)cc2)nc2ccccc12
REMARK SMILES IDX 4 1 3 2 2 3 1 4 5 6 6 8 7 9 23 10 8 11 22 12 18 13 17 14
REMARK SMILES IDX 21 15 19 16 20 17 9 18 10 20 11 21 16 22 12 23 15 24 13 25
REMARK SMILES IDX 14 26
REMARK H PARENT 1 5 5 7 9 19
ROOT
ATOM      1  C   UNL     1       1.547  45.985  56.224  1.00  0.00     0.117 C 
ENDROOT
BRANCH   1   2
ATOM      2  C   UNL     1       0.906  45.688  57.581  1.00  0.00     0.049 C 
BRANCH   2   3
ATOM      3  C   UNL     1       1.010  46.880  58.520  1.00  0.00     0.158 C 
BRANCH   3   4
ATOM      4  O   UNL     1       2.089  46.710  59.431  1.00  0.00    -0.396 OA
ATOM      5  H   UNL     1       2.777  46.197  58.972  1.00  0.00     0.210 HD
ENDBRANCH   3   4
ENDBRANCH   2   3
ENDBRANCH   1   2
BRANCH   1   6
ATOM      6  N   UNL     1       2.452  44.903  55.828  1.00  0.00    -0.369 N 
ATOM      7  H   UNL     1       3.188  44.774  56.519  1.00  0.00     0.162 HD
BRANCH   6   8
ATOM      8  C   UNL     1       3.072  45.028  54.561  1.00  0.00     0.139 A 
ATOM      9  N   UNL     1       4.105  45.875  54.421  1.00  0.00    -0.195 NA
ATOM     10  C   UNL     1       2.578  44.276  53.483  1.00  0.00     0.043 A 
ATOM     11  C   UNL     1       4.689  45.976  53.219  1.00  0.00     0.229 A 
ATOM     12  C   UNL     1       1.467  43.394  53.536  1.00  0.00     0.014 A 
ATOM     13  C   UNL     1       3.259  44.450  52.276  1.00  0.00     0.078 A 
ATOM     14  N   UNL     1       4.298  45.278  52.148  1.00  0.00    -0.213 NA
ATOM     15  C   UNL     1       1.060  42.687  52.408  1.00  0.00     0.001 A 
ATOM     16  C   UNL     1       2.837  43.733  51.163  1.00  0.00     0.029 A 
ATOM     17  C   UNL     1       1.751  42.855  51.217  1.00  0.00     0.002 A 
BRANCH  11  18
ATOM     18  N   UNL     1       5.757  46.868  53.168  1.00  0.00    -0.324 N 
ATOM     19  H   UNL     1       5.413  47.793  53.375  1.00  0.00     0.170 HD
BRANCH  18  20
ATOM     20  C   UNL     1       7.122  46.740  52.890  1.00  0.00     0.041 A 
ATOM     21  C   UNL     1       8.137  47.048  53.805  1.00  0.00     0.029 A 
ATOM     22  C   UNL     1       7.506  46.282  51.616  1.00  0.00     0.029 A 
ATOM     23  C   UNL     1       9.487  46.902  53.465  1.00  0.00     0.041 A 
ATOM     24  C   UNL     1       8.852  46.135  51.271  1.00  0.00     0.041 A 
ATOM     25  C   UNL     1       9.832  46.447  52.201  1.00  0.00     0.123 A 
ATOM     26  F   UNL     1      11.123  46.308  51.875  1.00  0.00    -0.207 F 
ENDBRANCH  18  20
ENDBRANCH  11  18
ENDBRANCH   6   8
ENDBRANCH   1   6
TORSDOF 7
ENDMDL
MODEL 17
REMARK VINA RESULT:    -7.564      3.596      6.706
REMARK INTER + INTRA:         -11.501
REMARK INTER:                 -10.704
REMARK INTRA:                  -0.797
REMARK UNBOUND:                -1.063
REMARK SMILES OCCCNc1nc(Nc2ccc(F)cc2)nc2ccccc12
REMARK SMILES IDX 4 1 3 2 2 3 1 4 5 6 6 8 7 9 23 10 8 11 22 12 18 13 17 14
REMARK SMILES IDX 21 15 19 16 20 17 9 18 10 20 11 21 16 22 12 23 15 24 13 25
REMARK SMILES IDX 14 26
REMARK H PARENT 1 5 5 7 9 19
ROOT
ATOM      1  C   UNL     1       7.492  47.039  53.812  1.00  0.00     0.117 C 
ENDROOT
BRANCH   1   2
ATOM      2  C   UNL     1       8.777  47.869  53.741  1.00  0.00     0.049 C 
BRANCH   2   3
ATOM      3  C   UNL     1       9.979  47.006  53.391  1.00  0.00     0.158 C 
BRANCH   3   4
ATOM      4  O   UNL     1      10.023  46.746  51.994  1.00  0.00    -0.396 OA
ATOM      5  H   UNL     1      10.705  47.328  51.613  1.00  0.00     0.210 HD
ENDBRANCH   3   4
ENDBRANCH   2   3
ENDBRANCH   1   2
BRANCH   1   6
ATOM      6  N   UNL     1       6.885  46.905  52.486  1.00  0.00    -0.369 N 
ATOM      7  H   UNL     1       6.319  47.721  52.262  1.00  0.00     0.162 HD
BRANCH   6   8
ATOM      8  C   UNL     1       6.087  45.757  52.269  1.00  0.00     0.139 A 
ATOM      9  N   UNL     1       5.038  45.529  53.077  1.00  0.00    -0.195 NA
ATOM     10  C   UNL     1       6.424  44.879  51.226  1.00  0.00     0.043 A 
ATOM     11  C   UNL     1       4.284  44.444  52.854  1.00  0.00     0.229 A 
ATOM     12  C   UNL     1       7.537  45.023  50.358  1.00  0.00     0.014 A 
ATOM     13  C   UNL     1       5.572  43.782  51.075  1.00  0.00     0.078 A 
ATOM     14  N   UNL     1       4.520  43.572  51.869  1.00  0.00    -0.213 NA
ATOM     15  C   UNL     1       7.780  44.097  49.346  1.00  0.00     0.001 A 
ATOM     16  C   UNL     1       5.832  42.871  50.058  1.00  0.00     0.029 A 
ATOM     17  C   UNL     1       6.921  43.018  49.194  1.00  0.00     0.002 A 
BRANCH  11  18
ATOM     18  N   UNL     1       3.213  44.293  53.731  1.00  0.00    -0.324 N 
ATOM     19  H   UNL     1       3.545  44.441  54.672  1.00  0.00     0.170 HD
BRANCH  18  20
ATOM     20  C   UNL     1       1.859  43.983  53.573  1.00  0.00     0.041 A 
ATOM     21  C   UNL     1       1.369  42.682  53.405  1.00  0.00     0.029 A 
ATOM     22  C   UNL     1       0.926  45.037  53.577  1.00  0.00     0.029 A 
ATOM     23  C   UNL     1       0.000  42.437  53.248  1.00  0.00     0.041 A 
ATOM     24  C   UNL     1      -0.442  44.799  53.421  1.00  0.00     0.041 A 
ATOM     25  C   UNL     1      -0.893  43.498  53.258  1.00  0.00     0.123 A 
ATOM     26  F   UNL     1      -2.203  43.264  53.108  1.00  0.00    -0.207 F 
ENDBRANCH  18  20
ENDBRANCH  11  18
ENDBRANCH   6   8
ENDBRANCH   1   6
TORSDOF 7
ENDMDL
MODEL 18
REMARK VINA RESULT:    -7.547      3.076      6.091
REMARK INTER + INTRA:         -11.477
REMARK INTER:                 -11.113
REMARK INTRA:                  -0.364
REMARK UNBOUND:                -1.063
REMARK SMILES OCCCNc1nc(Nc2ccc(F)cc2)nc2ccccc12
REMARK SMILES IDX 4 1 3 2 2 3 1 4 5 6 6 8 7 9 23 10 8 11 22 12 18 13 17 14
REMARK SMILES IDX 21 15 19 16 20 17 9 18 10 20 11 21 16 22 12 23 15 24 13 25
REMARK SMILES IDX 14 26
REMARK H PARENT 1 5 5 7 9 19
ROOT
ATOM      1  C   UNL     1       7.252  46.841  53.676  1.00  0.00     0.117 C 
ENDROOT
BRANCH   1   2
ATOM      2  C   UNL     1       8.566  47.544  53.327  1.00  0.00     0.049 C 
BRANCH   2   3
ATOM      3  C   UNL     1       9.502  47.603  54.523  1.00  0.00     0.158 C 
BRANCH   3   4
ATOM      4  O   UNL     1       9.059  48.574  55.462  1.00  0.00    -0.396 OA
ATOM      5  H   UNL     1       9.356  48.283  56.342  1.00  0.00     0.210 HD
ENDBRANCH   3   4
ENDBRANCH   2   3
ENDBRANCH   1   2
BRANCH   1   6
ATOM      6  N   UNL     1       6.333  46.856  52.535  1.00  0.00    -0.369 N 
ATOM      7  H   UNL     1       5.549  47.481  52.709  1.00  0.00     0.162 HD
BRANCH   6   8
ATOM      8  C   UNL     1       5.804  45.607  52.132  1.00  0.00     0.139 A 
ATOM      9  N   UNL     1       4.714  45.128  52.755  1.00  0.00    -0.195 NA
ATOM     10  C   UNL     1       6.443  44.895  51.105  1.00  0.00     0.043 A 
ATOM     11  C   UNL     1       4.218  43.949  52.357  1.00  0.00     0.229 A 
ATOM     12  C   UNL     1       7.619  45.308  50.427  1.00  0.00     0.014 A 
ATOM     13  C   UNL     1       5.843  43.681  50.762  1.00  0.00     0.078 A 
ATOM     14  N   UNL     1       4.749  43.220  51.371  1.00  0.00    -0.213 NA
ATOM     15  C   UNL     1       8.172  44.530  49.413  1.00  0.00     0.001 A 
ATOM     16  C   UNL     1       6.410  42.921  49.745  1.00  0.00     0.029 A 
ATOM     17  C   UNL     1       7.562  43.332  49.068  1.00  0.00     0.002 A 
BRANCH  11  18
ATOM     18  N   UNL     1       3.083  43.536  53.049  1.00  0.00    -0.324 N 
ATOM     19  H   UNL     1       2.905  42.568  52.828  1.00  0.00     0.170 HD
BRANCH  18  20
ATOM     20  C   UNL     1       2.191  44.164  53.924  1.00  0.00     0.041 A 
ATOM     21  C   UNL     1       2.581  44.827  55.095  1.00  0.00     0.029 A 
ATOM     22  C   UNL     1       0.817  44.128  53.621  1.00  0.00     0.029 A 
ATOM     23  C   UNL     1       1.639  45.434  55.933  1.00  0.00     0.041 A 
ATOM     24  C   UNL     1      -0.128  44.732  54.453  1.00  0.00     0.041 A 
ATOM     25  C   UNL     1       0.292  45.381  55.604  1.00  0.00     0.123 A 
ATOM     26  F   UNL     1      -0.610  45.962  56.405  1.00  0.00    -0.207 F 
ENDBRANCH  18  20
ENDBRANCH  11  18
ENDBRANCH   6   8
ENDBRANCH   1   6
TORSDOF 7
ENDMDL
MODEL 19
REMARK VINA RESULT:    -7.440      3.626      6.464
REMARK INTER + INTRA:         -11.330
REMARK INTER:                 -10.341
REMARK INTRA:                  -0.990
REMARK UNBOUND:                -1.063
REMARK SMILES OCCCNc1nc(Nc2ccc(F)cc2)nc2ccccc12
REMARK SMILES IDX 4 1 3 2 2 3 1 4 5 6 6 8 7 9 23 10 8 11 22 12 18 13 17 14
REMARK SMILES IDX 21 15 19 16 20 17 9 18 10 20 11 21 16 22 12 23 15 24 13 25
REMARK SMILES IDX 14 26
REMARK H PARENT 1 5 5 7 9 19
ROOT
ATOM      1  C   UNL     1       4.975  46.352  53.596  1.00  0.00     0.117 C 
ENDROOT
BRANCH   1   2
ATOM      2  C   UNL     1       6.118  45.793  54.448  1.00  0.00     0.049 C 
BRANCH   2   3
ATOM      3  C   UNL     1       5.595  44.922  55.580  1.00  0.00     0.158 C 
BRANCH   3   4
ATOM      4  O   UNL     1       4.177  44.825  55.527  1.00  0.00    -0.396 OA
ATOM      5  H   UNL     1       3.955  44.253  54.771  1.00  0.00     0.210 HD
ENDBRANCH   3   4
ENDBRANCH   2   3
ENDBRANCH   1   2
BRANCH   1   6
ATOM      6  N   UNL     1       5.071  45.871  52.216  1.00  0.00    -0.369 N 
ATOM      7  H   UNL     1       4.549  46.475  51.584  1.00  0.00     0.162 HD
BRANCH   6   8
ATOM      8  C   UNL     1       4.651  44.540  51.979  1.00  0.00     0.139 A 
ATOM      9  N   UNL     1       3.604  44.054  52.666  1.00  0.00    -0.195 NA
ATOM     10  C   UNL     1       5.352  43.759  51.046  1.00  0.00     0.043 A 
ATOM     11  C   UNL     1       3.211  42.795  52.425  1.00  0.00     0.229 A 
ATOM     12  C   UNL     1       6.491  44.181  50.312  1.00  0.00     0.014 A 
ATOM     13  C   UNL     1       4.858  42.465  50.865  1.00  0.00     0.078 A 
ATOM     14  N   UNL     1       3.805  41.995  51.536  1.00  0.00    -0.213 NA
ATOM     15  C   UNL     1       7.111  43.330  49.401  1.00  0.00     0.001 A 
ATOM     16  C   UNL     1       5.491  41.633  49.949  1.00  0.00     0.029 A 
ATOM     17  C   UNL     1       6.606  42.051  49.216  1.00  0.00     0.002 A 
BRANCH  11  18
ATOM     18  N   UNL     1       2.112  42.379  53.173  1.00  0.00    -0.324 N 
ATOM     19  H   UNL     1       2.318  41.475  53.571  1.00  0.00     0.170 HD
BRANCH  18  20
ATOM     20  C   UNL     1       0.857  42.928  53.451  1.00  0.00     0.041 A 
ATOM     21  C   UNL     1      -0.304  42.629  52.727  1.00  0.00     0.029 A 
ATOM     22  C   UNL     1       0.746  43.840  54.517  1.00  0.00     0.029 A 
ATOM     23  C   UNL     1      -1.533  43.215  53.053  1.00  0.00     0.041 A 
ATOM     24  C   UNL     1      -0.478  44.429  54.847  1.00  0.00     0.041 A 
ATOM     25  C   UNL     1      -1.608  44.110  54.110  1.00  0.00     0.123 A 
ATOM     26  F   UNL     1      -2.783  44.671  54.423  1.00  0.00    -0.207 F 
ENDBRANCH  18  20
ENDBRANCH  11  18
ENDBRANCH   6   8
ENDBRANCH   1   6
TORSDOF 7
ENDMDL
MODEL 20
REMARK VINA RESULT:    -7.421      3.686      7.204
REMARK INTER + INTRA:         -11.304
REMARK INTER:                 -10.552
REMARK INTRA:                  -0.752
REMARK UNBOUND:                -1.063
REMARK SMILES OCCCNc1nc(Nc2ccc(F)cc2)nc2ccccc12
REMARK SMILES IDX 4 1 3 2 2 3 1 4 5 6 6 8 7 9 23 10 8 11 22 12 18 13 17 14
REMARK SMILES IDX 21 15 19 16 20 17 9 18 10 20 11 21 16 22 12 23 15 24 13 25
REMARK SMILES IDX 14 26
REMARK H PARENT 1 5 5 7 9 19
ROOT
ATOM      1  C   UNL     1       7.224  42.825  49.747  1.00  0.00     0.117 C 
ENDROOT
BRANCH   1   2
ATOM      2  C   UNL     1       6.614  41.435  49.943  1.00  0.00     0.049 C 
BRANCH   2   3
ATOM      3  C   UNL     1       5.400  41.228  49.051  1.00  0.00     0.158 C 
BRANCH   3   4
ATOM      4  O   UNL     1       5.751  41.371  47.681  1.00  0.00    -0.396 OA
ATOM      5  H   UNL     1       5.631  42.309  47.448  1.00  0.00     0.210 HD
ENDBRANCH   3   4
ENDBRANCH   2   3
ENDBRANCH   1   2
BRANCH   1   6
ATOM      6  N   UNL     1       6.185  43.858  49.773  1.00  0.00    -0.369 N 
ATOM      7  H   UNL     1       6.436  44.640  49.172  1.00  0.00     0.162 HD
BRANCH   6   8
ATOM      8  C   UNL     1       5.849  44.384  51.044  1.00  0.00     0.139 A 
ATOM      9  N   UNL     1       4.784  43.889  51.695  1.00  0.00    -0.195 NA
ATOM     10  C   UNL     1       6.629  45.422  51.579  1.00  0.00     0.043 A 
ATOM     11  C   UNL     1       4.483  44.389  52.901  1.00  0.00     0.229 A 
ATOM     12  C   UNL     1       7.740  46.029  50.940  1.00  0.00     0.014 A 
ATOM     13  C   UNL     1       6.235  45.869  52.843  1.00  0.00     0.078 A 
ATOM     14  N   UNL     1       5.187  45.358  53.493  1.00  0.00    -0.213 NA
ATOM     15  C   UNL     1       8.454  47.050  51.562  1.00  0.00     0.001 A 
ATOM     16  C   UNL     1       6.962  46.887  53.446  1.00  0.00     0.029 A 
ATOM     17  C   UNL     1       8.065  47.478  52.823  1.00  0.00     0.002 A 
BRANCH  11  18
ATOM     18  N   UNL     1       3.371  43.810  53.507  1.00  0.00    -0.324 N 
ATOM     19  H   UNL     1       3.682  43.272  54.302  1.00  0.00     0.170 HD
BRANCH  18  20
ATOM     20  C   UNL     1       1.999  43.817  53.238  1.00  0.00     0.041 A 
ATOM     21  C   UNL     1       1.161  42.711  53.426  1.00  0.00     0.029 A 
ATOM     22  C   UNL     1       1.420  45.000  52.744  1.00  0.00     0.029 A 
ATOM     23  C   UNL     1      -0.207  42.780  53.134  1.00  0.00     0.041 A 
ATOM     24  C   UNL     1       0.056  45.076  52.451  1.00  0.00     0.041 A 
ATOM     25  C   UNL     1      -0.746  43.963  52.650  1.00  0.00     0.123 A 
ATOM     26  F   UNL     1      -2.054  44.030  52.371  1.00  0.00    -0.207 F 
ENDBRANCH  18  20
ENDBRANCH  11  18
ENDBRANCH   6   8
ENDBRANCH   1   6
TORSDOF 7
ENDMDL
