MODEL 1
REMARK VINA RESULT:    -8.376      0.000      0.000
REMARK INTER + INTRA:         -12.925
REMARK INTER:                 -11.804
REMARK INTRA:                  -1.122
REMARK UNBOUND:                -1.122
REMARK SMILES Cc1cc(Br)ccc1Nc1nc(NCCC[NH+](C)C)nc2c1cnn2C
REMARK SMILES IDX 14 1 15 2 16 3 17 4 18 5 19 6 13 8 12 10 11 11 20 12 10 13
REMARK SMILES IDX 21 14 22 15 25 16 23 17 24 18 26 19 9 20 8 22 7 23 2 24 6 25
REMARK SMILES IDX 3 26 4 27 1 28 5 29
REMARK H PARENT 17 7 13 9 9 21
ROOT
ATOM      1  C   UNL     1       2.319  44.868  52.617  1.00  0.00     0.122 C 
ENDROOT
BRANCH   1   2
ATOM      2  C   UNL     1       2.160  45.920  53.721  1.00  0.00     0.083 C 
BRANCH   2   3
ATOM      3  C   UNL     1       2.681  45.413  55.063  1.00  0.00     0.263 C 
BRANCH   3   4
ATOM      4  N   UNL     1       3.906  46.199  55.502  1.00  0.00    -0.340 N 
ATOM      5  C   UNL     1       4.252  47.345  54.595  1.00  0.00     0.332 C 
ATOM      6  C   UNL     1       5.091  45.285  55.694  1.00  0.00     0.332 C 
ATOM      7  H   UNL     1       3.694  46.588  56.431  1.00  0.00     0.347 HD
ENDBRANCH   3   4
ENDBRANCH   2   3
ENDBRANCH   1   2
BRANCH   1   8
ATOM      8  N   UNL     1       3.408  43.950  52.905  1.00  0.00    -0.354 N 
ATOM      9  H   UNL     1       3.870  44.121  53.800  1.00  0.00     0.163 HD
BRANCH   8  10
ATOM     10  C   UNL     1       4.472  43.977  52.003  1.00  0.00     0.226 A 
ATOM     11  N   UNL     1       5.280  45.041  52.145  1.00  0.00    -0.195 NA
ATOM     12  N   UNL     1       4.620  42.982  51.116  1.00  0.00    -0.193 NA
ATOM     13  C   UNL     1       6.369  45.182  51.347  1.00  0.00     0.147 A 
ATOM     14  C   UNL     1       5.680  43.166  50.312  1.00  0.00     0.165 A 
ATOM     15  C   UNL     1       6.580  44.214  50.362  1.00  0.00     0.082 A 
ATOM     16  N   UNL     1       6.090  42.373  49.273  1.00  0.00    -0.250 N 
ATOM     17  C   UNL     1       7.481  43.959  49.308  1.00  0.00     0.149 A 
ATOM     18  N   UNL     1       7.198  42.828  48.651  1.00  0.00    -0.179 NA
ATOM     19  C   UNL     1       5.467  41.164  48.798  1.00  0.00     0.176 C 
BRANCH  13  20
ATOM     20  N   UNL     1       7.159  46.323  51.538  1.00  0.00    -0.339 N 
ATOM     21  H   UNL     1       6.601  47.137  51.291  1.00  0.00     0.168 HD
BRANCH  20  22
ATOM     22  C   UNL     1       8.025  46.620  52.615  1.00  0.00     0.043 A 
ATOM     23  C   UNL     1       7.555  47.211  53.799  1.00  0.00     0.027 A 
ATOM     24  C   UNL     1       9.411  46.394  52.470  1.00  0.00    -0.026 A 
ATOM     25  C   UNL     1       8.430  47.538  54.838  1.00  0.00     0.018 A 
ATOM     26  C   UNL     1      10.284  46.727  53.519  1.00  0.00     0.021 A 
ATOM     27  C   UNL     1       9.791  47.291  54.694  1.00  0.00     0.018 A 
ATOM     28  C   UNL     1       9.972  45.783  51.215  1.00  0.00     0.046 C 
ATOM     29  Br  UNL     1      10.977  47.735  56.096  1.00  0.00    -0.051 Br
ENDBRANCH  20  22
ENDBRANCH  13  20
ENDBRANCH   8  10
ENDBRANCH   1   8
TORSDOF 7
ENDMDL
MODEL 2
REMARK VINA RESULT:    -8.298      2.936      5.688
REMARK INTER + INTRA:         -12.816
REMARK INTER:                 -12.048
REMARK INTRA:                  -0.768
REMARK UNBOUND:                -1.122
REMARK SMILES Cc1cc(Br)ccc1Nc1nc(NCCC[NH+](C)C)nc2c1cnn2C
REMARK SMILES IDX 14 1 15 2 16 3 17 4 18 5 19 6 13 8 12 10 11 11 20 12 10 13
REMARK SMILES IDX 21 14 22 15 25 16 23 17 24 18 26 19 9 20 8 22 7 23 2 24 6 25
REMARK SMILES IDX 3 26 4 27 1 28 5 29
REMARK H PARENT 17 7 13 9 9 21
ROOT
ATOM      1  C   UNL     1       4.366  45.668  55.413  1.00  0.00     0.122 C 
ENDROOT
BRANCH   1   2
ATOM      2  C   UNL     1       2.835  45.717  55.330  1.00  0.00     0.083 C 
BRANCH   2   3
ATOM      3  C   UNL     1       2.315  45.032  54.070  1.00  0.00     0.263 C 
BRANCH   3   4
ATOM      4  N   UNL     1       1.545  46.012  53.198  1.00  0.00    -0.340 N 
ATOM      5  C   UNL     1       0.482  45.371  52.352  1.00  0.00     0.332 C 
ATOM      6  C   UNL     1       2.486  46.834  52.354  1.00  0.00     0.332 C 
ATOM      7  H   UNL     1       1.081  46.675  53.834  1.00  0.00     0.347 HD
ENDBRANCH   3   4
ENDBRANCH   2   3
ENDBRANCH   1   2
BRANCH   1   8
ATOM      8  N   UNL     1       4.966  46.918  54.978  1.00  0.00    -0.354 N 
ATOM      9  H   UNL     1       4.377  47.464  54.346  1.00  0.00     0.163 HD
BRANCH   8  10
ATOM     10  C   UNL     1       6.154  46.795  54.258  1.00  0.00     0.226 A 
ATOM     11  N   UNL     1       5.992  46.306  53.018  1.00  0.00    -0.195 NA
ATOM     12  N   UNL     1       7.314  47.174  54.815  1.00  0.00    -0.193 NA
ATOM     13  C   UNL     1       7.064  46.155  52.198  1.00  0.00     0.147 A 
ATOM     14  C   UNL     1       8.363  46.978  53.999  1.00  0.00     0.165 A 
ATOM     15  C   UNL     1       8.321  46.483  52.709  1.00  0.00     0.082 A 
ATOM     16  N   UNL     1       9.687  47.208  54.267  1.00  0.00    -0.250 N 
ATOM     17  C   UNL     1       9.670  46.450  52.299  1.00  0.00     0.149 A 
ATOM     18  N   UNL     1      10.506  46.907  53.238  1.00  0.00    -0.179 NA
ATOM     19  C   UNL     1      10.256  47.704  55.494  1.00  0.00     0.176 C 
BRANCH  13  20
ATOM     20  N   UNL     1       6.825  45.623  50.924  1.00  0.00    -0.339 N 
ATOM     21  H   UNL     1       7.693  45.667  50.397  1.00  0.00     0.168 HD
BRANCH  20  22
ATOM     22  C   UNL     1       6.091  44.465  50.580  1.00  0.00     0.043 A 
ATOM     23  C   UNL     1       4.853  44.172  51.175  1.00  0.00     0.027 A 
ATOM     24  C   UNL     1       6.650  43.535  49.678  1.00  0.00    -0.026 A 
ATOM     25  C   UNL     1       4.159  43.003  50.857  1.00  0.00     0.018 A 
ATOM     26  C   UNL     1       5.946  42.360  49.365  1.00  0.00     0.021 A 
ATOM     27  C   UNL     1       4.708  42.103  49.950  1.00  0.00     0.018 A 
ATOM     28  C   UNL     1       7.983  43.787  49.027  1.00  0.00     0.046 C 
ATOM     29  Br  UNL     1       3.774  40.518  49.520  1.00  0.00    -0.051 Br
ENDBRANCH  20  22
ENDBRANCH  13  20
ENDBRANCH   8  10
ENDBRANCH   1   8
TORSDOF 7
ENDMDL
MODEL 3
REMARK VINA RESULT:    -8.259      1.288      1.755
REMARK INTER + INTRA:         -12.760
REMARK INTER:                 -11.825
REMARK INTRA:                  -0.935
REMARK UNBOUND:                -1.122
REMARK SMILES Cc1cc(Br)ccc1Nc1nc(NCCC[NH+](C)C)nc2c1cnn2C
REMARK SMILES IDX 14 1 15 2 16 3 17 4 18 5 19 6 13 8 12 10 11 11 20 12 10 13
REMARK SMILES IDX 21 14 22 15 25 16 23 17 24 18 26 19 9 20 8 22 7 23 2 24 6 25
REMARK SMILES IDX 3 26 4 27 1 28 5 29
REMARK H PARENT 17 7 13 9 9 21
ROOT
ATOM      1  C   UNL     1       2.522  42.748  52.676  1.00  0.00     0.122 C 
ENDROOT
BRANCH   1   2
ATOM      2  C   UNL     1       1.235  43.191  53.381  1.00  0.00     0.083 C 
BRANCH   2   3
ATOM      3  C   UNL     1       1.429  44.502  54.139  1.00  0.00     0.263 C 
BRANCH   3   4
ATOM      4  N   UNL     1       0.880  45.675  53.343  1.00  0.00    -0.340 N 
ATOM      5  C   UNL     1      -0.174  45.294  52.343  1.00  0.00     0.332 C 
ATOM      6  C   UNL     1       1.995  46.448  52.686  1.00  0.00     0.332 C 
ATOM      7  H   UNL     1       0.449  46.319  54.021  1.00  0.00     0.347 HD
ENDBRANCH   3   4
ENDBRANCH   2   3
ENDBRANCH   1   2
BRANCH   1   8
ATOM      8  N   UNL     1       3.663  43.544  53.095  1.00  0.00    -0.354 N 
ATOM      9  H   UNL     1       3.427  44.504  53.354  1.00  0.00     0.163 HD
BRANCH   8  10
ATOM     10  C   UNL     1       4.656  43.724  52.132  1.00  0.00     0.226 A 
ATOM     11  N   UNL     1       5.388  44.837  52.304  1.00  0.00    -0.195 NA
ATOM     12  N   UNL     1       4.818  42.812  51.162  1.00  0.00    -0.193 NA
ATOM     13  C   UNL     1       6.405  45.124  51.452  1.00  0.00     0.147 A 
ATOM     14  C   UNL     1       5.802  43.140  50.308  1.00  0.00     0.165 A 
ATOM     15  C   UNL     1       6.619  44.252  50.382  1.00  0.00     0.082 A 
ATOM     16  N   UNL     1       6.197  42.462  49.186  1.00  0.00    -0.250 N 
ATOM     17  C   UNL     1       7.461  44.149  49.256  1.00  0.00     0.149 A 
ATOM     18  N   UNL     1       7.221  43.049  48.531  1.00  0.00    -0.179 NA
ATOM     19  C   UNL     1       5.637  41.243  48.658  1.00  0.00     0.176 C 
BRANCH  13  20
ATOM     20  N   UNL     1       7.116  46.309  51.681  1.00  0.00    -0.339 N 
ATOM     21  H   UNL     1       6.493  47.091  51.496  1.00  0.00     0.168 HD
BRANCH  20  22
ATOM     22  C   UNL     1       7.996  46.612  52.745  1.00  0.00     0.043 A 
ATOM     23  C   UNL     1       7.534  47.169  53.949  1.00  0.00     0.027 A 
ATOM     24  C   UNL     1       9.384  46.429  52.569  1.00  0.00    -0.026 A 
ATOM     25  C   UNL     1       8.420  47.502  54.975  1.00  0.00     0.018 A 
ATOM     26  C   UNL     1      10.269  46.769  53.606  1.00  0.00     0.021 A 
ATOM     27  C   UNL     1       9.784  47.298  54.800  1.00  0.00     0.018 A 
ATOM     28  C   UNL     1       9.937  45.857  51.291  1.00  0.00     0.046 C 
ATOM     29  Br  UNL     1      10.986  47.752  56.185  1.00  0.00    -0.051 Br
ENDBRANCH  20  22
ENDBRANCH  13  20
ENDBRANCH   8  10
ENDBRANCH   1   8
TORSDOF 7
ENDMDL
MODEL 4
REMARK VINA RESULT:    -8.215      1.974      5.662
REMARK INTER + INTRA:         -12.699
REMARK INTER:                 -12.002
REMARK INTRA:                  -0.697
REMARK UNBOUND:                -1.122
REMARK SMILES Cc1cc(Br)ccc1Nc1nc(NCCC[NH+](C)C)nc2c1cnn2C
REMARK SMILES IDX 14 1 15 2 16 3 17 4 18 5 19 6 13 8 12 10 11 11 20 12 10 13
REMARK SMILES IDX 21 14 22 15 25 16 23 17 24 18 26 19 9 20 8 22 7 23 2 24 6 25
REMARK SMILES IDX 3 26 4 27 1 28 5 29
REMARK H PARENT 17 7 13 9 9 21
ROOT
ATOM      1  C   UNL     1       5.745  41.430  48.242  1.00  0.00     0.122 C 
ENDROOT
BRANCH   1   2
ATOM      2  C   UNL     1       5.599  41.800  46.761  1.00  0.00     0.083 C 
BRANCH   2   3
ATOM      3  C   UNL     1       4.337  41.197  46.150  1.00  0.00     0.263 C 
BRANCH   3   4
ATOM      4  N   UNL     1       4.684  40.056  45.206  1.00  0.00    -0.340 N 
ATOM      5  C   UNL     1       5.288  40.503  43.905  1.00  0.00     0.332 C 
ATOM      6  C   UNL     1       3.486  39.171  44.970  1.00  0.00     0.332 C 
ATOM      7  H   UNL     1       5.379  39.470  45.689  1.00  0.00     0.347 HD
ENDBRANCH   3   4
ENDBRANCH   2   3
ENDBRANCH   1   2
BRANCH   1   8
ATOM      8  N   UNL     1       6.721  42.273  48.910  1.00  0.00    -0.354 N 
ATOM      9  H   UNL     1       7.445  41.754  49.412  1.00  0.00     0.163 HD
BRANCH   8  10
ATOM     10  C   UNL     1       6.212  43.115  49.899  1.00  0.00     0.226 A 
ATOM     11  N   UNL     1       6.963  44.205  50.128  1.00  0.00    -0.195 NA
ATOM     12  N   UNL     1       5.057  42.807  50.507  1.00  0.00    -0.193 NA
ATOM     13  C   UNL     1       6.572  45.122  51.048  1.00  0.00     0.147 A 
ATOM     14  C   UNL     1       4.712  43.709  51.442  1.00  0.00     0.165 A 
ATOM     15  C   UNL     1       5.401  44.863  51.765  1.00  0.00     0.082 A 
ATOM     16  N   UNL     1       3.627  43.677  52.277  1.00  0.00    -0.250 N 
ATOM     17  C   UNL     1       4.650  45.444  52.808  1.00  0.00     0.149 A 
ATOM     18  N   UNL     1       3.557  44.734  53.113  1.00  0.00    -0.179 NA
ATOM     19  C   UNL     1       2.611  42.658  52.349  1.00  0.00     0.176 C 
BRANCH  13  20
ATOM     20  N   UNL     1       7.411  46.226  51.248  1.00  0.00    -0.339 N 
ATOM     21  H   UNL     1       6.941  47.050  50.882  1.00  0.00     0.168 HD
BRANCH  20  22
ATOM     22  C   UNL     1       8.170  46.555  52.395  1.00  0.00     0.043 A 
ATOM     23  C   UNL     1       7.588  47.173  53.514  1.00  0.00     0.027 A 
ATOM     24  C   UNL     1       9.564  46.333  52.388  1.00  0.00    -0.026 A 
ATOM     25  C   UNL     1       8.360  47.530  54.622  1.00  0.00     0.018 A 
ATOM     26  C   UNL     1      10.333  46.697  53.506  1.00  0.00     0.021 A 
ATOM     27  C   UNL     1       9.729  47.287  54.614  1.00  0.00     0.018 A 
ATOM     28  C   UNL     1      10.244  45.693  51.207  1.00  0.00     0.046 C 
ATOM     29  Br  UNL     1      10.776  47.772  56.110  1.00  0.00    -0.051 Br
ENDBRANCH  20  22
ENDBRANCH  13  20
ENDBRANCH   8  10
ENDBRANCH   1   8
TORSDOF 7
ENDMDL
MODEL 5
REMARK VINA RESULT:    -8.191      1.014      1.262
REMARK INTER + INTRA:         -12.664
REMARK INTER:                 -11.398
REMARK INTRA:                  -1.266
REMARK UNBOUND:                -1.122
REMARK SMILES Cc1cc(Br)ccc1Nc1nc(NCCC[NH+](C)C)nc2c1cnn2C
REMARK SMILES IDX 14 1 15 2 16 3 17 4 18 5 19 6 13 8 12 10 11 11 20 12 10 13
REMARK SMILES IDX 21 14 22 15 25 16 23 17 24 18 26 19 9 20 8 22 7 23 2 24 6 25
REMARK SMILES IDX 3 26 4 27 1 28 5 29
REMARK H PARENT 17 7 13 9 9 21
ROOT
ATOM      1  C   UNL     1       1.824  45.457  52.344  1.00  0.00     0.122 C 
ENDROOT
BRANCH   1   2
ATOM      2  C   UNL     1       1.985  45.856  53.816  1.00  0.00     0.083 C 
BRANCH   2   3
ATOM      3  C   UNL     1       2.998  44.969  54.534  1.00  0.00     0.263 C 
BRANCH   3   4
ATOM      4  N   UNL     1       4.385  45.592  54.501  1.00  0.00    -0.340 N 
ATOM      5  C   UNL     1       5.363  44.955  55.447  1.00  0.00     0.332 C 
ATOM      6  C   UNL     1       4.310  47.081  54.724  1.00  0.00     0.332 C 
ATOM      7  H   UNL     1       4.746  45.466  53.546  1.00  0.00     0.347 HD
ENDBRANCH   3   4
ENDBRANCH   2   3
ENDBRANCH   1   2
BRANCH   1   8
ATOM      8  N   UNL     1       2.819  46.101  51.503  1.00  0.00    -0.354 N 
ATOM      9  H   UNL     1       2.469  46.382  50.585  1.00  0.00     0.163 HD
BRANCH   8  10
ATOM     10  C   UNL     1       3.929  45.320  51.180  1.00  0.00     0.226 A 
ATOM     11  N   UNL     1       5.098  45.977  51.251  1.00  0.00    -0.195 NA
ATOM     12  N   UNL     1       3.764  44.029  50.856  1.00  0.00    -0.193 NA
ATOM     13  C   UNL     1       6.261  45.330  50.984  1.00  0.00     0.147 A 
ATOM     14  C   UNL     1       4.924  43.422  50.557  1.00  0.00     0.165 A 
ATOM     15  C   UNL     1       6.184  43.991  50.595  1.00  0.00     0.082 A 
ATOM     16  N   UNL     1       5.112  42.131  50.142  1.00  0.00    -0.250 N 
ATOM     17  C   UNL     1       7.051  42.961  50.178  1.00  0.00     0.149 A 
ATOM     18  N   UNL     1       6.405  41.817  49.917  1.00  0.00    -0.179 NA
ATOM     19  C   UNL     1       4.100  41.129  49.920  1.00  0.00     0.176 C 
BRANCH  13  20
ATOM     20  N   UNL     1       7.443  46.080  51.062  1.00  0.00    -0.339 N 
ATOM     21  H   UNL     1       7.355  46.871  50.430  1.00  0.00     0.168 HD
BRANCH  20  22
ATOM     22  C   UNL     1       8.178  46.441  52.214  1.00  0.00     0.043 A 
ATOM     23  C   UNL     1       7.570  47.073  53.310  1.00  0.00     0.027 A 
ATOM     24  C   UNL     1       9.575  46.237  52.234  1.00  0.00    -0.026 A 
ATOM     25  C   UNL     1       8.318  47.462  54.423  1.00  0.00     0.018 A 
ATOM     26  C   UNL     1      10.320  46.633  53.357  1.00  0.00     0.021 A 
ATOM     27  C   UNL     1       9.691  47.237  54.443  1.00  0.00     0.018 A 
ATOM     28  C   UNL     1      10.282  45.584  51.077  1.00  0.00     0.046 C 
ATOM     29  Br  UNL     1      10.706  47.765  55.946  1.00  0.00    -0.051 Br
ENDBRANCH  20  22
ENDBRANCH  13  20
ENDBRANCH   8  10
ENDBRANCH   1   8
TORSDOF 7
ENDMDL
MODEL 6
REMARK VINA RESULT:    -8.061      1.809      5.263
REMARK INTER + INTRA:         -12.481
REMARK INTER:                 -11.733
REMARK INTRA:                  -0.748
REMARK UNBOUND:                -1.122
REMARK SMILES Cc1cc(Br)ccc1Nc1nc(NCCC[NH+](C)C)nc2c1cnn2C
REMARK SMILES IDX 14 1 15 2 16 3 17 4 18 5 19 6 13 8 12 10 11 11 20 12 10 13
REMARK SMILES IDX 21 14 22 15 25 16 23 17 24 18 26 19 9 20 8 22 7 23 2 24 6 25
REMARK SMILES IDX 3 26 4 27 1 28 5 29
REMARK H PARENT 17 7 13 9 9 21
ROOT
ATOM      1  C   UNL     1       5.756  41.599  50.056  1.00  0.00     0.122 C 
ENDROOT
BRANCH   1   2
ATOM      2  C   UNL     1       5.411  41.247  48.604  1.00  0.00     0.083 C 
BRANCH   2   3
ATOM      3  C   UNL     1       4.061  40.543  48.499  1.00  0.00     0.263 C 
BRANCH   3   4
ATOM      4  N   UNL     1       3.914  39.851  47.154  1.00  0.00    -0.340 N 
ATOM      5  C   UNL     1       3.524  40.771  46.033  1.00  0.00     0.332 C 
ATOM      6  C   UNL     1       2.964  38.684  47.251  1.00  0.00     0.332 C 
ATOM      7  H   UNL     1       4.833  39.449  46.923  1.00  0.00     0.347 HD
ENDBRANCH   3   4
ENDBRANCH   2   3
ENDBRANCH   1   2
BRANCH   1   8
ATOM      8  N   UNL     1       4.565  41.908  50.829  1.00  0.00    -0.354 N 
ATOM      9  H   UNL     1       3.690  41.700  50.344  1.00  0.00     0.163 HD
BRANCH   8  10
ATOM     10  C   UNL     1       4.408  43.249  51.180  1.00  0.00     0.226 A 
ATOM     11  N   UNL     1       5.539  43.969  51.105  1.00  0.00    -0.195 NA
ATOM     12  N   UNL     1       3.197  43.710  51.529  1.00  0.00    -0.193 NA
ATOM     13  C   UNL     1       5.525  45.295  51.397  1.00  0.00     0.147 A 
ATOM     14  C   UNL     1       3.218  45.014  51.852  1.00  0.00     0.165 A 
ATOM     15  C   UNL     1       4.315  45.854  51.814  1.00  0.00     0.082 A 
ATOM     16  N   UNL     1       2.175  45.783  52.295  1.00  0.00    -0.250 N 
ATOM     17  C   UNL     1       3.825  47.098  52.261  1.00  0.00     0.149 A 
ATOM     18  N   UNL     1       2.516  47.066  52.539  1.00  0.00    -0.179 NA
ATOM     19  C   UNL     1       0.817  45.363  52.528  1.00  0.00     0.176 C 
BRANCH  13  20
ATOM     20  N   UNL     1       6.744  45.981  51.315  1.00  0.00    -0.339 N 
ATOM     21  H   UNL     1       6.625  46.760  50.672  1.00  0.00     0.168 HD
BRANCH  20  22
ATOM     22  C   UNL     1       7.626  46.330  52.363  1.00  0.00     0.043 A 
ATOM     23  C   UNL     1       7.161  46.886  53.566  1.00  0.00     0.027 A 
ATOM     24  C   UNL     1       9.018  46.195  52.169  1.00  0.00    -0.026 A 
ATOM     25  C   UNL     1       8.048  47.265  54.575  1.00  0.00     0.018 A 
ATOM     26  C   UNL     1       9.904  46.581  53.189  1.00  0.00     0.021 A 
ATOM     27  C   UNL     1       9.416  47.108  54.383  1.00  0.00     0.018 A 
ATOM     28  C   UNL     1       9.574  45.625  50.892  1.00  0.00     0.046 C 
ATOM     29  Br  UNL     1      10.620  47.623  55.745  1.00  0.00    -0.051 Br
ENDBRANCH  20  22
ENDBRANCH  13  20
ENDBRANCH   8  10
ENDBRANCH   1   8
TORSDOF 7
ENDMDL
MODEL 7
REMARK VINA RESULT:    -7.962      2.574      6.253
REMARK INTER + INTRA:         -12.342
REMARK INTER:                 -11.663
REMARK INTRA:                  -0.679
REMARK UNBOUND:                -1.122
REMARK SMILES Cc1cc(Br)ccc1Nc1nc(NCCC[NH+](C)C)nc2c1cnn2C
REMARK SMILES IDX 14 1 15 2 16 3 17 4 18 5 19 6 13 8 12 10 11 11 20 12 10 13
REMARK SMILES IDX 21 14 22 15 25 16 23 17 24 18 26 19 9 20 8 22 7 23 2 24 6 25
REMARK SMILES IDX 3 26 4 27 1 28 5 29
REMARK H PARENT 17 7 13 9 9 21
ROOT
ATOM      1  C   UNL     1       5.499  45.533  55.349  1.00  0.00     0.122 C 
ENDROOT
BRANCH   1   2
ATOM      2  C   UNL     1       6.203  46.704  54.652  1.00  0.00     0.083 C 
BRANCH   2   3
ATOM      3  C   UNL     1       7.404  46.235  53.836  1.00  0.00     0.263 C 
BRANCH   3   4
ATOM      4  N   UNL     1       8.313  47.404  53.489  1.00  0.00    -0.340 N 
ATOM      5  C   UNL     1       8.214  47.851  52.059  1.00  0.00     0.332 C 
ATOM      6  C   UNL     1       9.743  47.102  53.863  1.00  0.00     0.332 C 
ATOM      7  H   UNL     1       8.025  48.193  54.084  1.00  0.00     0.347 HD
ENDBRANCH   3   4
ENDBRANCH   2   3
ENDBRANCH   1   2
BRANCH   1   8
ATOM      8  N   UNL     1       4.167  45.901  55.800  1.00  0.00    -0.354 N 
ATOM      9  H   UNL     1       3.980  45.666  56.776  1.00  0.00     0.163 HD
BRANCH   8  10
ATOM     10  C   UNL     1       3.114  45.279  55.130  1.00  0.00     0.226 A 
ATOM     11  N   UNL     1       3.439  44.817  53.911  1.00  0.00    -0.195 NA
ATOM     12  N   UNL     1       1.916  45.172  55.724  1.00  0.00    -0.193 NA
ATOM     13  C   UNL     1       2.514  44.170  53.158  1.00  0.00     0.147 A 
ATOM     14  C   UNL     1       1.008  44.565  54.943  1.00  0.00     0.165 A 
ATOM     15  C   UNL     1       1.223  44.050  53.678  1.00  0.00     0.082 A 
ATOM     16  N   UNL     1      -0.315  44.337  55.217  1.00  0.00    -0.250 N 
ATOM     17  C   UNL     1      -0.033  43.545  53.282  1.00  0.00     0.149 A 
ATOM     18  N   UNL     1      -0.971  43.701  54.224  1.00  0.00    -0.179 NA
ATOM     19  C   UNL     1      -1.037  44.710  56.407  1.00  0.00     0.176 C 
BRANCH  13  20
ATOM     20  N   UNL     1       2.916  43.729  51.890  1.00  0.00    -0.339 N 
ATOM     21  H   UNL     1       2.190  43.981  51.224  1.00  0.00     0.168 HD
BRANCH  20  22
ATOM     22  C   UNL     1       4.194  43.822  51.294  1.00  0.00     0.043 A 
ATOM     23  C   UNL     1       4.862  45.050  51.167  1.00  0.00     0.027 A 
ATOM     24  C   UNL     1       4.783  42.666  50.737  1.00  0.00    -0.026 A 
ATOM     25  C   UNL     1       6.106  45.132  50.537  1.00  0.00     0.018 A 
ATOM     26  C   UNL     1       6.034  42.758  50.104  1.00  0.00     0.021 A 
ATOM     27  C   UNL     1       6.688  43.984  50.011  1.00  0.00     0.018 A 
ATOM     28  C   UNL     1       4.102  41.327  50.825  1.00  0.00     0.046 C 
ATOM     29  Br  UNL     1       8.369  44.093  49.156  1.00  0.00    -0.051 Br
ENDBRANCH  20  22
ENDBRANCH  13  20
ENDBRANCH   8  10
ENDBRANCH   1   8
TORSDOF 7
ENDMDL
MODEL 8
REMARK VINA RESULT:    -7.910      1.985      5.642
REMARK INTER + INTRA:         -12.269
REMARK INTER:                 -11.369
REMARK INTRA:                  -0.900
REMARK UNBOUND:                -1.122
REMARK SMILES Cc1cc(Br)ccc1Nc1nc(NCCC[NH+](C)C)nc2c1cnn2C
REMARK SMILES IDX 14 1 15 2 16 3 17 4 18 5 19 6 13 8 12 10 11 11 20 12 10 13
REMARK SMILES IDX 21 14 22 15 25 16 23 17 24 18 26 19 9 20 8 22 7 23 2 24 6 25
REMARK SMILES IDX 3 26 4 27 1 28 5 29
REMARK H PARENT 17 7 13 9 9 21
ROOT
ATOM      1  C   UNL     1       5.317  41.443  50.221  1.00  0.00     0.122 C 
ENDROOT
BRANCH   1   2
ATOM      2  C   UNL     1       5.142  41.171  48.721  1.00  0.00     0.083 C 
BRANCH   2   3
ATOM      3  C   UNL     1       3.749  40.638  48.403  1.00  0.00     0.263 C 
BRANCH   3   4
ATOM      4  N   UNL     1       3.728  39.949  47.047  1.00  0.00    -0.340 N 
ATOM      5  C   UNL     1       3.334  40.850  45.912  1.00  0.00     0.332 C 
ATOM      6  C   UNL     1       2.863  38.715  47.084  1.00  0.00     0.332 C 
ATOM      7  H   UNL     1       4.686  39.619  46.866  1.00  0.00     0.347 HD
ENDBRANCH   3   4
ENDBRANCH   2   3
ENDBRANCH   1   2
BRANCH   1   8
ATOM      8  N   UNL     1       4.054  41.343  50.933  1.00  0.00    -0.354 N 
ATOM      9  H   UNL     1       3.270  41.046  50.349  1.00  0.00     0.163 HD
BRANCH   8  10
ATOM     10  C   UNL     1       3.584  42.532  51.492  1.00  0.00     0.226 A 
ATOM     11  N   UNL     1       4.410  43.577  51.325  1.00  0.00    -0.195 NA
ATOM     12  N   UNL     1       2.393  42.554  52.107  1.00  0.00    -0.193 NA
ATOM     13  C   UNL     1       4.066  44.802  51.800  1.00  0.00     0.147 A 
ATOM     14  C   UNL     1       2.093  43.766  52.603  1.00  0.00     0.165 A 
ATOM     15  C   UNL     1       2.860  44.911  52.495  1.00  0.00     0.082 A 
ATOM     16  N   UNL     1       0.987  44.125  53.326  1.00  0.00    -0.250 N 
ATOM     17  C   UNL     1       2.128  45.895  53.192  1.00  0.00     0.149 A 
ATOM     18  N   UNL     1       0.975  45.426  53.686  1.00  0.00    -0.179 NA
ATOM     19  C   UNL     1      -0.107  43.278  53.728  1.00  0.00     0.176 C 
BRANCH  13  20
ATOM     20  N   UNL     1       4.982  45.844  51.606  1.00  0.00    -0.339 N 
ATOM     21  H   UNL     1       4.458  46.687  51.385  1.00  0.00     0.168 HD
BRANCH  20  22
ATOM     22  C   UNL     1       6.130  46.156  52.370  1.00  0.00     0.043 A 
ATOM     23  C   UNL     1       6.033  46.637  53.685  1.00  0.00     0.027 A 
ATOM     24  C   UNL     1       7.405  46.062  51.771  1.00  0.00    -0.026 A 
ATOM     25  C   UNL     1       7.175  46.982  54.412  1.00  0.00     0.018 A 
ATOM     26  C   UNL     1       8.548  46.412  52.509  1.00  0.00     0.021 A 
ATOM     27  C   UNL     1       8.428  46.865  53.821  1.00  0.00     0.018 A 
ATOM     28  C   UNL     1       7.566  45.573  50.357  1.00  0.00     0.046 C 
ATOM     29  Br  UNL     1       9.974  47.333  54.801  1.00  0.00    -0.051 Br
ENDBRANCH  20  22
ENDBRANCH  13  20
ENDBRANCH   8  10
ENDBRANCH   1   8
TORSDOF 7
ENDMDL
MODEL 9
REMARK VINA RESULT:    -7.615      2.082      5.284
REMARK INTER + INTRA:         -11.853
REMARK INTER:                 -10.869
REMARK INTRA:                  -0.984
REMARK UNBOUND:                -1.122
REMARK SMILES Cc1cc(Br)ccc1Nc1nc(NCCC[NH+](C)C)nc2c1cnn2C
REMARK SMILES IDX 14 1 15 2 16 3 17 4 18 5 19 6 13 8 12 10 11 11 20 12 10 13
REMARK SMILES IDX 21 14 22 15 25 16 23 17 24 18 26 19 9 20 8 22 7 23 2 24 6 25
REMARK SMILES IDX 3 26 4 27 1 28 5 29
REMARK H PARENT 17 7 13 9 9 21
ROOT
ATOM      1  C   UNL     1       3.823  41.151  49.976  1.00  0.00     0.122 C 
ENDROOT
BRANCH   1   2
ATOM      2  C   UNL     1       5.180  41.176  49.262  1.00  0.00     0.083 C 
BRANCH   2   3
ATOM      3  C   UNL     1       6.229  41.935  50.070  1.00  0.00     0.263 C 
BRANCH   3   4
ATOM      4  N   UNL     1       6.558  43.267  49.416  1.00  0.00    -0.340 N 
ATOM      5  C   UNL     1       8.013  43.444  49.090  1.00  0.00     0.332 C 
ATOM      6  C   UNL     1       6.046  44.416  50.247  1.00  0.00     0.332 C 
ATOM      7  H   UNL     1       6.033  43.302  48.531  1.00  0.00     0.347 HD
ENDBRANCH   3   4
ENDBRANCH   2   3
ENDBRANCH   1   2
BRANCH   1   8
ATOM      8  N   UNL     1       3.930  41.623  51.346  1.00  0.00    -0.354 N 
ATOM      9  H   UNL     1       3.704  40.916  52.048  1.00  0.00     0.163 HD
BRANCH   8  10
ATOM     10  C   UNL     1       3.078  42.674  51.688  1.00  0.00     0.226 A 
ATOM     11  N   UNL     1       3.666  43.637  52.416  1.00  0.00    -0.195 NA
ATOM     12  N   UNL     1       1.804  42.661  51.272  1.00  0.00    -0.193 NA
ATOM     13  C   UNL     1       2.959  44.731  52.798  1.00  0.00     0.147 A 
ATOM     14  C   UNL     1       1.114  43.733  51.697  1.00  0.00     0.165 A 
ATOM     15  C   UNL     1       1.608  44.784  52.447  1.00  0.00     0.082 A 
ATOM     16  N   UNL     1      -0.212  44.010  51.495  1.00  0.00    -0.250 N 
ATOM     17  C   UNL     1       0.497  45.630  52.646  1.00  0.00     0.149 A 
ATOM     18  N   UNL     1      -0.612  45.172  52.053  1.00  0.00    -0.179 NA
ATOM     19  C   UNL     1      -1.175  43.204  50.788  1.00  0.00     0.176 C 
BRANCH  13  20
ATOM     20  N   UNL     1       3.629  45.689  53.570  1.00  0.00    -0.339 N 
ATOM     21  H   UNL     1       3.353  45.561  54.540  1.00  0.00     0.168 HD
BRANCH  20  22
ATOM     22  C   UNL     1       4.981  46.094  53.485  1.00  0.00     0.043 A 
ATOM     23  C   UNL     1       5.433  46.951  52.468  1.00  0.00     0.027 A 
ATOM     24  C   UNL     1       5.921  45.562  54.394  1.00  0.00    -0.026 A 
ATOM     25  C   UNL     1       6.779  47.308  52.372  1.00  0.00     0.018 A 
ATOM     26  C   UNL     1       7.274  45.925  54.289  1.00  0.00     0.021 A 
ATOM     27  C   UNL     1       7.694  46.795  53.285  1.00  0.00     0.018 A 
ATOM     28  C   UNL     1       5.496  44.622  55.491  1.00  0.00     0.046 C 
ATOM     29  Br  UNL     1       9.517  47.273  53.157  1.00  0.00    -0.051 Br
ENDBRANCH  20  22
ENDBRANCH  13  20
ENDBRANCH   8  10
ENDBRANCH   1   8
TORSDOF 7
ENDMDL
MODEL 10
REMARK VINA RESULT:    -7.605      2.359      5.560
REMARK INTER + INTRA:         -11.839
REMARK INTER:                 -10.798
REMARK INTRA:                  -1.041
REMARK UNBOUND:                -1.122
REMARK SMILES Cc1cc(Br)ccc1Nc1nc(NCCC[NH+](C)C)nc2c1cnn2C
REMARK SMILES IDX 14 1 15 2 16 3 17 4 18 5 19 6 13 8 12 10 11 11 20 12 10 13
REMARK SMILES IDX 21 14 22 15 25 16 23 17 24 18 26 19 9 20 8 22 7 23 2 24 6 25
REMARK SMILES IDX 3 26 4 27 1 28 5 29
REMARK H PARENT 17 7 13 9 9 21
ROOT
ATOM      1  C   UNL     1       4.548  41.391  50.855  1.00  0.00     0.122 C 
ENDROOT
BRANCH   1   2
ATOM      2  C   UNL     1       5.421  41.452  49.595  1.00  0.00     0.083 C 
BRANCH   2   3
ATOM      3  C   UNL     1       6.807  42.015  49.897  1.00  0.00     0.263 C 
BRANCH   3   4
ATOM      4  N   UNL     1       6.934  43.444  49.392  1.00  0.00    -0.340 N 
ATOM      5  C   UNL     1       8.346  43.866  49.104  1.00  0.00     0.332 C 
ATOM      6  C   UNL     1       6.262  44.409  50.336  1.00  0.00     0.332 C 
ATOM      7  H   UNL     1       6.406  43.496  48.510  1.00  0.00     0.347 HD
ENDBRANCH   3   4
ENDBRANCH   2   3
ENDBRANCH   1   2
BRANCH   1   8
ATOM      8  N   UNL     1       3.134  41.471  50.529  1.00  0.00    -0.354 N 
ATOM      9  H   UNL     1       2.943  41.598  49.534  1.00  0.00     0.163 HD
BRANCH   8  10
ATOM     10  C   UNL     1       2.444  42.536  51.109  1.00  0.00     0.226 A 
ATOM     11  N   UNL     1       3.140  43.187  52.055  1.00  0.00    -0.195 NA
ATOM     12  N   UNL     1       1.205  42.834  50.691  1.00  0.00    -0.193 NA
ATOM     13  C   UNL     1       2.597  44.259  52.686  1.00  0.00     0.147 A 
ATOM     14  C   UNL     1       0.674  43.872  51.359  1.00  0.00     0.165 A 
ATOM     15  C   UNL     1       1.291  44.618  52.346  1.00  0.00     0.082 A 
ATOM     16  N   UNL     1      -0.580  44.405  51.219  1.00  0.00    -0.250 N 
ATOM     17  C   UNL     1       0.319  45.562  52.736  1.00  0.00     0.149 A 
ATOM     18  N   UNL     1      -0.818  45.449  52.040  1.00  0.00    -0.179 NA
ATOM     19  C   UNL     1      -1.623  43.961  50.329  1.00  0.00     0.176 C 
BRANCH  13  20
ATOM     20  N   UNL     1       3.373  44.881  53.673  1.00  0.00    -0.339 N 
ATOM     21  H   UNL     1       3.339  44.305  54.510  1.00  0.00     0.168 HD
BRANCH  20  22
ATOM     22  C   UNL     1       4.641  45.490  53.538  1.00  0.00     0.043 A 
ATOM     23  C   UNL     1       5.817  44.847  53.958  1.00  0.00     0.027 A 
ATOM     24  C   UNL     1       4.726  46.810  53.045  1.00  0.00    -0.026 A 
ATOM     25  C   UNL     1       7.059  45.478  53.857  1.00  0.00     0.018 A 
ATOM     26  C   UNL     1       5.979  47.438  52.949  1.00  0.00     0.021 A 
ATOM     27  C   UNL     1       7.134  46.771  53.350  1.00  0.00     0.018 A 
ATOM     28  C   UNL     1       3.496  47.555  52.601  1.00  0.00     0.046 C 
ATOM     29  Br  UNL     1       8.812  47.628  53.215  1.00  0.00    -0.051 Br
ENDBRANCH  20  22
ENDBRANCH  13  20
ENDBRANCH   8  10
ENDBRANCH   1   8
TORSDOF 7
ENDMDL
MODEL 11
REMARK VINA RESULT:    -7.553      1.252      2.420
REMARK INTER + INTRA:         -11.766
REMARK INTER:                 -11.087
REMARK INTRA:                  -0.679
REMARK UNBOUND:                -1.122
REMARK SMILES Cc1cc(Br)ccc1Nc1nc(NCCC[NH+](C)C)nc2c1cnn2C
REMARK SMILES IDX 14 1 15 2 16 3 17 4 18 5 19 6 13 8 12 10 11 11 20 12 10 13
REMARK SMILES IDX 21 14 22 15 25 16 23 17 24 18 26 19 9 20 8 22 7 23 2 24 6 25
REMARK SMILES IDX 3 26 4 27 1 28 5 29
REMARK H PARENT 17 7 13 9 9 21
ROOT
ATOM      1  C   UNL     1       3.383  44.854  53.988  1.00  0.00     0.122 C 
ENDROOT
BRANCH   1   2
ATOM      2  C   UNL     1       1.961  45.426  54.058  1.00  0.00     0.083 C 
BRANCH   2   3
ATOM      3  C   UNL     1       1.069  44.854  52.960  1.00  0.00     0.263 C 
BRANCH   3   4
ATOM      4  N   UNL     1      -0.110  44.101  53.558  1.00  0.00    -0.340 N 
ATOM      5  C   UNL     1      -0.471  44.538  54.948  1.00  0.00     0.332 C 
ATOM      6  C   UNL     1       0.119  42.612  53.501  1.00  0.00     0.332 C 
ATOM      7  H   UNL     1      -0.921  44.287  52.951  1.00  0.00     0.347 HD
ENDBRANCH   3   4
ENDBRANCH   2   3
ENDBRANCH   1   2
BRANCH   1   8
ATOM      8  N   UNL     1       3.477  43.772  53.023  1.00  0.00    -0.354 N 
ATOM      9  H   UNL     1       3.653  42.857  53.441  1.00  0.00     0.163 HD
BRANCH   8  10
ATOM     10  C   UNL     1       4.512  43.885  52.094  1.00  0.00     0.226 A 
ATOM     11  N   UNL     1       5.241  45.005  52.223  1.00  0.00    -0.195 NA
ATOM     12  N   UNL     1       4.710  42.909  51.195  1.00  0.00    -0.193 NA
ATOM     13  C   UNL     1       6.295  45.232  51.397  1.00  0.00     0.147 A 
ATOM     14  C   UNL     1       5.732  43.176  50.364  1.00  0.00     0.165 A 
ATOM     15  C   UNL     1       6.551  44.289  50.399  1.00  0.00     0.082 A 
ATOM     16  N   UNL     1       6.172  42.423  49.309  1.00  0.00    -0.250 N 
ATOM     17  C   UNL     1       7.440  44.109  49.319  1.00  0.00     0.149 A 
ATOM     18  N   UNL     1       7.225  42.963  48.661  1.00  0.00    -0.179 NA
ATOM     19  C   UNL     1       5.628  41.173  48.841  1.00  0.00     0.176 C 
BRANCH  13  20
ATOM     20  N   UNL     1       7.002  46.429  51.576  1.00  0.00    -0.339 N 
ATOM     21  H   UNL     1       6.355  47.201  51.435  1.00  0.00     0.168 HD
BRANCH  20  22
ATOM     22  C   UNL     1       7.947  46.747  52.578  1.00  0.00     0.043 A 
ATOM     23  C   UNL     1       9.323  46.542  52.387  1.00  0.00     0.027 A 
ATOM     24  C   UNL     1       7.495  47.206  53.835  1.00  0.00    -0.026 A 
ATOM     25  C   UNL     1      10.241  46.822  53.402  1.00  0.00     0.018 A 
ATOM     26  C   UNL     1       8.425  47.483  54.850  1.00  0.00     0.021 A 
ATOM     27  C   UNL     1       9.787  47.294  54.629  1.00  0.00     0.018 A 
ATOM     28  C   UNL     1       6.030  47.423  54.102  1.00  0.00     0.046 C 
ATOM     29  Br  UNL     1      11.026  47.670  56.005  1.00  0.00    -0.051 Br
ENDBRANCH  20  22
ENDBRANCH  13  20
ENDBRANCH   8  10
ENDBRANCH   1   8
TORSDOF 7
ENDMDL
MODEL 12
REMARK VINA RESULT:    -7.492      2.885      6.023
REMARK INTER + INTRA:         -11.679
REMARK INTER:                 -10.780
REMARK INTRA:                  -0.900
REMARK UNBOUND:                -1.122
REMARK SMILES Cc1cc(Br)ccc1Nc1nc(NCCC[NH+](C)C)nc2c1cnn2C
REMARK SMILES IDX 14 1 15 2 16 3 17 4 18 5 19 6 13 8 12 10 11 11 20 12 10 13
REMARK SMILES IDX 21 14 22 15 25 16 23 17 24 18 26 19 9 20 8 22 7 23 2 24 6 25
REMARK SMILES IDX 3 26 4 27 1 28 5 29
REMARK H PARENT 17 7 13 9 9 21
ROOT
ATOM      1  C   UNL     1       9.219  45.693  51.207  1.00  0.00     0.122 C 
ENDROOT
BRANCH   1   2
ATOM      2  C   UNL     1       9.908  46.779  52.042  1.00  0.00     0.083 C 
BRANCH   2   3
ATOM      3  C   UNL     1       8.907  47.798  52.579  1.00  0.00     0.263 C 
BRANCH   3   4
ATOM      4  N   UNL     1       8.795  47.701  54.093  1.00  0.00    -0.340 N 
ATOM      5  C   UNL     1      10.034  47.181  54.765  1.00  0.00     0.332 C 
ATOM      6  C   UNL     1       7.585  46.894  54.491  1.00  0.00     0.332 C 
ATOM      7  H   UNL     1       8.627  48.655  54.441  1.00  0.00     0.347 HD
ENDBRANCH   3   4
ENDBRANCH   2   3
ENDBRANCH   1   2
BRANCH   1   8
ATOM      8  N   UNL     1       8.003  46.188  50.584  1.00  0.00    -0.354 N 
ATOM      9  H   UNL     1       7.717  47.113  50.909  1.00  0.00     0.163 HD
BRANCH   8  10
ATOM     10  C   UNL     1       6.860  45.420  50.804  1.00  0.00     0.226 A 
ATOM     11  N   UNL     1       5.896  46.060  51.487  1.00  0.00    -0.195 NA
ATOM     12  N   UNL     1       6.795  44.168  50.327  1.00  0.00    -0.193 NA
ATOM     13  C   UNL     1       4.719  45.438  51.752  1.00  0.00     0.147 A 
ATOM     14  C   UNL     1       5.637  43.560  50.638  1.00  0.00     0.165 A 
ATOM     15  C   UNL     1       4.578  44.114  51.331  1.00  0.00     0.082 A 
ATOM     16  N   UNL     1       5.264  42.274  50.351  1.00  0.00    -0.250 N 
ATOM     17  C   UNL     1       3.627  43.075  51.413  1.00  0.00     0.149 A 
ATOM     18  N   UNL     1       4.032  41.956  50.801  1.00  0.00    -0.179 NA
ATOM     19  C   UNL     1       6.036  41.274  49.659  1.00  0.00     0.176 C 
BRANCH  13  20
ATOM     20  N   UNL     1       3.765  46.158  52.483  1.00  0.00    -0.339 N 
ATOM     21  H   UNL     1       3.578  47.026  51.987  1.00  0.00     0.168 HD
BRANCH  20  22
ATOM     22  C   UNL     1       2.592  45.677  53.107  1.00  0.00     0.043 A 
ATOM     23  C   UNL     1       1.357  45.649  52.437  1.00  0.00     0.027 A 
ATOM     24  C   UNL     1       2.638  45.289  54.463  1.00  0.00    -0.026 A 
ATOM     25  C   UNL     1       0.198  45.211  53.080  1.00  0.00     0.018 A 
ATOM     26  C   UNL     1       1.467  44.851  55.103  1.00  0.00     0.021 A 
ATOM     27  C   UNL     1       0.259  44.810  54.410  1.00  0.00     0.018 A 
ATOM     28  C   UNL     1       3.929  45.318  55.236  1.00  0.00     0.046 C 
ATOM     29  Br  UNL     1      -1.309  44.219  55.284  1.00  0.00    -0.051 Br
ENDBRANCH  20  22
ENDBRANCH  13  20
ENDBRANCH   8  10
ENDBRANCH   1   8
TORSDOF 7
ENDMDL
MODEL 13
REMARK VINA RESULT:    -7.476      3.469      6.762
REMARK INTER + INTRA:         -11.657
REMARK INTER:                 -10.743
REMARK INTRA:                  -0.913
REMARK UNBOUND:                -1.122
REMARK SMILES Cc1cc(Br)ccc1Nc1nc(NCCC[NH+](C)C)nc2c1cnn2C
REMARK SMILES IDX 14 1 15 2 16 3 17 4 18 5 19 6 13 8 12 10 11 11 20 12 10 13
REMARK SMILES IDX 21 14 22 15 25 16 23 17 24 18 26 19 9 20 8 22 7 23 2 24 6 25
REMARK SMILES IDX 3 26 4 27 1 28 5 29
REMARK H PARENT 17 7 13 9 9 21
ROOT
ATOM      1  C   UNL     1       5.709  46.985  53.685  1.00  0.00     0.122 C 
ENDROOT
BRANCH   1   2
ATOM      2  C   UNL     1       7.232  46.833  53.782  1.00  0.00     0.083 C 
BRANCH   2   3
ATOM      3  C   UNL     1       7.949  47.623  52.690  1.00  0.00     0.263 C 
BRANCH   3   4
ATOM      4  N   UNL     1       9.457  47.488  52.825  1.00  0.00    -0.340 N 
ATOM      5  C   UNL     1      10.058  46.437  51.936  1.00  0.00     0.332 C 
ATOM      6  C   UNL     1       9.851  47.270  54.264  1.00  0.00     0.332 C 
ATOM      7  H   UNL     1       9.863  48.395  52.554  1.00  0.00     0.347 HD
ENDBRANCH   3   4
ENDBRANCH   2   3
ENDBRANCH   1   2
BRANCH   1   8
ATOM      8  N   UNL     1       5.235  46.772  52.328  1.00  0.00    -0.354 N 
ATOM      9  H   UNL     1       4.326  47.196  52.134  1.00  0.00     0.163 HD
BRANCH   8  10
ATOM     10  C   UNL     1       5.033  45.440  51.965  1.00  0.00     0.226 A 
ATOM     11  N   UNL     1       4.074  44.821  52.674  1.00  0.00    -0.195 NA
ATOM     12  N   UNL     1       5.756  44.902  50.972  1.00  0.00    -0.193 NA
ATOM     13  C   UNL     1       3.757  43.528  52.410  1.00  0.00     0.147 A 
ATOM     14  C   UNL     1       5.452  43.610  50.758  1.00  0.00     0.165 A 
ATOM     15  C   UNL     1       4.490  42.871  51.419  1.00  0.00     0.082 A 
ATOM     16  N   UNL     1       6.029  42.753  49.859  1.00  0.00    -0.250 N 
ATOM     17  C   UNL     1       4.578  41.584  50.848  1.00  0.00     0.149 A 
ATOM     18  N   UNL     1       5.502  41.510  49.884  1.00  0.00    -0.179 NA
ATOM     19  C   UNL     1       7.105  43.039  48.945  1.00  0.00     0.176 C 
BRANCH  13  20
ATOM     20  N   UNL     1       2.759  42.940  53.198  1.00  0.00    -0.339 N 
ATOM     21  H   UNL     1       3.110  42.871  54.150  1.00  0.00     0.168 HD
BRANCH  20  22
ATOM     22  C   UNL     1       1.370  43.204  53.196  1.00  0.00     0.043 A 
ATOM     23  C   UNL     1       0.528  42.720  52.182  1.00  0.00     0.027 A 
ATOM     24  C   UNL     1       0.825  44.043  54.192  1.00  0.00    -0.026 A 
ATOM     25  C   UNL     1      -0.835  43.025  52.171  1.00  0.00     0.018 A 
ATOM     26  C   UNL     1      -0.547  44.347  54.171  1.00  0.00     0.021 A 
ATOM     27  C   UNL     1      -1.367  43.835  53.168  1.00  0.00     0.018 A 
ATOM     28  C   UNL     1       1.685  44.607  55.290  1.00  0.00     0.046 C 
ATOM     29  Br  UNL     1      -3.209  44.252  53.154  1.00  0.00    -0.051 Br
ENDBRANCH  20  22
ENDBRANCH  13  20
ENDBRANCH   8  10
ENDBRANCH   1   8
TORSDOF 7
ENDMDL
MODEL 14
REMARK VINA RESULT:    -7.468      2.860      4.821
REMARK INTER + INTRA:         -11.646
REMARK INTER:                 -10.441
REMARK INTRA:                  -1.205
REMARK UNBOUND:                -1.122
REMARK SMILES Cc1cc(Br)ccc1Nc1nc(NCCC[NH+](C)C)nc2c1cnn2C
REMARK SMILES IDX 14 1 15 2 16 3 17 4 18 5 19 6 13 8 12 10 11 11 20 12 10 13
REMARK SMILES IDX 21 14 22 15 25 16 23 17 24 18 26 19 9 20 8 22 7 23 2 24 6 25
REMARK SMILES IDX 3 26 4 27 1 28 5 29
REMARK H PARENT 17 7 13 9 9 21
ROOT
ATOM      1  C   UNL     1       0.809  45.213  57.129  1.00  0.00     0.122 C 
ENDROOT
BRANCH   1   2
ATOM      2  C   UNL     1      -0.157  46.392  57.302  1.00  0.00     0.083 C 
BRANCH   2   3
ATOM      3  C   UNL     1      -1.577  46.024  56.883  1.00  0.00     0.263 C 
BRANCH   3   4
ATOM      4  N   UNL     1      -1.589  44.728  56.086  1.00  0.00    -0.340 N 
ATOM      5  C   UNL     1      -2.052  44.890  54.666  1.00  0.00     0.332 C 
ATOM      6  C   UNL     1      -2.387  43.666  56.798  1.00  0.00     0.332 C 
ATOM      7  H   UNL     1      -0.619  44.385  56.061  1.00  0.00     0.347 HD
ENDBRANCH   3   4
ENDBRANCH   2   3
ENDBRANCH   1   2
BRANCH   1   8
ATOM      8  N   UNL     1       1.997  45.600  56.386  1.00  0.00    -0.354 N 
ATOM      9  H   UNL     1       2.123  46.610  56.302  1.00  0.00     0.163 HD
BRANCH   8  10
ATOM     10  C   UNL     1       2.039  45.176  55.058  1.00  0.00     0.226 A 
ATOM     11  N   UNL     1       2.868  45.893  54.282  1.00  0.00    -0.195 NA
ATOM     12  N   UNL     1       1.303  44.123  54.671  1.00  0.00    -0.193 NA
ATOM     13  C   UNL     1       3.023  45.574  52.972  1.00  0.00     0.147 A 
ATOM     14  C   UNL     1       1.443  43.853  53.362  1.00  0.00     0.165 A 
ATOM     15  C   UNL     1       2.262  44.517  52.468  1.00  0.00     0.082 A 
ATOM     16  N   UNL     1       0.805  42.885  52.633  1.00  0.00    -0.250 N 
ATOM     17  C   UNL     1       2.034  43.875  51.234  1.00  0.00     0.149 A 
ATOM     18  N   UNL     1       1.160  42.866  51.331  1.00  0.00    -0.179 NA
ATOM     19  C   UNL     1      -0.174  41.939  53.107  1.00  0.00     0.176 C 
BRANCH  13  20
ATOM     20  N   UNL     1       3.891  46.375  52.217  1.00  0.00    -0.339 N 
ATOM     21  H   UNL     1       3.500  47.312  52.177  1.00  0.00     0.168 HD
BRANCH  20  22
ATOM     22  C   UNL     1       5.303  46.425  52.266  1.00  0.00     0.043 A 
ATOM     23  C   UNL     1       5.981  47.277  53.154  1.00  0.00     0.027 A 
ATOM     24  C   UNL     1       6.054  45.664  51.345  1.00  0.00    -0.026 A 
ATOM     25  C   UNL     1       7.376  47.347  53.161  1.00  0.00     0.018 A 
ATOM     26  C   UNL     1       7.457  45.742  51.358  1.00  0.00     0.021 A 
ATOM     27  C   UNL     1       8.108  46.577  52.264  1.00  0.00     0.018 A 
ATOM     28  C   UNL     1       5.379  44.751  50.357  1.00  0.00     0.046 C 
ATOM     29  Br  UNL     1       9.995  46.672  52.268  1.00  0.00    -0.051 Br
ENDBRANCH  20  22
ENDBRANCH  13  20
ENDBRANCH   8  10
ENDBRANCH   1   8
TORSDOF 7
ENDMDL
MODEL 15
REMARK VINA RESULT:    -7.436      3.263      7.559
REMARK INTER + INTRA:         -11.600
REMARK INTER:                 -10.659
REMARK INTRA:                  -0.942
REMARK UNBOUND:                -1.122
REMARK SMILES Cc1cc(Br)ccc1Nc1nc(NCCC[NH+](C)C)nc2c1cnn2C
REMARK SMILES IDX 14 1 15 2 16 3 17 4 18 5 19 6 13 8 12 10 11 11 20 12 10 13
REMARK SMILES IDX 21 14 22 15 25 16 23 17 24 18 26 19 9 20 8 22 7 23 2 24 6 25
REMARK SMILES IDX 3 26 4 27 1 28 5 29
REMARK H PARENT 17 7 13 9 9 21
ROOT
ATOM      1  C   UNL     1       6.429  41.856  49.718  1.00  0.00     0.122 C 
ENDROOT
BRANCH   1   2
ATOM      2  C   UNL     1       5.541  41.285  48.606  1.00  0.00     0.083 C 
BRANCH   2   3
ATOM      3  C   UNL     1       5.791  41.980  47.271  1.00  0.00     0.263 C 
BRANCH   3   4
ATOM      4  N   UNL     1       5.176  41.191  46.125  1.00  0.00    -0.340 N 
ATOM      5  C   UNL     1       5.025  41.978  44.854  1.00  0.00     0.332 C 
ATOM      6  C   UNL     1       3.863  40.576  46.539  1.00  0.00     0.332 C 
ATOM      7  H   UNL     1       5.810  40.404  45.931  1.00  0.00     0.347 HD
ENDBRANCH   3   4
ENDBRANCH   2   3
ENDBRANCH   1   2
BRANCH   1   8
ATOM      8  N   UNL     1       6.720  43.263  49.500  1.00  0.00    -0.354 N 
ATOM      9  H   UNL     1       7.710  43.464  49.347  1.00  0.00     0.163 HD
BRANCH   8  10
ATOM     10  C   UNL     1       6.397  44.114  50.558  1.00  0.00     0.226 A 
ATOM     11  N   UNL     1       5.361  43.692  51.301  1.00  0.00    -0.195 NA
ATOM     12  N   UNL     1       7.117  45.226  50.763  1.00  0.00    -0.193 NA
ATOM     13  C   UNL     1       4.954  44.412  52.377  1.00  0.00     0.147 A 
ATOM     14  C   UNL     1       6.670  45.943  51.808  1.00  0.00     0.165 A 
ATOM     15  C   UNL     1       5.619  45.611  52.642  1.00  0.00     0.082 A 
ATOM     16  N   UNL     1       7.141  47.146  52.261  1.00  0.00    -0.250 N 
ATOM     17  C   UNL     1       5.539  46.684  53.554  1.00  0.00     0.149 A 
ATOM     18  N   UNL     1       6.476  47.615  53.338  1.00  0.00    -0.179 NA
ATOM     19  C   UNL     1       8.220  47.926  51.710  1.00  0.00     0.176 C 
BRANCH  13  20
ATOM     20  N   UNL     1       3.857  43.922  53.098  1.00  0.00    -0.339 N 
ATOM     21  H   UNL     1       4.090  43.955  54.087  1.00  0.00     0.168 HD
BRANCH  20  22
ATOM     22  C   UNL     1       2.485  44.195  52.899  1.00  0.00     0.043 A 
ATOM     23  C   UNL     1       1.867  44.007  51.652  1.00  0.00     0.027 A 
ATOM     24  C   UNL     1       1.730  44.749  53.956  1.00  0.00    -0.026 A 
ATOM     25  C   UNL     1       0.520  44.322  51.461  1.00  0.00     0.018 A 
ATOM     26  C   UNL     1       0.376  45.065  53.754  1.00  0.00     0.021 A 
ATOM     27  C   UNL     1      -0.220  44.848  52.514  1.00  0.00     0.018 A 
ATOM     28  C   UNL     1       2.347  44.993  55.307  1.00  0.00     0.046 C 
ATOM     29  Br  UNL     1      -2.042  45.278  52.257  1.00  0.00    -0.051 Br
ENDBRANCH  20  22
ENDBRANCH  13  20
ENDBRANCH   8  10
ENDBRANCH   1   8
TORSDOF 7
ENDMDL
MODEL 16
REMARK VINA RESULT:    -7.389      3.170      6.457
REMARK INTER + INTRA:         -11.534
REMARK INTER:                 -11.046
REMARK INTRA:                  -0.489
REMARK UNBOUND:                -1.122
REMARK SMILES Cc1cc(Br)ccc1Nc1nc(NCCC[NH+](C)C)nc2c1cnn2C
REMARK SMILES IDX 14 1 15 2 16 3 17 4 18 5 19 6 13 8 12 10 11 11 20 12 10 13
REMARK SMILES IDX 21 14 22 15 25 16 23 17 24 18 26 19 9 20 8 22 7 23 2 24 6 25
REMARK SMILES IDX 3 26 4 27 1 28 5 29
REMARK H PARENT 17 7 13 9 9 21
ROOT
ATOM      1  C   UNL     1       5.582  47.047  53.615  1.00  0.00     0.122 C 
ENDROOT
BRANCH   1   2
ATOM      2  C   UNL     1       7.073  46.689  53.618  1.00  0.00     0.083 C 
BRANCH   2   3
ATOM      3  C   UNL     1       7.874  47.601  52.693  1.00  0.00     0.263 C 
BRANCH   3   4
ATOM      4  N   UNL     1       9.354  47.562  53.042  1.00  0.00    -0.340 N 
ATOM      5  C   UNL     1      10.099  46.419  52.413  1.00  0.00     0.332 C 
ATOM      6  C   UNL     1       9.555  47.581  54.536  1.00  0.00     0.332 C 
ATOM      7  H   UNL     1       9.767  48.436  52.689  1.00  0.00     0.347 HD
ENDBRANCH   3   4
ENDBRANCH   2   3
ENDBRANCH   1   2
BRANCH   1   8
ATOM      8  N   UNL     1       4.974  46.795  52.319  1.00  0.00    -0.354 N 
ATOM      9  H   UNL     1       4.035  47.186  52.218  1.00  0.00     0.163 HD
BRANCH   8  10
ATOM     10  C   UNL     1       4.781  45.452  51.997  1.00  0.00     0.226 A 
ATOM     11  N   UNL     1       3.803  44.857  52.699  1.00  0.00    -0.195 NA
ATOM     12  N   UNL     1       5.532  44.880  51.045  1.00  0.00    -0.193 NA
ATOM     13  C   UNL     1       3.493  43.556  52.471  1.00  0.00     0.147 A 
ATOM     14  C   UNL     1       5.234  43.582  50.866  1.00  0.00     0.165 A 
ATOM     15  C   UNL     1       4.254  42.865  51.525  1.00  0.00     0.082 A 
ATOM     16  N   UNL     1       5.836  42.694  50.015  1.00  0.00    -0.250 N 
ATOM     17  C   UNL     1       4.357  41.560  51.002  1.00  0.00     0.149 A 
ATOM     18  N   UNL     1       5.309  41.453  50.067  1.00  0.00    -0.179 NA
ATOM     19  C   UNL     1       6.938  42.950  49.122  1.00  0.00     0.176 C 
BRANCH  13  20
ATOM     20  N   UNL     1       2.473  42.994  53.251  1.00  0.00    -0.339 N 
ATOM     21  H   UNL     1       2.871  42.225  53.783  1.00  0.00     0.168 HD
BRANCH  20  22
ATOM     22  C   UNL     1       1.477  43.659  54.002  1.00  0.00     0.043 A 
ATOM     23  C   UNL     1       1.804  44.585  55.006  1.00  0.00     0.027 A 
ATOM     24  C   UNL     1       0.120  43.326  53.799  1.00  0.00    -0.026 A 
ATOM     25  C   UNL     1       0.810  45.201  55.769  1.00  0.00     0.018 A 
ATOM     26  C   UNL     1      -0.873  43.950  54.572  1.00  0.00     0.021 A 
ATOM     27  C   UNL     1      -0.525  44.883  55.547  1.00  0.00     0.018 A 
ATOM     28  C   UNL     1      -0.286  42.325  52.752  1.00  0.00     0.046 C 
ATOM     29  Br  UNL     1      -1.872  45.713  56.580  1.00  0.00    -0.051 Br
ENDBRANCH  20  22
ENDBRANCH  13  20
ENDBRANCH   8  10
ENDBRANCH   1   8
TORSDOF 7
ENDMDL
MODEL 17
REMARK VINA RESULT:    -7.320      3.261      5.114
REMARK INTER + INTRA:         -11.437
REMARK INTER:                 -10.592
REMARK INTRA:                  -0.845
REMARK UNBOUND:                -1.122
REMARK SMILES Cc1cc(Br)ccc1Nc1nc(NCCC[NH+](C)C)nc2c1cnn2C
REMARK SMILES IDX 14 1 15 2 16 3 17 4 18 5 19 6 13 8 12 10 11 11 20 12 10 13
REMARK SMILES IDX 21 14 22 15 25 16 23 17 24 18 26 19 9 20 8 22 7 23 2 24 6 25
REMARK SMILES IDX 3 26 4 27 1 28 5 29
REMARK H PARENT 17 7 13 9 9 21
ROOT
ATOM      1  C   UNL     1       1.019  45.635  56.347  1.00  0.00     0.122 C 
ENDROOT
BRANCH   1   2
ATOM      2  C   UNL     1       0.171  46.019  57.566  1.00  0.00     0.083 C 
BRANCH   2   3
ATOM      3  C   UNL     1       0.963  46.866  58.559  1.00  0.00     0.263 C 
BRANCH   3   4
ATOM      4  N   UNL     1       0.097  47.974  59.137  1.00  0.00    -0.340 N 
ATOM      5  C   UNL     1       0.072  48.009  60.639  1.00  0.00     0.332 C 
ATOM      6  C   UNL     1      -1.301  47.913  58.575  1.00  0.00     0.332 C 
ATOM      7  H   UNL     1       0.495  48.865  58.810  1.00  0.00     0.347 HD
ENDBRANCH   3   4
ENDBRANCH   2   3
ENDBRANCH   1   2
BRANCH   1   8
ATOM      8  N   UNL     1       0.241  45.672  55.121  1.00  0.00    -0.354 N 
ATOM      9  H   UNL     1      -0.704  45.294  55.216  1.00  0.00     0.163 HD
BRANCH   8  10
ATOM     10  C   UNL     1       0.759  44.932  54.058  1.00  0.00     0.226 A 
ATOM     11  N   UNL     1       2.076  44.690  54.153  1.00  0.00    -0.195 NA
ATOM     12  N   UNL     1      -0.054  44.517  53.075  1.00  0.00    -0.193 NA
ATOM     13  C   UNL     1       2.707  43.960  53.197  1.00  0.00     0.147 A 
ATOM     14  C   UNL     1       0.600  43.833  52.122  1.00  0.00     0.165 A 
ATOM     15  C   UNL     1       1.947  43.522  52.110  1.00  0.00     0.082 A 
ATOM     16  N   UNL     1       0.088  43.311  50.964  1.00  0.00    -0.250 N 
ATOM     17  C   UNL     1       2.139  42.823  50.901  1.00  0.00     0.149 A 
ATOM     18  N   UNL     1       1.005  42.675  50.205  1.00  0.00    -0.179 NA
ATOM     19  C   UNL     1      -1.274  43.390  50.498  1.00  0.00     0.176 C 
BRANCH  13  20
ATOM     20  N   UNL     1       4.085  43.760  53.350  1.00  0.00    -0.339 N 
ATOM     21  H   UNL     1       4.291  42.794  53.111  1.00  0.00     0.168 HD
BRANCH  20  22
ATOM     22  C   UNL     1       5.144  44.609  52.954  1.00  0.00     0.043 A 
ATOM     23  C   UNL     1       5.460  44.813  51.601  1.00  0.00     0.027 A 
ATOM     24  C   UNL     1       5.959  45.204  53.941  1.00  0.00    -0.026 A 
ATOM     25  C   UNL     1       6.536  45.621  51.227  1.00  0.00     0.018 A 
ATOM     26  C   UNL     1       7.041  46.013  53.556  1.00  0.00     0.021 A 
ATOM     27  C   UNL     1       7.320  46.220  52.207  1.00  0.00     0.018 A 
ATOM     28  C   UNL     1       5.680  45.001  55.406  1.00  0.00     0.046 C 
ATOM     29  Br  UNL     1       8.779  47.311  51.703  1.00  0.00    -0.051 Br
ENDBRANCH  20  22
ENDBRANCH  13  20
ENDBRANCH   8  10
ENDBRANCH   1   8
TORSDOF 7
ENDMDL
MODEL 18
REMARK VINA RESULT:    -7.312      2.568      6.332
REMARK INTER + INTRA:         -11.426
REMARK INTER:                 -10.571
REMARK INTRA:                  -0.856
REMARK UNBOUND:                -1.122
REMARK SMILES Cc1cc(Br)ccc1Nc1nc(NCCC[NH+](C)C)nc2c1cnn2C
REMARK SMILES IDX 14 1 15 2 16 3 17 4 18 5 19 6 13 8 12 10 11 11 20 12 10 13
REMARK SMILES IDX 21 14 22 15 25 16 23 17 24 18 26 19 9 20 8 22 7 23 2 24 6 25
REMARK SMILES IDX 3 26 4 27 1 28 5 29
REMARK H PARENT 17 7 13 9 9 21
ROOT
ATOM      1  C   UNL     1       2.510  43.233  51.495  1.00  0.00     0.122 C 
ENDROOT
BRANCH   1   2
ATOM      2  C   UNL     1       3.828  42.448  51.489  1.00  0.00     0.083 C 
BRANCH   2   3
ATOM      3  C   UNL     1       5.030  43.366  51.288  1.00  0.00     0.263 C 
BRANCH   3   4
ATOM      4  N   UNL     1       5.804  42.978  50.037  1.00  0.00    -0.340 N 
ATOM      5  C   UNL     1       6.247  41.543  50.014  1.00  0.00     0.332 C 
ATOM      6  C   UNL     1       6.971  43.908  49.818  1.00  0.00     0.332 C 
ATOM      7  H   UNL     1       5.172  43.124  49.238  1.00  0.00     0.347 HD
ENDBRANCH   3   4
ENDBRANCH   2   3
ENDBRANCH   1   2
BRANCH   1   8
ATOM      8  N   UNL     1       1.583  42.716  52.487  1.00  0.00    -0.354 N 
ATOM      9  H   UNL     1       0.635  42.574  52.136  1.00  0.00     0.163 HD
BRANCH   8  10
ATOM     10  C   UNL     1       1.376  43.534  53.599  1.00  0.00     0.226 A 
ATOM     11  N   UNL     1       2.409  44.346  53.879  1.00  0.00    -0.195 NA
ATOM     12  N   UNL     1       0.214  43.471  54.266  1.00  0.00    -0.193 NA
ATOM     13  C   UNL     1       2.333  45.212  54.921  1.00  0.00     0.147 A 
ATOM     14  C   UNL     1       0.180  44.307  55.317  1.00  0.00     0.165 A 
ATOM     15  C   UNL     1       1.175  45.186  55.702  1.00  0.00     0.082 A 
ATOM     16  N   UNL     1      -0.827  44.461  56.232  1.00  0.00    -0.250 N 
ATOM     17  C   UNL     1       0.668  45.811  56.860  1.00  0.00     0.149 A 
ATOM     18  N   UNL     1      -0.561  45.386  57.178  1.00  0.00    -0.179 NA
ATOM     19  C   UNL     1      -2.079  43.749  56.281  1.00  0.00     0.176 C 
BRANCH  13  20
ATOM     20  N   UNL     1       3.453  46.018  55.166  1.00  0.00    -0.339 N 
ATOM     21  H   UNL     1       3.656  45.980  56.162  1.00  0.00     0.168 HD
BRANCH  20  22
ATOM     22  C   UNL     1       4.647  46.112  54.416  1.00  0.00     0.043 A 
ATOM     23  C   UNL     1       5.840  45.512  54.849  1.00  0.00     0.027 A 
ATOM     24  C   UNL     1       4.666  46.897  53.243  1.00  0.00    -0.026 A 
ATOM     25  C   UNL     1       7.022  45.649  54.118  1.00  0.00     0.018 A 
ATOM     26  C   UNL     1       5.860  47.032  52.515  1.00  0.00     0.021 A 
ATOM     27  C   UNL     1       7.026  46.407  52.952  1.00  0.00     0.018 A 
ATOM     28  C   UNL     1       3.421  47.581  52.744  1.00  0.00     0.046 C 
ATOM     29  Br  UNL     1       8.624  46.598  51.963  1.00  0.00    -0.051 Br
ENDBRANCH  20  22
ENDBRANCH  13  20
ENDBRANCH   8  10
ENDBRANCH   1   8
TORSDOF 7
ENDMDL
MODEL 19
REMARK VINA RESULT:    -7.231      3.046      6.865
REMARK INTER + INTRA:         -11.312
REMARK INTER:                 -10.170
REMARK INTRA:                  -1.142
REMARK UNBOUND:                -1.122
REMARK SMILES Cc1cc(Br)ccc1Nc1nc(NCCC[NH+](C)C)nc2c1cnn2C
REMARK SMILES IDX 14 1 15 2 16 3 17 4 18 5 19 6 13 8 12 10 11 11 20 12 10 13
REMARK SMILES IDX 21 14 22 15 25 16 23 17 24 18 26 19 9 20 8 22 7 23 2 24 6 25
REMARK SMILES IDX 3 26 4 27 1 28 5 29
REMARK H PARENT 17 7 13 9 9 21
ROOT
ATOM      1  C   UNL     1       6.585  43.823  49.360  1.00  0.00     0.122 C 
ENDROOT
BRANCH   1   2
ATOM      2  C   UNL     1       6.936  42.483  50.018  1.00  0.00     0.083 C 
BRANCH   2   3
ATOM      3  C   UNL     1       5.980  41.374  49.586  1.00  0.00     0.263 C 
BRANCH   3   4
ATOM      4  N   UNL     1       4.551  41.703  49.988  1.00  0.00    -0.340 N 
ATOM      5  C   UNL     1       4.365  41.909  51.465  1.00  0.00     0.332 C 
ATOM      6  C   UNL     1       3.592  40.665  49.462  1.00  0.00     0.332 C 
ATOM      7  H   UNL     1       4.303  42.583  49.516  1.00  0.00     0.347 HD
ENDBRANCH   3   4
ENDBRANCH   2   3
ENDBRANCH   1   2
BRANCH   1   8
ATOM      8  N   UNL     1       7.511  44.871  49.754  1.00  0.00    -0.354 N 
ATOM      9  H   UNL     1       8.467  44.545  49.905  1.00  0.00     0.163 HD
BRANCH   8  10
ATOM     10  C   UNL     1       7.215  45.513  50.956  1.00  0.00     0.226 A 
ATOM     11  N   UNL     1       5.902  45.698  51.167  1.00  0.00    -0.195 NA
ATOM     12  N   UNL     1       8.208  45.866  51.786  1.00  0.00    -0.193 NA
ATOM     13  C   UNL     1       5.471  46.291  52.310  1.00  0.00     0.147 A 
ATOM     14  C   UNL     1       7.759  46.486  52.890  1.00  0.00     0.165 A 
ATOM     15  C   UNL     1       6.438  46.732  53.216  1.00  0.00     0.082 A 
ATOM     16  N   UNL     1       8.499  47.016  53.913  1.00  0.00    -0.250 N 
ATOM     17  C   UNL     1       6.499  47.419  54.446  1.00  0.00     0.149 A 
ATOM     18  N   UNL     1       7.752  47.580  54.885  1.00  0.00    -0.179 NA
ATOM     19  C   UNL     1       9.935  47.037  54.032  1.00  0.00     0.176 C 
BRANCH  13  20
ATOM     20  N   UNL     1       4.088  46.468  52.457  1.00  0.00    -0.339 N 
ATOM     21  H   UNL     1       3.810  47.263  51.889  1.00  0.00     0.168 HD
BRANCH  20  22
ATOM     22  C   UNL     1       3.075  45.483  52.467  1.00  0.00     0.043 A 
ATOM     23  C   UNL     1       2.402  45.103  51.294  1.00  0.00     0.027 A 
ATOM     24  C   UNL     1       2.667  44.922  53.697  1.00  0.00    -0.026 A 
ATOM     25  C   UNL     1       1.373  44.159  51.327  1.00  0.00     0.018 A 
ATOM     26  C   UNL     1       1.630  43.975  53.721  1.00  0.00     0.021 A 
ATOM     27  C   UNL     1       0.994  43.597  52.541  1.00  0.00     0.018 A 
ATOM     28  C   UNL     1       3.338  45.308  54.988  1.00  0.00     0.046 C 
ATOM     29  Br  UNL     1      -0.400  42.322  52.589  1.00  0.00    -0.051 Br
ENDBRANCH  20  22
ENDBRANCH  13  20
ENDBRANCH   8  10
ENDBRANCH   1   8
TORSDOF 7
ENDMDL
MODEL 20
REMARK VINA RESULT:    -7.188      3.427      5.463
REMARK INTER + INTRA:         -11.251
REMARK INTER:                  -9.901
REMARK INTRA:                  -1.350
REMARK UNBOUND:                -1.122
REMARK SMILES Cc1cc(Br)ccc1Nc1nc(NCCC[NH+](C)C)nc2c1cnn2C
REMARK SMILES IDX 14 1 15 2 16 3 17 4 18 5 19 6 13 8 12 10 11 11 20 12 10 13
REMARK SMILES IDX 21 14 22 15 25 16 23 17 24 18 26 19 9 20 8 22 7 23 2 24 6 25
REMARK SMILES IDX 3 26 4 27 1 28 5 29
REMARK H PARENT 17 7 13 9 9 21
ROOT
ATOM      1  C   UNL     1      -0.144  44.890  56.574  1.00  0.00     0.122 C 
ENDROOT
BRANCH   1   2
ATOM      2  C   UNL     1      -1.624  45.189  56.843  1.00  0.00     0.083 C 
BRANCH   2   3
ATOM      3  C   UNL     1      -2.540  44.256  56.057  1.00  0.00     0.263 C 
BRANCH   3   4
ATOM      4  N   UNL     1      -2.888  44.852  54.701  1.00  0.00    -0.340 N 
ATOM      5  C   UNL     1      -3.665  46.135  54.781  1.00  0.00     0.332 C 
ATOM      6  C   UNL     1      -3.597  43.842  53.836  1.00  0.00     0.332 C 
ATOM      7  H   UNL     1      -1.997  45.056  54.228  1.00  0.00     0.347 HD
ENDBRANCH   3   4
ENDBRANCH   2   3
ENDBRANCH   1   2
BRANCH   1   8
ATOM      8  N   UNL     1       0.389  45.731  55.516  1.00  0.00    -0.354 N 
ATOM      9  H   UNL     1      -0.286  46.396  55.134  1.00  0.00     0.163 HD
BRANCH   8  10
ATOM     10  C   UNL     1       0.830  45.057  54.377  1.00  0.00     0.226 A 
ATOM     11  N   UNL     1       2.140  44.760  54.392  1.00  0.00    -0.195 NA
ATOM     12  N   UNL     1      -0.041  44.749  53.406  1.00  0.00    -0.193 NA
ATOM     13  C   UNL     1       2.698  44.084  53.355  1.00  0.00     0.147 A 
ATOM     14  C   UNL     1       0.543  44.117  52.374  1.00  0.00     0.165 A 
ATOM     15  C   UNL     1       1.874  43.759  52.275  1.00  0.00     0.082 A 
ATOM     16  N   UNL     1      -0.040  43.705  51.205  1.00  0.00    -0.250 N 
ATOM     17  C   UNL     1       1.985  43.149  51.009  1.00  0.00     0.149 A 
ATOM     18  N   UNL     1       0.816  43.097  50.358  1.00  0.00    -0.179 NA
ATOM     19  C   UNL     1      -1.417  43.869  50.811  1.00  0.00     0.176 C 
BRANCH  13  20
ATOM     20  N   UNL     1       4.073  43.823  53.428  1.00  0.00    -0.339 N 
ATOM     21  H   UNL     1       4.226  42.860  53.139  1.00  0.00     0.168 HD
BRANCH  20  22
ATOM     22  C   UNL     1       5.145  44.645  53.013  1.00  0.00     0.043 A 
ATOM     23  C   UNL     1       5.437  44.847  51.654  1.00  0.00     0.027 A 
ATOM     24  C   UNL     1       5.998  45.213  53.984  1.00  0.00    -0.026 A 
ATOM     25  C   UNL     1       6.525  45.628  51.259  1.00  0.00     0.018 A 
ATOM     26  C   UNL     1       7.092  45.994  53.578  1.00  0.00     0.021 A 
ATOM     27  C   UNL     1       7.347  46.200  52.224  1.00  0.00     0.018 A 
ATOM     28  C   UNL     1       5.745  45.010  55.454  1.00  0.00     0.046 C 
ATOM     29  Br  UNL     1       8.823  47.254  51.693  1.00  0.00    -0.051 Br
ENDBRANCH  20  22
ENDBRANCH  13  20
ENDBRANCH   8  10
ENDBRANCH   1   8
TORSDOF 7
ENDMDL
