MODEL 1
REMARK VINA RESULT:    -9.083      0.000      0.000
REMARK INTER + INTRA:         -14.209
REMARK INTER:                 -12.534
REMARK INTRA:                  -1.675
REMARK UNBOUND:                -1.675
REMARK SMILES CC(=O)NCCNc1nc(Nc2ccc(C)cc2O)c2cnn(C)c2n1
REMARK SMILES IDX 8 1 9 2 10 3 20 4 21 5 22 6 23 7 24 8 25 9 26 10 7 11 6 13
REMARK SMILES IDX 5 14 4 15 2 16 1 17 3 18 11 20 12 22 13 23 18 24 14 25 17 26
REMARK SMILES IDX 15 27 16 28 19 29
REMARK H PARENT 7 12 4 19 11 21 19 30
ROOT
ATOM      1  C   UNL     1       3.648  45.150  51.810  1.00  0.00     0.226 A 
ATOM      2  N   UNL     1       4.745  45.923  51.687  1.00  0.00    -0.195 NA
ATOM      3  C   UNL     1       5.859  45.437  51.079  1.00  0.00     0.147 A 
ATOM      4  C   UNL     1       5.824  44.121  50.611  1.00  0.00     0.082 A 
ATOM      5  C   UNL     1       6.681  43.199  49.980  1.00  0.00     0.149 A 
ATOM      6  N   UNL     1       6.093  42.020  49.742  1.00  0.00    -0.179 NA
ATOM      7  N   UNL     1       4.847  42.193  50.241  1.00  0.00    -0.250 N 
ATOM      8  C   UNL     1       3.902  41.106  50.179  1.00  0.00     0.176 C 
ATOM      9  C   UNL     1       4.638  43.435  50.775  1.00  0.00     0.165 A 
ATOM     10  N   UNL     1       3.519  43.899  51.350  1.00  0.00    -0.193 NA
ENDROOT
BRANCH   1  11
ATOM     11  N   UNL     1       2.528  45.648  52.440  1.00  0.00    -0.352 N 
ATOM     12  H   UNL     1       2.716  46.600  52.730  1.00  0.00     0.163 HD
BRANCH  11  13
ATOM     13  C   UNL     1       1.760  44.814  53.352  1.00  0.00     0.137 C 
BRANCH  13  14
ATOM     14  C   UNL     1       2.053  45.100  54.831  1.00  0.00     0.137 C 
BRANCH  14  15
ATOM     15  N   UNL     1       3.384  44.692  55.241  1.00  0.00    -0.355 N 
ATOM     16  C   UNL     1       4.423  45.588  55.271  1.00  0.00     0.216 C 
ATOM     17  C   UNL     1       5.750  44.979  55.626  1.00  0.00     0.114 C 
ATOM     18  O   UNL     1       4.296  46.784  55.025  1.00  0.00    -0.275 OA
ATOM     19  H   UNL     1       3.596  43.697  55.214  1.00  0.00     0.163 HD
ENDBRANCH  14  15
ENDBRANCH  13  14
ENDBRANCH  11  13
ENDBRANCH   1  11
BRANCH   3  20
ATOM     20  N   UNL     1       6.973  46.289  51.013  1.00  0.00    -0.336 N 
ATOM     21  H   UNL     1       7.510  46.006  50.198  1.00  0.00     0.168 HD
BRANCH  20  22
ATOM     22  C   UNL     1       7.839  46.646  52.073  1.00  0.00     0.082 A 
ATOM     23  C   UNL     1       9.138  46.121  52.050  1.00  0.00     0.030 A 
ATOM     24  C   UNL     1       7.450  47.391  53.197  1.00  0.00     0.139 A 
ATOM     25  C   UNL     1      10.041  46.384  53.084  1.00  0.00     0.006 A 
ATOM     26  C   UNL     1       8.349  47.659  54.234  1.00  0.00     0.051 A 
ATOM     27  C   UNL     1       9.652  47.149  54.188  1.00  0.00    -0.047 A 
ATOM     28  C   UNL     1      10.630  47.460  55.281  1.00  0.00     0.044 C 
BRANCH  24  29
ATOM     29  O   UNL     1       6.163  47.848  53.299  1.00  0.00    -0.506 OA
ATOM     30  H   UNL     1       5.969  48.039  54.232  1.00  0.00     0.293 HD
ENDBRANCH  24  29
ENDBRANCH  20  22
ENDBRANCH   3  20
TORSDOF 7
ENDMDL
MODEL 2
REMARK VINA RESULT:    -8.590      1.476      1.794
REMARK INTER + INTRA:         -13.529
REMARK INTER:                 -12.325
REMARK INTRA:                  -1.203
REMARK UNBOUND:                -1.675
REMARK SMILES CC(=O)NCCNc1nc(Nc2ccc(C)cc2O)c2cnn(C)c2n1
REMARK SMILES IDX 8 1 9 2 10 3 20 4 21 5 22 6 23 7 24 8 25 9 26 10 7 11 6 13
REMARK SMILES IDX 5 14 4 15 2 16 1 17 3 18 11 20 12 22 13 23 18 24 14 25 17 26
REMARK SMILES IDX 15 27 16 28 19 29
REMARK H PARENT 7 12 4 19 11 21 19 30
ROOT
ATOM      1  C   UNL     1       4.499  44.148  52.102  1.00  0.00     0.226 A 
ATOM      2  N   UNL     1       5.227  45.277  52.215  1.00  0.00    -0.195 NA
ATOM      3  C   UNL     1       6.293  45.487  51.399  1.00  0.00     0.147 A 
ATOM      4  C   UNL     1       6.606  44.493  50.468  1.00  0.00     0.082 A 
ATOM      5  C   UNL     1       7.577  44.235  49.481  1.00  0.00     0.149 A 
ATOM      6  N   UNL     1       7.381  43.072  48.848  1.00  0.00    -0.179 NA
ATOM      7  N   UNL     1       6.276  42.577  49.453  1.00  0.00    -0.250 N 
ATOM      8  C   UNL     1       5.756  41.297  49.041  1.00  0.00     0.176 C 
ATOM      9  C   UNL     1       5.776  43.391  50.432  1.00  0.00     0.165 A 
ATOM     10  N   UNL     1       4.705  43.172  51.210  1.00  0.00    -0.193 NA
ENDROOT
BRANCH   1  11
ATOM     11  N   UNL     1       3.427  43.939  52.943  1.00  0.00    -0.352 N 
ATOM     12  H   UNL     1       3.528  43.029  53.375  1.00  0.00     0.163 HD
BRANCH  11  13
ATOM     13  C   UNL     1       2.087  44.343  52.547  1.00  0.00     0.137 C 
BRANCH  13  14
ATOM     14  C   UNL     1       1.678  45.718  53.094  1.00  0.00     0.137 C 
BRANCH  14  15
ATOM     15  N   UNL     1       0.893  45.640  54.311  1.00  0.00    -0.355 N 
ATOM     16  C   UNL     1       1.488  45.409  55.526  1.00  0.00     0.216 C 
ATOM     17  C   UNL     1       0.520  45.264  56.666  1.00  0.00     0.114 C 
ATOM     18  O   UNL     1       2.702  45.319  55.682  1.00  0.00    -0.275 OA
ATOM     19  H   UNL     1      -0.105  45.463  54.213  1.00  0.00     0.163 HD
ENDBRANCH  14  15
ENDBRANCH  13  14
ENDBRANCH  11  13
ENDBRANCH   1  11
BRANCH   3  20
ATOM     20  N   UNL     1       7.022  46.671  51.593  1.00  0.00    -0.336 N 
ATOM     21  H   UNL     1       7.423  46.918  50.692  1.00  0.00     0.168 HD
BRANCH  20  22
ATOM     22  C   UNL     1       7.940  46.949  52.633  1.00  0.00     0.082 A 
ATOM     23  C   UNL     1       9.295  46.698  52.383  1.00  0.00     0.030 A 
ATOM     24  C   UNL     1       7.572  47.345  53.928  1.00  0.00     0.139 A 
ATOM     25  C   UNL     1      10.261  46.898  53.372  1.00  0.00     0.006 A 
ATOM     26  C   UNL     1       8.534  47.549  54.923  1.00  0.00     0.051 A 
ATOM     27  C   UNL     1       9.888  47.319  54.653  1.00  0.00    -0.047 A 
ATOM     28  C   UNL     1      10.927  47.566  55.705  1.00  0.00     0.044 C 
BRANCH  24  29
ATOM     29  O   UNL     1       6.249  47.517  54.239  1.00  0.00    -0.506 OA
ATOM     30  H   UNL     1       6.141  47.456  55.203  1.00  0.00     0.293 HD
ENDBRANCH  24  29
ENDBRANCH  20  22
ENDBRANCH   3  20
TORSDOF 7
ENDMDL
MODEL 3
REMARK VINA RESULT:    -8.525      1.650      2.462
REMARK INTER + INTRA:         -13.439
REMARK INTER:                 -12.286
REMARK INTRA:                  -1.153
REMARK UNBOUND:                -1.675
REMARK SMILES CC(=O)NCCNc1nc(Nc2ccc(C)cc2O)c2cnn(C)c2n1
REMARK SMILES IDX 8 1 9 2 10 3 20 4 21 5 22 6 23 7 24 8 25 9 26 10 7 11 6 13
REMARK SMILES IDX 5 14 4 15 2 16 1 17 3 18 11 20 12 22 13 23 18 24 14 25 17 26
REMARK SMILES IDX 15 27 16 28 19 29
REMARK H PARENT 7 12 4 19 11 21 19 30
ROOT
ATOM      1  C   UNL     1       4.580  44.075  52.137  1.00  0.00     0.226 A 
ATOM      2  N   UNL     1       5.375  45.163  52.175  1.00  0.00    -0.195 NA
ATOM      3  C   UNL     1       6.383  45.303  51.274  1.00  0.00     0.147 A 
ATOM      4  C   UNL     1       6.566  44.283  50.338  1.00  0.00     0.082 A 
ATOM      5  C   UNL     1       7.440  43.960  49.281  1.00  0.00     0.149 A 
ATOM      6  N   UNL     1       7.131  42.802  48.684  1.00  0.00    -0.179 NA
ATOM      7  N   UNL     1       6.052  42.377  49.381  1.00  0.00    -0.250 N 
ATOM      8  C   UNL     1       5.431  41.124  49.032  1.00  0.00     0.176 C 
ATOM      9  C   UNL     1       5.676  43.229  50.384  1.00  0.00     0.165 A 
ATOM     10  N   UNL     1       4.660  43.079  51.247  1.00  0.00    -0.193 NA
ENDROOT
BRANCH   1  11
ATOM     11  N   UNL     1       3.568  43.936  53.063  1.00  0.00    -0.352 N 
ATOM     12  H   UNL     1       2.821  43.395  52.646  1.00  0.00     0.163 HD
BRANCH  11  13
ATOM     13  C   UNL     1       3.185  45.053  53.914  1.00  0.00     0.137 C 
BRANCH  13  14
ATOM     14  C   UNL     1       2.361  46.121  53.183  1.00  0.00     0.137 C 
BRANCH  14  15
ATOM     15  N   UNL     1       0.943  45.819  53.136  1.00  0.00    -0.355 N 
ATOM     16  C   UNL     1       0.406  45.092  52.103  1.00  0.00     0.216 C 
ATOM     17  C   UNL     1      -1.089  44.953  52.162  1.00  0.00     0.114 C 
ATOM     18  O   UNL     1       1.075  44.599  51.200  1.00  0.00    -0.275 OA
ATOM     19  H   UNL     1       0.324  46.395  53.704  1.00  0.00     0.163 HD
ENDBRANCH  14  15
ENDBRANCH  13  14
ENDBRANCH  11  13
ENDBRANCH   1  11
BRANCH   3  20
ATOM     20  N   UNL     1       7.189  46.447  51.392  1.00  0.00    -0.336 N 
ATOM     21  H   UNL     1       7.685  46.546  50.511  1.00  0.00     0.168 HD
BRANCH  20  22
ATOM     22  C   UNL     1       8.033  46.789  52.474  1.00  0.00     0.082 A 
ATOM     23  C   UNL     1       9.392  46.467  52.360  1.00  0.00     0.030 A 
ATOM     24  C   UNL     1       7.582  47.321  53.692  1.00  0.00     0.139 A 
ATOM     25  C   UNL     1      10.285  46.726  53.404  1.00  0.00     0.006 A 
ATOM     26  C   UNL     1       8.471  47.584  54.740  1.00  0.00     0.051 A 
ATOM     27  C   UNL     1       9.831  47.280  54.604  1.00  0.00    -0.047 A 
ATOM     28  C   UNL     1      10.794  47.590  55.712  1.00  0.00     0.044 C 
BRANCH  24  29
ATOM     29  O   UNL     1       6.248  47.569  53.876  1.00  0.00    -0.506 OA
ATOM     30  H   UNL     1       5.792  47.488  53.021  1.00  0.00     0.293 HD
ENDBRANCH  24  29
ENDBRANCH  20  22
ENDBRANCH   3  20
TORSDOF 7
ENDMDL
MODEL 4
REMARK VINA RESULT:    -8.321      1.347      1.932
REMARK INTER + INTRA:         -13.158
REMARK INTER:                 -12.135
REMARK INTRA:                  -1.023
REMARK UNBOUND:                -1.675
REMARK SMILES CC(=O)NCCNc1nc(Nc2ccc(C)cc2O)c2cnn(C)c2n1
REMARK SMILES IDX 8 1 9 2 10 3 20 4 21 5 22 6 23 7 24 8 25 9 26 10 7 11 6 13
REMARK SMILES IDX 5 14 4 15 2 16 1 17 3 18 11 20 12 22 13 23 18 24 14 25 17 26
REMARK SMILES IDX 15 27 16 28 19 29
REMARK H PARENT 7 12 4 19 11 21 19 30
ROOT
ATOM      1  C   UNL     1       3.890  45.145  51.576  1.00  0.00     0.226 A 
ATOM      2  N   UNL     1       5.010  45.889  51.496  1.00  0.00    -0.195 NA
ATOM      3  C   UNL     1       6.142  45.364  50.956  1.00  0.00     0.147 A 
ATOM      4  C   UNL     1       6.098  44.040  50.514  1.00  0.00     0.082 A 
ATOM      5  C   UNL     1       6.964  43.084  49.947  1.00  0.00     0.149 A 
ATOM      6  N   UNL     1       6.360  41.914  49.701  1.00  0.00    -0.179 NA
ATOM      7  N   UNL     1       5.095  42.127  50.131  1.00  0.00    -0.250 N 
ATOM      8  C   UNL     1       4.127  41.062  50.041  1.00  0.00     0.176 C 
ATOM      9  C   UNL     1       4.889  43.385  50.629  1.00  0.00     0.165 A 
ATOM     10  N   UNL     1       3.753  43.888  51.135  1.00  0.00    -0.193 NA
ENDROOT
BRANCH   1  11
ATOM     11  N   UNL     1       2.750  45.683  52.136  1.00  0.00    -0.352 N 
ATOM     12  H   UNL     1       2.305  46.281  51.451  1.00  0.00     0.163 HD
BRANCH  11  13
ATOM     13  C   UNL     1       2.749  46.138  53.518  1.00  0.00     0.137 C 
BRANCH  13  14
ATOM     14  C   UNL     1       2.592  44.999  54.534  1.00  0.00     0.137 C 
BRANCH  14  15
ATOM     15  N   UNL     1       2.000  43.803  53.967  1.00  0.00    -0.355 N 
ATOM     16  C   UNL     1       0.653  43.558  54.073  1.00  0.00     0.216 C 
ATOM     17  C   UNL     1       0.224  42.231  53.515  1.00  0.00     0.114 C 
ATOM     18  O   UNL     1      -0.141  44.342  54.584  1.00  0.00    -0.275 OA
ATOM     19  H   UNL     1       2.624  43.025  53.761  1.00  0.00     0.163 HD
ENDBRANCH  14  15
ENDBRANCH  13  14
ENDBRANCH  11  13
ENDBRANCH   1  11
BRANCH   3  20
ATOM     20  N   UNL     1       7.279  46.187  50.932  1.00  0.00    -0.336 N 
ATOM     21  H   UNL     1       7.867  45.852  50.175  1.00  0.00     0.168 HD
BRANCH  20  22
ATOM     22  C   UNL     1       8.073  46.579  52.036  1.00  0.00     0.082 A 
ATOM     23  C   UNL     1       9.384  46.088  52.094  1.00  0.00     0.030 A 
ATOM     24  C   UNL     1       7.601  47.327  53.125  1.00  0.00     0.139 A 
ATOM     25  C   UNL     1      10.219  46.387  53.174  1.00  0.00     0.006 A 
ATOM     26  C   UNL     1       8.432  47.631  54.208  1.00  0.00     0.051 A 
ATOM     27  C   UNL     1       9.747  47.155  54.243  1.00  0.00    -0.047 A 
ATOM     28  C   UNL     1      10.653  47.504  55.387  1.00  0.00     0.044 C 
BRANCH  24  29
ATOM     29  O   UNL     1       6.299  47.753  53.147  1.00  0.00    -0.506 OA
ATOM     30  H   UNL     1       5.737  47.068  52.749  1.00  0.00     0.293 HD
ENDBRANCH  24  29
ENDBRANCH  20  22
ENDBRANCH   3  20
TORSDOF 7
ENDMDL
MODEL 5
REMARK VINA RESULT:    -8.253      2.385      5.894
REMARK INTER + INTRA:         -13.065
REMARK INTER:                 -12.732
REMARK INTRA:                  -0.333
REMARK UNBOUND:                -1.675
REMARK SMILES CC(=O)NCCNc1nc(Nc2ccc(C)cc2O)c2cnn(C)c2n1
REMARK SMILES IDX 8 1 9 2 10 3 20 4 21 5 22 6 23 7 24 8 25 9 26 10 7 11 6 13
REMARK SMILES IDX 5 14 4 15 2 16 1 17 3 18 11 20 12 22 13 23 18 24 14 25 17 26
REMARK SMILES IDX 15 27 16 28 19 29
REMARK H PARENT 7 12 4 19 11 21 19 30
ROOT
ATOM      1  C   UNL     1       3.220  45.134  54.995  1.00  0.00     0.226 A 
ATOM      2  N   UNL     1       3.450  44.517  53.820  1.00  0.00    -0.195 NA
ATOM      3  C   UNL     1       2.436  43.883  53.171  1.00  0.00     0.147 A 
ATOM      4  C   UNL     1       1.176  43.886  53.774  1.00  0.00     0.082 A 
ATOM      5  C   UNL     1      -0.113  43.370  53.535  1.00  0.00     0.149 A 
ATOM      6  N   UNL     1      -0.993  43.705  54.486  1.00  0.00    -0.179 NA
ATOM      7  N   UNL     1      -0.249  44.435  55.349  1.00  0.00    -0.250 N 
ATOM      8  C   UNL     1      -0.863  44.969  56.538  1.00  0.00     0.176 C 
ATOM      9  C   UNL     1       1.058  44.569  54.967  1.00  0.00     0.165 A 
ATOM     10  N   UNL     1       2.036  45.221  55.614  1.00  0.00    -0.193 NA
ENDROOT
BRANCH   1  11
ATOM     11  N   UNL     1       4.257  45.763  55.651  1.00  0.00    -0.352 N 
ATOM     12  H   UNL     1       3.977  46.713  55.863  1.00  0.00     0.163 HD
BRANCH  11  13
ATOM     13  C   UNL     1       5.634  45.554  55.229  1.00  0.00     0.137 C 
BRANCH  13  14
ATOM     14  C   UNL     1       6.280  46.805  54.618  1.00  0.00     0.137 C 
BRANCH  14  15
ATOM     15  N   UNL     1       7.531  46.530  53.939  1.00  0.00    -0.355 N 
ATOM     16  C   UNL     1       8.662  47.258  54.212  1.00  0.00     0.216 C 
ATOM     17  C   UNL     1       9.843  46.905  53.352  1.00  0.00     0.114 C 
ATOM     18  O   UNL     1       8.717  48.130  55.074  1.00  0.00    -0.275 OA
ATOM     19  H   UNL     1       7.484  46.007  53.066  1.00  0.00     0.163 HD
ENDBRANCH  14  15
ENDBRANCH  13  14
ENDBRANCH  11  13
ENDBRANCH   1  11
BRANCH   3  20
ATOM     20  N   UNL     1       2.755  43.237  51.967  1.00  0.00    -0.336 N 
ATOM     21  H   UNL     1       2.374  42.297  52.030  1.00  0.00     0.168 HD
BRANCH  20  22
ATOM     22  C   UNL     1       4.010  43.216  51.315  1.00  0.00     0.082 A 
ATOM     23  C   UNL     1       4.666  44.442  51.138  1.00  0.00     0.030 A 
ATOM     24  C   UNL     1       4.583  42.074  50.735  1.00  0.00     0.139 A 
ATOM     25  C   UNL     1       5.886  44.517  50.460  1.00  0.00     0.006 A 
ATOM     26  C   UNL     1       5.805  42.141  50.057  1.00  0.00     0.051 A 
ATOM     27  C   UNL     1       6.462  43.368  49.908  1.00  0.00    -0.047 A 
ATOM     28  C   UNL     1       7.787  43.442  49.210  1.00  0.00     0.044 C 
BRANCH  24  29
ATOM     29  O   UNL     1       3.931  40.872  50.811  1.00  0.00    -0.506 OA
ATOM     30  H   UNL     1       3.489  40.806  51.674  1.00  0.00     0.293 HD
ENDBRANCH  24  29
ENDBRANCH  20  22
ENDBRANCH   3  20
TORSDOF 7
ENDMDL
MODEL 6
REMARK VINA RESULT:    -8.155      2.439      5.072
REMARK INTER + INTRA:         -12.929
REMARK INTER:                 -12.013
REMARK INTRA:                  -0.916
REMARK UNBOUND:                -1.675
REMARK SMILES CC(=O)NCCNc1nc(Nc2ccc(C)cc2O)c2cnn(C)c2n1
REMARK SMILES IDX 8 1 9 2 10 3 20 4 21 5 22 6 23 7 24 8 25 9 26 10 7 11 6 13
REMARK SMILES IDX 5 14 4 15 2 16 1 17 3 18 11 20 12 22 13 23 18 24 14 25 17 26
REMARK SMILES IDX 15 27 16 28 19 29
REMARK H PARENT 7 12 4 19 11 21 19 30
ROOT
ATOM      1  C   UNL     1       5.033  43.046  50.857  1.00  0.00     0.226 A 
ATOM      2  N   UNL     1       6.057  43.922  50.844  1.00  0.00    -0.195 NA
ATOM      3  C   UNL     1       5.844  45.227  51.157  1.00  0.00     0.147 A 
ATOM      4  C   UNL     1       4.540  45.617  51.470  1.00  0.00     0.082 A 
ATOM      5  C   UNL     1       3.837  46.790  51.808  1.00  0.00     0.149 A 
ATOM      6  N   UNL     1       2.534  46.574  52.025  1.00  0.00    -0.179 NA
ATOM      7  N   UNL     1       2.405  45.244  51.809  1.00  0.00    -0.250 N 
ATOM      8  C   UNL     1       1.107  44.628  51.936  1.00  0.00     0.176 C 
ATOM      9  C   UNL     1       3.578  44.626  51.472  1.00  0.00     0.165 A 
ATOM     10  N   UNL     1       3.767  43.329  51.189  1.00  0.00    -0.193 NA
ENDROOT
BRANCH   1  11
ATOM     11  N   UNL     1       5.257  41.727  50.526  1.00  0.00    -0.352 N 
ATOM     12  H   UNL     1       5.361  41.192  51.380  1.00  0.00     0.163 HD
BRANCH  11  13
ATOM     13  C   UNL     1       6.131  41.382  49.415  1.00  0.00     0.137 C 
BRANCH  13  14
ATOM     14  C   UNL     1       5.574  41.803  48.048  1.00  0.00     0.137 C 
BRANCH  14  15
ATOM     15  N   UNL     1       4.852  40.742  47.372  1.00  0.00    -0.355 N 
ATOM     16  C   UNL     1       3.663  40.266  47.866  1.00  0.00     0.216 C 
ATOM     17  C   UNL     1       3.099  39.105  47.096  1.00  0.00     0.114 C 
ATOM     18  O   UNL     1       3.102  40.733  48.853  1.00  0.00    -0.275 OA
ATOM     19  H   UNL     1       5.374  40.167  46.714  1.00  0.00     0.163 HD
ENDBRANCH  14  15
ENDBRANCH  13  14
ENDBRANCH  11  13
ENDBRANCH   1  11
BRANCH   3  20
ATOM     20  N   UNL     1       6.951  46.088  51.094  1.00  0.00    -0.336 N 
ATOM     21  H   UNL     1       7.447  45.864  50.235  1.00  0.00     0.168 HD
BRANCH  20  22
ATOM     22  C   UNL     1       7.869  46.377  52.131  1.00  0.00     0.082 A 
ATOM     23  C   UNL     1       7.372  47.024  53.270  1.00  0.00     0.030 A 
ATOM     24  C   UNL     1       9.253  46.166  52.045  1.00  0.00     0.139 A 
ATOM     25  C   UNL     1       8.220  47.391  54.319  1.00  0.00     0.006 A 
ATOM     26  C   UNL     1      10.107  46.528  53.092  1.00  0.00     0.051 A 
ATOM     27  C   UNL     1       9.595  47.152  54.236  1.00  0.00    -0.047 A 
ATOM     28  C   UNL     1      10.500  47.514  55.375  1.00  0.00     0.044 C 
BRANCH  24  29
ATOM     29  O   UNL     1       9.790  45.615  50.912  1.00  0.00    -0.506 OA
ATOM     30  H   UNL     1      10.616  45.158  51.143  1.00  0.00     0.293 HD
ENDBRANCH  24  29
ENDBRANCH  20  22
ENDBRANCH   3  20
TORSDOF 7
ENDMDL
MODEL 7
REMARK VINA RESULT:    -8.149      2.833      6.912
REMARK INTER + INTRA:         -12.921
REMARK INTER:                 -12.097
REMARK INTRA:                  -0.824
REMARK UNBOUND:                -1.675
REMARK SMILES CC(=O)NCCNc1nc(Nc2ccc(C)cc2O)c2cnn(C)c2n1
REMARK SMILES IDX 8 1 9 2 10 3 20 4 21 5 22 6 23 7 24 8 25 9 26 10 7 11 6 13
REMARK SMILES IDX 5 14 4 15 2 16 1 17 3 18 11 20 12 22 13 23 18 24 14 25 17 26
REMARK SMILES IDX 15 27 16 28 19 29
REMARK H PARENT 7 12 4 19 11 21 19 30
ROOT
ATOM      1  C   UNL     1       6.586  45.103  50.905  1.00  0.00     0.226 A 
ATOM      2  N   UNL     1       6.629  43.899  50.301  1.00  0.00    -0.195 NA
ATOM      3  C   UNL     1       5.661  42.977  50.547  1.00  0.00     0.147 A 
ATOM      4  C   UNL     1       4.650  43.318  51.448  1.00  0.00     0.082 A 
ATOM      5  C   UNL     1       3.508  42.733  52.030  1.00  0.00     0.149 A 
ATOM      6  N   UNL     1       2.865  43.561  52.863  1.00  0.00    -0.179 NA
ATOM      7  N   UNL     1       3.618  44.684  52.819  1.00  0.00    -0.250 N 
ATOM      8  C   UNL     1       3.240  45.822  53.620  1.00  0.00     0.176 C 
ATOM      9  C   UNL     1       4.700  44.588  51.987  1.00  0.00     0.165 A 
ATOM     10  N   UNL     1       5.630  45.523  51.744  1.00  0.00    -0.193 NA
ENDROOT
BRANCH   1  11
ATOM     11  N   UNL     1       7.579  46.027  50.659  1.00  0.00    -0.352 N 
ATOM     12  H   UNL     1       7.689  46.124  49.657  1.00  0.00     0.163 HD
BRANCH  11  13
ATOM     13  C   UNL     1       8.790  46.044  51.466  1.00  0.00     0.137 C 
BRANCH  13  14
ATOM     14  C   UNL     1       8.987  47.354  52.241  1.00  0.00     0.137 C 
BRANCH  14  15
ATOM     15  N   UNL     1       9.909  47.228  53.354  1.00  0.00    -0.355 N 
ATOM     16  C   UNL     1       9.542  47.593  54.625  1.00  0.00     0.216 C 
ATOM     17  C   UNL     1      10.647  47.488  55.638  1.00  0.00     0.114 C 
ATOM     18  O   UNL     1       8.416  47.981  54.922  1.00  0.00    -0.275 OA
ATOM     19  H   UNL     1      10.900  47.153  53.133  1.00  0.00     0.163 HD
ENDBRANCH  14  15
ENDBRANCH  13  14
ENDBRANCH  11  13
ENDBRANCH   1  11
BRANCH   3  20
ATOM     20  N   UNL     1       5.786  41.735  49.905  1.00  0.00    -0.336 N 
ATOM     21  H   UNL     1       6.772  41.490  49.932  1.00  0.00     0.168 HD
BRANCH  20  22
ATOM     22  C   UNL     1       5.217  41.350  48.668  1.00  0.00     0.082 A 
ATOM     23  C   UNL     1       5.827  41.827  47.501  1.00  0.00     0.030 A 
ATOM     24  C   UNL     1       4.022  40.625  48.537  1.00  0.00     0.139 A 
ATOM     25  C   UNL     1       5.300  41.536  46.240  1.00  0.00     0.006 A 
ATOM     26  C   UNL     1       3.491  40.328  47.278  1.00  0.00     0.051 A 
ATOM     27  C   UNL     1       4.123  40.790  46.119  1.00  0.00    -0.047 A 
ATOM     28  C   UNL     1       3.576  40.448  44.765  1.00  0.00     0.044 C 
BRANCH  24  29
ATOM     29  O   UNL     1       3.348  40.214  49.656  1.00  0.00    -0.506 OA
ATOM     30  H   UNL     1       2.646  39.597  49.393  1.00  0.00     0.293 HD
ENDBRANCH  24  29
ENDBRANCH  20  22
ENDBRANCH   3  20
TORSDOF 7
ENDMDL
MODEL 8
REMARK VINA RESULT:    -8.139      2.227      5.720
REMARK INTER + INTRA:         -12.907
REMARK INTER:                 -12.108
REMARK INTRA:                  -0.799
REMARK UNBOUND:                -1.675
REMARK SMILES CC(=O)NCCNc1nc(Nc2ccc(C)cc2O)c2cnn(C)c2n1
REMARK SMILES IDX 8 1 9 2 10 3 20 4 21 5 22 6 23 7 24 8 25 9 26 10 7 11 6 13
REMARK SMILES IDX 5 14 4 15 2 16 1 17 3 18 11 20 12 22 13 23 18 24 14 25 17 26
REMARK SMILES IDX 15 27 16 28 19 29
REMARK H PARENT 7 12 4 19 11 21 19 30
ROOT
ATOM      1  C   UNL     1       5.938  46.682  53.987  1.00  0.00     0.226 A 
ATOM      2  N   UNL     1       5.864  46.103  52.772  1.00  0.00    -0.195 NA
ATOM      3  C   UNL     1       6.989  45.924  52.031  1.00  0.00     0.147 A 
ATOM      4  C   UNL     1       8.199  46.372  52.566  1.00  0.00     0.082 A 
ATOM      5  C   UNL     1       9.557  46.446  52.197  1.00  0.00     0.149 A 
ATOM      6  N   UNL     1      10.326  46.990  53.148  1.00  0.00    -0.179 NA
ATOM      7  N   UNL     1       9.441  47.278  54.131  1.00  0.00    -0.250 N 
ATOM      8  C   UNL     1       9.906  47.905  55.342  1.00  0.00     0.176 C 
ATOM      9  C   UNL     1       8.153  46.929  53.828  1.00  0.00     0.165 A 
ATOM     10  N   UNL     1       7.060  47.095  54.588  1.00  0.00    -0.193 NA
ENDROOT
BRANCH   1  11
ATOM     11  N   UNL     1       4.789  46.870  54.726  1.00  0.00    -0.352 N 
ATOM     12  H   UNL     1       4.901  47.704  55.290  1.00  0.00     0.163 HD
BRANCH  11  13
ATOM     13  C   UNL     1       4.109  45.739  55.338  1.00  0.00     0.137 C 
BRANCH  13  14
ATOM     14  C   UNL     1       2.586  45.775  55.159  1.00  0.00     0.137 C 
BRANCH  14  15
ATOM     15  N   UNL     1       2.143  45.206  53.901  1.00  0.00    -0.355 N 
ATOM     16  C   UNL     1       2.059  45.973  52.766  1.00  0.00     0.216 C 
ATOM     17  C   UNL     1       1.493  45.251  51.576  1.00  0.00     0.114 C 
ATOM     18  O   UNL     1       2.405  47.150  52.713  1.00  0.00    -0.275 OA
ATOM     19  H   UNL     1       1.622  44.332  53.940  1.00  0.00     0.163 HD
ENDBRANCH  14  15
ENDBRANCH  13  14
ENDBRANCH  11  13
ENDBRANCH   1  11
BRANCH   3  20
ATOM     20  N   UNL     1       6.832  45.343  50.763  1.00  0.00    -0.336 N 
ATOM     21  H   UNL     1       6.584  46.094  50.126  1.00  0.00     0.168 HD
BRANCH  20  22
ATOM     22  C   UNL     1       6.109  44.168  50.445  1.00  0.00     0.082 A 
ATOM     23  C   UNL     1       4.896  43.956  51.114  1.00  0.00     0.030 A 
ATOM     24  C   UNL     1       6.579  43.154  49.597  1.00  0.00     0.139 A 
ATOM     25  C   UNL     1       4.145  42.798  50.896  1.00  0.00     0.006 A 
ATOM     26  C   UNL     1       5.831  41.994  49.373  1.00  0.00     0.051 A 
ATOM     27  C   UNL     1       4.609  41.805  50.029  1.00  0.00    -0.047 A 
ATOM     28  C   UNL     1       3.787  40.578  49.768  1.00  0.00     0.044 C 
BRANCH  24  29
ATOM     29  O   UNL     1       7.801  43.284  48.992  1.00  0.00    -0.506 OA
ATOM     30  H   UNL     1       7.954  44.222  48.788  1.00  0.00     0.293 HD
ENDBRANCH  24  29
ENDBRANCH  20  22
ENDBRANCH   3  20
TORSDOF 7
ENDMDL
MODEL 9
REMARK VINA RESULT:    -8.098      1.956      4.581
REMARK INTER + INTRA:         -12.851
REMARK INTER:                 -11.644
REMARK INTRA:                  -1.207
REMARK UNBOUND:                -1.675
REMARK SMILES CC(=O)NCCNc1nc(Nc2ccc(C)cc2O)c2cnn(C)c2n1
REMARK SMILES IDX 8 1 9 2 10 3 20 4 21 5 22 6 23 7 24 8 25 9 26 10 7 11 6 13
REMARK SMILES IDX 5 14 4 15 2 16 1 17 3 18 11 20 12 22 13 23 18 24 14 25 17 26
REMARK SMILES IDX 15 27 16 28 19 29
REMARK H PARENT 7 12 4 19 11 21 19 30
ROOT
ATOM      1  C   UNL     1       3.806  42.744  51.725  1.00  0.00     0.226 A 
ATOM      2  N   UNL     1       4.581  43.828  51.525  1.00  0.00    -0.195 NA
ATOM      3  C   UNL     1       4.206  45.037  52.021  1.00  0.00     0.147 A 
ATOM      4  C   UNL     1       2.998  45.107  52.719  1.00  0.00     0.082 A 
ATOM      5  C   UNL     1       2.200  46.076  53.359  1.00  0.00     0.149 A 
ATOM      6  N   UNL     1       1.089  45.561  53.900  1.00  0.00    -0.179 NA
ATOM      7  N   UNL     1       1.177  44.247  53.587  1.00  0.00    -0.250 N 
ATOM      8  C   UNL     1       0.126  43.350  53.998  1.00  0.00     0.176 C 
ATOM      9  C   UNL     1       2.302  43.926  52.878  1.00  0.00     0.165 A 
ATOM     10  N   UNL     1       2.662  42.719  52.418  1.00  0.00    -0.193 NA
ENDROOT
BRANCH   1  11
ATOM     11  N   UNL     1       4.189  41.525  51.206  1.00  0.00    -0.352 N 
ATOM     12  H   UNL     1       5.169  41.378  51.417  1.00  0.00     0.163 HD
BRANCH  11  13
ATOM     13  C   UNL     1       3.718  41.097  49.898  1.00  0.00     0.137 C 
BRANCH  13  14
ATOM     14  C   UNL     1       4.848  40.905  48.877  1.00  0.00     0.137 C 
BRANCH  14  15
ATOM     15  N   UNL     1       5.764  42.028  48.818  1.00  0.00    -0.355 N 
ATOM     16  C   UNL     1       6.929  42.032  49.544  1.00  0.00     0.216 C 
ATOM     17  C   UNL     1       7.712  43.311  49.442  1.00  0.00     0.114 C 
ATOM     18  O   UNL     1       7.307  41.085  50.228  1.00  0.00    -0.275 OA
ATOM     19  H   UNL     1       5.396  42.915  48.479  1.00  0.00     0.163 HD
ENDBRANCH  14  15
ENDBRANCH  13  14
ENDBRANCH  11  13
ENDBRANCH   1  11
BRANCH   3  20
ATOM     20  N   UNL     1       5.047  46.127  51.749  1.00  0.00    -0.336 N 
ATOM     21  H   UNL     1       5.143  46.177  50.739  1.00  0.00     0.168 HD
BRANCH  20  22
ATOM     22  C   UNL     1       6.277  46.435  52.377  1.00  0.00     0.082 A 
ATOM     23  C   UNL     1       7.451  46.188  51.652  1.00  0.00     0.030 A 
ATOM     24  C   UNL     1       6.403  46.859  53.709  1.00  0.00     0.139 A 
ATOM     25  C   UNL     1       8.709  46.417  52.216  1.00  0.00     0.006 A 
ATOM     26  C   UNL     1       7.658  47.092  54.278  1.00  0.00     0.051 A 
ATOM     27  C   UNL     1       8.823  46.865  53.536  1.00  0.00    -0.047 A 
ATOM     28  C   UNL     1      10.171  47.144  54.131  1.00  0.00     0.044 C 
BRANCH  24  29
ATOM     29  O   UNL     1       5.282  47.029  54.478  1.00  0.00    -0.506 OA
ATOM     30  H   UNL     1       5.101  46.203  54.957  1.00  0.00     0.293 HD
ENDBRANCH  24  29
ENDBRANCH  20  22
ENDBRANCH   3  20
TORSDOF 7
ENDMDL
MODEL 10
REMARK VINA RESULT:    -8.081      2.084      4.694
REMARK INTER + INTRA:         -12.826
REMARK INTER:                 -11.735
REMARK INTRA:                  -1.092
REMARK UNBOUND:                -1.675
REMARK SMILES CC(=O)NCCNc1nc(Nc2ccc(C)cc2O)c2cnn(C)c2n1
REMARK SMILES IDX 8 1 9 2 10 3 20 4 21 5 22 6 23 7 24 8 25 9 26 10 7 11 6 13
REMARK SMILES IDX 5 14 4 15 2 16 1 17 3 18 11 20 12 22 13 23 18 24 14 25 17 26
REMARK SMILES IDX 15 27 16 28 19 29
REMARK H PARENT 7 12 4 19 11 21 19 30
ROOT
ATOM      1  C   UNL     1       3.802  42.649  51.719  1.00  0.00     0.226 A 
ATOM      2  N   UNL     1       4.682  43.638  51.471  1.00  0.00    -0.195 NA
ATOM      3  C   UNL     1       4.481  44.878  51.990  1.00  0.00     0.147 A 
ATOM      4  C   UNL     1       3.336  45.082  52.763  1.00  0.00     0.082 A 
ATOM      5  C   UNL     1       2.697  46.131  53.453  1.00  0.00     0.149 A 
ATOM      6  N   UNL     1       1.570  45.743  54.063  1.00  0.00    -0.179 NA
ATOM      7  N   UNL     1       1.486  44.431  53.745  1.00  0.00    -0.250 N 
ATOM      8  C   UNL     1       0.367  43.657  54.222  1.00  0.00     0.176 C 
ATOM      9  C   UNL     1       2.519  43.987  52.966  1.00  0.00     0.165 A 
ATOM     10  N   UNL     1       2.708  42.750  52.484  1.00  0.00    -0.193 NA
ENDROOT
BRANCH   1  11
ATOM     11  N   UNL     1       4.008  41.398  51.177  1.00  0.00    -0.352 N 
ATOM     12  H   UNL     1       4.940  41.088  51.425  1.00  0.00     0.163 HD
BRANCH  11  13
ATOM     13  C   UNL     1       3.538  41.086  49.836  1.00  0.00     0.137 C 
BRANCH  13  14
ATOM     14  C   UNL     1       4.673  40.781  48.849  1.00  0.00     0.137 C 
BRANCH  14  15
ATOM     15  N   UNL     1       5.600  41.884  48.683  1.00  0.00    -0.355 N 
ATOM     16  C   UNL     1       6.760  41.952  49.413  1.00  0.00     0.216 C 
ATOM     17  C   UNL     1       7.556  43.207  49.186  1.00  0.00     0.114 C 
ATOM     18  O   UNL     1       7.125  41.077  50.193  1.00  0.00    -0.275 OA
ATOM     19  H   UNL     1       5.242  42.734  48.251  1.00  0.00     0.163 HD
ENDBRANCH  14  15
ENDBRANCH  13  14
ENDBRANCH  11  13
ENDBRANCH   1  11
BRANCH   3  20
ATOM     20  N   UNL     1       5.424  45.866  51.665  1.00  0.00    -0.336 N 
ATOM     21  H   UNL     1       5.628  45.761  50.676  1.00  0.00     0.168 HD
BRANCH  20  22
ATOM     22  C   UNL     1       6.601  46.192  52.379  1.00  0.00     0.082 A 
ATOM     23  C   UNL     1       6.464  46.524  53.733  1.00  0.00     0.030 A 
ATOM     24  C   UNL     1       7.872  46.315  51.797  1.00  0.00     0.139 A 
ATOM     25  C   UNL     1       7.569  46.906  54.498  1.00  0.00     0.006 A 
ATOM     26  C   UNL     1       8.983  46.695  52.557  1.00  0.00     0.051 A 
ATOM     27  C   UNL     1       8.836  47.001  53.915  1.00  0.00    -0.047 A 
ATOM     28  C   UNL     1      10.029  47.378  54.743  1.00  0.00     0.044 C 
BRANCH  24  29
ATOM     29  O   UNL     1       8.033  46.083  50.457  1.00  0.00    -0.506 OA
ATOM     30  H   UNL     1       7.905  46.917  49.974  1.00  0.00     0.293 HD
ENDBRANCH  24  29
ENDBRANCH  20  22
ENDBRANCH   3  20
TORSDOF 7
ENDMDL
MODEL 11
REMARK VINA RESULT:    -8.062      2.999      5.567
REMARK INTER + INTRA:         -12.800
REMARK INTER:                 -11.996
REMARK INTRA:                  -0.804
REMARK UNBOUND:                -1.675
REMARK SMILES CC(=O)NCCNc1nc(Nc2ccc(C)cc2O)c2cnn(C)c2n1
REMARK SMILES IDX 8 1 9 2 10 3 20 4 21 5 22 6 23 7 24 8 25 9 26 10 7 11 6 13
REMARK SMILES IDX 5 14 4 15 2 16 1 17 3 18 11 20 12 22 13 23 18 24 14 25 17 26
REMARK SMILES IDX 15 27 16 28 19 29
REMARK H PARENT 7 12 4 19 11 21 19 30
ROOT
ATOM      1  C   UNL     1       5.469  42.936  50.451  1.00  0.00     0.226 A 
ATOM      2  N   UNL     1       6.459  43.849  50.508  1.00  0.00    -0.195 NA
ATOM      3  C   UNL     1       6.196  45.116  50.925  1.00  0.00     0.147 A 
ATOM      4  C   UNL     1       4.879  45.428  51.268  1.00  0.00     0.082 A 
ATOM      5  C   UNL     1       4.133  46.543  51.699  1.00  0.00     0.149 A 
ATOM      6  N   UNL     1       2.839  46.260  51.897  1.00  0.00    -0.179 NA
ATOM      7  N   UNL     1       2.761  44.947  51.575  1.00  0.00    -0.250 N 
ATOM      8  C   UNL     1       1.489  44.274  51.652  1.00  0.00     0.176 C 
ATOM      9  C   UNL     1       3.956  44.405  51.190  1.00  0.00     0.165 A 
ATOM     10  N   UNL     1       4.194  43.142  50.804  1.00  0.00    -0.193 NA
ENDROOT
BRANCH   1  11
ATOM     11  N   UNL     1       5.743  41.657  50.015  1.00  0.00    -0.352 N 
ATOM     12  H   UNL     1       6.717  41.453  50.205  1.00  0.00     0.163 HD
BRANCH  11  13
ATOM     13  C   UNL     1       5.194  41.170  48.759  1.00  0.00     0.137 C 
BRANCH  13  14
ATOM     14  C   UNL     1       5.729  41.919  47.530  1.00  0.00     0.137 C 
BRANCH  14  15
ATOM     15  N   UNL     1       5.760  41.104  46.331  1.00  0.00    -0.355 N 
ATOM     16  C   UNL     1       5.317  41.594  45.128  1.00  0.00     0.216 C 
ATOM     17  C   UNL     1       5.330  40.588  44.012  1.00  0.00     0.114 C 
ATOM     18  O   UNL     1       4.933  42.748  44.964  1.00  0.00    -0.275 OA
ATOM     19  H   UNL     1       5.829  40.095  46.453  1.00  0.00     0.163 HD
ENDBRANCH  14  15
ENDBRANCH  13  14
ENDBRANCH  11  13
ENDBRANCH   1  11
BRANCH   3  20
ATOM     20  N   UNL     1       7.269  46.021  50.931  1.00  0.00    -0.336 N 
ATOM     21  H   UNL     1       7.816  45.832  50.095  1.00  0.00     0.168 HD
BRANCH  20  22
ATOM     22  C   UNL     1       8.122  46.328  52.017  1.00  0.00     0.082 A 
ATOM     23  C   UNL     1       7.563  47.019  53.100  1.00  0.00     0.030 A 
ATOM     24  C   UNL     1       9.505  46.091  52.031  1.00  0.00     0.139 A 
ATOM     25  C   UNL     1       8.346  47.405  54.192  1.00  0.00     0.006 A 
ATOM     26  C   UNL     1      10.294  46.473  53.120  1.00  0.00     0.051 A 
ATOM     27  C   UNL     1       9.719  47.141  54.207  1.00  0.00    -0.047 A 
ATOM     28  C   UNL     1      10.554  47.525  55.393  1.00  0.00     0.044 C 
BRANCH  24  29
ATOM     29  O   UNL     1      10.104  45.495  50.953  1.00  0.00    -0.506 OA
ATOM     30  H   UNL     1      10.529  44.671  51.244  1.00  0.00     0.293 HD
ENDBRANCH  24  29
ENDBRANCH  20  22
ENDBRANCH   3  20
TORSDOF 7
ENDMDL
MODEL 12
REMARK VINA RESULT:    -7.958      2.085      6.108
REMARK INTER + INTRA:         -12.657
REMARK INTER:                 -11.713
REMARK INTRA:                  -0.944
REMARK UNBOUND:                -1.675
REMARK SMILES CC(=O)NCCNc1nc(Nc2ccc(C)cc2O)c2cnn(C)c2n1
REMARK SMILES IDX 8 1 9 2 10 3 20 4 21 5 22 6 23 7 24 8 25 9 26 10 7 11 6 13
REMARK SMILES IDX 5 14 4 15 2 16 1 17 3 18 11 20 12 22 13 23 18 24 14 25 17 26
REMARK SMILES IDX 15 27 16 28 19 29
REMARK H PARENT 7 12 4 19 11 21 19 30
ROOT
ATOM      1  C   UNL     1       5.103  45.313  51.988  1.00  0.00     0.226 A 
ATOM      2  N   UNL     1       4.130  44.540  52.510  1.00  0.00    -0.195 NA
ATOM      3  C   UNL     1       3.990  43.250  52.103  1.00  0.00     0.147 A 
ATOM      4  C   UNL     1       4.869  42.777  51.126  1.00  0.00     0.082 A 
ATOM      5  C   UNL     1       5.099  41.598  50.390  1.00  0.00     0.149 A 
ATOM      6  N   UNL     1       6.138  41.700  49.552  1.00  0.00    -0.179 NA
ATOM      7  N   UNL     1       6.567  42.969  49.751  1.00  0.00    -0.250 N 
ATOM      8  C   UNL     1       7.690  43.463  48.994  1.00  0.00     0.176 C 
ATOM      9  C   UNL     1       5.838  43.655  50.683  1.00  0.00     0.165 A 
ATOM     10  N   UNL     1       6.011  44.923  51.085  1.00  0.00    -0.193 NA
ENDROOT
BRANCH   1  11
ATOM     11  N   UNL     1       5.229  46.623  52.399  1.00  0.00    -0.352 N 
ATOM     12  H   UNL     1       5.949  47.068  51.843  1.00  0.00     0.163 HD
BRANCH  11  13
ATOM     13  C   UNL     1       5.174  46.963  53.812  1.00  0.00     0.137 C 
BRANCH  13  14
ATOM     14  C   UNL     1       6.375  46.442  54.612  1.00  0.00     0.137 C 
BRANCH  14  15
ATOM     15  N   UNL     1       7.601  46.393  53.838  1.00  0.00    -0.355 N 
ATOM     16  C   UNL     1       8.653  47.227  54.121  1.00  0.00     0.216 C 
ATOM     17  C   UNL     1       9.805  47.110  53.163  1.00  0.00     0.114 C 
ATOM     18  O   UNL     1       8.664  48.011  55.066  1.00  0.00    -0.275 OA
ATOM     19  H   UNL     1       7.557  45.956  52.919  1.00  0.00     0.163 HD
ENDBRANCH  14  15
ENDBRANCH  13  14
ENDBRANCH  11  13
ENDBRANCH   1  11
BRANCH   3  20
ATOM     20  N   UNL     1       2.937  42.514  52.668  1.00  0.00    -0.336 N 
ATOM     21  H   UNL     1       2.930  41.610  52.203  1.00  0.00     0.168 HD
BRANCH  20  22
ATOM     22  C   UNL     1       1.614  42.957  52.903  1.00  0.00     0.082 A 
ATOM     23  C   UNL     1       0.653  42.666  51.927  1.00  0.00     0.030 A 
ATOM     24  C   UNL     1       1.230  43.763  53.987  1.00  0.00     0.139 A 
ATOM     25  C   UNL     1      -0.666  43.111  52.058  1.00  0.00     0.006 A 
ATOM     26  C   UNL     1      -0.088  44.209  54.125  1.00  0.00     0.051 A 
ATOM     27  C   UNL     1      -1.045  43.891  53.155  1.00  0.00    -0.047 A 
ATOM     28  C   UNL     1      -2.468  44.339  53.313  1.00  0.00     0.044 C 
BRANCH  24  29
ATOM     29  O   UNL     1       2.161  44.142  54.918  1.00  0.00    -0.506 OA
ATOM     30  H   UNL     1       1.744  44.148  55.795  1.00  0.00     0.293 HD
ENDBRANCH  24  29
ENDBRANCH  20  22
ENDBRANCH   3  20
TORSDOF 7
ENDMDL
MODEL 13
REMARK VINA RESULT:    -7.824      2.554      7.030
REMARK INTER + INTRA:         -12.472
REMARK INTER:                 -11.191
REMARK INTRA:                  -1.281
REMARK UNBOUND:                -1.675
REMARK SMILES CC(=O)NCCNc1nc(Nc2ccc(C)cc2O)c2cnn(C)c2n1
REMARK SMILES IDX 8 1 9 2 10 3 20 4 21 5 22 6 23 7 24 8 25 9 26 10 7 11 6 13
REMARK SMILES IDX 5 14 4 15 2 16 1 17 3 18 11 20 12 22 13 23 18 24 14 25 17 26
REMARK SMILES IDX 15 27 16 28 19 29
REMARK H PARENT 7 12 4 19 11 21 19 30
ROOT
ATOM      1  C   UNL     1       6.083  44.623  51.021  1.00  0.00     0.226 A 
ATOM      2  N   UNL     1       5.210  44.155  51.935  1.00  0.00    -0.195 NA
ATOM      3  C   UNL     1       5.141  44.726  53.168  1.00  0.00     0.147 A 
ATOM      4  C   UNL     1       6.008  45.785  53.444  1.00  0.00     0.082 A 
ATOM      5  C   UNL     1       6.331  46.637  54.519  1.00  0.00     0.149 A 
ATOM      6  N   UNL     1       7.283  47.527  54.211  1.00  0.00    -0.179 NA
ATOM      7  N   UNL     1       7.577  47.228  52.925  1.00  0.00    -0.250 N 
ATOM      8  C   UNL     1       8.595  47.983  52.237  1.00  0.00     0.176 C 
ATOM      9  C   UNL     1       6.842  46.190  52.421  1.00  0.00     0.165 A 
ATOM     10  N   UNL     1       6.913  45.659  51.191  1.00  0.00    -0.193 NA
ENDROOT
BRANCH   1  11
ATOM     11  N   UNL     1       6.154  44.029  49.778  1.00  0.00    -0.352 N 
ATOM     12  H   UNL     1       5.212  43.876  49.439  1.00  0.00     0.163 HD
BRANCH  11  13
ATOM     13  C   UNL     1       7.135  42.989  49.511  1.00  0.00     0.137 C 
BRANCH  13  14
ATOM     14  C   UNL     1       6.598  41.571  49.748  1.00  0.00     0.137 C 
BRANCH  14  15
ATOM     15  N   UNL     1       5.671  41.130  48.723  1.00  0.00    -0.355 N 
ATOM     16  C   UNL     1       4.384  40.772  49.037  1.00  0.00     0.216 C 
ATOM     17  C   UNL     1       3.589  40.250  47.873  1.00  0.00     0.114 C 
ATOM     18  O   UNL     1       3.911  40.857  50.167  1.00  0.00    -0.275 OA
ATOM     19  H   UNL     1       6.066  40.811  47.841  1.00  0.00     0.163 HD
ENDBRANCH  14  15
ENDBRANCH  13  14
ENDBRANCH  11  13
ENDBRANCH   1  11
BRANCH   3  20
ATOM     20  N   UNL     1       4.230  44.168  54.078  1.00  0.00    -0.336 N 
ATOM     21  H   UNL     1       4.557  43.227  54.279  1.00  0.00     0.168 HD
BRANCH  20  22
ATOM     22  C   UNL     1       2.818  44.193  53.998  1.00  0.00     0.082 A 
ATOM     23  C   UNL     1       2.145  45.158  54.759  1.00  0.00     0.030 A 
ATOM     24  C   UNL     1       2.048  43.248  53.303  1.00  0.00     0.139 A 
ATOM     25  C   UNL     1       0.749  45.219  54.775  1.00  0.00     0.006 A 
ATOM     26  C   UNL     1       0.650  43.305  53.314  1.00  0.00     0.051 A 
ATOM     27  C   UNL     1      -0.010  44.289  54.059  1.00  0.00    -0.047 A 
ATOM     28  C   UNL     1      -1.507  44.375  54.048  1.00  0.00     0.044 C 
BRANCH  24  29
ATOM     29  O   UNL     1       2.666  42.236  52.618  1.00  0.00    -0.506 OA
ATOM     30  H   UNL     1       2.752  41.465  53.203  1.00  0.00     0.293 HD
ENDBRANCH  24  29
ENDBRANCH  20  22
ENDBRANCH   3  20
TORSDOF 7
ENDMDL
MODEL 14
REMARK VINA RESULT:    -7.799      3.052      6.485
REMARK INTER + INTRA:         -12.438
REMARK INTER:                 -11.217
REMARK INTRA:                  -1.220
REMARK UNBOUND:                -1.675
REMARK SMILES CC(=O)NCCNc1nc(Nc2ccc(C)cc2O)c2cnn(C)c2n1
REMARK SMILES IDX 8 1 9 2 10 3 20 4 21 5 22 6 23 7 24 8 25 9 26 10 7 11 6 13
REMARK SMILES IDX 5 14 4 15 2 16 1 17 3 18 11 20 12 22 13 23 18 24 14 25 17 26
REMARK SMILES IDX 15 27 16 28 19 29
REMARK H PARENT 7 12 4 19 11 21 19 30
ROOT
ATOM      1  C   UNL     1       4.048  42.688  51.930  1.00  0.00     0.226 A 
ATOM      2  N   UNL     1       4.474  41.895  50.927  1.00  0.00    -0.195 NA
ATOM      3  C   UNL     1       5.517  42.284  50.145  1.00  0.00     0.147 A 
ATOM      4  C   UNL     1       6.103  43.523  50.411  1.00  0.00     0.082 A 
ATOM      5  C   UNL     1       7.126  44.344  49.896  1.00  0.00     0.149 A 
ATOM      6  N   UNL     1       7.276  45.484  50.582  1.00  0.00    -0.179 NA
ATOM      7  N   UNL     1       6.324  45.392  51.540  1.00  0.00    -0.250 N 
ATOM      8  C   UNL     1       6.165  46.468  52.485  1.00  0.00     0.176 C 
ATOM      9  C   UNL     1       5.594  44.236  51.478  1.00  0.00     0.165 A 
ATOM     10  N   UNL     1       4.583  43.865  52.277  1.00  0.00    -0.193 NA
ENDROOT
BRANCH   1  11
ATOM     11  N   UNL     1       2.982  42.291  52.708  1.00  0.00    -0.352 N 
ATOM     12  H   UNL     1       3.020  41.285  52.819  1.00  0.00     0.163 HD
BRANCH  11  13
ATOM     13  C   UNL     1       1.668  42.890  52.526  1.00  0.00     0.137 C 
BRANCH  13  14
ATOM     14  C   UNL     1       1.132  43.576  53.790  1.00  0.00     0.137 C 
BRANCH  14  15
ATOM     15  N   UNL     1       2.174  44.170  54.606  1.00  0.00    -0.355 N 
ATOM     16  C   UNL     1       2.542  45.482  54.444  1.00  0.00     0.216 C 
ATOM     17  C   UNL     1       3.699  45.907  55.303  1.00  0.00     0.114 C 
ATOM     18  O   UNL     1       1.988  46.252  53.664  1.00  0.00    -0.275 OA
ATOM     19  H   UNL     1       2.817  43.536  55.076  1.00  0.00     0.163 HD
ENDBRANCH  14  15
ENDBRANCH  13  14
ENDBRANCH  11  13
ENDBRANCH   1  11
BRANCH   3  20
ATOM     20  N   UNL     1       5.888  41.422  49.102  1.00  0.00    -0.336 N 
ATOM     21  H   UNL     1       6.850  41.646  48.865  1.00  0.00     0.168 HD
BRANCH  20  22
ATOM     22  C   UNL     1       5.148  41.130  47.931  1.00  0.00     0.082 A 
ATOM     23  C   UNL     1       5.584  41.707  46.732  1.00  0.00     0.030 A 
ATOM     24  C   UNL     1       3.950  40.399  47.914  1.00  0.00     0.139 A 
ATOM     25  C   UNL     1       4.882  41.510  45.539  1.00  0.00     0.006 A 
ATOM     26  C   UNL     1       3.244  40.196  46.723  1.00  0.00     0.051 A 
ATOM     27  C   UNL     1       3.703  40.759  45.527  1.00  0.00    -0.047 A 
ATOM     28  C   UNL     1       2.968  40.518  44.241  1.00  0.00     0.044 C 
BRANCH  24  29
ATOM     29  O   UNL     1       3.444  39.891  49.080  1.00  0.00    -0.506 OA
ATOM     30  H   UNL     1       3.687  38.952  49.147  1.00  0.00     0.293 HD
ENDBRANCH  24  29
ENDBRANCH  20  22
ENDBRANCH   3  20
TORSDOF 7
ENDMDL
MODEL 15
REMARK VINA RESULT:    -7.784      2.017      6.414
REMARK INTER + INTRA:         -12.417
REMARK INTER:                 -11.512
REMARK INTRA:                  -0.905
REMARK UNBOUND:                -1.675
REMARK SMILES CC(=O)NCCNc1nc(Nc2ccc(C)cc2O)c2cnn(C)c2n1
REMARK SMILES IDX 8 1 9 2 10 3 20 4 21 5 22 6 23 7 24 8 25 9 26 10 7 11 6 13
REMARK SMILES IDX 5 14 4 15 2 16 1 17 3 18 11 20 12 22 13 23 18 24 14 25 17 26
REMARK SMILES IDX 15 27 16 28 19 29
REMARK H PARENT 7 12 4 19 11 21 19 30
ROOT
ATOM      1  C   UNL     1       5.883  45.250  51.792  1.00  0.00     0.226 A 
ATOM      2  N   UNL     1       4.895  45.233  52.708  1.00  0.00    -0.195 NA
ATOM      3  C   UNL     1       4.035  44.181  52.765  1.00  0.00     0.147 A 
ATOM      4  C   UNL     1       4.207  43.149  51.841  1.00  0.00     0.082 A 
ATOM      5  C   UNL     1       3.593  41.931  51.487  1.00  0.00     0.149 A 
ATOM      6  N   UNL     1       4.214  41.308  50.478  1.00  0.00    -0.179 NA
ATOM      7  N   UNL     1       5.231  42.149  50.178  1.00  0.00    -0.250 N 
ATOM      8  C   UNL     1       6.132  41.816  49.104  1.00  0.00     0.176 C 
ATOM      9  C   UNL     1       5.267  43.268  50.965  1.00  0.00     0.165 A 
ATOM     10  N   UNL     1       6.143  44.282  50.904  1.00  0.00    -0.193 NA
ENDROOT
BRANCH   1  11
ATOM     11  N   UNL     1       6.743  46.327  51.733  1.00  0.00    -0.352 N 
ATOM     12  H   UNL     1       6.230  47.131  51.393  1.00  0.00     0.163 HD
BRANCH  11  13
ATOM     13  C   UNL     1       8.108  46.159  51.260  1.00  0.00     0.137 C 
BRANCH  13  14
ATOM     14  C   UNL     1       9.014  47.356  51.579  1.00  0.00     0.137 C 
BRANCH  14  15
ATOM     15  N   UNL     1       9.796  47.176  52.787  1.00  0.00    -0.355 N 
ATOM     16  C   UNL     1       9.293  47.524  54.016  1.00  0.00     0.216 C 
ATOM     17  C   UNL     1      10.268  47.362  55.148  1.00  0.00     0.114 C 
ATOM     18  O   UNL     1       8.151  47.941  54.190  1.00  0.00    -0.275 OA
ATOM     19  H   UNL     1      10.804  47.076  52.681  1.00  0.00     0.163 HD
ENDBRANCH  14  15
ENDBRANCH  13  14
ENDBRANCH  11  13
ENDBRANCH   1  11
BRANCH   3  20
ATOM     20  N   UNL     1       3.013  44.246  53.725  1.00  0.00    -0.336 N 
ATOM     21  H   UNL     1       3.288  43.632  54.486  1.00  0.00     0.168 HD
BRANCH  20  22
ATOM     22  C   UNL     1       1.619  44.152  53.496  1.00  0.00     0.082 A 
ATOM     23  C   UNL     1       1.012  42.908  53.710  1.00  0.00     0.030 A 
ATOM     24  C   UNL     1       0.834  45.185  52.962  1.00  0.00     0.139 A 
ATOM     25  C   UNL     1      -0.350  42.717  53.461  1.00  0.00     0.006 A 
ATOM     26  C   UNL     1      -0.530  45.002  52.712  1.00  0.00     0.051 A 
ATOM     27  C   UNL     1      -1.130  43.761  52.953  1.00  0.00    -0.047 A 
ATOM     28  C   UNL     1      -2.599  43.567  52.718  1.00  0.00     0.044 C 
BRANCH  24  29
ATOM     29  O   UNL     1       1.408  46.390  52.657  1.00  0.00    -0.506 OA
ATOM     30  H   UNL     1       1.712  46.371  51.733  1.00  0.00     0.293 HD
ENDBRANCH  24  29
ENDBRANCH  20  22
ENDBRANCH   3  20
TORSDOF 7
ENDMDL
MODEL 16
REMARK VINA RESULT:    -7.772      3.055      5.973
REMARK INTER + INTRA:         -12.401
REMARK INTER:                 -11.848
REMARK INTRA:                  -0.552
REMARK UNBOUND:                -1.675
REMARK SMILES CC(=O)NCCNc1nc(Nc2ccc(C)cc2O)c2cnn(C)c2n1
REMARK SMILES IDX 8 1 9 2 10 3 20 4 21 5 22 6 23 7 24 8 25 9 26 10 7 11 6 13
REMARK SMILES IDX 5 14 4 15 2 16 1 17 3 18 11 20 12 22 13 23 18 24 14 25 17 26
REMARK SMILES IDX 15 27 16 28 19 29
REMARK H PARENT 7 12 4 19 11 21 19 30
ROOT
ATOM      1  C   UNL     1       2.560  45.032  54.983  1.00  0.00     0.226 A 
ATOM      2  N   UNL     1       3.052  44.113  54.129  1.00  0.00    -0.195 NA
ATOM      3  C   UNL     1       2.210  43.272  53.471  1.00  0.00     0.147 A 
ATOM      4  C   UNL     1       0.842  43.389  53.728  1.00  0.00     0.082 A 
ATOM      5  C   UNL     1      -0.364  42.765  53.350  1.00  0.00     0.149 A 
ATOM      6  N   UNL     1      -1.439  43.319  53.923  1.00  0.00    -0.179 NA
ATOM      7  N   UNL     1      -0.908  44.301  54.687  1.00  0.00    -0.250 N 
ATOM      8  C   UNL     1      -1.778  45.126  55.487  1.00  0.00     0.176 C 
ATOM      9  C   UNL     1       0.456  44.381  54.606  1.00  0.00     0.165 A 
ATOM     10  N   UNL     1       1.264  45.237  55.249  1.00  0.00    -0.193 NA
ENDROOT
BRANCH   1  11
ATOM     11  N   UNL     1       3.423  45.872  55.654  1.00  0.00    -0.352 N 
ATOM     12  H   UNL     1       2.877  46.561  56.156  1.00  0.00     0.163 HD
BRANCH  11  13
ATOM     13  C   UNL     1       4.653  46.326  55.024  1.00  0.00     0.137 C 
BRANCH  13  14
ATOM     14  C   UNL     1       4.452  47.535  54.100  1.00  0.00     0.137 C 
BRANCH  14  15
ATOM     15  N   UNL     1       4.437  47.185  52.693  1.00  0.00    -0.355 N 
ATOM     16  C   UNL     1       3.255  47.024  52.014  1.00  0.00     0.216 C 
ATOM     17  C   UNL     1       3.419  46.569  50.592  1.00  0.00     0.114 C 
ATOM     18  O   UNL     1       2.151  47.224  52.515  1.00  0.00    -0.275 OA
ATOM     19  H   UNL     1       5.284  46.775  52.304  1.00  0.00     0.163 HD
ENDBRANCH  14  15
ENDBRANCH  13  14
ENDBRANCH  11  13
ENDBRANCH   1  11
BRANCH   3  20
ATOM     20  N   UNL     1       2.794  42.321  52.620  1.00  0.00    -0.336 N 
ATOM     21  H   UNL     1       2.883  41.463  53.157  1.00  0.00     0.168 HD
BRANCH  20  22
ATOM     22  C   UNL     1       3.924  42.500  51.787  1.00  0.00     0.082 A 
ATOM     23  C   UNL     1       4.665  43.678  51.949  1.00  0.00     0.030 A 
ATOM     24  C   UNL     1       4.280  41.636  50.740  1.00  0.00     0.139 A 
ATOM     25  C   UNL     1       5.766  43.955  51.134  1.00  0.00     0.006 A 
ATOM     26  C   UNL     1       5.382  41.907  49.922  1.00  0.00     0.051 A 
ATOM     27  C   UNL     1       6.129  43.076  50.109  1.00  0.00    -0.047 A 
ATOM     28  C   UNL     1       7.331  43.356  49.257  1.00  0.00     0.044 C 
BRANCH  24  29
ATOM     29  O   UNL     1       3.530  40.518  50.494  1.00  0.00    -0.506 OA
ATOM     30  H   UNL     1       2.616  40.787  50.302  1.00  0.00     0.293 HD
ENDBRANCH  24  29
ENDBRANCH  20  22
ENDBRANCH   3  20
TORSDOF 7
ENDMDL
MODEL 17
REMARK VINA RESULT:    -7.763      2.974      5.598
REMARK INTER + INTRA:         -12.387
REMARK INTER:                 -11.617
REMARK INTRA:                  -0.770
REMARK UNBOUND:                -1.675
REMARK SMILES CC(=O)NCCNc1nc(Nc2ccc(C)cc2O)c2cnn(C)c2n1
REMARK SMILES IDX 8 1 9 2 10 3 20 4 21 5 22 6 23 7 24 8 25 9 26 10 7 11 6 13
REMARK SMILES IDX 5 14 4 15 2 16 1 17 3 18 11 20 12 22 13 23 18 24 14 25 17 26
REMARK SMILES IDX 15 27 16 28 19 29
REMARK H PARENT 7 12 4 19 11 21 19 30
ROOT
ATOM      1  C   UNL     1       3.454  42.601  51.478  1.00  0.00     0.226 A 
ATOM      2  N   UNL     1       4.336  43.573  51.172  1.00  0.00    -0.195 NA
ATOM      3  C   UNL     1       4.204  44.812  51.717  1.00  0.00     0.147 A 
ATOM      4  C   UNL     1       3.125  45.032  52.577  1.00  0.00     0.082 A 
ATOM      5  C   UNL     1       2.565  46.088  53.323  1.00  0.00     0.149 A 
ATOM      6  N   UNL     1       1.479  45.719  54.014  1.00  0.00    -0.179 NA
ATOM      7  N   UNL     1       1.341  44.412  53.691  1.00  0.00    -0.250 N 
ATOM      8  C   UNL     1       0.243  43.658  54.244  1.00  0.00     0.176 C 
ATOM      9  C   UNL     1       2.301  43.954  52.831  1.00  0.00     0.165 A 
ATOM     10  N   UNL     1       2.424  42.718  52.325  1.00  0.00    -0.193 NA
ENDROOT
BRANCH   1  11
ATOM     11  N   UNL     1       3.590  41.352  50.910  1.00  0.00    -0.352 N 
ATOM     12  H   UNL     1       3.624  40.662  51.651  1.00  0.00     0.163 HD
BRANCH  11  13
ATOM     13  C   UNL     1       4.471  41.149  49.771  1.00  0.00     0.137 C 
BRANCH  13  14
ATOM     14  C   UNL     1       3.814  40.370  48.623  1.00  0.00     0.137 C 
BRANCH  14  15
ATOM     15  N   UNL     1       4.367  40.692  47.322  1.00  0.00    -0.355 N 
ATOM     16  C   UNL     1       3.581  40.689  46.197  1.00  0.00     0.216 C 
ATOM     17  C   UNL     1       4.332  40.951  44.922  1.00  0.00     0.114 C 
ATOM     18  O   UNL     1       2.370  40.484  46.214  1.00  0.00    -0.275 OA
ATOM     19  H   UNL     1       5.377  40.626  47.213  1.00  0.00     0.163 HD
ENDBRANCH  14  15
ENDBRANCH  13  14
ENDBRANCH  11  13
ENDBRANCH   1  11
BRANCH   3  20
ATOM     20  N   UNL     1       5.141  45.782  51.331  1.00  0.00    -0.336 N 
ATOM     21  H   UNL     1       5.253  45.696  50.325  1.00  0.00     0.168 HD
BRANCH  20  22
ATOM     22  C   UNL     1       6.387  46.058  51.943  1.00  0.00     0.082 A 
ATOM     23  C   UNL     1       6.368  46.545  53.256  1.00  0.00     0.030 A 
ATOM     24  C   UNL     1       7.625  45.986  51.285  1.00  0.00     0.139 A 
ATOM     25  C   UNL     1       7.551  46.890  53.916  1.00  0.00     0.006 A 
ATOM     26  C   UNL     1       8.813  46.327  51.940  1.00  0.00     0.051 A 
ATOM     27  C   UNL     1       8.782  46.790  53.261  1.00  0.00    -0.047 A 
ATOM     28  C   UNL     1      10.055  47.127  53.979  1.00  0.00     0.044 C 
BRANCH  24  29
ATOM     29  O   UNL     1       7.679  45.596  49.973  1.00  0.00    -0.506 OA
ATOM     30  H   UNL     1       8.534  45.167  49.806  1.00  0.00     0.293 HD
ENDBRANCH  24  29
ENDBRANCH  20  22
ENDBRANCH   3  20
TORSDOF 7
ENDMDL
MODEL 18
REMARK VINA RESULT:    -7.752      1.807      5.553
REMARK INTER + INTRA:         -12.372
REMARK INTER:                 -11.485
REMARK INTRA:                  -0.887
REMARK UNBOUND:                -1.675
REMARK SMILES CC(=O)NCCNc1nc(Nc2ccc(C)cc2O)c2cnn(C)c2n1
REMARK SMILES IDX 8 1 9 2 10 3 20 4 21 5 22 6 23 7 24 8 25 9 26 10 7 11 6 13
REMARK SMILES IDX 5 14 4 15 2 16 1 17 3 18 11 20 12 22 13 23 18 24 14 25 17 26
REMARK SMILES IDX 15 27 16 28 19 29
REMARK H PARENT 7 12 4 19 11 21 19 30
ROOT
ATOM      1  C   UNL     1       6.620  45.429  50.805  1.00  0.00     0.226 A 
ATOM      2  N   UNL     1       5.628  46.130  51.388  1.00  0.00    -0.195 NA
ATOM      3  C   UNL     1       4.433  45.536  51.648  1.00  0.00     0.147 A 
ATOM      4  C   UNL     1       4.276  44.199  51.275  1.00  0.00     0.082 A 
ATOM      5  C   UNL     1       3.278  43.205  51.294  1.00  0.00     0.149 A 
ATOM      6  N   UNL     1       3.697  42.036  50.792  1.00  0.00    -0.179 NA
ATOM      7  N   UNL     1       4.976  42.297  50.437  1.00  0.00    -0.250 N 
ATOM      8  C   UNL     1       5.769  41.257  49.830  1.00  0.00     0.176 C 
ATOM      9  C   UNL     1       5.369  43.580  50.704  1.00  0.00     0.165 A 
ATOM     10  N   UNL     1       6.565  44.137  50.459  1.00  0.00    -0.193 NA
ENDROOT
BRANCH   1  11
ATOM     11  N   UNL     1       7.823  46.044  50.534  1.00  0.00    -0.352 N 
ATOM     12  H   UNL     1       8.068  45.864  49.568  1.00  0.00     0.163 HD
BRANCH  11  13
ATOM     13  C   UNL     1       8.903  46.019  51.509  1.00  0.00     0.137 C 
BRANCH  13  14
ATOM     14  C   UNL     1       9.036  47.325  52.304  1.00  0.00     0.137 C 
BRANCH  14  15
ATOM     15  N   UNL     1       9.958  47.226  53.419  1.00  0.00    -0.355 N 
ATOM     16  C   UNL     1       9.569  47.560  54.692  1.00  0.00     0.216 C 
ATOM     17  C   UNL     1      10.673  47.491  55.710  1.00  0.00     0.114 C 
ATOM     18  O   UNL     1       8.426  47.895  54.988  1.00  0.00    -0.275 OA
ATOM     19  H   UNL     1      10.952  47.197  53.203  1.00  0.00     0.163 HD
ENDBRANCH  14  15
ENDBRANCH  13  14
ENDBRANCH  11  13
ENDBRANCH   1  11
BRANCH   3  20
ATOM     20  N   UNL     1       3.437  46.335  52.231  1.00  0.00    -0.336 N 
ATOM     21  H   UNL     1       3.811  47.278  52.281  1.00  0.00     0.168 HD
BRANCH  20  22
ATOM     22  C   UNL     1       2.676  46.044  53.388  1.00  0.00     0.082 A 
ATOM     23  C   UNL     1       3.363  45.958  54.606  1.00  0.00     0.030 A 
ATOM     24  C   UNL     1       1.310  45.725  53.379  1.00  0.00     0.139 A 
ATOM     25  C   UNL     1       2.696  45.627  55.789  1.00  0.00     0.006 A 
ATOM     26  C   UNL     1       0.636  45.395  54.559  1.00  0.00     0.051 A 
ATOM     27  C   UNL     1       1.328  45.336  55.773  1.00  0.00    -0.047 A 
ATOM     28  C   UNL     1       0.605  45.014  57.047  1.00  0.00     0.044 C 
BRANCH  24  29
ATOM     29  O   UNL     1       0.621  45.714  52.195  1.00  0.00    -0.506 OA
ATOM     30  H   UNL     1       0.880  44.927  51.687  1.00  0.00     0.293 HD
ENDBRANCH  24  29
ENDBRANCH  20  22
ENDBRANCH   3  20
TORSDOF 7
ENDMDL
MODEL 19
REMARK VINA RESULT:    -7.728      2.382      6.646
REMARK INTER + INTRA:         -12.340
REMARK INTER:                 -10.932
REMARK INTRA:                  -1.407
REMARK UNBOUND:                -1.675
REMARK SMILES CC(=O)NCCNc1nc(Nc2ccc(C)cc2O)c2cnn(C)c2n1
REMARK SMILES IDX 8 1 9 2 10 3 20 4 21 5 22 6 23 7 24 8 25 9 26 10 7 11 6 13
REMARK SMILES IDX 5 14 4 15 2 16 1 17 3 18 11 20 12 22 13 23 18 24 14 25 17 26
REMARK SMILES IDX 15 27 16 28 19 29
REMARK H PARENT 7 12 4 19 11 21 19 30
ROOT
ATOM      1  C   UNL     1       7.327  45.726  50.776  1.00  0.00     0.226 A 
ATOM      2  N   UNL     1       6.002  45.888  50.964  1.00  0.00    -0.195 NA
ATOM      3  C   UNL     1       5.535  46.396  52.136  1.00  0.00     0.147 A 
ATOM      4  C   UNL     1       6.469  46.719  53.122  1.00  0.00     0.082 A 
ATOM      5  C   UNL     1       6.488  47.213  54.442  1.00  0.00     0.149 A 
ATOM      6  N   UNL     1       7.727  47.346  54.931  1.00  0.00    -0.179 NA
ATOM      7  N   UNL     1       8.507  46.918  53.912  1.00  0.00    -0.250 N 
ATOM      8  C   UNL     1       9.939  46.899  54.074  1.00  0.00     0.176 C 
ATOM      9  C   UNL     1       7.800  46.529  52.806  1.00  0.00     0.165 A 
ATOM     10  N   UNL     1       8.286  46.052  51.651  1.00  0.00    -0.193 NA
ENDROOT
BRANCH   1  11
ATOM     11  N   UNL     1       7.789  45.198  49.589  1.00  0.00    -0.352 N 
ATOM     12  H   UNL     1       7.280  45.626  48.825  1.00  0.00     0.163 HD
BRANCH  11  13
ATOM     13  C   UNL     1       8.087  43.778  49.477  1.00  0.00     0.137 C 
BRANCH  13  14
ATOM     14  C   UNL     1       6.882  42.936  49.036  1.00  0.00     0.137 C 
BRANCH  14  15
ATOM     15  N   UNL     1       5.943  42.673  50.110  1.00  0.00    -0.355 N 
ATOM     16  C   UNL     1       5.004  41.678  50.003  1.00  0.00     0.216 C 
ATOM     17  C   UNL     1       4.052  41.604  51.163  1.00  0.00     0.114 C 
ATOM     18  O   UNL     1       4.932  40.911  49.047  1.00  0.00    -0.275 OA
ATOM     19  H   UNL     1       5.797  43.412  50.794  1.00  0.00     0.163 HD
ENDBRANCH  14  15
ENDBRANCH  13  14
ENDBRANCH  11  13
ENDBRANCH   1  11
BRANCH   3  20
ATOM     20  N   UNL     1       4.143  46.509  52.272  1.00  0.00    -0.336 N 
ATOM     21  H   UNL     1       3.976  47.177  53.019  1.00  0.00     0.168 HD
BRANCH  20  22
ATOM     22  C   UNL     1       3.202  45.454  52.335  1.00  0.00     0.082 A 
ATOM     23  C   UNL     1       2.348  45.285  51.237  1.00  0.00     0.030 A 
ATOM     24  C   UNL     1       2.992  44.646  53.463  1.00  0.00     0.139 A 
ATOM     25  C   UNL     1       1.358  44.299  51.238  1.00  0.00     0.006 A 
ATOM     26  C   UNL     1       2.004  43.657  53.470  1.00  0.00     0.051 A 
ATOM     27  C   UNL     1       1.173  43.481  52.358  1.00  0.00    -0.047 A 
ATOM     28  C   UNL     1       0.133  42.401  52.347  1.00  0.00     0.044 C 
BRANCH  24  29
ATOM     29  O   UNL     1       3.748  44.838  54.589  1.00  0.00    -0.506 OA
ATOM     30  H   UNL     1       3.982  43.972  54.963  1.00  0.00     0.293 HD
ENDBRANCH  24  29
ENDBRANCH  20  22
ENDBRANCH   3  20
TORSDOF 7
ENDMDL
MODEL 20
REMARK VINA RESULT:    -7.601      2.358      6.452
REMARK INTER + INTRA:         -12.164
REMARK INTER:                 -11.240
REMARK INTRA:                  -0.924
REMARK UNBOUND:                -1.675
REMARK SMILES CC(=O)NCCNc1nc(Nc2ccc(C)cc2O)c2cnn(C)c2n1
REMARK SMILES IDX 8 1 9 2 10 3 20 4 21 5 22 6 23 7 24 8 25 9 26 10 7 11 6 13
REMARK SMILES IDX 5 14 4 15 2 16 1 17 3 18 11 20 12 22 13 23 18 24 14 25 17 26
REMARK SMILES IDX 15 27 16 28 19 29
REMARK H PARENT 7 12 4 19 11 21 19 30
ROOT
ATOM      1  C   UNL     1       6.572  45.076  50.772  1.00  0.00     0.226 A 
ATOM      2  N   UNL     1       5.642  45.723  51.504  1.00  0.00    -0.195 NA
ATOM      3  C   UNL     1       6.021  46.646  52.427  1.00  0.00     0.147 A 
ATOM      4  C   UNL     1       7.388  46.878  52.593  1.00  0.00     0.082 A 
ATOM      5  C   UNL     1       8.240  47.662  53.396  1.00  0.00     0.149 A 
ATOM      6  N   UNL     1       9.535  47.488  53.107  1.00  0.00    -0.179 NA
ATOM      7  N   UNL     1       9.507  46.569  52.114  1.00  0.00    -0.250 N 
ATOM      8  C   UNL     1      10.746  46.107  51.540  1.00  0.00     0.176 C 
ATOM      9  C   UNL     1       8.243  46.171  51.771  1.00  0.00     0.165 A 
ATOM     10  N   UNL     1       7.894  45.272  50.838  1.00  0.00    -0.193 NA
ENDROOT
BRANCH   1  11
ATOM     11  N   UNL     1       6.178  44.132  49.848  1.00  0.00    -0.352 N 
ATOM     12  H   UNL     1       5.228  43.850  50.058  1.00  0.00     0.163 HD
BRANCH  11  13
ATOM     13  C   UNL     1       7.099  43.093  49.413  1.00  0.00     0.137 C 
BRANCH  13  14
ATOM     14  C   UNL     1       6.580  41.672  49.671  1.00  0.00     0.137 C 
BRANCH  14  15
ATOM     15  N   UNL     1       5.679  41.195  48.640  1.00  0.00    -0.355 N 
ATOM     16  C   UNL     1       4.422  40.739  48.951  1.00  0.00     0.216 C 
ATOM     17  C   UNL     1       3.658  40.194  47.777  1.00  0.00     0.114 C 
ATOM     18  O   UNL     1       3.953  40.761  50.085  1.00  0.00    -0.275 OA
ATOM     19  H   UNL     1       6.090  40.927  47.748  1.00  0.00     0.163 HD
ENDBRANCH  14  15
ENDBRANCH  13  14
ENDBRANCH  11  13
ENDBRANCH   1  11
BRANCH   3  20
ATOM     20  N   UNL     1       5.001  47.259  53.172  1.00  0.00    -0.336 N 
ATOM     21  H   UNL     1       5.452  47.735  53.948  1.00  0.00     0.168 HD
BRANCH  20  22
ATOM     22  C   UNL     1       3.783  46.675  53.593  1.00  0.00     0.082 A 
ATOM     23  C   UNL     1       3.738  46.136  54.885  1.00  0.00     0.030 A 
ATOM     24  C   UNL     1       2.662  46.499  52.767  1.00  0.00     0.139 A 
ATOM     25  C   UNL     1       2.590  45.498  55.362  1.00  0.00     0.006 A 
ATOM     26  C   UNL     1       1.509  45.863  53.239  1.00  0.00     0.051 A 
ATOM     27  C   UNL     1       1.468  45.350  54.540  1.00  0.00    -0.047 A 
ATOM     28  C   UNL     1       0.224  44.696  55.062  1.00  0.00     0.044 C 
BRANCH  24  29
ATOM     29  O   UNL     1       2.696  46.935  51.469  1.00  0.00    -0.506 OA
ATOM     30  H   UNL     1       3.359  46.419  50.981  1.00  0.00     0.293 HD
ENDBRANCH  24  29
ENDBRANCH  20  22
ENDBRANCH   3  20
TORSDOF 7
ENDMDL
