MODEL 1
REMARK VINA RESULT:    -8.332      0.000      0.000
REMARK INTER + INTRA:         -12.783
REMARK INTER:                 -11.741
REMARK INTRA:                  -1.042
REMARK UNBOUND:                -1.042
REMARK SMILES COCCCNc1nc(Nc2ccccc2F)c2cnn(C)c2n1
REMARK SMILES IDX 5 1 4 2 3 3 2 4 1 5 6 6 7 8 8 9 24 10 9 11 23 12 18 13 21 14
REMARK SMILES IDX 19 15 20 16 22 17 10 18 11 20 12 21 16 22 13 23 15 24 14 25
REMARK SMILES IDX 17 26
REMARK H PARENT 6 7 10 19
ROOT
ATOM      1  C   UNL     1       4.207  45.760  55.349  1.00  0.00     0.118 C 
ENDROOT
BRANCH   1   2
ATOM      2  C   UNL     1       2.703  45.976  55.229  1.00  0.00     0.050 C 
BRANCH   2   3
ATOM      3  C   UNL     1       2.217  45.700  53.812  1.00  0.00     0.161 C 
BRANCH   3   4
ATOM      4  O   UNL     1       2.392  46.886  53.038  1.00  0.00    -0.385 OA
ATOM      5  C   UNL     1       2.743  46.589  51.693  1.00  0.00     0.194 C 
ENDBRANCH   3   4
ENDBRANCH   2   3
ENDBRANCH   1   2
BRANCH   1   6
ATOM      6  N   UNL     1       4.902  46.980  54.977  1.00  0.00    -0.354 N 
ATOM      7  H   UNL     1       4.343  47.669  54.483  1.00  0.00     0.163 HD
BRANCH   6   8
ATOM      8  C   UNL     1       6.035  46.786  54.192  1.00  0.00     0.226 A 
ATOM      9  N   UNL     1       5.782  46.318  52.956  1.00  0.00    -0.195 NA
ATOM     10  N   UNL     1       7.247  47.062  54.696  1.00  0.00    -0.193 NA
ATOM     11  C   UNL     1       6.804  46.077  52.098  1.00  0.00     0.147 A 
ATOM     12  C   UNL     1       8.236  46.843  53.817  1.00  0.00     0.165 A 
ATOM     13  C   UNL     1       8.101  46.365  52.528  1.00  0.00     0.082 A 
ATOM     14  N   UNL     1       9.576  47.052  54.001  1.00  0.00    -0.250 N 
ATOM     15  C   UNL     1       9.417  46.336  52.024  1.00  0.00     0.149 A 
ATOM     16  N   UNL     1      10.327  46.751  52.915  1.00  0.00    -0.179 NA
ATOM     17  C   UNL     1      10.218  47.552  55.190  1.00  0.00     0.176 C 
BRANCH  11  18
ATOM     18  N   UNL     1       6.464  45.610  50.817  1.00  0.00    -0.337 N 
ATOM     19  H   UNL     1       5.752  46.253  50.474  1.00  0.00     0.168 HD
BRANCH  18  20
ATOM     20  C   UNL     1       6.134  44.281  50.463  1.00  0.00     0.076 A 
ATOM     21  C   UNL     1       5.003  43.703  51.057  1.00  0.00     0.029 A 
ATOM     22  C   UNL     1       6.934  43.465  49.648  1.00  0.00     0.146 A 
ATOM     23  C   UNL     1       4.651  42.375  50.795  1.00  0.00     0.002 A 
ATOM     24  C   UNL     1       6.590  42.140  49.383  1.00  0.00     0.041 A 
ATOM     25  C   UNL     1       5.443  41.595  49.953  1.00  0.00     0.003 A 
ATOM     26  F   UNL     1       8.070  43.938  49.115  1.00  0.00    -0.205 F 
ENDBRANCH  18  20
ENDBRANCH  11  18
ENDBRANCH   6   8
ENDBRANCH   1   6
TORSDOF 7
ENDMDL
MODEL 2
REMARK VINA RESULT:    -8.322      2.406      5.146
REMARK INTER + INTRA:         -12.770
REMARK INTER:                 -11.509
REMARK INTRA:                  -1.261
REMARK UNBOUND:                -1.042
REMARK SMILES COCCCNc1nc(Nc2ccccc2F)c2cnn(C)c2n1
REMARK SMILES IDX 5 1 4 2 3 3 2 4 1 5 6 6 7 8 8 9 24 10 9 11 23 12 18 13 21 14
REMARK SMILES IDX 19 15 20 16 22 17 10 18 11 20 12 21 16 22 13 23 15 24 14 25
REMARK SMILES IDX 17 26
REMARK H PARENT 6 7 10 19
ROOT
ATOM      1  C   UNL     1       2.403  45.435  54.586  1.00  0.00     0.118 C 
ENDROOT
BRANCH   1   2
ATOM      2  C   UNL     1       0.935  45.349  54.991  1.00  0.00     0.050 C 
BRANCH   2   3
ATOM      3  C   UNL     1       0.107  44.652  53.919  1.00  0.00     0.161 C 
BRANCH   3   4
ATOM      4  O   UNL     1       0.339  45.310  52.674  1.00  0.00    -0.385 OA
ATOM      5  C   UNL     1       0.247  44.409  51.578  1.00  0.00     0.194 C 
ENDBRANCH   3   4
ENDBRANCH   2   3
ENDBRANCH   1   2
BRANCH   1   6
ATOM      6  N   UNL     1       2.846  44.143  54.095  1.00  0.00    -0.354 N 
ATOM      7  H   UNL     1       3.250  43.525  54.792  1.00  0.00     0.163 HD
BRANCH   6   8
ATOM      8  C   UNL     1       3.780  44.203  53.065  1.00  0.00     0.226 A 
ATOM      9  N   UNL     1       4.504  45.337  53.035  1.00  0.00    -0.195 NA
ATOM     10  N   UNL     1       3.889  43.177  52.208  1.00  0.00    -0.193 NA
ATOM     11  C   UNL     1       5.439  45.521  52.070  1.00  0.00     0.147 A 
ATOM     12  C   UNL     1       4.842  43.372  51.284  1.00  0.00     0.165 A 
ATOM     13  C   UNL     1       5.644  44.489  51.152  1.00  0.00     0.082 A 
ATOM     14  N   UNL     1       5.228  42.515  50.290  1.00  0.00    -0.250 N 
ATOM     15  C   UNL     1       6.481  44.195  50.058  1.00  0.00     0.149 A 
ATOM     16  N   UNL     1       6.235  42.992  49.521  1.00  0.00    -0.179 NA
ATOM     17  C   UNL     1       4.687  41.208  50.017  1.00  0.00     0.176 C 
BRANCH  11  18
ATOM     18  N   UNL     1       6.172  46.720  52.115  1.00  0.00    -0.337 N 
ATOM     19  H   UNL     1       6.118  47.106  51.173  1.00  0.00     0.168 HD
BRANCH  18  20
ATOM     20  C   UNL     1       7.472  46.896  52.643  1.00  0.00     0.076 A 
ATOM     21  C   UNL     1       8.561  46.737  51.775  1.00  0.00     0.029 A 
ATOM     22  C   UNL     1       7.743  47.101  54.004  1.00  0.00     0.146 A 
ATOM     23  C   UNL     1       9.875  46.841  52.243  1.00  0.00     0.002 A 
ATOM     24  C   UNL     1       9.050  47.206  54.478  1.00  0.00     0.041 A 
ATOM     25  C   UNL     1      10.119  47.081  53.594  1.00  0.00     0.003 A 
ATOM     26  F   UNL     1       6.744  47.183  54.895  1.00  0.00    -0.205 F 
ENDBRANCH  18  20
ENDBRANCH  11  18
ENDBRANCH   6   8
ENDBRANCH   1   6
TORSDOF 7
ENDMDL
MODEL 3
REMARK VINA RESULT:    -8.256      2.382      5.274
REMARK INTER + INTRA:         -12.676
REMARK INTER:                 -11.575
REMARK INTRA:                  -1.102
REMARK UNBOUND:                -1.042
REMARK SMILES COCCCNc1nc(Nc2ccccc2F)c2cnn(C)c2n1
REMARK SMILES IDX 5 1 4 2 3 3 2 4 1 5 6 6 7 8 8 9 24 10 9 11 23 12 18 13 21 14
REMARK SMILES IDX 19 15 20 16 22 17 10 18 11 20 12 21 16 22 13 23 15 24 14 25
REMARK SMILES IDX 17 26
REMARK H PARENT 6 7 10 19
ROOT
ATOM      1  C   UNL     1       1.733  43.534  52.699  1.00  0.00     0.118 C 
ENDROOT
BRANCH   1   2
ATOM      2  C   UNL     1       0.825  43.983  53.838  1.00  0.00     0.050 C 
BRANCH   2   3
ATOM      3  C   UNL     1       1.327  45.276  54.467  1.00  0.00     0.161 C 
BRANCH   3   4
ATOM      4  O   UNL     1       2.340  44.950  55.418  1.00  0.00    -0.385 OA
ATOM      5  C   UNL     1       3.308  45.985  55.531  1.00  0.00     0.194 C 
ENDBRANCH   3   4
ENDBRANCH   2   3
ENDBRANCH   1   2
BRANCH   1   6
ATOM      6  N   UNL     1       3.070  43.292  53.212  1.00  0.00    -0.354 N 
ATOM      7  H   UNL     1       3.302  43.774  54.075  1.00  0.00     0.163 HD
BRANCH   6   8
ATOM      8  C   UNL     1       4.097  43.600  52.325  1.00  0.00     0.226 A 
ATOM      9  N   UNL     1       4.656  44.809  52.519  1.00  0.00    -0.195 NA
ATOM     10  N   UNL     1       4.443  42.716  51.378  1.00  0.00    -0.193 NA
ATOM     11  C   UNL     1       5.660  45.231  51.711  1.00  0.00     0.147 A 
ATOM     12  C   UNL     1       5.459  43.146  50.614  1.00  0.00     0.165 A 
ATOM     13  C   UNL     1       6.108  44.360  50.715  1.00  0.00     0.082 A 
ATOM     14  N   UNL     1       6.069  42.479  49.586  1.00  0.00    -0.250 N 
ATOM     15  C   UNL     1       7.097  44.316  49.712  1.00  0.00     0.149 A 
ATOM     16  N   UNL     1       7.081  43.173  49.014  1.00  0.00    -0.179 NA
ATOM     17  C   UNL     1       5.748  41.162  49.098  1.00  0.00     0.176 C 
BRANCH  11  18
ATOM     18  N   UNL     1       6.211  46.495  51.987  1.00  0.00    -0.337 N 
ATOM     19  H   UNL     1       6.136  47.019  51.116  1.00  0.00     0.168 HD
BRANCH  18  20
ATOM     20  C   UNL     1       7.453  46.757  52.610  1.00  0.00     0.076 A 
ATOM     21  C   UNL     1       8.613  46.670  51.828  1.00  0.00     0.029 A 
ATOM     22  C   UNL     1       7.606  46.980  53.987  1.00  0.00     0.146 A 
ATOM     23  C   UNL     1       9.877  46.861  52.393  1.00  0.00     0.002 A 
ATOM     24  C   UNL     1       8.864  47.172  54.557  1.00  0.00     0.041 A 
ATOM     25  C   UNL     1      10.003  47.118  53.758  1.00  0.00     0.003 A 
ATOM     26  F   UNL     1       6.539  46.996  54.799  1.00  0.00    -0.205 F 
ENDBRANCH  18  20
ENDBRANCH  11  18
ENDBRANCH   6   8
ENDBRANCH   1   6
TORSDOF 7
ENDMDL
MODEL 4
REMARK VINA RESULT:    -8.241      2.588      5.358
REMARK INTER + INTRA:         -12.655
REMARK INTER:                 -11.631
REMARK INTRA:                  -1.024
REMARK UNBOUND:                -1.042
REMARK SMILES COCCCNc1nc(Nc2ccccc2F)c2cnn(C)c2n1
REMARK SMILES IDX 5 1 4 2 3 3 2 4 1 5 6 6 7 8 8 9 24 10 9 11 23 12 18 13 21 14
REMARK SMILES IDX 19 15 20 16 22 17 10 18 11 20 12 21 16 22 13 23 15 24 14 25
REMARK SMILES IDX 17 26
REMARK H PARENT 6 7 10 19
ROOT
ATOM      1  C   UNL     1       1.288  43.596  53.690  1.00  0.00     0.118 C 
ENDROOT
BRANCH   1   2
ATOM      2  C   UNL     1       0.158  44.091  54.586  1.00  0.00     0.050 C 
BRANCH   2   3
ATOM      3  C   UNL     1       0.556  45.361  55.327  1.00  0.00     0.161 C 
BRANCH   3   4
ATOM      4  O   UNL     1       0.860  45.016  56.678  1.00  0.00    -0.385 OA
ATOM      5  C   UNL     1       0.883  46.161  57.520  1.00  0.00     0.194 C 
ENDBRANCH   3   4
ENDBRANCH   2   3
ENDBRANCH   1   2
BRANCH   1   6
ATOM      6  N   UNL     1       2.536  44.217  54.099  1.00  0.00    -0.354 N 
ATOM      7  H   UNL     1       2.460  45.169  54.442  1.00  0.00     0.163 HD
BRANCH   6   8
ATOM      8  C   UNL     1       3.516  44.253  53.111  1.00  0.00     0.226 A 
ATOM      9  N   UNL     1       4.238  45.389  53.085  1.00  0.00    -0.195 NA
ATOM     10  N   UNL     1       3.668  43.205  52.289  1.00  0.00    -0.193 NA
ATOM     11  C   UNL     1       5.216  45.550  52.160  1.00  0.00     0.147 A 
ATOM     12  C   UNL     1       4.662  43.379  51.405  1.00  0.00     0.165 A 
ATOM     13  C   UNL     1       5.466  44.495  51.281  1.00  0.00     0.082 A 
ATOM     14  N   UNL     1       5.096  42.497  50.453  1.00  0.00    -0.250 N 
ATOM     15  C   UNL     1       6.355  44.174  50.235  1.00  0.00     0.149 A 
ATOM     16  N   UNL     1       6.137  42.957  49.720  1.00  0.00    -0.179 NA
ATOM     17  C   UNL     1       4.572  41.180  50.191  1.00  0.00     0.176 C 
BRANCH  11  18
ATOM     18  N   UNL     1       5.943  46.753  52.206  1.00  0.00    -0.337 N 
ATOM     19  H   UNL     1       5.818  47.181  51.290  1.00  0.00     0.168 HD
BRANCH  18  20
ATOM     20  C   UNL     1       7.278  46.916  52.644  1.00  0.00     0.076 A 
ATOM     21  C   UNL     1       8.296  46.883  51.681  1.00  0.00     0.029 A 
ATOM     22  C   UNL     1       7.655  46.989  53.994  1.00  0.00     0.146 A 
ATOM     23  C   UNL     1       9.640  46.982  52.051  1.00  0.00     0.002 A 
ATOM     24  C   UNL     1       8.995  47.089  54.370  1.00  0.00     0.041 A 
ATOM     25  C   UNL     1       9.990  47.090  53.396  1.00  0.00     0.003 A 
ATOM     26  F   UNL     1       6.732  46.947  54.965  1.00  0.00    -0.205 F 
ENDBRANCH  18  20
ENDBRANCH  11  18
ENDBRANCH   6   8
ENDBRANCH   1   6
TORSDOF 7
ENDMDL
MODEL 5
REMARK VINA RESULT:    -8.099      2.227      5.101
REMARK INTER + INTRA:         -12.456
REMARK INTER:                 -11.295
REMARK INTRA:                  -1.161
REMARK UNBOUND:                -1.042
REMARK SMILES COCCCNc1nc(Nc2ccccc2F)c2cnn(C)c2n1
REMARK SMILES IDX 5 1 4 2 3 3 2 4 1 5 6 6 7 8 8 9 24 10 9 11 23 12 18 13 21 14
REMARK SMILES IDX 19 15 20 16 22 17 10 18 11 20 12 21 16 22 13 23 15 24 14 25
REMARK SMILES IDX 17 26
REMARK H PARENT 6 7 10 19
ROOT
ATOM      1  C   UNL     1       1.862  45.450  53.873  1.00  0.00     0.118 C 
ENDROOT
BRANCH   1   2
ATOM      2  C   UNL     1       0.771  45.164  54.899  1.00  0.00     0.050 C 
BRANCH   2   3
ATOM      3  C   UNL     1      -0.146  44.041  54.431  1.00  0.00     0.161 C 
BRANCH   3   4
ATOM      4  O   UNL     1       0.661  43.005  53.872  1.00  0.00    -0.385 OA
ATOM      5  C   UNL     1       0.015  42.368  52.778  1.00  0.00     0.194 C 
ENDBRANCH   3   4
ENDBRANCH   2   3
ENDBRANCH   1   2
BRANCH   1   6
ATOM      6  N   UNL     1       3.018  44.616  54.151  1.00  0.00    -0.354 N 
ATOM      7  H   UNL     1       3.587  44.906  54.940  1.00  0.00     0.163 HD
BRANCH   6   8
ATOM      8  C   UNL     1       3.901  44.475  53.085  1.00  0.00     0.226 A 
ATOM      9  N   UNL     1       4.768  45.496  52.941  1.00  0.00    -0.195 NA
ATOM     10  N   UNL     1       3.834  43.386  52.306  1.00  0.00    -0.193 NA
ATOM     11  C   UNL     1       5.673  45.482  51.932  1.00  0.00     0.147 A 
ATOM     12  C   UNL     1       4.759  43.383  51.336  1.00  0.00     0.165 A 
ATOM     13  C   UNL     1       5.695  44.369  51.089  1.00  0.00     0.082 A 
ATOM     14  N   UNL     1       4.981  42.413  50.397  1.00  0.00    -0.250 N 
ATOM     15  C   UNL     1       6.434  43.886  49.990  1.00  0.00     0.149 A 
ATOM     16  N   UNL     1       6.005  42.693  49.557  1.00  0.00    -0.179 NA
ATOM     17  C   UNL     1       4.259  41.175  50.245  1.00  0.00     0.176 C 
BRANCH  11  18
ATOM     18  N   UNL     1       6.559  46.570  51.856  1.00  0.00    -0.337 N 
ATOM     19  H   UNL     1       6.671  46.761  50.862  1.00  0.00     0.168 HD
BRANCH  18  20
ATOM     20  C   UNL     1       7.802  46.694  52.521  1.00  0.00     0.076 A 
ATOM     21  C   UNL     1       7.828  47.378  53.745  1.00  0.00     0.029 A 
ATOM     22  C   UNL     1       9.027  46.282  51.974  1.00  0.00     0.146 A 
ATOM     23  C   UNL     1       9.030  47.586  54.427  1.00  0.00     0.002 A 
ATOM     24  C   UNL     1      10.229  46.485  52.650  1.00  0.00     0.041 A 
ATOM     25  C   UNL     1      10.231  47.135  53.881  1.00  0.00     0.003 A 
ATOM     26  F   UNL     1       9.074  45.693  50.771  1.00  0.00    -0.205 F 
ENDBRANCH  18  20
ENDBRANCH  11  18
ENDBRANCH   6   8
ENDBRANCH   1   6
TORSDOF 7
ENDMDL
MODEL 6
REMARK VINA RESULT:    -8.088      2.362      5.280
REMARK INTER + INTRA:         -12.440
REMARK INTER:                 -11.296
REMARK INTRA:                  -1.144
REMARK UNBOUND:                -1.042
REMARK SMILES COCCCNc1nc(Nc2ccccc2F)c2cnn(C)c2n1
REMARK SMILES IDX 5 1 4 2 3 3 2 4 1 5 6 6 7 8 8 9 24 10 9 11 23 12 18 13 21 14
REMARK SMILES IDX 19 15 20 16 22 17 10 18 11 20 12 21 16 22 13 23 15 24 14 25
REMARK SMILES IDX 17 26
REMARK H PARENT 6 7 10 19
ROOT
ATOM      1  C   UNL     1       2.230  44.646  53.599  1.00  0.00     0.118 C 
ENDROOT
BRANCH   1   2
ATOM      2  C   UNL     1       2.211  45.253  54.997  1.00  0.00     0.050 C 
BRANCH   2   3
ATOM      3  C   UNL     1       3.542  45.917  55.329  1.00  0.00     0.161 C 
BRANCH   3   4
ATOM      4  O   UNL     1       4.555  44.912  55.336  1.00  0.00    -0.385 OA
ATOM      5  C   UNL     1       5.844  45.465  55.106  1.00  0.00     0.194 C 
ENDBRANCH   3   4
ENDBRANCH   2   3
ENDBRANCH   1   2
BRANCH   1   6
ATOM      6  N   UNL     1       2.921  45.545  52.690  1.00  0.00    -0.354 N 
ATOM      7  H   UNL     1       2.327  46.057  52.046  1.00  0.00     0.163 HD
BRANCH   6   8
ATOM      8  C   UNL     1       3.892  44.937  51.900  1.00  0.00     0.226 A 
ATOM      9  N   UNL     1       4.952  45.719  51.622  1.00  0.00    -0.195 NA
ATOM     10  N   UNL     1       3.716  43.674  51.486  1.00  0.00    -0.193 NA
ATOM     11  C   UNL     1       5.962  45.245  50.851  1.00  0.00     0.147 A 
ATOM     12  C   UNL     1       4.743  43.221  50.751  1.00  0.00     0.165 A 
ATOM     13  C   UNL     1       5.877  43.926  50.400  1.00  0.00     0.082 A 
ATOM     14  N   UNL     1       4.892  41.976  50.205  1.00  0.00    -0.250 N 
ATOM     15  C   UNL     1       6.645  43.009  49.655  1.00  0.00     0.149 A 
ATOM     16  N   UNL     1       6.053  41.815  49.527  1.00  0.00    -0.179 NA
ATOM     17  C   UNL     1       3.968  40.873  50.300  1.00  0.00     0.176 C 
BRANCH  11  18
ATOM     18  N   UNL     1       7.046  46.110  50.620  1.00  0.00    -0.337 N 
ATOM     19  H   UNL     1       7.499  45.758  49.778  1.00  0.00     0.168 HD
BRANCH  18  20
ATOM     20  C   UNL     1       8.017  46.517  51.564  1.00  0.00     0.076 A 
ATOM     21  C   UNL     1       9.284  45.921  51.503  1.00  0.00     0.029 A 
ATOM     22  C   UNL     1       7.754  47.391  52.630  1.00  0.00     0.146 A 
ATOM     23  C   UNL     1      10.273  46.236  52.441  1.00  0.00     0.002 A 
ATOM     24  C   UNL     1       8.735  47.710  53.568  1.00  0.00     0.041 A 
ATOM     25  C   UNL     1       9.999  47.135  53.471  1.00  0.00     0.003 A 
ATOM     26  F   UNL     1       6.536  47.931  52.786  1.00  0.00    -0.205 F 
ENDBRANCH  18  20
ENDBRANCH  11  18
ENDBRANCH   6   8
ENDBRANCH   1   6
TORSDOF 7
ENDMDL
MODEL 7
REMARK VINA RESULT:    -8.000      1.259      1.579
REMARK INTER + INTRA:         -12.316
REMARK INTER:                 -11.078
REMARK INTRA:                  -1.238
REMARK UNBOUND:                -1.042
REMARK SMILES COCCCNc1nc(Nc2ccccc2F)c2cnn(C)c2n1
REMARK SMILES IDX 5 1 4 2 3 3 2 4 1 5 6 6 7 8 8 9 24 10 9 11 23 12 18 13 21 14
REMARK SMILES IDX 19 15 20 16 22 17 10 18 11 20 12 21 16 22 13 23 15 24 14 25
REMARK SMILES IDX 17 26
REMARK H PARENT 6 7 10 19
ROOT
ATOM      1  C   UNL     1       3.710  45.535  55.437  1.00  0.00     0.118 C 
ENDROOT
BRANCH   1   2
ATOM      2  C   UNL     1       2.203  45.701  55.594  1.00  0.00     0.050 C 
BRANCH   2   3
ATOM      3  C   UNL     1       1.463  45.228  54.349  1.00  0.00     0.161 C 
BRANCH   3   4
ATOM      4  O   UNL     1       1.780  46.111  53.275  1.00  0.00    -0.385 OA
ATOM      5  C   UNL     1       1.393  45.571  52.018  1.00  0.00     0.194 C 
ENDBRANCH   3   4
ENDBRANCH   2   3
ENDBRANCH   1   2
BRANCH   1   6
ATOM      6  N   UNL     1       4.305  46.816  55.097  1.00  0.00    -0.354 N 
ATOM      7  H   UNL     1       3.681  47.486  54.660  1.00  0.00     0.163 HD
BRANCH   6   8
ATOM      8  C   UNL     1       5.413  46.736  54.258  1.00  0.00     0.226 A 
ATOM      9  N   UNL     1       5.162  46.188  53.055  1.00  0.00    -0.195 NA
ATOM     10  N   UNL     1       6.602  47.186  54.684  1.00  0.00    -0.193 NA
ATOM     11  C   UNL     1       6.163  46.044  52.151  1.00  0.00     0.147 A 
ATOM     12  C   UNL     1       7.566  47.060  53.760  1.00  0.00     0.165 A 
ATOM     13  C   UNL     1       7.430  46.515  52.499  1.00  0.00     0.082 A 
ATOM     14  N   UNL     1       8.875  47.447  53.862  1.00  0.00    -0.250 N 
ATOM     15  C   UNL     1       8.711  46.634  51.924  1.00  0.00     0.149 A 
ATOM     16  N   UNL     1       9.603  47.200  52.748  1.00  0.00    -0.179 NA
ATOM     17  C   UNL     1       9.505  48.076  54.995  1.00  0.00     0.176 C 
BRANCH  11  18
ATOM     18  N   UNL     1       5.822  45.483  50.908  1.00  0.00    -0.337 N 
ATOM     19  H   UNL     1       4.896  45.847  50.691  1.00  0.00     0.168 HD
BRANCH  18  20
ATOM     20  C   UNL     1       5.909  44.119  50.545  1.00  0.00     0.076 A 
ATOM     21  C   UNL     1       6.907  43.743  49.635  1.00  0.00     0.029 A 
ATOM     22  C   UNL     1       4.986  43.141  50.946  1.00  0.00     0.146 A 
ATOM     23  C   UNL     1       7.014  42.422  49.190  1.00  0.00     0.002 A 
ATOM     24  C   UNL     1       5.087  41.822  50.506  1.00  0.00     0.041 A 
ATOM     25  C   UNL     1       6.106  41.459  49.630  1.00  0.00     0.003 A 
ATOM     26  F   UNL     1       3.963  43.458  51.753  1.00  0.00    -0.205 F 
ENDBRANCH  18  20
ENDBRANCH  11  18
ENDBRANCH   6   8
ENDBRANCH   1   6
TORSDOF 7
ENDMDL
MODEL 8
REMARK VINA RESULT:    -7.865      2.311      5.189
REMARK INTER + INTRA:         -12.126
REMARK INTER:                 -11.335
REMARK INTRA:                  -0.791
REMARK UNBOUND:                -1.042
REMARK SMILES COCCCNc1nc(Nc2ccccc2F)c2cnn(C)c2n1
REMARK SMILES IDX 5 1 4 2 3 3 2 4 1 5 6 6 7 8 8 9 24 10 9 11 23 12 18 13 21 14
REMARK SMILES IDX 19 15 20 16 22 17 10 18 11 20 12 21 16 22 13 23 15 24 14 25
REMARK SMILES IDX 17 26
REMARK H PARENT 6 7 10 19
ROOT
ATOM      1  C   UNL     1       1.256  44.615  54.464  1.00  0.00     0.118 C 
ENDROOT
BRANCH   1   2
ATOM      2  C   UNL     1       0.371  45.259  55.526  1.00  0.00     0.050 C 
BRANCH   2   3
ATOM      3  C   UNL     1       1.130  45.454  56.832  1.00  0.00     0.161 C 
BRANCH   3   4
ATOM      4  O   UNL     1       0.223  45.967  57.807  1.00  0.00    -0.385 OA
ATOM      5  C   UNL     1      -0.858  46.665  57.203  1.00  0.00     0.194 C 
ENDBRANCH   3   4
ENDBRANCH   2   3
ENDBRANCH   1   2
BRANCH   1   6
ATOM      6  N   UNL     1       2.652  44.835  54.799  1.00  0.00    -0.354 N 
ATOM      7  H   UNL     1       2.860  45.723  55.244  1.00  0.00     0.163 HD
BRANCH   6   8
ATOM      8  C   UNL     1       3.528  44.742  53.722  1.00  0.00     0.226 A 
ATOM      9  N   UNL     1       4.383  45.776  53.609  1.00  0.00    -0.195 NA
ATOM     10  N   UNL     1       3.466  43.681  52.905  1.00  0.00    -0.193 NA
ATOM     11  C   UNL     1       5.280  45.808  52.593  1.00  0.00     0.147 A 
ATOM     12  C   UNL     1       4.384  43.723  51.928  1.00  0.00     0.165 A 
ATOM     13  C   UNL     1       5.307  44.726  51.710  1.00  0.00     0.082 A 
ATOM     14  N   UNL     1       4.607  42.789  50.953  1.00  0.00    -0.250 N 
ATOM     15  C   UNL     1       6.042  44.291  50.589  1.00  0.00     0.149 A 
ATOM     16  N   UNL     1       5.622  43.110  50.116  1.00  0.00    -0.179 NA
ATOM     17  C   UNL     1       3.897  41.550  50.763  1.00  0.00     0.176 C 
BRANCH  11  18
ATOM     18  N   UNL     1       6.155  46.908  52.550  1.00  0.00    -0.337 N 
ATOM     19  H   UNL     1       6.012  47.333  51.635  1.00  0.00     0.168 HD
BRANCH  18  20
ATOM     20  C   UNL     1       7.530  46.905  52.879  1.00  0.00     0.076 A 
ATOM     21  C   UNL     1       7.892  47.214  54.198  1.00  0.00     0.029 A 
ATOM     22  C   UNL     1       8.559  46.731  51.941  1.00  0.00     0.146 A 
ATOM     23  C   UNL     1       9.235  47.285  54.578  1.00  0.00     0.002 A 
ATOM     24  C   UNL     1       9.902  46.800  52.313  1.00  0.00     0.041 A 
ATOM     25  C   UNL     1      10.241  47.073  53.636  1.00  0.00     0.003 A 
ATOM     26  F   UNL     1       8.276  46.511  50.649  1.00  0.00    -0.205 F 
ENDBRANCH  18  20
ENDBRANCH  11  18
ENDBRANCH   6   8
ENDBRANCH   1   6
TORSDOF 7
ENDMDL
MODEL 9
REMARK VINA RESULT:    -7.846      3.241      6.784
REMARK INTER + INTRA:         -12.099
REMARK INTER:                 -11.311
REMARK INTRA:                  -0.787
REMARK UNBOUND:                -1.042
REMARK SMILES COCCCNc1nc(Nc2ccccc2F)c2cnn(C)c2n1
REMARK SMILES IDX 5 1 4 2 3 3 2 4 1 5 6 6 7 8 8 9 24 10 9 11 23 12 18 13 21 14
REMARK SMILES IDX 19 15 20 16 22 17 10 18 11 20 12 21 16 22 13 23 15 24 14 25
REMARK SMILES IDX 17 26
REMARK H PARENT 6 7 10 19
ROOT
ATOM      1  C   UNL     1       5.408  41.265  48.237  1.00  0.00     0.118 C 
ENDROOT
BRANCH   1   2
ATOM      2  C   UNL     1       5.788  41.930  46.919  1.00  0.00     0.050 C 
BRANCH   2   3
ATOM      3  C   UNL     1       4.917  41.426  45.776  1.00  0.00     0.161 C 
BRANCH   3   4
ATOM      4  O   UNL     1       3.764  40.797  46.332  1.00  0.00    -0.385 OA
ATOM      5  C   UNL     1       2.714  40.687  45.381  1.00  0.00     0.194 C 
ENDBRANCH   3   4
ENDBRANCH   2   3
ENDBRANCH   1   2
BRANCH   1   6
ATOM      6  N   UNL     1       6.324  41.696  49.278  1.00  0.00    -0.354 N 
ATOM      7  H   UNL     1       6.646  40.968  49.908  1.00  0.00     0.163 HD
BRANCH   6   8
ATOM      8  C   UNL     1       5.834  42.709  50.098  1.00  0.00     0.226 A 
ATOM      9  N   UNL     1       6.563  43.840  50.082  1.00  0.00    -0.195 NA
ATOM     10  N   UNL     1       4.723  42.500  50.819  1.00  0.00    -0.193 NA
ATOM     11  C   UNL     1       6.195  44.897  50.848  1.00  0.00     0.147 A 
ATOM     12  C   UNL     1       4.365  43.571  51.543  1.00  0.00     0.165 A 
ATOM     13  C   UNL     1       5.030  44.779  51.608  1.00  0.00     0.082 A 
ATOM     14  N   UNL     1       3.273  43.700  52.357  1.00  0.00    -0.250 N 
ATOM     15  C   UNL     1       4.248  45.566  52.478  1.00  0.00     0.149 A 
ATOM     16  N   UNL     1       3.173  44.916  52.943  1.00  0.00    -0.179 NA
ATOM     17  C   UNL     1       2.264  42.704  52.616  1.00  0.00     0.176 C 
BRANCH  11  18
ATOM     18  N   UNL     1       6.992  46.053  50.763  1.00  0.00    -0.337 N 
ATOM     19  H   UNL     1       7.402  46.032  49.830  1.00  0.00     0.168 HD
BRANCH  18  20
ATOM     20  C   UNL     1       7.948  46.490  51.709  1.00  0.00     0.076 A 
ATOM     21  C   UNL     1       9.267  46.037  51.568  1.00  0.00     0.029 A 
ATOM     22  C   UNL     1       7.634  47.250  52.845  1.00  0.00     0.146 A 
ATOM     23  C   UNL     1      10.250  46.384  52.499  1.00  0.00     0.002 A 
ATOM     24  C   UNL     1       8.610  47.601  53.778  1.00  0.00     0.041 A 
ATOM     25  C   UNL     1       9.923  47.172  53.602  1.00  0.00     0.003 A 
ATOM     26  F   UNL     1       6.374  47.647  53.075  1.00  0.00    -0.205 F 
ENDBRANCH  18  20
ENDBRANCH  11  18
ENDBRANCH   6   8
ENDBRANCH   1   6
TORSDOF 7
ENDMDL
MODEL 10
REMARK VINA RESULT:    -7.841      2.853      6.232
REMARK INTER + INTRA:         -12.092
REMARK INTER:                 -11.269
REMARK INTRA:                  -0.823
REMARK UNBOUND:                -1.042
REMARK SMILES COCCCNc1nc(Nc2ccccc2F)c2cnn(C)c2n1
REMARK SMILES IDX 5 1 4 2 3 3 2 4 1 5 6 6 7 8 8 9 24 10 9 11 23 12 18 13 21 14
REMARK SMILES IDX 19 15 20 16 22 17 10 18 11 20 12 21 16 22 13 23 15 24 14 25
REMARK SMILES IDX 17 26
REMARK H PARENT 6 7 10 19
ROOT
ATOM      1  C   UNL     1       5.745  41.626  49.943  1.00  0.00     0.118 C 
ENDROOT
BRANCH   1   2
ATOM      2  C   UNL     1       5.136  41.208  48.609  1.00  0.00     0.050 C 
BRANCH   2   3
ATOM      3  C   UNL     1       3.827  40.457  48.811  1.00  0.00     0.161 C 
BRANCH   3   4
ATOM      4  O   UNL     1       3.139  40.409  47.562  1.00  0.00    -0.385 OA
ATOM      5  C   UNL     1       3.062  39.084  47.055  1.00  0.00     0.194 C 
ENDBRANCH   3   4
ENDBRANCH   2   3
ENDBRANCH   1   2
BRANCH   1   6
ATOM      6  N   UNL     1       4.684  41.862  50.906  1.00  0.00    -0.354 N 
ATOM      7  H   UNL     1       3.769  41.508  50.645  1.00  0.00     0.163 HD
BRANCH   6   8
ATOM      8  C   UNL     1       4.486  43.199  51.236  1.00  0.00     0.226 A 
ATOM      9  N   UNL     1       5.517  44.007  50.925  1.00  0.00    -0.195 NA
ATOM     10  N   UNL     1       3.338  43.578  51.816  1.00  0.00    -0.193 NA
ATOM     11  C   UNL     1       5.451  45.332  51.207  1.00  0.00     0.147 A 
ATOM     12  C   UNL     1       3.287  44.897  52.055  1.00  0.00     0.165 A 
ATOM     13  C   UNL     1       4.277  45.820  51.784  1.00  0.00     0.082 A 
ATOM     14  N   UNL     1       2.253  45.605  52.604  1.00  0.00    -0.250 N 
ATOM     15  C   UNL     1       3.732  47.052  52.197  1.00  0.00     0.149 A 
ATOM     16  N   UNL     1       2.497  46.933  52.702  1.00  0.00    -0.179 NA
ATOM     17  C   UNL     1       0.987  45.082  53.050  1.00  0.00     0.176 C 
BRANCH  11  18
ATOM     18  N   UNL     1       6.556  46.118  50.835  1.00  0.00    -0.337 N 
ATOM     19  H   UNL     1       6.823  45.789  49.908  1.00  0.00     0.168 HD
BRANCH  18  20
ATOM     20  C   UNL     1       7.708  46.377  51.613  1.00  0.00     0.076 A 
ATOM     21  C   UNL     1       7.618  47.349  52.619  1.00  0.00     0.029 A 
ATOM     22  C   UNL     1       8.966  45.808  51.363  1.00  0.00     0.146 A 
ATOM     23  C   UNL     1       8.733  47.695  53.388  1.00  0.00     0.002 A 
ATOM     24  C   UNL     1      10.083  46.148  52.126  1.00  0.00     0.041 A 
ATOM     25  C   UNL     1       9.965  47.090  53.145  1.00  0.00     0.003 A 
ATOM     26  F   UNL     1       9.132  44.930  50.363  1.00  0.00    -0.205 F 
ENDBRANCH  18  20
ENDBRANCH  11  18
ENDBRANCH   6   8
ENDBRANCH   1   6
TORSDOF 7
ENDMDL
MODEL 11
REMARK VINA RESULT:    -7.776      2.875      6.377
REMARK INTER + INTRA:         -12.000
REMARK INTER:                 -10.828
REMARK INTRA:                  -1.173
REMARK UNBOUND:                -1.042
REMARK SMILES COCCCNc1nc(Nc2ccccc2F)c2cnn(C)c2n1
REMARK SMILES IDX 5 1 4 2 3 3 2 4 1 5 6 6 7 8 8 9 24 10 9 11 23 12 18 13 21 14
REMARK SMILES IDX 19 15 20 16 22 17 10 18 11 20 12 21 16 22 13 23 15 24 14 25
REMARK SMILES IDX 17 26
REMARK H PARENT 6 7 10 19
ROOT
ATOM      1  C   UNL     1       4.822  41.823  50.210  1.00  0.00     0.118 C 
ENDROOT
BRANCH   1   2
ATOM      2  C   UNL     1       5.763  41.504  49.054  1.00  0.00     0.050 C 
BRANCH   2   3
ATOM      3  C   UNL     1       6.525  42.743  48.604  1.00  0.00     0.161 C 
BRANCH   3   4
ATOM      4  O   UNL     1       7.738  42.821  49.352  1.00  0.00    -0.385 OA
ATOM      5  C   UNL     1       8.351  44.098  49.229  1.00  0.00     0.194 C 
ENDBRANCH   3   4
ENDBRANCH   2   3
ENDBRANCH   1   2
BRANCH   1   6
ATOM      6  N   UNL     1       5.536  42.584  51.220  1.00  0.00    -0.354 N 
ATOM      7  H   UNL     1       5.705  42.099  52.096  1.00  0.00     0.163 HD
BRANCH   6   8
ATOM      8  C   UNL     1       4.936  43.790  51.570  1.00  0.00     0.226 A 
ATOM      9  N   UNL     1       5.782  44.835  51.633  1.00  0.00    -0.195 NA
ATOM     10  N   UNL     1       3.618  43.829  51.813  1.00  0.00    -0.193 NA
ATOM     11  C   UNL     1       5.320  46.063  51.976  1.00  0.00     0.147 A 
ATOM     12  C   UNL     1       3.183  45.061  52.118  1.00  0.00     0.165 A 
ATOM     13  C   UNL     1       3.952  46.204  52.216  1.00  0.00     0.082 A 
ATOM     14  N   UNL     1       1.899  45.449  52.389  1.00  0.00    -0.250 N 
ATOM     15  C   UNL     1       3.031  47.221  52.536  1.00  0.00     0.149 A 
ATOM     16  N   UNL     1       1.774  46.772  52.647  1.00  0.00    -0.179 NA
ATOM     17  C   UNL     1       0.728  44.610  52.406  1.00  0.00     0.176 C 
BRANCH  11  18
ATOM     18  N   UNL     1       6.257  47.111  52.000  1.00  0.00    -0.337 N 
ATOM     19  H   UNL     1       6.295  47.464  51.045  1.00  0.00     0.168 HD
BRANCH  18  20
ATOM     20  C   UNL     1       7.556  47.070  52.559  1.00  0.00     0.076 A 
ATOM     21  C   UNL     1       8.641  46.904  51.688  1.00  0.00     0.029 A 
ATOM     22  C   UNL     1       7.815  47.063  53.938  1.00  0.00     0.146 A 
ATOM     23  C   UNL     1       9.947  46.798  52.177  1.00  0.00     0.002 A 
ATOM     24  C   UNL     1       9.115  46.959  54.433  1.00  0.00     0.041 A 
ATOM     25  C   UNL     1      10.184  46.831  53.550  1.00  0.00     0.003 A 
ATOM     26  F   UNL     1       6.810  47.140  54.822  1.00  0.00    -0.205 F 
ENDBRANCH  18  20
ENDBRANCH  11  18
ENDBRANCH   6   8
ENDBRANCH   1   6
TORSDOF 7
ENDMDL
MODEL 12
REMARK VINA RESULT:    -7.765      2.323      5.806
REMARK INTER + INTRA:         -11.985
REMARK INTER:                 -10.818
REMARK INTRA:                  -1.167
REMARK UNBOUND:                -1.042
REMARK SMILES COCCCNc1nc(Nc2ccccc2F)c2cnn(C)c2n1
REMARK SMILES IDX 5 1 4 2 3 3 2 4 1 5 6 6 7 8 8 9 24 10 9 11 23 12 18 13 21 14
REMARK SMILES IDX 19 15 20 16 22 17 10 18 11 20 12 21 16 22 13 23 15 24 14 25
REMARK SMILES IDX 17 26
REMARK H PARENT 6 7 10 19
ROOT
ATOM      1  C   UNL     1       4.222  41.893  51.202  1.00  0.00     0.118 C 
ENDROOT
BRANCH   1   2
ATOM      2  C   UNL     1       4.755  41.180  49.964  1.00  0.00     0.050 C 
BRANCH   2   3
ATOM      3  C   UNL     1       6.211  41.540  49.703  1.00  0.00     0.161 C 
BRANCH   3   4
ATOM      4  O   UNL     1       6.284  42.935  49.410  1.00  0.00    -0.385 OA
ATOM      5  C   UNL     1       7.626  43.364  49.223  1.00  0.00     0.194 C 
ENDBRANCH   3   4
ENDBRANCH   2   3
ENDBRANCH   1   2
BRANCH   1   6
ATOM      6  N   UNL     1       3.810  43.239  50.844  1.00  0.00    -0.354 N 
ATOM      7  H   UNL     1       4.290  43.647  50.048  1.00  0.00     0.163 HD
BRANCH   6   8
ATOM      8  C   UNL     1       3.927  44.173  51.869  1.00  0.00     0.226 A 
ATOM      9  N   UNL     1       4.884  45.099  51.672  1.00  0.00    -0.195 NA
ATOM     10  N   UNL     1       3.119  44.092  52.937  1.00  0.00    -0.193 NA
ATOM     11  C   UNL     1       5.104  46.058  52.605  1.00  0.00     0.147 A 
ATOM     12  C   UNL     1       3.338  45.070  53.828  1.00  0.00     0.165 A 
ATOM     13  C   UNL     1       4.287  46.069  53.737  1.00  0.00     0.082 A 
ATOM     14  N   UNL     1       2.671  45.292  55.002  1.00  0.00    -0.250 N 
ATOM     15  C   UNL     1       4.096  46.843  54.900  1.00  0.00     0.149 A 
ATOM     16  N   UNL     1       3.114  46.376  55.682  1.00  0.00    -0.179 NA
ATOM     17  C   UNL     1       1.583  44.515  55.540  1.00  0.00     0.176 C 
BRANCH  11  18
ATOM     18  N   UNL     1       6.104  47.004  52.321  1.00  0.00    -0.337 N 
ATOM     19  H   UNL     1       5.990  47.233  51.335  1.00  0.00     0.168 HD
BRANCH  18  20
ATOM     20  C   UNL     1       7.477  46.904  52.645  1.00  0.00     0.076 A 
ATOM     21  C   UNL     1       7.882  47.304  53.926  1.00  0.00     0.029 A 
ATOM     22  C   UNL     1       8.474  46.542  51.726  1.00  0.00     0.146 A 
ATOM     23  C   UNL     1       9.231  47.284  54.294  1.00  0.00     0.002 A 
ATOM     24  C   UNL     1       9.821  46.519  52.086  1.00  0.00     0.041 A 
ATOM     25  C   UNL     1      10.201  46.886  53.374  1.00  0.00     0.003 A 
ATOM     26  F   UNL     1       8.156  46.225  50.463  1.00  0.00    -0.205 F 
ENDBRANCH  18  20
ENDBRANCH  11  18
ENDBRANCH   6   8
ENDBRANCH   1   6
TORSDOF 7
ENDMDL
MODEL 13
REMARK VINA RESULT:    -7.762      3.016      6.421
REMARK INTER + INTRA:         -11.981
REMARK INTER:                 -11.168
REMARK INTRA:                  -0.813
REMARK UNBOUND:                -1.042
REMARK SMILES COCCCNc1nc(Nc2ccccc2F)c2cnn(C)c2n1
REMARK SMILES IDX 5 1 4 2 3 3 2 4 1 5 6 6 7 8 8 9 24 10 9 11 23 12 18 13 21 14
REMARK SMILES IDX 19 15 20 16 22 17 10 18 11 20 12 21 16 22 13 23 15 24 14 25
REMARK SMILES IDX 17 26
REMARK H PARENT 6 7 10 19
ROOT
ATOM      1  C   UNL     1       5.843  42.048  49.624  1.00  0.00     0.118 C 
ENDROOT
BRANCH   1   2
ATOM      2  C   UNL     1       5.135  41.146  48.619  1.00  0.00     0.050 C 
BRANCH   2   3
ATOM      3  C   UNL     1       3.805  40.646  49.167  1.00  0.00     0.161 C 
BRANCH   3   4
ATOM      4  O   UNL     1       3.171  39.858  48.160  1.00  0.00    -0.385 OA
ATOM      5  C   UNL     1       3.475  40.330  46.855  1.00  0.00     0.194 C 
ENDBRANCH   3   4
ENDBRANCH   2   3
ENDBRANCH   1   2
BRANCH   1   6
ATOM      6  N   UNL     1       5.061  42.116  50.846  1.00  0.00    -0.354 N 
ATOM      7  H   UNL     1       4.195  41.588  50.842  1.00  0.00     0.163 HD
BRANCH   6   8
ATOM      8  C   UNL     1       4.711  43.405  51.240  1.00  0.00     0.226 A 
ATOM      9  N   UNL     1       5.693  44.315  51.103  1.00  0.00    -0.195 NA
ATOM     10  N   UNL     1       3.478  43.643  51.709  1.00  0.00    -0.193 NA
ATOM     11  C   UNL     1       5.479  45.605  51.463  1.00  0.00     0.147 A 
ATOM     12  C   UNL     1       3.284  44.931  52.028  1.00  0.00     0.165 A 
ATOM     13  C   UNL     1       4.211  45.951  51.933  1.00  0.00     0.082 A 
ATOM     14  N   UNL     1       2.138  45.510  52.502  1.00  0.00    -0.250 N 
ATOM     15  C   UNL     1       3.517  47.099  52.363  1.00  0.00     0.149 A 
ATOM     16  N   UNL     1       2.250  46.842  52.715  1.00  0.00    -0.179 NA
ATOM     17  C   UNL     1       0.883  44.853  52.765  1.00  0.00     0.176 C 
BRANCH  11  18
ATOM     18  N   UNL     1       6.543  46.504  51.272  1.00  0.00    -0.337 N 
ATOM     19  H   UNL     1       6.852  46.359  50.311  1.00  0.00     0.168 HD
BRANCH  18  20
ATOM     20  C   UNL     1       7.659  46.684  52.122  1.00  0.00     0.076 A 
ATOM     21  C   UNL     1       8.930  46.381  51.614  1.00  0.00     0.029 A 
ATOM     22  C   UNL     1       7.562  47.032  53.478  1.00  0.00     0.146 A 
ATOM     23  C   UNL     1      10.069  46.482  52.417  1.00  0.00     0.002 A 
ATOM     24  C   UNL     1       8.694  47.136  54.285  1.00  0.00     0.041 A 
ATOM     25  C   UNL     1       9.952  46.865  53.753  1.00  0.00     0.003 A 
ATOM     26  F   UNL     1       6.366  47.258  54.041  1.00  0.00    -0.205 F 
ENDBRANCH  18  20
ENDBRANCH  11  18
ENDBRANCH   6   8
ENDBRANCH   1   6
TORSDOF 7
ENDMDL
MODEL 14
REMARK VINA RESULT:    -7.677      3.176      5.851
REMARK INTER + INTRA:         -11.861
REMARK INTER:                 -11.047
REMARK INTRA:                  -0.814
REMARK UNBOUND:                -1.042
REMARK SMILES COCCCNc1nc(Nc2ccccc2F)c2cnn(C)c2n1
REMARK SMILES IDX 5 1 4 2 3 3 2 4 1 5 6 6 7 8 8 9 24 10 9 11 23 12 18 13 21 14
REMARK SMILES IDX 19 15 20 16 22 17 10 18 11 20 12 21 16 22 13 23 15 24 14 25
REMARK SMILES IDX 17 26
REMARK H PARENT 6 7 10 19
ROOT
ATOM      1  C   UNL     1       7.692  46.768  51.394  1.00  0.00     0.118 C 
ENDROOT
BRANCH   1   2
ATOM      2  C   UNL     1       9.112  47.223  51.715  1.00  0.00     0.050 C 
BRANCH   2   3
ATOM      3  C   UNL     1       9.966  46.062  52.205  1.00  0.00     0.161 C 
BRANCH   3   4
ATOM      4  O   UNL     1       9.904  46.027  53.630  1.00  0.00    -0.385 OA
ATOM      5  C   UNL     1       9.894  47.335  54.187  1.00  0.00     0.194 C 
ENDBRANCH   3   4
ENDBRANCH   2   3
ENDBRANCH   1   2
BRANCH   1   6
ATOM      6  N   UNL     1       7.739  45.675  50.440  1.00  0.00    -0.354 N 
ATOM      7  H   UNL     1       7.685  45.943  49.463  1.00  0.00     0.163 HD
BRANCH   6   8
ATOM      8  C   UNL     1       6.753  44.709  50.617  1.00  0.00     0.226 A 
ATOM      9  N   UNL     1       6.838  43.665  49.771  1.00  0.00    -0.195 NA
ATOM     10  N   UNL     1       5.824  44.875  51.569  1.00  0.00    -0.193 NA
ATOM     11  C   UNL     1       5.927  42.662  49.835  1.00  0.00     0.147 A 
ATOM     12  C   UNL     1       4.955  43.855  51.631  1.00  0.00     0.165 A 
ATOM     13  C   UNL     1       4.941  42.737  50.820  1.00  0.00     0.082 A 
ATOM     14  N   UNL     1       3.913  43.699  52.503  1.00  0.00    -0.250 N 
ATOM     15  C   UNL     1       3.859  41.969  51.298  1.00  0.00     0.149 A 
ATOM     16  N   UNL     1       3.222  42.548  52.325  1.00  0.00    -0.179 NA
ATOM     17  C   UNL     1       3.519  44.605  53.552  1.00  0.00     0.176 C 
BRANCH  11  18
ATOM     18  N   UNL     1       6.092  41.594  48.936  1.00  0.00    -0.337 N 
ATOM     19  H   UNL     1       7.089  41.566  48.728  1.00  0.00     0.168 HD
BRANCH  18  20
ATOM     20  C   UNL     1       5.340  41.356  47.761  1.00  0.00     0.076 A 
ATOM     21  C   UNL     1       5.753  41.984  46.578  1.00  0.00     0.029 A 
ATOM     22  C   UNL     1       4.141  40.629  47.733  1.00  0.00     0.146 A 
ATOM     23  C   UNL     1       5.024  41.838  45.394  1.00  0.00     0.002 A 
ATOM     24  C   UNL     1       3.409  40.478  46.556  1.00  0.00     0.041 A 
ATOM     25  C   UNL     1       3.854  41.080  45.382  1.00  0.00     0.003 A 
ATOM     26  F   UNL     1       3.654  40.071  48.851  1.00  0.00    -0.205 F 
ENDBRANCH  18  20
ENDBRANCH  11  18
ENDBRANCH   6   8
ENDBRANCH   1   6
TORSDOF 7
ENDMDL
MODEL 15
REMARK VINA RESULT:    -7.450      3.047      6.603
REMARK INTER + INTRA:         -11.541
REMARK INTER:                 -10.529
REMARK INTRA:                  -1.012
REMARK UNBOUND:                -1.042
REMARK SMILES COCCCNc1nc(Nc2ccccc2F)c2cnn(C)c2n1
REMARK SMILES IDX 5 1 4 2 3 3 2 4 1 5 6 6 7 8 8 9 24 10 9 11 23 12 18 13 21 14
REMARK SMILES IDX 19 15 20 16 22 17 10 18 11 20 12 21 16 22 13 23 15 24 14 25
REMARK SMILES IDX 17 26
REMARK H PARENT 6 7 10 19
ROOT
ATOM      1  C   UNL     1       3.840  41.009  49.939  1.00  0.00     0.118 C 
ENDROOT
BRANCH   1   2
ATOM      2  C   UNL     1       5.016  41.143  48.978  1.00  0.00     0.050 C 
BRANCH   2   3
ATOM      3  C   UNL     1       6.280  41.575  49.710  1.00  0.00     0.161 C 
BRANCH   3   4
ATOM      4  O   UNL     1       6.414  42.990  49.579  1.00  0.00    -0.385 OA
ATOM      5  C   UNL     1       7.723  43.358  49.165  1.00  0.00     0.194 C 
ENDBRANCH   3   4
ENDBRANCH   2   3
ENDBRANCH   1   2
BRANCH   1   6
ATOM      6  N   UNL     1       4.240  41.461  51.260  1.00  0.00    -0.354 N 
ATOM      7  H   UNL     1       4.105  40.792  52.011  1.00  0.00     0.163 HD
BRANCH   6   8
ATOM      8  C   UNL     1       3.619  42.632  51.685  1.00  0.00     0.226 A 
ATOM      9  N   UNL     1       4.442  43.512  52.285  1.00  0.00    -0.195 NA
ATOM     10  N   UNL     1       2.304  42.797  51.481  1.00  0.00    -0.193 NA
ATOM     11  C   UNL     1       3.954  44.687  52.754  1.00  0.00     0.147 A 
ATOM     12  C   UNL     1       1.855  43.980  51.927  1.00  0.00     0.165 A 
ATOM     13  C   UNL     1       2.598  44.958  52.557  1.00  0.00     0.082 A 
ATOM     14  N   UNL     1       0.580  44.471  51.847  1.00  0.00    -0.250 N 
ATOM     15  C   UNL     1       1.678  45.997  52.802  1.00  0.00     0.149 A 
ATOM     16  N   UNL     1       0.441  45.710  52.375  1.00  0.00    -0.179 NA
ATOM     17  C   UNL     1      -0.564  43.817  51.265  1.00  0.00     0.176 C 
BRANCH  11  18
ATOM     18  N   UNL     1       4.875  45.567  53.349  1.00  0.00    -0.337 N 
ATOM     19  H   UNL     1       4.355  46.424  53.528  1.00  0.00     0.168 HD
BRANCH  18  20
ATOM     20  C   UNL     1       6.175  45.871  52.882  1.00  0.00     0.076 A 
ATOM     21  C   UNL     1       7.191  46.046  53.831  1.00  0.00     0.029 A 
ATOM     22  C   UNL     1       6.484  46.126  51.537  1.00  0.00     0.146 A 
ATOM     23  C   UNL     1       8.486  46.404  53.442  1.00  0.00     0.002 A 
ATOM     24  C   UNL     1       7.773  46.482  51.141  1.00  0.00     0.041 A 
ATOM     25  C   UNL     1       8.778  46.617  52.095  1.00  0.00     0.003 A 
ATOM     26  F   UNL     1       5.535  46.051  50.592  1.00  0.00    -0.205 F 
ENDBRANCH  18  20
ENDBRANCH  11  18
ENDBRANCH   6   8
ENDBRANCH   1   6
TORSDOF 7
ENDMDL
MODEL 16
REMARK VINA RESULT:    -7.445      2.474      5.099
REMARK INTER + INTRA:         -11.534
REMARK INTER:                 -10.516
REMARK INTRA:                  -1.019
REMARK UNBOUND:                -1.042
REMARK SMILES COCCCNc1nc(Nc2ccccc2F)c2cnn(C)c2n1
REMARK SMILES IDX 5 1 4 2 3 3 2 4 1 5 6 6 7 8 8 9 24 10 9 11 23 12 18 13 21 14
REMARK SMILES IDX 19 15 20 16 22 17 10 18 11 20 12 21 16 22 13 23 15 24 14 25
REMARK SMILES IDX 17 26
REMARK H PARENT 6 7 10 19
ROOT
ATOM      1  C   UNL     1       7.041  42.841  49.402  1.00  0.00     0.118 C 
ENDROOT
BRANCH   1   2
ATOM      2  C   UNL     1       6.486  41.587  50.068  1.00  0.00     0.050 C 
BRANCH   2   3
ATOM      3  C   UNL     1       5.046  41.329  49.645  1.00  0.00     0.161 C 
BRANCH   3   4
ATOM      4  O   UNL     1       4.303  40.932  50.797  1.00  0.00    -0.385 OA
ATOM      5  C   UNL     1       3.821  42.054  51.524  1.00  0.00     0.194 C 
ENDBRANCH   3   4
ENDBRANCH   2   3
ENDBRANCH   1   2
BRANCH   1   6
ATOM      6  N   UNL     1       6.095  43.932  49.559  1.00  0.00    -0.354 N 
ATOM      7  H   UNL     1       5.863  44.436  48.710  1.00  0.00     0.163 HD
BRANCH   6   8
ATOM      8  C   UNL     1       6.480  44.905  50.477  1.00  0.00     0.226 A 
ATOM      9  N   UNL     1       5.456  45.518  51.100  1.00  0.00    -0.195 NA
ATOM     10  N   UNL     1       7.782  45.157  50.671  1.00  0.00    -0.193 NA
ATOM     11  C   UNL     1       5.700  46.494  52.009  1.00  0.00     0.147 A 
ATOM     12  C   UNL     1       7.995  46.104  51.597  1.00  0.00     0.165 A 
ATOM     13  C   UNL     1       7.031  46.801  52.297  1.00  0.00     0.082 A 
ATOM     14  N   UNL     1       9.199  46.571  52.050  1.00  0.00    -0.250 N 
ATOM     15  C   UNL     1       7.762  47.652  53.151  1.00  0.00     0.149 A 
ATOM     16  N   UNL     1       9.087  47.523  53.007  1.00  0.00    -0.179 NA
ATOM     17  C   UNL     1      10.508  46.146  51.624  1.00  0.00     0.176 C 
BRANCH  11  18
ATOM     18  N   UNL     1       4.583  47.075  52.635  1.00  0.00    -0.337 N 
ATOM     19  H   UNL     1       4.951  47.855  53.178  1.00  0.00     0.168 HD
BRANCH  18  20
ATOM     20  C   UNL     1       3.579  46.399  53.367  1.00  0.00     0.076 A 
ATOM     21  C   UNL     1       2.322  46.239  52.767  1.00  0.00     0.029 A 
ATOM     22  C   UNL     1       3.726  45.986  54.700  1.00  0.00     0.146 A 
ATOM     23  C   UNL     1       1.268  45.631  53.456  1.00  0.00     0.002 A 
ATOM     24  C   UNL     1       2.680  45.378  55.393  1.00  0.00     0.041 A 
ATOM     25  C   UNL     1       1.449  45.195  54.768  1.00  0.00     0.003 A 
ATOM     26  F   UNL     1       4.881  46.184  55.353  1.00  0.00    -0.205 F 
ENDBRANCH  18  20
ENDBRANCH  11  18
ENDBRANCH   6   8
ENDBRANCH   1   6
TORSDOF 7
ENDMDL
MODEL 17
REMARK VINA RESULT:    -7.385      2.912      6.264
REMARK INTER + INTRA:         -11.449
REMARK INTER:                 -10.434
REMARK INTRA:                  -1.015
REMARK UNBOUND:                -1.042
REMARK SMILES COCCCNc1nc(Nc2ccccc2F)c2cnn(C)c2n1
REMARK SMILES IDX 5 1 4 2 3 3 2 4 1 5 6 6 7 8 8 9 24 10 9 11 23 12 18 13 21 14
REMARK SMILES IDX 19 15 20 16 22 17 10 18 11 20 12 21 16 22 13 23 15 24 14 25
REMARK SMILES IDX 17 26
REMARK H PARENT 6 7 10 19
ROOT
ATOM      1  C   UNL     1       6.890  47.248  52.324  1.00  0.00     0.118 C 
ENDROOT
BRANCH   1   2
ATOM      2  C   UNL     1       8.184  48.053  52.386  1.00  0.00     0.050 C 
BRANCH   2   3
ATOM      3  C   UNL     1       9.162  47.448  53.384  1.00  0.00     0.161 C 
BRANCH   3   4
ATOM      4  O   UNL     1       9.494  46.131  52.946  1.00  0.00    -0.385 OA
ATOM      5  C   UNL     1      10.431  46.153  51.877  1.00  0.00     0.194 C 
ENDBRANCH   3   4
ENDBRANCH   2   3
ENDBRANCH   1   2
BRANCH   1   6
ATOM      6  N   UNL     1       6.986  46.261  51.263  1.00  0.00    -0.354 N 
ATOM      7  H   UNL     1       6.832  46.611  50.323  1.00  0.00     0.163 HD
BRANCH   6   8
ATOM      8  C   UNL     1       6.125  45.175  51.403  1.00  0.00     0.226 A 
ATOM      9  N   UNL     1       5.207  45.314  52.377  1.00  0.00    -0.195 NA
ATOM     10  N   UNL     1       6.263  44.112  50.598  1.00  0.00    -0.193 NA
ATOM     11  C   UNL     1       4.318  44.320  52.620  1.00  0.00     0.147 A 
ATOM     12  C   UNL     1       5.352  43.157  50.839  1.00  0.00     0.165 A 
ATOM     13  C   UNL     1       4.367  43.185  51.807  1.00  0.00     0.082 A 
ATOM     14  N   UNL     1       5.197  41.967  50.181  1.00  0.00    -0.250 N 
ATOM     15  C   UNL     1       3.671  41.972  51.636  1.00  0.00     0.149 A 
ATOM     16  N   UNL     1       4.170  41.218  50.648  1.00  0.00    -0.179 NA
ATOM     17  C   UNL     1       5.987  41.478  49.080  1.00  0.00     0.176 C 
BRANCH  11  18
ATOM     18  N   UNL     1       3.374  44.544  53.638  1.00  0.00    -0.337 N 
ATOM     19  H   UNL     1       3.599  43.870  54.369  1.00  0.00     0.168 HD
BRANCH  18  20
ATOM     20  C   UNL     1       1.972  44.647  53.481  1.00  0.00     0.076 A 
ATOM     21  C   UNL     1       1.157  43.918  54.358  1.00  0.00     0.029 A 
ATOM     22  C   UNL     1       1.350  45.337  52.430  1.00  0.00     0.146 A 
ATOM     23  C   UNL     1      -0.234  43.929  54.224  1.00  0.00     0.002 A 
ATOM     24  C   UNL     1      -0.037  45.354  52.291  1.00  0.00     0.041 A 
ATOM     25  C   UNL     1      -0.832  44.652  53.193  1.00  0.00     0.003 A 
ATOM     26  F   UNL     1       2.081  45.988  51.513  1.00  0.00    -0.205 F 
ENDBRANCH  18  20
ENDBRANCH  11  18
ENDBRANCH   6   8
ENDBRANCH   1   6
TORSDOF 7
ENDMDL
MODEL 18
REMARK VINA RESULT:    -7.339      2.438      5.298
REMARK INTER + INTRA:         -11.385
REMARK INTER:                 -10.917
REMARK INTRA:                  -0.468
REMARK UNBOUND:                -1.042
REMARK SMILES COCCCNc1nc(Nc2ccccc2F)c2cnn(C)c2n1
REMARK SMILES IDX 5 1 4 2 3 3 2 4 1 5 6 6 7 8 8 9 24 10 9 11 23 12 18 13 21 14
REMARK SMILES IDX 19 15 20 16 22 17 10 18 11 20 12 21 16 22 13 23 15 24 14 25
REMARK SMILES IDX 17 26
REMARK H PARENT 6 7 10 19
ROOT
ATOM      1  C   UNL     1       7.364  46.534  53.937  1.00  0.00     0.118 C 
ENDROOT
BRANCH   1   2
ATOM      2  C   UNL     1       8.488  47.479  54.349  1.00  0.00     0.050 C 
BRANCH   2   3
ATOM      3  C   UNL     1       9.780  47.154  53.610  1.00  0.00     0.161 C 
BRANCH   3   4
ATOM      4  O   UNL     1       9.483  47.028  52.220  1.00  0.00    -0.385 OA
ATOM      5  C   UNL     1      10.284  46.031  51.600  1.00  0.00     0.194 C 
ENDBRANCH   3   4
ENDBRANCH   2   3
ENDBRANCH   1   2
BRANCH   1   6
ATOM      6  N   UNL     1       6.194  46.786  54.761  1.00  0.00    -0.354 N 
ATOM      7  H   UNL     1       6.309  46.600  55.752  1.00  0.00     0.163 HD
BRANCH   6   8
ATOM      8  C   UNL     1       5.054  46.085  54.379  1.00  0.00     0.226 A 
ATOM      9  N   UNL     1       5.127  45.528  53.156  1.00  0.00    -0.195 NA
ATOM     10  N   UNL     1       4.007  46.015  55.214  1.00  0.00    -0.193 NA
ATOM     11  C   UNL     1       4.075  44.828  52.664  1.00  0.00     0.147 A 
ATOM     12  C   UNL     1       2.994  45.291  54.716  1.00  0.00     0.165 A 
ATOM     13  C   UNL     1       2.951  44.677  53.480  1.00  0.00     0.082 A 
ATOM     14  N   UNL     1       1.801  45.001  55.320  1.00  0.00    -0.250 N 
ATOM     15  C   UNL     1       1.696  44.037  53.448  1.00  0.00     0.149 A 
ATOM     16  N   UNL     1       0.983  44.229  54.565  1.00  0.00    -0.179 NA
ATOM     17  C   UNL     1       1.372  45.416  56.631  1.00  0.00     0.176 C 
BRANCH  11  18
ATOM     18  N   UNL     1       4.230  44.257  51.389  1.00  0.00    -0.337 N 
ATOM     19  H   UNL     1       3.590  43.464  51.367  1.00  0.00     0.168 HD
BRANCH  18  20
ATOM     20  C   UNL     1       5.449  43.919  50.758  1.00  0.00     0.076 A 
ATOM     21  C   UNL     1       6.318  44.961  50.404  1.00  0.00     0.029 A 
ATOM     22  C   UNL     1       5.790  42.618  50.358  1.00  0.00     0.146 A 
ATOM     23  C   UNL     1       7.513  44.702  49.727  1.00  0.00     0.002 A 
ATOM     24  C   UNL     1       6.981  42.352  49.684  1.00  0.00     0.041 A 
ATOM     25  C   UNL     1       7.848  43.396  49.372  1.00  0.00     0.003 A 
ATOM     26  F   UNL     1       4.963  41.590  50.600  1.00  0.00    -0.205 F 
ENDBRANCH  18  20
ENDBRANCH  11  18
ENDBRANCH   6   8
ENDBRANCH   1   6
TORSDOF 7
ENDMDL
MODEL 19
REMARK VINA RESULT:    -7.327      2.322      5.253
REMARK INTER + INTRA:         -11.367
REMARK INTER:                 -10.530
REMARK INTRA:                  -0.837
REMARK UNBOUND:                -1.042
REMARK SMILES COCCCNc1nc(Nc2ccccc2F)c2cnn(C)c2n1
REMARK SMILES IDX 5 1 4 2 3 3 2 4 1 5 6 6 7 8 8 9 24 10 9 11 23 12 18 13 21 14
REMARK SMILES IDX 19 15 20 16 22 17 10 18 11 20 12 21 16 22 13 23 15 24 14 25
REMARK SMILES IDX 17 26
REMARK H PARENT 6 7 10 19
ROOT
ATOM      1  C   UNL     1       7.309  46.449  54.308  1.00  0.00     0.118 C 
ENDROOT
BRANCH   1   2
ATOM      2  C   UNL     1       8.110  47.363  53.387  1.00  0.00     0.050 C 
BRANCH   2   3
ATOM      3  C   UNL     1       9.542  47.527  53.880  1.00  0.00     0.161 C 
BRANCH   3   4
ATOM      4  O   UNL     1       9.505  47.827  55.275  1.00  0.00    -0.385 OA
ATOM      5  C   UNL     1      10.740  47.523  55.910  1.00  0.00     0.194 C 
ENDBRANCH   3   4
ENDBRANCH   2   3
ENDBRANCH   1   2
BRANCH   1   6
ATOM      6  N   UNL     1       6.042  47.079  54.632  1.00  0.00    -0.354 N 
ATOM      7  H   UNL     1       5.897  47.293  55.614  1.00  0.00     0.163 HD
BRANCH   6   8
ATOM      8  C   UNL     1       4.918  46.358  54.238  1.00  0.00     0.226 A 
ATOM      9  N   UNL     1       4.960  45.913  52.968  1.00  0.00    -0.195 NA
ATOM     10  N   UNL     1       3.915  46.166  55.106  1.00  0.00    -0.193 NA
ATOM     11  C   UNL     1       3.919  45.207  52.461  1.00  0.00     0.147 A 
ATOM     12  C   UNL     1       2.913  45.439  54.589  1.00  0.00     0.165 A 
ATOM     13  C   UNL     1       2.842  44.932  53.306  1.00  0.00     0.082 A 
ATOM     14  N   UNL     1       1.764  45.039  55.214  1.00  0.00    -0.250 N 
ATOM     15  C   UNL     1       1.617  44.236  53.270  1.00  0.00     0.149 A 
ATOM     16  N   UNL     1       0.948  44.296  54.429  1.00  0.00    -0.179 NA
ATOM     17  C   UNL     1       1.376  45.319  56.573  1.00  0.00     0.176 C 
BRANCH  11  18
ATOM     18  N   UNL     1       4.042  44.756  51.135  1.00  0.00    -0.337 N 
ATOM     19  H   UNL     1       3.087  44.621  50.805  1.00  0.00     0.168 HD
BRANCH  18  20
ATOM     20  C   UNL     1       4.872  43.708  50.673  1.00  0.00     0.076 A 
ATOM     21  C   UNL     1       4.412  42.391  50.821  1.00  0.00     0.029 A 
ATOM     22  C   UNL     1       6.175  43.897  50.188  1.00  0.00     0.146 A 
ATOM     23  C   UNL     1       5.205  41.306  50.438  1.00  0.00     0.002 A 
ATOM     24  C   UNL     1       6.971  42.818  49.803  1.00  0.00     0.041 A 
ATOM     25  C   UNL     1       6.483  41.520  49.924  1.00  0.00     0.003 A 
ATOM     26  F   UNL     1       6.698  45.128  50.098  1.00  0.00    -0.205 F 
ENDBRANCH  18  20
ENDBRANCH  11  18
ENDBRANCH   6   8
ENDBRANCH   1   6
TORSDOF 7
ENDMDL
MODEL 20
REMARK VINA RESULT:    -7.325      2.692      5.199
REMARK INTER + INTRA:         -11.364
REMARK INTER:                 -10.210
REMARK INTRA:                  -1.155
REMARK UNBOUND:                -1.042
REMARK SMILES COCCCNc1nc(Nc2ccccc2F)c2cnn(C)c2n1
REMARK SMILES IDX 5 1 4 2 3 3 2 4 1 5 6 6 7 8 8 9 24 10 9 11 23 12 18 13 21 14
REMARK SMILES IDX 19 15 20 16 22 17 10 18 11 20 12 21 16 22 13 23 15 24 14 25
REMARK SMILES IDX 17 26
REMARK H PARENT 6 7 10 19
ROOT
ATOM      1  C   UNL     1       7.203  43.120  49.595  1.00  0.00     0.118 C 
ENDROOT
BRANCH   1   2
ATOM      2  C   UNL     1       6.834  41.697  50.001  1.00  0.00     0.050 C 
BRANCH   2   3
ATOM      3  C   UNL     1       5.479  41.296  49.435  1.00  0.00     0.161 C 
BRANCH   3   4
ATOM      4  O   UNL     1       4.612  40.980  50.524  1.00  0.00    -0.385 OA
ATOM      5  C   UNL     1       3.319  41.544  50.347  1.00  0.00     0.194 C 
ENDBRANCH   3   4
ENDBRANCH   2   3
ENDBRANCH   1   2
BRANCH   1   6
ATOM      6  N   UNL     1       6.071  43.999  49.830  1.00  0.00    -0.354 N 
ATOM      7  H   UNL     1       5.959  44.756  49.164  1.00  0.00     0.163 HD
BRANCH   6   8
ATOM      8  C   UNL     1       6.054  44.600  51.085  1.00  0.00     0.226 A 
ATOM      9  N   UNL     1       5.038  44.209  51.877  1.00  0.00    -0.195 NA
ATOM     10  N   UNL     1       7.005  45.489  51.408  1.00  0.00    -0.193 NA
ATOM     11  C   UNL     1       4.905  44.732  53.121  1.00  0.00     0.147 A 
ATOM     12  C   UNL     1       6.867  45.966  52.654  1.00  0.00     0.165 A 
ATOM     13  C   UNL     1       5.870  45.643  53.553  1.00  0.00     0.082 A 
ATOM     14  N   UNL     1       7.680  46.859  53.299  1.00  0.00    -0.250 N 
ATOM     15  C   UNL     1       6.184  46.387  54.709  1.00  0.00     0.149 A 
ATOM     16  N   UNL     1       7.286  47.135  54.565  1.00  0.00    -0.179 NA
ATOM     17  C   UNL     1       8.866  47.485  52.774  1.00  0.00     0.176 C 
BRANCH  11  18
ATOM     18  N   UNL     1       3.833  44.261  53.898  1.00  0.00    -0.337 N 
ATOM     19  H   UNL     1       4.118  43.338  54.224  1.00  0.00     0.168 HD
BRANCH  18  20
ATOM     20  C   UNL     1       2.467  44.250  53.533  1.00  0.00     0.076 A 
ATOM     21  C   UNL     1       1.829  43.007  53.408  1.00  0.00     0.029 A 
ATOM     22  C   UNL     1       1.743  45.397  53.172  1.00  0.00     0.146 A 
ATOM     23  C   UNL     1       0.496  42.921  52.995  1.00  0.00     0.002 A 
ATOM     24  C   UNL     1       0.413  45.318  52.761  1.00  0.00     0.041 A 
ATOM     25  C   UNL     1      -0.214  44.078  52.677  1.00  0.00     0.003 A 
ATOM     26  F   UNL     1       2.323  46.605  53.197  1.00  0.00    -0.205 F 
ENDBRANCH  18  20
ENDBRANCH  11  18
ENDBRANCH   6   8
ENDBRANCH   1   6
TORSDOF 7
ENDMDL
