MODEL 1
REMARK VINA RESULT:    -9.234      0.000      0.000
REMARK INTER + INTRA:         -13.302
REMARK INTER:                 -12.474
REMARK INTRA:                  -0.829
REMARK UNBOUND:                -0.829
REMARK SMILES COc1ccc(Nc2nc(NCc3ccco3)c3ccccc3n2)cc1
REMARK SMILES IDX 8 1 9 2 10 3 18 4 19 5 20 6 21 7 22 8 23 9 24 10 7 11 6 13
REMARK SMILES IDX 3 14 4 15 26 16 5 17 25 18 2 19 1 20 11 21 12 23 13 24 14 25
REMARK SMILES IDX 17 26 15 27 16 28
REMARK H PARENT 7 12 11 22
ROOT
ATOM      1  C   UNL     1       5.379  46.914  53.740  1.00  0.00     0.229 A 
ATOM      2  N   UNL     1       5.517  46.348  52.532  1.00  0.00    -0.195 NA
ATOM      3  C   UNL     1       6.757  46.182  52.041  1.00  0.00     0.139 A 
ATOM      4  C   UNL     1       7.899  46.546  52.772  1.00  0.00     0.043 A 
ATOM      5  C   UNL     1       9.241  46.359  52.348  1.00  0.00     0.014 A 
ATOM      6  C   UNL     1      10.306  46.766  53.147  1.00  0.00     0.001 A 
ATOM      7  C   UNL     1      10.047  47.358  54.374  1.00  0.00     0.002 A 
ATOM      8  C   UNL     1       8.725  47.532  54.794  1.00  0.00     0.029 A 
ATOM      9  C   UNL     1       7.645  47.130  54.015  1.00  0.00     0.078 A 
ATOM     10  N   UNL     1       6.411  47.317  54.486  1.00  0.00    -0.213 NA
ENDROOT
BRANCH   1  11
ATOM     11  N   UNL     1       4.061  47.057  54.167  1.00  0.00    -0.324 N 
ATOM     12  H   UNL     1       3.939  47.989  54.533  1.00  0.00     0.170 HD
BRANCH  11  13
ATOM     13  C   UNL     1       2.939  46.225  54.160  1.00  0.00     0.041 A 
ATOM     14  C   UNL     1       0.702  44.481  54.279  1.00  0.00     0.119 A 
ATOM     15  C   UNL     1       0.940  45.264  53.150  1.00  0.00     0.048 A 
ATOM     16  C   UNL     1       1.583  44.566  55.352  1.00  0.00     0.048 A 
ATOM     17  C   UNL     1       2.045  46.124  53.092  1.00  0.00     0.030 A 
ATOM     18  C   UNL     1       2.686  45.428  55.288  1.00  0.00     0.030 A 
BRANCH  14  19
ATOM     19  O   UNL     1      -0.408  43.688  54.204  1.00  0.00    -0.497 OA
ATOM     20  C   UNL     1      -0.461  42.755  53.132  1.00  0.00     0.278 C 
ENDBRANCH  14  19
ENDBRANCH  11  13
ENDBRANCH   1  11
BRANCH   3  21
ATOM     21  N   UNL     1       6.911  45.588  50.771  1.00  0.00    -0.362 N 
ATOM     22  H   UNL     1       7.283  46.278  50.122  1.00  0.00     0.162 HD
BRANCH  21  23
ATOM     23  C   UNL     1       5.699  44.993  50.214  1.00  0.00     0.190 C 
BRANCH  23  24
ATOM     24  C   UNL     1       5.785  43.506  50.122  1.00  0.00     0.122 A 
ATOM     25  C   UNL     1       6.641  42.643  49.470  1.00  0.00     0.047 A 
ATOM     26  O   UNL     1       4.828  42.797  50.791  1.00  0.00    -0.467 OA
ATOM     27  C   UNL     1       6.188  41.334  49.764  1.00  0.00     0.042 A 
ATOM     28  C   UNL     1       5.084  41.482  50.571  1.00  0.00     0.195 A 
ENDBRANCH  23  24
ENDBRANCH  21  23
ENDBRANCH   3  21
TORSDOF 6
ENDMDL
MODEL 2
REMARK VINA RESULT:    -9.185      2.394      4.919
REMARK INTER + INTRA:         -13.236
REMARK INTER:                 -12.574
REMARK INTRA:                  -0.661
REMARK UNBOUND:                -0.829
REMARK SMILES COc1ccc(Nc2nc(NCc3ccco3)c3ccccc3n2)cc1
REMARK SMILES IDX 8 1 9 2 10 3 18 4 19 5 20 6 21 7 22 8 23 9 24 10 7 11 6 13
REMARK SMILES IDX 3 14 4 15 26 16 5 17 25 18 2 19 1 20 11 21 12 23 13 24 14 25
REMARK SMILES IDX 17 26 15 27 16 28
REMARK H PARENT 7 12 11 22
ROOT
ATOM      1  C   UNL     1       3.604  43.719  52.616  1.00  0.00     0.229 A 
ATOM      2  N   UNL     1       4.071  44.931  52.950  1.00  0.00    -0.195 NA
ATOM      3  C   UNL     1       5.170  45.388  52.325  1.00  0.00     0.139 A 
ATOM      4  C   UNL     1       5.809  44.651  51.316  1.00  0.00     0.043 A 
ATOM      5  C   UNL     1       6.941  45.081  50.575  1.00  0.00     0.014 A 
ATOM      6  C   UNL     1       7.508  44.267  49.597  1.00  0.00     0.001 A 
ATOM      7  C   UNL     1       6.952  43.021  49.346  1.00  0.00     0.002 A 
ATOM      8  C   UNL     1       5.831  42.604  50.070  1.00  0.00     0.029 A 
ATOM      9  C   UNL     1       5.247  43.401  51.048  1.00  0.00     0.078 A 
ATOM     10  N   UNL     1       4.171  42.941  51.689  1.00  0.00    -0.213 NA
ENDROOT
BRANCH   1  11
ATOM     11  N   UNL     1       2.470  43.321  53.319  1.00  0.00    -0.324 N 
ATOM     12  H   UNL     1       2.329  42.332  53.173  1.00  0.00     0.170 HD
BRANCH  11  13
ATOM     13  C   UNL     1       1.563  43.975  54.156  1.00  0.00     0.041 A 
ATOM     14  C   UNL     1      -0.389  45.269  55.762  1.00  0.00     0.119 A 
ATOM     15  C   UNL     1       0.963  45.314  56.101  1.00  0.00     0.048 A 
ATOM     16  C   UNL     1      -0.770  44.577  54.617  1.00  0.00     0.048 A 
ATOM     17  C   UNL     1       1.926  44.676  55.308  1.00  0.00     0.030 A 
ATOM     18  C   UNL     1       0.198  43.940  53.827  1.00  0.00     0.030 A 
BRANCH  14  19
ATOM     19  O   UNL     1      -1.220  45.931  56.620  1.00  0.00    -0.497 OA
ATOM     20  C   UNL     1      -0.609  46.817  57.551  1.00  0.00     0.278 C 
ENDBRANCH  14  19
ENDBRANCH  11  13
ENDBRANCH   1  11
BRANCH   3  21
ATOM     21  N   UNL     1       5.668  46.662  52.670  1.00  0.00    -0.362 N 
ATOM     22  H   UNL     1       6.380  46.936  51.997  1.00  0.00     0.162 HD
BRANCH  21  23
ATOM     23  C   UNL     1       6.206  46.771  54.024  1.00  0.00     0.190 C 
BRANCH  23  24
ATOM     24  C   UNL     1       7.685  46.964  54.035  1.00  0.00     0.122 A 
ATOM     25  C   UNL     1       8.720  46.418  53.305  1.00  0.00     0.047 A 
ATOM     26  O   UNL     1       8.179  47.844  54.956  1.00  0.00    -0.467 OA
ATOM     27  C   UNL     1       9.911  47.003  53.799  1.00  0.00     0.042 A 
ATOM     28  C   UNL     1       9.527  47.864  54.801  1.00  0.00     0.195 A 
ENDBRANCH  23  24
ENDBRANCH  21  23
ENDBRANCH   3  21
TORSDOF 6
ENDMDL
MODEL 3
REMARK VINA RESULT:    -9.181      2.383      4.975
REMARK INTER + INTRA:         -13.231
REMARK INTER:                 -12.407
REMARK INTRA:                  -0.824
REMARK UNBOUND:                -0.829
REMARK SMILES COc1ccc(Nc2nc(NCc3ccco3)c3ccccc3n2)cc1
REMARK SMILES IDX 8 1 9 2 10 3 18 4 19 5 20 6 21 7 22 8 23 9 24 10 7 11 6 13
REMARK SMILES IDX 3 14 4 15 26 16 5 17 25 18 2 19 1 20 11 21 12 23 13 24 14 25
REMARK SMILES IDX 17 26 15 27 16 28
REMARK H PARENT 7 12 11 22
ROOT
ATOM      1  C   UNL     1       4.048  43.229  52.089  1.00  0.00     0.229 A 
ATOM      2  N   UNL     1       4.335  44.436  52.597  1.00  0.00    -0.195 NA
ATOM      3  C   UNL     1       5.392  45.103  52.103  1.00  0.00     0.139 A 
ATOM      4  C   UNL     1       6.170  44.588  51.053  1.00  0.00     0.043 A 
ATOM      5  C   UNL     1       7.268  45.249  50.443  1.00  0.00     0.014 A 
ATOM      6  C   UNL     1       7.983  44.645  49.412  1.00  0.00     0.001 A 
ATOM      7  C   UNL     1       7.608  43.382  48.976  1.00  0.00     0.002 A 
ATOM      8  C   UNL     1       6.520  42.738  49.572  1.00  0.00     0.029 A 
ATOM      9  C   UNL     1       5.790  43.323  50.601  1.00  0.00     0.078 A 
ATOM     10  N   UNL     1       4.756  42.654  51.112  1.00  0.00    -0.213 NA
ENDROOT
BRANCH   1  11
ATOM     11  N   UNL     1       2.945  42.604  52.665  1.00  0.00    -0.324 N 
ATOM     12  H   UNL     1       3.263  41.801  53.186  1.00  0.00     0.170 HD
BRANCH  11  13
ATOM     13  C   UNL     1       1.573  42.873  52.685  1.00  0.00     0.041 A 
ATOM     14  C   UNL     1      -1.209  43.427  52.576  1.00  0.00     0.119 A 
ATOM     15  C   UNL     1      -0.550  43.305  53.799  1.00  0.00     0.048 A 
ATOM     16  C   UNL     1      -0.478  43.274  51.402  1.00  0.00     0.048 A 
ATOM     17  C   UNL     1       0.824  43.032  53.852  1.00  0.00     0.030 A 
ATOM     18  C   UNL     1       0.896  43.000  51.462  1.00  0.00     0.030 A 
BRANCH  14  19
ATOM     19  O   UNL     1      -2.545  43.694  52.667  1.00  0.00    -0.497 OA
ATOM     20  C   UNL     1      -3.037  44.084  53.944  1.00  0.00     0.278 C 
ENDBRANCH  14  19
ENDBRANCH  11  13
ENDBRANCH   1  11
BRANCH   3  21
ATOM     21  N   UNL     1       5.701  46.375  52.631  1.00  0.00    -0.362 N 
ATOM     22  H   UNL     1       6.338  46.854  51.998  1.00  0.00     0.162 HD
BRANCH  21  23
ATOM     23  C   UNL     1       6.263  46.365  53.979  1.00  0.00     0.190 C 
BRANCH  23  24
ATOM     24  C   UNL     1       7.696  46.779  54.001  1.00  0.00     0.122 A 
ATOM     25  C   UNL     1       8.802  46.415  53.262  1.00  0.00     0.047 A 
ATOM     26  O   UNL     1       8.050  47.700  54.947  1.00  0.00    -0.467 OA
ATOM     27  C   UNL     1       9.890  47.160  53.776  1.00  0.00     0.042 A 
ATOM     28  C   UNL     1       9.381  47.927  54.798  1.00  0.00     0.195 A 
ENDBRANCH  23  24
ENDBRANCH  21  23
ENDBRANCH   3  21
TORSDOF 6
ENDMDL
MODEL 4
REMARK VINA RESULT:    -9.006      2.163      4.883
REMARK INTER + INTRA:         -12.994
REMARK INTER:                 -12.268
REMARK INTRA:                  -0.726
REMARK UNBOUND:                -0.829
REMARK SMILES COc1ccc(Nc2nc(NCc3ccco3)c3ccccc3n2)cc1
REMARK SMILES IDX 8 1 9 2 10 3 18 4 19 5 20 6 21 7 22 8 23 9 24 10 7 11 6 13
REMARK SMILES IDX 3 14 4 15 26 16 5 17 25 18 2 19 1 20 11 21 12 23 13 24 14 25
REMARK SMILES IDX 17 26 15 27 16 28
REMARK H PARENT 7 12 11 22
ROOT
ATOM      1  C   UNL     1       3.627  43.922  52.894  1.00  0.00     0.229 A 
ATOM      2  N   UNL     1       4.264  45.094  52.752  1.00  0.00    -0.195 NA
ATOM      3  C   UNL     1       5.245  45.181  51.837  1.00  0.00     0.139 A 
ATOM      4  C   UNL     1       5.587  44.099  51.011  1.00  0.00     0.043 A 
ATOM      5  C   UNL     1       6.574  44.125  49.990  1.00  0.00     0.014 A 
ATOM      6  C   UNL     1       6.845  42.990  49.230  1.00  0.00     0.001 A 
ATOM      7  C   UNL     1       6.137  41.823  49.476  1.00  0.00     0.002 A 
ATOM      8  C   UNL     1       5.159  41.803  50.475  1.00  0.00     0.029 A 
ATOM      9  C   UNL     1       4.868  42.925  51.244  1.00  0.00     0.078 A 
ATOM     10  N   UNL     1       3.914  42.836  52.171  1.00  0.00    -0.213 NA
ENDROOT
BRANCH   1  11
ATOM     11  N   UNL     1       2.634  43.916  53.870  1.00  0.00    -0.324 N 
ATOM     12  H   UNL     1       3.065  44.047  54.773  1.00  0.00     0.170 HD
BRANCH  11  13
ATOM     13  C   UNL     1       1.241  43.802  53.842  1.00  0.00     0.041 A 
ATOM     14  C   UNL     1      -1.594  43.670  53.895  1.00  0.00     0.119 A 
ATOM     15  C   UNL     1      -0.854  42.835  53.060  1.00  0.00     0.048 A 
ATOM     16  C   UNL     1      -0.919  44.575  54.709  1.00  0.00     0.048 A 
ATOM     17  C   UNL     1       0.546  42.900  53.035  1.00  0.00     0.030 A 
ATOM     18  C   UNL     1       0.482  44.635  54.679  1.00  0.00     0.030 A 
BRANCH  14  19
ATOM     19  O   UNL     1      -2.948  43.504  53.822  1.00  0.00    -0.497 OA
ATOM     20  C   UNL     1      -3.530  43.537  52.524  1.00  0.00     0.278 C 
ENDBRANCH  14  19
ENDBRANCH  11  13
ENDBRANCH   1  11
BRANCH   3  21
ATOM     21  N   UNL     1       5.920  46.411  51.681  1.00  0.00    -0.362 N 
ATOM     22  H   UNL     1       6.775  46.257  51.151  1.00  0.00     0.162 HD
BRANCH  21  23
ATOM     23  C   UNL     1       6.231  47.109  52.925  1.00  0.00     0.190 C 
BRANCH  23  24
ATOM     24  C   UNL     1       7.698  47.163  53.195  1.00  0.00     0.122 A 
ATOM     25  C   UNL     1       8.813  46.837  52.453  1.00  0.00     0.047 A 
ATOM     26  O   UNL     1       8.074  47.604  54.433  1.00  0.00    -0.467 OA
ATOM     27  C   UNL     1       9.933  47.102  53.277  1.00  0.00     0.042 A 
ATOM     28  C   UNL     1       9.430  47.567  54.470  1.00  0.00     0.195 A 
ENDBRANCH  23  24
ENDBRANCH  21  23
ENDBRANCH   3  21
TORSDOF 6
ENDMDL
MODEL 5
REMARK VINA RESULT:    -8.999      2.136      4.945
REMARK INTER + INTRA:         -12.985
REMARK INTER:                 -12.464
REMARK INTRA:                  -0.521
REMARK UNBOUND:                -0.829
REMARK SMILES COc1ccc(Nc2nc(NCc3ccco3)c3ccccc3n2)cc1
REMARK SMILES IDX 8 1 9 2 10 3 18 4 19 5 20 6 21 7 22 8 23 9 24 10 7 11 6 13
REMARK SMILES IDX 3 14 4 15 26 16 5 17 25 18 2 19 1 20 11 21 12 23 13 24 14 25
REMARK SMILES IDX 17 26 15 27 16 28
REMARK H PARENT 7 12 11 22
ROOT
ATOM      1  C   UNL     1       3.854  44.049  52.952  1.00  0.00     0.229 A 
ATOM      2  N   UNL     1       4.612  45.128  52.711  1.00  0.00    -0.195 NA
ATOM      3  C   UNL     1       5.516  45.067  51.717  1.00  0.00     0.139 A 
ATOM      4  C   UNL     1       5.654  43.926  50.911  1.00  0.00     0.043 A 
ATOM      5  C   UNL     1       6.546  43.799  49.813  1.00  0.00     0.014 A 
ATOM      6  C   UNL     1       6.615  42.617  49.081  1.00  0.00     0.001 A 
ATOM      7  C   UNL     1       5.795  41.554  49.431  1.00  0.00     0.002 A 
ATOM      8  C   UNL     1       4.910  41.685  50.505  1.00  0.00     0.029 A 
ATOM      9  C   UNL     1       4.822  42.857  51.249  1.00  0.00     0.078 A 
ATOM     10  N   UNL     1       3.946  42.914  52.252  1.00  0.00    -0.213 NA
ENDROOT
BRANCH   1  11
ATOM     11  N   UNL     1       2.954  44.195  54.004  1.00  0.00    -0.324 N 
ATOM     12  H   UNL     1       3.458  44.502  54.822  1.00  0.00     0.170 HD
BRANCH  11  13
ATOM     13  C   UNL     1       1.571  44.038  54.132  1.00  0.00     0.041 A 
ATOM     14  C   UNL     1      -1.231  43.609  54.291  1.00  0.00     0.119 A 
ATOM     15  C   UNL     1      -0.624  44.648  54.995  1.00  0.00     0.048 A 
ATOM     16  C   UNL     1      -0.438  42.780  53.502  1.00  0.00     0.048 A 
ATOM     17  C   UNL     1       0.759  44.860  54.916  1.00  0.00     0.030 A 
ATOM     18  C   UNL     1       0.945  42.997  53.427  1.00  0.00     0.030 A 
BRANCH  14  19
ATOM     19  O   UNL     1      -2.584  43.514  54.457  1.00  0.00    -0.497 OA
ATOM     20  C   UNL     1      -3.270  44.703  54.829  1.00  0.00     0.278 C 
ENDBRANCH  14  19
ENDBRANCH  11  13
ENDBRANCH   1  11
BRANCH   3  21
ATOM     21  N   UNL     1       6.317  46.199  51.457  1.00  0.00    -0.362 N 
ATOM     22  H   UNL     1       7.234  45.893  51.139  1.00  0.00     0.162 HD
BRANCH  21  23
ATOM     23  C   UNL     1       6.468  47.122  52.578  1.00  0.00     0.190 C 
BRANCH  23  24
ATOM     24  C   UNL     1       7.871  47.179  53.083  1.00  0.00     0.122 A 
ATOM     25  C   UNL     1       9.092  46.842  52.537  1.00  0.00     0.047 A 
ATOM     26  O   UNL     1       8.042  47.637  54.359  1.00  0.00    -0.467 OA
ATOM     27  C   UNL     1      10.064  47.118  53.528  1.00  0.00     0.042 A 
ATOM     28  C   UNL     1       9.375  47.600  54.617  1.00  0.00     0.195 A 
ENDBRANCH  23  24
ENDBRANCH  21  23
ENDBRANCH   3  21
TORSDOF 6
ENDMDL
MODEL 6
REMARK VINA RESULT:    -8.971      2.449      7.161
REMARK INTER + INTRA:         -12.946
REMARK INTER:                 -12.387
REMARK INTRA:                  -0.559
REMARK UNBOUND:                -0.829
REMARK SMILES COc1ccc(Nc2nc(NCc3ccco3)c3ccccc3n2)cc1
REMARK SMILES IDX 8 1 9 2 10 3 18 4 19 5 20 6 21 7 22 8 23 9 24 10 7 11 6 13
REMARK SMILES IDX 3 14 4 15 26 16 5 17 25 18 2 19 1 20 11 21 12 23 13 24 14 25
REMARK SMILES IDX 17 26 15 27 16 28
REMARK H PARENT 7 12 11 22
ROOT
ATOM      1  C   UNL     1       6.762  44.770  50.924  1.00  0.00     0.229 A 
ATOM      2  N   UNL     1       5.857  44.592  51.899  1.00  0.00    -0.195 NA
ATOM      3  C   UNL     1       4.963  43.597  51.767  1.00  0.00     0.139 A 
ATOM      4  C   UNL     1       4.980  42.726  50.666  1.00  0.00     0.043 A 
ATOM      5  C   UNL     1       4.106  41.624  50.477  1.00  0.00     0.014 A 
ATOM      6  C   UNL     1       4.198  40.824  49.340  1.00  0.00     0.001 A 
ATOM      7  C   UNL     1       5.163  41.112  48.386  1.00  0.00     0.002 A 
ATOM      8  C   UNL     1       6.029  42.192  48.579  1.00  0.00     0.029 A 
ATOM      9  C   UNL     1       5.957  43.002  49.708  1.00  0.00     0.078 A 
ATOM     10  N   UNL     1       6.825  44.007  49.830  1.00  0.00    -0.213 NA
ENDROOT
BRANCH   1  11
ATOM     11  N   UNL     1       7.642  45.829  51.136  1.00  0.00    -0.324 N 
ATOM     12  H   UNL     1       7.871  46.243  50.245  1.00  0.00     0.170 HD
BRANCH  11  13
ATOM     13  C   UNL     1       8.209  46.412  52.273  1.00  0.00     0.041 A 
ATOM     14  C   UNL     1       9.494  47.537  54.540  1.00  0.00     0.119 A 
ATOM     15  C   UNL     1       8.117  47.659  54.364  1.00  0.00     0.048 A 
ATOM     16  C   UNL     1      10.235  46.850  53.584  1.00  0.00     0.048 A 
ATOM     17  C   UNL     1       7.483  47.103  53.244  1.00  0.00     0.030 A 
ATOM     18  C   UNL     1       9.596  46.296  52.466  1.00  0.00     0.030 A 
BRANCH  14  19
ATOM     19  O   UNL     1       9.983  48.125  55.673  1.00  0.00    -0.497 OA
ATOM     20  C   UNL     1      11.128  47.524  56.265  1.00  0.00     0.278 C 
ENDBRANCH  14  19
ENDBRANCH  11  13
ENDBRANCH   1  11
BRANCH   3  21
ATOM     21  N   UNL     1       4.008  43.403  52.787  1.00  0.00    -0.362 N 
ATOM     22  H   UNL     1       3.629  42.461  52.714  1.00  0.00     0.162 HD
BRANCH  21  23
ATOM     23  C   UNL     1       2.917  44.373  52.807  1.00  0.00     0.190 C 
BRANCH  23  24
ATOM     24  C   UNL     1       3.369  45.729  53.233  1.00  0.00     0.122 A 
ATOM     25  C   UNL     1       3.378  46.964  52.618  1.00  0.00     0.047 A 
ATOM     26  O   UNL     1       3.917  45.826  54.480  1.00  0.00    -0.467 OA
ATOM     27  C   UNL     1       3.953  47.867  53.544  1.00  0.00     0.042 A 
ATOM     28  C   UNL     1       4.263  47.126  54.660  1.00  0.00     0.195 A 
ENDBRANCH  23  24
ENDBRANCH  21  23
ENDBRANCH   3  21
TORSDOF 6
ENDMDL
MODEL 7
REMARK VINA RESULT:    -8.961      2.225      7.296
REMARK INTER + INTRA:         -12.933
REMARK INTER:                 -12.435
REMARK INTRA:                  -0.499
REMARK UNBOUND:                -0.829
REMARK SMILES COc1ccc(Nc2nc(NCc3ccco3)c3ccccc3n2)cc1
REMARK SMILES IDX 8 1 9 2 10 3 18 4 19 5 20 6 21 7 22 8 23 9 24 10 7 11 6 13
REMARK SMILES IDX 3 14 4 15 26 16 5 17 25 18 2 19 1 20 11 21 12 23 13 24 14 25
REMARK SMILES IDX 17 26 15 27 16 28
REMARK H PARENT 7 12 11 22
ROOT
ATOM      1  C   UNL     1       6.454  44.859  51.100  1.00  0.00     0.229 A 
ATOM      2  N   UNL     1       5.500  44.744  52.035  1.00  0.00    -0.195 NA
ATOM      3  C   UNL     1       4.618  43.735  51.928  1.00  0.00     0.139 A 
ATOM      4  C   UNL     1       4.697  42.788  50.895  1.00  0.00     0.043 A 
ATOM      5  C   UNL     1       3.838  41.668  50.740  1.00  0.00     0.014 A 
ATOM      6  C   UNL     1       3.995  40.790  49.670  1.00  0.00     0.001 A 
ATOM      7  C   UNL     1       5.008  41.015  48.750  1.00  0.00     0.002 A 
ATOM      8  C   UNL     1       5.859  42.113  48.911  1.00  0.00     0.029 A 
ATOM      9  C   UNL     1       5.723  43.001  49.973  1.00  0.00     0.078 A 
ATOM     10  N   UNL     1       6.579  44.019  50.068  1.00  0.00    -0.213 NA
ENDROOT
BRANCH   1  11
ATOM     11  N   UNL     1       7.317  45.937  51.282  1.00  0.00    -0.324 N 
ATOM     12  H   UNL     1       7.458  46.393  50.393  1.00  0.00     0.170 HD
BRANCH  11  13
ATOM     13  C   UNL     1       7.963  46.492  52.390  1.00  0.00     0.041 A 
ATOM     14  C   UNL     1       9.405  47.581  54.579  1.00  0.00     0.119 A 
ATOM     15  C   UNL     1       8.011  47.560  54.579  1.00  0.00     0.048 A 
ATOM     16  C   UNL     1      10.084  47.056  53.484  1.00  0.00     0.048 A 
ATOM     17  C   UNL     1       7.300  47.022  53.498  1.00  0.00     0.030 A 
ATOM     18  C   UNL     1       9.367  46.519  52.405  1.00  0.00     0.030 A 
BRANCH  14  19
ATOM     19  O   UNL     1       9.972  48.133  55.693  1.00  0.00    -0.497 OA
ATOM     20  C   UNL     1      11.120  47.480  56.220  1.00  0.00     0.278 C 
ENDBRANCH  14  19
ENDBRANCH  11  13
ENDBRANCH   1  11
BRANCH   3  21
ATOM     21  N   UNL     1       3.610  43.607  52.907  1.00  0.00    -0.362 N 
ATOM     22  H   UNL     1       2.722  43.412  52.450  1.00  0.00     0.162 HD
BRANCH  21  23
ATOM     23  C   UNL     1       3.462  44.755  53.798  1.00  0.00     0.190 C 
BRANCH  23  24
ATOM     24  C   UNL     1       2.136  44.779  54.481  1.00  0.00     0.122 A 
ATOM     25  C   UNL     1       1.712  45.214  55.719  1.00  0.00     0.047 A 
ATOM     26  O   UNL     1       1.083  44.253  53.786  1.00  0.00    -0.467 OA
ATOM     27  C   UNL     1       0.323  44.950  55.781  1.00  0.00     0.042 A 
ATOM     28  C   UNL     1      -0.011  44.366  54.582  1.00  0.00     0.195 A 
ENDBRANCH  23  24
ENDBRANCH  21  23
ENDBRANCH   3  21
TORSDOF 6
ENDMDL
MODEL 8
REMARK VINA RESULT:    -8.932      0.925      1.136
REMARK INTER + INTRA:         -12.894
REMARK INTER:                 -12.382
REMARK INTRA:                  -0.512
REMARK UNBOUND:                -0.829
REMARK SMILES COc1ccc(Nc2nc(NCc3ccco3)c3ccccc3n2)cc1
REMARK SMILES IDX 8 1 9 2 10 3 18 4 19 5 20 6 21 7 22 8 23 9 24 10 7 11 6 13
REMARK SMILES IDX 3 14 4 15 26 16 5 17 25 18 2 19 1 20 11 21 12 23 13 24 14 25
REMARK SMILES IDX 17 26 15 27 16 28
REMARK H PARENT 7 12 11 22
ROOT
ATOM      1  C   UNL     1       5.330  46.886  53.247  1.00  0.00     0.229 A 
ATOM      2  N   UNL     1       5.361  46.285  52.048  1.00  0.00    -0.195 NA
ATOM      3  C   UNL     1       6.556  46.070  51.472  1.00  0.00     0.139 A 
ATOM      4  C   UNL     1       7.759  46.420  52.106  1.00  0.00     0.043 A 
ATOM      5  C   UNL     1       9.060  46.182  51.590  1.00  0.00     0.014 A 
ATOM      6  C   UNL     1      10.193  46.579  52.295  1.00  0.00     0.001 A 
ATOM      7  C   UNL     1      10.042  47.210  53.521  1.00  0.00     0.002 A 
ATOM      8  C   UNL     1       8.760  47.434  54.033  1.00  0.00     0.029 A 
ATOM      9  C   UNL     1       7.615  47.044  53.347  1.00  0.00     0.078 A 
ATOM     10  N   UNL     1       6.425  47.279  53.903  1.00  0.00    -0.213 NA
ENDROOT
BRANCH   1  11
ATOM     11  N   UNL     1       4.051  47.079  53.766  1.00  0.00    -0.324 N 
ATOM     12  H   UNL     1       3.960  48.042  54.052  1.00  0.00     0.170 HD
BRANCH  11  13
ATOM     13  C   UNL     1       2.932  46.259  53.929  1.00  0.00     0.041 A 
ATOM     14  C   UNL     1       0.713  44.551  54.393  1.00  0.00     0.119 A 
ATOM     15  C   UNL     1       0.851  45.234  53.186  1.00  0.00     0.048 A 
ATOM     16  C   UNL     1       1.686  44.718  55.373  1.00  0.00     0.048 A 
ATOM     17  C   UNL     1       1.947  46.077  52.957  1.00  0.00     0.030 A 
ATOM     18  C   UNL     1       2.780  45.563  55.139  1.00  0.00     0.030 A 
BRANCH  14  19
ATOM     19  O   UNL     1      -0.400  43.764  54.485  1.00  0.00    -0.497 OA
ATOM     20  C   UNL     1      -1.455  44.238  55.313  1.00  0.00     0.278 C 
ENDBRANCH  14  19
ENDBRANCH  11  13
ENDBRANCH   1  11
BRANCH   3  21
ATOM     21  N   UNL     1       6.599  45.438  50.211  1.00  0.00    -0.362 N 
ATOM     22  H   UNL     1       5.689  45.525  49.763  1.00  0.00     0.162 HD
BRANCH  21  23
ATOM     23  C   UNL     1       7.003  44.035  50.235  1.00  0.00     0.190 C 
BRANCH  23  24
ATOM     24  C   UNL     1       5.839  43.109  50.351  1.00  0.00     0.122 A 
ATOM     25  C   UNL     1       4.710  43.097  51.144  1.00  0.00     0.047 A 
ATOM     26  O   UNL     1       5.848  42.013  49.536  1.00  0.00    -0.467 OA
ATOM     27  C   UNL     1       3.984  41.936  50.787  1.00  0.00     0.042 A 
ATOM     28  C   UNL     1       4.717  41.311  49.806  1.00  0.00     0.195 A 
ENDBRANCH  23  24
ENDBRANCH  21  23
ENDBRANCH   3  21
TORSDOF 6
ENDMDL
MODEL 9
REMARK VINA RESULT:    -8.664      2.065      6.495
REMARK INTER + INTRA:         -12.531
REMARK INTER:                 -11.577
REMARK INTRA:                  -0.954
REMARK UNBOUND:                -0.829
REMARK SMILES COc1ccc(Nc2nc(NCc3ccco3)c3ccccc3n2)cc1
REMARK SMILES IDX 8 1 9 2 10 3 18 4 19 5 20 6 21 7 22 8 23 9 24 10 7 11 6 13
REMARK SMILES IDX 3 14 4 15 26 16 5 17 25 18 2 19 1 20 11 21 12 23 13 24 14 25
REMARK SMILES IDX 17 26 15 27 16 28
REMARK H PARENT 7 12 11 22
ROOT
ATOM      1  C   UNL     1       3.574  45.756  53.475  1.00  0.00     0.229 A 
ATOM      2  N   UNL     1       3.981  44.576  52.985  1.00  0.00    -0.195 NA
ATOM      3  C   UNL     1       3.118  43.545  52.998  1.00  0.00     0.139 A 
ATOM      4  C   UNL     1       1.804  43.685  53.471  1.00  0.00     0.043 A 
ATOM      5  C   UNL     1       0.818  42.663  53.474  1.00  0.00     0.014 A 
ATOM      6  C   UNL     1      -0.459  42.902  53.976  1.00  0.00     0.001 A 
ATOM      7  C   UNL     1      -0.766  44.159  54.476  1.00  0.00     0.002 A 
ATOM      8  C   UNL     1       0.203  45.167  54.464  1.00  0.00     0.029 A 
ATOM      9  C   UNL     1       1.483  44.952  53.964  1.00  0.00     0.078 A 
ATOM     10  N   UNL     1       2.351  45.964  53.972  1.00  0.00    -0.213 NA
ENDROOT
BRANCH   1  11
ATOM     11  N   UNL     1       4.533  46.764  53.432  1.00  0.00    -0.324 N 
ATOM     12  H   UNL     1       4.083  47.648  53.615  1.00  0.00     0.170 HD
BRANCH  11  13
ATOM     13  C   UNL     1       5.916  46.785  53.227  1.00  0.00     0.041 A 
ATOM     14  C   UNL     1       8.741  46.851  52.958  1.00  0.00     0.119 A 
ATOM     15  C   UNL     1       7.917  46.737  51.839  1.00  0.00     0.048 A 
ATOM     16  C   UNL     1       8.154  46.935  54.217  1.00  0.00     0.048 A 
ATOM     17  C   UNL     1       6.523  46.705  51.972  1.00  0.00     0.030 A 
ATOM     18  C   UNL     1       6.758  46.902  54.344  1.00  0.00     0.030 A 
BRANCH  14  19
ATOM     19  O   UNL     1      10.080  46.870  52.687  1.00  0.00    -0.497 OA
ATOM     20  C   UNL     1      10.535  46.024  51.637  1.00  0.00     0.278 C 
ENDBRANCH  14  19
ENDBRANCH  11  13
ENDBRANCH   1  11
BRANCH   3  21
ATOM     21  N   UNL     1       3.538  42.300  52.485  1.00  0.00    -0.362 N 
ATOM     22  H   UNL     1       4.449  42.068  52.875  1.00  0.00     0.162 HD
BRANCH  21  23
ATOM     23  C   UNL     1       3.593  42.218  51.027  1.00  0.00     0.190 C 
BRANCH  23  24
ATOM     24  C   UNL     1       4.984  42.346  50.502  1.00  0.00     0.122 A 
ATOM     25  C   UNL     1       5.776  43.424  50.166  1.00  0.00     0.047 A 
ATOM     26  O   UNL     1       5.657  41.181  50.268  1.00  0.00    -0.467 OA
ATOM     27  C   UNL     1       7.005  42.888  49.711  1.00  0.00     0.042 A 
ATOM     28  C   UNL     1       6.882  41.521  49.793  1.00  0.00     0.195 A 
ENDBRANCH  23  24
ENDBRANCH  21  23
ENDBRANCH   3  21
TORSDOF 6
ENDMDL
MODEL 10
REMARK VINA RESULT:    -8.537      1.594      4.959
REMARK INTER + INTRA:         -12.360
REMARK INTER:                 -11.513
REMARK INTRA:                  -0.847
REMARK UNBOUND:                -0.829
REMARK SMILES COc1ccc(Nc2nc(NCc3ccco3)c3ccccc3n2)cc1
REMARK SMILES IDX 8 1 9 2 10 3 18 4 19 5 20 6 21 7 22 8 23 9 24 10 7 11 6 13
REMARK SMILES IDX 3 14 4 15 26 16 5 17 25 18 2 19 1 20 11 21 12 23 13 24 14 25
REMARK SMILES IDX 17 26 15 27 16 28
REMARK H PARENT 7 12 11 22
ROOT
ATOM      1  C   UNL     1       7.016  45.448  51.312  1.00  0.00     0.229 A 
ATOM      2  N   UNL     1       6.007  46.101  51.906  1.00  0.00    -0.195 NA
ATOM      3  C   UNL     1       6.285  46.876  52.969  1.00  0.00     0.139 A 
ATOM      4  C   UNL     1       7.596  47.047  53.439  1.00  0.00     0.043 A 
ATOM      5  C   UNL     1       7.980  47.884  54.520  1.00  0.00     0.014 A 
ATOM      6  C   UNL     1       9.311  47.975  54.917  1.00  0.00     0.001 A 
ATOM      7  C   UNL     1      10.272  47.239  54.240  1.00  0.00     0.002 A 
ATOM      8  C   UNL     1       9.894  46.423  53.169  1.00  0.00     0.029 A 
ATOM      9  C   UNL     1       8.571  46.319  52.754  1.00  0.00     0.078 A 
ATOM     10  N   UNL     1       8.287  45.531  51.716  1.00  0.00    -0.213 NA
ENDROOT
BRANCH   1  11
ATOM     11  N   UNL     1       6.638  44.660  50.227  1.00  0.00    -0.324 N 
ATOM     12  H   UNL     1       7.065  45.032  49.392  1.00  0.00     0.170 HD
BRANCH  11  13
ATOM     13  C   UNL     1       5.856  43.511  50.083  1.00  0.00     0.041 A 
ATOM     14  C   UNL     1       4.345  41.144  49.666  1.00  0.00     0.119 A 
ATOM     15  C   UNL     1       4.043  42.012  50.715  1.00  0.00     0.048 A 
ATOM     16  C   UNL     1       5.404  41.458  48.820  1.00  0.00     0.048 A 
ATOM     17  C   UNL     1       4.789  43.180  50.920  1.00  0.00     0.030 A 
ATOM     18  C   UNL     1       6.147  42.628  49.030  1.00  0.00     0.030 A 
BRANCH  14  19
ATOM     19  O   UNL     1       3.541  40.043  49.581  1.00  0.00    -0.497 OA
ATOM     20  C   UNL     1       3.341  39.493  48.284  1.00  0.00     0.278 C 
ENDBRANCH  14  19
ENDBRANCH  11  13
ENDBRANCH   1  11
BRANCH   3  21
ATOM     21  N   UNL     1       5.229  47.567  53.600  1.00  0.00    -0.362 N 
ATOM     22  H   UNL     1       5.600  48.395  54.062  1.00  0.00     0.162 HD
BRANCH  21  23
ATOM     23  C   UNL     1       4.456  46.777  54.555  1.00  0.00     0.190 C 
BRANCH  23  24
ATOM     24  C   UNL     1       3.310  46.071  53.912  1.00  0.00     0.122 A 
ATOM     25  C   UNL     1       2.872  44.763  53.925  1.00  0.00     0.047 A 
ATOM     26  O   UNL     1       2.497  46.826  53.115  1.00  0.00    -0.467 OA
ATOM     27  C   UNL     1       1.724  44.717  53.099  1.00  0.00     0.042 A 
ATOM     28  C   UNL     1       1.537  45.997  52.631  1.00  0.00     0.195 A 
ENDBRANCH  23  24
ENDBRANCH  21  23
ENDBRANCH   3  21
TORSDOF 6
ENDMDL
MODEL 11
REMARK VINA RESULT:    -8.512      2.527      7.088
REMARK INTER + INTRA:         -12.326
REMARK INTER:                 -11.562
REMARK INTRA:                  -0.764
REMARK UNBOUND:                -0.829
REMARK SMILES COc1ccc(Nc2nc(NCc3ccco3)c3ccccc3n2)cc1
REMARK SMILES IDX 8 1 9 2 10 3 18 4 19 5 20 6 21 7 22 8 23 9 24 10 7 11 6 13
REMARK SMILES IDX 3 14 4 15 26 16 5 17 25 18 2 19 1 20 11 21 12 23 13 24 14 25
REMARK SMILES IDX 17 26 15 27 16 28
REMARK H PARENT 7 12 11 22
ROOT
ATOM      1  C   UNL     1       2.381  43.566  53.110  1.00  0.00     0.229 A 
ATOM      2  N   UNL     1       3.305  44.278  53.773  1.00  0.00    -0.195 NA
ATOM      3  C   UNL     1       2.918  44.982  54.851  1.00  0.00     0.139 A 
ATOM      4  C   UNL     1       1.594  44.956  55.316  1.00  0.00     0.043 A 
ATOM      5  C   UNL     1       1.116  45.628  56.472  1.00  0.00     0.014 A 
ATOM      6  C   UNL     1      -0.224  45.547  56.844  1.00  0.00     0.001 A 
ATOM      7  C   UNL     1      -1.097  44.794  56.073  1.00  0.00     0.002 A 
ATOM      8  C   UNL     1      -0.622  44.124  54.941  1.00  0.00     0.029 A 
ATOM      9  C   UNL     1       0.712  44.189  54.553  1.00  0.00     0.078 A 
ATOM     10  N   UNL     1       1.095  43.514  53.469  1.00  0.00    -0.213 NA
ENDROOT
BRANCH   1  11
ATOM     11  N   UNL     1       2.866  42.877  52.001  1.00  0.00    -0.324 N 
ATOM     12  H   UNL     1       2.158  42.230  51.687  1.00  0.00     0.170 HD
BRANCH  11  13
ATOM     13  C   UNL     1       4.054  42.925  51.267  1.00  0.00     0.041 A 
ATOM     14  C   UNL     1       6.457  42.874  49.756  1.00  0.00     0.119 A 
ATOM     15  C   UNL     1       6.007  44.054  50.347  1.00  0.00     0.048 A 
ATOM     16  C   UNL     1       5.706  41.714  49.919  1.00  0.00     0.048 A 
ATOM     17  C   UNL     1       4.821  44.078  51.093  1.00  0.00     0.030 A 
ATOM     18  C   UNL     1       4.521  41.744  50.667  1.00  0.00     0.030 A 
BRANCH  14  19
ATOM     19  O   UNL     1       7.625  42.990  49.057  1.00  0.00    -0.497 OA
ATOM     20  C   UNL     1       8.351  44.202  49.217  1.00  0.00     0.278 C 
ENDBRANCH  14  19
ENDBRANCH  11  13
ENDBRANCH   1  11
BRANCH   3  21
ATOM     21  N   UNL     1       3.883  45.734  55.554  1.00  0.00    -0.362 N 
ATOM     22  H   UNL     1       3.522  45.958  56.478  1.00  0.00     0.162 HD
BRANCH  21  23
ATOM     23  C   UNL     1       4.321  46.957  54.886  1.00  0.00     0.190 C 
BRANCH  23  24
ATOM     24  C   UNL     1       5.581  46.761  54.110  1.00  0.00     0.122 A 
ATOM     25  C   UNL     1       6.555  45.785  54.111  1.00  0.00     0.047 A 
ATOM     26  O   UNL     1       5.896  47.733  53.204  1.00  0.00    -0.467 OA
ATOM     27  C   UNL     1       7.514  46.177  53.146  1.00  0.00     0.042 A 
ATOM     28  C   UNL     1       7.066  47.367  52.622  1.00  0.00     0.195 A 
ENDBRANCH  23  24
ENDBRANCH  21  23
ENDBRANCH   3  21
TORSDOF 6
ENDMDL
MODEL 12
REMARK VINA RESULT:    -8.511      2.769      6.081
REMARK INTER + INTRA:         -12.325
REMARK INTER:                 -11.468
REMARK INTRA:                  -0.857
REMARK UNBOUND:                -0.829
REMARK SMILES COc1ccc(Nc2nc(NCc3ccco3)c3ccccc3n2)cc1
REMARK SMILES IDX 8 1 9 2 10 3 18 4 19 5 20 6 21 7 22 8 23 9 24 10 7 11 6 13
REMARK SMILES IDX 3 14 4 15 26 16 5 17 25 18 2 19 1 20 11 21 12 23 13 24 14 25
REMARK SMILES IDX 17 26 15 27 16 28
REMARK H PARENT 7 12 11 22
ROOT
ATOM      1  C   UNL     1       7.254  43.640  49.348  1.00  0.00     0.229 A 
ATOM      2  N   UNL     1       6.142  44.265  49.764  1.00  0.00    -0.195 NA
ATOM      3  C   UNL     1       6.268  45.289  50.625  1.00  0.00     0.139 A 
ATOM      4  C   UNL     1       7.523  45.740  51.062  1.00  0.00     0.043 A 
ATOM      5  C   UNL     1       7.745  46.843  51.928  1.00  0.00     0.014 A 
ATOM      6  C   UNL     1       9.034  47.204  52.311  1.00  0.00     0.001 A 
ATOM      7  C   UNL     1      10.113  46.474  51.833  1.00  0.00     0.002 A 
ATOM      8  C   UNL     1       9.893  45.395  50.972  1.00  0.00     0.029 A 
ATOM      9  C   UNL     1       8.615  45.019  50.574  1.00  0.00     0.078 A 
ATOM     10  N   UNL     1       8.483  43.986  49.741  1.00  0.00    -0.213 NA
ENDROOT
BRANCH   1  11
ATOM     11  N   UNL     1       7.031  42.585  48.467  1.00  0.00    -0.324 N 
ATOM     12  H   UNL     1       7.909  42.326  48.042  1.00  0.00     0.170 HD
BRANCH  11  13
ATOM     13  C   UNL     1       5.905  41.841  48.102  1.00  0.00     0.041 A 
ATOM     14  C   UNL     1       3.640  40.376  47.218  1.00  0.00     0.119 A 
ATOM     15  C   UNL     1       3.965  40.446  48.572  1.00  0.00     0.048 A 
ATOM     16  C   UNL     1       4.447  41.040  46.300  1.00  0.00     0.048 A 
ATOM     17  C   UNL     1       5.083  41.170  49.008  1.00  0.00     0.030 A 
ATOM     18  C   UNL     1       5.565  41.763  46.741  1.00  0.00     0.030 A 
BRANCH  14  19
ATOM     19  O   UNL     1       2.527  39.638  46.930  1.00  0.00    -0.497 OA
ATOM     20  C   UNL     1       2.708  38.502  46.092  1.00  0.00     0.278 C 
ENDBRANCH  14  19
ENDBRANCH  11  13
ENDBRANCH   1  11
BRANCH   3  21
ATOM     21  N   UNL     1       5.104  45.952  51.067  1.00  0.00    -0.362 N 
ATOM     22  H   UNL     1       5.371  46.788  51.583  1.00  0.00     0.162 HD
BRANCH  21  23
ATOM     23  C   UNL     1       4.200  45.141  51.879  1.00  0.00     0.190 C 
BRANCH  23  24
ATOM     24  C   UNL     1       4.529  45.207  53.333  1.00  0.00     0.122 A 
ATOM     25  C   UNL     1       5.521  44.645  54.109  1.00  0.00     0.047 A 
ATOM     26  O   UNL     1       3.692  45.953  54.114  1.00  0.00    -0.467 OA
ATOM     27  C   UNL     1       5.284  45.079  55.436  1.00  0.00     0.042 A 
ATOM     28  C   UNL     1       4.162  45.872  55.385  1.00  0.00     0.195 A 
ENDBRANCH  23  24
ENDBRANCH  21  23
ENDBRANCH   3  21
TORSDOF 6
ENDMDL
MODEL 13
REMARK VINA RESULT:    -8.505      1.924      4.674
REMARK INTER + INTRA:         -12.316
REMARK INTER:                 -11.798
REMARK INTRA:                  -0.518
REMARK UNBOUND:                -0.829
REMARK SMILES COc1ccc(Nc2nc(NCc3ccco3)c3ccccc3n2)cc1
REMARK SMILES IDX 8 1 9 2 10 3 18 4 19 5 20 6 21 7 22 8 23 9 24 10 7 11 6 13
REMARK SMILES IDX 3 14 4 15 26 16 5 17 25 18 2 19 1 20 11 21 12 23 13 24 14 25
REMARK SMILES IDX 17 26 15 27 16 28
REMARK H PARENT 7 12 11 22
ROOT
ATOM      1  C   UNL     1       5.139  45.929  52.343  1.00  0.00     0.229 A 
ATOM      2  N   UNL     1       6.234  46.687  52.189  1.00  0.00    -0.195 NA
ATOM      3  C   UNL     1       7.195  46.262  51.351  1.00  0.00     0.139 A 
ATOM      4  C   UNL     1       7.061  45.076  50.611  1.00  0.00     0.043 A 
ATOM      5  C   UNL     1       8.003  44.584  49.669  1.00  0.00     0.014 A 
ATOM      6  C   UNL     1       7.779  43.387  48.993  1.00  0.00     0.001 A 
ATOM      7  C   UNL     1       6.616  42.674  49.243  1.00  0.00     0.002 A 
ATOM      8  C   UNL     1       5.685  43.166  50.163  1.00  0.00     0.029 A 
ATOM      9  C   UNL     1       5.886  44.360  50.848  1.00  0.00     0.078 A 
ATOM     10  N   UNL     1       4.948  44.773  51.701  1.00  0.00    -0.213 NA
ENDROOT
BRANCH   1  11
ATOM     11  N   UNL     1       4.201  46.439  53.237  1.00  0.00    -0.324 N 
ATOM     12  H   UNL     1       4.486  47.367  53.512  1.00  0.00     0.170 HD
BRANCH  11  13
ATOM     13  C   UNL     1       3.003  45.958  53.772  1.00  0.00     0.041 A 
ATOM     14  C   UNL     1       0.642  44.954  54.988  1.00  0.00     0.119 A 
ATOM     15  C   UNL     1       0.651  45.336  53.647  1.00  0.00     0.048 A 
ATOM     16  C   UNL     1       1.815  45.071  55.726  1.00  0.00     0.048 A 
ATOM     17  C   UNL     1       1.817  45.831  53.047  1.00  0.00     0.030 A 
ATOM     18  C   UNL     1       2.979  45.567  55.121  1.00  0.00     0.030 A 
BRANCH  14  19
ATOM     19  O   UNL     1      -0.558  44.490  55.446  1.00  0.00    -0.497 OA
ATOM     20  C   UNL     1      -1.326  43.697  54.547  1.00  0.00     0.278 C 
ENDBRANCH  14  19
ENDBRANCH  11  13
ENDBRANCH   1  11
BRANCH   3  21
ATOM     21  N   UNL     1       8.351  47.053  51.183  1.00  0.00    -0.362 N 
ATOM     22  H   UNL     1       8.584  47.098  50.194  1.00  0.00     0.162 HD
BRANCH  21  23
ATOM     23  C   UNL     1       9.517  46.614  51.944  1.00  0.00     0.190 C 
BRANCH  23  24
ATOM     24  C   UNL     1       9.561  47.209  53.312  1.00  0.00     0.122 A 
ATOM     25  C   UNL     1       8.799  48.159  53.959  1.00  0.00     0.047 A 
ATOM     26  O   UNL     1      10.559  46.771  54.136  1.00  0.00    -0.467 OA
ATOM     27  C   UNL     1       9.354  48.303  55.254  1.00  0.00     0.042 A 
ATOM     28  C   UNL     1      10.421  47.437  55.311  1.00  0.00     0.195 A 
ENDBRANCH  23  24
ENDBRANCH  21  23
ENDBRANCH   3  21
TORSDOF 6
ENDMDL
MODEL 14
REMARK VINA RESULT:    -8.383      2.810      6.615
REMARK INTER + INTRA:         -12.152
REMARK INTER:                 -11.451
REMARK INTRA:                  -0.700
REMARK UNBOUND:                -0.829
REMARK SMILES COc1ccc(Nc2nc(NCc3ccco3)c3ccccc3n2)cc1
REMARK SMILES IDX 8 1 9 2 10 3 18 4 19 5 20 6 21 7 22 8 23 9 24 10 7 11 6 13
REMARK SMILES IDX 3 14 4 15 26 16 5 17 25 18 2 19 1 20 11 21 12 23 13 24 14 25
REMARK SMILES IDX 17 26 15 27 16 28
REMARK H PARENT 7 12 11 22
ROOT
ATOM      1  C   UNL     1       6.002  45.004  51.200  1.00  0.00     0.229 A 
ATOM      2  N   UNL     1       6.215  43.736  50.820  1.00  0.00    -0.195 NA
ATOM      3  C   UNL     1       5.156  42.915  50.709  1.00  0.00     0.139 A 
ATOM      4  C   UNL     1       3.845  43.361  50.940  1.00  0.00     0.043 A 
ATOM      5  C   UNL     1       2.671  42.575  50.796  1.00  0.00     0.014 A 
ATOM      6  C   UNL     1       1.414  43.112  51.060  1.00  0.00     0.001 A 
ATOM      7  C   UNL     1       1.313  44.434  51.465  1.00  0.00     0.002 A 
ATOM      8  C   UNL     1       2.469  45.210  51.597  1.00  0.00     0.029 A 
ATOM      9  C   UNL     1       3.734  44.696  51.335  1.00  0.00     0.078 A 
ATOM     10  N   UNL     1       4.791  45.499  51.470  1.00  0.00    -0.213 NA
ENDROOT
BRANCH   1  11
ATOM     11  N   UNL     1       7.154  45.781  51.300  1.00  0.00    -0.324 N 
ATOM     12  H   UNL     1       7.523  45.933  50.374  1.00  0.00     0.170 HD
BRANCH  11  13
ATOM     13  C   UNL     1       7.838  46.376  52.363  1.00  0.00     0.041 A 
ATOM     14  C   UNL     1       9.096  47.605  54.592  1.00  0.00     0.119 A 
ATOM     15  C   UNL     1       9.834  47.228  53.471  1.00  0.00     0.048 A 
ATOM     16  C   UNL     1       7.725  47.370  54.602  1.00  0.00     0.048 A 
ATOM     17  C   UNL     1       9.212  46.622  52.371  1.00  0.00     0.030 A 
ATOM     18  C   UNL     1       7.108  46.763  53.499  1.00  0.00     0.030 A 
BRANCH  14  19
ATOM     19  O   UNL     1       9.825  48.184  55.592  1.00  0.00    -0.497 OA
ATOM     20  C   UNL     1      10.954  47.461  56.065  1.00  0.00     0.278 C 
ENDBRANCH  14  19
ENDBRANCH  11  13
ENDBRANCH   1  11
BRANCH   3  21
ATOM     21  N   UNL     1       5.370  41.579  50.310  1.00  0.00    -0.362 N 
ATOM     22  H   UNL     1       5.807  41.068  51.074  1.00  0.00     0.162 HD
BRANCH  21  23
ATOM     23  C   UNL     1       6.162  41.416  49.093  1.00  0.00     0.190 C 
BRANCH  23  24
ATOM     24  C   UNL     1       5.312  41.211  47.885  1.00  0.00     0.122 A 
ATOM     25  C   UNL     1       5.448  41.560  46.557  1.00  0.00     0.047 A 
ATOM     26  O   UNL     1       4.125  40.561  48.077  1.00  0.00    -0.467 OA
ATOM     27  C   UNL     1       4.286  41.089  45.899  1.00  0.00     0.042 A 
ATOM     28  C   UNL     1       3.514  40.489  46.866  1.00  0.00     0.195 A 
ENDBRANCH  23  24
ENDBRANCH  21  23
ENDBRANCH   3  21
TORSDOF 6
ENDMDL
MODEL 15
REMARK VINA RESULT:    -8.333      3.261      7.113
REMARK INTER + INTRA:         -12.084
REMARK INTER:                 -11.260
REMARK INTRA:                  -0.824
REMARK UNBOUND:                -0.829
REMARK SMILES COc1ccc(Nc2nc(NCc3ccco3)c3ccccc3n2)cc1
REMARK SMILES IDX 8 1 9 2 10 3 18 4 19 5 20 6 21 7 22 8 23 9 24 10 7 11 6 13
REMARK SMILES IDX 3 14 4 15 26 16 5 17 25 18 2 19 1 20 11 21 12 23 13 24 14 25
REMARK SMILES IDX 17 26 15 27 16 28
REMARK H PARENT 7 12 11 22
ROOT
ATOM      1  C   UNL     1       5.664  42.843  50.148  1.00  0.00     0.229 A 
ATOM      2  N   UNL     1       6.522  43.858  49.968  1.00  0.00    -0.195 NA
ATOM      3  C   UNL     1       6.425  44.928  50.776  1.00  0.00     0.139 A 
ATOM      4  C   UNL     1       5.484  44.989  51.816  1.00  0.00     0.043 A 
ATOM      5  C   UNL     1       5.351  46.057  52.742  1.00  0.00     0.014 A 
ATOM      6  C   UNL     1       4.374  46.025  53.734  1.00  0.00     0.001 A 
ATOM      7  C   UNL     1       3.527  44.930  53.817  1.00  0.00     0.002 A 
ATOM      8  C   UNL     1       3.667  43.874  52.910  1.00  0.00     0.029 A 
ATOM      9  C   UNL     1       4.637  43.884  51.913  1.00  0.00     0.078 A 
ATOM     10  N   UNL     1       4.719  42.836  51.092  1.00  0.00    -0.213 NA
ENDROOT
BRANCH   1  11
ATOM     11  N   UNL     1       5.827  41.781  49.261  1.00  0.00    -0.324 N 
ATOM     12  H   UNL     1       6.553  41.175  49.612  1.00  0.00     0.170 HD
BRANCH  11  13
ATOM     13  C   UNL     1       5.201  41.400  48.071  1.00  0.00     0.041 A 
ATOM     14  C   UNL     1       4.025  40.715  45.580  1.00  0.00     0.119 A 
ATOM     15  C   UNL     1       3.496  40.237  46.777  1.00  0.00     0.048 A 
ATOM     16  C   UNL     1       5.146  41.539  45.623  1.00  0.00     0.048 A 
ATOM     17  C   UNL     1       4.076  40.576  48.007  1.00  0.00     0.030 A 
ATOM     18  C   UNL     1       5.722  41.875  46.856  1.00  0.00     0.030 A 
BRANCH  14  19
ATOM     19  O   UNL     1       3.364  40.308  44.455  1.00  0.00    -0.497 OA
ATOM     20  C   UNL     1       3.725  39.040  43.922  1.00  0.00     0.278 C 
ENDBRANCH  14  19
ENDBRANCH  11  13
ENDBRANCH   1  11
BRANCH   3  21
ATOM     21  N   UNL     1       7.324  46.000  50.594  1.00  0.00    -0.362 N 
ATOM     22  H   UNL     1       7.376  46.228  49.604  1.00  0.00     0.162 HD
BRANCH  21  23
ATOM     23  C   UNL     1       8.669  45.776  51.118  1.00  0.00     0.190 C 
BRANCH  23  24
ATOM     24  C   UNL     1       8.946  46.587  52.339  1.00  0.00     0.122 A 
ATOM     25  C   UNL     1       8.457  47.787  52.814  1.00  0.00     0.047 A 
ATOM     26  O   UNL     1       9.889  46.096  53.196  1.00  0.00    -0.467 OA
ATOM     27  C   UNL     1       9.131  48.037  54.033  1.00  0.00     0.042 A 
ATOM     28  C   UNL     1       9.990  46.980  54.222  1.00  0.00     0.195 A 
ENDBRANCH  23  24
ENDBRANCH  21  23
ENDBRANCH   3  21
TORSDOF 6
ENDMDL
MODEL 16
REMARK VINA RESULT:    -8.304      2.550      5.793
REMARK INTER + INTRA:         -12.046
REMARK INTER:                 -11.230
REMARK INTRA:                  -0.816
REMARK UNBOUND:                -0.829
REMARK SMILES COc1ccc(Nc2nc(NCc3ccco3)c3ccccc3n2)cc1
REMARK SMILES IDX 8 1 9 2 10 3 18 4 19 5 20 6 21 7 22 8 23 9 24 10 7 11 6 13
REMARK SMILES IDX 3 14 4 15 26 16 5 17 25 18 2 19 1 20 11 21 12 23 13 24 14 25
REMARK SMILES IDX 17 26 15 27 16 28
REMARK H PARENT 7 12 11 22
ROOT
ATOM      1  C   UNL     1       6.999  43.801  49.731  1.00  0.00     0.229 A 
ATOM      2  N   UNL     1       5.830  44.207  50.247  1.00  0.00    -0.195 NA
ATOM      3  C   UNL     1       5.834  45.245  51.101  1.00  0.00     0.139 A 
ATOM      4  C   UNL     1       7.014  45.930  51.431  1.00  0.00     0.043 A 
ATOM      5  C   UNL     1       7.097  47.062  52.283  1.00  0.00     0.014 A 
ATOM      6  C   UNL     1       8.323  47.665  52.554  1.00  0.00     0.001 A 
ATOM      7  C   UNL     1       9.475  47.149  51.978  1.00  0.00     0.002 A 
ATOM      8  C   UNL     1       9.390  46.040  51.132  1.00  0.00     0.029 A 
ATOM      9  C   UNL     1       8.176  45.424  50.844  1.00  0.00     0.078 A 
ATOM     10  N   UNL     1       8.170  44.378  50.017  1.00  0.00    -0.213 NA
ENDROOT
BRANCH   1  11
ATOM     11  N   UNL     1       6.905  42.715  48.864  1.00  0.00    -0.324 N 
ATOM     12  H   UNL     1       7.834  42.449  48.576  1.00  0.00     0.170 HD
BRANCH  11  13
ATOM     13  C   UNL     1       5.843  41.952  48.371  1.00  0.00     0.041 A 
ATOM     14  C   UNL     1       3.718  40.454  47.232  1.00  0.00     0.119 A 
ATOM     15  C   UNL     1       3.935  40.456  48.609  1.00  0.00     0.048 A 
ATOM     16  C   UNL     1       4.562  41.203  46.418  1.00  0.00     0.048 A 
ATOM     17  C   UNL     1       4.984  41.196  49.170  1.00  0.00     0.030 A 
ATOM     18  C   UNL     1       5.611  41.941  46.986  1.00  0.00     0.030 A 
BRANCH  14  19
ATOM     19  O   UNL     1       2.663  39.691  46.817  1.00  0.00    -0.497 OA
ATOM     20  C   UNL     1       2.733  38.297  47.086  1.00  0.00     0.278 C 
ENDBRANCH  14  19
ENDBRANCH  11  13
ENDBRANCH   1  11
BRANCH   3  21
ATOM     21  N   UNL     1       4.608  45.679  51.649  1.00  0.00    -0.362 N 
ATOM     22  H   UNL     1       4.655  46.680  51.821  1.00  0.00     0.162 HD
BRANCH  21  23
ATOM     23  C   UNL     1       4.197  44.989  52.870  1.00  0.00     0.190 C 
BRANCH  23  24
ATOM     24  C   UNL     1       3.020  44.098  52.650  1.00  0.00     0.122 A 
ATOM     25  C   UNL     1       2.604  43.318  51.593  1.00  0.00     0.047 A 
ATOM     26  O   UNL     1       2.121  44.013  53.675  1.00  0.00    -0.467 OA
ATOM     27  C   UNL     1       1.388  42.714  51.996  1.00  0.00     0.042 A 
ATOM     28  C   UNL     1       1.139  43.168  53.269  1.00  0.00     0.195 A 
ENDBRANCH  23  24
ENDBRANCH  21  23
ENDBRANCH   3  21
TORSDOF 6
ENDMDL
MODEL 17
REMARK VINA RESULT:    -8.194      3.289      7.296
REMARK INTER + INTRA:         -11.897
REMARK INTER:                 -11.218
REMARK INTRA:                  -0.679
REMARK UNBOUND:                -0.829
REMARK SMILES COc1ccc(Nc2nc(NCc3ccco3)c3ccccc3n2)cc1
REMARK SMILES IDX 8 1 9 2 10 3 18 4 19 5 20 6 21 7 22 8 23 9 24 10 7 11 6 13
REMARK SMILES IDX 3 14 4 15 26 16 5 17 25 18 2 19 1 20 11 21 12 23 13 24 14 25
REMARK SMILES IDX 17 26 15 27 16 28
REMARK H PARENT 7 12 11 22
ROOT
ATOM      1  C   UNL     1       4.706  42.371  50.710  1.00  0.00     0.229 A 
ATOM      2  N   UNL     1       5.501  43.406  51.016  1.00  0.00    -0.195 NA
ATOM      3  C   UNL     1       5.083  44.279  51.950  1.00  0.00     0.139 A 
ATOM      4  C   UNL     1       3.868  44.110  52.632  1.00  0.00     0.043 A 
ATOM      5  C   UNL     1       3.379  44.955  53.663  1.00  0.00     0.014 A 
ATOM      6  C   UNL     1       2.151  44.705  54.270  1.00  0.00     0.001 A 
ATOM      7  C   UNL     1       1.402  43.612  53.861  1.00  0.00     0.002 A 
ATOM      8  C   UNL     1       1.890  42.775  52.852  1.00  0.00     0.029 A 
ATOM      9  C   UNL     1       3.114  43.004  52.234  1.00  0.00     0.078 A 
ATOM     10  N   UNL     1       3.521  42.156  51.288  1.00  0.00    -0.213 NA
ENDROOT
BRANCH   1  11
ATOM     11  N   UNL     1       5.210  41.524  49.726  1.00  0.00    -0.324 N 
ATOM     12  H   UNL     1       5.978  40.996  50.114  1.00  0.00     0.170 HD
BRANCH  11  13
ATOM     13  C   UNL     1       4.864  41.258  48.398  1.00  0.00     0.041 A 
ATOM     14  C   UNL     1       4.271  40.809  45.658  1.00  0.00     0.119 A 
ATOM     15  C   UNL     1       3.485  40.246  46.663  1.00  0.00     0.048 A 
ATOM     16  C   UNL     1       5.356  41.601  46.021  1.00  0.00     0.048 A 
ATOM     17  C   UNL     1       3.779  40.468  48.016  1.00  0.00     0.030 A 
ATOM     18  C   UNL     1       5.644  41.820  47.375  1.00  0.00     0.030 A 
BRANCH  14  19
ATOM     19  O   UNL     1       3.875  40.513  44.385  1.00  0.00    -0.497 OA
ATOM     20  C   UNL     1       2.717  39.699  44.245  1.00  0.00     0.278 C 
ENDBRANCH  14  19
ENDBRANCH  11  13
ENDBRANCH   1  11
BRANCH   3  21
ATOM     21  N   UNL     1       5.913  45.371  52.279  1.00  0.00    -0.362 N 
ATOM     22  H   UNL     1       5.333  46.164  52.542  1.00  0.00     0.162 HD
BRANCH  21  23
ATOM     23  C   UNL     1       6.850  45.774  51.233  1.00  0.00     0.190 C 
BRANCH  23  24
ATOM     24  C   UNL     1       8.185  46.153  51.781  1.00  0.00     0.122 A 
ATOM     25  C   UNL     1       8.589  46.922  52.853  1.00  0.00     0.047 A 
ATOM     26  O   UNL     1       9.277  45.683  51.107  1.00  0.00    -0.467 OA
ATOM     27  C   UNL     1      10.004  46.913  52.840  1.00  0.00     0.042 A 
ATOM     28  C   UNL     1      10.374  46.146  51.760  1.00  0.00     0.195 A 
ENDBRANCH  23  24
ENDBRANCH  21  23
ENDBRANCH   3  21
TORSDOF 6
ENDMDL
