MODEL 1
REMARK VINA RESULT:    -8.535      0.000      0.000
REMARK INTER + INTRA:         -12.471
REMARK INTER:                 -11.529
REMARK INTRA:                  -0.942
REMARK UNBOUND:                -0.942
REMARK SMILES Cc1ccc(Nc2nc(NCC[NH+](C)C)nc3c2cnn3C)c(Br)c1
REMARK SMILES IDX 10 1 11 3 12 4 13 5 14 6 15 7 9 9 8 10 16 11 7 12 17 13
REMARK SMILES IDX 18 14 21 15 19 16 20 17 22 18 6 19 5 21 4 22 23 23 3 24
REMARK SMILES IDX 25 25 2 26 24 27 1 28
REMARK H PARENT 10 2 13 8 6 20
ROOT
ATOM      1  N   UNL     1       4.899  46.926  55.153  1.00  0.00    -0.348 N 
ATOM      2  H   UNL     1       4.296  47.634  54.729  1.00  0.00     0.163 HD
ENDROOT
BRANCH   1   3
ATOM      3  C   UNL     1       4.219  45.658  55.445  1.00  0.00     0.177 C 
BRANCH   3   4
ATOM      4  C   UNL     1       2.714  45.730  55.088  1.00  0.00     0.283 C 
BRANCH   4   5
ATOM      5  N   UNL     1       2.505  45.250  53.659  1.00  0.00    -0.338 N 
ATOM      6  C   UNL     1       1.657  44.025  53.553  1.00  0.00     0.332 C 
ATOM      7  C   UNL     1       2.080  46.341  52.729  1.00  0.00     0.332 C 
ATOM      8  H   UNL     1       3.463  44.975  53.370  1.00  0.00     0.347 HD
ENDBRANCH   4   5
ENDBRANCH   3   4
ENDBRANCH   1   3
BRANCH   1   9
ATOM      9  C   UNL     1       5.969  46.833  54.261  1.00  0.00     0.226 A 
ATOM     10  N   UNL     1       5.735  46.354  53.028  1.00  0.00    -0.195 NA
ATOM     11  N   UNL     1       7.158  47.146  54.771  1.00  0.00    -0.193 NA
ATOM     12  C   UNL     1       6.774  46.112  52.178  1.00  0.00     0.147 A 
ATOM     13  C   UNL     1       8.168  46.926  53.914  1.00  0.00     0.165 A 
ATOM     14  C   UNL     1       8.062  46.417  52.631  1.00  0.00     0.082 A 
ATOM     15  N   UNL     1       9.501  47.151  54.128  1.00  0.00    -0.250 N 
ATOM     16  C   UNL     1       9.394  46.396  52.162  1.00  0.00     0.149 A 
ATOM     17  N   UNL     1      10.273  46.837  53.067  1.00  0.00    -0.179 NA
ATOM     18  C   UNL     1      10.119  47.672  55.322  1.00  0.00     0.176 C 
BRANCH  12  19
ATOM     19  N   UNL     1       6.421  45.586  50.924  1.00  0.00    -0.339 N 
ATOM     20  H   UNL     1       7.089  45.903  50.231  1.00  0.00     0.168 HD
BRANCH  19  21
ATOM     21  C   UNL     1       5.864  44.324  50.645  1.00  0.00     0.054 A 
ATOM     22  C   UNL     1       4.621  43.993  51.201  1.00  0.00     0.027 A 
ATOM     23  C   UNL     1       6.470  43.404  49.769  1.00  0.00     0.041 A 
ATOM     24  C   UNL     1       4.003  42.776  50.900  1.00  0.00     0.005 A 
ATOM     25  C   UNL     1       5.852  42.186  49.469  1.00  0.00     0.021 A 
ATOM     26  C   UNL     1       4.617  41.858  50.041  1.00  0.00    -0.050 A 
ATOM     27  Br  UNL     1       8.176  43.741  48.995  1.00  0.00    -0.049 Br
ATOM     28  C   UNL     1       3.936  40.568  49.691  1.00  0.00     0.044 C 
ENDBRANCH  19  21
ENDBRANCH  12  19
ENDBRANCH   1   9
TORSDOF 6
ENDMDL
MODEL 2
REMARK VINA RESULT:    -8.361      1.884      5.550
REMARK INTER + INTRA:         -12.236
REMARK INTER:                 -11.385
REMARK INTRA:                  -0.851
REMARK UNBOUND:                -0.942
REMARK SMILES Cc1ccc(Nc2nc(NCC[NH+](C)C)nc3c2cnn3C)c(Br)c1
REMARK SMILES IDX 10 1 11 3 12 4 13 5 14 6 15 7 9 9 8 10 16 11 7 12 17 13
REMARK SMILES IDX 18 14 21 15 19 16 20 17 22 18 6 19 5 21 4 22 23 23 3 24
REMARK SMILES IDX 25 25 2 26 24 27 1 28
REMARK H PARENT 10 2 13 8 6 20
ROOT
ATOM      1  N   UNL     1       3.822  43.832  53.400  1.00  0.00    -0.348 N 
ATOM      2  H   UNL     1       4.153  43.065  53.991  1.00  0.00     0.163 HD
ENDROOT
BRANCH   1   3
ATOM      3  C   UNL     1       3.511  45.063  54.135  1.00  0.00     0.177 C 
BRANCH   3   4
ATOM      4  C   UNL     1       1.983  45.234  54.329  1.00  0.00     0.283 C 
BRANCH   4   5
ATOM      5  N   UNL     1       1.420  46.092  53.206  1.00  0.00    -0.338 N 
ATOM      6  C   UNL     1       2.462  46.839  52.438  1.00  0.00     0.332 C 
ATOM      7  C   UNL     1       0.460  45.355  52.328  1.00  0.00     0.332 C 
ATOM      8  H   UNL     1       0.863  46.802  53.719  1.00  0.00     0.347 HD
ENDBRANCH   4   5
ENDBRANCH   3   4
ENDBRANCH   1   3
BRANCH   1   9
ATOM      9  C   UNL     1       4.823  43.955  52.434  1.00  0.00     0.226 A 
ATOM     10  N   UNL     1       5.618  45.037  52.471  1.00  0.00    -0.195 NA
ATOM     11  N   UNL     1       4.822  43.009  51.498  1.00  0.00    -0.193 NA
ATOM     12  C   UNL     1       6.509  45.267  51.465  1.00  0.00     0.147 A 
ATOM     13  C   UNL     1       5.723  43.237  50.527  1.00  0.00     0.165 A 
ATOM     14  C   UNL     1       6.580  44.320  50.437  1.00  0.00     0.082 A 
ATOM     15  N   UNL     1       5.976  42.456  49.432  1.00  0.00    -0.250 N 
ATOM     16  C   UNL     1       7.314  44.077  49.256  1.00  0.00     0.149 A 
ATOM     17  N   UNL     1       6.950  42.948  48.639  1.00  0.00    -0.179 NA
ATOM     18  C   UNL     1       5.331  41.218  49.073  1.00  0.00     0.176 C 
BRANCH  12  19
ATOM     19  N   UNL     1       7.271  46.441  51.587  1.00  0.00    -0.339 N 
ATOM     20  H   UNL     1       6.736  47.223  51.228  1.00  0.00     0.168 HD
BRANCH  19  21
ATOM     21  C   UNL     1       8.165  46.786  52.618  1.00  0.00     0.054 A 
ATOM     22  C   UNL     1       7.680  47.484  53.732  1.00  0.00     0.027 A 
ATOM     23  C   UNL     1       9.517  46.394  52.612  1.00  0.00     0.041 A 
ATOM     24  C   UNL     1       8.519  47.792  54.806  1.00  0.00     0.005 A 
ATOM     25  C   UNL     1      10.356  46.703  53.687  1.00  0.00     0.021 A 
ATOM     26  C   UNL     1       9.865  47.414  54.789  1.00  0.00    -0.050 A 
ATOM     27  Br  UNL     1      10.282  45.478  51.130  1.00  0.00    -0.049 Br
ATOM     28  C   UNL     1      10.756  47.713  55.958  1.00  0.00     0.044 C 
ENDBRANCH  19  21
ENDBRANCH  12  19
ENDBRANCH   1   9
TORSDOF 6
ENDMDL
MODEL 3
REMARK VINA RESULT:    -8.343      1.810      5.561
REMARK INTER + INTRA:         -12.211
REMARK INTER:                 -11.053
REMARK INTRA:                  -1.158
REMARK UNBOUND:                -0.942
REMARK SMILES Cc1ccc(Nc2nc(NCC[NH+](C)C)nc3c2cnn3C)c(Br)c1
REMARK SMILES IDX 10 1 11 3 12 4 13 5 14 6 15 7 9 9 8 10 16 11 7 12 17 13
REMARK SMILES IDX 18 14 21 15 19 16 20 17 22 18 6 19 5 21 4 22 23 23 3 24
REMARK SMILES IDX 25 25 2 26 24 27 1 28
REMARK H PARENT 10 2 13 8 6 20
ROOT
ATOM      1  N   UNL     1       2.767  46.030  51.572  1.00  0.00    -0.348 N 
ATOM      2  H   UNL     1       2.047  45.310  51.479  1.00  0.00     0.163 HD
ENDROOT
BRANCH   1   3
ATOM      3  C   UNL     1       2.750  46.733  52.860  1.00  0.00     0.177 C 
BRANCH   3   4
ATOM      4  C   UNL     1       2.852  45.740  54.045  1.00  0.00     0.283 C 
BRANCH   4   5
ATOM      5  N   UNL     1       4.084  46.066  54.877  1.00  0.00    -0.338 N 
ATOM      6  C   UNL     1       5.140  45.010  54.828  1.00  0.00     0.332 C 
ATOM      7  C   UNL     1       4.616  47.440  54.627  1.00  0.00     0.332 C 
ATOM      8  H   UNL     1       3.710  46.068  55.846  1.00  0.00     0.347 HD
ENDBRANCH   4   5
ENDBRANCH   3   4
ENDBRANCH   1   3
BRANCH   1   9
ATOM      9  C   UNL     1       3.951  45.346  51.286  1.00  0.00     0.226 A 
ATOM     10  N   UNL     1       5.101  46.040  51.259  1.00  0.00    -0.195 NA
ATOM     11  N   UNL     1       3.798  44.063  50.969  1.00  0.00    -0.193 NA
ATOM     12  C   UNL     1       6.253  45.441  50.844  1.00  0.00     0.147 A 
ATOM     13  C   UNL     1       4.946  43.480  50.586  1.00  0.00     0.165 A 
ATOM     14  C   UNL     1       6.186  44.088  50.493  1.00  0.00     0.082 A 
ATOM     15  N   UNL     1       5.128  42.178  50.206  1.00  0.00    -0.250 N 
ATOM     16  C   UNL     1       7.043  43.050  50.063  1.00  0.00     0.149 A 
ATOM     17  N   UNL     1       6.406  41.889  49.883  1.00  0.00    -0.179 NA
ATOM     18  C   UNL     1       4.129  41.142  50.128  1.00  0.00     0.176 C 
BRANCH  12  19
ATOM     19  N   UNL     1       7.392  46.263  50.826  1.00  0.00    -0.339 N 
ATOM     20  H   UNL     1       7.250  47.013  50.160  1.00  0.00     0.168 HD
BRANCH  19  21
ATOM     21  C   UNL     1       8.221  46.611  51.909  1.00  0.00     0.054 A 
ATOM     22  C   UNL     1       7.731  47.489  52.885  1.00  0.00     0.027 A 
ATOM     23  C   UNL     1       9.500  46.055  52.094  1.00  0.00     0.041 A 
ATOM     24  C   UNL     1       8.497  47.812  54.008  1.00  0.00     0.005 A 
ATOM     25  C   UNL     1      10.267  46.378  53.218  1.00  0.00     0.021 A 
ATOM     26  C   UNL     1       9.774  47.269  54.179  1.00  0.00    -0.050 A 
ATOM     27  Br  UNL     1      10.273  44.883  50.808  1.00  0.00    -0.049 Br
ATOM     28  C   UNL     1      10.580  47.588  55.403  1.00  0.00     0.044 C 
ENDBRANCH  19  21
ENDBRANCH  12  19
ENDBRANCH   1   9
TORSDOF 6
ENDMDL
MODEL 4
REMARK VINA RESULT:    -8.271      2.819      6.868
REMARK INTER + INTRA:         -12.114
REMARK INTER:                 -11.240
REMARK INTRA:                  -0.874
REMARK UNBOUND:                -0.942
REMARK SMILES Cc1ccc(Nc2nc(NCC[NH+](C)C)nc3c2cnn3C)c(Br)c1
REMARK SMILES IDX 10 1 11 3 12 4 13 5 14 6 15 7 9 9 8 10 16 11 7 12 17 13
REMARK SMILES IDX 18 14 21 15 19 16 20 17 22 18 6 19 5 21 4 22 23 23 3 24
REMARK SMILES IDX 25 25 2 26 24 27 1 28
REMARK H PARENT 10 2 13 8 6 20
ROOT
ATOM      1  N   UNL     1       3.888  41.414  51.163  1.00  0.00    -0.348 N 
ATOM      2  H   UNL     1       3.093  41.004  50.665  1.00  0.00     0.163 HD
ENDROOT
BRANCH   1   3
ATOM      3  C   UNL     1       5.124  41.470  50.374  1.00  0.00     0.177 C 
BRANCH   3   4
ATOM      4  C   UNL     1       4.887  40.991  48.920  1.00  0.00     0.283 C 
BRANCH   4   5
ATOM      5  N   UNL     1       5.970  41.558  48.014  1.00  0.00    -0.338 N 
ATOM      6  C   UNL     1       5.533  41.745  46.597  1.00  0.00     0.332 C 
ATOM      7  C   UNL     1       6.641  42.765  48.585  1.00  0.00     0.332 C 
ATOM      8  H   UNL     1       6.681  40.802  48.008  1.00  0.00     0.347 HD
ENDBRANCH   4   5
ENDBRANCH   3   4
ENDBRANCH   1   3
BRANCH   1   9
ATOM      9  C   UNL     1       3.401  42.651  51.590  1.00  0.00     0.226 A 
ATOM     10  N   UNL     1       4.137  43.748  51.345  1.00  0.00    -0.195 NA
ATOM     11  N   UNL     1       2.275  42.601  52.297  1.00  0.00    -0.193 NA
ATOM     12  C   UNL     1       3.770  44.952  51.869  1.00  0.00     0.147 A 
ATOM     13  C   UNL     1       1.913  43.798  52.787  1.00  0.00     0.165 A 
ATOM     14  C   UNL     1       2.593  44.993  52.626  1.00  0.00     0.082 A 
ATOM     15  N   UNL     1       0.809  44.085  53.543  1.00  0.00    -0.250 N 
ATOM     16  C   UNL     1       1.797  45.934  53.315  1.00  0.00     0.149 A 
ATOM     17  N   UNL     1       0.714  45.389  53.878  1.00  0.00    -0.179 NA
ATOM     18  C   UNL     1      -0.210  43.166  53.987  1.00  0.00     0.176 C 
BRANCH  12  19
ATOM     19  N   UNL     1       4.624  46.028  51.576  1.00  0.00    -0.339 N 
ATOM     20  H   UNL     1       4.100  46.893  51.633  1.00  0.00     0.168 HD
BRANCH  19  21
ATOM     21  C   UNL     1       5.985  46.162  51.907  1.00  0.00     0.054 A 
ATOM     22  C   UNL     1       6.953  45.844  50.944  1.00  0.00     0.027 A 
ATOM     23  C   UNL     1       6.418  46.673  53.145  1.00  0.00     0.041 A 
ATOM     24  C   UNL     1       8.313  46.022  51.209  1.00  0.00     0.005 A 
ATOM     25  C   UNL     1       7.780  46.851  53.410  1.00  0.00     0.021 A 
ATOM     26  C   UNL     1       8.739  46.516  52.447  1.00  0.00    -0.050 A 
ATOM     27  Br  UNL     1       5.187  47.097  54.533  1.00  0.00    -0.049 Br
ATOM     28  C   UNL     1      10.197  46.739  52.717  1.00  0.00     0.044 C 
ENDBRANCH  19  21
ENDBRANCH  12  19
ENDBRANCH   1   9
TORSDOF 6
ENDMDL
MODEL 5
REMARK VINA RESULT:    -8.179      2.395      5.761
REMARK INTER + INTRA:         -11.990
REMARK INTER:                 -11.269
REMARK INTRA:                  -0.721
REMARK UNBOUND:                -0.942
REMARK SMILES Cc1ccc(Nc2nc(NCC[NH+](C)C)nc3c2cnn3C)c(Br)c1
REMARK SMILES IDX 10 1 11 3 12 4 13 5 14 6 15 7 9 9 8 10 16 11 7 12 17 13
REMARK SMILES IDX 18 14 21 15 19 16 20 17 22 18 6 19 5 21 4 22 23 23 3 24
REMARK SMILES IDX 25 25 2 26 24 27 1 28
REMARK H PARENT 10 2 13 8 6 20
ROOT
ATOM      1  N   UNL     1       2.877  43.651  52.437  1.00  0.00    -0.348 N 
ATOM      2  H   UNL     1       2.848  42.644  52.617  1.00  0.00     0.163 HD
ENDROOT
BRANCH   1   3
ATOM      3  C   UNL     1       2.674  44.479  53.632  1.00  0.00     0.177 C 
BRANCH   3   4
ATOM      4  C   UNL     1       1.548  45.519  53.413  1.00  0.00     0.283 C 
BRANCH   4   5
ATOM      5  N   UNL     1       0.543  45.430  54.552  1.00  0.00    -0.338 N 
ATOM      6  C   UNL     1      -0.499  44.378  54.355  1.00  0.00     0.332 C 
ATOM      7  C   UNL     1       1.186  45.375  55.900  1.00  0.00     0.332 C 
ATOM      8  H   UNL     1       0.056  46.345  54.497  1.00  0.00     0.347 HD
ENDBRANCH   4   5
ENDBRANCH   3   4
ENDBRANCH   1   3
BRANCH   1   9
ATOM      9  C   UNL     1       4.103  43.831  51.793  1.00  0.00     0.226 A 
ATOM     10  N   UNL     1       4.798  44.953  52.042  1.00  0.00    -0.195 NA
ATOM     11  N   UNL     1       4.417  42.891  50.905  1.00  0.00    -0.193 NA
ATOM     12  C   UNL     1       5.925  45.234  51.327  1.00  0.00     0.147 A 
ATOM     13  C   UNL     1       5.542  43.169  50.226  1.00  0.00     0.165 A 
ATOM     14  C   UNL     1       6.333  44.296  50.371  1.00  0.00     0.082 A 
ATOM     15  N   UNL     1       6.135  42.408  49.256  1.00  0.00    -0.250 N 
ATOM     16  C   UNL     1       7.383  44.097  49.448  1.00  0.00     0.149 A 
ATOM     17  N   UNL     1       7.267  42.954  48.765  1.00  0.00    -0.179 NA
ATOM     18  C   UNL     1       5.683  41.139  48.743  1.00  0.00     0.176 C 
BRANCH  12  19
ATOM     19  N   UNL     1       6.560  46.446  51.646  1.00  0.00    -0.339 N 
ATOM     20  H   UNL     1       5.891  47.202  51.567  1.00  0.00     0.168 HD
BRANCH  19  21
ATOM     21  C   UNL     1       7.560  46.666  52.612  1.00  0.00     0.054 A 
ATOM     22  C   UNL     1       8.905  46.600  52.225  1.00  0.00     0.027 A 
ATOM     23  C   UNL     1       7.265  47.023  53.941  1.00  0.00     0.041 A 
ATOM     24  C   UNL     1       9.928  46.874  53.137  1.00  0.00     0.005 A 
ATOM     25  C   UNL     1       8.289  47.296  54.854  1.00  0.00     0.021 A 
ATOM     26  C   UNL     1       9.629  47.212  54.461  1.00  0.00    -0.050 A 
ATOM     27  Br  UNL     1       5.473  47.101  54.578  1.00  0.00    -0.049 Br
ATOM     28  C   UNL     1      10.727  47.540  55.429  1.00  0.00     0.044 C 
ENDBRANCH  19  21
ENDBRANCH  12  19
ENDBRANCH   1   9
TORSDOF 6
ENDMDL
MODEL 6
REMARK VINA RESULT:    -8.139      2.362      6.835
REMARK INTER + INTRA:         -11.936
REMARK INTER:                 -11.096
REMARK INTRA:                  -0.841
REMARK UNBOUND:                -0.942
REMARK SMILES Cc1ccc(Nc2nc(NCC[NH+](C)C)nc3c2cnn3C)c(Br)c1
REMARK SMILES IDX 10 1 11 3 12 4 13 5 14 6 15 7 9 9 8 10 16 11 7 12 17 13
REMARK SMILES IDX 18 14 21 15 19 16 20 17 22 18 6 19 5 21 4 22 23 23 3 24
REMARK SMILES IDX 25 25 2 26 24 27 1 28
REMARK H PARENT 10 2 13 8 6 20
ROOT
ATOM      1  N   UNL     1       6.233  41.692  49.851  1.00  0.00    -0.348 N 
ATOM      2  H   UNL     1       6.304  41.052  50.646  1.00  0.00     0.163 HD
ENDROOT
BRANCH   1   3
ATOM      3  C   UNL     1       5.427  41.176  48.738  1.00  0.00     0.177 C 
BRANCH   3   4
ATOM      4  C   UNL     1       5.769  41.899  47.412  1.00  0.00     0.283 C 
BRANCH   4   5
ATOM      5  N   UNL     1       5.087  41.187  46.253  1.00  0.00    -0.338 N 
ATOM      6  C   UNL     1       3.777  40.567  46.614  1.00  0.00     0.332 C 
ATOM      7  C   UNL     1       5.021  42.017  45.011  1.00  0.00     0.332 C 
ATOM      8  H   UNL     1       5.740  40.407  46.049  1.00  0.00     0.347 HD
ENDBRANCH   4   5
ENDBRANCH   3   4
ENDBRANCH   1   3
BRANCH   1   9
ATOM      9  C   UNL     1       5.762  42.874  50.426  1.00  0.00     0.226 A 
ATOM     10  N   UNL     1       6.577  43.941  50.454  1.00  0.00    -0.195 NA
ATOM     11  N   UNL     1       4.557  42.788  50.986  1.00  0.00    -0.193 NA
ATOM     12  C   UNL     1       6.210  45.066  51.132  1.00  0.00     0.147 A 
ATOM     13  C   UNL     1       4.200  43.911  51.630  1.00  0.00     0.165 A 
ATOM     14  C   UNL     1       4.955  45.066  51.750  1.00  0.00     0.082 A 
ATOM     15  N   UNL     1       3.030  44.147  52.298  1.00  0.00    -0.250 N 
ATOM     16  C   UNL     1       4.130  45.935  52.498  1.00  0.00     0.149 A 
ATOM     17  N   UNL     1       2.961  45.383  52.836  1.00  0.00    -0.179 NA
ATOM     18  C   UNL     1       1.920  43.242  52.464  1.00  0.00     0.176 C 
BRANCH  12  19
ATOM     19  N   UNL     1       7.147  46.113  51.122  1.00  0.00    -0.339 N 
ATOM     20  H   UNL     1       6.770  46.891  50.594  1.00  0.00     0.168 HD
BRANCH  19  21
ATOM     21  C   UNL     1       8.023  46.495  52.155  1.00  0.00     0.054 A 
ATOM     22  C   UNL     1       7.528  47.263  53.217  1.00  0.00     0.027 A 
ATOM     23  C   UNL     1       9.366  46.075  52.204  1.00  0.00     0.041 A 
ATOM     24  C   UNL     1       8.348  47.611  54.294  1.00  0.00     0.005 A 
ATOM     25  C   UNL     1      10.187  46.424  53.281  1.00  0.00     0.021 A 
ATOM     26  C   UNL     1       9.686  47.205  54.329  1.00  0.00    -0.050 A 
ATOM     27  Br  UNL     1      10.146  45.064  50.793  1.00  0.00    -0.049 Br
ATOM     28  C   UNL     1      10.555  47.549  55.503  1.00  0.00     0.044 C 
ENDBRANCH  19  21
ENDBRANCH  12  19
ENDBRANCH   1   9
TORSDOF 6
ENDMDL
MODEL 7
REMARK VINA RESULT:    -8.105      2.222      6.663
REMARK INTER + INTRA:         -11.890
REMARK INTER:                 -11.078
REMARK INTRA:                  -0.812
REMARK UNBOUND:                -0.942
REMARK SMILES Cc1ccc(Nc2nc(NCC[NH+](C)C)nc3c2cnn3C)c(Br)c1
REMARK SMILES IDX 10 1 11 3 12 4 13 5 14 6 15 7 9 9 8 10 16 11 7 12 17 13
REMARK SMILES IDX 18 14 21 15 19 16 20 17 22 18 6 19 5 21 4 22 23 23 3 24
REMARK SMILES IDX 25 25 2 26 24 27 1 28
REMARK H PARENT 10 2 13 8 6 20
ROOT
ATOM      1  N   UNL     1       4.283  41.453  51.205  1.00  0.00    -0.348 N 
ATOM      2  H   UNL     1       3.819  40.824  51.865  1.00  0.00     0.163 HD
ENDROOT
BRANCH   1   3
ATOM      3  C   UNL     1       4.009  41.151  49.796  1.00  0.00     0.177 C 
BRANCH   3   4
ATOM      4  C   UNL     1       5.308  41.169  48.952  1.00  0.00     0.283 C 
BRANCH   4   5
ATOM      5  N   UNL     1       4.989  40.786  47.515  1.00  0.00    -0.338 N 
ATOM      6  C   UNL     1       3.570  40.368  47.304  1.00  0.00     0.332 C 
ATOM      7  C   UNL     1       5.457  41.798  46.519  1.00  0.00     0.332 C 
ATOM      8  H   UNL     1       5.572  39.940  47.370  1.00  0.00     0.347 HD
ENDBRANCH   4   5
ENDBRANCH   3   4
ENDBRANCH   1   3
BRANCH   1   9
ATOM      9  C   UNL     1       3.879  42.721  51.628  1.00  0.00     0.226 A 
ATOM     10  N   UNL     1       4.674  43.770  51.356  1.00  0.00    -0.195 NA
ATOM     11  N   UNL     1       2.768  42.745  52.360  1.00  0.00    -0.193 NA
ATOM     12  C   UNL     1       4.390  44.998  51.875  1.00  0.00     0.147 A 
ATOM     13  C   UNL     1       2.488  43.966  52.843  1.00  0.00     0.165 A 
ATOM     14  C   UNL     1       3.234  45.117  52.655  1.00  0.00     0.082 A 
ATOM     15  N   UNL     1       1.419  44.326  53.619  1.00  0.00    -0.250 N 
ATOM     16  C   UNL     1       2.510  46.111  53.351  1.00  0.00     0.149 A 
ATOM     17  N   UNL     1       1.409  45.636  53.941  1.00  0.00    -0.179 NA
ATOM     18  C   UNL     1       0.358  43.474  54.094  1.00  0.00     0.176 C 
BRANCH  12  19
ATOM     19  N   UNL     1       5.300  46.019  51.552  1.00  0.00    -0.339 N 
ATOM     20  H   UNL     1       4.789  46.825  51.213  1.00  0.00     0.168 HD
BRANCH  19  21
ATOM     21  C   UNL     1       6.502  46.340  52.209  1.00  0.00     0.054 A 
ATOM     22  C   UNL     1       6.445  46.949  53.471  1.00  0.00     0.027 A 
ATOM     23  C   UNL     1       7.765  46.010  51.683  1.00  0.00     0.041 A 
ATOM     24  C   UNL     1       7.614  47.228  54.185  1.00  0.00     0.005 A 
ATOM     25  C   UNL     1       8.934  46.291  52.398  1.00  0.00     0.021 A 
ATOM     26  C   UNL     1       8.867  46.912  53.651  1.00  0.00    -0.050 A 
ATOM     27  Br  UNL     1       7.953  45.220  49.962  1.00  0.00    -0.049 Br
ATOM     28  C   UNL     1      10.118  47.180  54.434  1.00  0.00     0.044 C 
ENDBRANCH  19  21
ENDBRANCH  12  19
ENDBRANCH   1   9
TORSDOF 6
ENDMDL
MODEL 8
REMARK VINA RESULT:    -7.984      2.800      7.052
REMARK INTER + INTRA:         -11.727
REMARK INTER:                 -10.987
REMARK INTRA:                  -0.739
REMARK UNBOUND:                -0.942
REMARK SMILES Cc1ccc(Nc2nc(NCC[NH+](C)C)nc3c2cnn3C)c(Br)c1
REMARK SMILES IDX 10 1 11 3 12 4 13 5 14 6 15 7 9 9 8 10 16 11 7 12 17 13
REMARK SMILES IDX 18 14 21 15 19 16 20 17 22 18 6 19 5 21 4 22 23 23 3 24
REMARK SMILES IDX 25 25 2 26 24 27 1 28
REMARK H PARENT 10 2 13 8 6 20
ROOT
ATOM      1  N   UNL     1       4.390  41.535  51.161  1.00  0.00    -0.348 N 
ATOM      2  H   UNL     1       4.042  40.953  51.927  1.00  0.00     0.163 HD
ENDROOT
BRANCH   1   3
ATOM      3  C   UNL     1       4.153  40.972  49.827  1.00  0.00     0.177 C 
BRANCH   3   4
ATOM      4  C   UNL     1       5.310  41.316  48.856  1.00  0.00     0.283 C 
BRANCH   4   5
ATOM      5  N   UNL     1       4.974  40.808  47.462  1.00  0.00    -0.338 N 
ATOM      6  C   UNL     1       3.545  40.408  47.295  1.00  0.00     0.332 C 
ATOM      7  C   UNL     1       5.463  41.710  46.374  1.00  0.00     0.332 C 
ATOM      8  H   UNL     1       5.536  39.938  47.395  1.00  0.00     0.347 HD
ENDBRANCH   4   5
ENDBRANCH   3   4
ENDBRANCH   1   3
BRANCH   1   9
ATOM      9  C   UNL     1       3.791  42.774  51.397  1.00  0.00     0.226 A 
ATOM     10  N   UNL     1       4.546  43.880  51.294  1.00  0.00    -0.195 NA
ATOM     11  N   UNL     1       2.524  42.720  51.802  1.00  0.00    -0.193 NA
ATOM     12  C   UNL     1       4.038  45.093  51.655  1.00  0.00     0.147 A 
ATOM     13  C   UNL     1       2.030  43.925  52.131  1.00  0.00     0.165 A 
ATOM     14  C   UNL     1       2.709  45.131  52.091  1.00  0.00     0.082 A 
ATOM     15  N   UNL     1       0.767  44.210  52.574  1.00  0.00    -0.250 N 
ATOM     16  C   UNL     1       1.749  46.076  52.516  1.00  0.00     0.149 A 
ATOM     17  N   UNL     1       0.569  45.523  52.814  1.00  0.00    -0.179 NA
ATOM     18  C   UNL     1      -0.314  43.282  52.790  1.00  0.00     0.176 C 
BRANCH  12  19
ATOM     19  N   UNL     1       4.920  46.180  51.536  1.00  0.00    -0.339 N 
ATOM     20  H   UNL     1       4.384  47.036  51.466  1.00  0.00     0.168 HD
BRANCH  19  21
ATOM     21  C   UNL     1       6.176  46.341  52.150  1.00  0.00     0.054 A 
ATOM     22  C   UNL     1       7.335  46.106  51.398  1.00  0.00     0.027 A 
ATOM     23  C   UNL     1       6.320  46.801  53.473  1.00  0.00     0.041 A 
ATOM     24  C   UNL     1       8.602  46.315  51.950  1.00  0.00     0.005 A 
ATOM     25  C   UNL     1       7.588  47.009  54.025  1.00  0.00     0.021 A 
ATOM     26  C   UNL     1       8.740  46.756  53.270  1.00  0.00    -0.050 A 
ATOM     27  Br  UNL     1       4.811  47.110  54.590  1.00  0.00    -0.049 Br
ATOM     28  C   UNL     1      10.100  47.014  53.849  1.00  0.00     0.044 C 
ENDBRANCH  19  21
ENDBRANCH  12  19
ENDBRANCH   1   9
TORSDOF 6
ENDMDL
MODEL 9
REMARK VINA RESULT:    -7.738      1.921      6.422
REMARK INTER + INTRA:         -11.394
REMARK INTER:                 -10.600
REMARK INTRA:                  -0.794
REMARK UNBOUND:                -0.942
REMARK SMILES Cc1ccc(Nc2nc(NCC[NH+](C)C)nc3c2cnn3C)c(Br)c1
REMARK SMILES IDX 10 1 11 3 12 4 13 5 14 6 15 7 9 9 8 10 16 11 7 12 17 13
REMARK SMILES IDX 18 14 21 15 19 16 20 17 22 18 6 19 5 21 4 22 23 23 3 24
REMARK SMILES IDX 25 25 2 26 24 27 1 28
REMARK H PARENT 10 2 13 8 6 20
ROOT
ATOM      1  N   UNL     1       6.057  43.729  49.693  1.00  0.00    -0.348 N 
ATOM      2  H   UNL     1       6.984  43.968  49.333  1.00  0.00     0.163 HD
ENDROOT
BRANCH   1   3
ATOM      3  C   UNL     1       5.953  42.364  50.222  1.00  0.00     0.177 C 
BRANCH   3   4
ATOM      4  C   UNL     1       5.638  41.346  49.098  1.00  0.00     0.283 C 
BRANCH   4   5
ATOM      5  N   UNL     1       4.270  40.726  49.340  1.00  0.00    -0.338 N 
ATOM      6  C   UNL     1       3.425  41.489  50.307  1.00  0.00     0.332 C 
ATOM      7  C   UNL     1       3.550  40.381  48.076  1.00  0.00     0.332 C 
ATOM      8  H   UNL     1       4.507  39.825  49.798  1.00  0.00     0.347 HD
ENDBRANCH   4   5
ENDBRANCH   3   4
ENDBRANCH   1   3
BRANCH   1   9
ATOM      9  C   UNL     1       5.795  44.744  50.616  1.00  0.00     0.226 A 
ATOM     10  N   UNL     1       6.748  45.664  50.843  1.00  0.00    -0.195 NA
ATOM     11  N   UNL     1       4.636  44.635  51.262  1.00  0.00    -0.193 NA
ATOM     12  C   UNL     1       6.590  46.583  51.837  1.00  0.00     0.147 A 
ATOM     13  C   UNL     1       4.485  45.562  52.221  1.00  0.00     0.165 A 
ATOM     14  C   UNL     1       5.396  46.545  52.567  1.00  0.00     0.082 A 
ATOM     15  N   UNL     1       3.411  45.725  53.053  1.00  0.00    -0.250 N 
ATOM     16  C   UNL     1       4.756  47.252  53.609  1.00  0.00     0.149 A 
ATOM     17  N   UNL     1       3.552  46.757  53.912  1.00  0.00    -0.179 NA
ATOM     18  C   UNL     1       2.204  44.938  53.089  1.00  0.00     0.176 C 
BRANCH  12  19
ATOM     19  N   UNL     1       7.656  47.481  52.009  1.00  0.00    -0.339 N 
ATOM     20  H   UNL     1       7.381  48.393  51.665  1.00  0.00     0.168 HD
BRANCH  19  21
ATOM     21  C   UNL     1       8.583  47.525  53.067  1.00  0.00     0.054 A 
ATOM     22  C   UNL     1       8.281  48.286  54.205  1.00  0.00     0.027 A 
ATOM     23  C   UNL     1       9.775  46.777  53.062  1.00  0.00     0.041 A 
ATOM     24  C   UNL     1       9.144  48.307  55.303  1.00  0.00     0.005 A 
ATOM     25  C   UNL     1      10.640  46.799  54.162  1.00  0.00     0.021 A 
ATOM     26  C   UNL     1      10.335  47.574  55.287  1.00  0.00    -0.050 A 
ATOM     27  Br  UNL     1      10.298  45.744  51.551  1.00  0.00    -0.049 Br
ATOM     28  C   UNL     1      11.244  47.570  56.481  1.00  0.00     0.044 C 
ENDBRANCH  19  21
ENDBRANCH  12  19
ENDBRANCH   1   9
TORSDOF 6
ENDMDL
MODEL 10
REMARK VINA RESULT:    -7.659      2.491      5.848
REMARK INTER + INTRA:         -11.287
REMARK INTER:                 -10.719
REMARK INTRA:                  -0.568
REMARK UNBOUND:                -0.942
REMARK SMILES Cc1ccc(Nc2nc(NCC[NH+](C)C)nc3c2cnn3C)c(Br)c1
REMARK SMILES IDX 10 1 11 3 12 4 13 5 14 6 15 7 9 9 8 10 16 11 7 12 17 13
REMARK SMILES IDX 18 14 21 15 19 16 20 17 22 18 6 19 5 21 4 22 23 23 3 24
REMARK SMILES IDX 25 25 2 26 24 27 1 28
REMARK H PARENT 10 2 13 8 6 20
ROOT
ATOM      1  N   UNL     1       1.458  44.968  52.320  1.00  0.00    -0.348 N 
ATOM      2  H   UNL     1       0.902  44.884  51.465  1.00  0.00     0.163 HD
ENDROOT
BRANCH   1   3
ATOM      3  C   UNL     1       0.959  44.161  53.440  1.00  0.00     0.177 C 
BRANCH   3   4
ATOM      4  C   UNL     1       1.179  44.880  54.794  1.00  0.00     0.283 C 
BRANCH   4   5
ATOM      5  N   UNL     1      -0.152  45.398  55.319  1.00  0.00    -0.338 N 
ATOM      6  C   UNL     1      -1.303  44.484  55.049  1.00  0.00     0.332 C 
ATOM      7  C   UNL     1      -0.086  45.854  56.741  1.00  0.00     0.332 C 
ATOM      8  H   UNL     1      -0.307  46.249  54.745  1.00  0.00     0.347 HD
ENDBRANCH   4   5
ENDBRANCH   3   4
ENDBRANCH   1   3
BRANCH   1   9
ATOM      9  C   UNL     1       2.753  44.658  51.897  1.00  0.00     0.226 A 
ATOM     10  N   UNL     1       3.692  45.617  51.953  1.00  0.00    -0.195 NA
ATOM     11  N   UNL     1       2.901  43.440  51.380  1.00  0.00    -0.193 NA
ATOM     12  C   UNL     1       4.926  45.400  51.418  1.00  0.00     0.147 A 
ATOM     13  C   UNL     1       4.130  43.233  50.879  1.00  0.00     0.165 A 
ATOM     14  C   UNL     1       5.173  44.143  50.855  1.00  0.00     0.082 A 
ATOM     15  N   UNL     1       4.603  42.092  50.289  1.00  0.00    -0.250 N 
ATOM     16  C   UNL     1       6.229  43.434  50.241  1.00  0.00     0.149 A 
ATOM     17  N   UNL     1       5.889  42.189  49.892  1.00  0.00    -0.179 NA
ATOM     18  C   UNL     1       3.887  40.860  50.070  1.00  0.00     0.176 C 
BRANCH  12  19
ATOM     19  N   UNL     1       5.823  46.478  51.505  1.00  0.00    -0.339 N 
ATOM     20  H   UNL     1       5.322  47.342  51.337  1.00  0.00     0.168 HD
BRANCH  19  21
ATOM     21  C   UNL     1       6.923  46.615  52.372  1.00  0.00     0.054 A 
ATOM     22  C   UNL     1       8.218  46.459  51.857  1.00  0.00     0.027 A 
ATOM     23  C   UNL     1       6.782  46.976  53.725  1.00  0.00     0.041 A 
ATOM     24  C   UNL     1       9.340  46.649  52.669  1.00  0.00     0.005 A 
ATOM     25  C   UNL     1       7.905  47.165  54.537  1.00  0.00     0.021 A 
ATOM     26  C   UNL     1       9.193  46.992  54.017  1.00  0.00    -0.050 A 
ATOM     27  Br  UNL     1       5.069  47.173  54.530  1.00  0.00    -0.049 Br
ATOM     28  C   UNL     1      10.399  47.229  54.878  1.00  0.00     0.044 C 
ENDBRANCH  19  21
ENDBRANCH  12  19
ENDBRANCH   1   9
TORSDOF 6
ENDMDL
MODEL 11
REMARK VINA RESULT:    -7.581      2.273      6.262
REMARK INTER + INTRA:         -11.182
REMARK INTER:                 -10.311
REMARK INTRA:                  -0.871
REMARK UNBOUND:                -0.942
REMARK SMILES Cc1ccc(Nc2nc(NCC[NH+](C)C)nc3c2cnn3C)c(Br)c1
REMARK SMILES IDX 10 1 11 3 12 4 13 5 14 6 15 7 9 9 8 10 16 11 7 12 17 13
REMARK SMILES IDX 18 14 21 15 19 16 20 17 22 18 6 19 5 21 4 22 23 23 3 24
REMARK SMILES IDX 25 25 2 26 24 27 1 28
REMARK H PARENT 10 2 13 8 6 20
ROOT
ATOM      1  N   UNL     1       8.114  46.048  50.786  1.00  0.00    -0.348 N 
ATOM      2  H   UNL     1       8.238  46.205  49.783  1.00  0.00     0.163 HD
ENDROOT
BRANCH   1   3
ATOM      3  C   UNL     1       8.260  47.258  51.605  1.00  0.00     0.177 C 
BRANCH   3   4
ATOM      4  C   UNL     1       9.522  47.185  52.499  1.00  0.00     0.283 C 
BRANCH   4   5
ATOM      5  N   UNL     1       9.157  47.566  53.927  1.00  0.00    -0.338 N 
ATOM      6  C   UNL     1       7.805  47.094  54.349  1.00  0.00     0.332 C 
ATOM      7  C   UNL     1      10.230  47.236  54.915  1.00  0.00     0.332 C 
ATOM      8  H   UNL     1       9.110  48.602  53.881  1.00  0.00     0.347 HD
ENDBRANCH   4   5
ENDBRANCH   3   4
ENDBRANCH   1   3
BRANCH   1   9
ATOM      9  C   UNL     1       6.867  45.425  50.866  1.00  0.00     0.226 A 
ATOM     10  N   UNL     1       5.855  46.091  51.447  1.00  0.00    -0.195 NA
ATOM     11  N   UNL     1       6.836  44.167  50.433  1.00  0.00    -0.193 NA
ATOM     12  C   UNL     1       4.664  45.466  51.673  1.00  0.00     0.147 A 
ATOM     13  C   UNL     1       5.650  43.573  50.641  1.00  0.00     0.165 A 
ATOM     14  C   UNL     1       4.541  44.139  51.246  1.00  0.00     0.082 A 
ATOM     15  N   UNL     1       5.293  42.295  50.307  1.00  0.00    -0.250 N 
ATOM     16  C   UNL     1       3.570  43.114  51.206  1.00  0.00     0.149 A 
ATOM     17  N   UNL     1       4.021  41.990  50.640  1.00  0.00    -0.179 NA
ATOM     18  C   UNL     1       6.110  41.299  49.660  1.00  0.00     0.176 C 
BRANCH  12  19
ATOM     19  N   UNL     1       3.683  46.243  52.311  1.00  0.00    -0.339 N 
ATOM     20  H   UNL     1       3.482  47.057  51.742  1.00  0.00     0.168 HD
BRANCH  19  21
ATOM     21  C   UNL     1       2.588  45.793  53.072  1.00  0.00     0.054 A 
ATOM     22  C   UNL     1       1.323  45.731  52.471  1.00  0.00     0.027 A 
ATOM     23  C   UNL     1       2.722  45.332  54.395  1.00  0.00     0.041 A 
ATOM     24  C   UNL     1       0.221  45.232  53.171  1.00  0.00     0.005 A 
ATOM     25  C   UNL     1       1.619  44.833  55.095  1.00  0.00     0.021 A 
ATOM     26  C   UNL     1       0.357  44.790  54.491  1.00  0.00    -0.050 A 
ATOM     27  Br  UNL     1       4.387  45.412  55.314  1.00  0.00    -0.049 Br
ATOM     28  C   UNL     1      -0.820  44.221  55.228  1.00  0.00     0.044 C 
ENDBRANCH  19  21
ENDBRANCH  12  19
ENDBRANCH   1   9
TORSDOF 6
ENDMDL
MODEL 12
REMARK VINA RESULT:    -7.562      1.851      5.626
REMARK INTER + INTRA:         -11.156
REMARK INTER:                 -10.956
REMARK INTRA:                  -0.200
REMARK UNBOUND:                -0.942
REMARK SMILES Cc1ccc(Nc2nc(NCC[NH+](C)C)nc3c2cnn3C)c(Br)c1
REMARK SMILES IDX 10 1 11 3 12 4 13 5 14 6 15 7 9 9 8 10 16 11 7 12 17 13
REMARK SMILES IDX 18 14 21 15 19 16 20 17 22 18 6 19 5 21 4 22 23 23 3 24
REMARK SMILES IDX 25 25 2 26 24 27 1 28
REMARK H PARENT 10 2 13 8 6 20
ROOT
ATOM      1  N   UNL     1       5.233  46.837  55.105  1.00  0.00    -0.348 N 
ATOM      2  H   UNL     1       5.664  46.357  55.899  1.00  0.00     0.163 HD
ENDROOT
BRANCH   1   3
ATOM      3  C   UNL     1       6.177  47.207  54.044  1.00  0.00     0.177 C 
BRANCH   3   4
ATOM      4  C   UNL     1       7.553  46.524  54.251  1.00  0.00     0.283 C 
BRANCH   4   5
ATOM      5  N   UNL     1       8.518  46.987  53.169  1.00  0.00    -0.338 N 
ATOM      6  C   UNL     1       7.996  48.111  52.336  1.00  0.00     0.332 C 
ATOM      7  C   UNL     1       9.902  47.229  53.682  1.00  0.00     0.332 C 
ATOM      8  H   UNL     1       8.577  46.158  52.547  1.00  0.00     0.347 HD
ENDBRANCH   4   5
ENDBRANCH   3   4
ENDBRANCH   1   3
BRANCH   1   9
ATOM      9  C   UNL     1       4.213  45.968  54.714  1.00  0.00     0.226 A 
ATOM     10  N   UNL     1       4.338  45.320  53.544  1.00  0.00    -0.195 NA
ATOM     11  N   UNL     1       3.152  45.945  55.517  1.00  0.00    -0.193 NA
ATOM     12  C   UNL     1       3.303  44.576  53.059  1.00  0.00     0.147 A 
ATOM     13  C   UNL     1       2.151  45.190  55.038  1.00  0.00     0.165 A 
ATOM     14  C   UNL     1       2.146  44.493  53.841  1.00  0.00     0.082 A 
ATOM     15  N   UNL     1       0.936  44.955  55.622  1.00  0.00    -0.250 N 
ATOM     16  C   UNL     1       0.882  43.862  53.819  1.00  0.00     0.149 A 
ATOM     17  N   UNL     1       0.141  44.141  54.896  1.00  0.00    -0.179 NA
ATOM     18  C   UNL     1       0.457  45.469  56.881  1.00  0.00     0.176 C 
BRANCH  12  19
ATOM     19  N   UNL     1       3.528  43.963  51.815  1.00  0.00    -0.339 N 
ATOM     20  H   UNL     1       2.688  44.036  51.252  1.00  0.00     0.168 HD
BRANCH  19  21
ATOM     21  C   UNL     1       4.718  43.948  51.064  1.00  0.00     0.054 A 
ATOM     22  C   UNL     1       5.530  45.090  51.055  1.00  0.00     0.027 A 
ATOM     23  C   UNL     1       5.167  42.804  50.378  1.00  0.00     0.041 A 
ATOM     24  C   UNL     1       6.751  45.096  50.374  1.00  0.00     0.005 A 
ATOM     25  C   UNL     1       6.389  42.811  49.696  1.00  0.00     0.021 A 
ATOM     26  C   UNL     1       7.185  43.962  49.680  1.00  0.00    -0.050 A 
ATOM     27  Br  UNL     1       4.121  41.216  50.296  1.00  0.00    -0.049 Br
ATOM     28  C   UNL     1       8.512  43.959  48.980  1.00  0.00     0.044 C 
ENDBRANCH  19  21
ENDBRANCH  12  19
ENDBRANCH   1   9
TORSDOF 6
ENDMDL
MODEL 13
REMARK VINA RESULT:    -7.508      2.337      6.383
REMARK INTER + INTRA:         -11.083
REMARK INTER:                 -10.072
REMARK INTRA:                  -1.011
REMARK UNBOUND:                -0.942
REMARK SMILES Cc1ccc(Nc2nc(NCC[NH+](C)C)nc3c2cnn3C)c(Br)c1
REMARK SMILES IDX 10 1 11 3 12 4 13 5 14 6 15 7 9 9 8 10 16 11 7 12 17 13
REMARK SMILES IDX 18 14 21 15 19 16 20 17 22 18 6 19 5 21 4 22 23 23 3 24
REMARK SMILES IDX 25 25 2 26 24 27 1 28
REMARK H PARENT 10 2 13 8 6 20
ROOT
ATOM      1  N   UNL     1       8.048  46.110  50.689  1.00  0.00    -0.348 N 
ATOM      2  H   UNL     1       8.101  46.325  49.691  1.00  0.00     0.163 HD
ENDROOT
BRANCH   1   3
ATOM      3  C   UNL     1       8.206  47.279  51.562  1.00  0.00     0.177 C 
BRANCH   3   4
ATOM      4  C   UNL     1       9.340  47.062  52.596  1.00  0.00     0.283 C 
BRANCH   4   5
ATOM      5  N   UNL     1       8.875  47.528  53.968  1.00  0.00    -0.338 N 
ATOM      6  C   UNL     1       7.604  46.889  54.422  1.00  0.00     0.332 C 
ATOM      7  C   UNL     1       9.955  47.485  55.000  1.00  0.00     0.332 C 
ATOM      8  H   UNL     1       8.663  48.531  53.807  1.00  0.00     0.347 HD
ENDBRANCH   4   5
ENDBRANCH   3   4
ENDBRANCH   1   3
BRANCH   1   9
ATOM      9  C   UNL     1       6.830  45.439  50.814  1.00  0.00     0.226 A 
ATOM     10  N   UNL     1       5.801  46.081  51.390  1.00  0.00    -0.195 NA
ATOM     11  N   UNL     1       6.845  44.166  50.424  1.00  0.00    -0.193 NA
ATOM     12  C   UNL     1       4.642  45.415  51.661  1.00  0.00     0.147 A 
ATOM     13  C   UNL     1       5.690  43.530  50.674  1.00  0.00     0.165 A 
ATOM     14  C   UNL     1       4.568  44.070  51.281  1.00  0.00     0.082 A 
ATOM     15  N   UNL     1       5.382  42.228  50.390  1.00  0.00    -0.250 N 
ATOM     16  C   UNL     1       3.641  43.004  51.293  1.00  0.00     0.149 A 
ATOM     17  N   UNL     1       4.130  41.881  50.757  1.00  0.00    -0.179 NA
ATOM     18  C   UNL     1       6.230  41.245  49.762  1.00  0.00     0.176 C 
BRANCH  12  19
ATOM     19  N   UNL     1       3.640  46.171  52.290  1.00  0.00    -0.339 N 
ATOM     20  H   UNL     1       3.089  46.646  51.585  1.00  0.00     0.168 HD
BRANCH  19  21
ATOM     21  C   UNL     1       2.919  45.847  53.455  1.00  0.00     0.054 A 
ATOM     22  C   UNL     1       3.531  46.021  54.704  1.00  0.00     0.027 A 
ATOM     23  C   UNL     1       1.578  45.421  53.422  1.00  0.00     0.041 A 
ATOM     24  C   UNL     1       2.830  45.770  55.886  1.00  0.00     0.005 A 
ATOM     25  C   UNL     1       0.877  45.169  54.606  1.00  0.00     0.021 A 
ATOM     26  C   UNL     1       1.503  45.332  55.848  1.00  0.00    -0.050 A 
ATOM     27  Br  UNL     1       0.669  45.115  51.778  1.00  0.00    -0.049 Br
ATOM     28  C   UNL     1       0.741  45.098  57.119  1.00  0.00     0.044 C 
ENDBRANCH  19  21
ENDBRANCH  12  19
ENDBRANCH   1   9
TORSDOF 6
ENDMDL
MODEL 14
REMARK VINA RESULT:    -7.504      2.616      6.214
REMARK INTER + INTRA:         -11.078
REMARK INTER:                 -10.281
REMARK INTRA:                  -0.797
REMARK UNBOUND:                -0.942
REMARK SMILES Cc1ccc(Nc2nc(NCC[NH+](C)C)nc3c2cnn3C)c(Br)c1
REMARK SMILES IDX 10 1 11 3 12 4 13 5 14 6 15 7 9 9 8 10 16 11 7 12 17 13
REMARK SMILES IDX 18 14 21 15 19 16 20 17 22 18 6 19 5 21 4 22 23 23 3 24
REMARK SMILES IDX 25 25 2 26 24 27 1 28
REMARK H PARENT 10 2 13 8 6 20
ROOT
ATOM      1  N   UNL     1       5.992  46.785  52.254  1.00  0.00    -0.348 N 
ATOM      2  H   UNL     1       5.211  47.150  52.804  1.00  0.00     0.163 HD
ENDROOT
BRANCH   1   3
ATOM      3  C   UNL     1       7.279  46.800  52.960  1.00  0.00     0.177 C 
BRANCH   3   4
ATOM      4  C   UNL     1       8.333  47.638  52.193  1.00  0.00     0.283 C 
BRANCH   4   5
ATOM      5  N   UNL     1       9.730  47.229  52.636  1.00  0.00    -0.338 N 
ATOM      6  C   UNL     1       9.882  47.110  54.117  1.00  0.00     0.332 C 
ATOM      7  C   UNL     1      10.257  46.043  51.895  1.00  0.00     0.332 C 
ATOM      8  H   UNL     1      10.308  48.039  52.342  1.00  0.00     0.347 HD
ENDBRANCH   4   5
ENDBRANCH   3   4
ENDBRANCH   1   3
BRANCH   1   9
ATOM      9  C   UNL     1       5.549  45.522  51.857  1.00  0.00     0.226 A 
ATOM     10  N   UNL     1       4.575  44.932  52.570  1.00  0.00    -0.195 NA
ATOM     11  N   UNL     1       6.221  44.981  50.844  1.00  0.00    -0.193 NA
ATOM     12  C   UNL     1       4.216  43.644  52.304  1.00  0.00     0.147 A 
ATOM     13  C   UNL     1       5.839  43.721  50.578  1.00  0.00     0.165 A 
ATOM     14  C   UNL     1       4.870  42.996  51.250  1.00  0.00     0.082 A 
ATOM     15  N   UNL     1       6.325  42.896  49.600  1.00  0.00    -0.250 N 
ATOM     16  C   UNL     1       4.847  41.754  50.579  1.00  0.00     0.149 A 
ATOM     17  N   UNL     1       5.731  41.685  49.578  1.00  0.00    -0.179 NA
ATOM     18  C   UNL     1       7.358  43.193  48.639  1.00  0.00     0.176 C 
BRANCH  12  19
ATOM     19  N   UNL     1       3.208  43.113  53.127  1.00  0.00    -0.339 N 
ATOM     20  H   UNL     1       3.565  43.017  54.070  1.00  0.00     0.168 HD
BRANCH  19  21
ATOM     21  C   UNL     1       1.824  43.361  53.063  1.00  0.00     0.054 A 
ATOM     22  C   UNL     1       1.066  42.729  52.067  1.00  0.00     0.027 A 
ATOM     23  C   UNL     1       1.153  44.163  54.005  1.00  0.00     0.041 A 
ATOM     24  C   UNL     1      -0.320  42.898  52.006  1.00  0.00     0.005 A 
ATOM     25  C   UNL     1      -0.234  44.332  53.943  1.00  0.00     0.021 A 
ATOM     26  C   UNL     1      -0.980  43.709  52.935  1.00  0.00    -0.050 A 
ATOM     27  Br  UNL     1       2.094  45.095  55.371  1.00  0.00    -0.049 Br
ATOM     28  C   UNL     1      -2.472  43.861  52.889  1.00  0.00     0.044 C 
ENDBRANCH  19  21
ENDBRANCH  12  19
ENDBRANCH   1   9
TORSDOF 6
ENDMDL
MODEL 15
REMARK VINA RESULT:    -7.429      2.971      6.192
REMARK INTER + INTRA:         -10.976
REMARK INTER:                  -9.981
REMARK INTRA:                  -0.995
REMARK UNBOUND:                -0.942
REMARK SMILES Cc1ccc(Nc2nc(NCC[NH+](C)C)nc3c2cnn3C)c(Br)c1
REMARK SMILES IDX 10 1 11 3 12 4 13 5 14 6 15 7 9 9 8 10 16 11 7 12 17 13
REMARK SMILES IDX 18 14 21 15 19 16 20 17 22 18 6 19 5 21 4 22 23 23 3 24
REMARK SMILES IDX 25 25 2 26 24 27 1 28
REMARK H PARENT 10 2 13 8 6 20
ROOT
ATOM      1  N   UNL     1       1.554  45.668  56.658  1.00  0.00    -0.348 N 
ATOM      2  H   UNL     1       1.766  46.668  56.612  1.00  0.00     0.163 HD
ENDROOT
BRANCH   1   3
ATOM      3  C   UNL     1       0.229  45.361  57.210  1.00  0.00     0.177 C 
BRANCH   3   4
ATOM      4  C   UNL     1      -0.537  46.653  57.587  1.00  0.00     0.283 C 
BRANCH   4   5
ATOM      5  N   UNL     1      -1.621  46.922  56.554  1.00  0.00    -0.338 N 
ATOM      6  C   UNL     1      -2.446  45.723  56.220  1.00  0.00     0.332 C 
ATOM      7  C   UNL     1      -2.443  48.131  56.867  1.00  0.00     0.332 C 
ATOM      8  H   UNL     1      -1.073  47.153  55.704  1.00  0.00     0.347 HD
ENDBRANCH   4   5
ENDBRANCH   3   4
ENDBRANCH   1   3
BRANCH   1   9
ATOM      9  C   UNL     1       1.766  45.231  55.348  1.00  0.00     0.226 A 
ATOM     10  N   UNL     1       3.017  44.922  54.971  1.00  0.00    -0.195 NA
ATOM     11  N   UNL     1       0.691  45.259  54.564  1.00  0.00    -0.193 NA
ATOM     12  C   UNL     1       3.288  44.631  53.667  1.00  0.00     0.147 A 
ATOM     13  C   UNL     1       0.969  44.947  53.288  1.00  0.00     0.165 A 
ATOM     14  C   UNL     1       2.214  44.634  52.769  1.00  0.00     0.082 A 
ATOM     15  N   UNL     1       0.090  44.878  52.241  1.00  0.00    -0.250 N 
ATOM     16  C   UNL     1       1.960  44.378  51.404  1.00  0.00     0.149 A 
ATOM     17  N   UNL     1       0.673  44.528  51.075  1.00  0.00    -0.179 NA
ATOM     18  C   UNL     1      -1.329  45.129  52.272  1.00  0.00     0.176 C 
BRANCH  12  19
ATOM     19  N   UNL     1       4.633  44.350  53.374  1.00  0.00    -0.339 N 
ATOM     20  H   UNL     1       4.705  43.405  53.017  1.00  0.00     0.168 HD
BRANCH  19  21
ATOM     21  C   UNL     1       5.605  45.229  52.861  1.00  0.00     0.054 A 
ATOM     22  C   UNL     1       6.034  46.304  53.652  1.00  0.00     0.027 A 
ATOM     23  C   UNL     1       6.221  45.033  51.611  1.00  0.00     0.041 A 
ATOM     24  C   UNL     1       7.041  47.164  53.207  1.00  0.00     0.005 A 
ATOM     25  C   UNL     1       7.229  45.894  51.166  1.00  0.00     0.021 A 
ATOM     26  C   UNL     1       7.639  46.974  51.957  1.00  0.00    -0.050 A 
ATOM     27  Br  UNL     1       5.684  43.628  50.445  1.00  0.00    -0.049 Br
ATOM     28  C   UNL     1       8.745  47.877  51.496  1.00  0.00     0.044 C 
ENDBRANCH  19  21
ENDBRANCH  12  19
ENDBRANCH   1   9
TORSDOF 6
ENDMDL
MODEL 16
REMARK VINA RESULT:    -7.428      2.784      5.960
REMARK INTER + INTRA:         -10.975
REMARK INTER:                 -10.166
REMARK INTRA:                  -0.809
REMARK UNBOUND:                -0.942
REMARK SMILES Cc1ccc(Nc2nc(NCC[NH+](C)C)nc3c2cnn3C)c(Br)c1
REMARK SMILES IDX 10 1 11 3 12 4 13 5 14 6 15 7 9 9 8 10 16 11 7 12 17 13
REMARK SMILES IDX 18 14 21 15 19 16 20 17 22 18 6 19 5 21 4 22 23 23 3 24
REMARK SMILES IDX 25 25 2 26 24 27 1 28
REMARK H PARENT 10 2 13 8 6 20
ROOT
ATOM      1  N   UNL     1       2.287  45.900  56.268  1.00  0.00    -0.348 N 
ATOM      2  H   UNL     1       2.216  46.908  56.107  1.00  0.00     0.163 HD
ENDROOT
BRANCH   1   3
ATOM      3  C   UNL     1       1.175  45.338  57.045  1.00  0.00     0.177 C 
BRANCH   3   4
ATOM      4  C   UNL     1       0.276  46.455  57.632  1.00  0.00     0.283 C 
BRANCH   4   5
ATOM      5  N   UNL     1      -0.917  46.683  56.715  1.00  0.00    -0.338 N 
ATOM      6  C   UNL     1      -1.562  45.422  56.241  1.00  0.00     0.332 C 
ATOM      7  C   UNL     1      -1.895  47.674  57.259  1.00  0.00     0.332 C 
ATOM      8  H   UNL     1      -0.483  47.126  55.883  1.00  0.00     0.347 HD
ENDBRANCH   4   5
ENDBRANCH   3   4
ENDBRANCH   1   3
BRANCH   1   9
ATOM      9  C   UNL     1       2.438  45.374  54.984  1.00  0.00     0.226 A 
ATOM     10  N   UNL     1       3.250  46.010  54.123  1.00  0.00    -0.195 NA
ATOM     11  N   UNL     1       1.666  44.325  54.709  1.00  0.00    -0.193 NA
ATOM     12  C   UNL     1       3.313  45.614  52.820  1.00  0.00     0.147 A 
ATOM     13  C   UNL     1       1.757  43.932  53.428  1.00  0.00     0.165 A 
ATOM     14  C   UNL     1       2.535  44.514  52.442  1.00  0.00     0.082 A 
ATOM     15  N   UNL     1       1.103  42.888  52.833  1.00  0.00    -0.250 N 
ATOM     16  C   UNL     1       2.282  43.725  51.298  1.00  0.00     0.149 A 
ATOM     17  N   UNL     1       1.410  42.738  51.528  1.00  0.00    -0.179 NA
ATOM     18  C   UNL     1       0.167  41.978  53.447  1.00  0.00     0.176 C 
BRANCH  12  19
ATOM     19  N   UNL     1       4.172  46.364  51.999  1.00  0.00    -0.339 N 
ATOM     20  H   UNL     1       3.705  47.219  51.723  1.00  0.00     0.168 HD
BRANCH  19  21
ATOM     21  C   UNL     1       5.571  46.482  52.096  1.00  0.00     0.054 A 
ATOM     22  C   UNL     1       6.113  47.496  52.897  1.00  0.00     0.027 A 
ATOM     23  C   UNL     1       6.453  45.576  51.478  1.00  0.00     0.041 A 
ATOM     24  C   UNL     1       7.495  47.611  53.071  1.00  0.00     0.005 A 
ATOM     25  C   UNL     1       7.836  45.691  51.652  1.00  0.00     0.021 A 
ATOM     26  C   UNL     1       8.368  46.717  52.442  1.00  0.00    -0.050 A 
ATOM     27  Br  UNL     1       5.821  44.189  50.339  1.00  0.00    -0.049 Br
ATOM     28  C   UNL     1       9.849  46.820  52.659  1.00  0.00     0.044 C 
ENDBRANCH  19  21
ENDBRANCH  12  19
ENDBRANCH   1   9
TORSDOF 6
ENDMDL
MODEL 17
REMARK VINA RESULT:    -7.394      2.363      6.239
REMARK INTER + INTRA:         -10.929
REMARK INTER:                 -10.211
REMARK INTRA:                  -0.719
REMARK UNBOUND:                -0.942
REMARK SMILES Cc1ccc(Nc2nc(NCC[NH+](C)C)nc3c2cnn3C)c(Br)c1
REMARK SMILES IDX 10 1 11 3 12 4 13 5 14 6 15 7 9 9 8 10 16 11 7 12 17 13
REMARK SMILES IDX 18 14 21 15 19 16 20 17 22 18 6 19 5 21 4 22 23 23 3 24
REMARK SMILES IDX 25 25 2 26 24 27 1 28
REMARK H PARENT 10 2 13 8 6 20
ROOT
ATOM      1  N   UNL     1       3.323  46.010  55.874  1.00  0.00    -0.348 N 
ATOM      2  H   UNL     1       3.203  45.782  56.864  1.00  0.00     0.163 HD
ENDROOT
BRANCH   1   3
ATOM      3  C   UNL     1       4.690  45.813  55.376  1.00  0.00     0.177 C 
BRANCH   3   4
ATOM      4  C   UNL     1       5.192  47.057  54.601  1.00  0.00     0.283 C 
BRANCH   4   5
ATOM      5  N   UNL     1       6.490  46.720  53.882  1.00  0.00    -0.338 N 
ATOM      6  C   UNL     1       6.658  45.264  53.595  1.00  0.00     0.332 C 
ATOM      7  C   UNL     1       6.743  47.586  52.691  1.00  0.00     0.332 C 
ATOM      8  H   UNL     1       7.211  46.970  54.585  1.00  0.00     0.347 HD
ENDBRANCH   4   5
ENDBRANCH   3   4
ENDBRANCH   1   3
BRANCH   1   9
ATOM      9  C   UNL     1       2.346  45.238  55.242  1.00  0.00     0.226 A 
ATOM     10  N   UNL     1       2.593  44.780  54.004  1.00  0.00    -0.195 NA
ATOM     11  N   UNL     1       1.203  45.114  55.914  1.00  0.00    -0.193 NA
ATOM     12  C   UNL     1       1.613  44.147  53.299  1.00  0.00     0.147 A 
ATOM     13  C   UNL     1       0.256  44.468  55.216  1.00  0.00     0.165 A 
ATOM     14  C   UNL     1       0.376  43.970  53.930  1.00  0.00     0.082 A 
ATOM     15  N   UNL     1      -1.018  44.173  55.623  1.00  0.00    -0.250 N 
ATOM     16  C   UNL     1      -0.882  43.381  53.673  1.00  0.00     0.149 A 
ATOM     17  N   UNL     1      -1.734  43.504  54.695  1.00  0.00    -0.179 NA
ATOM     18  C   UNL     1      -1.627  44.493  56.889  1.00  0.00     0.176 C 
BRANCH  12  19
ATOM     19  N   UNL     1       1.967  43.733  52.004  1.00  0.00    -0.339 N 
ATOM     20  H   UNL     1       1.300  44.109  51.341  1.00  0.00     0.168 HD
BRANCH  19  21
ATOM     21  C   UNL     1       3.261  43.564  51.478  1.00  0.00     0.054 A 
ATOM     22  C   UNL     1       3.789  42.269  51.375  1.00  0.00     0.027 A 
ATOM     23  C   UNL     1       4.025  44.637  50.982  1.00  0.00     0.041 A 
ATOM     24  C   UNL     1       5.044  42.050  50.801  1.00  0.00     0.005 A 
ATOM     25  C   UNL     1       5.282  44.417  50.409  1.00  0.00     0.021 A 
ATOM     26  C   UNL     1       5.806  43.121  50.324  1.00  0.00    -0.050 A 
ATOM     27  Br  UNL     1       3.418  46.436  51.111  1.00  0.00    -0.049 Br
ATOM     28  C   UNL     1       7.137  42.881  49.677  1.00  0.00     0.044 C 
ENDBRANCH  19  21
ENDBRANCH  12  19
ENDBRANCH   1   9
TORSDOF 6
ENDMDL
MODEL 18
REMARK VINA RESULT:    -7.358      2.420      4.924
REMARK INTER + INTRA:         -10.881
REMARK INTER:                  -9.915
REMARK INTRA:                  -0.965
REMARK UNBOUND:                -0.942
REMARK SMILES Cc1ccc(Nc2nc(NCC[NH+](C)C)nc3c2cnn3C)c(Br)c1
REMARK SMILES IDX 10 1 11 3 12 4 13 5 14 6 15 7 9 9 8 10 16 11 7 12 17 13
REMARK SMILES IDX 18 14 21 15 19 16 20 17 22 18 6 19 5 21 4 22 23 23 3 24
REMARK SMILES IDX 25 25 2 26 24 27 1 28
REMARK H PARENT 10 2 13 8 6 20
ROOT
ATOM      1  N   UNL     1       6.899  43.652  49.335  1.00  0.00    -0.348 N 
ATOM      2  H   UNL     1       7.872  43.820  49.068  1.00  0.00     0.163 HD
ENDROOT
BRANCH   1   3
ATOM      3  C   UNL     1       6.611  42.260  49.701  1.00  0.00     0.177 C 
BRANCH   3   4
ATOM      4  C   UNL     1       5.787  41.546  48.600  1.00  0.00     0.283 C 
BRANCH   4   5
ATOM      5  N   UNL     1       4.608  40.823  49.235  1.00  0.00    -0.338 N 
ATOM      6  C   UNL     1       4.023  41.539  50.408  1.00  0.00     0.332 C 
ATOM      7  C   UNL     1       3.580  40.390  48.240  1.00  0.00     0.332 C 
ATOM      8  H   UNL     1       5.044  39.956  49.603  1.00  0.00     0.347 HD
ENDBRANCH   4   5
ENDBRANCH   3   4
ENDBRANCH   1   3
BRANCH   1   9
ATOM      9  C   UNL     1       6.673  44.589  50.345  1.00  0.00     0.226 A 
ATOM     10  N   UNL     1       5.404  44.914  50.643  1.00  0.00    -0.195 NA
ATOM     11  N   UNL     1       7.769  45.147  50.853  1.00  0.00    -0.193 NA
ATOM     12  C   UNL     1       5.144  45.927  51.519  1.00  0.00     0.147 A 
ATOM     13  C   UNL     1       7.497  46.125  51.732  1.00  0.00     0.165 A 
ATOM     14  C   UNL     1       6.240  46.569  52.106  1.00  0.00     0.082 A 
ATOM     15  N   UNL     1       8.395  46.885  52.431  1.00  0.00    -0.250 N 
ATOM     16  C   UNL     1       6.504  47.587  53.048  1.00  0.00     0.149 A 
ATOM     17  N   UNL     1       7.811  47.787  53.247  1.00  0.00    -0.179 NA
ATOM     18  C   UNL     1       9.833  46.807  52.379  1.00  0.00     0.176 C 
BRANCH  12  19
ATOM     19  N   UNL     1       3.784  46.204  51.739  1.00  0.00    -0.339 N 
ATOM     20  H   UNL     1       3.488  46.937  51.105  1.00  0.00     0.168 HD
BRANCH  19  21
ATOM     21  C   UNL     1       2.764  45.297  52.080  1.00  0.00     0.054 A 
ATOM     22  C   UNL     1       1.974  44.748  51.060  1.00  0.00     0.027 A 
ATOM     23  C   UNL     1       2.549  44.859  53.400  1.00  0.00     0.041 A 
ATOM     24  C   UNL     1       0.992  43.797  51.349  1.00  0.00     0.005 A 
ATOM     25  C   UNL     1       1.565  43.908  53.688  1.00  0.00     0.021 A 
ATOM     26  C   UNL     1       0.771  43.377  52.664  1.00  0.00    -0.050 A 
ATOM     27  Br  UNL     1       3.540  45.572  54.860  1.00  0.00    -0.049 Br
ATOM     28  C   UNL     1      -0.259  42.330  52.967  1.00  0.00     0.044 C 
ENDBRANCH  19  21
ENDBRANCH  12  19
ENDBRANCH   1   9
TORSDOF 6
ENDMDL
MODEL 19
REMARK VINA RESULT:    -7.277      2.980      7.464
REMARK INTER + INTRA:         -10.772
REMARK INTER:                  -9.903
REMARK INTRA:                  -0.870
REMARK UNBOUND:                -0.942
REMARK SMILES Cc1ccc(Nc2nc(NCC[NH+](C)C)nc3c2cnn3C)c(Br)c1
REMARK SMILES IDX 10 1 11 3 12 4 13 5 14 6 15 7 9 9 8 10 16 11 7 12 17 13
REMARK SMILES IDX 18 14 21 15 19 16 20 17 22 18 6 19 5 21 4 22 23 23 3 24
REMARK SMILES IDX 25 25 2 26 24 27 1 28
REMARK H PARENT 10 2 13 8 6 20
ROOT
ATOM      1  N   UNL     1       3.358  41.501  50.521  1.00  0.00    -0.348 N 
ATOM      2  H   UNL     1       3.155  41.649  49.530  1.00  0.00     0.163 HD
ENDROOT
BRANCH   1   3
ATOM      3  C   UNL     1       4.788  41.531  50.850  1.00  0.00     0.177 C 
BRANCH   3   4
ATOM      4  C   UNL     1       5.630  42.052  49.659  1.00  0.00     0.283 C 
BRANCH   4   5
ATOM      5  N   UNL     1       6.536  43.180  50.130  1.00  0.00    -0.338 N 
ATOM      6  C   UNL     1       7.706  43.426  49.235  1.00  0.00     0.332 C 
ATOM      7  C   UNL     1       5.788  44.428  50.476  1.00  0.00     0.332 C 
ATOM      8  H   UNL     1       6.916  42.810  51.022  1.00  0.00     0.347 HD
ENDBRANCH   4   5
ENDBRANCH   3   4
ENDBRANCH   1   3
BRANCH   1   9
ATOM      9  C   UNL     1       2.582  42.470  51.160  1.00  0.00     0.226 A 
ATOM     10  N   UNL     1       3.103  43.110  52.221  1.00  0.00    -0.195 NA
ATOM     11  N   UNL     1       1.341  42.594  50.697  1.00  0.00    -0.193 NA
ATOM     12  C   UNL     1       2.329  43.956  52.958  1.00  0.00     0.147 A 
ATOM     13  C   UNL     1       0.598  43.449  51.419  1.00  0.00     0.165 A 
ATOM     14  C   UNL     1       1.007  44.150  52.541  1.00  0.00     0.082 A 
ATOM     15  N   UNL     1      -0.706  43.801  51.203  1.00  0.00    -0.250 N 
ATOM     16  C   UNL     1      -0.130  44.904  52.905  1.00  0.00     0.149 A 
ATOM     17  N   UNL     1      -1.175  44.694  52.099  1.00  0.00    -0.179 NA
ATOM     18  C   UNL     1      -1.577  43.330  50.154  1.00  0.00     0.176 C 
BRANCH  12  19
ATOM     19  N   UNL     1       2.962  44.551  54.062  1.00  0.00    -0.339 N 
ATOM     20  H   UNL     1       2.798  43.983  54.885  1.00  0.00     0.168 HD
BRANCH  19  21
ATOM     21  C   UNL     1       4.187  45.244  54.083  1.00  0.00     0.054 A 
ATOM     22  C   UNL     1       5.256  44.714  54.818  1.00  0.00     0.027 A 
ATOM     23  C   UNL     1       4.407  46.415  53.333  1.00  0.00     0.041 A 
ATOM     24  C   UNL     1       6.506  45.337  54.815  1.00  0.00     0.005 A 
ATOM     25  C   UNL     1       5.659  47.039  53.331  1.00  0.00     0.021 A 
ATOM     26  C   UNL     1       6.716  46.510  54.082  1.00  0.00    -0.050 A 
ATOM     27  Br  UNL     1       3.011  47.236  52.334  1.00  0.00    -0.049 Br
ATOM     28  C   UNL     1       8.069  47.157  54.051  1.00  0.00     0.044 C 
ENDBRANCH  19  21
ENDBRANCH  12  19
ENDBRANCH   1   9
TORSDOF 6
ENDMDL
MODEL 20
REMARK VINA RESULT:    -7.247      2.376      5.445
REMARK INTER + INTRA:         -10.732
REMARK INTER:                  -9.934
REMARK INTRA:                  -0.798
REMARK UNBOUND:                -0.942
REMARK SMILES Cc1ccc(Nc2nc(NCC[NH+](C)C)nc3c2cnn3C)c(Br)c1
REMARK SMILES IDX 10 1 11 3 12 4 13 5 14 6 15 7 9 9 8 10 16 11 7 12 17 13
REMARK SMILES IDX 18 14 21 15 19 16 20 17 22 18 6 19 5 21 4 22 23 23 3 24
REMARK SMILES IDX 25 25 2 26 24 27 1 28
REMARK H PARENT 10 2 13 8 6 20
ROOT
ATOM      1  N   UNL     1       7.025  43.198  49.119  1.00  0.00    -0.348 N 
ATOM      2  H   UNL     1       8.022  42.969  49.140  1.00  0.00     0.163 HD
ENDROOT
BRANCH   1   3
ATOM      3  C   UNL     1       6.141  42.044  49.318  1.00  0.00     0.177 C 
BRANCH   3   4
ATOM      4  C   UNL     1       5.553  41.545  47.974  1.00  0.00     0.283 C 
BRANCH   4   5
ATOM      5  N   UNL     1       4.431  40.554  48.246  1.00  0.00    -0.338 N 
ATOM      6  C   UNL     1       3.694  40.812  49.519  1.00  0.00     0.332 C 
ATOM      7  C   UNL     1       3.526  40.356  47.073  1.00  0.00     0.332 C 
ATOM      8  H   UNL     1       4.943  39.660  48.375  1.00  0.00     0.347 HD
ENDBRANCH   4   5
ENDBRANCH   3   4
ENDBRANCH   1   3
BRANCH   1   9
ATOM      9  C   UNL     1       6.904  44.209  50.073  1.00  0.00     0.226 A 
ATOM     10  N   UNL     1       5.671  44.591  50.449  1.00  0.00    -0.195 NA
ATOM     11  N   UNL     1       8.050  44.770  50.451  1.00  0.00    -0.193 NA
ATOM     12  C   UNL     1       5.507  45.669  51.267  1.00  0.00     0.147 A 
ATOM     13  C   UNL     1       7.873  45.814  51.276  1.00  0.00     0.165 A 
ATOM     14  C   UNL     1       6.662  46.319  51.717  1.00  0.00     0.082 A 
ATOM     15  N   UNL     1       8.843  46.595  51.845  1.00  0.00    -0.250 N 
ATOM     16  C   UNL     1       7.026  47.393  52.559  1.00  0.00     0.149 A 
ATOM     17  N   UNL     1       8.349  47.568  52.639  1.00  0.00    -0.179 NA
ATOM     18  C   UNL     1      10.270  46.473  51.684  1.00  0.00     0.176 C 
BRANCH  12  19
ATOM     19  N   UNL     1       4.177  46.000  51.575  1.00  0.00    -0.339 N 
ATOM     20  H   UNL     1       3.621  45.962  50.729  1.00  0.00     0.168 HD
BRANCH  19  21
ATOM     21  C   UNL     1       3.460  45.687  52.744  1.00  0.00     0.054 A 
ATOM     22  C   UNL     1       3.860  46.258  53.960  1.00  0.00     0.027 A 
ATOM     23  C   UNL     1       2.308  44.878  52.734  1.00  0.00     0.041 A 
ATOM     24  C   UNL     1       3.139  46.023  55.134  1.00  0.00     0.005 A 
ATOM     25  C   UNL     1       1.587  44.643  53.909  1.00  0.00     0.021 A 
ATOM     26  C   UNL     1       2.004  45.206  55.121  1.00  0.00    -0.050 A 
ATOM     27  Br  UNL     1       1.704  44.024  51.143  1.00  0.00    -0.049 Br
ATOM     28  C   UNL     1       1.210  44.984  56.375  1.00  0.00     0.044 C 
ENDBRANCH  19  21
ENDBRANCH  12  19
ENDBRANCH   1   9
TORSDOF 6
ENDMDL
