MODEL 1
REMARK VINA RESULT:    -8.735      0.000      0.000
REMARK INTER + INTRA:         -12.808
REMARK INTER:                 -11.799
REMARK INTRA:                  -1.010
REMARK UNBOUND:                -1.010
REMARK SMILES CCCCNc1nc(Nc2ccccc2C)c2cnn(C)c2n1
REMARK SMILES IDX 5 1 4 3 3 4 2 5 1 6 6 7 7 8 23 9 8 10 22 11 17 12 20 13
REMARK SMILES IDX 18 14 19 15 21 16 9 17 10 19 11 20 15 21 12 22 14 23 13 24
REMARK SMILES IDX 16 25
REMARK H PARENT 5 2 9 18
ROOT
ATOM      1  N   UNL     1       4.896  46.941  54.973  1.00  0.00    -0.354 N 
ATOM      2  H   UNL     1       4.330  47.643  54.511  1.00  0.00     0.163 HD
ENDROOT
BRANCH   1   3
ATOM      3  C   UNL     1       4.206  45.755  55.445  1.00  0.00     0.116 C 
BRANCH   3   4
ATOM      4  C   UNL     1       2.720  45.724  55.068  1.00  0.00     0.021 C 
BRANCH   4   5
ATOM      5  C   UNL     1       2.412  45.104  53.700  1.00  0.00    -0.002 C 
ATOM      6  C   UNL     1       2.002  46.100  52.631  1.00  0.00     0.004 C 
ENDBRANCH   4   5
ENDBRANCH   3   4
ENDBRANCH   1   3
BRANCH   1   7
ATOM      7  C   UNL     1       6.003  46.752  54.160  1.00  0.00     0.226 A 
ATOM      8  N   UNL     1       5.714  46.271  52.939  1.00  0.00    -0.195 NA
ATOM      9  N   UNL     1       7.228  47.039  54.617  1.00  0.00    -0.193 NA
ATOM     10  C   UNL     1       6.698  46.048  52.029  1.00  0.00     0.147 A 
ATOM     11  C   UNL     1       8.187  46.803  53.710  1.00  0.00     0.165 A 
ATOM     12  C   UNL     1       8.010  46.319  52.430  1.00  0.00     0.082 A 
ATOM     13  N   UNL     1       9.535  46.991  53.858  1.00  0.00    -0.250 N 
ATOM     14  C   UNL     1       9.314  46.243  51.899  1.00  0.00     0.149 A 
ATOM     15  N   UNL     1      10.252  46.654  52.761  1.00  0.00    -0.179 NA
ATOM     16  C   UNL     1      10.216  47.492  55.025  1.00  0.00     0.176 C 
BRANCH  10  17
ATOM     17  N   UNL     1       6.393  45.536  50.758  1.00  0.00    -0.339 N 
ATOM     18  H   UNL     1       5.903  46.196  50.167  1.00  0.00     0.168 HD
BRANCH  17  19
ATOM     19  C   UNL     1       6.036  44.205  50.451  1.00  0.00     0.043 A 
ATOM     20  C   UNL     1       4.872  43.700  51.054  1.00  0.00     0.026 A 
ATOM     21  C   UNL     1       6.858  43.326  49.719  1.00  0.00    -0.028 A 
ATOM     22  C   UNL     1       4.477  42.376  50.870  1.00  0.00     0.002 A 
ATOM     23  C   UNL     1       6.440  41.996  49.527  1.00  0.00     0.005 A 
ATOM     24  C   UNL     1       5.258  41.525  50.099  1.00  0.00     0.000 A 
ATOM     25  C   UNL     1       8.159  43.756  49.100  1.00  0.00     0.046 C 
ENDBRANCH  17  19
ENDBRANCH  10  17
ENDBRANCH   1   7
TORSDOF 6
ENDMDL
MODEL 2
REMARK VINA RESULT:    -8.331      1.712      5.197
REMARK INTER + INTRA:         -12.262
REMARK INTER:                 -11.211
REMARK INTRA:                  -1.051
REMARK UNBOUND:                -1.010
REMARK SMILES CCCCNc1nc(Nc2ccccc2C)c2cnn(C)c2n1
REMARK SMILES IDX 5 1 4 3 3 4 2 5 1 6 6 7 7 8 23 9 8 10 22 11 17 12 20 13
REMARK SMILES IDX 18 14 19 15 21 16 9 17 10 19 11 20 15 21 12 22 14 23 13 24
REMARK SMILES IDX 16 25
REMARK H PARENT 5 2 9 18
ROOT
ATOM      1  N   UNL     1       3.507  43.791  53.008  1.00  0.00    -0.354 N 
ATOM      2  H   UNL     1       3.851  43.172  53.732  1.00  0.00     0.163 HD
ENDROOT
BRANCH   1   3
ATOM      3  C   UNL     1       2.884  45.026  53.449  1.00  0.00     0.116 C 
BRANCH   3   4
ATOM      4  C   UNL     1       3.048  45.289  54.951  1.00  0.00     0.021 C 
BRANCH   4   5
ATOM      5  C   UNL     1       4.349  45.996  55.346  1.00  0.00    -0.002 C 
ATOM      6  C   UNL     1       5.504  45.064  55.667  1.00  0.00     0.004 C 
ENDBRANCH   4   5
ENDBRANCH   3   4
ENDBRANCH   1   3
BRANCH   1   7
ATOM      7  C   UNL     1       4.529  43.892  52.078  1.00  0.00     0.226 A 
ATOM      8  N   UNL     1       5.291  44.991  52.211  1.00  0.00    -0.195 NA
ATOM      9  N   UNL     1       4.687  42.941  51.148  1.00  0.00    -0.193 NA
ATOM     10  C   UNL     1       6.340  45.216  51.377  1.00  0.00     0.147 A 
ATOM     11  C   UNL     1       5.719  43.185  50.327  1.00  0.00     0.165 A 
ATOM     12  C   UNL     1       6.569  44.271  50.373  1.00  0.00     0.082 A 
ATOM     13  N   UNL     1       6.148  42.415  49.281  1.00  0.00    -0.250 N 
ATOM     14  C   UNL     1       7.464  44.062  49.304  1.00  0.00     0.149 A 
ATOM     15  N   UNL     1       7.218  42.931  48.632  1.00  0.00    -0.179 NA
ATOM     16  C   UNL     1       5.581  41.167  48.835  1.00  0.00     0.176 C 
BRANCH  10  17
ATOM     17  N   UNL     1       7.126  46.372  51.514  1.00  0.00    -0.339 N 
ATOM     18  H   UNL     1       7.427  46.759  50.629  1.00  0.00     0.168 HD
BRANCH  17  19
ATOM     19  C   UNL     1       8.062  46.635  52.537  1.00  0.00     0.043 A 
ATOM     20  C   UNL     1       7.598  47.336  53.664  1.00  0.00     0.026 A 
ATOM     21  C   UNL     1       9.443  46.382  52.416  1.00  0.00    -0.028 A 
ATOM     22  C   UNL     1       8.463  47.706  54.693  1.00  0.00     0.002 A 
ATOM     23  C   UNL     1      10.301  46.746  53.470  1.00  0.00     0.005 A 
ATOM     24  C   UNL     1       9.814  47.403  54.600  1.00  0.00     0.000 A 
ATOM     25  C   UNL     1      10.042  45.705  51.215  1.00  0.00     0.046 C 
ENDBRANCH  17  19
ENDBRANCH  10  17
ENDBRANCH   1   7
TORSDOF 6
ENDMDL
MODEL 3
REMARK VINA RESULT:    -8.329      1.724      5.211
REMARK INTER + INTRA:         -12.260
REMARK INTER:                 -11.911
REMARK INTRA:                  -0.348
REMARK UNBOUND:                -1.010
REMARK SMILES CCCCNc1nc(Nc2ccccc2C)c2cnn(C)c2n1
REMARK SMILES IDX 5 1 4 3 3 4 2 5 1 6 6 7 7 8 23 9 8 10 22 11 17 12 20 13
REMARK SMILES IDX 18 14 19 15 21 16 9 17 10 19 11 20 15 21 12 22 14 23 13 24
REMARK SMILES IDX 16 25
REMARK H PARENT 5 2 9 18
ROOT
ATOM      1  N   UNL     1       6.239  46.768  54.877  1.00  0.00    -0.354 N 
ATOM      2  H   UNL     1       6.442  46.440  55.814  1.00  0.00     0.163 HD
ENDROOT
BRANCH   1   3
ATOM      3  C   UNL     1       7.363  46.867  53.963  1.00  0.00     0.116 C 
BRANCH   3   4
ATOM      4  C   UNL     1       8.588  47.555  54.577  1.00  0.00     0.021 C 
BRANCH   4   5
ATOM      5  C   UNL     1       9.939  47.061  54.050  1.00  0.00    -0.002 C 
ATOM      6  C   UNL     1       9.966  46.750  52.565  1.00  0.00     0.004 C 
ENDBRANCH   4   5
ENDBRANCH   3   4
ENDBRANCH   1   3
BRANCH   1   7
ATOM      7  C   UNL     1       5.136  46.043  54.452  1.00  0.00     0.226 A 
ATOM      8  N   UNL     1       5.291  45.456  53.253  1.00  0.00    -0.195 NA
ATOM      9  N   UNL     1       4.040  45.978  55.218  1.00  0.00    -0.193 NA
ATOM     10  C   UNL     1       4.297  44.701  52.715  1.00  0.00     0.147 A 
ATOM     11  C   UNL     1       3.066  45.239  54.667  1.00  0.00     0.165 A 
ATOM     12  C   UNL     1       3.114  44.587  53.451  1.00  0.00     0.082 A 
ATOM     13  N   UNL     1       1.829  44.973  55.188  1.00  0.00    -0.250 N 
ATOM     14  C   UNL     1       1.852  43.970  53.334  1.00  0.00     0.149 A 
ATOM     15  N   UNL     1       1.061  44.197  54.389  1.00  0.00    -0.179 NA
ATOM     16  C   UNL     1       1.305  45.430  56.451  1.00  0.00     0.176 C 
BRANCH  10  17
ATOM     17  N   UNL     1       4.459  44.098  51.458  1.00  0.00    -0.339 N 
ATOM     18  H   UNL     1       3.811  43.339  51.291  1.00  0.00     0.168 HD
BRANCH  17  19
ATOM     19  C   UNL     1       5.677  43.897  50.772  1.00  0.00     0.043 A 
ATOM     20  C   UNL     1       6.517  45.014  50.619  1.00  0.00     0.026 A 
ATOM     21  C   UNL     1       6.010  42.701  50.106  1.00  0.00    -0.028 A 
ATOM     22  C   UNL     1       7.705  44.932  49.895  1.00  0.00     0.002 A 
ATOM     23  C   UNL     1       7.220  42.627  49.393  1.00  0.00     0.005 A 
ATOM     24  C   UNL     1       8.062  43.735  49.289  1.00  0.00     0.000 A 
ATOM     25  C   UNL     1       5.137  41.477  50.150  1.00  0.00     0.046 C 
ENDBRANCH  17  19
ENDBRANCH  10  17
ENDBRANCH   1   7
TORSDOF 6
ENDMDL
MODEL 4
REMARK VINA RESULT:    -8.294      2.469      6.498
REMARK INTER + INTRA:         -12.213
REMARK INTER:                 -11.478
REMARK INTRA:                  -0.735
REMARK UNBOUND:                -1.010
REMARK SMILES CCCCNc1nc(Nc2ccccc2C)c2cnn(C)c2n1
REMARK SMILES IDX 5 1 4 3 3 4 2 5 1 6 6 7 7 8 23 9 8 10 22 11 17 12 20 13
REMARK SMILES IDX 18 14 19 15 21 16 9 17 10 19 11 20 15 21 12 22 14 23 13 24
REMARK SMILES IDX 16 25
REMARK H PARENT 5 2 9 18
ROOT
ATOM      1  N   UNL     1       6.050  41.418  49.279  1.00  0.00    -0.354 N 
ATOM      2  H   UNL     1       6.162  40.637  49.915  1.00  0.00     0.163 HD
ENDROOT
BRANCH   1   3
ATOM      3  C   UNL     1       5.274  41.173  48.077  1.00  0.00     0.116 C 
BRANCH   3   4
ATOM      4  C   UNL     1       5.797  41.929  46.850  1.00  0.00     0.021 C 
BRANCH   4   5
ATOM      5  C   UNL     1       5.109  41.571  45.528  1.00  0.00    -0.002 C 
ATOM      6  C   UNL     1       5.094  42.687  44.499  1.00  0.00     0.004 C 
ENDBRANCH   4   5
ENDBRANCH   3   4
ENDBRANCH   1   3
BRANCH   1   7
ATOM      7  C   UNL     1       5.679  42.497  50.066  1.00  0.00     0.226 A 
ATOM      8  N   UNL     1       6.491  43.562  49.959  1.00  0.00    -0.195 NA
ATOM      9  N   UNL     1       4.595  42.417  50.848  1.00  0.00    -0.193 NA
ATOM     10  C   UNL     1       6.244  44.699  50.662  1.00  0.00     0.147 A 
ATOM     11  C   UNL     1       4.372  43.542  51.542  1.00  0.00     0.165 A 
ATOM     12  C   UNL     1       5.131  44.695  51.508  1.00  0.00     0.082 A 
ATOM     13  N   UNL     1       3.355  43.787  52.423  1.00  0.00    -0.250 N 
ATOM     14  C   UNL     1       4.489  45.565  52.412  1.00  0.00     0.149 A 
ATOM     15  N   UNL     1       3.402  45.022  52.975  1.00  0.00    -0.179 NA
ATOM     16  C   UNL     1       2.294  42.885  52.794  1.00  0.00     0.176 C 
BRANCH  10  17
ATOM     17  N   UNL     1       7.101  45.805  50.555  1.00  0.00    -0.339 N 
ATOM     18  H   UNL     1       7.396  45.994  49.605  1.00  0.00     0.168 HD
BRANCH  17  19
ATOM     19  C   UNL     1       8.084  46.201  51.487  1.00  0.00     0.043 A 
ATOM     20  C   UNL     1       7.722  47.192  52.416  1.00  0.00     0.026 A 
ATOM     21  C   UNL     1       9.428  45.783  51.430  1.00  0.00    -0.028 A 
ATOM     22  C   UNL     1       8.645  47.700  53.329  1.00  0.00     0.002 A 
ATOM     23  C   UNL     1      10.345  46.291  52.369  1.00  0.00     0.005 A 
ATOM     24  C   UNL     1       9.956  47.242  53.311  1.00  0.00     0.000 A 
ATOM     25  C   UNL     1       9.925  44.783  50.423  1.00  0.00     0.046 C 
ENDBRANCH  17  19
ENDBRANCH  10  17
ENDBRANCH   1   7
TORSDOF 6
ENDMDL
MODEL 5
REMARK VINA RESULT:    -8.256      1.824      5.287
REMARK INTER + INTRA:         -12.162
REMARK INTER:                 -11.334
REMARK INTRA:                  -0.828
REMARK UNBOUND:                -1.010
REMARK SMILES CCCCNc1nc(Nc2ccccc2C)c2cnn(C)c2n1
REMARK SMILES IDX 5 1 4 3 3 4 2 5 1 6 6 7 7 8 23 9 8 10 22 11 17 12 20 13
REMARK SMILES IDX 18 14 19 15 21 16 9 17 10 19 11 20 15 21 12 22 14 23 13 24
REMARK SMILES IDX 16 25
REMARK H PARENT 5 2 9 18
ROOT
ATOM      1  N   UNL     1       3.038  43.289  53.028  1.00  0.00    -0.354 N 
ATOM      2  H   UNL     1       3.461  42.921  53.872  1.00  0.00     0.163 HD
ENDROOT
BRANCH   1   3
ATOM      3  C   UNL     1       2.023  44.312  53.200  1.00  0.00     0.116 C 
BRANCH   3   4
ATOM      4  C   UNL     1       1.180  44.127  54.468  1.00  0.00     0.021 C 
BRANCH   4   5
ATOM      5  C   UNL     1       1.656  44.930  55.684  1.00  0.00    -0.002 C 
ATOM      6  C   UNL     1       2.880  45.793  55.434  1.00  0.00     0.004 C 
ENDBRANCH   4   5
ENDBRANCH   3   4
ENDBRANCH   1   3
BRANCH   1   7
ATOM      7  C   UNL     1       4.088  43.574  52.170  1.00  0.00     0.226 A 
ATOM      8  N   UNL     1       4.647  44.780  52.364  1.00  0.00    -0.195 NA
ATOM      9  N   UNL     1       4.461  42.680  51.245  1.00  0.00    -0.193 NA
ATOM     10  C   UNL     1       5.697  45.191  51.605  1.00  0.00     0.147 A 
ATOM     11  C   UNL     1       5.490  43.105  50.499  1.00  0.00     0.165 A 
ATOM     12  C   UNL     1       6.145  44.315  50.611  1.00  0.00     0.082 A 
ATOM     13  N   UNL     1       6.108  42.437  49.477  1.00  0.00    -0.250 N 
ATOM     14  C   UNL     1       7.130  44.277  49.603  1.00  0.00     0.149 A 
ATOM     15  N   UNL     1       7.118  43.134  48.907  1.00  0.00    -0.179 NA
ATOM     16  C   UNL     1       5.786  41.121  48.983  1.00  0.00     0.176 C 
BRANCH  10  17
ATOM     17  N   UNL     1       6.271  46.456  51.804  1.00  0.00    -0.339 N 
ATOM     18  H   UNL     1       6.139  47.084  51.021  1.00  0.00     0.168 HD
BRANCH  17  19
ATOM     19  C   UNL     1       7.471  46.736  52.494  1.00  0.00     0.043 A 
ATOM     20  C   UNL     1       8.663  46.674  51.752  1.00  0.00     0.026 A 
ATOM     21  C   UNL     1       7.547  46.908  53.890  1.00  0.00    -0.028 A 
ATOM     22  C   UNL     1       9.904  46.863  52.360  1.00  0.00     0.002 A 
ATOM     23  C   UNL     1       8.804  47.114  54.487  1.00  0.00     0.005 A 
ATOM     24  C   UNL     1       9.974  47.092  53.727  1.00  0.00     0.000 A 
ATOM     25  C   UNL     1       6.332  46.913  54.775  1.00  0.00     0.046 C 
ENDBRANCH  17  19
ENDBRANCH  10  17
ENDBRANCH   1   7
TORSDOF 6
ENDMDL
MODEL 6
REMARK VINA RESULT:    -8.154      0.911      1.865
REMARK INTER + INTRA:         -12.024
REMARK INTER:                 -11.325
REMARK INTRA:                  -0.699
REMARK UNBOUND:                -1.010
REMARK SMILES CCCCNc1nc(Nc2ccccc2C)c2cnn(C)c2n1
REMARK SMILES IDX 5 1 4 3 3 4 2 5 1 6 6 7 7 8 23 9 8 10 22 11 17 12 20 13
REMARK SMILES IDX 18 14 19 15 21 16 9 17 10 19 11 20 15 21 12 22 14 23 13 24
REMARK SMILES IDX 16 25
REMARK H PARENT 5 2 9 18
ROOT
ATOM      1  N   UNL     1       4.272  47.198  54.946  1.00  0.00    -0.354 N 
ATOM      2  H   UNL     1       3.710  47.883  54.454  1.00  0.00     0.163 HD
ENDROOT
BRANCH   1   3
ATOM      3  C   UNL     1       3.575  46.034  55.463  1.00  0.00     0.116 C 
BRANCH   3   4
ATOM      4  C   UNL     1       2.323  45.666  54.658  1.00  0.00     0.021 C 
BRANCH   4   5
ATOM      5  C   UNL     1       1.317  44.776  55.397  1.00  0.00    -0.002 C 
ATOM      6  C   UNL     1       0.851  45.321  56.735  1.00  0.00     0.004 C 
ENDBRANCH   4   5
ENDBRANCH   3   4
ENDBRANCH   1   3
BRANCH   1   7
ATOM      7  C   UNL     1       5.380  46.972  54.146  1.00  0.00     0.226 A 
ATOM      8  N   UNL     1       5.100  46.395  52.965  1.00  0.00    -0.195 NA
ATOM      9  N   UNL     1       6.600  47.319  54.576  1.00  0.00    -0.193 NA
ATOM     10  C   UNL     1       6.087  46.126  52.071  1.00  0.00     0.147 A 
ATOM     11  C   UNL     1       7.563  47.036  53.686  1.00  0.00     0.165 A 
ATOM     12  C   UNL     1       7.393  46.454  52.446  1.00  0.00     0.082 A 
ATOM     13  N   UNL     1       8.906  47.264  53.815  1.00  0.00    -0.250 N 
ATOM     14  C   UNL     1       8.698  46.367  51.918  1.00  0.00     0.149 A 
ATOM     15  N   UNL     1       9.628  46.861  52.743  1.00  0.00    -0.179 NA
ATOM     16  C   UNL     1       9.578  47.865  54.939  1.00  0.00     0.176 C 
BRANCH  10  17
ATOM     17  N   UNL     1       5.791  45.513  50.843  1.00  0.00    -0.339 N 
ATOM     18  H   UNL     1       4.988  45.917  50.376  1.00  0.00     0.168 HD
BRANCH  17  19
ATOM     19  C   UNL     1       5.933  44.144  50.530  1.00  0.00     0.043 A 
ATOM     20  C   UNL     1       7.024  43.783  49.721  1.00  0.00     0.026 A 
ATOM     21  C   UNL     1       4.967  43.167  50.843  1.00  0.00    -0.028 A 
ATOM     22  C   UNL     1       7.208  42.467  49.299  1.00  0.00     0.002 A 
ATOM     23  C   UNL     1       5.174  41.840  50.425  1.00  0.00     0.005 A 
ATOM     24  C   UNL     1       6.286  41.493  49.659  1.00  0.00     0.000 A 
ATOM     25  C   UNL     1       3.729  43.476  51.640  1.00  0.00     0.046 C 
ENDBRANCH  17  19
ENDBRANCH  10  17
ENDBRANCH   1   7
TORSDOF 6
ENDMDL
MODEL 7
REMARK VINA RESULT:    -8.140      1.666      5.065
REMARK INTER + INTRA:         -12.005
REMARK INTER:                 -11.196
REMARK INTRA:                  -0.809
REMARK UNBOUND:                -1.010
REMARK SMILES CCCCNc1nc(Nc2ccccc2C)c2cnn(C)c2n1
REMARK SMILES IDX 5 1 4 3 3 4 2 5 1 6 6 7 7 8 23 9 8 10 22 11 17 12 20 13
REMARK SMILES IDX 18 14 19 15 21 16 9 17 10 19 11 20 15 21 12 22 14 23 13 24
REMARK SMILES IDX 16 25
REMARK H PARENT 5 2 9 18
ROOT
ATOM      1  N   UNL     1       6.220  46.769  54.951  1.00  0.00    -0.354 N 
ATOM      2  H   UNL     1       6.389  46.381  55.872  1.00  0.00     0.163 HD
ENDROOT
BRANCH   1   3
ATOM      3  C   UNL     1       7.347  46.788  54.036  1.00  0.00     0.116 C 
BRANCH   3   4
ATOM      4  C   UNL     1       8.557  47.562  54.575  1.00  0.00     0.021 C 
BRANCH   4   5
ATOM      5  C   UNL     1       9.909  47.138  53.991  1.00  0.00    -0.002 C 
ATOM      6  C   UNL     1       9.875  46.766  52.519  1.00  0.00     0.004 C 
ENDBRANCH   4   5
ENDBRANCH   3   4
ENDBRANCH   1   3
BRANCH   1   7
ATOM      7  C   UNL     1       5.047  46.184  54.502  1.00  0.00     0.226 A 
ATOM      8  N   UNL     1       5.083  45.790  53.218  1.00  0.00    -0.195 NA
ATOM      9  N   UNL     1       4.001  46.057  55.329  1.00  0.00    -0.193 NA
ATOM     10  C   UNL     1       4.008  45.188  52.644  1.00  0.00     0.147 A 
ATOM     11  C   UNL     1       2.946  45.471  54.744  1.00  0.00     0.165 A 
ATOM     12  C   UNL     1       2.871  45.022  53.440  1.00  0.00     0.082 A 
ATOM     13  N   UNL     1       1.731  45.194  55.308  1.00  0.00    -0.250 N 
ATOM     14  C   UNL     1       1.566  44.503  53.322  1.00  0.00     0.149 A 
ATOM     15  N   UNL     1       0.862  44.600  54.457  1.00  0.00    -0.179 NA
ATOM     16  C   UNL     1       1.322  45.469  56.662  1.00  0.00     0.176 C 
BRANCH  10  17
ATOM     17  N   UNL     1       4.047  44.788  51.299  1.00  0.00    -0.339 N 
ATOM     18  H   UNL     1       3.149  44.848  50.837  1.00  0.00     0.168 HD
BRANCH  17  19
ATOM     19  C   UNL     1       4.841  43.757  50.751  1.00  0.00     0.043 A 
ATOM     20  C   UNL     1       4.329  42.451  50.819  1.00  0.00     0.026 A 
ATOM     21  C   UNL     1       6.162  43.946  50.299  1.00  0.00    -0.028 A 
ATOM     22  C   UNL     1       5.070  41.358  50.372  1.00  0.00     0.002 A 
ATOM     23  C   UNL     1       6.893  42.837  49.834  1.00  0.00     0.005 A 
ATOM     24  C   UNL     1       6.350  41.552  49.870  1.00  0.00     0.000 A 
ATOM     25  C   UNL     1       6.822  45.296  50.260  1.00  0.00     0.046 C 
ENDBRANCH  17  19
ENDBRANCH  10  17
ENDBRANCH   1   7
TORSDOF 6
ENDMDL
MODEL 8
REMARK VINA RESULT:    -8.090      1.837      5.621
REMARK INTER + INTRA:         -11.938
REMARK INTER:                 -10.930
REMARK INTRA:                  -1.008
REMARK UNBOUND:                -1.010
REMARK SMILES CCCCNc1nc(Nc2ccccc2C)c2cnn(C)c2n1
REMARK SMILES IDX 5 1 4 3 3 4 2 5 1 6 6 7 7 8 23 9 8 10 22 11 17 12 20 13
REMARK SMILES IDX 18 14 19 15 21 16 9 17 10 19 11 20 15 21 12 22 14 23 13 24
REMARK SMILES IDX 16 25
REMARK H PARENT 5 2 9 18
ROOT
ATOM      1  N   UNL     1       3.600  43.141  50.870  1.00  0.00    -0.354 N 
ATOM      2  H   UNL     1       3.894  43.540  49.986  1.00  0.00     0.163 HD
ENDROOT
BRANCH   1   3
ATOM      3  C   UNL     1       4.056  41.794  51.160  1.00  0.00     0.116 C 
BRANCH   3   4
ATOM      4  C   UNL     1       4.919  41.189  50.046  1.00  0.00     0.021 C 
BRANCH   4   5
ATOM      5  C   UNL     1       6.336  41.763  49.941  1.00  0.00    -0.002 C 
ATOM      6  C   UNL     1       6.552  42.710  48.775  1.00  0.00     0.004 C 
ENDBRANCH   4   5
ENDBRANCH   3   4
ENDBRANCH   1   3
BRANCH   1   7
ATOM      7  C   UNL     1       3.845  44.115  51.825  1.00  0.00     0.226 A 
ATOM      8  N   UNL     1       4.821  44.978  51.495  1.00  0.00    -0.195 NA
ATOM      9  N   UNL     1       3.136  44.134  52.961  1.00  0.00    -0.193 NA
ATOM     10  C   UNL     1       5.162  45.994  52.330  1.00  0.00     0.147 A 
ATOM     11  C   UNL     1       3.492  45.136  53.777  1.00  0.00     0.165 A 
ATOM     12  C   UNL     1       4.471  46.082  53.542  1.00  0.00     0.082 A 
ATOM     13  N   UNL     1       2.967  45.435  55.004  1.00  0.00    -0.250 N 
ATOM     14  C   UNL     1       4.458  46.893  54.695  1.00  0.00     0.149 A 
ATOM     15  N   UNL     1       3.543  46.509  55.593  1.00  0.00    -0.179 NA
ATOM     16  C   UNL     1       1.907  44.735  55.686  1.00  0.00     0.176 C 
BRANCH  10  17
ATOM     17  N   UNL     1       6.189  46.887  51.986  1.00  0.00    -0.339 N 
ATOM     18  H   UNL     1       6.090  47.273  51.056  1.00  0.00     0.168 HD
BRANCH  17  19
ATOM     19  C   UNL     1       7.546  46.792  52.363  1.00  0.00     0.043 A 
ATOM     20  C   UNL     1       7.947  47.518  53.499  1.00  0.00     0.026 A 
ATOM     21  C   UNL     1       8.531  46.156  51.583  1.00  0.00    -0.028 A 
ATOM     22  C   UNL     1       9.279  47.546  53.907  1.00  0.00     0.002 A 
ATOM     23  C   UNL     1       9.870  46.178  52.016  1.00  0.00     0.005 A 
ATOM     24  C   UNL     1      10.240  46.868  53.170  1.00  0.00     0.000 A 
ATOM     25  C   UNL     1       8.209  45.418  50.312  1.00  0.00     0.046 C 
ENDBRANCH  17  19
ENDBRANCH  10  17
ENDBRANCH   1   7
TORSDOF 6
ENDMDL
MODEL 9
REMARK VINA RESULT:    -8.013      1.935      5.125
REMARK INTER + INTRA:         -11.834
REMARK INTER:                 -10.988
REMARK INTRA:                  -0.846
REMARK UNBOUND:                -1.010
REMARK SMILES CCCCNc1nc(Nc2ccccc2C)c2cnn(C)c2n1
REMARK SMILES IDX 5 1 4 3 3 4 2 5 1 6 6 7 7 8 23 9 8 10 22 11 17 12 20 13
REMARK SMILES IDX 18 14 19 15 21 16 9 17 10 19 11 20 15 21 12 22 14 23 13 24
REMARK SMILES IDX 16 25
REMARK H PARENT 5 2 9 18
ROOT
ATOM      1  N   UNL     1       3.011  44.569  54.237  1.00  0.00    -0.354 N 
ATOM      2  H   UNL     1       3.586  44.698  55.061  1.00  0.00     0.163 HD
ENDROOT
BRANCH   1   3
ATOM      3  C   UNL     1       1.918  45.505  54.052  1.00  0.00     0.116 C 
BRANCH   3   4
ATOM      4  C   UNL     1       0.697  44.887  53.360  1.00  0.00     0.021 C 
BRANCH   4   5
ATOM      5  C   UNL     1       0.044  43.724  54.116  1.00  0.00    -0.002 C 
ATOM      6  C   UNL     1       0.191  42.370  53.445  1.00  0.00     0.004 C 
ENDBRANCH   4   5
ENDBRANCH   3   4
ENDBRANCH   1   3
BRANCH   1   7
ATOM      7  C   UNL     1       3.895  44.407  53.181  1.00  0.00     0.226 A 
ATOM      8  N   UNL     1       4.782  45.407  53.045  1.00  0.00    -0.195 NA
ATOM      9  N   UNL     1       3.813  43.324  52.398  1.00  0.00    -0.193 NA
ATOM     10  C   UNL     1       5.718  45.377  52.061  1.00  0.00     0.147 A 
ATOM     11  C   UNL     1       4.737  43.316  51.426  1.00  0.00     0.165 A 
ATOM     12  C   UNL     1       5.698  44.280  51.195  1.00  0.00     0.082 A 
ATOM     13  N   UNL     1       4.925  42.360  50.466  1.00  0.00    -0.250 N 
ATOM     14  C   UNL     1       6.402  43.811  50.067  1.00  0.00     0.149 A 
ATOM     15  N   UNL     1       5.940  42.639  49.616  1.00  0.00    -0.179 NA
ATOM     16  C   UNL     1       4.169  41.145  50.294  1.00  0.00     0.176 C 
BRANCH  10  17
ATOM     17  N   UNL     1       6.636  46.430  51.917  1.00  0.00    -0.339 N 
ATOM     18  H   UNL     1       6.744  46.739  50.959  1.00  0.00     0.168 HD
BRANCH  17  19
ATOM     19  C   UNL     1       7.825  46.616  52.656  1.00  0.00     0.043 A 
ATOM     20  C   UNL     1       7.716  47.294  53.882  1.00  0.00     0.026 A 
ATOM     21  C   UNL     1       9.108  46.310  52.161  1.00  0.00    -0.028 A 
ATOM     22  C   UNL     1       8.842  47.590  54.648  1.00  0.00     0.002 A 
ATOM     23  C   UNL     1      10.235  46.599  52.952  1.00  0.00     0.005 A 
ATOM     24  C   UNL     1      10.102  47.234  54.187  1.00  0.00     0.000 A 
ATOM     25  C   UNL     1       9.328  45.652  50.827  1.00  0.00     0.046 C 
ENDBRANCH  17  19
ENDBRANCH  10  17
ENDBRANCH   1   7
TORSDOF 6
ENDMDL
MODEL 10
REMARK VINA RESULT:    -8.001      2.671      5.809
REMARK INTER + INTRA:         -11.817
REMARK INTER:                 -11.126
REMARK INTRA:                  -0.692
REMARK UNBOUND:                -1.010
REMARK SMILES CCCCNc1nc(Nc2ccccc2C)c2cnn(C)c2n1
REMARK SMILES IDX 5 1 4 3 3 4 2 5 1 6 6 7 7 8 23 9 8 10 22 11 17 12 20 13
REMARK SMILES IDX 18 14 19 15 21 16 9 17 10 19 11 20 15 21 12 22 14 23 13 24
REMARK SMILES IDX 16 25
REMARK H PARENT 5 2 9 18
ROOT
ATOM      1  N   UNL     1       7.764  45.469  50.259  1.00  0.00    -0.354 N 
ATOM      2  H   UNL     1       7.521  45.921  49.385  1.00  0.00     0.163 HD
ENDROOT
BRANCH   1   3
ATOM      3  C   UNL     1       8.146  46.338  51.357  1.00  0.00     0.116 C 
BRANCH   3   4
ATOM      4  C   UNL     1       9.639  46.263  51.701  1.00  0.00     0.021 C 
BRANCH   4   5
ATOM      5  C   UNL     1       9.993  46.668  53.137  1.00  0.00    -0.002 C 
ATOM      6  C   UNL     1       9.083  47.722  53.741  1.00  0.00     0.004 C 
ENDBRANCH   4   5
ENDBRANCH   3   4
ENDBRANCH   1   3
BRANCH   1   7
ATOM      7  C   UNL     1       6.760  44.545  50.500  1.00  0.00     0.226 A 
ATOM      8  N   UNL     1       6.794  43.470  49.694  1.00  0.00    -0.195 NA
ATOM      9  N   UNL     1       5.860  44.768  51.466  1.00  0.00    -0.193 NA
ATOM     10  C   UNL     1       5.879  42.474  49.823  1.00  0.00     0.147 A 
ATOM     11  C   UNL     1       4.959  43.781  51.573  1.00  0.00     0.165 A 
ATOM     12  C   UNL     1       4.900  42.633  50.809  1.00  0.00     0.082 A 
ATOM     13  N   UNL     1       3.916  43.700  52.455  1.00  0.00    -0.250 N 
ATOM     14  C   UNL     1       3.778  41.938  51.306  1.00  0.00     0.149 A 
ATOM     15  N   UNL     1       3.172  42.578  52.312  1.00  0.00    -0.179 NA
ATOM     16  C   UNL     1       3.562  44.662  53.469  1.00  0.00     0.176 C 
BRANCH  10  17
ATOM     17  N   UNL     1       5.912  41.358  48.972  1.00  0.00    -0.339 N 
ATOM     18  H   UNL     1       6.805  40.882  48.970  1.00  0.00     0.168 HD
BRANCH  17  19
ATOM     19  C   UNL     1       5.257  41.230  47.728  1.00  0.00     0.043 A 
ATOM     20  C   UNL     1       5.767  41.980  46.656  1.00  0.00     0.026 A 
ATOM     21  C   UNL     1       4.046  40.531  47.553  1.00  0.00    -0.028 A 
ATOM     22  C   UNL     1       5.145  41.976  45.408  1.00  0.00     0.002 A 
ATOM     23  C   UNL     1       3.438  40.522  46.284  1.00  0.00     0.005 A 
ATOM     24  C   UNL     1       3.984  41.239  45.220  1.00  0.00     0.000 A 
ATOM     25  C   UNL     1       3.384  39.761  48.662  1.00  0.00     0.046 C 
ENDBRANCH  17  19
ENDBRANCH  10  17
ENDBRANCH   1   7
TORSDOF 6
ENDMDL
MODEL 11
REMARK VINA RESULT:    -7.943      2.205      6.604
REMARK INTER + INTRA:         -11.739
REMARK INTER:                 -11.031
REMARK INTRA:                  -0.708
REMARK UNBOUND:                -1.010
REMARK SMILES CCCCNc1nc(Nc2ccccc2C)c2cnn(C)c2n1
REMARK SMILES IDX 5 1 4 3 3 4 2 5 1 6 6 7 7 8 23 9 8 10 22 11 17 12 20 13
REMARK SMILES IDX 18 14 19 15 21 16 9 17 10 19 11 20 15 21 12 22 14 23 13 24
REMARK SMILES IDX 16 25
REMARK H PARENT 5 2 9 18
ROOT
ATOM      1  N   UNL     1       6.370  42.418  49.416  1.00  0.00    -0.354 N 
ATOM      2  H   UNL     1       7.330  42.357  49.734  1.00  0.00     0.163 HD
ENDROOT
BRANCH   1   3
ATOM      3  C   UNL     1       5.720  41.169  49.061  1.00  0.00     0.116 C 
BRANCH   3   4
ATOM      4  C   UNL     1       4.971  41.230  47.725  1.00  0.00     0.021 C 
BRANCH   4   5
ATOM      5  C   UNL     1       5.748  41.883  46.576  1.00  0.00    -0.002 C 
ATOM      6  C   UNL     1       5.014  41.906  45.247  1.00  0.00     0.004 C 
ENDBRANCH   4   5
ENDBRANCH   3   4
ENDBRANCH   1   3
BRANCH   1   7
ATOM      7  C   UNL     1       5.720  43.236  50.326  1.00  0.00     0.226 A 
ATOM      8  N   UNL     1       6.333  44.412  50.547  1.00  0.00    -0.195 NA
ATOM      9  N   UNL     1       4.583  42.828  50.903  1.00  0.00    -0.193 NA
ATOM     10  C   UNL     1       5.803  45.322  51.406  1.00  0.00     0.147 A 
ATOM     11  C   UNL     1       4.080  43.733  51.755  1.00  0.00     0.165 A 
ATOM     12  C   UNL     1       4.617  44.969  52.055  1.00  0.00     0.082 A 
ATOM     13  N   UNL     1       2.937  43.628  52.500  1.00  0.00    -0.250 N 
ATOM     14  C   UNL     1       3.725  45.519  52.999  1.00  0.00     0.149 A 
ATOM     15  N   UNL     1       2.695  44.710  53.275  1.00  0.00    -0.179 NA
ATOM     16  C   UNL     1       2.020  42.516  52.526  1.00  0.00     0.176 C 
BRANCH  10  17
ATOM     17  N   UNL     1       6.453  46.543  51.642  1.00  0.00    -0.339 N 
ATOM     18  H   UNL     1       6.356  47.203  50.881  1.00  0.00     0.168 HD
BRANCH  17  19
ATOM     19  C   UNL     1       7.671  46.728  52.331  1.00  0.00     0.043 A 
ATOM     20  C   UNL     1       8.855  46.592  51.586  1.00  0.00     0.026 A 
ATOM     21  C   UNL     1       7.763  46.876  53.729  1.00  0.00    -0.028 A 
ATOM     22  C   UNL     1      10.107  46.684  52.192  1.00  0.00     0.002 A 
ATOM     23  C   UNL     1       9.033  46.985  54.326  1.00  0.00     0.005 A 
ATOM     24  C   UNL     1      10.196  46.890  53.562  1.00  0.00     0.000 A 
ATOM     25  C   UNL     1       6.553  46.956  54.618  1.00  0.00     0.046 C 
ENDBRANCH  17  19
ENDBRANCH  10  17
ENDBRANCH   1   7
TORSDOF 6
ENDMDL
MODEL 12
REMARK VINA RESULT:    -7.939      2.071      6.267
REMARK INTER + INTRA:         -11.734
REMARK INTER:                 -11.005
REMARK INTRA:                  -0.729
REMARK UNBOUND:                -1.010
REMARK SMILES CCCCNc1nc(Nc2ccccc2C)c2cnn(C)c2n1
REMARK SMILES IDX 5 1 4 3 3 4 2 5 1 6 6 7 7 8 23 9 8 10 22 11 17 12 20 13
REMARK SMILES IDX 18 14 19 15 21 16 9 17 10 19 11 20 15 21 12 22 14 23 13 24
REMARK SMILES IDX 16 25
REMARK H PARENT 5 2 9 18
ROOT
ATOM      1  N   UNL     1       4.849  42.019  51.533  1.00  0.00    -0.354 N 
ATOM      2  H   UNL     1       4.290  41.440  52.148  1.00  0.00     0.163 HD
ENDROOT
BRANCH   1   3
ATOM      3  C   UNL     1       4.984  41.569  50.159  1.00  0.00     0.116 C 
BRANCH   3   4
ATOM      4  C   UNL     1       6.433  41.575  49.656  1.00  0.00     0.021 C 
BRANCH   4   5
ATOM      5  C   UNL     1       6.783  42.728  48.708  1.00  0.00    -0.002 C 
ATOM      6  C   UNL     1       7.928  43.608  49.176  1.00  0.00     0.004 C 
ENDBRANCH   4   5
ENDBRANCH   3   4
ENDBRANCH   1   3
BRANCH   1   7
ATOM      7  C   UNL     1       4.413  43.319  51.736  1.00  0.00     0.226 A 
ATOM      8  N   UNL     1       5.360  44.254  51.551  1.00  0.00    -0.195 NA
ATOM      9  N   UNL     1       3.143  43.553  52.089  1.00  0.00    -0.193 NA
ATOM     10  C   UNL     1       5.074  45.573  51.702  1.00  0.00     0.147 A 
ATOM     11  C   UNL     1       2.880  44.859  52.245  1.00  0.00     0.165 A 
ATOM     12  C   UNL     1       3.768  45.903  52.076  1.00  0.00     0.082 A 
ATOM     13  N   UNL     1       1.689  45.430  52.597  1.00  0.00    -0.250 N 
ATOM     14  C   UNL     1       3.010  47.057  52.363  1.00  0.00     0.149 A 
ATOM     15  N   UNL     1       1.740  46.780  52.680  1.00  0.00    -0.179 NA
ATOM     16  C   UNL     1       0.450  44.748  52.876  1.00  0.00     0.176 C 
BRANCH  10  17
ATOM     17  N   UNL     1       6.069  46.546  51.518  1.00  0.00    -0.339 N 
ATOM     18  H   UNL     1       6.163  46.847  50.556  1.00  0.00     0.168 HD
BRANCH  17  19
ATOM     19  C   UNL     1       7.299  46.631  52.207  1.00  0.00     0.043 A 
ATOM     20  C   UNL     1       8.469  46.455  51.449  1.00  0.00     0.026 A 
ATOM     21  C   UNL     1       7.404  46.717  53.609  1.00  0.00    -0.028 A 
ATOM     22  C   UNL     1       9.727  46.449  52.051  1.00  0.00     0.002 A 
ATOM     23  C   UNL     1       8.680  46.727  54.201  1.00  0.00     0.005 A 
ATOM     24  C   UNL     1       9.833  46.594  53.427  1.00  0.00     0.000 A 
ATOM     25  C   UNL     1       6.204  46.832  54.508  1.00  0.00     0.046 C 
ENDBRANCH  17  19
ENDBRANCH  10  17
ENDBRANCH   1   7
TORSDOF 6
ENDMDL
MODEL 13
REMARK VINA RESULT:    -7.899      1.920      5.628
REMARK INTER + INTRA:         -11.679
REMARK INTER:                 -10.794
REMARK INTRA:                  -0.885
REMARK UNBOUND:                -1.010
REMARK SMILES CCCCNc1nc(Nc2ccccc2C)c2cnn(C)c2n1
REMARK SMILES IDX 5 1 4 3 3 4 2 5 1 6 6 7 7 8 23 9 8 10 22 11 17 12 20 13
REMARK SMILES IDX 18 14 19 15 21 16 9 17 10 19 11 20 15 21 12 22 14 23 13 24
REMARK SMILES IDX 16 25
REMARK H PARENT 5 2 9 18
ROOT
ATOM      1  N   UNL     1       6.494  47.125  52.735  1.00  0.00    -0.354 N 
ATOM      2  H   UNL     1       6.389  47.006  53.736  1.00  0.00     0.163 HD
ENDROOT
BRANCH   1   3
ATOM      3  C   UNL     1       7.711  47.772  52.280  1.00  0.00     0.116 C 
BRANCH   3   4
ATOM      4  C   UNL     1       8.785  47.886  53.369  1.00  0.00     0.021 C 
BRANCH   4   5
ATOM      5  C   UNL     1       9.858  46.792  53.336  1.00  0.00    -0.002 C 
ATOM      6  C   UNL     1      10.256  46.336  51.944  1.00  0.00     0.004 C 
ENDBRANCH   4   5
ENDBRANCH   3   4
ENDBRANCH   1   3
BRANCH   1   7
ATOM      7  C   UNL     1       6.178  45.898  52.172  1.00  0.00     0.226 A 
ATOM      8  N   UNL     1       5.148  45.269  52.763  1.00  0.00    -0.195 NA
ATOM      9  N   UNL     1       6.884  45.434  51.133  1.00  0.00    -0.193 NA
ATOM     10  C   UNL     1       4.717  44.063  52.309  1.00  0.00     0.147 A 
ATOM     11  C   UNL     1       6.453  44.239  50.706  1.00  0.00     0.165 A 
ATOM     12  C   UNL     1       5.406  43.506  51.228  1.00  0.00     0.082 A 
ATOM     13  N   UNL     1       6.952  43.497  49.670  1.00  0.00    -0.250 N 
ATOM     14  C   UNL     1       5.369  42.337  50.440  1.00  0.00     0.149 A 
ATOM     15  N   UNL     1       6.306  42.322  49.485  1.00  0.00    -0.179 NA
ATOM     16  C   UNL     1       8.053  43.845  48.807  1.00  0.00     0.176 C 
BRANCH  10  17
ATOM     17  N   UNL     1       3.647  43.405  52.936  1.00  0.00    -0.339 N 
ATOM     18  H   UNL     1       3.822  42.422  53.102  1.00  0.00     0.168 HD
BRANCH  17  19
ATOM     19  C   UNL     1       2.272  43.656  52.735  1.00  0.00     0.043 A 
ATOM     20  C   UNL     1       1.732  43.298  51.488  1.00  0.00     0.026 A 
ATOM     21  C   UNL     1       1.471  44.382  53.638  1.00  0.00    -0.028 A 
ATOM     22  C   UNL     1       0.403  43.572  51.168  1.00  0.00     0.002 A 
ATOM     23  C   UNL     1       0.127  44.637  53.310  1.00  0.00     0.005 A 
ATOM     24  C   UNL     1      -0.403  44.234  52.084  1.00  0.00     0.000 A 
ATOM     25  C   UNL     1       1.983  44.872  54.964  1.00  0.00     0.046 C 
ENDBRANCH  17  19
ENDBRANCH  10  17
ENDBRANCH   1   7
TORSDOF 6
ENDMDL
MODEL 14
REMARK VINA RESULT:    -7.818      1.892      6.249
REMARK INTER + INTRA:         -11.570
REMARK INTER:                 -10.700
REMARK INTRA:                  -0.870
REMARK UNBOUND:                -1.010
REMARK SMILES CCCCNc1nc(Nc2ccccc2C)c2cnn(C)c2n1
REMARK SMILES IDX 5 1 4 3 3 4 2 5 1 6 6 7 7 8 23 9 8 10 22 11 17 12 20 13
REMARK SMILES IDX 18 14 19 15 21 16 9 17 10 19 11 20 15 21 12 22 14 23 13 24
REMARK SMILES IDX 16 25
REMARK H PARENT 5 2 9 18
ROOT
ATOM      1  N   UNL     1       7.954  46.321  50.759  1.00  0.00    -0.354 N 
ATOM      2  H   UNL     1       7.839  46.853  49.905  1.00  0.00     0.163 HD
ENDROOT
BRANCH   1   3
ATOM      3  C   UNL     1       8.400  47.055  51.929  1.00  0.00     0.116 C 
BRANCH   3   4
ATOM      4  C   UNL     1       9.803  46.655  52.402  1.00  0.00     0.021 C 
BRANCH   4   5
ATOM      5  C   UNL     1      10.048  46.810  53.907  1.00  0.00    -0.002 C 
ATOM      6  C   UNL     1       9.209  47.883  54.578  1.00  0.00     0.004 C 
ENDBRANCH   4   5
ENDBRANCH   3   4
ENDBRANCH   1   3
BRANCH   1   7
ATOM      7  C   UNL     1       6.805  45.557  50.889  1.00  0.00     0.226 A 
ATOM      8  N   UNL     1       5.757  46.220  51.407  1.00  0.00    -0.195 NA
ATOM      9  N   UNL     1       6.808  44.271  50.514  1.00  0.00    -0.193 NA
ATOM     10  C   UNL     1       4.559  45.602  51.579  1.00  0.00     0.147 A 
ATOM     11  C   UNL     1       5.622  43.675  50.701  1.00  0.00     0.165 A 
ATOM     12  C   UNL     1       4.480  44.254  51.217  1.00  0.00     0.082 A 
ATOM     13  N   UNL     1       5.292  42.376  50.422  1.00  0.00    -0.250 N 
ATOM     14  C   UNL     1       3.527  43.215  51.215  1.00  0.00     0.149 A 
ATOM     15  N   UNL     1       4.011  42.066  50.729  1.00  0.00    -0.179 NA
ATOM     16  C   UNL     1       6.152  41.366  49.859  1.00  0.00     0.176 C 
BRANCH  10  17
ATOM     17  N   UNL     1       3.471  46.296  52.131  1.00  0.00    -0.339 N 
ATOM     18  H   UNL     1       3.495  47.291  51.947  1.00  0.00     0.168 HD
BRANCH  17  19
ATOM     19  C   UNL     1       2.826  46.014  53.354  1.00  0.00     0.043 A 
ATOM     20  C   UNL     1       3.614  46.057  54.517  1.00  0.00     0.026 A 
ATOM     21  C   UNL     1       1.503  45.540  53.449  1.00  0.00    -0.028 A 
ATOM     22  C   UNL     1       3.086  45.723  55.763  1.00  0.00     0.002 A 
ATOM     23  C   UNL     1       0.977  45.222  54.714  1.00  0.00     0.005 A 
ATOM     24  C   UNL     1       1.763  45.313  55.863  1.00  0.00     0.000 A 
ATOM     25  C   UNL     1       0.608  45.388  52.250  1.00  0.00     0.046 C 
ENDBRANCH  17  19
ENDBRANCH  10  17
ENDBRANCH   1   7
TORSDOF 6
ENDMDL
MODEL 15
REMARK VINA RESULT:    -7.705      1.798      6.176
REMARK INTER + INTRA:         -11.418
REMARK INTER:                 -10.676
REMARK INTRA:                  -0.742
REMARK UNBOUND:                -1.010
REMARK SMILES CCCCNc1nc(Nc2ccccc2C)c2cnn(C)c2n1
REMARK SMILES IDX 5 1 4 3 3 4 2 5 1 6 6 7 7 8 23 9 8 10 22 11 17 12 20 13
REMARK SMILES IDX 18 14 19 15 21 16 9 17 10 19 11 20 15 21 12 22 14 23 13 24
REMARK SMILES IDX 16 25
REMARK H PARENT 5 2 9 18
ROOT
ATOM      1  N   UNL     1       8.142  46.115  50.618  1.00  0.00    -0.354 N 
ATOM      2  H   UNL     1       8.104  46.486  49.676  1.00  0.00     0.163 HD
ENDROOT
BRANCH   1   3
ATOM      3  C   UNL     1       8.510  47.045  51.670  1.00  0.00     0.116 C 
BRANCH   3   4
ATOM      4  C   UNL     1       9.889  46.762  52.279  1.00  0.00     0.021 C 
BRANCH   4   5
ATOM      5  C   UNL     1       9.919  46.694  53.810  1.00  0.00    -0.002 C 
ATOM      6  C   UNL     1       9.172  47.816  54.509  1.00  0.00     0.004 C 
ENDBRANCH   4   5
ENDBRANCH   3   4
ENDBRANCH   1   3
BRANCH   1   7
ATOM      7  C   UNL     1       6.972  45.393  50.789  1.00  0.00     0.226 A 
ATOM      8  N   UNL     1       5.980  46.081  51.379  1.00  0.00    -0.195 NA
ATOM      9  N   UNL     1       6.904  44.119  50.383  1.00  0.00    -0.193 NA
ATOM     10  C   UNL     1       4.769  45.506  51.599  1.00  0.00     0.147 A 
ATOM     11  C   UNL     1       5.706  43.563  50.618  1.00  0.00     0.165 A 
ATOM     12  C   UNL     1       4.617  44.172  51.207  1.00  0.00     0.082 A 
ATOM     13  N   UNL     1       5.311  42.287  50.324  1.00  0.00    -0.250 N 
ATOM     14  C   UNL     1       3.624  43.171  51.230  1.00  0.00     0.149 A 
ATOM     15  N   UNL     1       4.036  42.017  50.691  1.00  0.00    -0.179 NA
ATOM     16  C   UNL     1       6.099  41.260  49.691  1.00  0.00     0.176 C 
BRANCH  10  17
ATOM     17  N   UNL     1       3.739  46.226  52.225  1.00  0.00    -0.339 N 
ATOM     18  H   UNL     1       3.835  47.229  52.129  1.00  0.00     0.168 HD
BRANCH  17  19
ATOM     19  C   UNL     1       3.085  45.884  53.428  1.00  0.00     0.043 A 
ATOM     20  C   UNL     1       1.726  45.534  53.340  1.00  0.00     0.026 A 
ATOM     21  C   UNL     1       3.667  46.031  54.702  1.00  0.00    -0.028 A 
ATOM     22  C   UNL     1       0.976  45.252  54.481  1.00  0.00     0.002 A 
ATOM     23  C   UNL     1       2.903  45.727  55.844  1.00  0.00     0.005 A 
ATOM     24  C   UNL     1       1.568  45.339  55.734  1.00  0.00     0.000 A 
ATOM     25  C   UNL     1       5.091  46.473  54.898  1.00  0.00     0.046 C 
ENDBRANCH  17  19
ENDBRANCH  10  17
ENDBRANCH   1   7
TORSDOF 6
ENDMDL
MODEL 16
REMARK VINA RESULT:    -7.652      1.353      4.628
REMARK INTER + INTRA:         -11.345
REMARK INTER:                 -10.107
REMARK INTRA:                  -1.239
REMARK UNBOUND:                -1.010
REMARK SMILES CCCCNc1nc(Nc2ccccc2C)c2cnn(C)c2n1
REMARK SMILES IDX 5 1 4 3 3 4 2 5 1 6 6 7 7 8 23 9 8 10 22 11 17 12 20 13
REMARK SMILES IDX 18 14 19 15 21 16 9 17 10 19 11 20 15 21 12 22 14 23 13 24
REMARK SMILES IDX 16 25
REMARK H PARENT 5 2 9 18
ROOT
ATOM      1  N   UNL     1       7.505  44.930  49.440  1.00  0.00    -0.354 N 
ATOM      2  H   UNL     1       8.222  45.514  49.026  1.00  0.00     0.163 HD
ENDROOT
BRANCH   1   3
ATOM      3  C   UNL     1       7.740  43.497  49.420  1.00  0.00     0.116 C 
BRANCH   3   4
ATOM      4  C   UNL     1       6.507  42.684  49.005  1.00  0.00     0.021 C 
BRANCH   4   5
ATOM      5  C   UNL     1       5.962  41.741  50.083  1.00  0.00    -0.002 C 
ATOM      6  C   UNL     1       4.754  42.270  50.836  1.00  0.00     0.004 C 
ENDBRANCH   4   5
ENDBRANCH   3   4
ENDBRANCH   1   3
BRANCH   1   7
ATOM      7  C   UNL     1       7.206  45.507  50.664  1.00  0.00     0.226 A 
ATOM      8  N   UNL     1       5.892  45.682  50.885  1.00  0.00    -0.195 NA
ATOM      9  N   UNL     1       8.191  45.843  51.507  1.00  0.00    -0.193 NA
ATOM     10  C   UNL     1       5.448  46.225  52.049  1.00  0.00     0.147 A 
ATOM     11  C   UNL     1       7.736  46.387  52.645  1.00  0.00     0.165 A 
ATOM     12  C   UNL     1       6.416  46.608  52.982  1.00  0.00     0.082 A 
ATOM     13  N   UNL     1       8.476  46.833  53.706  1.00  0.00    -0.250 N 
ATOM     14  C   UNL     1       6.475  47.201  54.261  1.00  0.00     0.149 A 
ATOM     15  N   UNL     1       7.727  47.340  54.712  1.00  0.00    -0.179 NA
ATOM     16  C   UNL     1       9.912  46.810  53.831  1.00  0.00     0.176 C 
BRANCH  10  17
ATOM     17  N   UNL     1       4.075  46.415  52.272  1.00  0.00    -0.339 N 
ATOM     18  H   UNL     1       3.873  47.190  52.890  1.00  0.00     0.168 HD
BRANCH  17  19
ATOM     19  C   UNL     1       3.092  45.407  52.369  1.00  0.00     0.043 A 
ATOM     20  C   UNL     1       2.392  45.080  51.195  1.00  0.00     0.026 A 
ATOM     21  C   UNL     1       2.672  44.841  53.589  1.00  0.00    -0.028 A 
ATOM     22  C   UNL     1       1.353  44.150  51.206  1.00  0.00     0.002 A 
ATOM     23  C   UNL     1       1.634  43.891  53.584  1.00  0.00     0.005 A 
ATOM     24  C   UNL     1       0.980  43.548  52.400  1.00  0.00     0.000 A 
ATOM     25  C   UNL     1       3.312  45.185  54.906  1.00  0.00     0.046 C 
ENDBRANCH  17  19
ENDBRANCH  10  17
ENDBRANCH   1   7
TORSDOF 6
ENDMDL
MODEL 17
REMARK VINA RESULT:    -7.617      1.806      5.685
REMARK INTER + INTRA:         -11.298
REMARK INTER:                 -10.507
REMARK INTRA:                  -0.791
REMARK UNBOUND:                -1.010
REMARK SMILES CCCCNc1nc(Nc2ccccc2C)c2cnn(C)c2n1
REMARK SMILES IDX 5 1 4 3 3 4 2 5 1 6 6 7 7 8 23 9 8 10 22 11 17 12 20 13
REMARK SMILES IDX 18 14 19 15 21 16 9 17 10 19 11 20 15 21 12 22 14 23 13 24
REMARK SMILES IDX 16 25
REMARK H PARENT 5 2 9 18
ROOT
ATOM      1  N   UNL     1       4.128  43.088  50.675  1.00  0.00    -0.354 N 
ATOM      2  H   UNL     1       4.363  43.544  49.801  1.00  0.00     0.163 HD
ENDROOT
BRANCH   1   3
ATOM      3  C   UNL     1       4.746  41.798  50.923  1.00  0.00     0.116 C 
BRANCH   3   4
ATOM      4  C   UNL     1       6.060  41.594  50.158  1.00  0.00     0.021 C 
BRANCH   4   5
ATOM      5  C   UNL     1       6.275  42.546  48.976  1.00  0.00    -0.002 C 
ATOM      6  C   UNL     1       5.906  41.968  47.622  1.00  0.00     0.004 C 
ENDBRANCH   4   5
ENDBRANCH   3   4
ENDBRANCH   1   3
BRANCH   1   7
ATOM      7  C   UNL     1       4.264  44.056  51.657  1.00  0.00     0.226 A 
ATOM      8  N   UNL     1       5.244  44.946  51.424  1.00  0.00    -0.195 NA
ATOM      9  N   UNL     1       3.457  44.046  52.726  1.00  0.00    -0.193 NA
ATOM     10  C   UNL     1       5.484  45.961  52.294  1.00  0.00     0.147 A 
ATOM     11  C   UNL     1       3.715  45.047  53.579  1.00  0.00     0.165 A 
ATOM     12  C   UNL     1       4.686  46.018  53.441  1.00  0.00     0.082 A 
ATOM     13  N   UNL     1       3.075  45.320  54.758  1.00  0.00    -0.250 N 
ATOM     14  C   UNL     1       4.552  46.816  54.596  1.00  0.00     0.149 A 
ATOM     15  N   UNL     1       3.571  46.401  55.405  1.00  0.00    -0.179 NA
ATOM     16  C   UNL     1       1.977  44.588  55.337  1.00  0.00     0.176 C 
BRANCH  10  17
ATOM     17  N   UNL     1       6.516  46.881  52.051  1.00  0.00    -0.339 N 
ATOM     18  H   UNL     1       6.255  47.614  51.403  1.00  0.00     0.168 HD
BRANCH  17  19
ATOM     19  C   UNL     1       7.897  46.597  51.979  1.00  0.00     0.043 A 
ATOM     20  C   UNL     1       8.333  45.820  50.892  1.00  0.00     0.026 A 
ATOM     21  C   UNL     1       8.812  46.905  53.004  1.00  0.00    -0.028 A 
ATOM     22  C   UNL     1       9.665  45.425  50.773  1.00  0.00     0.002 A 
ATOM     23  C   UNL     1      10.157  46.515  52.863  1.00  0.00     0.005 A 
ATOM     24  C   UNL     1      10.580  45.782  51.755  1.00  0.00     0.000 A 
ATOM     25  C   UNL     1       8.420  47.667  54.240  1.00  0.00     0.046 C 
ENDBRANCH  17  19
ENDBRANCH  10  17
ENDBRANCH   1   7
TORSDOF 6
ENDMDL
MODEL 18
REMARK VINA RESULT:    -7.440      3.156      7.152
REMARK INTER + INTRA:         -11.060
REMARK INTER:                 -10.049
REMARK INTRA:                  -1.010
REMARK UNBOUND:                -1.010
REMARK SMILES CCCCNc1nc(Nc2ccccc2C)c2cnn(C)c2n1
REMARK SMILES IDX 5 1 4 3 3 4 2 5 1 6 6 7 7 8 23 9 8 10 22 11 17 12 20 13
REMARK SMILES IDX 18 14 19 15 21 16 9 17 10 19 11 20 15 21 12 22 14 23 13 24
REMARK SMILES IDX 16 25
REMARK H PARENT 5 2 9 18
ROOT
ATOM      1  N   UNL     1       3.481  41.385  50.455  1.00  0.00    -0.354 N 
ATOM      2  H   UNL     1       3.222  41.342  49.477  1.00  0.00     0.163 HD
ENDROOT
BRANCH   1   3
ATOM      3  C   UNL     1       4.901  41.348  50.755  1.00  0.00     0.116 C 
BRANCH   3   4
ATOM      4  C   UNL     1       5.783  41.807  49.586  1.00  0.00     0.021 C 
BRANCH   4   5
ATOM      5  C   UNL     1       6.281  43.253  49.681  1.00  0.00    -0.002 C 
ATOM      6  C   UNL     1       7.732  43.451  49.281  1.00  0.00     0.004 C 
ENDBRANCH   4   5
ENDBRANCH   3   4
ENDBRANCH   1   3
BRANCH   1   7
ATOM      7  C   UNL     1       2.744  42.425  50.999  1.00  0.00     0.226 A 
ATOM      8  N   UNL     1       3.440  43.218  51.831  1.00  0.00    -0.195 NA
ATOM      9  N   UNL     1       1.451  42.567  50.683  1.00  0.00    -0.193 NA
ATOM     10  C   UNL     1       2.850  44.287  52.428  1.00  0.00     0.147 A 
ATOM     11  C   UNL     1       0.882  43.620  51.288  1.00  0.00     0.165 A 
ATOM     12  C   UNL     1       1.496  44.503  52.153  1.00  0.00     0.082 A 
ATOM     13  N   UNL     1      -0.415  44.041  51.178  1.00  0.00    -0.250 N 
ATOM     14  C   UNL     1       0.477  45.409  52.513  1.00  0.00     0.149 A 
ATOM     15  N   UNL     1      -0.693  45.138  51.921  1.00  0.00    -0.179 NA
ATOM     16  C   UNL     1      -1.455  43.443  50.379  1.00  0.00     0.176 C 
BRANCH  10  17
ATOM     17  N   UNL     1       3.578  45.107  53.305  1.00  0.00    -0.339 N 
ATOM     18  H   UNL     1       3.003  45.782  53.793  1.00  0.00     0.168 HD
BRANCH  17  19
ATOM     19  C   UNL     1       4.889  45.592  53.109  1.00  0.00     0.043 A 
ATOM     20  C   UNL     1       5.201  46.096  51.835  1.00  0.00     0.026 A 
ATOM     21  C   UNL     1       5.924  45.447  54.054  1.00  0.00    -0.028 A 
ATOM     22  C   UNL     1       6.488  46.530  51.523  1.00  0.00     0.002 A 
ATOM     23  C   UNL     1       7.215  45.904  53.732  1.00  0.00     0.005 A 
ATOM     24  C   UNL     1       7.494  46.443  52.476  1.00  0.00     0.000 A 
ATOM     25  C   UNL     1       5.703  44.849  55.416  1.00  0.00     0.046 C 
ENDBRANCH  17  19
ENDBRANCH  10  17
ENDBRANCH   1   7
TORSDOF 6
ENDMDL
MODEL 19
REMARK VINA RESULT:    -7.388      1.337      4.721
REMARK INTER + INTRA:         -10.989
REMARK INTER:                 -10.042
REMARK INTRA:                  -0.947
REMARK UNBOUND:                -1.010
REMARK SMILES CCCCNc1nc(Nc2ccccc2C)c2cnn(C)c2n1
REMARK SMILES IDX 5 1 4 3 3 4 2 5 1 6 6 7 7 8 23 9 8 10 22 11 17 12 20 13
REMARK SMILES IDX 18 14 19 15 21 16 9 17 10 19 11 20 15 21 12 22 14 23 13 24
REMARK SMILES IDX 16 25
REMARK H PARENT 5 2 9 18
ROOT
ATOM      1  N   UNL     1       7.502  45.076  49.642  1.00  0.00    -0.354 N 
ATOM      2  H   UNL     1       8.236  45.632  49.218  1.00  0.00     0.163 HD
ENDROOT
BRANCH   1   3
ATOM      3  C   UNL     1       7.681  43.635  49.618  1.00  0.00     0.116 C 
BRANCH   3   4
ATOM      4  C   UNL     1       6.400  42.869  49.264  1.00  0.00     0.021 C 
BRANCH   4   5
ATOM      5  C   UNL     1       6.151  41.606  50.096  1.00  0.00    -0.002 C 
ATOM      6  C   UNL     1       4.718  41.429  50.565  1.00  0.00     0.004 C 
ENDBRANCH   4   5
ENDBRANCH   3   4
ENDBRANCH   1   3
BRANCH   1   7
ATOM      7  C   UNL     1       7.242  45.664  50.869  1.00  0.00     0.226 A 
ATOM      8  N   UNL     1       5.942  45.923  51.092  1.00  0.00    -0.195 NA
ATOM      9  N   UNL     1       8.247  45.929  51.714  1.00  0.00    -0.193 NA
ATOM     10  C   UNL     1       5.535  46.487  52.260  1.00  0.00     0.147 A 
ATOM     11  C   UNL     1       7.829  46.495  52.855  1.00  0.00     0.165 A 
ATOM     12  C   UNL     1       6.527  46.800  53.195  1.00  0.00     0.082 A 
ATOM     13  N   UNL     1       8.597  46.885  53.919  1.00  0.00    -0.250 N 
ATOM     14  C   UNL     1       6.625  47.379  54.477  1.00  0.00     0.149 A 
ATOM     15  N   UNL     1       7.883  47.433  54.929  1.00  0.00    -0.179 NA
ATOM     16  C   UNL     1      10.028  46.767  54.043  1.00  0.00     0.176 C 
BRANCH  10  17
ATOM     17  N   UNL     1       4.178  46.765  52.484  1.00  0.00    -0.339 N 
ATOM     18  H   UNL     1       3.989  47.749  52.627  1.00  0.00     0.168 HD
BRANCH  17  19
ATOM     19  C   UNL     1       3.258  45.956  53.186  1.00  0.00     0.043 A 
ATOM     20  C   UNL     1       3.255  46.061  54.587  1.00  0.00     0.026 A 
ATOM     21  C   UNL     1       2.478  44.953  52.578  1.00  0.00    -0.028 A 
ATOM     22  C   UNL     1       2.435  45.251  55.372  1.00  0.00     0.002 A 
ATOM     23  C   UNL     1       1.643  44.154  53.380  1.00  0.00     0.005 A 
ATOM     24  C   UNL     1       1.621  44.303  54.767  1.00  0.00     0.000 A 
ATOM     25  C   UNL     1       2.474  44.716  51.093  1.00  0.00     0.046 C 
ENDBRANCH  17  19
ENDBRANCH  10  17
ENDBRANCH   1   7
TORSDOF 6
ENDMDL
MODEL 20
REMARK VINA RESULT:    -7.360      2.211      5.219
REMARK INTER + INTRA:         -10.951
REMARK INTER:                 -10.406
REMARK INTRA:                  -0.545
REMARK UNBOUND:                -1.010
REMARK SMILES CCCCNc1nc(Nc2ccccc2C)c2cnn(C)c2n1
REMARK SMILES IDX 5 1 4 3 3 4 2 5 1 6 6 7 7 8 23 9 8 10 22 11 17 12 20 13
REMARK SMILES IDX 18 14 19 15 21 16 9 17 10 19 11 20 15 21 12 22 14 23 13 24
REMARK SMILES IDX 16 25
REMARK H PARENT 5 2 9 18
ROOT
ATOM      1  N   UNL     1       2.830  45.748  55.809  1.00  0.00    -0.354 N 
ATOM      2  H   UNL     1       3.051  46.711  56.036  1.00  0.00     0.163 HD
ENDROOT
BRANCH   1   3
ATOM      3  C   UNL     1       1.434  45.362  55.895  1.00  0.00     0.116 C 
BRANCH   3   4
ATOM      4  C   UNL     1       0.782  45.728  57.234  1.00  0.00     0.021 C 
BRANCH   4   5
ATOM      5  C   UNL     1      -0.749  45.807  57.209  1.00  0.00    -0.002 C 
ATOM      6  C   UNL     1      -1.311  47.217  57.206  1.00  0.00     0.004 C 
ENDBRANCH   4   5
ENDBRANCH   3   4
ENDBRANCH   1   3
BRANCH   1   7
ATOM      7  C   UNL     1       3.492  45.478  54.622  1.00  0.00     0.226 A 
ATOM      8  N   UNL     1       4.462  46.357  54.318  1.00  0.00    -0.195 NA
ATOM      9  N   UNL     1       3.143  44.415  53.885  1.00  0.00    -0.193 NA
ATOM     10  C   UNL     1       5.205  46.211  53.190  1.00  0.00     0.147 A 
ATOM     11  C   UNL     1       3.878  44.293  52.771  1.00  0.00     0.165 A 
ATOM     12  C   UNL     1       4.899  45.128  52.361  1.00  0.00     0.082 A 
ATOM     13  N   UNL     1       3.778  43.323  51.811  1.00  0.00    -0.250 N 
ATOM     14  C   UNL     1       5.335  44.575  51.139  1.00  0.00     0.149 A 
ATOM     15  N   UNL     1       4.660  43.473  50.796  1.00  0.00    -0.179 NA
ATOM     16  C   UNL     1       2.856  42.214  51.794  1.00  0.00     0.176 C 
BRANCH  10  17
ATOM     17  N   UNL     1       6.210  47.139  52.872  1.00  0.00    -0.339 N 
ATOM     18  H   UNL     1       6.044  47.626  52.000  1.00  0.00     0.168 HD
BRANCH  17  19
ATOM     19  C   UNL     1       7.590  47.006  53.134  1.00  0.00     0.043 A 
ATOM     20  C   UNL     1       8.045  47.426  54.395  1.00  0.00     0.026 A 
ATOM     21  C   UNL     1       8.538  46.636  52.159  1.00  0.00    -0.028 A 
ATOM     22  C   UNL     1       9.400  47.402  54.721  1.00  0.00     0.002 A 
ATOM     23  C   UNL     1       9.901  46.600  52.507  1.00  0.00     0.005 A 
ATOM     24  C   UNL     1      10.328  46.980  53.779  1.00  0.00     0.000 A 
ATOM     25  C   UNL     1       8.152  46.243  50.760  1.00  0.00     0.046 C 
ENDBRANCH  17  19
ENDBRANCH  10  17
ENDBRANCH   1   7
TORSDOF 6
ENDMDL
