MODEL 1
REMARK VINA RESULT:    -8.201      0.000      0.000
REMARK INTER + INTRA:         -12.459
REMARK INTER:                 -11.317
REMARK INTRA:                  -1.142
REMARK UNBOUND:                -1.142
REMARK SMILES CCCCNc1nc(Nc2ccccc2O)c2cnn(C)c2n1
REMARK SMILES IDX 6 1 7 2 8 3 17 4 18 5 19 6 20 7 21 8 22 9 23 10 5 11 4 13
REMARK SMILES IDX 3 14 2 15 1 16 9 17 10 19 11 20 15 21 12 22 14 23 13 24
REMARK SMILES IDX 16 25
REMARK H PARENT 5 12 9 18 16 26
ROOT
ATOM      1  C   UNL     1       3.582  44.879  51.877  1.00  0.00     0.226 A 
ATOM      2  N   UNL     1       4.652  45.686  51.753  1.00  0.00    -0.195 NA
ATOM      3  C   UNL     1       5.768  45.274  51.093  1.00  0.00     0.147 A 
ATOM      4  C   UNL     1       5.738  43.983  50.556  1.00  0.00     0.082 A 
ATOM      5  C   UNL     1       6.588  43.128  49.822  1.00  0.00     0.149 A 
ATOM      6  N   UNL     1       6.031  41.940  49.557  1.00  0.00    -0.179 NA
ATOM      7  N   UNL     1       4.812  42.036  50.138  1.00  0.00    -0.250 N 
ATOM      8  C   UNL     1       3.905  40.918  50.071  1.00  0.00     0.176 C 
ATOM      9  C   UNL     1       4.588  43.243  50.743  1.00  0.00     0.165 A 
ATOM     10  N   UNL     1       3.480  43.636  51.388  1.00  0.00    -0.193 NA
ENDROOT
BRANCH   1  11
ATOM     11  N   UNL     1       2.453  45.329  52.555  1.00  0.00    -0.354 N 
ATOM     12  H   UNL     1       1.877  45.782  51.854  1.00  0.00     0.163 HD
BRANCH  11  13
ATOM     13  C   UNL     1       2.741  46.126  53.736  1.00  0.00     0.116 C 
BRANCH  13  14
ATOM     14  C   UNL     1       3.246  45.205  54.850  1.00  0.00     0.021 C 
BRANCH  14  15
ATOM     15  C   UNL     1       4.618  45.606  55.394  1.00  0.00    -0.002 C 
ATOM     16  C   UNL     1       5.722  44.621  55.044  1.00  0.00     0.004 C 
ENDBRANCH  14  15
ENDBRANCH  13  14
ENDBRANCH  11  13
ENDBRANCH   1  11
BRANCH   3  17
ATOM     17  N   UNL     1       6.886  46.096  50.940  1.00  0.00    -0.336 N 
ATOM     18  H   UNL     1       6.960  46.578  50.049  1.00  0.00     0.168 HD
BRANCH  17  19
ATOM     19  C   UNL     1       7.957  46.440  51.784  1.00  0.00     0.082 A 
ATOM     20  C   UNL     1       9.277  46.029  51.594  1.00  0.00     0.030 A 
ATOM     21  C   UNL     1       7.680  47.252  52.902  1.00  0.00     0.139 A 
ATOM     22  C   UNL     1      10.284  46.411  52.488  1.00  0.00     0.002 A 
ATOM     23  C   UNL     1       8.675  47.639  53.800  1.00  0.00     0.048 A 
ATOM     24  C   UNL     1       9.984  47.213  53.588  1.00  0.00     0.004 A 
BRANCH  21  25
ATOM     25  O   UNL     1       6.381  47.663  53.087  1.00  0.00    -0.506 OA
ATOM     26  H   UNL     1       6.151  48.267  52.361  1.00  0.00     0.293 HD
ENDBRANCH  21  25
ENDBRANCH  17  19
ENDBRANCH   3  17
TORSDOF 7
ENDMDL
MODEL 2
REMARK VINA RESULT:    -8.127      1.457      1.806
REMARK INTER + INTRA:         -12.356
REMARK INTER:                 -11.522
REMARK INTRA:                  -0.835
REMARK UNBOUND:                -1.142
REMARK SMILES CCCCNc1nc(Nc2ccccc2O)c2cnn(C)c2n1
REMARK SMILES IDX 6 1 7 2 8 3 17 4 18 5 19 6 20 7 21 8 22 9 23 10 5 11 4 13
REMARK SMILES IDX 3 14 2 15 1 16 9 17 10 19 11 20 15 21 12 22 14 23 13 24
REMARK SMILES IDX 16 25
REMARK H PARENT 5 12 9 18 16 26
ROOT
ATOM      1  C   UNL     1       3.771  44.207  53.075  1.00  0.00     0.226 A 
ATOM      2  N   UNL     1       4.615  45.254  53.029  1.00  0.00    -0.195 NA
ATOM      3  C   UNL     1       5.580  45.335  52.075  1.00  0.00     0.147 A 
ATOM      4  C   UNL     1       5.641  44.285  51.152  1.00  0.00     0.082 A 
ATOM      5  C   UNL     1       6.410  43.911  50.030  1.00  0.00     0.149 A 
ATOM      6  N   UNL     1       6.021  42.749  49.493  1.00  0.00    -0.179 NA
ATOM      7  N   UNL     1       4.993  42.372  50.289  1.00  0.00    -0.250 N 
ATOM      8  C   UNL     1       4.308  41.132  50.024  1.00  0.00     0.176 C 
ATOM      9  C   UNL     1       4.723  43.262  51.293  1.00  0.00     0.165 A 
ATOM     10  N   UNL     1       3.766  43.170  52.227  1.00  0.00    -0.193 NA
ENDROOT
BRANCH   1  11
ATOM     11  N   UNL     1       2.791  44.153  54.062  1.00  0.00    -0.354 N 
ATOM     12  H   UNL     1       2.980  43.306  54.587  1.00  0.00     0.163 HD
BRANCH  11  13
ATOM     13  C   UNL     1       1.431  44.287  53.566  1.00  0.00     0.116 C 
BRANCH  13  14
ATOM     14  C   UNL     1       0.534  44.799  54.696  1.00  0.00     0.021 C 
BRANCH  14  15
ATOM     15  C   UNL     1       1.316  45.290  55.915  1.00  0.00    -0.002 C 
ATOM     16  C   UNL     1       0.473  45.390  57.177  1.00  0.00     0.004 C 
ENDBRANCH  14  15
ENDBRANCH  13  14
ENDBRANCH  11  13
ENDBRANCH   1  11
BRANCH   3  17
ATOM     17  N   UNL     1       6.461  46.416  51.999  1.00  0.00    -0.336 N 
ATOM     18  H   UNL     1       6.134  47.213  51.462  1.00  0.00     0.168 HD
BRANCH  17  19
ATOM     19  C   UNL     1       7.734  46.667  52.541  1.00  0.00     0.082 A 
ATOM     20  C   UNL     1       8.937  46.441  51.872  1.00  0.00     0.030 A 
ATOM     21  C   UNL     1       7.802  47.177  53.853  1.00  0.00     0.139 A 
ATOM     22  C   UNL     1      10.164  46.711  52.489  1.00  0.00     0.002 A 
ATOM     23  C   UNL     1       9.018  47.450  54.479  1.00  0.00     0.048 A 
ATOM     24  C   UNL     1      10.205  47.213  53.789  1.00  0.00     0.004 A 
BRANCH  21  25
ATOM     25  O   UNL     1       6.616  47.405  54.512  1.00  0.00    -0.506 OA
ATOM     26  H   UNL     1       6.827  47.703  55.412  1.00  0.00     0.293 HD
ENDBRANCH  21  25
ENDBRANCH  17  19
ENDBRANCH   3  17
TORSDOF 7
ENDMDL
MODEL 3
REMARK VINA RESULT:    -8.099      1.903      4.639
REMARK INTER + INTRA:         -12.319
REMARK INTER:                 -11.619
REMARK INTRA:                  -0.699
REMARK UNBOUND:                -1.142
REMARK SMILES CCCCNc1nc(Nc2ccccc2O)c2cnn(C)c2n1
REMARK SMILES IDX 6 1 7 2 8 3 17 4 18 5 19 6 20 7 21 8 22 9 23 10 5 11 4 13
REMARK SMILES IDX 3 14 2 15 1 16 9 17 10 19 11 20 15 21 12 22 14 23 13 24
REMARK SMILES IDX 16 25
REMARK H PARENT 5 12 9 18 16 26
ROOT
ATOM      1  C   UNL     1       5.773  42.766  50.228  1.00  0.00     0.226 A 
ATOM      2  N   UNL     1       6.488  43.900  50.356  1.00  0.00    -0.195 NA
ATOM      3  C   UNL     1       6.024  44.940  51.099  1.00  0.00     0.147 A 
ATOM      4  C   UNL     1       4.782  44.765  51.719  1.00  0.00     0.082 A 
ATOM      5  C   UNL     1       3.908  45.496  52.552  1.00  0.00     0.149 A 
ATOM      6  N   UNL     1       2.796  44.819  52.864  1.00  0.00    -0.179 NA
ATOM      7  N   UNL     1       2.961  43.642  52.214  1.00  0.00    -0.250 N 
ATOM      8  C   UNL     1       1.937  42.633  52.306  1.00  0.00     0.176 C 
ATOM      9  C   UNL     1       4.137  43.560  51.520  1.00  0.00     0.165 A 
ATOM     10  N   UNL     1       4.582  42.526  50.792  1.00  0.00    -0.193 NA
ENDROOT
BRANCH   1  11
ATOM     11  N   UNL     1       6.274  41.717  49.463  1.00  0.00    -0.354 N 
ATOM     12  H   UNL     1       7.208  42.001  49.190  1.00  0.00     0.163 HD
BRANCH  11  13
ATOM     13  C   UNL     1       5.406  41.302  48.373  1.00  0.00     0.116 C 
BRANCH  13  14
ATOM     14  C   UNL     1       5.838  42.016  47.090  1.00  0.00     0.021 C 
BRANCH  14  15
ATOM     15  C   UNL     1       5.141  41.485  45.836  1.00  0.00    -0.002 C 
ATOM     16  C   UNL     1       5.219  42.434  44.650  1.00  0.00     0.004 C 
ENDBRANCH  14  15
ENDBRANCH  13  14
ENDBRANCH  11  13
ENDBRANCH   1  11
BRANCH   3  17
ATOM     17  N   UNL     1       6.751  46.122  51.257  1.00  0.00    -0.336 N 
ATOM     18  H   UNL     1       6.399  46.927  50.749  1.00  0.00     0.168 HD
BRANCH  17  19
ATOM     19  C   UNL     1       7.888  46.465  52.011  1.00  0.00     0.082 A 
ATOM     20  C   UNL     1       9.193  46.089  51.690  1.00  0.00     0.030 A 
ATOM     21  C   UNL     1       7.698  47.238  53.174  1.00  0.00     0.139 A 
ATOM     22  C   UNL     1      10.269  46.468  52.501  1.00  0.00     0.002 A 
ATOM     23  C   UNL     1       8.762  47.621  53.990  1.00  0.00     0.048 A 
ATOM     24  C   UNL     1      10.055  47.231  53.647  1.00  0.00     0.004 A 
BRANCH  21  25
ATOM     25  O   UNL     1       6.413  47.614  53.488  1.00  0.00    -0.506 OA
ATOM     26  H   UNL     1       6.092  48.203  52.785  1.00  0.00     0.293 HD
ENDBRANCH  21  25
ENDBRANCH  17  19
ENDBRANCH   3  17
TORSDOF 7
ENDMDL
MODEL 4
REMARK VINA RESULT:    -8.098      1.695      2.160
REMARK INTER + INTRA:         -12.317
REMARK INTER:                 -11.371
REMARK INTRA:                  -0.945
REMARK UNBOUND:                -1.142
REMARK SMILES CCCCNc1nc(Nc2ccccc2O)c2cnn(C)c2n1
REMARK SMILES IDX 6 1 7 2 8 3 17 4 18 5 19 6 20 7 21 8 22 9 23 10 5 11 4 13
REMARK SMILES IDX 3 14 2 15 1 16 9 17 10 19 11 20 15 21 12 22 14 23 13 24
REMARK SMILES IDX 16 25
REMARK H PARENT 5 12 9 18 16 26
ROOT
ATOM      1  C   UNL     1       3.716  44.206  53.052  1.00  0.00     0.226 A 
ATOM      2  N   UNL     1       4.566  45.250  53.010  1.00  0.00    -0.195 NA
ATOM      3  C   UNL     1       5.544  45.319  52.068  1.00  0.00     0.147 A 
ATOM      4  C   UNL     1       5.612  44.261  51.155  1.00  0.00     0.082 A 
ATOM      5  C   UNL     1       6.396  43.876  50.046  1.00  0.00     0.149 A 
ATOM      6  N   UNL     1       6.009  42.711  49.513  1.00  0.00    -0.179 NA
ATOM      7  N   UNL     1       4.968  42.345  50.298  1.00  0.00    -0.250 N 
ATOM      8  C   UNL     1       4.282  41.106  50.032  1.00  0.00     0.176 C 
ATOM      9  C   UNL     1       4.689  43.244  51.291  1.00  0.00     0.165 A 
ATOM     10  N   UNL     1       3.718  43.163  52.213  1.00  0.00    -0.193 NA
ENDROOT
BRANCH   1  11
ATOM     11  N   UNL     1       2.723  44.164  54.027  1.00  0.00    -0.354 N 
ATOM     12  H   UNL     1       2.598  43.181  54.246  1.00  0.00     0.163 HD
BRANCH  11  13
ATOM     13  C   UNL     1       1.509  44.883  53.677  1.00  0.00     0.116 C 
BRANCH  13  14
ATOM     14  C   UNL     1       0.296  44.071  54.138  1.00  0.00     0.021 C 
BRANCH  14  15
ATOM     15  C   UNL     1       0.292  42.635  53.614  1.00  0.00    -0.002 C 
ATOM     16  C   UNL     1       0.062  42.536  52.114  1.00  0.00     0.004 C 
ENDBRANCH  14  15
ENDBRANCH  13  14
ENDBRANCH  11  13
ENDBRANCH   1  11
BRANCH   3  17
ATOM     17  N   UNL     1       6.430  46.396  51.996  1.00  0.00    -0.336 N 
ATOM     18  H   UNL     1       6.113  47.192  51.452  1.00  0.00     0.168 HD
BRANCH  17  19
ATOM     19  C   UNL     1       7.698  46.644  52.550  1.00  0.00     0.082 A 
ATOM     20  C   UNL     1       8.907  46.441  51.883  1.00  0.00     0.030 A 
ATOM     21  C   UNL     1       7.756  47.126  53.873  1.00  0.00     0.139 A 
ATOM     22  C   UNL     1      10.128  46.707  52.513  1.00  0.00     0.002 A 
ATOM     23  C   UNL     1       8.967  47.394  54.512  1.00  0.00     0.048 A 
ATOM     24  C   UNL     1      10.158  47.181  53.823  1.00  0.00     0.004 A 
BRANCH  21  25
ATOM     25  O   UNL     1       6.565  47.331  54.530  1.00  0.00    -0.506 OA
ATOM     26  H   UNL     1       6.571  48.236  54.885  1.00  0.00     0.293 HD
ENDBRANCH  21  25
ENDBRANCH  17  19
ENDBRANCH   3  17
TORSDOF 7
ENDMDL
MODEL 5
REMARK VINA RESULT:    -8.060      1.570      4.060
REMARK INTER + INTRA:         -12.264
REMARK INTER:                 -11.503
REMARK INTRA:                  -0.761
REMARK UNBOUND:                -1.142
REMARK SMILES CCCCNc1nc(Nc2ccccc2O)c2cnn(C)c2n1
REMARK SMILES IDX 6 1 7 2 8 3 17 4 18 5 19 6 20 7 21 8 22 9 23 10 5 11 4 13
REMARK SMILES IDX 3 14 2 15 1 16 9 17 10 19 11 20 15 21 12 22 14 23 13 24
REMARK SMILES IDX 16 25
REMARK H PARENT 5 12 9 18 16 26
ROOT
ATOM      1  C   UNL     1       4.413  43.281  51.670  1.00  0.00     0.226 A 
ATOM      2  N   UNL     1       5.407  44.182  51.558  1.00  0.00    -0.195 NA
ATOM      3  C   UNL     1       5.181  45.505  51.775  1.00  0.00     0.147 A 
ATOM      4  C   UNL     1       3.875  45.871  52.121  1.00  0.00     0.082 A 
ATOM      5  C   UNL     1       3.158  47.045  52.434  1.00  0.00     0.149 A 
ATOM      6  N   UNL     1       1.867  46.813  52.701  1.00  0.00    -0.179 NA
ATOM      7  N   UNL     1       1.758  45.472  52.550  1.00  0.00    -0.250 N 
ATOM      8  C   UNL     1       0.481  44.837  52.751  1.00  0.00     0.176 C 
ATOM      9  C   UNL     1       2.935  44.863  52.209  1.00  0.00     0.165 A 
ATOM     10  N   UNL     1       3.144  43.555  52.000  1.00  0.00    -0.193 NA
ENDROOT
BRANCH   1  11
ATOM     11  N   UNL     1       4.675  41.932  51.445  1.00  0.00    -0.354 N 
ATOM     12  H   UNL     1       5.514  41.726  51.976  1.00  0.00     0.163 HD
BRANCH  11  13
ATOM     13  C   UNL     1       4.716  41.556  50.042  1.00  0.00     0.116 C 
BRANCH  13  14
ATOM     14  C   UNL     1       6.176  41.489  49.585  1.00  0.00     0.021 C 
BRANCH  14  15
ATOM     15  C   UNL     1       6.581  42.649  48.675  1.00  0.00    -0.002 C 
ATOM     16  C   UNL     1       7.789  43.423  49.178  1.00  0.00     0.004 C 
ENDBRANCH  14  15
ENDBRANCH  13  14
ENDBRANCH  11  13
ENDBRANCH   1  11
BRANCH   3  17
ATOM     17  N   UNL     1       6.196  46.458  51.676  1.00  0.00    -0.336 N 
ATOM     18  H   UNL     1       6.003  47.247  51.068  1.00  0.00     0.168 HD
BRANCH  17  19
ATOM     19  C   UNL     1       7.463  46.588  52.274  1.00  0.00     0.082 A 
ATOM     20  C   UNL     1       8.665  46.217  51.670  1.00  0.00     0.030 A 
ATOM     21  C   UNL     1       7.525  47.125  53.575  1.00  0.00     0.139 A 
ATOM     22  C   UNL     1       9.883  46.373  52.340  1.00  0.00     0.002 A 
ATOM     23  C   UNL     1       8.733  47.285  54.253  1.00  0.00     0.048 A 
ATOM     24  C   UNL     1       9.918  46.905  53.628  1.00  0.00     0.004 A 
BRANCH  21  25
ATOM     25  O   UNL     1       6.342  47.497  54.170  1.00  0.00    -0.506 OA
ATOM     26  H   UNL     1       6.478  47.499  55.132  1.00  0.00     0.293 HD
ENDBRANCH  21  25
ENDBRANCH  17  19
ENDBRANCH   3  17
TORSDOF 7
ENDMDL
MODEL 6
REMARK VINA RESULT:    -8.044      1.433      4.145
REMARK INTER + INTRA:         -12.242
REMARK INTER:                 -11.338
REMARK INTRA:                  -0.903
REMARK UNBOUND:                -1.142
REMARK SMILES CCCCNc1nc(Nc2ccccc2O)c2cnn(C)c2n1
REMARK SMILES IDX 6 1 7 2 8 3 17 4 18 5 19 6 20 7 21 8 22 9 23 10 5 11 4 13
REMARK SMILES IDX 3 14 2 15 1 16 9 17 10 19 11 20 15 21 12 22 14 23 13 24
REMARK SMILES IDX 16 25
REMARK H PARENT 5 12 9 18 16 26
ROOT
ATOM      1  C   UNL     1       4.255  43.779  51.448  1.00  0.00     0.226 A 
ATOM      2  N   UNL     1       5.176  44.759  51.508  1.00  0.00    -0.195 NA
ATOM      3  C   UNL     1       5.132  45.702  52.486  1.00  0.00     0.147 A 
ATOM      4  C   UNL     1       4.092  45.595  53.416  1.00  0.00     0.082 A 
ATOM      5  C   UNL     1       3.626  46.278  54.560  1.00  0.00     0.149 A 
ATOM      6  N   UNL     1       2.534  45.719  55.094  1.00  0.00    -0.179 NA
ATOM      7  N   UNL     1       2.295  44.668  54.275  1.00  0.00    -0.250 N 
ATOM      8  C   UNL     1       1.165  43.812  54.531  1.00  0.00     0.176 C 
ATOM      9  C   UNL     1       3.204  44.548  53.259  1.00  0.00     0.165 A 
ATOM     10  N   UNL     1       3.237  43.610  52.301  1.00  0.00    -0.193 NA
ENDROOT
BRANCH   1  11
ATOM     11  N   UNL     1       4.327  42.825  50.436  1.00  0.00    -0.354 N 
ATOM     12  H   UNL     1       3.373  42.696  50.116  1.00  0.00     0.163 HD
BRANCH  11  13
ATOM     13  C   UNL     1       5.030  41.609  50.809  1.00  0.00     0.116 C 
BRANCH  13  14
ATOM     14  C   UNL     1       6.349  41.537  50.035  1.00  0.00     0.021 C 
BRANCH  14  15
ATOM     15  C   UNL     1       6.506  42.650  48.998  1.00  0.00    -0.002 C 
ATOM     16  C   UNL     1       7.752  43.497  49.200  1.00  0.00     0.004 C 
ENDBRANCH  14  15
ENDBRANCH  13  14
ENDBRANCH  11  13
ENDBRANCH   1  11
BRANCH   3  17
ATOM     17  N   UNL     1       6.081  46.722  52.578  1.00  0.00    -0.336 N 
ATOM     18  H   UNL     1       5.714  47.668  52.561  1.00  0.00     0.168 HD
BRANCH  17  19
ATOM     19  C   UNL     1       7.480  46.732  52.720  1.00  0.00     0.082 A 
ATOM     20  C   UNL     1       8.381  46.407  51.705  1.00  0.00     0.030 A 
ATOM     21  C   UNL     1       8.011  47.091  53.975  1.00  0.00     0.139 A 
ATOM     22  C   UNL     1       9.761  46.435  51.934  1.00  0.00     0.002 A 
ATOM     23  C   UNL     1       9.385  47.122  54.215  1.00  0.00     0.048 A 
ATOM     24  C   UNL     1      10.262  46.790  53.185  1.00  0.00     0.004 A 
BRANCH  21  25
ATOM     25  O   UNL     1       7.125  47.417  54.974  1.00  0.00    -0.506 OA
ATOM     26  H   UNL     1       7.142  46.704  55.634  1.00  0.00     0.293 HD
ENDBRANCH  21  25
ENDBRANCH  17  19
ENDBRANCH   3  17
TORSDOF 7
ENDMDL
MODEL 7
REMARK VINA RESULT:    -7.936      1.939      5.556
REMARK INTER + INTRA:         -12.093
REMARK INTER:                 -11.230
REMARK INTRA:                  -0.863
REMARK UNBOUND:                -1.142
REMARK SMILES CCCCNc1nc(Nc2ccccc2O)c2cnn(C)c2n1
REMARK SMILES IDX 6 1 7 2 8 3 17 4 18 5 19 6 20 7 21 8 22 9 23 10 5 11 4 13
REMARK SMILES IDX 3 14 2 15 1 16 9 17 10 19 11 20 15 21 12 22 14 23 13 24
REMARK SMILES IDX 16 25
REMARK H PARENT 5 12 9 18 16 26
ROOT
ATOM      1  C   UNL     1       6.162  46.221  52.248  1.00  0.00     0.226 A 
ATOM      2  N   UNL     1       5.138  45.597  52.860  1.00  0.00    -0.195 NA
ATOM      3  C   UNL     1       4.718  44.371  52.449  1.00  0.00     0.147 A 
ATOM      4  C   UNL     1       5.404  43.801  51.370  1.00  0.00     0.082 A 
ATOM      5  C   UNL     1       5.366  42.617  50.604  1.00  0.00     0.149 A 
ATOM      6  N   UNL     1       6.298  42.585  49.644  1.00  0.00    -0.179 NA
ATOM      7  N   UNL     1       6.935  43.770  49.795  1.00  0.00    -0.250 N 
ATOM      8  C   UNL     1       8.021  44.109  48.911  1.00  0.00     0.176 C 
ATOM      9  C   UNL     1       6.440  44.531  50.819  1.00  0.00     0.165 A 
ATOM     10  N   UNL     1       6.866  45.739  51.216  1.00  0.00    -0.193 NA
ENDROOT
BRANCH   1  11
ATOM     11  N   UNL     1       6.572  47.475  52.694  1.00  0.00    -0.354 N 
ATOM     12  H   UNL     1       5.836  48.116  52.417  1.00  0.00     0.163 HD
BRANCH  11  13
ATOM     13  C   UNL     1       7.913  47.849  52.279  1.00  0.00     0.116 C 
BRANCH  13  14
ATOM     14  C   UNL     1       8.843  47.808  53.495  1.00  0.00     0.021 C 
BRANCH  14  15
ATOM     15  C   UNL     1       9.939  46.748  53.385  1.00  0.00    -0.002 C 
ATOM     16  C   UNL     1      10.267  46.359  51.952  1.00  0.00     0.004 C 
ENDBRANCH  14  15
ENDBRANCH  13  14
ENDBRANCH  11  13
ENDBRANCH   1  11
BRANCH   3  17
ATOM     17  N   UNL     1       3.667  43.697  53.073  1.00  0.00    -0.336 N 
ATOM     18  H   UNL     1       3.823  42.711  53.258  1.00  0.00     0.168 HD
BRANCH  17  19
ATOM     19  C   UNL     1       2.405  44.100  53.547  1.00  0.00     0.082 A 
ATOM     20  C   UNL     1       1.214  43.972  52.831  1.00  0.00     0.030 A 
ATOM     21  C   UNL     1       2.336  44.677  54.830  1.00  0.00     0.139 A 
ATOM     22  C   UNL     1      -0.000  44.406  53.374  1.00  0.00     0.002 A 
ATOM     23  C   UNL     1       1.132  45.114  55.382  1.00  0.00     0.048 A 
ATOM     24  C   UNL     1      -0.041  44.976  54.645  1.00  0.00     0.004 A 
BRANCH  21  25
ATOM     25  O   UNL     1       3.509  44.798  55.539  1.00  0.00    -0.506 OA
ATOM     26  H   UNL     1       3.829  43.904  55.744  1.00  0.00     0.293 HD
ENDBRANCH  21  25
ENDBRANCH  17  19
ENDBRANCH   3  17
TORSDOF 7
ENDMDL
MODEL 8
REMARK VINA RESULT:    -7.909      1.580      4.349
REMARK INTER + INTRA:         -12.056
REMARK INTER:                 -11.042
REMARK INTRA:                  -1.014
REMARK UNBOUND:                -1.142
REMARK SMILES CCCCNc1nc(Nc2ccccc2O)c2cnn(C)c2n1
REMARK SMILES IDX 6 1 7 2 8 3 17 4 18 5 19 6 20 7 21 8 22 9 23 10 5 11 4 13
REMARK SMILES IDX 3 14 2 15 1 16 9 17 10 19 11 20 15 21 12 22 14 23 13 24
REMARK SMILES IDX 16 25
REMARK H PARENT 5 12 9 18 16 26
ROOT
ATOM      1  C   UNL     1       3.769  44.067  51.797  1.00  0.00     0.226 A 
ATOM      2  N   UNL     1       4.766  44.929  51.523  1.00  0.00    -0.195 NA
ATOM      3  C   UNL     1       5.103  45.911  52.400  1.00  0.00     0.147 A 
ATOM      4  C   UNL     1       4.368  45.971  53.589  1.00  0.00     0.082 A 
ATOM      5  C   UNL     1       4.324  46.754  54.762  1.00  0.00     0.149 A 
ATOM      6  N   UNL     1       3.379  46.356  55.622  1.00  0.00    -0.179 NA
ATOM      7  N   UNL     1       2.807  45.308  54.983  1.00  0.00    -0.250 N 
ATOM      8  C   UNL     1       1.714  44.608  55.609  1.00  0.00     0.176 C 
ATOM      9  C   UNL     1       3.369  45.035  53.766  1.00  0.00     0.165 A 
ATOM     10  N   UNL     1       3.027  44.060  52.912  1.00  0.00    -0.193 NA
ENDROOT
BRANCH   1  11
ATOM     11  N   UNL     1       3.448  43.069  50.881  1.00  0.00    -0.354 N 
ATOM     12  H   UNL     1       2.439  43.107  50.780  1.00  0.00     0.163 HD
BRANCH  11  13
ATOM     13  C   UNL     1       3.994  41.761  51.203  1.00  0.00     0.116 C 
BRANCH  13  14
ATOM     14  C   UNL     1       4.783  41.238  50.001  1.00  0.00     0.021 C 
BRANCH  14  15
ATOM     15  C   UNL     1       6.241  41.700  49.984  1.00  0.00    -0.002 C 
ATOM     16  C   UNL     1       6.539  42.733  48.909  1.00  0.00     0.004 C 
ENDBRANCH  14  15
ENDBRANCH  13  14
ENDBRANCH  11  13
ENDBRANCH   1  11
BRANCH   3  17
ATOM     17  N   UNL     1       6.140  46.811  52.145  1.00  0.00    -0.336 N 
ATOM     18  H   UNL     1       5.868  47.683  51.703  1.00  0.00     0.168 HD
BRANCH  17  19
ATOM     19  C   UNL     1       7.524  46.789  52.397  1.00  0.00     0.082 A 
ATOM     20  C   UNL     1       8.132  47.357  53.518  1.00  0.00     0.030 A 
ATOM     21  C   UNL     1       8.356  46.156  51.453  1.00  0.00     0.139 A 
ATOM     22  C   UNL     1       9.520  47.298  53.688  1.00  0.00     0.002 A 
ATOM     23  C   UNL     1       9.740  46.091  51.612  1.00  0.00     0.048 A 
ATOM     24  C   UNL     1      10.322  46.667  52.738  1.00  0.00     0.004 A 
BRANCH  21  25
ATOM     25  O   UNL     1       7.757  45.591  50.351  1.00  0.00    -0.506 OA
ATOM     26  H   UNL     1       7.630  46.290  49.688  1.00  0.00     0.293 HD
ENDBRANCH  21  25
ENDBRANCH  17  19
ENDBRANCH   3  17
TORSDOF 7
ENDMDL
MODEL 9
REMARK VINA RESULT:    -7.829      2.139      5.634
REMARK INTER + INTRA:         -11.945
REMARK INTER:                 -11.349
REMARK INTRA:                  -0.596
REMARK UNBOUND:                -1.142
REMARK SMILES CCCCNc1nc(Nc2ccccc2O)c2cnn(C)c2n1
REMARK SMILES IDX 6 1 7 2 8 3 17 4 18 5 19 6 20 7 21 8 22 9 23 10 5 11 4 13
REMARK SMILES IDX 3 14 2 15 1 16 9 17 10 19 11 20 15 21 12 22 14 23 13 24
REMARK SMILES IDX 16 25
REMARK H PARENT 5 12 9 18 16 26
ROOT
ATOM      1  C   UNL     1       6.216  45.119  51.288  1.00  0.00     0.226 A 
ATOM      2  N   UNL     1       5.355  45.257  52.313  1.00  0.00    -0.195 NA
ATOM      3  C   UNL     1       4.441  44.290  52.596  1.00  0.00     0.147 A 
ATOM      4  C   UNL     1       4.452  43.157  51.775  1.00  0.00     0.082 A 
ATOM      5  C   UNL     1       3.751  41.938  51.652  1.00  0.00     0.149 A 
ATOM      6  N   UNL     1       4.192  41.182  50.640  1.00  0.00    -0.179 NA
ATOM      7  N   UNL     1       5.183  41.933  50.104  1.00  0.00    -0.250 N 
ATOM      8  C   UNL     1       5.906  41.441  48.959  1.00  0.00     0.176 C 
ATOM      9  C   UNL     1       5.380  43.122  50.753  1.00  0.00     0.165 A 
ATOM     10  N   UNL     1       6.287  44.066  50.464  1.00  0.00    -0.193 NA
ENDROOT
BRANCH   1  11
ATOM     11  N   UNL     1       7.142  46.125  51.024  1.00  0.00    -0.354 N 
ATOM     12  H   UNL     1       7.958  45.652  50.650  1.00  0.00     0.163 HD
BRANCH  11  13
ATOM     13  C   UNL     1       7.396  47.014  52.145  1.00  0.00     0.116 C 
BRANCH  13  14
ATOM     14  C   UNL     1       8.805  47.599  52.010  1.00  0.00     0.021 C 
BRANCH  14  15
ATOM     15  C   UNL     1       9.860  46.830  52.805  1.00  0.00    -0.002 C 
ATOM     16  C   UNL     1       9.925  47.229  54.272  1.00  0.00     0.004 C 
ENDBRANCH  14  15
ENDBRANCH  13  14
ENDBRANCH  11  13
ENDBRANCH   1  11
BRANCH   3  17
ATOM     17  N   UNL     1       3.545  44.404  53.660  1.00  0.00    -0.336 N 
ATOM     18  H   UNL     1       3.960  44.418  54.586  1.00  0.00     0.168 HD
BRANCH  17  19
ATOM     19  C   UNL     1       2.147  44.534  53.738  1.00  0.00     0.082 A 
ATOM     20  C   UNL     1       1.294  44.580  52.634  1.00  0.00     0.030 A 
ATOM     21  C   UNL     1       1.564  44.629  55.017  1.00  0.00     0.139 A 
ATOM     22  C   UNL     1      -0.088  44.720  52.800  1.00  0.00     0.002 A 
ATOM     23  C   UNL     1       0.188  44.768  55.195  1.00  0.00     0.048 A 
ATOM     24  C   UNL     1      -0.640  44.814  54.076  1.00  0.00     0.004 A 
BRANCH  21  25
ATOM     25  O   UNL     1       2.403  44.577  56.106  1.00  0.00    -0.506 OA
ATOM     26  H   UNL     1       2.204  45.341  56.673  1.00  0.00     0.293 HD
ENDBRANCH  21  25
ENDBRANCH  17  19
ENDBRANCH   3  17
TORSDOF 7
ENDMDL
MODEL 10
REMARK VINA RESULT:    -7.811      2.945      6.538
REMARK INTER + INTRA:         -11.920
REMARK INTER:                 -11.264
REMARK INTRA:                  -0.656
REMARK UNBOUND:                -1.142
REMARK SMILES CCCCNc1nc(Nc2ccccc2O)c2cnn(C)c2n1
REMARK SMILES IDX 6 1 7 2 8 3 17 4 18 5 19 6 20 7 21 8 22 9 23 10 5 11 4 13
REMARK SMILES IDX 3 14 2 15 1 16 9 17 10 19 11 20 15 21 12 22 14 23 13 24
REMARK SMILES IDX 16 25
REMARK H PARENT 5 12 9 18 16 26
ROOT
ATOM      1  C   UNL     1       6.658  44.556  50.610  1.00  0.00     0.226 A 
ATOM      2  N   UNL     1       6.632  43.513  49.758  1.00  0.00    -0.195 NA
ATOM      3  C   UNL     1       5.660  42.565  49.841  1.00  0.00     0.147 A 
ATOM      4  C   UNL     1       4.700  42.736  50.845  1.00  0.00     0.082 A 
ATOM      5  C   UNL     1       3.550  42.075  51.326  1.00  0.00     0.149 A 
ATOM      6  N   UNL     1       2.980  42.704  52.361  1.00  0.00    -0.179 NA
ATOM      7  N   UNL     1       3.784  43.777  52.548  1.00  0.00    -0.250 N 
ATOM      8  C   UNL     1       3.490  44.708  53.608  1.00  0.00     0.176 C 
ATOM      9  C   UNL     1       4.824  43.843  51.661  1.00  0.00     0.165 A 
ATOM     10  N   UNL     1       5.774  44.786  51.589  1.00  0.00    -0.193 NA
ENDROOT
BRANCH   1  11
ATOM     11  N   UNL     1       7.663  45.512  50.499  1.00  0.00    -0.354 N 
ATOM     12  H   UNL     1       8.513  44.993  50.307  1.00  0.00     0.163 HD
BRANCH  11  13
ATOM     13  C   UNL     1       7.736  46.437  51.617  1.00  0.00     0.116 C 
BRANCH  13  14
ATOM     14  C   UNL     1       9.079  47.171  51.572  1.00  0.00     0.021 C 
BRANCH  14  15
ATOM     15  C   UNL     1      10.086  46.658  52.603  1.00  0.00    -0.002 C 
ATOM     16  C   UNL     1       9.846  47.195  54.006  1.00  0.00     0.004 C 
ENDBRANCH  14  15
ENDBRANCH  13  14
ENDBRANCH  11  13
ENDBRANCH   1  11
BRANCH   3  17
ATOM     17  N   UNL     1       5.604  41.480  48.964  1.00  0.00    -0.336 N 
ATOM     18  H   UNL     1       5.994  40.611  49.313  1.00  0.00     0.168 HD
BRANCH  17  19
ATOM     19  C   UNL     1       5.085  41.310  47.668  1.00  0.00     0.082 A 
ATOM     20  C   UNL     1       5.655  41.843  46.511  1.00  0.00     0.030 A 
ATOM     21  C   UNL     1       3.905  40.553  47.525  1.00  0.00     0.139 A 
ATOM     22  C   UNL     1       5.069  41.631  45.259  1.00  0.00     0.002 A 
ATOM     23  C   UNL     1       3.310  40.336  46.282  1.00  0.00     0.048 A 
ATOM     24  C   UNL     1       3.899  40.881  45.144  1.00  0.00     0.004 A 
BRANCH  21  25
ATOM     25  O   UNL     1       3.345  40.023  48.664  1.00  0.00    -0.506 OA
ATOM     26  H   UNL     1       2.465  40.419  48.778  1.00  0.00     0.293 HD
ENDBRANCH  21  25
ENDBRANCH  17  19
ENDBRANCH   3  17
TORSDOF 7
ENDMDL
MODEL 11
REMARK VINA RESULT:    -7.787      1.001      1.416
REMARK INTER + INTRA:         -11.888
REMARK INTER:                 -10.821
REMARK INTRA:                  -1.067
REMARK UNBOUND:                -1.142
REMARK SMILES CCCCNc1nc(Nc2ccccc2O)c2cnn(C)c2n1
REMARK SMILES IDX 6 1 7 2 8 3 17 4 18 5 19 6 20 7 21 8 22 9 23 10 5 11 4 13
REMARK SMILES IDX 3 14 2 15 1 16 9 17 10 19 11 20 15 21 12 22 14 23 13 24
REMARK SMILES IDX 16 25
REMARK H PARENT 5 12 9 18 16 26
ROOT
ATOM      1  C   UNL     1       3.571  44.577  52.013  1.00  0.00     0.226 A 
ATOM      2  N   UNL     1       4.620  45.413  51.901  1.00  0.00    -0.195 NA
ATOM      3  C   UNL     1       5.715  45.069  51.171  1.00  0.00     0.147 A 
ATOM      4  C   UNL     1       5.686  43.817  50.548  1.00  0.00     0.082 A 
ATOM      5  C   UNL     1       6.520  43.031  49.724  1.00  0.00     0.149 A 
ATOM      6  N   UNL     1       5.974  41.852  49.401  1.00  0.00    -0.179 NA
ATOM      7  N   UNL     1       4.778  41.884  50.035  1.00  0.00    -0.250 N 
ATOM      8  C   UNL     1       3.889  40.755  49.928  1.00  0.00     0.176 C 
ATOM      9  C   UNL     1       4.558  43.042  50.730  1.00  0.00     0.165 A 
ATOM     10  N   UNL     1       3.471  43.369  51.444  1.00  0.00    -0.193 NA
ENDROOT
BRANCH   1  11
ATOM     11  N   UNL     1       2.463  44.957  52.764  1.00  0.00    -0.354 N 
ATOM     12  H   UNL     1       1.699  45.038  52.102  1.00  0.00     0.163 HD
BRANCH  11  13
ATOM     13  C   UNL     1       2.681  46.120  53.609  1.00  0.00     0.116 C 
BRANCH  13  14
ATOM     14  C   UNL     1       3.108  45.652  55.003  1.00  0.00     0.021 C 
BRANCH  14  15
ATOM     15  C   UNL     1       4.548  46.027  55.354  1.00  0.00    -0.002 C 
ATOM     16  C   UNL     1       5.506  44.846  55.331  1.00  0.00     0.004 C 
ENDBRANCH  14  15
ENDBRANCH  13  14
ENDBRANCH  11  13
ENDBRANCH   1  11
BRANCH   3  17
ATOM     17  N   UNL     1       6.811  45.923  51.030  1.00  0.00    -0.336 N 
ATOM     18  H   UNL     1       6.924  46.347  50.114  1.00  0.00     0.168 HD
BRANCH  17  19
ATOM     19  C   UNL     1       7.814  46.363  51.911  1.00  0.00     0.082 A 
ATOM     20  C   UNL     1       7.583  47.133  53.052  1.00  0.00     0.030 A 
ATOM     21  C   UNL     1       9.147  46.007  51.623  1.00  0.00     0.139 A 
ATOM     22  C   UNL     1       8.642  47.536  53.873  1.00  0.00     0.002 A 
ATOM     23  C   UNL     1      10.211  46.403  52.433  1.00  0.00     0.048 A 
ATOM     24  C   UNL     1       9.952  47.174  53.564  1.00  0.00     0.004 A 
BRANCH  21  25
ATOM     25  O   UNL     1       9.376  45.243  50.502  1.00  0.00    -0.506 OA
ATOM     26  H   UNL     1      10.217  45.531  50.111  1.00  0.00     0.293 HD
ENDBRANCH  21  25
ENDBRANCH  17  19
ENDBRANCH   3  17
TORSDOF 7
ENDMDL
MODEL 12
REMARK VINA RESULT:    -7.729      1.831      4.691
REMARK INTER + INTRA:         -11.807
REMARK INTER:                 -10.951
REMARK INTRA:                  -0.856
REMARK UNBOUND:                -1.142
REMARK SMILES CCCCNc1nc(Nc2ccccc2O)c2cnn(C)c2n1
REMARK SMILES IDX 6 1 7 2 8 3 17 4 18 5 19 6 20 7 21 8 22 9 23 10 5 11 4 13
REMARK SMILES IDX 3 14 2 15 1 16 9 17 10 19 11 20 15 21 12 22 14 23 13 24
REMARK SMILES IDX 16 25
REMARK H PARENT 5 12 9 18 16 26
ROOT
ATOM      1  C   UNL     1       4.456  42.820  51.374  1.00  0.00     0.226 A 
ATOM      2  N   UNL     1       5.296  43.849  51.158  1.00  0.00    -0.195 NA
ATOM      3  C   UNL     1       5.069  45.068  51.717  1.00  0.00     0.147 A 
ATOM      4  C   UNL     1       3.930  45.188  52.522  1.00  0.00     0.082 A 
ATOM      5  C   UNL     1       3.282  46.178  53.289  1.00  0.00     0.149 A 
ATOM      6  N   UNL     1       2.170  45.733  53.886  1.00  0.00    -0.179 NA
ATOM      7  N   UNL     1       2.105  44.440  53.488  1.00  0.00    -0.250 N 
ATOM      8  C   UNL     1       1.010  43.616  53.932  1.00  0.00     0.176 C 
ATOM      9  C   UNL     1       3.140  44.065  52.675  1.00  0.00     0.165 A 
ATOM     10  N   UNL     1       3.353  42.858  52.133  1.00  0.00    -0.193 NA
ENDROOT
BRANCH   1  11
ATOM     11  N   UNL     1       4.716  41.583  50.791  1.00  0.00    -0.354 N 
ATOM     12  H   UNL     1       4.834  40.937  51.565  1.00  0.00     0.163 HD
BRANCH  11  13
ATOM     13  C   UNL     1       5.796  41.594  49.818  1.00  0.00     0.116 C 
BRANCH  13  14
ATOM     14  C   UNL     1       5.230  41.240  48.440  1.00  0.00     0.021 C 
BRANCH  14  15
ATOM     15  C   UNL     1       5.889  42.013  47.297  1.00  0.00    -0.002 C 
ATOM     16  C   UNL     1       5.320  41.675  45.928  1.00  0.00     0.004 C 
ENDBRANCH  14  15
ENDBRANCH  13  14
ENDBRANCH  11  13
ENDBRANCH   1  11
BRANCH   3  17
ATOM     17  N   UNL     1       5.930  46.149  51.518  1.00  0.00    -0.336 N 
ATOM     18  H   UNL     1       5.565  46.904  50.946  1.00  0.00     0.168 HD
BRANCH  17  19
ATOM     19  C   UNL     1       7.227  46.448  51.971  1.00  0.00     0.082 A 
ATOM     20  C   UNL     1       7.512  47.221  53.098  1.00  0.00     0.030 A 
ATOM     21  C   UNL     1       8.316  45.938  51.237  1.00  0.00     0.139 A 
ATOM     22  C   UNL     1       8.835  47.478  53.476  1.00  0.00     0.002 A 
ATOM     23  C   UNL     1       9.638  46.188  51.604  1.00  0.00     0.048 A 
ATOM     24  C   UNL     1       9.895  46.964  52.731  1.00  0.00     0.004 A 
BRANCH  21  25
ATOM     25  O   UNL     1       8.036  45.171  50.130  1.00  0.00    -0.506 OA
ATOM     26  H   UNL     1       8.109  44.237  50.387  1.00  0.00     0.293 HD
ENDBRANCH  21  25
ENDBRANCH  17  19
ENDBRANCH   3  17
TORSDOF 7
ENDMDL
MODEL 13
REMARK VINA RESULT:    -7.688      2.335      5.499
REMARK INTER + INTRA:         -11.751
REMARK INTER:                 -10.903
REMARK INTRA:                  -0.848
REMARK UNBOUND:                -1.142
REMARK SMILES CCCCNc1nc(Nc2ccccc2O)c2cnn(C)c2n1
REMARK SMILES IDX 6 1 7 2 8 3 17 4 18 5 19 6 20 7 21 8 22 9 23 10 5 11 4 13
REMARK SMILES IDX 3 14 2 15 1 16 9 17 10 19 11 20 15 21 12 22 14 23 13 24
REMARK SMILES IDX 16 25
REMARK H PARENT 5 12 9 18 16 26
ROOT
ATOM      1  C   UNL     1       5.495  47.171  53.080  1.00  0.00     0.226 A 
ATOM      2  N   UNL     1       5.563  46.332  52.029  1.00  0.00    -0.195 NA
ATOM      3  C   UNL     1       6.758  45.853  51.591  1.00  0.00     0.147 A 
ATOM      4  C   UNL     1       7.896  46.273  52.288  1.00  0.00     0.082 A 
ATOM      5  C   UNL     1       9.293  46.077  52.240  1.00  0.00     0.149 A 
ATOM      6  N   UNL     1       9.948  46.751  53.192  1.00  0.00    -0.179 NA
ATOM      7  N   UNL     1       8.955  47.394  53.852  1.00  0.00    -0.250 N 
ATOM      8  C   UNL     1       9.281  48.249  54.965  1.00  0.00     0.176 C 
ATOM      9  C   UNL     1       7.709  47.134  53.352  1.00  0.00     0.165 A 
ATOM     10  N   UNL     1       6.537  47.612  53.796  1.00  0.00    -0.193 NA
ENDROOT
BRANCH   1  11
ATOM     11  N   UNL     1       4.257  47.642  53.508  1.00  0.00    -0.354 N 
ATOM     12  H   UNL     1       4.199  47.400  54.491  1.00  0.00     0.163 HD
BRANCH  11  13
ATOM     13  C   UNL     1       3.135  47.208  52.692  1.00  0.00     0.116 C 
BRANCH  13  14
ATOM     14  C   UNL     1       2.341  46.147  53.457  1.00  0.00     0.021 C 
BRANCH  14  15
ATOM     15  C   UNL     1       2.246  44.810  52.720  1.00  0.00    -0.002 C 
ATOM     16  C   UNL     1       1.998  44.957  51.226  1.00  0.00     0.004 C 
ENDBRANCH  14  15
ENDBRANCH  13  14
ENDBRANCH  11  13
ENDBRANCH   1  11
BRANCH   3  17
ATOM     17  N   UNL     1       6.854  44.973  50.512  1.00  0.00    -0.336 N 
ATOM     18  H   UNL     1       7.491  45.252  49.772  1.00  0.00     0.168 HD
BRANCH  17  19
ATOM     19  C   UNL     1       6.266  43.729  50.221  1.00  0.00     0.082 A 
ATOM     20  C   UNL     1       5.110  43.239  50.831  1.00  0.00     0.030 A 
ATOM     21  C   UNL     1       6.887  42.917  49.251  1.00  0.00     0.139 A 
ATOM     22  C   UNL     1       4.595  41.984  50.489  1.00  0.00     0.002 A 
ATOM     23  C   UNL     1       6.383  41.664  48.902  1.00  0.00     0.048 A 
ATOM     24  C   UNL     1       5.229  41.199  49.528  1.00  0.00     0.004 A 
BRANCH  21  25
ATOM     25  O   UNL     1       8.023  43.401  48.646  1.00  0.00    -0.506 OA
ATOM     26  H   UNL     1       7.750  43.940  47.884  1.00  0.00     0.293 HD
ENDBRANCH  21  25
ENDBRANCH  17  19
ENDBRANCH   3  17
TORSDOF 7
ENDMDL
MODEL 14
REMARK VINA RESULT:    -7.681      2.341      5.657
REMARK INTER + INTRA:         -11.742
REMARK INTER:                 -11.283
REMARK INTRA:                  -0.459
REMARK UNBOUND:                -1.142
REMARK SMILES CCCCNc1nc(Nc2ccccc2O)c2cnn(C)c2n1
REMARK SMILES IDX 6 1 7 2 8 3 17 4 18 5 19 6 20 7 21 8 22 9 23 10 5 11 4 13
REMARK SMILES IDX 3 14 2 15 1 16 9 17 10 19 11 20 15 21 12 22 14 23 13 24
REMARK SMILES IDX 16 25
REMARK H PARENT 5 12 9 18 16 26
ROOT
ATOM      1  C   UNL     1       5.013  46.040  54.494  1.00  0.00     0.226 A 
ATOM      2  N   UNL     1       5.049  45.280  53.384  1.00  0.00    -0.195 NA
ATOM      3  C   UNL     1       3.984  44.514  53.024  1.00  0.00     0.147 A 
ATOM      4  C   UNL     1       2.863  44.566  53.860  1.00  0.00     0.082 A 
ATOM      5  C   UNL     1       1.573  43.998  53.928  1.00  0.00     0.149 A 
ATOM      6  N   UNL     1       0.875  44.413  54.992  1.00  0.00    -0.179 NA
ATOM      7  N   UNL     1       1.736  45.253  55.615  1.00  0.00    -0.250 N 
ATOM      8  C   UNL     1       1.332  45.903  56.836  1.00  0.00     0.176 C 
ATOM      9  C   UNL     1       2.936  45.382  54.972  1.00  0.00     0.165 A 
ATOM     10  N   UNL     1       3.978  46.143  55.337  1.00  0.00    -0.193 NA
ENDROOT
BRANCH   1  11
ATOM     11  N   UNL     1       6.118  46.815  54.836  1.00  0.00    -0.354 N 
ATOM     12  H   UNL     1       5.797  47.777  54.801  1.00  0.00     0.163 HD
BRANCH  11  13
ATOM     13  C   UNL     1       7.314  46.529  54.061  1.00  0.00     0.116 C 
BRANCH  13  14
ATOM     14  C   UNL     1       8.424  47.496  54.479  1.00  0.00     0.021 C 
BRANCH  14  15
ATOM     15  C   UNL     1       9.816  47.056  54.024  1.00  0.00    -0.002 C 
ATOM     16  C   UNL     1       9.883  46.679  52.552  1.00  0.00     0.004 C 
ENDBRANCH  14  15
ENDBRANCH  13  14
ENDBRANCH  11  13
ENDBRANCH   1  11
BRANCH   3  17
ATOM     17  N   UNL     1       3.992  43.726  51.872  1.00  0.00    -0.336 N 
ATOM     18  H   UNL     1       3.086  43.387  51.565  1.00  0.00     0.168 HD
BRANCH  17  19
ATOM     19  C   UNL     1       5.006  43.304  50.995  1.00  0.00     0.082 A 
ATOM     20  C   UNL     1       5.994  44.138  50.467  1.00  0.00     0.030 A 
ATOM     21  C   UNL     1       5.028  41.947  50.616  1.00  0.00     0.139 A 
ATOM     22  C   UNL     1       6.964  43.638  49.593  1.00  0.00     0.002 A 
ATOM     23  C   UNL     1       5.990  41.437  49.745  1.00  0.00     0.048 A 
ATOM     24  C   UNL     1       6.962  42.291  49.231  1.00  0.00     0.004 A 
BRANCH  21  25
ATOM     25  O   UNL     1       4.059  41.123  51.139  1.00  0.00    -0.506 OA
ATOM     26  H   UNL     1       4.459  40.251  51.293  1.00  0.00     0.293 HD
ENDBRANCH  21  25
ENDBRANCH  17  19
ENDBRANCH   3  17
TORSDOF 7
ENDMDL
MODEL 15
REMARK VINA RESULT:    -7.660      2.411      5.869
REMARK INTER + INTRA:         -11.712
REMARK INTER:                 -10.895
REMARK INTRA:                  -0.817
REMARK UNBOUND:                -1.142
REMARK SMILES CCCCNc1nc(Nc2ccccc2O)c2cnn(C)c2n1
REMARK SMILES IDX 6 1 7 2 8 3 17 4 18 5 19 6 20 7 21 8 22 9 23 10 5 11 4 13
REMARK SMILES IDX 3 14 2 15 1 16 9 17 10 19 11 20 15 21 12 22 14 23 13 24
REMARK SMILES IDX 16 25
REMARK H PARENT 5 12 9 18 16 26
ROOT
ATOM      1  C   UNL     1       6.134  45.992  52.272  1.00  0.00     0.226 A 
ATOM      2  N   UNL     1       5.109  45.344  52.857  1.00  0.00    -0.195 NA
ATOM      3  C   UNL     1       4.693  44.133  52.399  1.00  0.00     0.147 A 
ATOM      4  C   UNL     1       5.385  43.604  51.303  1.00  0.00     0.082 A 
ATOM      5  C   UNL     1       5.351  42.449  50.494  1.00  0.00     0.149 A 
ATOM      6  N   UNL     1       6.287  42.453  49.537  1.00  0.00    -0.179 NA
ATOM      7  N   UNL     1       6.921  43.634  49.734  1.00  0.00    -0.250 N 
ATOM      8  C   UNL     1       8.010  44.006  48.867  1.00  0.00     0.176 C 
ATOM      9  C   UNL     1       6.421  44.355  50.784  1.00  0.00     0.165 A 
ATOM     10  N   UNL     1       6.843  45.548  51.226  1.00  0.00    -0.193 NA
ENDROOT
BRANCH   1  11
ATOM     11  N   UNL     1       6.540  47.229  52.765  1.00  0.00    -0.354 N 
ATOM     12  H   UNL     1       5.737  47.839  52.663  1.00  0.00     0.163 HD
BRANCH  11  13
ATOM     13  C   UNL     1       7.779  47.726  52.189  1.00  0.00     0.116 C 
BRANCH  13  14
ATOM     14  C   UNL     1       8.816  47.893  53.303  1.00  0.00     0.021 C 
BRANCH  14  15
ATOM     15  C   UNL     1       9.870  46.786  53.322  1.00  0.00    -0.002 C 
ATOM     16  C   UNL     1      10.271  46.305  51.936  1.00  0.00     0.004 C 
ENDBRANCH  14  15
ENDBRANCH  13  14
ENDBRANCH  11  13
ENDBRANCH   1  11
BRANCH   3  17
ATOM     17  N   UNL     1       3.641  43.435  52.995  1.00  0.00    -0.336 N 
ATOM     18  H   UNL     1       3.894  42.569  53.460  1.00  0.00     0.168 HD
BRANCH  17  19
ATOM     19  C   UNL     1       2.263  43.686  53.122  1.00  0.00     0.082 A 
ATOM     20  C   UNL     1       1.698  44.531  54.079  1.00  0.00     0.030 A 
ATOM     21  C   UNL     1       1.390  43.037  52.226  1.00  0.00     0.139 A 
ATOM     22  C   UNL     1       0.312  44.719  54.141  1.00  0.00     0.002 A 
ATOM     23  C   UNL     1       0.007  43.217  52.279  1.00  0.00     0.048 A 
ATOM     24  C   UNL     1      -0.531  44.064  53.245  1.00  0.00     0.004 A 
BRANCH  21  25
ATOM     25  O   UNL     1       1.946  42.209  51.280  1.00  0.00    -0.506 OA
ATOM     26  H   UNL     1       1.275  41.554  51.024  1.00  0.00     0.293 HD
ENDBRANCH  21  25
ENDBRANCH  17  19
ENDBRANCH   3  17
TORSDOF 7
ENDMDL
MODEL 16
REMARK VINA RESULT:    -7.659      2.220      5.461
REMARK INTER + INTRA:         -11.712
REMARK INTER:                 -10.831
REMARK INTRA:                  -0.881
REMARK UNBOUND:                -1.142
REMARK SMILES CCCCNc1nc(Nc2ccccc2O)c2cnn(C)c2n1
REMARK SMILES IDX 6 1 7 2 8 3 17 4 18 5 19 6 20 7 21 8 22 9 23 10 5 11 4 13
REMARK SMILES IDX 3 14 2 15 1 16 9 17 10 19 11 20 15 21 12 22 14 23 13 24
REMARK SMILES IDX 16 25
REMARK H PARENT 5 12 9 18 16 26
ROOT
ATOM      1  C   UNL     1       5.631  46.688  54.152  1.00  0.00     0.226 A 
ATOM      2  N   UNL     1       5.441  46.039  52.988  1.00  0.00    -0.195 NA
ATOM      3  C   UNL     1       6.477  45.803  52.139  1.00  0.00     0.147 A 
ATOM      4  C   UNL     1       7.735  46.264  52.542  1.00  0.00     0.082 A 
ATOM      5  C   UNL     1       9.059  46.273  52.054  1.00  0.00     0.149 A 
ATOM      6  N   UNL     1       9.918  46.877  52.884  1.00  0.00    -0.179 NA
ATOM      7  N   UNL     1       9.128  47.265  53.912  1.00  0.00    -0.250 N 
ATOM      8  C   UNL     1       9.710  47.975  55.024  1.00  0.00     0.176 C 
ATOM      9  C   UNL     1       7.815  46.916  53.757  1.00  0.00     0.165 A 
ATOM     10  N   UNL     1       6.803  47.153  54.604  1.00  0.00    -0.193 NA
ENDROOT
BRANCH   1  11
ATOM     11  N   UNL     1       4.552  46.912  55.003  1.00  0.00    -0.354 N 
ATOM     12  H   UNL     1       4.899  47.535  55.723  1.00  0.00     0.163 HD
BRANCH  11  13
ATOM     13  C   UNL     1       3.906  45.701  55.483  1.00  0.00     0.116 C 
BRANCH  13  14
ATOM     14  C   UNL     1       2.423  45.742  55.104  1.00  0.00     0.021 C 
BRANCH  14  15
ATOM     15  C   UNL     1       2.112  45.019  53.793  1.00  0.00    -0.002 C 
ATOM     16  C   UNL     1       1.717  45.956  52.662  1.00  0.00     0.004 C 
ENDBRANCH  14  15
ENDBRANCH  13  14
ENDBRANCH  11  13
ENDBRANCH   1  11
BRANCH   3  17
ATOM     17  N   UNL     1       6.308  45.123  50.932  1.00  0.00    -0.336 N 
ATOM     18  H   UNL     1       6.592  45.627  50.098  1.00  0.00     0.168 HD
BRANCH  17  19
ATOM     19  C   UNL     1       5.840  43.838  50.603  1.00  0.00     0.082 A 
ATOM     20  C   UNL     1       4.671  43.268  51.109  1.00  0.00     0.030 A 
ATOM     21  C   UNL     1       6.605  43.069  49.703  1.00  0.00     0.139 A 
ATOM     22  C   UNL     1       4.281  41.977  50.734  1.00  0.00     0.002 A 
ATOM     23  C   UNL     1       6.226  41.782  49.322  1.00  0.00     0.048 A 
ATOM     24  C   UNL     1       5.056  41.236  49.845  1.00  0.00     0.004 A 
BRANCH  21  25
ATOM     25  O   UNL     1       7.754  43.632  49.199  1.00  0.00    -0.506 OA
ATOM     26  H   UNL     1       8.469  43.475  49.837  1.00  0.00     0.293 HD
ENDBRANCH  21  25
ENDBRANCH  17  19
ENDBRANCH   3  17
TORSDOF 7
ENDMDL
MODEL 17
REMARK VINA RESULT:    -7.574      2.415      3.266
REMARK INTER + INTRA:         -11.593
REMARK INTER:                 -10.867
REMARK INTRA:                  -0.727
REMARK UNBOUND:                -1.142
REMARK SMILES CCCCNc1nc(Nc2ccccc2O)c2cnn(C)c2n1
REMARK SMILES IDX 6 1 7 2 8 3 17 4 18 5 19 6 20 7 21 8 22 9 23 10 5 11 4 13
REMARK SMILES IDX 3 14 2 15 1 16 9 17 10 19 11 20 15 21 12 22 14 23 13 24
REMARK SMILES IDX 16 25
REMARK H PARENT 5 12 9 18 16 26
ROOT
ATOM      1  C   UNL     1       3.440  45.838  54.970  1.00  0.00     0.226 A 
ATOM      2  N   UNL     1       4.445  46.639  54.568  1.00  0.00    -0.195 NA
ATOM      3  C   UNL     1       5.047  46.457  53.363  1.00  0.00     0.147 A 
ATOM      4  C   UNL     1       4.565  45.407  52.573  1.00  0.00     0.082 A 
ATOM      5  C   UNL     1       4.829  44.830  51.312  1.00  0.00     0.149 A 
ATOM      6  N   UNL     1       4.031  43.793  51.034  1.00  0.00    -0.179 NA
ATOM      7  N   UNL     1       3.251  43.702  52.138  1.00  0.00    -0.250 N 
ATOM      8  C   UNL     1       2.250  42.669  52.215  1.00  0.00     0.176 C 
ATOM      9  C   UNL     1       3.529  44.650  53.084  1.00  0.00     0.165 A 
ATOM     10  N   UNL     1       2.925  44.820  54.269  1.00  0.00    -0.193 NA
ENDROOT
BRANCH   1  11
ATOM     11  N   UNL     1       2.841  46.051  56.208  1.00  0.00    -0.354 N 
ATOM     12  H   UNL     1       3.549  45.821  56.896  1.00  0.00     0.163 HD
BRANCH  11  13
ATOM     13  C   UNL     1       1.564  45.378  56.380  1.00  0.00     0.116 C 
BRANCH  13  14
ATOM     14  C   UNL     1       0.768  46.088  57.477  1.00  0.00     0.021 C 
BRANCH  14  15
ATOM     15  C   UNL     1      -0.693  46.339  57.102  1.00  0.00    -0.002 C 
ATOM     16  C   UNL     1      -1.384  47.357  57.995  1.00  0.00     0.004 C 
ENDBRANCH  14  15
ENDBRANCH  13  14
ENDBRANCH  11  13
ENDBRANCH   1  11
BRANCH   3  17
ATOM     17  N   UNL     1       6.083  47.280  52.918  1.00  0.00    -0.336 N 
ATOM     18  H   UNL     1       5.809  48.209  52.615  1.00  0.00     0.168 HD
BRANCH  17  19
ATOM     19  C   UNL     1       7.476  47.113  52.818  1.00  0.00     0.082 A 
ATOM     20  C   UNL     1       8.154  46.808  51.636  1.00  0.00     0.030 A 
ATOM     21  C   UNL     1       8.243  47.260  53.991  1.00  0.00     0.139 A 
ATOM     22  C   UNL     1       9.544  46.652  51.626  1.00  0.00     0.002 A 
ATOM     23  C   UNL     1       9.630  47.105  53.993  1.00  0.00     0.048 A 
ATOM     24  C   UNL     1      10.280  46.799  52.801  1.00  0.00     0.004 A 
BRANCH  21  25
ATOM     25  O   UNL     1       7.578  47.566  55.155  1.00  0.00    -0.506 OA
ATOM     26  H   UNL     1       7.466  48.530  55.191  1.00  0.00     0.293 HD
ENDBRANCH  21  25
ENDBRANCH  17  19
ENDBRANCH   3  17
TORSDOF 7
ENDMDL
MODEL 18
REMARK VINA RESULT:    -7.502      2.177      6.387
REMARK INTER + INTRA:         -11.495
REMARK INTER:                 -10.480
REMARK INTRA:                  -1.015
REMARK UNBOUND:                -1.142
REMARK SMILES CCCCNc1nc(Nc2ccccc2O)c2cnn(C)c2n1
REMARK SMILES IDX 6 1 7 2 8 3 17 4 18 5 19 6 20 7 21 8 22 9 23 10 5 11 4 13
REMARK SMILES IDX 3 14 2 15 1 16 9 17 10 19 11 20 15 21 12 22 14 23 13 24
REMARK SMILES IDX 16 25
REMARK H PARENT 5 12 9 18 16 26
ROOT
ATOM      1  C   UNL     1       7.259  45.625  50.797  1.00  0.00     0.226 A 
ATOM      2  N   UNL     1       5.938  45.581  51.058  1.00  0.00    -0.195 NA
ATOM      3  C   UNL     1       5.448  45.985  52.260  1.00  0.00     0.147 A 
ATOM      4  C   UNL     1       6.381  46.446  53.196  1.00  0.00     0.082 A 
ATOM      5  C   UNL     1       6.390  46.950  54.513  1.00  0.00     0.149 A 
ATOM      6  N   UNL     1       7.619  47.253  54.949  1.00  0.00    -0.179 NA
ATOM      7  N   UNL     1       8.406  46.930  53.895  1.00  0.00    -0.250 N 
ATOM      8  C   UNL     1       9.832  47.112  53.993  1.00  0.00     0.176 C 
ATOM      9  C   UNL     1       7.710  46.448  52.820  1.00  0.00     0.165 A 
ATOM     10  N   UNL     1       8.207  46.055  51.638  1.00  0.00    -0.193 NA
ENDROOT
BRANCH   1  11
ATOM     11  N   UNL     1       7.731  45.208  49.555  1.00  0.00    -0.354 N 
ATOM     12  H   UNL     1       7.043  45.527  48.881  1.00  0.00     0.163 HD
BRANCH  11  13
ATOM     13  C   UNL     1       8.065  43.795  49.485  1.00  0.00     0.116 C 
BRANCH  13  14
ATOM     14  C   UNL     1       6.878  43.029  48.894  1.00  0.00     0.021 C 
BRANCH  14  15
ATOM     15  C   UNL     1       6.413  41.863  49.766  1.00  0.00    -0.002 C 
ATOM     16  C   UNL     1       5.095  42.124  50.479  1.00  0.00     0.004 C 
ENDBRANCH  14  15
ENDBRANCH  13  14
ENDBRANCH  11  13
ENDBRANCH   1  11
BRANCH   3  17
ATOM     17  N   UNL     1       4.083  45.961  52.552  1.00  0.00    -0.336 N 
ATOM     18  H   UNL     1       3.712  46.797  52.991  1.00  0.00     0.168 HD
BRANCH  17  19
ATOM     19  C   UNL     1       3.065  45.013  52.341  1.00  0.00     0.082 A 
ATOM     20  C   UNL     1       2.441  44.783  51.114  1.00  0.00     0.030 A 
ATOM     21  C   UNL     1       2.642  44.245  53.443  1.00  0.00     0.139 A 
ATOM     22  C   UNL     1       1.429  43.825  50.992  1.00  0.00     0.002 A 
ATOM     23  C   UNL     1       1.634  43.287  53.334  1.00  0.00     0.048 A 
ATOM     24  C   UNL     1       1.025  43.079  52.099  1.00  0.00     0.004 A 
BRANCH  21  25
ATOM     25  O   UNL     1       3.260  44.467  54.651  1.00  0.00    -0.506 OA
ATOM     26  H   UNL     1       3.863  43.723  54.820  1.00  0.00     0.293 HD
ENDBRANCH  21  25
ENDBRANCH  17  19
ENDBRANCH   3  17
TORSDOF 7
ENDMDL
MODEL 19
REMARK VINA RESULT:    -7.449      2.800      5.574
REMARK INTER + INTRA:         -11.421
REMARK INTER:                 -10.836
REMARK INTRA:                  -0.586
REMARK UNBOUND:                -1.142
REMARK SMILES CCCCNc1nc(Nc2ccccc2O)c2cnn(C)c2n1
REMARK SMILES IDX 6 1 7 2 8 3 17 4 18 5 19 6 20 7 21 8 22 9 23 10 5 11 4 13
REMARK SMILES IDX 3 14 2 15 1 16 9 17 10 19 11 20 15 21 12 22 14 23 13 24
REMARK SMILES IDX 16 25
REMARK H PARENT 5 12 9 18 16 26
ROOT
ATOM      1  C   UNL     1       3.102  45.460  54.727  1.00  0.00     0.226 A 
ATOM      2  N   UNL     1       3.547  44.728  53.689  1.00  0.00    -0.195 NA
ATOM      3  C   UNL     1       2.751  43.801  53.092  1.00  0.00     0.147 A 
ATOM      4  C   UNL     1       1.458  43.658  53.608  1.00  0.00     0.082 A 
ATOM      5  C   UNL     1       0.305  42.884  53.361  1.00  0.00     0.149 A 
ATOM      6  N   UNL     1      -0.703  43.167  54.194  1.00  0.00    -0.179 NA
ATOM      7  N   UNL     1      -0.182  44.130  54.990  1.00  0.00    -0.250 N 
ATOM      8  C   UNL     1      -0.988  44.692  56.044  1.00  0.00     0.176 C 
ATOM      9  C   UNL     1       1.107  44.463  54.674  1.00  0.00     0.165 A 
ATOM     10  N   UNL     1       1.880  45.381  55.271  1.00  0.00    -0.193 NA
ENDROOT
BRANCH   1  11
ATOM     11  N   UNL     1       3.939  46.403  55.316  1.00  0.00    -0.354 N 
ATOM     12  H   UNL     1       3.343  46.952  55.926  1.00  0.00     0.163 HD
BRANCH  11  13
ATOM     13  C   UNL     1       4.739  47.167  54.373  1.00  0.00     0.116 C 
BRANCH  13  14
ATOM     14  C   UNL     1       6.216  46.816  54.571  1.00  0.00     0.021 C 
BRANCH  14  15
ATOM     15  C   UNL     1       6.930  46.441  53.272  1.00  0.00    -0.002 C 
ATOM     16  C   UNL     1       7.750  47.576  52.679  1.00  0.00     0.004 C 
ENDBRANCH  14  15
ENDBRANCH  13  14
ENDBRANCH  11  13
ENDBRANCH   1  11
BRANCH   3  17
ATOM     17  N   UNL     1       3.185  43.037  52.007  1.00  0.00    -0.336 N 
ATOM     18  H   UNL     1       2.532  42.335  51.674  1.00  0.00     0.168 HD
BRANCH  17  19
ATOM     19  C   UNL     1       4.355  43.041  51.228  1.00  0.00     0.082 A 
ATOM     20  C   UNL     1       5.189  44.147  51.057  1.00  0.00     0.030 A 
ATOM     21  C   UNL     1       4.711  41.848  50.568  1.00  0.00     0.139 A 
ATOM     22  C   UNL     1       6.333  44.067  50.256  1.00  0.00     0.002 A 
ATOM     23  C   UNL     1       5.849  41.756  49.766  1.00  0.00     0.048 A 
ATOM     24  C   UNL     1       6.662  42.876  49.611  1.00  0.00     0.004 A 
BRANCH  21  25
ATOM     25  O   UNL     1       3.894  40.755  50.739  1.00  0.00    -0.506 OA
ATOM     26  H   UNL     1       3.452  40.844  51.600  1.00  0.00     0.293 HD
ENDBRANCH  21  25
ENDBRANCH  17  19
ENDBRANCH   3  17
TORSDOF 7
ENDMDL
MODEL 20
REMARK VINA RESULT:    -7.419      1.851      5.358
REMARK INTER + INTRA:         -11.380
REMARK INTER:                 -10.646
REMARK INTRA:                  -0.734
REMARK UNBOUND:                -1.142
REMARK SMILES CCCCNc1nc(Nc2ccccc2O)c2cnn(C)c2n1
REMARK SMILES IDX 6 1 7 2 8 3 17 4 18 5 19 6 20 7 21 8 22 9 23 10 5 11 4 13
REMARK SMILES IDX 3 14 2 15 1 16 9 17 10 19 11 20 15 21 12 22 14 23 13 24
REMARK SMILES IDX 16 25
REMARK H PARENT 5 12 9 18 16 26
ROOT
ATOM      1  C   UNL     1       6.601  45.513  50.967  1.00  0.00     0.226 A 
ATOM      2  N   UNL     1       5.536  46.114  51.529  1.00  0.00    -0.195 NA
ATOM      3  C   UNL     1       4.376  45.434  51.736  1.00  0.00     0.147 A 
ATOM      4  C   UNL     1       4.356  44.092  51.340  1.00  0.00     0.082 A 
ATOM      5  C   UNL     1       3.452  43.009  51.336  1.00  0.00     0.149 A 
ATOM      6  N   UNL     1       3.976  41.893  50.815  1.00  0.00    -0.179 NA
ATOM      7  N   UNL     1       5.230  42.273  50.474  1.00  0.00    -0.250 N 
ATOM      8  C   UNL     1       6.118  41.319  49.859  1.00  0.00     0.176 C 
ATOM      9  C   UNL     1       5.507  43.579  50.775  1.00  0.00     0.165 A 
ATOM     10  N   UNL     1       6.657  44.236  50.567  1.00  0.00    -0.193 NA
ENDROOT
BRANCH   1  11
ATOM     11  N   UNL     1       7.776  46.234  50.770  1.00  0.00    -0.354 N 
ATOM     12  H   UNL     1       8.460  45.557  50.451  1.00  0.00     0.163 HD
BRANCH  11  13
ATOM     13  C   UNL     1       8.182  47.041  51.909  1.00  0.00     0.116 C 
BRANCH  13  14
ATOM     14  C   UNL     1       9.662  46.781  52.204  1.00  0.00     0.021 C 
BRANCH  14  15
ATOM     15  C   UNL     1       9.992  46.781  53.697  1.00  0.00    -0.002 C 
ATOM     16  C   UNL     1       9.181  47.787  54.499  1.00  0.00     0.004 C 
ENDBRANCH  14  15
ENDBRANCH  13  14
ENDBRANCH  11  13
ENDBRANCH   1  11
BRANCH   3  17
ATOM     17  N   UNL     1       3.261  46.030  52.328  1.00  0.00    -0.336 N 
ATOM     18  H   UNL     1       2.909  46.862  51.865  1.00  0.00     0.168 HD
BRANCH  17  19
ATOM     19  C   UNL     1       2.472  45.709  53.446  1.00  0.00     0.082 A 
ATOM     20  C   UNL     1       2.924  45.731  54.766  1.00  0.00     0.030 A 
ATOM     21  C   UNL     1       1.132  45.335  53.221  1.00  0.00     0.139 A 
ATOM     22  C   UNL     1       2.073  45.389  55.823  1.00  0.00     0.002 A 
ATOM     23  C   UNL     1       0.274  44.992  54.266  1.00  0.00     0.048 A 
ATOM     24  C   UNL     1       0.752  45.019  55.574  1.00  0.00     0.004 A 
BRANCH  21  25
ATOM     25  O   UNL     1       0.683  45.319  51.922  1.00  0.00    -0.506 OA
ATOM     26  H   UNL     1       1.273  45.883  51.394  1.00  0.00     0.293 HD
ENDBRANCH  21  25
ENDBRANCH  17  19
ENDBRANCH   3  17
TORSDOF 7
ENDMDL
