MODEL 1
REMARK VINA RESULT:    -8.713      0.000      0.000
REMARK INTER + INTRA:         -12.806
REMARK INTER:                 -11.769
REMARK INTRA:                  -1.037
REMARK UNBOUND:                -1.037
REMARK SMILES Clc1ccc(Nc2nc(NCC[NH+]3CCOCC3)nc3nccnc23)cc1
REMARK SMILES IDX 10 1 11 3 12 4 13 5 14 6 18 7 15 8 17 9 16 10 9 12 8 13
REMARK SMILES IDX 19 14 7 15 20 16 25 17 21 18 24 19 22 20 23 21 6 22 5 24
REMARK SMILES IDX 4 25 26 26 3 27 27 28 2 29 1 30
REMARK H PARENT 10 2 13 11 6 23
ROOT
ATOM      1  N   UNL     1       4.361  44.923  55.705  1.00  0.00    -0.348 N 
ATOM      2  H   UNL     1       4.858  44.973  56.596  1.00  0.00     0.163 HD
ENDROOT
BRANCH   1   3
ATOM      3  C   UNL     1       3.136  45.712  55.664  1.00  0.00     0.177 C 
BRANCH   3   4
ATOM      4  C   UNL     1       1.887  44.927  55.213  1.00  0.00     0.283 C 
BRANCH   4   5
ATOM      5  N   UNL     1       1.914  44.369  53.799  1.00  0.00    -0.330 N 
ATOM      6  C   UNL     1       1.640  45.352  52.677  1.00  0.00     0.291 C 
ATOM      7  C   UNL     1       1.262  43.004  53.592  1.00  0.00     0.291 C 
ATOM      8  C   UNL     1       0.200  45.270  52.172  1.00  0.00     0.221 C 
ATOM      9  C   UNL     1      -0.112  43.065  52.916  1.00  0.00     0.221 C 
ATOM     10  O   UNL     1      -0.107  43.932  51.778  1.00  0.00    -0.370 OA
ATOM     11  H   UNL     1       2.912  44.150  53.687  1.00  0.00     0.348 HD
ENDBRANCH   4   5
ENDBRANCH   3   4
ENDBRANCH   1   3
BRANCH   1  12
ATOM     12  C   UNL     1       5.328  45.293  54.774  1.00  0.00     0.227 A 
ATOM     13  N   UNL     1       5.216  44.739  53.577  1.00  0.00    -0.193 NA
ATOM     14  N   UNL     1       6.257  46.179  55.107  1.00  0.00    -0.191 NA
ATOM     15  C   UNL     1       6.123  45.081  52.636  1.00  0.00     0.164 A 
ATOM     16  C   UNL     1       7.146  46.517  54.181  1.00  0.00     0.185 A 
ATOM     17  C   UNL     1       7.147  45.991  52.882  1.00  0.00     0.150 A 
ATOM     18  N   UNL     1       8.077  47.405  54.542  1.00  0.00    -0.233 NA
ATOM     19  N   UNL     1       8.085  46.339  51.950  1.00  0.00    -0.247 NA
ATOM     20  C   UNL     1       9.003  47.758  53.618  1.00  0.00     0.133 A 
ATOM     21  C   UNL     1       9.010  47.235  52.344  1.00  0.00     0.132 A 
BRANCH  15  22
ATOM     22  N   UNL     1       6.039  44.547  51.322  1.00  0.00    -0.338 N 
ATOM     23  H   UNL     1       6.798  44.906  50.745  1.00  0.00     0.168 HD
BRANCH  22  24
ATOM     24  C   UNL     1       5.392  43.414  50.803  1.00  0.00     0.040 A 
ATOM     25  C   UNL     1       4.100  43.022  51.171  1.00  0.00     0.027 A 
ATOM     26  C   UNL     1       6.053  42.653  49.823  1.00  0.00     0.027 A 
ATOM     27  C   UNL     1       3.496  41.892  50.604  1.00  0.00     0.022 A 
ATOM     28  C   UNL     1       5.457  41.523  49.255  1.00  0.00     0.022 A 
ATOM     29  C   UNL     1       4.180  41.145  49.651  1.00  0.00     0.041 A 
ATOM     30  Cl  UNL     1       3.437  39.758  48.957  1.00  0.00    -0.084 Cl
ENDBRANCH  22  24
ENDBRANCH  15  22
ENDBRANCH   1  12
TORSDOF 6
ENDMDL
MODEL 2
REMARK VINA RESULT:    -8.584      2.890      5.397
REMARK INTER + INTRA:         -12.632
REMARK INTER:                 -11.790
REMARK INTRA:                  -0.842
REMARK UNBOUND:                -1.037
REMARK SMILES Clc1ccc(Nc2nc(NCC[NH+]3CCOCC3)nc3nccnc23)cc1
REMARK SMILES IDX 10 1 11 3 12 4 13 5 14 6 18 7 15 8 17 9 16 10 9 12 8 13
REMARK SMILES IDX 19 14 7 15 20 16 25 17 21 18 24 19 22 20 23 21 6 22 5 24
REMARK SMILES IDX 4 25 26 26 3 27 27 28 2 29 1 30
REMARK H PARENT 10 2 13 11 6 23
ROOT
ATOM      1  N   UNL     1       2.896  43.831  53.738  1.00  0.00    -0.348 N 
ATOM      2  H   UNL     1       3.370  43.377  54.521  1.00  0.00     0.163 HD
ENDROOT
BRANCH   1   3
ATOM      3  C   UNL     1       2.416  45.175  54.033  1.00  0.00     0.177 C 
BRANCH   3   4
ATOM      4  C   UNL     1       1.008  45.225  54.660  1.00  0.00     0.283 C 
BRANCH   4   5
ATOM      5  N   UNL     1      -0.155  44.898  53.737  1.00  0.00    -0.330 N 
ATOM      6  C   UNL     1      -0.800  43.537  53.915  1.00  0.00     0.291 C 
ATOM      7  C   UNL     1      -0.007  45.321  52.278  1.00  0.00     0.291 C 
ATOM      8  C   UNL     1      -0.313  42.524  52.880  1.00  0.00     0.221 C 
ATOM      9  C   UNL     1       0.315  44.166  51.323  1.00  0.00     0.221 C 
ATOM     10  O   UNL     1      -0.522  43.031  51.561  1.00  0.00    -0.370 OA
ATOM     11  H   UNL     1      -0.873  45.549  54.078  1.00  0.00     0.348 HD
ENDBRANCH   4   5
ENDBRANCH   3   4
ENDBRANCH   1   3
BRANCH   1  12
ATOM     12  C   UNL     1       3.831  43.756  52.709  1.00  0.00     0.227 A 
ATOM     13  N   UNL     1       4.698  44.756  52.643  1.00  0.00    -0.193 NA
ATOM     14  N   UNL     1       3.835  42.707  51.897  1.00  0.00    -0.191 NA
ATOM     15  C   UNL     1       5.634  44.717  51.671  1.00  0.00     0.164 A 
ATOM     16  C   UNL     1       4.758  42.668  50.943  1.00  0.00     0.185 A 
ATOM     17  C   UNL     1       5.720  43.669  50.758  1.00  0.00     0.150 A 
ATOM     18  N   UNL     1       4.736  41.606  50.134  1.00  0.00    -0.233 NA
ATOM     19  N   UNL     1       6.649  43.619  49.756  1.00  0.00    -0.247 NA
ATOM     20  C   UNL     1       5.660  41.548  49.144  1.00  0.00     0.133 A 
ATOM     21  C   UNL     1       6.601  42.536  48.956  1.00  0.00     0.132 A 
BRANCH  15  22
ATOM     22  N   UNL     1       6.612  45.742  51.568  1.00  0.00    -0.338 N 
ATOM     23  H   UNL     1       6.350  46.411  50.844  1.00  0.00     0.168 HD
BRANCH  22  24
ATOM     24  C   UNL     1       7.602  46.196  52.454  1.00  0.00     0.040 A 
ATOM     25  C   UNL     1       8.964  46.246  52.135  1.00  0.00     0.027 A 
ATOM     26  C   UNL     1       7.207  46.673  53.716  1.00  0.00     0.027 A 
ATOM     27  C   UNL     1       9.906  46.727  53.054  1.00  0.00     0.022 A 
ATOM     28  C   UNL     1       8.142  47.153  54.638  1.00  0.00     0.022 A 
ATOM     29  C   UNL     1       9.491  47.175  54.303  1.00  0.00     0.041 A 
ATOM     30  Cl  UNL     1      10.648  47.765  55.429  1.00  0.00    -0.084 Cl
ENDBRANCH  22  24
ENDBRANCH  15  22
ENDBRANCH   1  12
TORSDOF 6
ENDMDL
MODEL 3
REMARK VINA RESULT:    -8.532      0.959      1.328
REMARK INTER + INTRA:         -12.561
REMARK INTER:                 -12.045
REMARK INTRA:                  -0.516
REMARK UNBOUND:                -1.037
REMARK SMILES Clc1ccc(Nc2nc(NCC[NH+]3CCOCC3)nc3nccnc23)cc1
REMARK SMILES IDX 10 1 11 3 12 4 13 5 14 6 18 7 15 8 17 9 16 10 9 12 8 13
REMARK SMILES IDX 19 14 7 15 20 16 25 17 21 18 24 19 22 20 23 21 6 22 5 24
REMARK SMILES IDX 4 25 26 26 3 27 27 28 2 29 1 30
REMARK H PARENT 10 2 13 11 6 23
ROOT
ATOM      1  N   UNL     1       4.036  46.679  55.077  1.00  0.00    -0.348 N 
ATOM      2  H   UNL     1       3.754  47.634  54.851  1.00  0.00     0.163 HD
ENDROOT
BRANCH   1   3
ATOM      3  C   UNL     1       3.039  45.670  54.740  1.00  0.00     0.177 C 
BRANCH   3   4
ATOM      4  C   UNL     1       2.026  46.112  53.664  1.00  0.00     0.283 C 
BRANCH   4   5
ATOM      5  N   UNL     1       0.737  45.310  53.580  1.00  0.00    -0.330 N 
ATOM      6  C   UNL     1       0.702  43.999  54.341  1.00  0.00     0.291 C 
ATOM      7  C   UNL     1       0.063  45.244  52.212  1.00  0.00     0.291 C 
ATOM      8  C   UNL     1       0.950  42.795  53.434  1.00  0.00     0.221 C 
ATOM      9  C   UNL     1       0.253  43.908  51.487  1.00  0.00     0.221 C 
ATOM     10  O   UNL     1       0.016  42.794  52.353  1.00  0.00    -0.370 OA
ATOM     11  H   UNL     1       0.092  45.911  54.109  1.00  0.00     0.348 HD
ENDBRANCH   4   5
ENDBRANCH   3   4
ENDBRANCH   1   3
BRANCH   1  12
ATOM     12  C   UNL     1       5.256  46.540  54.420  1.00  0.00     0.227 A 
ATOM     13  N   UNL     1       5.234  45.811  53.314  1.00  0.00    -0.193 NA
ATOM     14  N   UNL     1       6.333  47.151  54.893  1.00  0.00    -0.191 NA
ATOM     15  C   UNL     1       6.391  45.662  52.634  1.00  0.00     0.164 A 
ATOM     16  C   UNL     1       7.470  47.006  54.222  1.00  0.00     0.185 A 
ATOM     17  C   UNL     1       7.583  46.250  53.048  1.00  0.00     0.150 A 
ATOM     18  N   UNL     1       8.542  47.626  54.723  1.00  0.00    -0.233 NA
ATOM     19  N   UNL     1       8.768  46.098  52.384  1.00  0.00    -0.247 NA
ATOM     20  C   UNL     1       9.717  47.484  54.063  1.00  0.00     0.133 A 
ATOM     21  C   UNL     1       9.831  46.733  52.914  1.00  0.00     0.132 A 
BRANCH  15  22
ATOM     22  N   UNL     1       6.427  44.920  51.422  1.00  0.00    -0.338 N 
ATOM     23  H   UNL     1       7.306  45.083  50.933  1.00  0.00     0.168 HD
BRANCH  22  24
ATOM     24  C   UNL     1       5.710  43.796  50.981  1.00  0.00     0.040 A 
ATOM     25  C   UNL     1       4.447  43.442  51.469  1.00  0.00     0.027 A 
ATOM     26  C   UNL     1       6.263  43.006  49.959  1.00  0.00     0.027 A 
ATOM     27  C   UNL     1       3.768  42.320  50.977  1.00  0.00     0.022 A 
ATOM     28  C   UNL     1       5.592  41.883  49.464  1.00  0.00     0.022 A 
ATOM     29  C   UNL     1       4.346  41.543  49.979  1.00  0.00     0.041 A 
ATOM     30  Cl  UNL     1       3.513  40.165  49.376  1.00  0.00    -0.084 Cl
ENDBRANCH  22  24
ENDBRANCH  15  22
ENDBRANCH   1  12
TORSDOF 6
ENDMDL
MODEL 4
REMARK VINA RESULT:    -8.524      1.591      2.022
REMARK INTER + INTRA:         -12.550
REMARK INTER:                 -11.652
REMARK INTRA:                  -0.898
REMARK UNBOUND:                -1.037
REMARK SMILES Clc1ccc(Nc2nc(NCC[NH+]3CCOCC3)nc3nccnc23)cc1
REMARK SMILES IDX 10 1 11 3 12 4 13 5 14 6 18 7 15 8 17 9 16 10 9 12 8 13
REMARK SMILES IDX 19 14 7 15 20 16 25 17 21 18 24 19 22 20 23 21 6 22 5 24
REMARK SMILES IDX 4 25 26 26 3 27 27 28 2 29 1 30
REMARK H PARENT 10 2 13 11 6 23
ROOT
ATOM      1  N   UNL     1       4.038  47.396  53.856  1.00  0.00    -0.348 N 
ATOM      2  H   UNL     1       4.095  48.279  54.368  1.00  0.00     0.163 HD
ENDROOT
BRANCH   1   3
ATOM      3  C   UNL     1       3.170  47.445  52.686  1.00  0.00     0.177 C 
BRANCH   3   4
ATOM      4  C   UNL     1       2.025  46.411  52.699  1.00  0.00     0.283 C 
BRANCH   4   5
ATOM      5  N   UNL     1       2.388  44.996  52.277  1.00  0.00    -0.330 N 
ATOM      6  C   UNL     1       1.749  44.485  51.000  1.00  0.00     0.291 C 
ATOM      7  C   UNL     1       2.462  43.951  53.387  1.00  0.00     0.291 C 
ATOM      8  C   UNL     1       0.545  43.585  51.272  1.00  0.00     0.221 C 
ATOM      9  C   UNL     1       1.259  43.003  53.433  1.00  0.00     0.221 C 
ATOM     10  O   UNL     1       0.921  42.509  52.133  1.00  0.00    -0.370 OA
ATOM     11  H   UNL     1       3.377  45.109  52.021  1.00  0.00     0.348 HD
ENDBRANCH   4   5
ENDBRANCH   3   4
ENDBRANCH   1   3
BRANCH   1  12
ATOM     12  C   UNL     1       5.369  47.092  53.586  1.00  0.00     0.227 A 
ATOM     13  N   UNL     1       5.589  46.399  52.479  1.00  0.00    -0.193 NA
ATOM     14  N   UNL     1       6.322  47.527  54.399  1.00  0.00    -0.191 NA
ATOM     15  C   UNL     1       6.867  46.095  52.168  1.00  0.00     0.164 A 
ATOM     16  C   UNL     1       7.579  47.230  54.091  1.00  0.00     0.185 A 
ATOM     17  C   UNL     1       7.943  46.491  52.958  1.00  0.00     0.150 A 
ATOM     18  N   UNL     1       8.520  47.673  54.930  1.00  0.00    -0.233 NA
ATOM     19  N   UNL     1       9.243  46.180  52.670  1.00  0.00    -0.247 NA
ATOM     20  C   UNL     1       9.811  47.373  54.643  1.00  0.00     0.133 A 
ATOM     21  C   UNL     1      10.168  46.639  53.534  1.00  0.00     0.132 A 
BRANCH  15  22
ATOM     22  N   UNL     1       7.171  45.383  50.977  1.00  0.00    -0.338 N 
ATOM     23  H   UNL     1       8.125  45.583  50.678  1.00  0.00     0.168 HD
BRANCH  22  24
ATOM     24  C   UNL     1       6.596  44.248  50.382  1.00  0.00     0.040 A 
ATOM     25  C   UNL     1       7.114  43.624  49.242  1.00  0.00     0.027 A 
ATOM     26  C   UNL     1       5.466  43.672  50.988  1.00  0.00     0.027 A 
ATOM     27  C   UNL     1       6.509  42.481  48.703  1.00  0.00     0.022 A 
ATOM     28  C   UNL     1       4.856  42.532  50.454  1.00  0.00     0.022 A 
ATOM     29  C   UNL     1       5.380  41.942  49.310  1.00  0.00     0.041 A 
ATOM     30  Cl  UNL     1       4.638  40.540  48.648  1.00  0.00    -0.084 Cl
ENDBRANCH  22  24
ENDBRANCH  15  22
ENDBRANCH   1  12
TORSDOF 6
ENDMDL
MODEL 5
REMARK VINA RESULT:    -8.464      2.960      5.460
REMARK INTER + INTRA:         -12.470
REMARK INTER:                 -11.593
REMARK INTRA:                  -0.877
REMARK UNBOUND:                -1.037
REMARK SMILES Clc1ccc(Nc2nc(NCC[NH+]3CCOCC3)nc3nccnc23)cc1
REMARK SMILES IDX 10 1 11 3 12 4 13 5 14 6 18 7 15 8 17 9 16 10 9 12 8 13
REMARK SMILES IDX 19 14 7 15 20 16 25 17 21 18 24 19 22 20 23 21 6 22 5 24
REMARK SMILES IDX 4 25 26 26 3 27 27 28 2 29 1 30
REMARK H PARENT 10 2 13 11 6 23
ROOT
ATOM      1  N   UNL     1       2.503  42.298  53.086  1.00  0.00    -0.348 N 
ATOM      2  H   UNL     1       2.816  42.752  53.946  1.00  0.00     0.163 HD
ENDROOT
BRANCH   1   3
ATOM      3  C   UNL     1       1.149  42.658  52.683  1.00  0.00     0.177 C 
BRANCH   3   4
ATOM      4  C   UNL     1       0.296  43.282  53.807  1.00  0.00     0.283 C 
BRANCH   4   5
ATOM      5  N   UNL     1       0.368  44.794  53.949  1.00  0.00    -0.330 N 
ATOM      6  C   UNL     1       0.359  45.598  52.664  1.00  0.00     0.291 C 
ATOM      7  C   UNL     1       1.331  45.334  55.004  1.00  0.00     0.291 C 
ATOM      8  C   UNL     1       1.758  46.047  52.249  1.00  0.00     0.221 C 
ATOM      9  C   UNL     1       2.628  45.913  54.427  1.00  0.00     0.221 C 
ATOM     10  O   UNL     1       2.376  46.774  53.312  1.00  0.00    -0.370 OA
ATOM     11  H   UNL     1      -0.547  45.001  54.368  1.00  0.00     0.348 HD
ENDBRANCH   4   5
ENDBRANCH   3   4
ENDBRANCH   1   3
BRANCH   1  12
ATOM     12  C   UNL     1       3.496  42.629  52.167  1.00  0.00     0.227 A 
ATOM     13  N   UNL     1       4.004  43.847  52.283  1.00  0.00    -0.193 NA
ATOM     14  N   UNL     1       3.897  41.731  51.278  1.00  0.00    -0.191 NA
ATOM     15  C   UNL     1       4.981  44.207  51.424  1.00  0.00     0.164 A 
ATOM     16  C   UNL     1       4.860  42.085  50.435  1.00  0.00     0.185 A 
ATOM     17  C   UNL     1       5.468  43.347  50.443  1.00  0.00     0.150 A 
ATOM     18  N   UNL     1       5.241  41.167  49.543  1.00  0.00    -0.233 NA
ATOM     19  N   UNL     1       6.445  43.698  49.553  1.00  0.00    -0.247 NA
ATOM     20  C   UNL     1       6.214  41.508  48.664  1.00  0.00     0.133 A 
ATOM     21  C   UNL     1       6.807  42.751  48.666  1.00  0.00     0.132 A 
BRANCH  15  22
ATOM     22  N   UNL     1       5.591  45.487  51.517  1.00  0.00    -0.338 N 
ATOM     23  H   UNL     1       4.954  46.209  51.181  1.00  0.00     0.168 HD
BRANCH  22  24
ATOM     24  C   UNL     1       6.671  45.966  52.277  1.00  0.00     0.040 A 
ATOM     25  C   UNL     1       7.947  46.193  51.751  1.00  0.00     0.027 A 
ATOM     26  C   UNL     1       6.453  46.283  53.629  1.00  0.00     0.027 A 
ATOM     27  C   UNL     1       8.983  46.692  52.552  1.00  0.00     0.022 A 
ATOM     28  C   UNL     1       7.483  46.779  54.435  1.00  0.00     0.022 A 
ATOM     29  C   UNL     1       8.746  46.978  53.892  1.00  0.00     0.041 A 
ATOM     30  Cl  UNL     1      10.018  47.589  54.874  1.00  0.00    -0.084 Cl
ENDBRANCH  22  24
ENDBRANCH  15  22
ENDBRANCH   1  12
TORSDOF 6
ENDMDL
MODEL 6
REMARK VINA RESULT:    -8.422      3.107      5.559
REMARK INTER + INTRA:         -12.414
REMARK INTER:                 -11.616
REMARK INTRA:                  -0.798
REMARK UNBOUND:                -1.037
REMARK SMILES Clc1ccc(Nc2nc(NCC[NH+]3CCOCC3)nc3nccnc23)cc1
REMARK SMILES IDX 10 1 11 3 12 4 13 5 14 6 18 7 15 8 17 9 16 10 9 12 8 13
REMARK SMILES IDX 19 14 7 15 20 16 25 17 21 18 24 19 22 20 23 21 6 22 5 24
REMARK SMILES IDX 4 25 26 26 3 27 27 28 2 29 1 30
REMARK H PARENT 10 2 13 11 6 23
ROOT
ATOM      1  N   UNL     1       2.044  42.599  53.098  1.00  0.00    -0.348 N 
ATOM      2  H   UNL     1       2.412  42.800  54.030  1.00  0.00     0.163 HD
ENDROOT
BRANCH   1   3
ATOM      3  C   UNL     1       0.821  43.323  52.775  1.00  0.00     0.177 C 
BRANCH   3   4
ATOM      4  C   UNL     1      -0.060  43.661  53.994  1.00  0.00     0.283 C 
BRANCH   4   5
ATOM      5  N   UNL     1       0.125  45.043  54.600  1.00  0.00    -0.330 N 
ATOM      6  C   UNL     1       1.486  45.685  54.421  1.00  0.00     0.291 C 
ATOM      7  C   UNL     1      -0.484  45.268  55.982  1.00  0.00     0.291 C 
ATOM      8  C   UNL     1       2.362  45.545  55.665  1.00  0.00     0.221 C 
ATOM      9  C   UNL     1       0.541  45.273  57.122  1.00  0.00     0.221 C 
ATOM     10  O   UNL     1       1.684  46.072  56.806  1.00  0.00    -0.370 OA
ATOM     11  H   UNL     1      -0.488  45.610  54.000  1.00  0.00     0.348 HD
ENDBRANCH   4   5
ENDBRANCH   3   4
ENDBRANCH   1   3
BRANCH   1  12
ATOM     12  C   UNL     1       3.124  42.868  52.261  1.00  0.00     0.227 A 
ATOM     13  N   UNL     1       3.623  44.092  52.339  1.00  0.00    -0.193 NA
ATOM     14  N   UNL     1       3.608  41.910  51.482  1.00  0.00    -0.191 NA
ATOM     15  C   UNL     1       4.681  44.394  51.557  1.00  0.00     0.164 A 
ATOM     16  C   UNL     1       4.650  42.206  50.715  1.00  0.00     0.185 A 
ATOM     17  C   UNL     1       5.260  43.468  50.693  1.00  0.00     0.150 A 
ATOM     18  N   UNL     1       5.114  41.227  49.933  1.00  0.00    -0.233 NA
ATOM     19  N   UNL     1       6.321  43.757  49.881  1.00  0.00    -0.247 NA
ATOM     20  C   UNL     1       6.171  41.508  49.132  1.00  0.00     0.133 A 
ATOM     21  C   UNL     1       6.765  42.750  49.104  1.00  0.00     0.132 A 
BRANCH  15  22
ATOM     22  N   UNL     1       5.283  45.679  51.618  1.00  0.00    -0.338 N 
ATOM     23  H   UNL     1       4.630  46.392  51.297  1.00  0.00     0.168 HD
BRANCH  22  24
ATOM     24  C   UNL     1       6.384  46.173  52.337  1.00  0.00     0.040 A 
ATOM     25  C   UNL     1       7.576  46.594  51.736  1.00  0.00     0.027 A 
ATOM     26  C   UNL     1       6.272  46.301  53.732  1.00  0.00     0.027 A 
ATOM     27  C   UNL     1       8.635  47.098  52.503  1.00  0.00     0.022 A 
ATOM     28  C   UNL     1       7.326  46.802  54.503  1.00  0.00     0.022 A 
ATOM     29  C   UNL     1       8.506  47.195  53.884  1.00  0.00     0.041 A 
ATOM     30  Cl  UNL     1       9.807  47.813  54.823  1.00  0.00    -0.084 Cl
ENDBRANCH  22  24
ENDBRANCH  15  22
ENDBRANCH   1  12
TORSDOF 6
ENDMDL
MODEL 7
REMARK VINA RESULT:    -8.419      2.954      5.320
REMARK INTER + INTRA:         -12.409
REMARK INTER:                 -11.613
REMARK INTRA:                  -0.796
REMARK UNBOUND:                -1.037
REMARK SMILES Clc1ccc(Nc2nc(NCC[NH+]3CCOCC3)nc3nccnc23)cc1
REMARK SMILES IDX 10 1 11 3 12 4 13 5 14 6 18 7 15 8 17 9 16 10 9 12 8 13
REMARK SMILES IDX 19 14 7 15 20 16 25 17 21 18 24 19 22 20 23 21 6 22 5 24
REMARK SMILES IDX 4 25 26 26 3 27 27 28 2 29 1 30
REMARK H PARENT 10 2 13 11 6 23
ROOT
ATOM      1  N   UNL     1       2.601  43.758  53.472  1.00  0.00    -0.348 N 
ATOM      2  H   UNL     1       3.011  43.278  54.275  1.00  0.00     0.163 HD
ENDROOT
BRANCH   1   3
ATOM      3  C   UNL     1       2.103  45.095  53.771  1.00  0.00     0.177 C 
BRANCH   3   4
ATOM      4  C   UNL     1       1.240  45.718  52.655  1.00  0.00     0.283 C 
BRANCH   4   5
ATOM      5  N   UNL     1      -0.178  45.187  52.521  1.00  0.00    -0.330 N 
ATOM      6  C   UNL     1      -0.926  44.917  53.812  1.00  0.00     0.291 C 
ATOM      7  C   UNL     1      -0.413  44.131  51.444  1.00  0.00     0.291 C 
ATOM      8  C   UNL     1      -0.917  43.437  54.190  1.00  0.00     0.221 C 
ATOM      9  C   UNL     1      -0.555  42.706  51.988  1.00  0.00     0.221 C 
ATOM     10  O   UNL     1      -1.435  42.652  53.115  1.00  0.00    -0.370 OA
ATOM     11  H   UNL     1      -0.663  46.004  52.130  1.00  0.00     0.348 HD
ENDBRANCH   4   5
ENDBRANCH   3   4
ENDBRANCH   1   3
BRANCH   1  12
ATOM     12  C   UNL     1       3.611  43.709  52.516  1.00  0.00     0.227 A 
ATOM     13  N   UNL     1       4.434  44.747  52.494  1.00  0.00    -0.193 NA
ATOM     14  N   UNL     1       3.722  42.649  51.727  1.00  0.00    -0.191 NA
ATOM     15  C   UNL     1       5.440  44.736  51.594  1.00  0.00     0.164 A 
ATOM     16  C   UNL     1       4.713  42.637  50.844  1.00  0.00     0.185 A 
ATOM     17  C   UNL     1       5.640  43.679  50.710  1.00  0.00     0.150 A 
ATOM     18  N   UNL     1       4.799  41.562  50.056  1.00  0.00    -0.233 NA
ATOM     19  N   UNL     1       6.643  43.655  49.780  1.00  0.00    -0.247 NA
ATOM     20  C   UNL     1       5.795  41.531  49.138  1.00  0.00     0.133 A 
ATOM     21  C   UNL     1       6.702  42.559  48.999  1.00  0.00     0.132 A 
BRANCH  15  22
ATOM     22  N   UNL     1       6.376  45.804  51.542  1.00  0.00    -0.338 N 
ATOM     23  H   UNL     1       6.090  46.492  50.847  1.00  0.00     0.168 HD
BRANCH  22  24
ATOM     24  C   UNL     1       7.343  46.256  52.454  1.00  0.00     0.040 A 
ATOM     25  C   UNL     1       7.034  46.790  53.710  1.00  0.00     0.027 A 
ATOM     26  C   UNL     1       8.701  46.126  52.113  1.00  0.00     0.027 A 
ATOM     27  C   UNL     1       8.043  47.208  54.588  1.00  0.00     0.022 A 
ATOM     28  C   UNL     1       9.713  46.542  52.984  1.00  0.00     0.022 A 
ATOM     29  C   UNL     1       9.378  47.085  54.219  1.00  0.00     0.041 A 
ATOM     30  Cl  UNL     1      10.615  47.599  55.297  1.00  0.00    -0.084 Cl
ENDBRANCH  22  24
ENDBRANCH  15  22
ENDBRANCH   1  12
TORSDOF 6
ENDMDL
MODEL 8
REMARK VINA RESULT:    -8.388      3.311      5.724
REMARK INTER + INTRA:         -12.368
REMARK INTER:                 -11.655
REMARK INTRA:                  -0.713
REMARK UNBOUND:                -1.037
REMARK SMILES Clc1ccc(Nc2nc(NCC[NH+]3CCOCC3)nc3nccnc23)cc1
REMARK SMILES IDX 10 1 11 3 12 4 13 5 14 6 18 7 15 8 17 9 16 10 9 12 8 13
REMARK SMILES IDX 19 14 7 15 20 16 25 17 21 18 24 19 22 20 23 21 6 22 5 24
REMARK SMILES IDX 4 25 26 26 3 27 27 28 2 29 1 30
REMARK H PARENT 10 2 13 11 6 23
ROOT
ATOM      1  N   UNL     1       1.775  43.406  53.554  1.00  0.00    -0.348 N 
ATOM      2  H   UNL     1       1.935  42.568  54.117  1.00  0.00     0.163 HD
ENDROOT
BRANCH   1   3
ATOM      3  C   UNL     1       1.604  44.622  54.339  1.00  0.00     0.177 C 
BRANCH   3   4
ATOM      4  C   UNL     1       0.140  44.947  54.699  1.00  0.00     0.283 C 
BRANCH   4   5
ATOM      5  N   UNL     1      -0.224  44.879  56.174  1.00  0.00    -0.330 N 
ATOM      6  C   UNL     1      -1.515  45.560  56.586  1.00  0.00     0.291 C 
ATOM      7  C   UNL     1       0.918  45.076  57.168  1.00  0.00     0.291 C 
ATOM      8  C   UNL     1      -1.275  46.939  57.198  1.00  0.00     0.221 C 
ATOM      9  C   UNL     1       0.933  46.455  57.836  1.00  0.00     0.221 C 
ATOM     10  O   UNL     1      -0.366  46.838  58.295  1.00  0.00    -0.370 OA
ATOM     11  H   UNL     1      -0.435  43.880  56.284  1.00  0.00     0.348 HD
ENDBRANCH   4   5
ENDBRANCH   3   4
ENDBRANCH   1   3
BRANCH   1  12
ATOM     12  C   UNL     1       2.859  43.419  52.681  1.00  0.00     0.227 A 
ATOM     13  N   UNL     1       3.534  44.557  52.618  1.00  0.00    -0.193 NA
ATOM     14  N   UNL     1       3.177  42.321  52.009  1.00  0.00    -0.191 NA
ATOM     15  C   UNL     1       4.603  44.612  51.796  1.00  0.00     0.164 A 
ATOM     16  C   UNL     1       4.231  42.375  51.203  1.00  0.00     0.185 A 
ATOM     17  C   UNL     1       5.017  43.522  51.035  1.00  0.00     0.150 A 
ATOM     18  N   UNL     1       4.526  41.259  50.530  1.00  0.00    -0.233 NA
ATOM     19  N   UNL     1       6.088  43.561  50.184  1.00  0.00    -0.247 NA
ATOM     20  C   UNL     1       5.591  41.291  49.693  1.00  0.00     0.133 A 
ATOM     21  C   UNL     1       6.359  42.421  49.520  1.00  0.00     0.132 A 
BRANCH  15  22
ATOM     22  N   UNL     1       5.388  45.793  51.707  1.00  0.00    -0.338 N 
ATOM     23  H   UNL     1       4.839  46.554  51.309  1.00  0.00     0.168 HD
BRANCH  22  24
ATOM     24  C   UNL     1       6.564  46.197  52.359  1.00  0.00     0.040 A 
ATOM     25  C   UNL     1       7.775  46.433  51.698  1.00  0.00     0.027 A 
ATOM     26  C   UNL     1       6.519  46.425  53.745  1.00  0.00     0.027 A 
ATOM     27  C   UNL     1       8.913  46.854  52.399  1.00  0.00     0.022 A 
ATOM     28  C   UNL     1       7.652  46.844  54.451  1.00  0.00     0.022 A 
ATOM     29  C   UNL     1       8.847  47.053  53.774  1.00  0.00     0.041 A 
ATOM     30  Cl  UNL     1      10.244  47.570  54.632  1.00  0.00    -0.084 Cl
ENDBRANCH  22  24
ENDBRANCH  15  22
ENDBRANCH   1  12
TORSDOF 6
ENDMDL
MODEL 9
REMARK VINA RESULT:    -8.357      3.177      5.514
REMARK INTER + INTRA:         -12.326
REMARK INTER:                 -11.599
REMARK INTRA:                  -0.727
REMARK UNBOUND:                -1.037
REMARK SMILES Clc1ccc(Nc2nc(NCC[NH+]3CCOCC3)nc3nccnc23)cc1
REMARK SMILES IDX 10 1 11 3 12 4 13 5 14 6 18 7 15 8 17 9 16 10 9 12 8 13
REMARK SMILES IDX 19 14 7 15 20 16 25 17 21 18 24 19 22 20 23 21 6 22 5 24
REMARK SMILES IDX 4 25 26 26 3 27 27 28 2 29 1 30
REMARK H PARENT 10 2 13 11 6 23
ROOT
ATOM      1  N   UNL     1       2.054  42.634  53.159  1.00  0.00    -0.348 N 
ATOM      2  H   UNL     1       2.363  41.831  53.711  1.00  0.00     0.163 HD
ENDROOT
BRANCH   1   3
ATOM      3  C   UNL     1       1.637  43.778  53.960  1.00  0.00     0.177 C 
BRANCH   3   4
ATOM      4  C   UNL     1       0.179  44.222  53.724  1.00  0.00     0.283 C 
BRANCH   4   5
ATOM      5  N   UNL     1      -0.395  45.217  54.720  1.00  0.00    -0.330 N 
ATOM      6  C   UNL     1       0.547  45.716  55.799  1.00  0.00     0.291 C 
ATOM      7  C   UNL     1      -1.810  44.942  55.221  1.00  0.00     0.291 C 
ATOM      8  C   UNL     1       0.344  44.992  57.128  1.00  0.00     0.221 C 
ATOM      9  C   UNL     1      -1.869  44.374  56.643  1.00  0.00     0.221 C 
ATOM     10  O   UNL     1      -1.020  45.095  57.540  1.00  0.00    -0.370 OA
ATOM     11  H   UNL     1      -0.534  46.043  54.124  1.00  0.00     0.348 HD
ENDBRANCH   4   5
ENDBRANCH   3   4
ENDBRANCH   1   3
BRANCH   1  12
ATOM     12  C   UNL     1       3.130  42.874  52.310  1.00  0.00     0.227 A 
ATOM     13  N   UNL     1       3.659  44.086  52.380  1.00  0.00    -0.193 NA
ATOM     14  N   UNL     1       3.582  41.903  51.528  1.00  0.00    -0.191 NA
ATOM     15  C   UNL     1       4.716  44.360  51.585  1.00  0.00     0.164 A 
ATOM     16  C   UNL     1       4.623  42.172  50.749  1.00  0.00     0.185 A 
ATOM     17  C   UNL     1       5.263  43.418  50.718  1.00  0.00     0.150 A 
ATOM     18  N   UNL     1       5.055  41.180  49.965  1.00  0.00    -0.233 NA
ATOM     19  N   UNL     1       6.322  43.680  49.893  1.00  0.00    -0.247 NA
ATOM     20  C   UNL     1       6.110  41.434  49.152  1.00  0.00     0.133 A 
ATOM     21  C   UNL     1       6.733  42.661  49.114  1.00  0.00     0.132 A 
BRANCH  15  22
ATOM     22  N   UNL     1       5.350  45.631  51.637  1.00  0.00    -0.338 N 
ATOM     23  H   UNL     1       4.750  46.343  51.223  1.00  0.00     0.168 HD
BRANCH  22  24
ATOM     24  C   UNL     1       6.397  46.132  52.426  1.00  0.00     0.040 A 
ATOM     25  C   UNL     1       6.309  46.308  53.812  1.00  0.00     0.027 A 
ATOM     26  C   UNL     1       7.622  46.431  51.805  1.00  0.00     0.027 A 
ATOM     27  C   UNL     1       7.395  46.794  54.552  1.00  0.00     0.022 A 
ATOM     28  C   UNL     1       8.710  46.918  52.537  1.00  0.00     0.022 A 
ATOM     29  C   UNL     1       8.590  47.101  53.910  1.00  0.00     0.041 A 
ATOM     30  Cl  UNL     1       9.921  47.697  54.819  1.00  0.00    -0.084 Cl
ENDBRANCH  22  24
ENDBRANCH  15  22
ENDBRANCH   1  12
TORSDOF 6
ENDMDL
MODEL 10
REMARK VINA RESULT:    -8.332      2.742      6.274
REMARK INTER + INTRA:         -12.291
REMARK INTER:                 -11.759
REMARK INTRA:                  -0.532
REMARK UNBOUND:                -1.037
REMARK SMILES Clc1ccc(Nc2nc(NCC[NH+]3CCOCC3)nc3nccnc23)cc1
REMARK SMILES IDX 10 1 11 3 12 4 13 5 14 6 18 7 15 8 17 9 16 10 9 12 8 13
REMARK SMILES IDX 19 14 7 15 20 16 25 17 21 18 24 19 22 20 23 21 6 22 5 24
REMARK SMILES IDX 4 25 26 26 3 27 27 28 2 29 1 30
REMARK H PARENT 10 2 13 11 6 23
ROOT
ATOM      1  N   UNL     1       4.168  46.050  55.641  1.00  0.00    -0.348 N 
ATOM      2  H   UNL     1       4.701  45.347  56.156  1.00  0.00     0.163 HD
ENDROOT
BRANCH   1   3
ATOM      3  C   UNL     1       4.985  46.910  54.793  1.00  0.00     0.177 C 
BRANCH   3   4
ATOM      4  C   UNL     1       6.451  46.453  54.650  1.00  0.00     0.283 C 
BRANCH   4   5
ATOM      5  N   UNL     1       7.383  47.395  53.903  1.00  0.00    -0.330 N 
ATOM      6  C   UNL     1       7.409  47.267  52.393  1.00  0.00     0.291 C 
ATOM      7  C   UNL     1       8.758  47.627  54.523  1.00  0.00     0.291 C 
ATOM      8  C   UNL     1       8.606  46.457  51.899  1.00  0.00     0.221 C 
ATOM      9  C   UNL     1       9.895  46.882  53.816  1.00  0.00     0.221 C 
ATOM     10  O   UNL     1       9.820  47.024  52.394  1.00  0.00    -0.370 OA
ATOM     11  H   UNL     1       6.921  48.300  54.059  1.00  0.00     0.348 HD
ENDBRANCH   4   5
ENDBRANCH   3   4
ENDBRANCH   1   3
BRANCH   1  12
ATOM     12  C   UNL     1       3.211  45.299  54.965  1.00  0.00     0.227 A 
ATOM     13  N   UNL     1       3.640  44.654  53.890  1.00  0.00    -0.193 NA
ATOM     14  N   UNL     1       1.972  45.235  55.432  1.00  0.00    -0.191 NA
ATOM     15  C   UNL     1       2.750  43.899  53.211  1.00  0.00     0.164 A 
ATOM     16  C   UNL     1       1.098  44.490  54.765  1.00  0.00     0.185 A 
ATOM     17  C   UNL     1       1.421  43.772  53.607  1.00  0.00     0.150 A 
ATOM     18  N   UNL     1      -0.145  44.448  55.251  1.00  0.00    -0.233 NA
ATOM     19  N   UNL     1       0.501  43.026  52.924  1.00  0.00    -0.247 NA
ATOM     20  C   UNL     1      -1.059  43.703  54.582  1.00  0.00     0.133 A 
ATOM     21  C   UNL     1      -0.744  43.004  53.438  1.00  0.00     0.132 A 
BRANCH  15  22
ATOM     22  N   UNL     1       3.155  43.156  52.069  1.00  0.00    -0.338 N 
ATOM     23  H   UNL     1       2.344  42.746  51.607  1.00  0.00     0.168 HD
BRANCH  22  24
ATOM     24  C   UNL     1       4.322  43.185  51.288  1.00  0.00     0.040 A 
ATOM     25  C   UNL     1       4.883  42.051  50.691  1.00  0.00     0.027 A 
ATOM     26  C   UNL     1       4.938  44.426  51.048  1.00  0.00     0.027 A 
ATOM     27  C   UNL     1       6.039  42.143  49.905  1.00  0.00     0.022 A 
ATOM     28  C   UNL     1       6.093  44.525  50.266  1.00  0.00     0.022 A 
ATOM     29  C   UNL     1       6.641  43.380  49.699  1.00  0.00     0.041 A 
ATOM     30  Cl  UNL     1       8.060  43.491  48.735  1.00  0.00    -0.084 Cl
ENDBRANCH  22  24
ENDBRANCH  15  22
ENDBRANCH   1  12
TORSDOF 6
ENDMDL
MODEL 11
REMARK VINA RESULT:    -8.264      3.848      6.973
REMARK INTER + INTRA:         -12.200
REMARK INTER:                 -11.655
REMARK INTRA:                  -0.545
REMARK UNBOUND:                -1.037
REMARK SMILES Clc1ccc(Nc2nc(NCC[NH+]3CCOCC3)nc3nccnc23)cc1
REMARK SMILES IDX 10 1 11 3 12 4 13 5 14 6 18 7 15 8 17 9 16 10 9 12 8 13
REMARK SMILES IDX 19 14 7 15 20 16 25 17 21 18 24 19 22 20 23 21 6 22 5 24
REMARK SMILES IDX 4 25 26 26 3 27 27 28 2 29 1 30
REMARK H PARENT 10 2 13 11 6 23
ROOT
ATOM      1  N   UNL     1       5.037  41.389  50.427  1.00  0.00    -0.348 N 
ATOM      2  H   UNL     1       4.341  40.832  50.928  1.00  0.00     0.163 HD
ENDROOT
BRANCH   1   3
ATOM      3  C   UNL     1       5.041  41.176  48.985  1.00  0.00     0.177 C 
BRANCH   3   4
ATOM      4  C   UNL     1       3.784  40.465  48.443  1.00  0.00     0.283 C 
BRANCH   4   5
ATOM      5  N   UNL     1       3.900  39.851  47.057  1.00  0.00    -0.330 N 
ATOM      6  C   UNL     1       3.978  40.817  45.891  1.00  0.00     0.291 C 
ATOM      7  C   UNL     1       3.036  38.624  46.781  1.00  0.00     0.291 C 
ATOM      8  C   UNL     1       2.634  40.984  45.184  1.00  0.00     0.221 C 
ATOM      9  C   UNL     1       1.806  38.910  45.912  1.00  0.00     0.221 C 
ATOM     10  O   UNL     1       2.134  39.710  44.772  1.00  0.00    -0.370 OA
ATOM     11  H   UNL     1       4.844  39.445  47.095  1.00  0.00     0.348 HD
ENDBRANCH   4   5
ENDBRANCH   3   4
ENDBRANCH   1   3
BRANCH   1  12
ATOM     12  C   UNL     1       4.753  42.692  50.827  1.00  0.00     0.227 A 
ATOM     13  N   UNL     1       5.769  43.540  50.789  1.00  0.00    -0.193 NA
ATOM     14  N   UNL     1       3.516  43.020  51.176  1.00  0.00    -0.191 NA
ATOM     15  C   UNL     1       5.537  44.820  51.152  1.00  0.00     0.164 A 
ATOM     16  C   UNL     1       3.288  44.279  51.531  1.00  0.00     0.185 A 
ATOM     17  C   UNL     1       4.280  45.268  51.548  1.00  0.00     0.150 A 
ATOM     18  N   UNL     1       2.037  44.582  51.886  1.00  0.00    -0.233 NA
ATOM     19  N   UNL     1       4.027  46.555  51.935  1.00  0.00    -0.247 NA
ATOM     20  C   UNL     1       1.781  45.859  52.263  1.00  0.00     0.133 A 
ATOM     21  C   UNL     1       2.757  46.830  52.289  1.00  0.00     0.132 A 
BRANCH  15  22
ATOM     22  N   UNL     1       6.578  45.786  51.101  1.00  0.00    -0.338 N 
ATOM     23  H   UNL     1       6.395  46.467  50.365  1.00  0.00     0.168 HD
BRANCH  22  24
ATOM     24  C   UNL     1       7.544  46.183  52.040  1.00  0.00     0.040 A 
ATOM     25  C   UNL     1       8.904  46.325  51.740  1.00  0.00     0.027 A 
ATOM     26  C   UNL     1       7.123  46.505  53.342  1.00  0.00     0.027 A 
ATOM     27  C   UNL     1       9.821  46.745  52.713  1.00  0.00     0.022 A 
ATOM     28  C   UNL     1       8.033  46.922  54.319  1.00  0.00     0.022 A 
ATOM     29  C   UNL     1       9.381  47.038  54.000  1.00  0.00     0.041 A 
ATOM     30  Cl  UNL     1      10.507  47.552  55.193  1.00  0.00    -0.084 Cl
ENDBRANCH  22  24
ENDBRANCH  15  22
ENDBRANCH   1  12
TORSDOF 6
ENDMDL
MODEL 12
REMARK VINA RESULT:    -8.153      2.518      4.969
REMARK INTER + INTRA:         -12.050
REMARK INTER:                 -10.820
REMARK INTRA:                  -1.230
REMARK UNBOUND:                -1.037
REMARK SMILES Clc1ccc(Nc2nc(NCC[NH+]3CCOCC3)nc3nccnc23)cc1
REMARK SMILES IDX 10 1 11 3 12 4 13 5 14 6 18 7 15 8 17 9 16 10 9 12 8 13
REMARK SMILES IDX 19 14 7 15 20 16 25 17 21 18 24 19 22 20 23 21 6 22 5 24
REMARK SMILES IDX 4 25 26 26 3 27 27 28 2 29 1 30
REMARK H PARENT 10 2 13 11 6 23
ROOT
ATOM      1  N   UNL     1       7.724  45.252  49.594  1.00  0.00    -0.348 N 
ATOM      2  H   UNL     1       8.489  45.676  49.066  1.00  0.00     0.163 HD
ENDROOT
BRANCH   1   3
ATOM      3  C   UNL     1       7.768  43.796  49.636  1.00  0.00     0.177 C 
BRANCH   3   4
ATOM      4  C   UNL     1       6.418  43.110  49.343  1.00  0.00     0.283 C 
BRANCH   4   5
ATOM      5  N   UNL     1       5.692  42.508  50.535  1.00  0.00    -0.330 N 
ATOM      6  C   UNL     1       4.992  41.183  50.305  1.00  0.00     0.291 C 
ATOM      7  C   UNL     1       4.902  43.476  51.412  1.00  0.00     0.291 C 
ATOM      8  C   UNL     1       3.490  41.352  50.081  1.00  0.00     0.221 C 
ATOM      9  C   UNL     1       3.386  43.413  51.201  1.00  0.00     0.221 C 
ATOM     10  O   UNL     1       2.907  42.065  51.173  1.00  0.00    -0.370 OA
ATOM     11  H   UNL     1       6.481  42.259  51.146  1.00  0.00     0.348 HD
ENDBRANCH   4   5
ENDBRANCH   3   4
ENDBRANCH   1   3
BRANCH   1  12
ATOM     12  C   UNL     1       7.806  45.877  50.836  1.00  0.00     0.227 A 
ATOM     13  N   UNL     1       6.665  46.338  51.325  1.00  0.00    -0.193 NA
ATOM     14  N   UNL     1       8.972  45.944  51.464  1.00  0.00    -0.191 NA
ATOM     15  C   UNL     1       6.693  46.937  52.534  1.00  0.00     0.164 A 
ATOM     16  C   UNL     1       8.998  46.532  52.654  1.00  0.00     0.185 A 
ATOM     17  C   UNL     1       7.864  47.073  53.274  1.00  0.00     0.150 A 
ATOM     18  N   UNL     1      10.186  46.594  53.263  1.00  0.00    -0.233 NA
ATOM     19  N   UNL     1       7.918  47.691  54.493  1.00  0.00    -0.247 NA
ATOM     20  C   UNL     1      10.241  47.199  54.475  1.00  0.00     0.133 A 
ATOM     21  C   UNL     1       9.129  47.740  55.081  1.00  0.00     0.132 A 
BRANCH  15  22
ATOM     22  N   UNL     1       5.497  47.424  53.129  1.00  0.00    -0.338 N 
ATOM     23  H   UNL     1       5.501  48.442  53.151  1.00  0.00     0.168 HD
BRANCH  22  24
ATOM     24  C   UNL     1       4.237  46.838  53.331  1.00  0.00     0.040 A 
ATOM     25  C   UNL     1       3.158  46.999  52.455  1.00  0.00     0.027 A 
ATOM     26  C   UNL     1       4.056  46.002  54.446  1.00  0.00     0.027 A 
ATOM     27  C   UNL     1       1.928  46.374  52.697  1.00  0.00     0.022 A 
ATOM     28  C   UNL     1       2.831  45.375  54.695  1.00  0.00     0.022 A 
ATOM     29  C   UNL     1       1.769  45.567  53.819  1.00  0.00     0.041 A 
ATOM     30  Cl  UNL     1       0.259  44.800  54.115  1.00  0.00    -0.084 Cl
ENDBRANCH  22  24
ENDBRANCH  15  22
ENDBRANCH   1  12
TORSDOF 6
ENDMDL
MODEL 13
REMARK VINA RESULT:    -8.086      2.718      6.244
REMARK INTER + INTRA:         -11.960
REMARK INTER:                 -11.337
REMARK INTRA:                  -0.623
REMARK UNBOUND:                -1.037
REMARK SMILES Clc1ccc(Nc2nc(NCC[NH+]3CCOCC3)nc3nccnc23)cc1
REMARK SMILES IDX 10 1 11 3 12 4 13 5 14 6 18 7 15 8 17 9 16 10 9 12 8 13
REMARK SMILES IDX 19 14 7 15 20 16 25 17 21 18 24 19 22 20 23 21 6 22 5 24
REMARK SMILES IDX 4 25 26 26 3 27 27 28 2 29 1 30
REMARK H PARENT 10 2 13 11 6 23
ROOT
ATOM      1  N   UNL     1       3.935  46.390  55.475  1.00  0.00    -0.348 N 
ATOM      2  H   UNL     1       4.408  45.784  56.148  1.00  0.00     0.163 HD
ENDROOT
BRANCH   1   3
ATOM      3  C   UNL     1       4.837  47.081  54.562  1.00  0.00     0.177 C 
BRANCH   3   4
ATOM      4  C   UNL     1       6.330  46.761  54.781  1.00  0.00     0.283 C 
BRANCH   4   5
ATOM      5  N   UNL     1       7.139  46.430  53.537  1.00  0.00    -0.330 N 
ATOM      6  C   UNL     1       8.583  46.021  53.755  1.00  0.00     0.291 C 
ATOM      7  C   UNL     1       6.936  47.340  52.328  1.00  0.00     0.291 C 
ATOM      8  C   UNL     1       9.557  47.170  53.503  1.00  0.00     0.221 C 
ATOM      9  C   UNL     1       8.079  48.333  52.096  1.00  0.00     0.221 C 
ATOM     10  O   UNL     1       9.360  47.702  52.192  1.00  0.00    -0.370 OA
ATOM     11  H   UNL     1       6.688  45.559  53.229  1.00  0.00     0.348 HD
ENDBRANCH   4   5
ENDBRANCH   3   4
ENDBRANCH   1   3
BRANCH   1  12
ATOM     12  C   UNL     1       3.020  45.538  54.862  1.00  0.00     0.227 A 
ATOM     13  N   UNL     1       3.480  44.846  53.830  1.00  0.00    -0.193 NA
ATOM     14  N   UNL     1       1.790  45.435  55.345  1.00  0.00    -0.191 NA
ATOM     15  C   UNL     1       2.633  43.994  53.214  1.00  0.00     0.164 A 
ATOM     16  C   UNL     1       0.958  44.595  54.740  1.00  0.00     0.185 A 
ATOM     17  C   UNL     1       1.316  43.818  53.631  1.00  0.00     0.150 A 
ATOM     18  N   UNL     1      -0.278  44.514  55.241  1.00  0.00    -0.233 NA
ATOM     19  N   UNL     1       0.437  42.973  53.011  1.00  0.00    -0.247 NA
ATOM     20  C   UNL     1      -1.150  43.672  54.634  1.00  0.00     0.133 A 
ATOM     21  C   UNL     1      -0.801  42.915  53.538  1.00  0.00     0.132 A 
BRANCH  15  22
ATOM     22  N   UNL     1       3.074  43.199  52.122  1.00  0.00    -0.338 N 
ATOM     23  H   UNL     1       2.281  42.740  51.675  1.00  0.00     0.168 HD
BRANCH  22  24
ATOM     24  C   UNL     1       4.250  43.216  51.356  1.00  0.00     0.040 A 
ATOM     25  C   UNL     1       4.854  42.065  50.837  1.00  0.00     0.027 A 
ATOM     26  C   UNL     1       4.834  44.457  51.049  1.00  0.00     0.027 A 
ATOM     27  C   UNL     1       6.018  42.144  50.061  1.00  0.00     0.022 A 
ATOM     28  C   UNL     1       5.997  44.544  50.277  1.00  0.00     0.022 A 
ATOM     29  C   UNL     1       6.586  43.384  49.788  1.00  0.00     0.041 A 
ATOM     30  Cl  UNL     1       8.015  43.479  48.837  1.00  0.00    -0.084 Cl
ENDBRANCH  22  24
ENDBRANCH  15  22
ENDBRANCH   1  12
TORSDOF 6
ENDMDL
MODEL 14
REMARK VINA RESULT:    -8.082      3.168      6.809
REMARK INTER + INTRA:         -11.954
REMARK INTER:                 -10.724
REMARK INTRA:                  -1.230
REMARK UNBOUND:                -1.037
REMARK SMILES Clc1ccc(Nc2nc(NCC[NH+]3CCOCC3)nc3nccnc23)cc1
REMARK SMILES IDX 10 1 11 3 12 4 13 5 14 6 18 7 15 8 17 9 16 10 9 12 8 13
REMARK SMILES IDX 19 14 7 15 20 16 25 17 21 18 24 19 22 20 23 21 6 22 5 24
REMARK SMILES IDX 4 25 26 26 3 27 27 28 2 29 1 30
REMARK H PARENT 10 2 13 11 6 23
ROOT
ATOM      1  N   UNL     1       1.285  42.320  52.197  1.00  0.00    -0.348 N 
ATOM      2  H   UNL     1       0.318  42.093  51.955  1.00  0.00     0.163 HD
ENDROOT
BRANCH   1   3
ATOM      3  C   UNL     1       2.058  42.876  51.094  1.00  0.00     0.177 C 
BRANCH   3   4
ATOM      4  C   UNL     1       3.163  41.943  50.557  1.00  0.00     0.283 C 
BRANCH   4   5
ATOM      5  N   UNL     1       4.580  42.238  51.022  1.00  0.00    -0.330 N 
ATOM      6  C   UNL     1       4.837  43.625  51.579  1.00  0.00     0.291 C 
ATOM      7  C   UNL     1       5.710  41.713  50.140  1.00  0.00     0.291 C 
ATOM      8  C   UNL     1       5.489  44.551  50.554  1.00  0.00     0.221 C 
ATOM      9  C   UNL     1       6.390  42.790  49.288  1.00  0.00     0.221 C 
ATOM     10  O   UNL     1       6.690  43.962  50.053  1.00  0.00    -0.370 OA
ATOM     11  H   UNL     1       4.652  41.631  51.848  1.00  0.00     0.348 HD
ENDBRANCH   4   5
ENDBRANCH   3   4
ENDBRANCH   1   3
BRANCH   1  12
ATOM     12  C   UNL     1       1.152  43.158  53.301  1.00  0.00     0.227 A 
ATOM     13  N   UNL     1       2.274  43.700  53.750  1.00  0.00    -0.193 NA
ATOM     14  N   UNL     1      -0.050  43.395  53.807  1.00  0.00    -0.191 NA
ATOM     15  C   UNL     1       2.192  44.533  54.809  1.00  0.00     0.164 A 
ATOM     16  C   UNL     1      -0.130  44.216  54.848  1.00  0.00     0.185 A 
ATOM     17  C   UNL     1       0.982  44.841  55.426  1.00  0.00     0.150 A 
ATOM     18  N   UNL     1      -1.351  44.433  55.345  1.00  0.00    -0.233 NA
ATOM     19  N   UNL     1       0.879  45.669  56.510  1.00  0.00    -0.247 NA
ATOM     20  C   UNL     1      -1.458  45.259  56.414  1.00  0.00     0.133 A 
ATOM     21  C   UNL     1      -0.364  45.867  56.989  1.00  0.00     0.132 A 
BRANCH  15  22
ATOM     22  N   UNL     1       3.355  45.172  55.318  1.00  0.00    -0.338 N 
ATOM     23  H   UNL     1       3.512  44.902  56.288  1.00  0.00     0.168 HD
BRANCH  22  24
ATOM     24  C   UNL     1       4.462  45.761  54.686  1.00  0.00     0.040 A 
ATOM     25  C   UNL     1       5.777  45.309  54.847  1.00  0.00     0.027 A 
ATOM     26  C   UNL     1       4.241  46.833  53.804  1.00  0.00     0.027 A 
ATOM     27  C   UNL     1       6.841  45.923  54.174  1.00  0.00     0.022 A 
ATOM     28  C   UNL     1       5.299  47.452  53.131  1.00  0.00     0.022 A 
ATOM     29  C   UNL     1       6.597  46.995  53.322  1.00  0.00     0.041 A 
ATOM     30  Cl  UNL     1       7.905  47.748  52.498  1.00  0.00    -0.084 Cl
ENDBRANCH  22  24
ENDBRANCH  15  22
ENDBRANCH   1  12
TORSDOF 6
ENDMDL
MODEL 15
REMARK VINA RESULT:    -8.055      4.094      7.614
REMARK INTER + INTRA:         -11.918
REMARK INTER:                 -11.399
REMARK INTRA:                  -0.518
REMARK UNBOUND:                -1.037
REMARK SMILES Clc1ccc(Nc2nc(NCC[NH+]3CCOCC3)nc3nccnc23)cc1
REMARK SMILES IDX 10 1 11 3 12 4 13 5 14 6 18 7 15 8 17 9 16 10 9 12 8 13
REMARK SMILES IDX 19 14 7 15 20 16 25 17 21 18 24 19 22 20 23 21 6 22 5 24
REMARK SMILES IDX 4 25 26 26 3 27 27 28 2 29 1 30
REMARK H PARENT 10 2 13 11 6 23
ROOT
ATOM      1  N   UNL     1       6.197  41.566  49.047  1.00  0.00    -0.348 N 
ATOM      2  H   UNL     1       6.488  40.765  49.611  1.00  0.00     0.163 HD
ENDROOT
BRANCH   1   3
ATOM      3  C   UNL     1       5.287  41.227  47.960  1.00  0.00     0.177 C 
BRANCH   3   4
ATOM      4  C   UNL     1       5.727  41.747  46.576  1.00  0.00     0.283 C 
BRANCH   4   5
ATOM      5  N   UNL     1       4.740  41.551  45.436  1.00  0.00    -0.330 N 
ATOM      6  C   UNL     1       3.458  40.813  45.767  1.00  0.00     0.291 C 
ATOM      7  C   UNL     1       5.331  41.176  44.080  1.00  0.00     0.291 C 
ATOM      8  C   UNL     1       3.506  39.346  45.345  1.00  0.00     0.221 C 
ATOM      9  C   UNL     1       5.154  39.699  43.709  1.00  0.00     0.221 C 
ATOM     10  O   UNL     1       3.820  39.245  43.955  1.00  0.00    -0.370 OA
ATOM     11  H   UNL     1       4.425  42.516  45.273  1.00  0.00     0.348 HD
ENDBRANCH   4   5
ENDBRANCH   3   4
ENDBRANCH   1   3
BRANCH   1  12
ATOM     12  C   UNL     1       5.681  42.453  49.988  1.00  0.00     0.227 A 
ATOM     13  N   UNL     1       6.360  43.578  50.152  1.00  0.00    -0.193 NA
ATOM     14  N   UNL     1       4.556  42.156  50.625  1.00  0.00    -0.191 NA
ATOM     15  C   UNL     1       5.888  44.476  51.043  1.00  0.00     0.164 A 
ATOM     16  C   UNL     1       4.091  43.041  51.499  1.00  0.00     0.185 A 
ATOM     17  C   UNL     1       4.723  44.260  51.775  1.00  0.00     0.150 A 
ATOM     18  N   UNL     1       2.961  42.716  52.133  1.00  0.00    -0.233 NA
ATOM     19  N   UNL     1       4.236  45.149  52.694  1.00  0.00    -0.247 NA
ATOM     20  C   UNL     1       2.471  43.597  53.039  1.00  0.00     0.133 A 
ATOM     21  C   UNL     1       3.096  44.793  53.317  1.00  0.00     0.132 A 
BRANCH  15  22
ATOM     22  N   UNL     1       6.551  45.716  51.241  1.00  0.00    -0.338 N 
ATOM     23  H   UNL     1       6.016  46.476  50.823  1.00  0.00     0.168 HD
BRANCH  22  24
ATOM     24  C   UNL     1       7.532  46.127  52.159  1.00  0.00     0.040 A 
ATOM     25  C   UNL     1       8.901  46.158  51.868  1.00  0.00     0.027 A 
ATOM     26  C   UNL     1       7.121  46.579  53.424  1.00  0.00     0.027 A 
ATOM     27  C   UNL     1       9.834  46.596  52.817  1.00  0.00     0.022 A 
ATOM     28  C   UNL     1       8.046  47.016  54.377  1.00  0.00     0.022 A 
ATOM     29  C   UNL     1       9.402  47.020  54.069  1.00  0.00     0.041 A 
ATOM     30  Cl  UNL     1      10.547  47.557  55.233  1.00  0.00    -0.084 Cl
ENDBRANCH  22  24
ENDBRANCH  15  22
ENDBRANCH   1  12
TORSDOF 6
ENDMDL
MODEL 16
REMARK VINA RESULT:    -7.845      2.542      5.920
REMARK INTER + INTRA:         -11.634
REMARK INTER:                 -10.790
REMARK INTRA:                  -0.845
REMARK UNBOUND:                -1.037
REMARK SMILES Clc1ccc(Nc2nc(NCC[NH+]3CCOCC3)nc3nccnc23)cc1
REMARK SMILES IDX 10 1 11 3 12 4 13 5 14 6 18 7 15 8 17 9 16 10 9 12 8 13
REMARK SMILES IDX 19 14 7 15 20 16 25 17 21 18 24 19 22 20 23 21 6 22 5 24
REMARK SMILES IDX 4 25 26 26 3 27 27 28 2 29 1 30
REMARK H PARENT 10 2 13 11 6 23
ROOT
ATOM      1  N   UNL     1       1.986  44.570  55.713  1.00  0.00    -0.348 N 
ATOM      2  H   UNL     1       2.472  43.735  56.047  1.00  0.00     0.163 HD
ENDROOT
BRANCH   1   3
ATOM      3  C   UNL     1       2.816  45.768  55.688  1.00  0.00     0.177 C 
BRANCH   3   4
ATOM      4  C   UNL     1       4.307  45.504  55.395  1.00  0.00     0.283 C 
BRANCH   4   5
ATOM      5  N   UNL     1       5.111  46.681  54.866  1.00  0.00    -0.330 N 
ATOM      6  C   UNL     1       4.490  47.471  53.731  1.00  0.00     0.291 C 
ATOM      7  C   UNL     1       6.614  46.466  54.713  1.00  0.00     0.291 C 
ATOM      8  C   UNL     1       5.062  47.081  52.370  1.00  0.00     0.221 C 
ATOM      9  C   UNL     1       7.071  46.256  53.265  1.00  0.00     0.221 C 
ATOM     10  O   UNL     1       6.485  47.214  52.379  1.00  0.00    -0.370 OA
ATOM     11  H   UNL     1       5.066  47.329  55.662  1.00  0.00     0.348 HD
ENDBRANCH   4   5
ENDBRANCH   3   4
ENDBRANCH   1   3
BRANCH   1  12
ATOM     12  C   UNL     1       1.485  44.178  54.475  1.00  0.00     0.227 A 
ATOM     13  N   UNL     1       2.318  43.491  53.708  1.00  0.00    -0.193 NA
ATOM     14  N   UNL     1       0.232  44.467  54.150  1.00  0.00    -0.191 NA
ATOM     15  C   UNL     1       1.870  43.075  52.504  1.00  0.00     0.164 A 
ATOM     16  C   UNL     1      -0.208  44.056  52.967  1.00  0.00     0.185 A 
ATOM     17  C   UNL     1       0.577  43.335  52.058  1.00  0.00     0.150 A 
ATOM     18  N   UNL     1      -1.471  44.366  52.659  1.00  0.00    -0.233 NA
ATOM     19  N   UNL     1       0.109  42.937  50.836  1.00  0.00    -0.247 NA
ATOM     20  C   UNL     1      -1.941  43.967  51.452  1.00  0.00     0.133 A 
ATOM     21  C   UNL     1      -1.167  43.266  50.554  1.00  0.00     0.132 A 
BRANCH  15  22
ATOM     22  N   UNL     1       2.704  42.306  51.649  1.00  0.00    -0.338 N 
ATOM     23  H   UNL     1       2.163  41.571  51.194  1.00  0.00     0.168 HD
BRANCH  22  24
ATOM     24  C   UNL     1       3.949  42.570  51.055  1.00  0.00     0.040 A 
ATOM     25  C   UNL     1       4.533  43.841  51.014  1.00  0.00     0.027 A 
ATOM     26  C   UNL     1       4.677  41.496  50.515  1.00  0.00     0.027 A 
ATOM     27  C   UNL     1       5.789  44.043  50.425  1.00  0.00     0.022 A 
ATOM     28  C   UNL     1       5.930  41.691  49.925  1.00  0.00     0.022 A 
ATOM     29  C   UNL     1       6.480  42.966  49.880  1.00  0.00     0.041 A 
ATOM     30  Cl  UNL     1       8.020  43.215  49.158  1.00  0.00    -0.084 Cl
ENDBRANCH  22  24
ENDBRANCH  15  22
ENDBRANCH   1  12
TORSDOF 6
ENDMDL
MODEL 17
REMARK VINA RESULT:    -7.729      3.113      6.612
REMARK INTER + INTRA:         -11.477
REMARK INTER:                 -10.813
REMARK INTRA:                  -0.665
REMARK UNBOUND:                -1.037
REMARK SMILES Clc1ccc(Nc2nc(NCC[NH+]3CCOCC3)nc3nccnc23)cc1
REMARK SMILES IDX 10 1 11 3 12 4 13 5 14 6 18 7 15 8 17 9 16 10 9 12 8 13
REMARK SMILES IDX 19 14 7 15 20 16 25 17 21 18 24 19 22 20 23 21 6 22 5 24
REMARK SMILES IDX 4 25 26 26 3 27 27 28 2 29 1 30
REMARK H PARENT 10 2 13 11 6 23
ROOT
ATOM      1  N   UNL     1       5.508  45.948  53.266  1.00  0.00    -0.348 N 
ATOM      2  H   UNL     1       4.667  46.172  53.802  1.00  0.00     0.163 HD
ENDROOT
BRANCH   1   3
ATOM      3  C   UNL     1       6.711  45.815  54.079  1.00  0.00     0.177 C 
BRANCH   3   4
ATOM      4  C   UNL     1       7.305  47.155  54.561  1.00  0.00     0.283 C 
BRANCH   4   5
ATOM      5  N   UNL     1       8.408  47.753  53.703  1.00  0.00    -0.330 N 
ATOM      6  C   UNL     1       8.039  48.114  52.278  1.00  0.00     0.291 C 
ATOM      7  C   UNL     1       9.793  47.125  53.838  1.00  0.00     0.291 C 
ATOM      8  C   UNL     1       8.488  47.053  51.275  1.00  0.00     0.221 C 
ATOM      9  C   UNL     1      10.181  46.214  52.669  1.00  0.00     0.221 C 
ATOM     10  O   UNL     1       9.891  46.817  51.405  1.00  0.00    -0.370 OA
ATOM     11  H   UNL     1       8.541  48.667  54.155  1.00  0.00     0.348 HD
ENDBRANCH   4   5
ENDBRANCH   3   4
ENDBRANCH   1   3
BRANCH   1  12
ATOM     12  C   UNL     1       5.147  44.803  52.562  1.00  0.00     0.227 A 
ATOM     13  N   UNL     1       4.064  44.177  52.999  1.00  0.00    -0.193 NA
ATOM     14  N   UNL     1       5.854  44.429  51.505  1.00  0.00    -0.191 NA
ATOM     15  C   UNL     1       3.666  43.070  52.337  1.00  0.00     0.164 A 
ATOM     16  C   UNL     1       5.460  43.341  50.853  1.00  0.00     0.185 A 
ATOM     17  C   UNL     1       4.342  42.581  51.222  1.00  0.00     0.150 A 
ATOM     18  N   UNL     1       6.193  42.980  49.796  1.00  0.00    -0.233 NA
ATOM     19  N   UNL     1       3.965  41.453  50.547  1.00  0.00    -0.247 NA
ATOM     20  C   UNL     1       5.818  41.866  49.120  1.00  0.00     0.133 A 
ATOM     21  C   UNL     1       4.725  41.114  49.488  1.00  0.00     0.132 A 
BRANCH  15  22
ATOM     22  N   UNL     1       2.494  42.371  52.734  1.00  0.00    -0.338 N 
ATOM     23  H   UNL     1       2.733  41.437  53.065  1.00  0.00     0.168 HD
BRANCH  22  24
ATOM     24  C   UNL     1       1.210  42.810  53.095  1.00  0.00     0.040 A 
ATOM     25  C   UNL     1       0.952  43.626  54.203  1.00  0.00     0.027 A 
ATOM     26  C   UNL     1       0.124  42.456  52.275  1.00  0.00     0.027 A 
ATOM     27  C   UNL     1      -0.349  44.050  54.503  1.00  0.00     0.022 A 
ATOM     28  C   UNL     1      -1.177  42.874  52.570  1.00  0.00     0.022 A 
ATOM     29  C   UNL     1      -1.409  43.669  53.687  1.00  0.00     0.041 A 
ATOM     30  Cl  UNL     1      -3.005  44.190  54.057  1.00  0.00    -0.084 Cl
ENDBRANCH  22  24
ENDBRANCH  15  22
ENDBRANCH   1  12
TORSDOF 6
ENDMDL
MODEL 18
REMARK VINA RESULT:    -7.718      2.563      5.584
REMARK INTER + INTRA:         -11.463
REMARK INTER:                 -10.175
REMARK INTRA:                  -1.288
REMARK UNBOUND:                -1.037
REMARK SMILES Clc1ccc(Nc2nc(NCC[NH+]3CCOCC3)nc3nccnc23)cc1
REMARK SMILES IDX 10 1 11 3 12 4 13 5 14 6 18 7 15 8 17 9 16 10 9 12 8 13
REMARK SMILES IDX 19 14 7 15 20 16 25 17 21 18 24 19 22 20 23 21 6 22 5 24
REMARK SMILES IDX 4 25 26 26 3 27 27 28 2 29 1 30
REMARK H PARENT 10 2 13 11 6 23
ROOT
ATOM      1  N   UNL     1       6.241  45.297  52.388  1.00  0.00    -0.348 N 
ATOM      2  H   UNL     1       5.752  46.113  52.014  1.00  0.00     0.163 HD
ENDROOT
BRANCH   1   3
ATOM      3  C   UNL     1       6.235  45.219  53.844  1.00  0.00     0.177 C 
BRANCH   3   4
ATOM      4  C   UNL     1       6.128  46.584  54.554  1.00  0.00     0.283 C 
BRANCH   4   5
ATOM      5  N   UNL     1       4.729  47.161  54.702  1.00  0.00    -0.330 N 
ATOM      6  C   UNL     1       3.704  46.286  55.397  1.00  0.00     0.291 C 
ATOM      7  C   UNL     1       4.173  47.919  53.499  1.00  0.00     0.291 C 
ATOM      8  C   UNL     1       2.788  45.567  54.409  1.00  0.00     0.221 C 
ATOM      9  C   UNL     1       3.131  47.135  52.694  1.00  0.00     0.221 C 
ATOM     10  O   UNL     1       2.161  46.514  53.542  1.00  0.00    -0.370 OA
ATOM     11  H   UNL     1       4.893  47.919  55.377  1.00  0.00     0.348 HD
ENDBRANCH   4   5
ENDBRANCH   3   4
ENDBRANCH   1   3
BRANCH   1  12
ATOM     12  C   UNL     1       5.626  44.228  51.741  1.00  0.00     0.227 A 
ATOM     13  N   UNL     1       4.506  43.788  52.294  1.00  0.00    -0.193 NA
ATOM     14  N   UNL     1       6.151  43.745  50.624  1.00  0.00    -0.191 NA
ATOM     15  C   UNL     1       3.866  42.763  51.692  1.00  0.00     0.164 A 
ATOM     16  C   UNL     1       5.520  42.738  50.031  1.00  0.00     0.185 A 
ATOM     17  C   UNL     1       4.336  42.172  50.522  1.00  0.00     0.150 A 
ATOM     18  N   UNL     1       6.072  42.264  48.911  1.00  0.00    -0.233 NA
ATOM     19  N   UNL     1       3.713  41.123  49.905  1.00  0.00    -0.247 NA
ATOM     20  C   UNL     1       5.453  41.229  48.293  1.00  0.00     0.133 A 
ATOM     21  C   UNL     1       4.294  40.665  48.779  1.00  0.00     0.132 A 
BRANCH  15  22
ATOM     22  N   UNL     1       2.643  42.266  52.216  1.00  0.00    -0.338 N 
ATOM     23  H   UNL     1       2.804  41.406  52.739  1.00  0.00     0.168 HD
BRANCH  22  24
ATOM     24  C   UNL     1       1.403  42.878  52.462  1.00  0.00     0.040 A 
ATOM     25  C   UNL     1       0.628  42.629  53.600  1.00  0.00     0.027 A 
ATOM     26  C   UNL     1       0.930  43.831  51.543  1.00  0.00     0.027 A 
ATOM     27  C   UNL     1      -0.594  43.285  53.803  1.00  0.00     0.022 A 
ATOM     28  C   UNL     1      -0.289  44.488  51.738  1.00  0.00     0.022 A 
ATOM     29  C   UNL     1      -1.048  44.209  52.868  1.00  0.00     0.041 A 
ATOM     30  Cl  UNL     1      -2.547  45.012  53.118  1.00  0.00    -0.084 Cl
ENDBRANCH  22  24
ENDBRANCH  15  22
ENDBRANCH   1  12
TORSDOF 6
ENDMDL
MODEL 19
REMARK VINA RESULT:    -7.528      3.509      5.689
REMARK INTER + INTRA:         -11.206
REMARK INTER:                 -10.311
REMARK INTRA:                  -0.895
REMARK UNBOUND:                -1.037
REMARK SMILES Clc1ccc(Nc2nc(NCC[NH+]3CCOCC3)nc3nccnc23)cc1
REMARK SMILES IDX 10 1 11 3 12 4 13 5 14 6 18 7 15 8 17 9 16 10 9 12 8 13
REMARK SMILES IDX 19 14 7 15 20 16 25 17 21 18 24 19 22 20 23 21 6 22 5 24
REMARK SMILES IDX 4 25 26 26 3 27 27 28 2 29 1 30
REMARK H PARENT 10 2 13 11 6 23
ROOT
ATOM      1  N   UNL     1       2.402  45.984  56.445  1.00  0.00    -0.348 N 
ATOM      2  H   UNL     1       2.439  47.002  56.358  1.00  0.00     0.163 HD
ENDROOT
BRANCH   1   3
ATOM      3  C   UNL     1       1.268  45.495  57.219  1.00  0.00     0.177 C 
BRANCH   3   4
ATOM      4  C   UNL     1       0.200  46.564  57.527  1.00  0.00     0.283 C 
BRANCH   4   5
ATOM      5  N   UNL     1      -1.085  46.489  56.718  1.00  0.00    -0.330 N 
ATOM      6  C   UNL     1      -2.276  47.253  57.263  1.00  0.00     0.291 C 
ATOM      7  C   UNL     1      -1.445  45.125  56.136  1.00  0.00     0.291 C 
ATOM      8  C   UNL     1      -3.254  46.347  58.009  1.00  0.00     0.221 C 
ATOM      9  C   UNL     1      -2.567  44.401  56.889  1.00  0.00     0.221 C 
ATOM     10  O   UNL     1      -3.668  45.271  57.166  1.00  0.00    -0.370 OA
ATOM     11  H   UNL     1      -0.825  47.020  55.877  1.00  0.00     0.348 HD
ENDBRANCH   4   5
ENDBRANCH   3   4
ENDBRANCH   1   3
BRANCH   1  12
ATOM     12  C   UNL     1       2.442  45.546  55.124  1.00  0.00     0.227 A 
ATOM     13  N   UNL     1       3.261  46.211  54.322  1.00  0.00    -0.193 NA
ATOM     14  N   UNL     1       1.716  44.500  54.754  1.00  0.00    -0.191 NA
ATOM     15  C   UNL     1       3.344  45.811  53.035  1.00  0.00     0.164 A 
ATOM     16  C   UNL     1       1.801  44.106  53.489  1.00  0.00     0.185 A 
ATOM     17  C   UNL     1       2.617  44.733  52.538  1.00  0.00     0.150 A 
ATOM     18  N   UNL     1       1.054  43.056  53.139  1.00  0.00    -0.233 NA
ATOM     19  N   UNL     1       2.674  44.323  51.234  1.00  0.00    -0.247 NA
ATOM     20  C   UNL     1       1.114  42.641  51.850  1.00  0.00     0.133 A 
ATOM     21  C   UNL     1       1.909  43.262  50.912  1.00  0.00     0.132 A 
BRANCH  15  22
ATOM     22  N   UNL     1       4.228  46.461  52.132  1.00  0.00    -0.338 N 
ATOM     23  H   UNL     1       3.782  47.284  51.729  1.00  0.00     0.168 HD
BRANCH  22  24
ATOM     24  C   UNL     1       5.624  46.417  51.980  1.00  0.00     0.040 A 
ATOM     25  C   UNL     1       6.273  45.670  50.991  1.00  0.00     0.027 A 
ATOM     26  C   UNL     1       6.417  47.203  52.834  1.00  0.00     0.027 A 
ATOM     27  C   UNL     1       7.669  45.679  50.874  1.00  0.00     0.022 A 
ATOM     28  C   UNL     1       7.811  47.217  52.724  1.00  0.00     0.022 A 
ATOM     29  C   UNL     1       8.432  46.451  51.745  1.00  0.00     0.041 A 
ATOM     30  Cl  UNL     1      10.145  46.462  51.600  1.00  0.00    -0.084 Cl
ENDBRANCH  22  24
ENDBRANCH  15  22
ENDBRANCH   1  12
TORSDOF 6
ENDMDL
