MODEL 1
REMARK VINA RESULT:    -8.224      0.000      0.000
REMARK INTER + INTRA:         -12.488
REMARK INTER:                 -11.830
REMARK INTRA:                  -0.657
REMARK UNBOUND:                -0.657
REMARK SMILES OCCOCCNc1nc(-c2ccc(Cl)cc2)nc2c1CCCC2
REMARK SMILES IDX 5 1 4 2 3 3 2 4 1 5 6 7 7 8 8 10 9 11 20 12 10 13 19 14
REMARK SMILES IDX 21 15 18 16 24 17 22 18 23 19 11 20 12 21 17 22 13 23 16 24
REMARK SMILES IDX 14 25 15 26
REMARK H PARENT 1 6 7 9
ROOT
ATOM      1  C   UNL     1       9.447  46.869  52.458  1.00  0.00     0.181 C 
ENDROOT
BRANCH   1   2
ATOM      2  O   UNL     1      10.279  46.777  53.622  1.00  0.00    -0.377 OA
BRANCH   2   3
ATOM      3  C   UNL     1       9.762  47.523  54.733  1.00  0.00     0.188 C 
BRANCH   3   4
ATOM      4  C   UNL     1      10.809  47.496  55.842  1.00  0.00     0.184 C 
BRANCH   4   5
ATOM      5  O   UNL     1      10.375  48.304  56.934  1.00  0.00    -0.394 OA
ATOM      6  H   UNL     1       9.417  48.436  56.790  1.00  0.00     0.210 HD
ENDBRANCH   4   5
ENDBRANCH   3   4
ENDBRANCH   2   3
ENDBRANCH   1   2
BRANCH   1   7
ATOM      7  C   UNL     1       8.012  47.280  52.825  1.00  0.00     0.143 C 
BRANCH   7   8
ATOM      8  N   UNL     1       7.074  47.093  51.714  1.00  0.00    -0.367 N 
ATOM      9  H   UNL     1       6.497  47.919  51.583  1.00  0.00     0.162 HD
BRANCH   8  10
ATOM     10  C   UNL     1       6.222  45.975  51.803  1.00  0.00     0.133 A 
ATOM     11  N   UNL     1       5.241  45.974  52.716  1.00  0.00    -0.211 NA
ATOM     12  C   UNL     1       6.440  44.886  50.962  1.00  0.00     0.016 A 
ATOM     13  C   UNL     1       4.438  44.898  52.783  1.00  0.00     0.161 A 
ATOM     14  C   UNL     1       5.548  43.828  51.086  1.00  0.00     0.050 A 
ATOM     15  C   UNL     1       7.542  44.874  49.936  1.00  0.00     0.041 C 
ATOM     16  N   UNL     1       4.551  43.820  51.992  1.00  0.00    -0.233 NA
ATOM     17  C   UNL     1       5.678  42.582  50.250  1.00  0.00     0.057 C 
ATOM     18  C   UNL     1       7.824  43.488  49.353  1.00  0.00     0.005 C 
ATOM     19  C   UNL     1       6.522  42.785  48.995  1.00  0.00     0.007 C 
BRANCH  13  20
ATOM     20  C   UNL     1       3.359  44.905  53.794  1.00  0.00     0.019 A 
ATOM     21  C   UNL     1       3.489  45.617  55.004  1.00  0.00     0.013 A 
ATOM     22  C   UNL     1       2.154  44.202  53.591  1.00  0.00     0.013 A 
ATOM     23  C   UNL     1       2.469  45.627  55.963  1.00  0.00     0.021 A 
ATOM     24  C   UNL     1       1.131  44.207  54.546  1.00  0.00     0.021 A 
ATOM     25  C   UNL     1       1.293  44.921  55.729  1.00  0.00     0.041 A 
ATOM     26  Cl  UNL     1       0.039  44.930  56.904  1.00  0.00    -0.084 Cl
ENDBRANCH  13  20
ENDBRANCH   8  10
ENDBRANCH   7   8
ENDBRANCH   1   7
TORSDOF 8
ENDMDL
MODEL 2
REMARK VINA RESULT:    -8.142      3.630      6.857
REMARK INTER + INTRA:         -12.369
REMARK INTER:                 -11.539
REMARK INTRA:                  -0.831
REMARK UNBOUND:                -0.657
REMARK SMILES OCCOCCNc1nc(-c2ccc(Cl)cc2)nc2c1CCCC2
REMARK SMILES IDX 5 1 4 2 3 3 2 4 1 5 6 7 7 8 8 10 9 11 20 12 10 13 19 14
REMARK SMILES IDX 21 15 18 16 24 17 22 18 23 19 11 20 12 21 17 22 13 23 16 24
REMARK SMILES IDX 14 25 15 26
REMARK H PARENT 1 6 7 9
ROOT
ATOM      1  C   UNL     1       4.221  40.942  49.143  1.00  0.00     0.181 C 
ENDROOT
BRANCH   1   2
ATOM      2  O   UNL     1       5.556  41.174  48.675  1.00  0.00    -0.377 OA
BRANCH   2   3
ATOM      3  C   UNL     1       6.410  41.723  49.689  1.00  0.00     0.188 C 
BRANCH   3   4
ATOM      4  C   UNL     1       6.930  43.065  49.185  1.00  0.00     0.184 C 
BRANCH   4   5
ATOM      5  O   UNL     1       8.355  43.073  49.219  1.00  0.00    -0.394 OA
ATOM      6  H   UNL     1       8.611  43.991  49.003  1.00  0.00     0.210 HD
ENDBRANCH   4   5
ENDBRANCH   3   4
ENDBRANCH   2   3
ENDBRANCH   1   2
BRANCH   1   7
ATOM      7  C   UNL     1       4.109  41.165  50.659  1.00  0.00     0.143 C 
BRANCH   7   8
ATOM      8  N   UNL     1       2.899  41.906  51.029  1.00  0.00    -0.367 N 
ATOM      9  H   UNL     1       2.434  42.277  50.204  1.00  0.00     0.162 HD
BRANCH   8  10
ATOM     10  C   UNL     1       3.074  42.962  51.944  1.00  0.00     0.133 A 
ATOM     11  N   UNL     1       4.262  43.579  52.010  1.00  0.00    -0.211 NA
ATOM     12  C   UNL     1       2.017  43.319  52.778  1.00  0.00     0.016 A 
ATOM     13  C   UNL     1       4.406  44.585  52.889  1.00  0.00     0.161 A 
ATOM     14  C   UNL     1       2.249  44.385  53.640  1.00  0.00     0.050 A 
ATOM     15  C   UNL     1       0.679  42.630  52.718  1.00  0.00     0.041 C 
ATOM     16  N   UNL     1       3.435  45.019  53.707  1.00  0.00    -0.233 NA
ATOM     17  C   UNL     1       1.199  44.863  54.607  1.00  0.00     0.057 C 
ATOM     18  C   UNL     1      -0.223  42.932  53.915  1.00  0.00     0.005 C 
ATOM     19  C   UNL     1      -0.212  44.421  54.230  1.00  0.00     0.007 C 
BRANCH  13  20
ATOM     20  C   UNL     1       5.721  45.259  52.955  1.00  0.00     0.019 A 
ATOM     21  C   UNL     1       6.268  45.686  54.182  1.00  0.00     0.013 A 
ATOM     22  C   UNL     1       6.484  45.502  51.794  1.00  0.00     0.013 A 
ATOM     23  C   UNL     1       7.513  46.324  54.248  1.00  0.00     0.021 A 
ATOM     24  C   UNL     1       7.728  46.139  51.853  1.00  0.00     0.021 A 
ATOM     25  C   UNL     1       8.238  46.548  53.081  1.00  0.00     0.041 A 
ATOM     26  Cl  UNL     1       9.766  47.331  53.159  1.00  0.00    -0.084 Cl
ENDBRANCH  13  20
ENDBRANCH   8  10
ENDBRANCH   7   8
ENDBRANCH   1   7
TORSDOF 8
ENDMDL
MODEL 3
REMARK VINA RESULT:    -8.119      3.696      6.146
REMARK INTER + INTRA:         -12.336
REMARK INTER:                 -11.291
REMARK INTRA:                  -1.045
REMARK UNBOUND:                -0.657
REMARK SMILES OCCOCCNc1nc(-c2ccc(Cl)cc2)nc2c1CCCC2
REMARK SMILES IDX 5 1 4 2 3 3 2 4 1 5 6 7 7 8 8 10 9 11 20 12 10 13 19 14
REMARK SMILES IDX 21 15 18 16 24 17 22 18 23 19 11 20 12 21 17 22 13 23 16 24
REMARK SMILES IDX 14 25 15 26
REMARK H PARENT 1 6 7 9
ROOT
ATOM      1  C   UNL     1       3.299  46.445  54.491  1.00  0.00     0.181 C 
ENDROOT
BRANCH   1   2
ATOM      2  O   UNL     1       2.023  46.030  53.986  1.00  0.00    -0.377 OA
BRANCH   2   3
ATOM      3  C   UNL     1       1.998  45.938  52.555  1.00  0.00     0.188 C 
BRANCH   3   4
ATOM      4  C   UNL     1       3.063  46.882  52.007  1.00  0.00     0.184 C 
BRANCH   4   5
ATOM      5  O   UNL     1       3.151  46.740  50.591  1.00  0.00    -0.394 OA
ATOM      6  H   UNL     1       2.364  47.200  50.239  1.00  0.00     0.210 HD
ENDBRANCH   4   5
ENDBRANCH   3   4
ENDBRANCH   2   3
ENDBRANCH   1   2
BRANCH   1   7
ATOM      7  C   UNL     1       3.998  45.308  55.253  1.00  0.00     0.143 C 
BRANCH   7   8
ATOM      8  N   UNL     1       5.445  45.286  55.023  1.00  0.00    -0.367 N 
ATOM      9  H   UNL     1       5.890  46.106  55.427  1.00  0.00     0.162 HD
BRANCH   8  10
ATOM     10  C   UNL     1       5.859  45.181  53.680  1.00  0.00     0.133 A 
ATOM     11  N   UNL     1       5.357  44.199  52.918  1.00  0.00    -0.211 NA
ATOM     12  C   UNL     1       6.800  46.082  53.188  1.00  0.00     0.016 A 
ATOM     13  C   UNL     1       5.764  44.119  51.640  1.00  0.00     0.161 A 
ATOM     14  C   UNL     1       7.145  45.937  51.850  1.00  0.00     0.050 A 
ATOM     15  C   UNL     1       7.375  47.185  54.037  1.00  0.00     0.041 C 
ATOM     16  N   UNL     1       6.640  44.961  51.071  1.00  0.00    -0.233 NA
ATOM     17  C   UNL     1       8.164  46.832  51.195  1.00  0.00     0.057 C 
ATOM     18  C   UNL     1       8.614  47.846  53.431  1.00  0.00     0.005 C 
ATOM     19  C   UNL     1       8.395  48.136  51.952  1.00  0.00     0.007 C 
BRANCH  13  20
ATOM     20  C   UNL     1       5.206  43.032  50.807  1.00  0.00     0.019 A 
ATOM     21  C   UNL     1       5.915  42.512  49.704  1.00  0.00     0.013 A 
ATOM     22  C   UNL     1       3.942  42.469  51.079  1.00  0.00     0.013 A 
ATOM     23  C   UNL     1       5.389  41.483  48.913  1.00  0.00     0.021 A 
ATOM     24  C   UNL     1       3.412  41.440  50.293  1.00  0.00     0.021 A 
ATOM     25  C   UNL     1       4.139  40.951  49.212  1.00  0.00     0.041 A 
ATOM     26  Cl  UNL     1       3.491  39.688  48.243  1.00  0.00    -0.084 Cl
ENDBRANCH  13  20
ENDBRANCH   8  10
ENDBRANCH   7   8
ENDBRANCH   1   7
TORSDOF 8
ENDMDL
MODEL 4
REMARK VINA RESULT:    -8.079      3.734      6.470
REMARK INTER + INTRA:         -12.279
REMARK INTER:                 -11.387
REMARK INTRA:                  -0.892
REMARK UNBOUND:                -0.657
REMARK SMILES OCCOCCNc1nc(-c2ccc(Cl)cc2)nc2c1CCCC2
REMARK SMILES IDX 5 1 4 2 3 3 2 4 1 5 6 7 7 8 8 10 9 11 20 12 10 13 19 14
REMARK SMILES IDX 21 15 18 16 24 17 22 18 23 19 11 20 12 21 17 22 13 23 16 24
REMARK SMILES IDX 14 25 15 26
REMARK H PARENT 1 6 7 9
ROOT
ATOM      1  C   UNL     1       2.776  45.297  55.286  1.00  0.00     0.181 C 
ENDROOT
BRANCH   1   2
ATOM      2  O   UNL     1       1.674  45.475  54.386  1.00  0.00    -0.377 OA
BRANCH   2   3
ATOM      3  C   UNL     1       1.751  44.613  53.242  1.00  0.00     0.188 C 
BRANCH   3   4
ATOM      4  C   UNL     1       0.842  43.415  53.498  1.00  0.00     0.184 C 
BRANCH   4   5
ATOM      5  O   UNL     1       1.628  42.234  53.636  1.00  0.00    -0.394 OA
ATOM      6  H   UNL     1       2.540  42.550  53.789  1.00  0.00     0.210 HD
ENDBRANCH   4   5
ENDBRANCH   3   4
ENDBRANCH   2   3
ENDBRANCH   1   2
BRANCH   1   7
ATOM      7  C   UNL     1       3.938  46.244  54.947  1.00  0.00     0.143 C 
BRANCH   7   8
ATOM      8  N   UNL     1       5.226  45.548  54.878  1.00  0.00    -0.367 N 
ATOM      9  H   UNL     1       5.930  46.033  55.430  1.00  0.00     0.162 HD
BRANCH   8  10
ATOM     10  C   UNL     1       5.751  45.340  53.588  1.00  0.00     0.133 A 
ATOM     11  N   UNL     1       5.255  44.349  52.834  1.00  0.00    -0.211 NA
ATOM     12  C   UNL     1       6.793  46.148  53.140  1.00  0.00     0.016 A 
ATOM     13  C   UNL     1       5.768  44.168  51.606  1.00  0.00     0.161 A 
ATOM     14  C   UNL     1       7.247  45.904  51.849  1.00  0.00     0.050 A 
ATOM     15  C   UNL     1       7.363  47.261  53.980  1.00  0.00     0.041 C 
ATOM     16  N   UNL     1       6.748  44.919  51.078  1.00  0.00    -0.233 NA
ATOM     17  C   UNL     1       8.379  46.693  51.247  1.00  0.00     0.057 C 
ATOM     18  C   UNL     1       8.694  47.805  53.459  1.00  0.00     0.005 C 
ATOM     19  C   UNL     1       8.630  48.021  51.954  1.00  0.00     0.007 C 
BRANCH  13  20
ATOM     20  C   UNL     1       5.215  43.072  50.782  1.00  0.00     0.019 A 
ATOM     21  C   UNL     1       5.906  42.575  49.658  1.00  0.00     0.013 A 
ATOM     22  C   UNL     1       3.973  42.477  51.085  1.00  0.00     0.013 A 
ATOM     23  C   UNL     1       5.385  41.537  48.876  1.00  0.00     0.021 A 
ATOM     24  C   UNL     1       3.447  41.439  50.308  1.00  0.00     0.021 A 
ATOM     25  C   UNL     1       4.156  40.974  49.205  1.00  0.00     0.041 A 
ATOM     26  Cl  UNL     1       3.513  39.699  48.247  1.00  0.00    -0.084 Cl
ENDBRANCH  13  20
ENDBRANCH   8  10
ENDBRANCH   7   8
ENDBRANCH   1   7
TORSDOF 8
ENDMDL
MODEL 5
REMARK VINA RESULT:    -8.036      3.695      6.291
REMARK INTER + INTRA:         -12.216
REMARK INTER:                 -11.102
REMARK INTRA:                  -1.115
REMARK UNBOUND:                -0.657
REMARK SMILES OCCOCCNc1nc(-c2ccc(Cl)cc2)nc2c1CCCC2
REMARK SMILES IDX 5 1 4 2 3 3 2 4 1 5 6 7 7 8 8 10 9 11 20 12 10 13 19 14
REMARK SMILES IDX 21 15 18 16 24 17 22 18 23 19 11 20 12 21 17 22 13 23 16 24
REMARK SMILES IDX 14 25 15 26
REMARK H PARENT 1 6 7 9
ROOT
ATOM      1  C   UNL     1       2.777  45.301  55.238  1.00  0.00     0.181 C 
ENDROOT
BRANCH   1   2
ATOM      2  O   UNL     1       1.840  45.108  54.169  1.00  0.00    -0.377 OA
BRANCH   2   3
ATOM      3  C   UNL     1       1.950  46.112  53.151  1.00  0.00     0.188 C 
BRANCH   3   4
ATOM      4  C   UNL     1       1.751  45.431  51.800  1.00  0.00     0.184 C 
BRANCH   4   5
ATOM      5  O   UNL     1       2.715  45.918  50.869  1.00  0.00    -0.394 OA
ATOM      6  H   UNL     1       2.769  46.879  51.036  1.00  0.00     0.210 HD
ENDBRANCH   4   5
ENDBRANCH   3   4
ENDBRANCH   2   3
ENDBRANCH   1   2
BRANCH   1   7
ATOM      7  C   UNL     1       3.900  46.268  54.834  1.00  0.00     0.143 C 
BRANCH   7   8
ATOM      8  N   UNL     1       5.212  45.615  54.785  1.00  0.00    -0.367 N 
ATOM      9  H   UNL     1       5.901  46.144  55.315  1.00  0.00     0.162 HD
BRANCH   8  10
ATOM     10  C   UNL     1       5.740  45.376  53.501  1.00  0.00     0.133 A 
ATOM     11  N   UNL     1       5.238  44.373  52.767  1.00  0.00    -0.211 NA
ATOM     12  C   UNL     1       6.789  46.167  53.040  1.00  0.00     0.016 A 
ATOM     13  C   UNL     1       5.754  44.162  51.544  1.00  0.00     0.161 A 
ATOM     14  C   UNL     1       7.245  45.891  51.757  1.00  0.00     0.050 A 
ATOM     15  C   UNL     1       7.365  47.292  53.858  1.00  0.00     0.041 C 
ATOM     16  N   UNL     1       6.741  44.894  51.005  1.00  0.00    -0.233 NA
ATOM     17  C   UNL     1       8.386  46.659  51.141  1.00  0.00     0.057 C 
ATOM     18  C   UNL     1       8.702  47.815  53.331  1.00  0.00     0.005 C 
ATOM     19  C   UNL     1       8.644  48.000  51.821  1.00  0.00     0.007 C 
BRANCH  13  20
ATOM     20  C   UNL     1       5.195  43.054  50.742  1.00  0.00     0.019 A 
ATOM     21  C   UNL     1       3.960  42.457  51.070  1.00  0.00     0.013 A 
ATOM     22  C   UNL     1       5.872  42.545  49.614  1.00  0.00     0.013 A 
ATOM     23  C   UNL     1       3.428  41.407  50.312  1.00  0.00     0.021 A 
ATOM     24  C   UNL     1       5.346  41.496  48.852  1.00  0.00     0.021 A 
ATOM     25  C   UNL     1       4.124  40.931  49.205  1.00  0.00     0.041 A 
ATOM     26  Cl  UNL     1       3.474  39.642  48.273  1.00  0.00    -0.084 Cl
ENDBRANCH  13  20
ENDBRANCH   8  10
ENDBRANCH   7   8
ENDBRANCH   1   7
TORSDOF 8
ENDMDL
MODEL 6
REMARK VINA RESULT:    -8.007      1.242      1.468
REMARK INTER + INTRA:         -12.175
REMARK INTER:                 -11.571
REMARK INTRA:                  -0.604
REMARK UNBOUND:                -0.657
REMARK SMILES OCCOCCNc1nc(-c2ccc(Cl)cc2)nc2c1CCCC2
REMARK SMILES IDX 5 1 4 2 3 3 2 4 1 5 6 7 7 8 8 10 9 11 20 12 10 13 19 14
REMARK SMILES IDX 21 15 18 16 24 17 22 18 23 19 11 20 12 21 17 22 13 23 16 24
REMARK SMILES IDX 14 25 15 26
REMARK H PARENT 1 6 7 9
ROOT
ATOM      1  C   UNL     1       7.592  47.967  52.268  1.00  0.00     0.181 C 
ENDROOT
BRANCH   1   2
ATOM      2  O   UNL     1       8.457  48.349  53.347  1.00  0.00    -0.377 OA
BRANCH   2   3
ATOM      3  C   UNL     1       9.531  47.420  53.549  1.00  0.00     0.188 C 
BRANCH   3   4
ATOM      4  C   UNL     1       9.957  47.510  55.011  1.00  0.00     0.184 C 
BRANCH   4   5
ATOM      5  O   UNL     1       9.272  48.587  55.647  1.00  0.00    -0.394 OA
ATOM      6  H   UNL     1       8.679  48.163  56.298  1.00  0.00     0.210 HD
ENDBRANCH   4   5
ENDBRANCH   3   4
ENDBRANCH   2   3
ENDBRANCH   1   2
BRANCH   1   7
ATOM      7  C   UNL     1       6.749  46.735  52.634  1.00  0.00     0.143 C 
BRANCH   7   8
ATOM      8  N   UNL     1       6.135  46.107  51.460  1.00  0.00    -0.367 N 
ATOM      9  H   UNL     1       5.666  46.800  50.881  1.00  0.00     0.162 HD
BRANCH   8  10
ATOM     10  C   UNL     1       5.224  45.065  51.718  1.00  0.00     0.133 A 
ATOM     11  N   UNL     1       4.248  45.259  52.616  1.00  0.00    -0.211 NA
ATOM     12  C   UNL     1       5.378  43.849  51.058  1.00  0.00     0.016 A 
ATOM     13  C   UNL     1       3.388  44.252  52.847  1.00  0.00     0.161 A 
ATOM     14  C   UNL     1       4.431  42.872  51.342  1.00  0.00     0.050 A 
ATOM     15  C   UNL     1       6.474  43.616  50.051  1.00  0.00     0.041 C 
ATOM     16  N   UNL     1       3.439  43.060  52.234  1.00  0.00    -0.233 NA
ATOM     17  C   UNL     1       4.490  41.506  50.711  1.00  0.00     0.057 C 
ATOM     18  C   UNL     1       6.677  42.144  49.692  1.00  0.00     0.005 C 
ATOM     19  C   UNL     1       5.338  41.465  49.443  1.00  0.00     0.007 C 
BRANCH  13  20
ATOM     20  C   UNL     1       2.316  44.476  53.840  1.00  0.00     0.019 A 
ATOM     21  C   UNL     1       2.575  45.106  55.074  1.00  0.00     0.013 A 
ATOM     22  C   UNL     1       0.988  44.070  53.594  1.00  0.00     0.013 A 
ATOM     23  C   UNL     1       1.561  45.319  56.016  1.00  0.00     0.021 A 
ATOM     24  C   UNL     1      -0.030  44.280  54.532  1.00  0.00     0.021 A 
ATOM     25  C   UNL     1       0.262  44.905  55.740  1.00  0.00     0.041 A 
ATOM     26  Cl  UNL     1      -0.985  45.165  56.894  1.00  0.00    -0.084 Cl
ENDBRANCH  13  20
ENDBRANCH   8  10
ENDBRANCH   7   8
ENDBRANCH   1   7
TORSDOF 8
ENDMDL
MODEL 7
REMARK VINA RESULT:    -7.947      3.336      5.442
REMARK INTER + INTRA:         -12.089
REMARK INTER:                 -11.199
REMARK INTRA:                  -0.890
REMARK UNBOUND:                -0.657
REMARK SMILES OCCOCCNc1nc(-c2ccc(Cl)cc2)nc2c1CCCC2
REMARK SMILES IDX 5 1 4 2 3 3 2 4 1 5 6 7 7 8 8 10 9 11 20 12 10 13 19 14
REMARK SMILES IDX 21 15 18 16 24 17 22 18 23 19 11 20 12 21 17 22 13 23 16 24
REMARK SMILES IDX 14 25 15 26
REMARK H PARENT 1 6 7 9
ROOT
ATOM      1  C   UNL     1       6.526  42.786  48.496  1.00  0.00     0.181 C 
ENDROOT
BRANCH   1   2
ATOM      2  O   UNL     1       5.762  41.659  48.946  1.00  0.00    -0.377 OA
BRANCH   2   3
ATOM      3  C   UNL     1       5.709  41.563  50.376  1.00  0.00     0.188 C 
BRANCH   3   4
ATOM      4  C   UNL     1       4.242  41.603  50.793  1.00  0.00     0.184 C 
BRANCH   4   5
ATOM      5  O   UNL     1       3.555  40.477  50.251  1.00  0.00    -0.394 OA
ATOM      6  H   UNL     1       3.043  40.828  49.497  1.00  0.00     0.210 HD
ENDBRANCH   4   5
ENDBRANCH   3   4
ENDBRANCH   2   3
ENDBRANCH   1   2
BRANCH   1   7
ATOM      7  C   UNL     1       7.561  43.218  49.546  1.00  0.00     0.143 C 
BRANCH   7   8
ATOM      8  N   UNL     1       7.658  44.676  49.671  1.00  0.00    -0.367 N 
ATOM      9  H   UNL     1       8.628  44.979  49.646  1.00  0.00     0.162 HD
BRANCH   8  10
ATOM     10  C   UNL     1       7.052  45.243  50.809  1.00  0.00     0.133 A 
ATOM     11  N   UNL     1       5.723  45.155  50.953  1.00  0.00    -0.211 NA
ATOM     12  C   UNL     1       7.847  45.907  51.741  1.00  0.00     0.016 A 
ATOM     13  C   UNL     1       5.166  45.701  52.047  1.00  0.00     0.161 A 
ATOM     14  C   UNL     1       7.188  46.421  52.851  1.00  0.00     0.050 A 
ATOM     15  C   UNL     1       9.341  46.017  51.587  1.00  0.00     0.041 C 
ATOM     16  N   UNL     1       5.855  46.329  53.012  1.00  0.00    -0.233 NA
ATOM     17  C   UNL     1       7.924  47.177  53.926  1.00  0.00     0.057 C 
ATOM     18  C   UNL     1       9.980  47.049  52.518  1.00  0.00     0.005 C 
ATOM     19  C   UNL     1       9.426  46.911  53.929  1.00  0.00     0.007 C 
BRANCH  13  20
ATOM     20  C   UNL     1       3.698  45.599  52.197  1.00  0.00     0.019 A 
ATOM     21  C   UNL     1       2.878  45.168  51.134  1.00  0.00     0.013 A 
ATOM     22  C   UNL     1       3.056  45.929  53.409  1.00  0.00     0.013 A 
ATOM     23  C   UNL     1       1.488  45.071  51.273  1.00  0.00     0.021 A 
ATOM     24  C   UNL     1       1.667  45.833  53.553  1.00  0.00     0.021 A 
ATOM     25  C   UNL     1       0.889  45.404  52.483  1.00  0.00     0.041 A 
ATOM     26  Cl  UNL     1      -0.817  45.286  52.657  1.00  0.00    -0.084 Cl
ENDBRANCH  13  20
ENDBRANCH   8  10
ENDBRANCH   7   8
ENDBRANCH   1   7
TORSDOF 8
ENDMDL
MODEL 8
REMARK VINA RESULT:    -7.741      1.507      2.059
REMARK INTER + INTRA:         -11.793
REMARK INTER:                 -11.145
REMARK INTRA:                  -0.648
REMARK UNBOUND:                -0.657
REMARK SMILES OCCOCCNc1nc(-c2ccc(Cl)cc2)nc2c1CCCC2
REMARK SMILES IDX 5 1 4 2 3 3 2 4 1 5 6 7 7 8 8 10 9 11 20 12 10 13 19 14
REMARK SMILES IDX 21 15 18 16 24 17 22 18 23 19 11 20 12 21 17 22 13 23 16 24
REMARK SMILES IDX 14 25 15 26
REMARK H PARENT 1 6 7 9
ROOT
ATOM      1  C   UNL     1       7.801  47.698  52.390  1.00  0.00     0.181 C 
ENDROOT
BRANCH   1   2
ATOM      2  O   UNL     1       8.670  47.619  53.528  1.00  0.00    -0.377 OA
BRANCH   2   3
ATOM      3  C   UNL     1       9.793  46.755  53.306  1.00  0.00     0.188 C 
BRANCH   3   4
ATOM      4  C   UNL     1      10.019  46.659  51.801  1.00  0.00     0.184 C 
BRANCH   4   5
ATOM      5  O   UNL     1      10.665  45.427  51.488  1.00  0.00    -0.394 OA
ATOM      6  H   UNL     1      11.581  45.672  51.249  1.00  0.00     0.210 HD
ENDBRANCH   4   5
ENDBRANCH   3   4
ENDBRANCH   2   3
ENDBRANCH   1   2
BRANCH   1   7
ATOM      7  C   UNL     1       6.488  46.937  52.632  1.00  0.00     0.143 C 
BRANCH   7   8
ATOM      8  N   UNL     1       6.098  46.113  51.484  1.00  0.00    -0.367 N 
ATOM      9  H   UNL     1       5.704  46.687  50.743  1.00  0.00     0.162 HD
BRANCH   8  10
ATOM     10  C   UNL     1       5.195  45.065  51.750  1.00  0.00     0.133 A 
ATOM     11  N   UNL     1       4.221  45.256  52.651  1.00  0.00    -0.211 NA
ATOM     12  C   UNL     1       5.356  43.847  51.094  1.00  0.00     0.016 A 
ATOM     13  C   UNL     1       3.370  44.244  52.889  1.00  0.00     0.161 A 
ATOM     14  C   UNL     1       4.417  42.865  51.386  1.00  0.00     0.050 A 
ATOM     15  C   UNL     1       6.450  43.618  50.085  1.00  0.00     0.041 C 
ATOM     16  N   UNL     1       3.427  43.049  52.280  1.00  0.00    -0.233 NA
ATOM     17  C   UNL     1       4.484  41.496  50.760  1.00  0.00     0.057 C 
ATOM     18  C   UNL     1       6.663  42.146  49.731  1.00  0.00     0.005 C 
ATOM     19  C   UNL     1       5.328  41.456  49.490  1.00  0.00     0.007 C 
BRANCH  13  20
ATOM     20  C   UNL     1       2.299  44.463  53.885  1.00  0.00     0.019 A 
ATOM     21  C   UNL     1       2.540  45.171  55.080  1.00  0.00     0.013 A 
ATOM     22  C   UNL     1       0.992  43.975  53.681  1.00  0.00     0.013 A 
ATOM     23  C   UNL     1       1.528  45.381  56.025  1.00  0.00     0.021 A 
ATOM     24  C   UNL     1      -0.024  44.182  54.621  1.00  0.00     0.021 A 
ATOM     25  C   UNL     1       0.249  44.885  55.790  1.00  0.00     0.041 A 
ATOM     26  Cl  UNL     1      -0.995  45.141  56.948  1.00  0.00    -0.084 Cl
ENDBRANCH  13  20
ENDBRANCH   8  10
ENDBRANCH   7   8
ENDBRANCH   1   7
TORSDOF 8
ENDMDL
MODEL 9
REMARK VINA RESULT:    -7.736      3.644      6.296
REMARK INTER + INTRA:         -11.786
REMARK INTER:                 -11.277
REMARK INTRA:                  -0.509
REMARK UNBOUND:                -0.657
REMARK SMILES OCCOCCNc1nc(-c2ccc(Cl)cc2)nc2c1CCCC2
REMARK SMILES IDX 5 1 4 2 3 3 2 4 1 5 6 7 7 8 8 10 9 11 20 12 10 13 19 14
REMARK SMILES IDX 21 15 18 16 24 17 22 18 23 19 11 20 12 21 17 22 13 23 16 24
REMARK SMILES IDX 14 25 15 26
REMARK H PARENT 1 6 7 9
ROOT
ATOM      1  C   UNL     1       3.462  46.438  53.899  1.00  0.00     0.181 C 
ENDROOT
BRANCH   1   2
ATOM      2  O   UNL     1       2.127  45.945  53.723  1.00  0.00    -0.377 OA
BRANCH   2   3
ATOM      3  C   UNL     1       1.665  45.185  54.848  1.00  0.00     0.188 C 
BRANCH   3   4
ATOM      4  C   UNL     1       0.882  43.990  54.314  1.00  0.00     0.184 C 
BRANCH   4   5
ATOM      5  O   UNL     1       1.786  42.973  53.888  1.00  0.00    -0.394 OA
ATOM      6  H   UNL     1       2.482  43.443  53.389  1.00  0.00     0.210 HD
ENDBRANCH   4   5
ENDBRANCH   3   4
ENDBRANCH   2   3
ENDBRANCH   1   2
BRANCH   1   7
ATOM      7  C   UNL     1       4.078  45.933  55.213  1.00  0.00     0.143 C 
BRANCH   7   8
ATOM      8  N   UNL     1       5.383  45.294  55.012  1.00  0.00    -0.367 N 
ATOM      9  H   UNL     1       6.110  45.785  55.527  1.00  0.00     0.162 HD
BRANCH   8  10
ATOM     10  C   UNL     1       5.808  45.160  53.676  1.00  0.00     0.133 A 
ATOM     11  N   UNL     1       5.292  44.179  52.922  1.00  0.00    -0.211 NA
ATOM     12  C   UNL     1       6.777  46.030  53.182  1.00  0.00     0.016 A 
ATOM     13  C   UNL     1       5.711  44.070  51.650  1.00  0.00     0.161 A 
ATOM     14  C   UNL     1       7.134  45.857  51.850  1.00  0.00     0.050 A 
ATOM     15  C   UNL     1       7.368  47.132  54.020  1.00  0.00     0.041 C 
ATOM     16  N   UNL     1       6.614  44.882  51.079  1.00  0.00    -0.233 NA
ATOM     17  C   UNL     1       8.181  46.717  51.193  1.00  0.00     0.057 C 
ATOM     18  C   UNL     1       8.630  47.753  53.419  1.00  0.00     0.005 C 
ATOM     19  C   UNL     1       8.435  48.027  51.934  1.00  0.00     0.007 C 
BRANCH  13  20
ATOM     20  C   UNL     1       5.137  42.984  50.827  1.00  0.00     0.019 A 
ATOM     21  C   UNL     1       3.843  42.480  51.073  1.00  0.00     0.013 A 
ATOM     22  C   UNL     1       5.858  42.407  49.761  1.00  0.00     0.013 A 
ATOM     23  C   UNL     1       3.297  41.452  50.295  1.00  0.00     0.021 A 
ATOM     24  C   UNL     1       5.317  41.380  48.979  1.00  0.00     0.021 A 
ATOM     25  C   UNL     1       4.037  40.907  49.251  1.00  0.00     0.041 A 
ATOM     26  Cl  UNL     1       3.369  39.644  48.294  1.00  0.00    -0.084 Cl
ENDBRANCH  13  20
ENDBRANCH   8  10
ENDBRANCH   7   8
ENDBRANCH   1   7
TORSDOF 8
ENDMDL
MODEL 10
REMARK VINA RESULT:    -7.693      2.978      5.355
REMARK INTER + INTRA:         -11.723
REMARK INTER:                 -10.934
REMARK INTRA:                  -0.789
REMARK UNBOUND:                -0.657
REMARK SMILES OCCOCCNc1nc(-c2ccc(Cl)cc2)nc2c1CCCC2
REMARK SMILES IDX 5 1 4 2 3 3 2 4 1 5 6 7 7 8 8 10 9 11 20 12 10 13 19 14
REMARK SMILES IDX 21 15 18 16 24 17 22 18 23 19 11 20 12 21 17 22 13 23 16 24
REMARK SMILES IDX 14 25 15 26
REMARK H PARENT 1 6 7 9
ROOT
ATOM      1  C   UNL     1       6.156  42.677  49.208  1.00  0.00     0.181 C 
ENDROOT
BRANCH   1   2
ATOM      2  O   UNL     1       5.966  41.460  49.942  1.00  0.00    -0.377 OA
BRANCH   2   3
ATOM      3  C   UNL     1       4.860  41.531  50.853  1.00  0.00     0.188 C 
BRANCH   3   4
ATOM      4  C   UNL     1       3.576  41.386  50.042  1.00  0.00     0.184 C 
BRANCH   4   5
ATOM      5  O   UNL     1       3.151  40.025  50.051  1.00  0.00    -0.394 OA
ATOM      6  H   UNL     1       3.341  39.704  50.954  1.00  0.00     0.210 HD
ENDBRANCH   4   5
ENDBRANCH   3   4
ENDBRANCH   2   3
ENDBRANCH   1   2
BRANCH   1   7
ATOM      7  C   UNL     1       7.386  43.449  49.710  1.00  0.00     0.143 C 
BRANCH   7   8
ATOM      8  N   UNL     1       7.104  44.871  49.929  1.00  0.00    -0.367 N 
ATOM      9  H   UNL     1       7.885  45.447  49.625  1.00  0.00     0.162 HD
BRANCH   8  10
ATOM     10  C   UNL     1       6.775  45.243  51.247  1.00  0.00     0.133 A 
ATOM     11  N   UNL     1       5.541  44.995  51.707  1.00  0.00    -0.211 NA
ATOM     12  C   UNL     1       7.732  45.886  52.030  1.00  0.00     0.016 A 
ATOM     13  C   UNL     1       5.249  45.357  52.967  1.00  0.00     0.161 A 
ATOM     14  C   UNL     1       7.349  46.203  53.327  1.00  0.00     0.050 A 
ATOM     15  C   UNL     1       9.120  46.174  51.523  1.00  0.00     0.041 C 
ATOM     16  N   UNL     1       6.115  45.949  53.804  1.00  0.00    -0.233 NA
ATOM     17  C   UNL     1       8.280  46.914  54.274  1.00  0.00     0.057 C 
ATOM     18  C   UNL     1       9.899  47.163  52.391  1.00  0.00     0.005 C 
ATOM     19  C   UNL     1       9.746  46.815  53.865  1.00  0.00     0.007 C 
BRANCH  13  20
ATOM     20  C   UNL     1       3.884  45.080  53.465  1.00  0.00     0.019 A 
ATOM     21  C   UNL     1       2.877  44.583  52.613  1.00  0.00     0.013 A 
ATOM     22  C   UNL     1       3.532  45.301  54.812  1.00  0.00     0.013 A 
ATOM     23  C   UNL     1       1.584  44.320  53.081  1.00  0.00     0.021 A 
ATOM     24  C   UNL     1       2.241  45.040  55.287  1.00  0.00     0.021 A 
ATOM     25  C   UNL     1       1.272  44.550  54.417  1.00  0.00     0.041 A 
ATOM     26  Cl  UNL     1      -0.315  44.228  54.995  1.00  0.00    -0.084 Cl
ENDBRANCH  13  20
ENDBRANCH   8  10
ENDBRANCH   7   8
ENDBRANCH   1   7
TORSDOF 8
ENDMDL
MODEL 11
REMARK VINA RESULT:    -7.631      1.815      2.240
REMARK INTER + INTRA:         -11.634
REMARK INTER:                 -10.626
REMARK INTRA:                  -1.007
REMARK UNBOUND:                -0.657
REMARK SMILES OCCOCCNc1nc(-c2ccc(Cl)cc2)nc2c1CCCC2
REMARK SMILES IDX 5 1 4 2 3 3 2 4 1 5 6 7 7 8 8 10 9 11 20 12 10 13 19 14
REMARK SMILES IDX 21 15 18 16 24 17 22 18 23 19 11 20 12 21 17 22 13 23 16 24
REMARK SMILES IDX 14 25 15 26
REMARK H PARENT 1 6 7 9
ROOT
ATOM      1  C   UNL     1       8.021  47.240  51.949  1.00  0.00     0.181 C 
ENDROOT
BRANCH   1   2
ATOM      2  O   UNL     1       7.573  47.821  53.181  1.00  0.00    -0.377 OA
BRANCH   2   3
ATOM      3  C   UNL     1       7.460  46.858  54.238  1.00  0.00     0.188 C 
BRANCH   3   4
ATOM      4  C   UNL     1       6.040  46.935  54.790  1.00  0.00     0.184 C 
BRANCH   4   5
ATOM      5  O   UNL     1       5.201  47.628  53.868  1.00  0.00    -0.394 OA
ATOM      6  H   UNL     1       5.509  48.555  53.890  1.00  0.00     0.210 HD
ENDBRANCH   4   5
ENDBRANCH   3   4
ENDBRANCH   2   3
ENDBRANCH   1   2
BRANCH   1   7
ATOM      7  C   UNL     1       7.403  45.851  51.726  1.00  0.00     0.143 C 
BRANCH   7   8
ATOM      8  N   UNL     1       6.072  45.921  51.114  1.00  0.00    -0.367 N 
ATOM      9  H   UNL     1       5.633  46.819  51.303  1.00  0.00     0.162 HD
BRANCH   8  10
ATOM     10  C   UNL     1       5.167  44.906  51.478  1.00  0.00     0.133 A 
ATOM     11  N   UNL     1       4.254  45.156  52.427  1.00  0.00    -0.211 NA
ATOM     12  C   UNL     1       5.263  43.659  50.866  1.00  0.00     0.016 A 
ATOM     13  C   UNL     1       3.399  44.174  52.759  1.00  0.00     0.161 A 
ATOM     14  C   UNL     1       4.325  42.711  51.255  1.00  0.00     0.050 A 
ATOM     15  C   UNL     1       6.288  43.364  49.803  1.00  0.00     0.041 C 
ATOM     16  N   UNL     1       3.395  42.954  52.199  1.00  0.00    -0.233 NA
ATOM     17  C   UNL     1       4.325  41.317  50.686  1.00  0.00     0.057 C 
ATOM     18  C   UNL     1       6.450  41.874  49.500  1.00  0.00     0.005 C 
ATOM     19  C   UNL     1       5.089  41.205  49.369  1.00  0.00     0.007 C 
BRANCH  13  20
ATOM     20  C   UNL     1       2.395  44.459  53.807  1.00  0.00     0.019 A 
ATOM     21  C   UNL     1       2.726  45.200  54.960  1.00  0.00     0.013 A 
ATOM     22  C   UNL     1       1.066  44.002  53.698  1.00  0.00     0.013 A 
ATOM     23  C   UNL     1       1.778  45.472  55.954  1.00  0.00     0.021 A 
ATOM     24  C   UNL     1       0.114  44.270  54.688  1.00  0.00     0.021 A 
ATOM     25  C   UNL     1       0.475  45.005  55.813  1.00  0.00     0.041 A 
ATOM     26  Cl  UNL     1      -0.691  45.336  57.032  1.00  0.00    -0.084 Cl
ENDBRANCH  13  20
ENDBRANCH   8  10
ENDBRANCH   7   8
ENDBRANCH   1   7
TORSDOF 8
ENDMDL
MODEL 12
REMARK VINA RESULT:    -7.562      4.772      8.195
REMARK INTER + INTRA:         -11.535
REMARK INTER:                 -11.014
REMARK INTRA:                  -0.520
REMARK UNBOUND:                -0.657
REMARK SMILES OCCOCCNc1nc(-c2ccc(Cl)cc2)nc2c1CCCC2
REMARK SMILES IDX 5 1 4 2 3 3 2 4 1 5 6 7 7 8 8 10 9 11 20 12 10 13 19 14
REMARK SMILES IDX 21 15 18 16 24 17 22 18 23 19 11 20 12 21 17 22 13 23 16 24
REMARK SMILES IDX 14 25 15 26
REMARK H PARENT 1 6 7 9
ROOT
ATOM      1  C   UNL     1       4.142  40.839  48.938  1.00  0.00     0.181 C 
ENDROOT
BRANCH   1   2
ATOM      2  O   UNL     1       3.160  39.873  48.539  1.00  0.00    -0.377 OA
BRANCH   2   3
ATOM      3  C   UNL     1       3.216  39.574  47.137  1.00  0.00     0.188 C 
BRANCH   3   4
ATOM      4  C   UNL     1       2.772  38.127  46.950  1.00  0.00     0.184 C 
BRANCH   4   5
ATOM      5  O   UNL     1       3.781  37.399  46.253  1.00  0.00    -0.394 OA
ATOM      6  H   UNL     1       3.621  36.462  46.478  1.00  0.00     0.210 HD
ENDBRANCH   4   5
ENDBRANCH   3   4
ENDBRANCH   2   3
ENDBRANCH   1   2
BRANCH   1   7
ATOM      7  C   UNL     1       4.064  41.130  50.444  1.00  0.00     0.143 C 
BRANCH   7   8
ATOM      8  N   UNL     1       2.876  41.910  50.805  1.00  0.00    -0.367 N 
ATOM      9  H   UNL     1       2.442  42.312  49.978  1.00  0.00     0.162 HD
BRANCH   8  10
ATOM     10  C   UNL     1       3.073  42.943  51.741  1.00  0.00     0.133 A 
ATOM     11  N   UNL     1       4.263  43.559  51.793  1.00  0.00    -0.211 NA
ATOM     12  C   UNL     1       2.037  43.278  52.610  1.00  0.00     0.016 A 
ATOM     13  C   UNL     1       4.428  44.544  52.692  1.00  0.00     0.161 A 
ATOM     14  C   UNL     1       2.291  44.322  53.491  1.00  0.00     0.050 A 
ATOM     15  C   UNL     1       0.699  42.590  52.565  1.00  0.00     0.041 C 
ATOM     16  N   UNL     1       3.478  44.956  53.544  1.00  0.00    -0.233 NA
ATOM     17  C   UNL     1       1.264  44.776  54.496  1.00  0.00     0.057 C 
ATOM     18  C   UNL     1      -0.173  42.861  53.792  1.00  0.00     0.005 C 
ATOM     19  C   UNL     1      -0.155  44.342  54.143  1.00  0.00     0.007 C 
BRANCH  13  20
ATOM     20  C   UNL     1       5.744  45.217  52.742  1.00  0.00     0.019 A 
ATOM     21  C   UNL     1       6.329  45.598  53.967  1.00  0.00     0.013 A 
ATOM     22  C   UNL     1       6.469  45.505  51.568  1.00  0.00     0.013 A 
ATOM     23  C   UNL     1       7.575  46.236  54.017  1.00  0.00     0.021 A 
ATOM     24  C   UNL     1       7.715  46.142  51.612  1.00  0.00     0.021 A 
ATOM     25  C   UNL     1       8.263  46.504  52.838  1.00  0.00     0.041 A 
ATOM     26  Cl  UNL     1       9.792  47.287  52.897  1.00  0.00    -0.084 Cl
ENDBRANCH  13  20
ENDBRANCH   8  10
ENDBRANCH   7   8
ENDBRANCH   1   7
TORSDOF 8
ENDMDL
MODEL 13
REMARK VINA RESULT:    -7.459      4.535      7.808
REMARK INTER + INTRA:         -11.386
REMARK INTER:                 -10.835
REMARK INTRA:                  -0.552
REMARK UNBOUND:                -0.657
REMARK SMILES OCCOCCNc1nc(-c2ccc(Cl)cc2)nc2c1CCCC2
REMARK SMILES IDX 5 1 4 2 3 3 2 4 1 5 6 7 7 8 8 10 9 11 20 12 10 13 19 14
REMARK SMILES IDX 21 15 18 16 24 17 22 18 23 19 11 20 12 21 17 22 13 23 16 24
REMARK SMILES IDX 14 25 15 26
REMARK H PARENT 1 6 7 9
ROOT
ATOM      1  C   UNL     1       3.513  40.398  49.256  1.00  0.00     0.181 C 
ENDROOT
BRANCH   1   2
ATOM      2  O   UNL     1       4.356  40.543  48.105  1.00  0.00    -0.377 OA
BRANCH   2   3
ATOM      3  C   UNL     1       3.631  40.439  46.872  1.00  0.00     0.188 C 
BRANCH   3   4
ATOM      4  C   UNL     1       4.448  41.138  45.789  1.00  0.00     0.184 C 
BRANCH   4   5
ATOM      5  O   UNL     1       5.815  41.210  46.188  1.00  0.00    -0.394 OA
ATOM      6  H   UNL     1       5.834  41.861  46.917  1.00  0.00     0.210 HD
ENDBRANCH   4   5
ENDBRANCH   3   4
ENDBRANCH   2   3
ENDBRANCH   1   2
BRANCH   1   7
ATOM      7  C   UNL     1       3.902  41.387  50.365  1.00  0.00     0.143 C 
BRANCH   7   8
ATOM      8  N   UNL     1       2.735  41.919  51.076  1.00  0.00    -0.367 N 
ATOM      9  H   UNL     1       2.016  42.217  50.421  1.00  0.00     0.162 HD
BRANCH   8  10
ATOM     10  C   UNL     1       2.982  42.983  51.966  1.00  0.00     0.133 A 
ATOM     11  N   UNL     1       4.186  43.572  51.961  1.00  0.00    -0.211 NA
ATOM     12  C   UNL     1       1.979  43.375  52.850  1.00  0.00     0.016 A 
ATOM     13  C   UNL     1       4.400  44.585  52.817  1.00  0.00     0.161 A 
ATOM     14  C   UNL     1       2.282  44.445  53.683  1.00  0.00     0.050 A 
ATOM     15  C   UNL     1       0.625  42.717  52.869  1.00  0.00     0.041 C 
ATOM     16  N   UNL     1       3.484  45.052  53.679  1.00  0.00    -0.233 NA
ATOM     17  C   UNL     1       1.295  44.960  54.698  1.00  0.00     0.057 C 
ATOM     18  C   UNL     1      -0.205  43.055  54.108  1.00  0.00     0.005 C 
ATOM     19  C   UNL     1      -0.144  44.547  54.402  1.00  0.00     0.007 C 
BRANCH  13  20
ATOM     20  C   UNL     1       5.731  45.228  52.804  1.00  0.00     0.019 A 
ATOM     21  C   UNL     1       6.368  45.626  53.998  1.00  0.00     0.013 A 
ATOM     22  C   UNL     1       6.422  45.470  51.598  1.00  0.00     0.013 A 
ATOM     23  C   UNL     1       7.629  46.235  53.989  1.00  0.00     0.021 A 
ATOM     24  C   UNL     1       7.682  46.078  51.583  1.00  0.00     0.021 A 
ATOM     25  C   UNL     1       8.280  46.458  52.780  1.00  0.00     0.041 A 
ATOM     26  Cl  UNL     1       9.828  47.205  52.766  1.00  0.00    -0.084 Cl
ENDBRANCH  13  20
ENDBRANCH   8  10
ENDBRANCH   7   8
ENDBRANCH   1   7
TORSDOF 8
ENDMDL
MODEL 14
REMARK VINA RESULT:    -7.414      3.774      6.163
REMARK INTER + INTRA:         -11.322
REMARK INTER:                  -9.999
REMARK INTRA:                  -1.324
REMARK UNBOUND:                -0.657
REMARK SMILES OCCOCCNc1nc(-c2ccc(Cl)cc2)nc2c1CCCC2
REMARK SMILES IDX 5 1 4 2 3 3 2 4 1 5 6 7 7 8 8 10 9 11 20 12 10 13 19 14
REMARK SMILES IDX 21 15 18 16 24 17 22 18 23 19 11 20 12 21 17 22 13 23 16 24
REMARK SMILES IDX 14 25 15 26
REMARK H PARENT 1 6 7 9
ROOT
ATOM      1  C   UNL     1       0.849  43.737  51.945  1.00  0.00     0.181 C 
ENDROOT
BRANCH   1   2
ATOM      2  O   UNL     1       1.175  45.061  51.500  1.00  0.00    -0.377 OA
BRANCH   2   3
ATOM      3  C   UNL     1       1.622  45.909  52.566  1.00  0.00     0.188 C 
BRANCH   3   4
ATOM      4  C   UNL     1       2.794  46.735  52.047  1.00  0.00     0.184 C 
BRANCH   4   5
ATOM      5  O   UNL     1       3.259  46.190  50.814  1.00  0.00    -0.394 OA
ATOM      6  H   UNL     1       3.314  45.227  50.965  1.00  0.00     0.210 HD
ENDBRANCH   4   5
ENDBRANCH   3   4
ENDBRANCH   2   3
ENDBRANCH   1   2
BRANCH   1   7
ATOM      7  C   UNL     1       1.763  43.291  53.097  1.00  0.00     0.143 C 
BRANCH   7   8
ATOM      8  N   UNL     1       2.747  42.289  52.677  1.00  0.00    -0.367 N 
ATOM      9  H   UNL     1       3.045  41.720  53.466  1.00  0.00     0.162 HD
BRANCH   8  10
ATOM     10  C   UNL     1       3.899  42.781  52.033  1.00  0.00     0.133 A 
ATOM     11  N   UNL     1       4.610  43.752  52.622  1.00  0.00    -0.211 NA
ATOM     12  C   UNL     1       4.252  42.268  50.788  1.00  0.00     0.016 A 
ATOM     13  C   UNL     1       5.707  44.206  51.992  1.00  0.00     0.161 A 
ATOM     14  C   UNL     1       5.412  42.781  50.221  1.00  0.00     0.050 A 
ATOM     15  C   UNL     1       3.458  41.180  50.114  1.00  0.00     0.041 C 
ATOM     16  N   UNL     1       6.142  43.748  50.808  1.00  0.00    -0.233 NA
ATOM     17  C   UNL     1       5.900  42.326  48.870  1.00  0.00     0.057 C 
ATOM     18  C   UNL     1       3.804  40.991  48.636  1.00  0.00     0.005 C 
ATOM     19  C   UNL     1       5.313  40.986  48.438  1.00  0.00     0.007 C 
BRANCH  13  20
ATOM     20  C   UNL     1       6.484  45.278  52.649  1.00  0.00     0.019 A 
ATOM     21  C   UNL     1       7.490  45.986  51.960  1.00  0.00     0.013 A 
ATOM     22  C   UNL     1       6.254  45.639  53.993  1.00  0.00     0.013 A 
ATOM     23  C   UNL     1       8.229  47.002  52.579  1.00  0.00     0.021 A 
ATOM     24  C   UNL     1       6.988  46.654  54.617  1.00  0.00     0.021 A 
ATOM     25  C   UNL     1       7.973  47.331  53.906  1.00  0.00     0.041 A 
ATOM     26  Cl  UNL     1       8.878  48.578  54.670  1.00  0.00    -0.084 Cl
ENDBRANCH  13  20
ENDBRANCH   8  10
ENDBRANCH   7   8
ENDBRANCH   1   7
TORSDOF 8
ENDMDL
MODEL 15
REMARK VINA RESULT:    -7.287      3.856      7.203
REMARK INTER + INTRA:         -11.139
REMARK INTER:                 -10.365
REMARK INTRA:                  -0.774
REMARK UNBOUND:                -0.657
REMARK SMILES OCCOCCNc1nc(-c2ccc(Cl)cc2)nc2c1CCCC2
REMARK SMILES IDX 5 1 4 2 3 3 2 4 1 5 6 7 7 8 8 10 9 11 20 12 10 13 19 14
REMARK SMILES IDX 21 15 18 16 24 17 22 18 23 19 11 20 12 21 17 22 13 23 16 24
REMARK SMILES IDX 14 25 15 26
REMARK H PARENT 1 6 7 9
ROOT
ATOM      1  C   UNL     1       3.079  41.847  50.382  1.00  0.00     0.181 C 
ENDROOT
BRANCH   1   2
ATOM      2  O   UNL     1       4.350  41.577  50.989  1.00  0.00    -0.377 OA
BRANCH   2   3
ATOM      3  C   UNL     1       5.402  42.393  50.456  1.00  0.00     0.188 C 
BRANCH   3   4
ATOM      4  C   UNL     1       6.172  41.556  49.440  1.00  0.00     0.184 C 
BRANCH   4   5
ATOM      5  O   UNL     1       7.216  40.840  50.097  1.00  0.00    -0.394 OA
ATOM      6  H   UNL     1       7.074  39.904  49.858  1.00  0.00     0.210 HD
ENDBRANCH   4   5
ENDBRANCH   3   4
ENDBRANCH   2   3
ENDBRANCH   1   2
BRANCH   1   7
ATOM      7  C   UNL     1       2.046  42.311  51.421  1.00  0.00     0.143 C 
BRANCH   7   8
ATOM      8  N   UNL     1       1.896  43.769  51.450  1.00  0.00    -0.367 N 
ATOM      9  H   UNL     1       2.263  44.189  50.600  1.00  0.00     0.162 HD
BRANCH   8  10
ATOM     10  C   UNL     1       2.477  44.431  52.549  1.00  0.00     0.133 A 
ATOM     11  N   UNL     1       3.760  44.813  52.477  1.00  0.00    -0.211 NA
ATOM     12  C   UNL     1       1.714  44.643  53.695  1.00  0.00     0.016 A 
ATOM     13  C   UNL     1       4.294  45.444  53.536  1.00  0.00     0.161 A 
ATOM     14  C   UNL     1       2.342  45.322  54.732  1.00  0.00     0.050 A 
ATOM     15  C   UNL     1       0.274  44.213  53.790  1.00  0.00     0.041 C 
ATOM     16  N   UNL     1       3.627  45.722  54.666  1.00  0.00    -0.233 NA
ATOM     17  C   UNL     1       1.638  45.604  56.033  1.00  0.00     0.057 C 
ATOM     18  C   UNL     1      -0.280  44.232  55.216  1.00  0.00     0.005 C 
ATOM     19  C   UNL     1       0.118  45.518  55.926  1.00  0.00     0.007 C 
BRANCH  13  20
ATOM     20  C   UNL     1       5.710  45.861  53.447  1.00  0.00     0.019 A 
ATOM     21  C   UNL     1       6.445  45.721  52.252  1.00  0.00     0.013 A 
ATOM     22  C   UNL     1       6.385  46.418  54.553  1.00  0.00     0.013 A 
ATOM     23  C   UNL     1       7.786  46.115  52.164  1.00  0.00     0.021 A 
ATOM     24  C   UNL     1       7.725  46.814  54.471  1.00  0.00     0.021 A 
ATOM     25  C   UNL     1       8.420  46.661  53.276  1.00  0.00     0.041 A 
ATOM     26  Cl  UNL     1      10.066  47.146  53.172  1.00  0.00    -0.084 Cl
ENDBRANCH  13  20
ENDBRANCH   8  10
ENDBRANCH   7   8
ENDBRANCH   1   7
TORSDOF 8
ENDMDL
MODEL 16
REMARK VINA RESULT:    -7.276      4.215      7.155
REMARK INTER + INTRA:         -11.124
REMARK INTER:                 -10.482
REMARK INTRA:                  -0.642
REMARK UNBOUND:                -0.657
REMARK SMILES OCCOCCNc1nc(-c2ccc(Cl)cc2)nc2c1CCCC2
REMARK SMILES IDX 5 1 4 2 3 3 2 4 1 5 6 7 7 8 8 10 9 11 20 12 10 13 19 14
REMARK SMILES IDX 21 15 18 16 24 17 22 18 23 19 11 20 12 21 17 22 13 23 16 24
REMARK SMILES IDX 14 25 15 26
REMARK H PARENT 1 6 7 9
ROOT
ATOM      1  C   UNL     1       0.106  45.876  56.562  1.00  0.00     0.181 C 
ENDROOT
BRANCH   1   2
ATOM      2  O   UNL     1      -0.175  46.051  57.957  1.00  0.00    -0.377 OA
BRANCH   2   3
ATOM      3  C   UNL     1       0.098  47.383  58.414  1.00  0.00     0.188 C 
BRANCH   3   4
ATOM      4  C   UNL     1       0.837  47.278  59.745  1.00  0.00     0.184 C 
BRANCH   4   5
ATOM      5  O   UNL     1       2.185  46.874  59.517  1.00  0.00    -0.394 OA
ATOM      6  H   UNL     1       2.733  47.588  59.898  1.00  0.00     0.210 HD
ENDBRANCH   4   5
ENDBRANCH   3   4
ENDBRANCH   2   3
ENDBRANCH   1   2
BRANCH   1   7
ATOM      7  C   UNL     1       1.619  45.861  56.291  1.00  0.00     0.143 C 
BRANCH   7   8
ATOM      8  N   UNL     1       2.083  44.572  55.771  1.00  0.00    -0.367 N 
ATOM      9  H   UNL     1       2.789  44.167  56.381  1.00  0.00     0.162 HD
BRANCH   8  10
ATOM     10  C   UNL     1       2.593  44.579  54.458  1.00  0.00     0.133 A 
ATOM     11  N   UNL     1       3.844  45.010  54.246  1.00  0.00    -0.211 NA
ATOM     12  C   UNL     1       1.773  44.168  53.409  1.00  0.00     0.016 A 
ATOM     13  C   UNL     1       4.311  45.008  52.986  1.00  0.00     0.161 A 
ATOM     14  C   UNL     1       2.347  44.178  52.143  1.00  0.00     0.050 A 
ATOM     15  C   UNL     1       0.364  43.687  53.633  1.00  0.00     0.041 C 
ATOM     16  N   UNL     1       3.607  44.598  51.920  1.00  0.00    -0.233 NA
ATOM     17  C   UNL     1       1.568  43.774  50.919  1.00  0.00     0.057 C 
ATOM     18  C   UNL     1      -0.468  43.600  52.353  1.00  0.00     0.005 C 
ATOM     19  C   UNL     1       0.333  42.938  51.240  1.00  0.00     0.007 C 
BRANCH  13  20
ATOM     20  C   UNL     1       5.692  45.486  52.763  1.00  0.00     0.019 A 
ATOM     21  C   UNL     1       6.543  45.809  53.840  1.00  0.00     0.013 A 
ATOM     22  C   UNL     1       6.218  45.638  51.463  1.00  0.00     0.013 A 
ATOM     23  C   UNL     1       7.851  46.261  53.632  1.00  0.00     0.021 A 
ATOM     24  C   UNL     1       7.526  46.090  51.249  1.00  0.00     0.021 A 
ATOM     25  C   UNL     1       8.337  46.400  52.336  1.00  0.00     0.041 A 
ATOM     26  Cl  UNL     1       9.943  46.955  52.076  1.00  0.00    -0.084 Cl
ENDBRANCH  13  20
ENDBRANCH   8  10
ENDBRANCH   7   8
ENDBRANCH   1   7
TORSDOF 8
ENDMDL
MODEL 17
REMARK VINA RESULT:    -7.268      4.418      6.954
REMARK INTER + INTRA:         -11.112
REMARK INTER:                 -10.582
REMARK INTRA:                  -0.530
REMARK UNBOUND:                -0.657
REMARK SMILES OCCOCCNc1nc(-c2ccc(Cl)cc2)nc2c1CCCC2
REMARK SMILES IDX 5 1 4 2 3 3 2 4 1 5 6 7 7 8 8 10 9 11 20 12 10 13 19 14
REMARK SMILES IDX 21 15 18 16 24 17 22 18 23 19 11 20 12 21 17 22 13 23 16 24
REMARK SMILES IDX 14 25 15 26
REMARK H PARENT 1 6 7 9
ROOT
ATOM      1  C   UNL     1       3.767  40.451  48.237  1.00  0.00     0.181 C 
ENDROOT
BRANCH   1   2
ATOM      2  O   UNL     1       2.996  39.300  47.867  1.00  0.00    -0.377 OA
BRANCH   2   3
ATOM      3  C   UNL     1       3.050  39.028  46.460  1.00  0.00     0.188 C 
BRANCH   3   4
ATOM      4  C   UNL     1       2.953  37.517  46.272  1.00  0.00     0.184 C 
BRANCH   4   5
ATOM      5  O   UNL     1       4.193  37.012  45.782  1.00  0.00    -0.394 OA
ATOM      6  H   UNL     1       3.950  36.308  45.149  1.00  0.00     0.210 HD
ENDBRANCH   4   5
ENDBRANCH   3   4
ENDBRANCH   2   3
ENDBRANCH   1   2
BRANCH   1   7
ATOM      7  C   UNL     1       3.543  40.828  49.710  1.00  0.00     0.143 C 
BRANCH   7   8
ATOM      8  N   UNL     1       4.789  41.188  50.393  1.00  0.00    -0.367 N 
ATOM      9  H   UNL     1       5.029  40.496  51.099  1.00  0.00     0.162 HD
BRANCH   8  10
ATOM     10  C   UNL     1       4.820  42.459  50.999  1.00  0.00     0.133 A 
ATOM     11  N   UNL     1       3.873  42.779  51.891  1.00  0.00    -0.211 NA
ATOM     12  C   UNL     1       5.816  43.361  50.632  1.00  0.00     0.016 A 
ATOM     13  C   UNL     1       3.922  43.997  52.458  1.00  0.00     0.161 A 
ATOM     14  C   UNL     1       5.802  44.587  51.286  1.00  0.00     0.050 A 
ATOM     15  C   UNL     1       6.882  43.015  49.626  1.00  0.00     0.041 C 
ATOM     16  N   UNL     1       4.862  44.917  52.193  1.00  0.00    -0.233 NA
ATOM     17  C   UNL     1       6.811  45.662  50.973  1.00  0.00     0.057 C 
ATOM     18  C   UNL     1       7.667  44.226  49.120  1.00  0.00     0.005 C 
ATOM     19  C   UNL     1       8.061  45.129  50.280  1.00  0.00     0.007 C 
BRANCH  13  20
ATOM     20  C   UNL     1       2.873  44.341  53.441  1.00  0.00     0.019 A 
ATOM     21  C   UNL     1       1.534  43.940  53.259  1.00  0.00     0.013 A 
ATOM     22  C   UNL     1       3.167  45.086  54.602  1.00  0.00     0.013 A 
ATOM     23  C   UNL     1       0.538  44.265  54.189  1.00  0.00     0.021 A 
ATOM     24  C   UNL     1       2.176  45.414  55.535  1.00  0.00     0.021 A 
ATOM     25  C   UNL     1       0.864  45.001  55.323  1.00  0.00     0.041 A 
ATOM     26  Cl  UNL     1      -0.356  45.401  56.466  1.00  0.00    -0.084 Cl
ENDBRANCH  13  20
ENDBRANCH   8  10
ENDBRANCH   7   8
ENDBRANCH   1   7
TORSDOF 8
ENDMDL
MODEL 18
REMARK VINA RESULT:    -7.165      2.508      3.373
REMARK INTER + INTRA:         -10.964
REMARK INTER:                 -10.212
REMARK INTRA:                  -0.752
REMARK UNBOUND:                -0.657
REMARK SMILES OCCOCCNc1nc(-c2ccc(Cl)cc2)nc2c1CCCC2
REMARK SMILES IDX 5 1 4 2 3 3 2 4 1 5 6 7 7 8 8 10 9 11 20 12 10 13 19 14
REMARK SMILES IDX 21 15 18 16 24 17 22 18 23 19 11 20 12 21 17 22 13 23 16 24
REMARK SMILES IDX 14 25 15 26
REMARK H PARENT 1 6 7 9
ROOT
ATOM      1  C   UNL     1       6.858  46.822  54.593  1.00  0.00     0.181 C 
ENDROOT
BRANCH   1   2
ATOM      2  O   UNL     1       5.599  47.507  54.624  1.00  0.00    -0.377 OA
BRANCH   2   3
ATOM      3  C   UNL     1       4.520  46.662  55.047  1.00  0.00     0.188 C 
BRANCH   3   4
ATOM      4  C   UNL     1       5.107  45.300  55.406  1.00  0.00     0.184 C 
BRANCH   4   5
ATOM      5  O   UNL     1       4.407  44.274  54.707  1.00  0.00    -0.394 OA
ATOM      6  H   UNL     1       4.726  43.436  55.096  1.00  0.00     0.210 HD
ENDBRANCH   4   5
ENDBRANCH   3   4
ENDBRANCH   2   3
ENDBRANCH   1   2
BRANCH   1   7
ATOM      7  C   UNL     1       7.531  46.945  53.217  1.00  0.00     0.143 C 
BRANCH   7   8
ATOM      8  N   UNL     1       6.564  47.166  52.137  1.00  0.00    -0.367 N 
ATOM      9  H   UNL     1       5.822  47.793  52.438  1.00  0.00     0.162 HD
BRANCH   8  10
ATOM     10  C   UNL     1       5.967  46.012  51.593  1.00  0.00     0.133 A 
ATOM     11  N   UNL     1       4.686  45.742  51.880  1.00  0.00    -0.211 NA
ATOM     12  C   UNL     1       6.732  45.164  50.796  1.00  0.00     0.016 A 
ATOM     13  C   UNL     1       4.136  44.637  51.350  1.00  0.00     0.161 A 
ATOM     14  C   UNL     1       6.075  44.057  50.273  1.00  0.00     0.050 A 
ATOM     15  C   UNL     1       8.174  45.453  50.471  1.00  0.00     0.041 C 
ATOM     16  N   UNL     1       4.785  43.782  50.545  1.00  0.00    -0.233 NA
ATOM     17  C   UNL     1       6.788  43.050  49.408  1.00  0.00     0.057 C 
ATOM     18  C   UNL     1       8.921  44.260  49.872  1.00  0.00     0.005 C 
ATOM     19  C   UNL     1       8.078  43.587  48.798  1.00  0.00     0.007 C 
BRANCH  13  20
ATOM     20  C   UNL     1       2.722  44.348  51.673  1.00  0.00     0.019 A 
ATOM     21  C   UNL     1       2.200  43.041  51.585  1.00  0.00     0.013 A 
ATOM     22  C   UNL     1       1.837  45.366  52.083  1.00  0.00     0.013 A 
ATOM     23  C   UNL     1       0.862  42.764  51.891  1.00  0.00     0.021 A 
ATOM     24  C   UNL     1       0.499  45.096  52.390  1.00  0.00     0.021 A 
ATOM     25  C   UNL     1       0.017  43.794  52.292  1.00  0.00     0.041 A 
ATOM     26  Cl  UNL     1      -1.627  43.457  52.668  1.00  0.00    -0.084 Cl
ENDBRANCH  13  20
ENDBRANCH   8  10
ENDBRANCH   7   8
ENDBRANCH   1   7
TORSDOF 8
ENDMDL
MODEL 19
REMARK VINA RESULT:    -7.097      3.377      6.289
REMARK INTER + INTRA:         -10.867
REMARK INTER:                 -10.416
REMARK INTRA:                  -0.451
REMARK UNBOUND:                -0.657
REMARK SMILES OCCOCCNc1nc(-c2ccc(Cl)cc2)nc2c1CCCC2
REMARK SMILES IDX 5 1 4 2 3 3 2 4 1 5 6 7 7 8 8 10 9 11 20 12 10 13 19 14
REMARK SMILES IDX 21 15 18 16 24 17 22 18 23 19 11 20 12 21 17 22 13 23 16 24
REMARK SMILES IDX 14 25 15 26
REMARK H PARENT 1 6 7 9
ROOT
ATOM      1  C   UNL     1       4.132  46.187  55.331  1.00  0.00     0.181 C 
ENDROOT
BRANCH   1   2
ATOM      2  O   UNL     1       4.337  47.355  54.525  1.00  0.00    -0.377 OA
BRANCH   2   3
ATOM      3  C   UNL     1       5.444  47.217  53.623  1.00  0.00     0.188 C 
BRANCH   3   4
ATOM      4  C   UNL     1       6.557  46.478  54.360  1.00  0.00     0.184 C 
BRANCH   4   5
ATOM      5  O   UNL     1       7.464  47.419  54.931  1.00  0.00    -0.394 OA
ATOM      6  H   UNL     1       8.144  46.878  55.378  1.00  0.00     0.210 HD
ENDBRANCH   4   5
ENDBRANCH   3   4
ENDBRANCH   2   3
ENDBRANCH   1   2
BRANCH   1   7
ATOM      7  C   UNL     1       2.636  45.882  55.507  1.00  0.00     0.143 C 
BRANCH   7   8
ATOM      8  N   UNL     1       2.309  44.486  55.203  1.00  0.00    -0.367 N 
ATOM      9  H   UNL     1       2.937  43.851  55.690  1.00  0.00     0.162 HD
BRANCH   8  10
ATOM     10  C   UNL     1       2.302  44.132  53.840  1.00  0.00     0.133 A 
ATOM     11  N   UNL     1       3.455  44.147  53.156  1.00  0.00    -0.211 NA
ATOM     12  C   UNL     1       1.094  43.807  53.229  1.00  0.00     0.016 A 
ATOM     13  C   UNL     1       3.427  43.805  51.857  1.00  0.00     0.161 A 
ATOM     14  C   UNL     1       1.162  43.445  51.889  1.00  0.00     0.050 A 
ATOM     15  C   UNL     1      -0.209  43.792  53.985  1.00  0.00     0.041 C 
ATOM     16  N   UNL     1       2.317  43.445  51.195  1.00  0.00    -0.233 NA
ATOM     17  C   UNL     1      -0.071  43.087  51.102  1.00  0.00     0.057 C 
ATOM     18  C   UNL     1      -1.443  43.739  53.083  1.00  0.00     0.005 C 
ATOM     19  C   UNL     1      -1.256  42.703  51.984  1.00  0.00     0.007 C 
BRANCH  13  20
ATOM     20  C   UNL     1       4.703  43.825  51.111  1.00  0.00     0.019 A 
ATOM     21  C   UNL     1       5.478  44.999  51.009  1.00  0.00     0.013 A 
ATOM     22  C   UNL     1       5.201  42.671  50.471  1.00  0.00     0.013 A 
ATOM     23  C   UNL     1       6.687  45.020  50.304  1.00  0.00     0.021 A 
ATOM     24  C   UNL     1       6.409  42.686  49.765  1.00  0.00     0.021 A 
ATOM     25  C   UNL     1       7.147  43.863  49.685  1.00  0.00     0.041 A 
ATOM     26  Cl  UNL     1       8.632  43.886  48.818  1.00  0.00    -0.084 Cl
ENDBRANCH  13  20
ENDBRANCH   8  10
ENDBRANCH   7   8
ENDBRANCH   1   7
TORSDOF 8
ENDMDL
MODEL 20
REMARK VINA RESULT:    -7.090      3.015      5.261
REMARK INTER + INTRA:         -10.857
REMARK INTER:                 -10.135
REMARK INTRA:                  -0.722
REMARK UNBOUND:                -0.657
REMARK SMILES OCCOCCNc1nc(-c2ccc(Cl)cc2)nc2c1CCCC2
REMARK SMILES IDX 5 1 4 2 3 3 2 4 1 5 6 7 7 8 8 10 9 11 20 12 10 13 19 14
REMARK SMILES IDX 21 15 18 16 24 17 22 18 23 19 11 20 12 21 17 22 13 23 16 24
REMARK SMILES IDX 14 25 15 26
REMARK H PARENT 1 6 7 9
ROOT
ATOM      1  C   UNL     1       4.388  41.307  50.817  1.00  0.00     0.181 C 
ENDROOT
BRANCH   1   2
ATOM      2  O   UNL     1       5.035  41.661  49.587  1.00  0.00    -0.377 OA
BRANCH   2   3
ATOM      3  C   UNL     1       6.463  41.699  49.704  1.00  0.00     0.188 C 
BRANCH   3   4
ATOM      4  C   UNL     1       6.942  43.036  49.148  1.00  0.00     0.184 C 
BRANCH   4   5
ATOM      5  O   UNL     1       8.366  43.099  49.201  1.00  0.00    -0.394 OA
ATOM      6  H   UNL     1       8.627  42.418  49.851  1.00  0.00     0.210 HD
ENDBRANCH   4   5
ENDBRANCH   3   4
ENDBRANCH   2   3
ENDBRANCH   1   2
BRANCH   1   7
ATOM      7  C   UNL     1       3.348  42.360  51.228  1.00  0.00     0.143 C 
BRANCH   7   8
ATOM      8  N   UNL     1       3.894  43.721  51.220  1.00  0.00    -0.367 N 
ATOM      9  H   UNL     1       4.870  43.719  50.935  1.00  0.00     0.162 HD
BRANCH   8  10
ATOM     10  C   UNL     1       3.794  44.437  52.429  1.00  0.00     0.133 A 
ATOM     11  N   UNL     1       2.659  44.363  53.139  1.00  0.00    -0.211 NA
ATOM     12  C   UNL     1       4.864  45.227  52.840  1.00  0.00     0.016 A 
ATOM     13  C   UNL     1       2.585  45.053  54.290  1.00  0.00     0.161 A 
ATOM     14  C   UNL     1       4.708  45.887  54.053  1.00  0.00     0.050 A 
ATOM     15  C   UNL     1       6.141  45.323  52.049  1.00  0.00     0.041 C 
ATOM     16  N   UNL     1       3.577  45.812  54.781  1.00  0.00    -0.233 NA
ATOM     17  C   UNL     1       5.780  46.788  54.607  1.00  0.00     0.057 C 
ATOM     18  C   UNL     1       7.048  46.476  52.480  1.00  0.00     0.005 C 
ATOM     19  C   UNL     1       7.155  46.532  53.998  1.00  0.00     0.007 C 
BRANCH  13  20
ATOM     20  C   UNL     1       1.329  44.966  55.066  1.00  0.00     0.019 A 
ATOM     21  C   UNL     1       0.172  44.367  54.527  1.00  0.00     0.013 A 
ATOM     22  C   UNL     1       1.236  45.477  56.377  1.00  0.00     0.013 A 
ATOM     23  C   UNL     1      -1.019  44.284  55.260  1.00  0.00     0.021 A 
ATOM     24  C   UNL     1       0.049  45.396  57.114  1.00  0.00     0.021 A 
ATOM     25  C   UNL     1      -1.074  44.799  56.551  1.00  0.00     0.041 A 
ATOM     26  Cl  UNL     1      -2.534  44.697  57.452  1.00  0.00    -0.084 Cl
ENDBRANCH  13  20
ENDBRANCH   8  10
ENDBRANCH   7   8
ENDBRANCH   1   7
TORSDOF 8
ENDMDL
