MODEL 1
REMARK VINA RESULT:    -8.501      0.000      0.000
REMARK INTER + INTRA:         -12.606
REMARK INTER:                 -11.731
REMARK INTRA:                  -0.875
REMARK UNBOUND:                -0.875
REMARK SMILES CCCCNc1nc(Nc2ccc(C)cc2O)c2cnn(C)c2n1
REMARK SMILES IDX 6 1 7 2 8 3 18 4 19 5 20 6 21 7 22 8 23 9 24 10 5 11 4 13
REMARK SMILES IDX 3 14 2 15 1 16 9 17 10 19 11 20 16 21 12 22 15 23 13 24
REMARK SMILES IDX 14 25 17 26
REMARK H PARENT 5 12 9 18 17 27
ROOT
ATOM      1  C   UNL     1       6.159  46.157  52.170  1.00  0.00     0.226 A 
ATOM      2  N   UNL     1       5.066  45.629  52.760  1.00  0.00    -0.195 NA
ATOM      3  C   UNL     1       4.570  44.426  52.368  1.00  0.00     0.147 A 
ATOM      4  C   UNL     1       5.255  43.767  51.338  1.00  0.00     0.082 A 
ATOM      5  C   UNL     1       5.161  42.564  50.608  1.00  0.00     0.149 A 
ATOM      6  N   UNL     1       6.124  42.435  49.689  1.00  0.00    -0.179 NA
ATOM      7  N   UNL     1       6.847  43.569  49.837  1.00  0.00    -0.250 N 
ATOM      8  C   UNL     1       8.002  43.790  49.005  1.00  0.00     0.176 C 
ATOM      9  C   UNL     1       6.361  44.401  50.808  1.00  0.00     0.165 A 
ATOM     10  N   UNL     1       6.852  45.591  51.177  1.00  0.00    -0.193 NA
ENDROOT
BRANCH   1  11
ATOM     11  N   UNL     1       6.547  47.386  52.684  1.00  0.00    -0.354 N 
ATOM     12  H   UNL     1       5.783  48.030  52.511  1.00  0.00     0.163 HD
BRANCH  11  13
ATOM     13  C   UNL     1       7.859  47.868  52.289  1.00  0.00     0.116 C 
BRANCH  13  14
ATOM     14  C   UNL     1       8.809  47.891  53.489  1.00  0.00     0.021 C 
BRANCH  14  15
ATOM     15  C   UNL     1       9.889  46.808  53.426  1.00  0.00    -0.002 C 
ATOM     16  C   UNL     1      10.248  46.387  52.010  1.00  0.00     0.004 C 
ENDBRANCH  14  15
ENDBRANCH  13  14
ENDBRANCH  11  13
ENDBRANCH   1  11
BRANCH   3  17
ATOM     17  N   UNL     1       3.427  43.874  52.962  1.00  0.00    -0.336 N 
ATOM     18  H   UNL     1       3.242  42.937  52.627  1.00  0.00     0.168 HD
BRANCH  17  19
ATOM     19  C   UNL     1       2.452  44.317  53.881  1.00  0.00     0.082 A 
ATOM     20  C   UNL     1       1.107  44.218  53.465  1.00  0.00     0.030 A 
ATOM     21  C   UNL     1       2.669  44.857  55.157  1.00  0.00     0.139 A 
ATOM     22  C   UNL     1       0.041  44.635  54.273  1.00  0.00     0.006 A 
ATOM     23  C   UNL     1       1.608  45.277  55.970  1.00  0.00     0.051 A 
ATOM     24  C   UNL     1       0.286  45.182  55.530  1.00  0.00    -0.047 A 
ATOM     25  C   UNL     1      -0.845  45.601  56.420  1.00  0.00     0.044 C 
BRANCH  21  26
ATOM     26  O   UNL     1       3.900  45.006  55.728  1.00  0.00    -0.506 OA
ATOM     27  H   UNL     1       4.552  44.899  55.006  1.00  0.00     0.293 HD
ENDBRANCH  21  26
ENDBRANCH  17  19
ENDBRANCH   3  17
TORSDOF 7
ENDMDL
MODEL 2
REMARK VINA RESULT:    -8.384      2.145      6.425
REMARK INTER + INTRA:         -12.445
REMARK INTER:                 -11.842
REMARK INTRA:                  -0.603
REMARK UNBOUND:                -0.875
REMARK SMILES CCCCNc1nc(Nc2ccc(C)cc2O)c2cnn(C)c2n1
REMARK SMILES IDX 6 1 7 2 8 3 18 4 19 5 20 6 21 7 22 8 23 9 24 10 5 11 4 13
REMARK SMILES IDX 3 14 2 15 1 16 9 17 10 19 11 20 16 21 12 22 15 23 13 24
REMARK SMILES IDX 14 25 17 26
REMARK H PARENT 5 12 9 18 17 27
ROOT
ATOM      1  C   UNL     1       4.159  43.214  51.570  1.00  0.00     0.226 A 
ATOM      2  N   UNL     1       5.274  43.974  51.560  1.00  0.00    -0.195 NA
ATOM      3  C   UNL     1       5.209  45.315  51.770  1.00  0.00     0.147 A 
ATOM      4  C   UNL     1       3.939  45.856  52.006  1.00  0.00     0.082 A 
ATOM      5  C   UNL     1       3.358  47.114  52.270  1.00  0.00     0.149 A 
ATOM      6  N   UNL     1       2.030  47.057  52.415  1.00  0.00    -0.179 NA
ATOM      7  N   UNL     1       1.758  45.741  52.248  1.00  0.00    -0.250 N 
ATOM      8  C   UNL     1       0.397  45.279  52.346  1.00  0.00     0.176 C 
ATOM      9  C   UNL     1       2.868  44.984  51.994  1.00  0.00     0.165 A 
ATOM     10  N   UNL     1       2.917  43.663  51.777  1.00  0.00    -0.193 NA
ENDROOT
BRANCH   1  11
ATOM     11  N   UNL     1       4.388  41.864  51.348  1.00  0.00    -0.354 N 
ATOM     12  H   UNL     1       5.085  41.569  52.023  1.00  0.00     0.163 HD
BRANCH  11  13
ATOM     13  C   UNL     1       4.656  41.469  49.976  1.00  0.00     0.116 C 
BRANCH  13  14
ATOM     14  C   UNL     1       6.160  41.497  49.691  1.00  0.00     0.021 C 
BRANCH  14  15
ATOM     15  C   UNL     1       6.570  42.601  48.713  1.00  0.00    -0.002 C 
ATOM     16  C   UNL     1       7.757  43.424  49.187  1.00  0.00     0.004 C 
ENDBRANCH  14  15
ENDBRANCH  13  14
ENDBRANCH  11  13
ENDBRANCH   1  11
BRANCH   3  17
ATOM     17  N   UNL     1       6.357  46.118  51.746  1.00  0.00    -0.336 N 
ATOM     18  H   UNL     1       6.538  46.491  50.823  1.00  0.00     0.168 HD
BRANCH  17  19
ATOM     19  C   UNL     1       7.342  46.502  52.682  1.00  0.00     0.082 A 
ATOM     20  C   UNL     1       8.686  46.354  52.275  1.00  0.00     0.030 A 
ATOM     21  C   UNL     1       7.137  47.001  53.976  1.00  0.00     0.139 A 
ATOM     22  C   UNL     1       9.761  46.682  53.111  1.00  0.00     0.006 A 
ATOM     23  C   UNL     1       8.208  47.331  54.817  1.00  0.00     0.051 A 
ATOM     24  C   UNL     1       9.528  47.163  54.397  1.00  0.00    -0.047 A 
ATOM     25  C   UNL     1      10.667  47.552  55.290  1.00  0.00     0.044 C 
BRANCH  21  26
ATOM     26  O   UNL     1       5.907  47.229  54.525  1.00  0.00    -0.506 OA
ATOM     27  H   UNL     1       5.815  48.201  54.595  1.00  0.00     0.293 HD
ENDBRANCH  21  26
ENDBRANCH  17  19
ENDBRANCH   3  17
TORSDOF 7
ENDMDL
MODEL 3
REMARK VINA RESULT:    -8.373      1.648      6.044
REMARK INTER + INTRA:         -12.429
REMARK INTER:                 -11.423
REMARK INTRA:                  -1.006
REMARK UNBOUND:                -0.875
REMARK SMILES CCCCNc1nc(Nc2ccc(C)cc2O)c2cnn(C)c2n1
REMARK SMILES IDX 6 1 7 2 8 3 18 4 19 5 20 6 21 7 22 8 23 9 24 10 5 11 4 13
REMARK SMILES IDX 3 14 2 15 1 16 9 17 10 19 11 20 16 21 12 22 15 23 13 24
REMARK SMILES IDX 14 25 17 26
REMARK H PARENT 5 12 9 18 17 27
ROOT
ATOM      1  C   UNL     1       4.498  43.670  52.127  1.00  0.00     0.226 A 
ATOM      2  N   UNL     1       5.331  44.715  52.309  1.00  0.00    -0.195 NA
ATOM      3  C   UNL     1       6.363  44.946  51.456  1.00  0.00     0.147 A 
ATOM      4  C   UNL     1       6.505  44.056  50.383  1.00  0.00     0.082 A 
ATOM      5  C   UNL     1       7.357  43.864  49.275  1.00  0.00     0.149 A 
ATOM      6  N   UNL     1       7.023  42.799  48.538  1.00  0.00    -0.179 NA
ATOM      7  N   UNL     1       5.938  42.307  49.180  1.00  0.00    -0.250 N 
ATOM      8  C   UNL     1       5.276  41.136  48.663  1.00  0.00     0.176 C 
ATOM      9  C   UNL     1       5.594  43.022  50.295  1.00  0.00     0.165 A 
ATOM     10  N   UNL     1       4.581  42.777  51.135  1.00  0.00    -0.193 NA
ENDROOT
BRANCH   1  11
ATOM     11  N   UNL     1       3.491  43.571  53.076  1.00  0.00    -0.354 N 
ATOM     12  H   UNL     1       2.652  43.283  52.584  1.00  0.00     0.163 HD
BRANCH  11  13
ATOM     13  C   UNL     1       3.322  44.710  53.962  1.00  0.00     0.116 C 
BRANCH  13  14
ATOM     14  C   UNL     1       1.910  45.288  53.833  1.00  0.00     0.021 C 
BRANCH  14  15
ATOM     15  C   UNL     1       1.727  46.164  52.591  1.00  0.00    -0.002 C 
ATOM     16  C   UNL     1       2.867  47.144  52.362  1.00  0.00     0.004 C 
ENDBRANCH  14  15
ENDBRANCH  13  14
ENDBRANCH  11  13
ENDBRANCH   1  11
BRANCH   3  17
ATOM     17  N   UNL     1       7.245  46.018  51.643  1.00  0.00    -0.336 N 
ATOM     18  H   UNL     1       7.358  46.566  50.800  1.00  0.00     0.168 HD
BRANCH  17  19
ATOM     19  C   UNL     1       8.040  46.499  52.706  1.00  0.00     0.082 A 
ATOM     20  C   UNL     1       9.438  46.378  52.547  1.00  0.00     0.030 A 
ATOM     21  C   UNL     1       7.600  47.070  53.907  1.00  0.00     0.139 A 
ATOM     22  C   UNL     1      10.342  46.801  53.530  1.00  0.00     0.006 A 
ATOM     23  C   UNL     1       8.499  47.494  54.895  1.00  0.00     0.051 A 
ATOM     24  C   UNL     1       9.876  47.352  54.721  1.00  0.00    -0.047 A 
ATOM     25  C   UNL     1      10.831  47.840  55.767  1.00  0.00     0.044 C 
BRANCH  21  26
ATOM     26  O   UNL     1       6.288  47.284  54.220  1.00  0.00    -0.506 OA
ATOM     27  H   UNL     1       5.813  47.364  53.368  1.00  0.00     0.293 HD
ENDBRANCH  21  26
ENDBRANCH  17  19
ENDBRANCH   3  17
TORSDOF 7
ENDMDL
MODEL 4
REMARK VINA RESULT:    -8.363      2.340      6.341
REMARK INTER + INTRA:         -12.415
REMARK INTER:                 -11.507
REMARK INTRA:                  -0.909
REMARK UNBOUND:                -0.875
REMARK SMILES CCCCNc1nc(Nc2ccc(C)cc2O)c2cnn(C)c2n1
REMARK SMILES IDX 6 1 7 2 8 3 18 4 19 5 20 6 21 7 22 8 23 9 24 10 5 11 4 13
REMARK SMILES IDX 3 14 2 15 1 16 9 17 10 19 11 20 16 21 12 22 15 23 13 24
REMARK SMILES IDX 14 25 17 26
REMARK H PARENT 5 12 9 18 17 27
ROOT
ATOM      1  C   UNL     1       3.483  42.474  51.379  1.00  0.00     0.226 A 
ATOM      2  N   UNL     1       4.287  43.418  51.912  1.00  0.00    -0.195 NA
ATOM      3  C   UNL     1       3.790  44.621  52.303  1.00  0.00     0.147 A 
ATOM      4  C   UNL     1       2.413  44.820  52.135  1.00  0.00     0.082 A 
ATOM      5  C   UNL     1       1.455  45.828  52.370  1.00  0.00     0.149 A 
ATOM      6  N   UNL     1       0.220  45.471  51.999  1.00  0.00    -0.179 NA
ATOM      7  N   UNL     1       0.391  44.215  51.525  1.00  0.00    -0.250 N 
ATOM      8  C   UNL     1      -0.746  43.480  51.032  1.00  0.00     0.176 C 
ATOM      9  C   UNL     1       1.688  43.784  51.580  1.00  0.00     0.165 A 
ATOM     10  N   UNL     1       2.167  42.599  51.180  1.00  0.00    -0.193 NA
ENDROOT
BRANCH   1  11
ATOM     11  N   UNL     1       4.135  41.299  51.036  1.00  0.00    -0.354 N 
ATOM     12  H   UNL     1       4.809  41.112  51.770  1.00  0.00     0.163 HD
BRANCH  11  13
ATOM     13  C   UNL     1       4.663  41.220  49.684  1.00  0.00     0.116 C 
BRANCH  13  14
ATOM     14  C   UNL     1       6.160  41.538  49.672  1.00  0.00     0.021 C 
BRANCH  14  15
ATOM     15  C   UNL     1       6.486  42.894  49.042  1.00  0.00    -0.002 C 
ATOM     16  C   UNL     1       7.922  43.341  49.266  1.00  0.00     0.004 C 
ENDBRANCH  14  15
ENDBRANCH  13  14
ENDBRANCH  11  13
ENDBRANCH   1  11
BRANCH   3  17
ATOM     17  N   UNL     1       4.616  45.616  52.842  1.00  0.00    -0.336 N 
ATOM     18  H   UNL     1       4.087  46.312  53.351  1.00  0.00     0.168 HD
BRANCH  17  19
ATOM     19  C   UNL     1       5.998  45.906  52.818  1.00  0.00     0.082 A 
ATOM     20  C   UNL     1       6.594  46.012  51.542  1.00  0.00     0.030 A 
ATOM     21  C   UNL     1       6.848  46.086  53.917  1.00  0.00     0.139 A 
ATOM     22  C   UNL     1       7.958  46.280  51.374  1.00  0.00     0.006 A 
ATOM     23  C   UNL     1       8.215  46.353  53.756  1.00  0.00     0.051 A 
ATOM     24  C   UNL     1       8.784  46.440  52.484  1.00  0.00    -0.047 A 
ATOM     25  C   UNL     1      10.238  46.762  52.321  1.00  0.00     0.044 C 
BRANCH  21  26
ATOM     26  O   UNL     1       6.440  46.040  55.220  1.00  0.00    -0.506 OA
ATOM     27  H   UNL     1       6.030  46.908  55.408  1.00  0.00     0.293 HD
ENDBRANCH  21  26
ENDBRANCH  17  19
ENDBRANCH   3  17
TORSDOF 7
ENDMDL
MODEL 5
REMARK VINA RESULT:    -8.347      1.266      1.802
REMARK INTER + INTRA:         -12.394
REMARK INTER:                 -11.777
REMARK INTRA:                  -0.618
REMARK UNBOUND:                -0.875
REMARK SMILES CCCCNc1nc(Nc2ccc(C)cc2O)c2cnn(C)c2n1
REMARK SMILES IDX 6 1 7 2 8 3 18 4 19 5 20 6 21 7 22 8 23 9 24 10 5 11 4 13
REMARK SMILES IDX 3 14 2 15 1 16 9 17 10 19 11 20 16 21 12 22 15 23 13 24
REMARK SMILES IDX 14 25 17 26
REMARK H PARENT 5 12 9 18 17 27
ROOT
ATOM      1  C   UNL     1       7.557  46.629  51.609  1.00  0.00     0.226 A 
ATOM      2  N   UNL     1       6.504  46.975  52.379  1.00  0.00    -0.195 NA
ATOM      3  C   UNL     1       5.377  46.215  52.407  1.00  0.00     0.147 A 
ATOM      4  C   UNL     1       5.375  45.061  51.612  1.00  0.00     0.082 A 
ATOM      5  C   UNL     1       4.507  43.992  51.304  1.00  0.00     0.149 A 
ATOM      6  N   UNL     1       5.037  43.124  50.435  1.00  0.00    -0.179 NA
ATOM      7  N   UNL     1       6.263  43.642  50.189  1.00  0.00    -0.250 N 
ATOM      8  C   UNL     1       7.154  42.961  49.284  1.00  0.00     0.176 C 
ATOM      9  C   UNL     1       6.508  44.806  50.865  1.00  0.00     0.165 A 
ATOM     10  N   UNL     1       7.619  45.552  50.819  1.00  0.00    -0.193 NA
ENDROOT
BRANCH   1  11
ATOM     11  N   UNL     1       8.634  47.499  51.693  1.00  0.00    -0.354 N 
ATOM     12  H   UNL     1       8.666  48.012  50.819  1.00  0.00     0.163 HD
BRANCH  11  13
ATOM     13  C   UNL     1       9.901  46.924  52.114  1.00  0.00     0.116 C 
BRANCH  13  14
ATOM     14  C   UNL     1       9.813  46.430  53.560  1.00  0.00     0.021 C 
BRANCH  14  15
ATOM     15  C   UNL     1       9.626  47.560  54.576  1.00  0.00    -0.002 C 
ATOM     16  C   UNL     1      10.632  47.529  55.715  1.00  0.00     0.004 C 
ENDBRANCH  14  15
ENDBRANCH  13  14
ENDBRANCH  11  13
ENDBRANCH   1  11
BRANCH   3  17
ATOM     17  N   UNL     1       4.271  46.571  53.189  1.00  0.00    -0.336 N 
ATOM     18  H   UNL     1       4.353  47.511  53.555  1.00  0.00     0.168 HD
BRANCH  17  19
ATOM     19  C   UNL     1       3.090  45.930  53.621  1.00  0.00     0.082 A 
ATOM     20  C   UNL     1       1.955  46.084  52.795  1.00  0.00     0.030 A 
ATOM     21  C   UNL     1       2.912  45.168  54.784  1.00  0.00     0.139 A 
ATOM     22  C   UNL     1       0.715  45.514  53.113  1.00  0.00     0.006 A 
ATOM     23  C   UNL     1       1.674  44.596  55.108  1.00  0.00     0.051 A 
ATOM     24  C   UNL     1       0.563  44.774  54.283  1.00  0.00    -0.047 A 
ATOM     25  C   UNL     1      -0.747  44.129  54.619  1.00  0.00     0.044 C 
BRANCH  21  26
ATOM     26  O   UNL     1       3.903  44.898  55.684  1.00  0.00    -0.506 OA
ATOM     27  H   UNL     1       4.485  45.685  55.694  1.00  0.00     0.293 HD
ENDBRANCH  21  26
ENDBRANCH  17  19
ENDBRANCH   3  17
TORSDOF 7
ENDMDL
MODEL 6
REMARK VINA RESULT:    -8.343      2.398      5.948
REMARK INTER + INTRA:         -12.388
REMARK INTER:                 -11.388
REMARK INTRA:                  -1.000
REMARK UNBOUND:                -0.875
REMARK SMILES CCCCNc1nc(Nc2ccc(C)cc2O)c2cnn(C)c2n1
REMARK SMILES IDX 6 1 7 2 8 3 18 4 19 5 20 6 21 7 22 8 23 9 24 10 5 11 4 13
REMARK SMILES IDX 3 14 2 15 1 16 9 17 10 19 11 20 16 21 12 22 15 23 13 24
REMARK SMILES IDX 14 25 17 26
REMARK H PARENT 5 12 9 18 17 27
ROOT
ATOM      1  C   UNL     1       3.604  44.864  51.575  1.00  0.00     0.226 A 
ATOM      2  N   UNL     1       4.741  45.591  51.582  1.00  0.00    -0.195 NA
ATOM      3  C   UNL     1       5.902  45.079  51.094  1.00  0.00     0.147 A 
ATOM      4  C   UNL     1       5.850  43.777  50.579  1.00  0.00     0.082 A 
ATOM      5  C   UNL     1       6.721  42.840  49.985  1.00  0.00     0.149 A 
ATOM      6  N   UNL     1       6.116  41.689  49.673  1.00  0.00    -0.179 NA
ATOM      7  N   UNL     1       4.838  41.895  50.068  1.00  0.00    -0.250 N 
ATOM      8  C   UNL     1       3.860  40.854  49.881  1.00  0.00     0.176 C 
ATOM      9  C   UNL     1       4.632  43.128  50.623  1.00  0.00     0.165 A 
ATOM     10  N   UNL     1       3.485  43.616  51.112  1.00  0.00    -0.193 NA
ENDROOT
BRANCH   1  11
ATOM     11  N   UNL     1       2.503  45.525  52.099  1.00  0.00    -0.354 N 
ATOM     12  H   UNL     1       2.002  45.928  51.315  1.00  0.00     0.163 HD
BRANCH  11  13
ATOM     13  C   UNL     1       2.758  46.439  53.200  1.00  0.00     0.116 C 
BRANCH  13  14
ATOM     14  C   UNL     1       2.838  45.678  54.525  1.00  0.00     0.021 C 
BRANCH  14  15
ATOM     15  C   UNL     1       4.099  45.998  55.332  1.00  0.00    -0.002 C 
ATOM     16  C   UNL     1       5.152  44.903  55.277  1.00  0.00     0.004 C 
ENDBRANCH  14  15
ENDBRANCH  13  14
ENDBRANCH  11  13
ENDBRANCH   1  11
BRANCH   3  17
ATOM     17  N   UNL     1       7.093  45.816  51.110  1.00  0.00    -0.336 N 
ATOM     18  H   UNL     1       7.374  46.100  50.180  1.00  0.00     0.168 HD
BRANCH  17  19
ATOM     19  C   UNL     1       8.014  46.228  52.098  1.00  0.00     0.082 A 
ATOM     20  C   UNL     1       7.466  46.811  53.261  1.00  0.00     0.030 A 
ATOM     21  C   UNL     1       9.411  46.136  52.049  1.00  0.00     0.139 A 
ATOM     22  C   UNL     1       8.266  47.277  54.312  1.00  0.00     0.006 A 
ATOM     23  C   UNL     1      10.218  46.600  53.097  1.00  0.00     0.051 A 
ATOM     24  C   UNL     1       9.654  47.186  54.231  1.00  0.00    -0.047 A 
ATOM     25  C   UNL     1      10.522  47.647  55.362  1.00  0.00     0.044 C 
BRANCH  21  26
ATOM     26  O   UNL     1      10.109  45.582  51.013  1.00  0.00    -0.506 OA
ATOM     27  H   UNL     1      10.295  44.656  51.273  1.00  0.00     0.293 HD
ENDBRANCH  21  26
ENDBRANCH  17  19
ENDBRANCH   3  17
TORSDOF 7
ENDMDL
MODEL 7
REMARK VINA RESULT:    -8.342      1.904      5.804
REMARK INTER + INTRA:         -12.386
REMARK INTER:                 -11.145
REMARK INTRA:                  -1.241
REMARK UNBOUND:                -0.875
REMARK SMILES CCCCNc1nc(Nc2ccc(C)cc2O)c2cnn(C)c2n1
REMARK SMILES IDX 6 1 7 2 8 3 18 4 19 5 20 6 21 7 22 8 23 9 24 10 5 11 4 13
REMARK SMILES IDX 3 14 2 15 1 16 9 17 10 19 11 20 16 21 12 22 15 23 13 24
REMARK SMILES IDX 14 25 17 26
REMARK H PARENT 5 12 9 18 17 27
ROOT
ATOM      1  C   UNL     1       3.468  44.872  51.699  1.00  0.00     0.226 A 
ATOM      2  N   UNL     1       4.590  45.620  51.750  1.00  0.00    -0.195 NA
ATOM      3  C   UNL     1       5.768  45.149  51.265  1.00  0.00     0.147 A 
ATOM      4  C   UNL     1       5.752  43.864  50.705  1.00  0.00     0.082 A 
ATOM      5  C   UNL     1       6.652  42.966  50.094  1.00  0.00     0.149 A 
ATOM      6  N   UNL     1       6.075  41.815  49.732  1.00  0.00    -0.179 NA
ATOM      7  N   UNL     1       4.787  41.982  50.112  1.00  0.00    -0.250 N 
ATOM      8  C   UNL     1       3.833  40.929  49.872  1.00  0.00     0.176 C 
ATOM      9  C   UNL     1       4.547  43.191  50.705  1.00  0.00     0.165 A 
ATOM     10  N   UNL     1       3.382  43.638  51.191  1.00  0.00    -0.193 NA
ENDROOT
BRANCH   1  11
ATOM     11  N   UNL     1       2.345  45.492  52.226  1.00  0.00    -0.354 N 
ATOM     12  H   UNL     1       1.960  46.077  51.492  1.00  0.00     0.163 HD
BRANCH  11  13
ATOM     13  C   UNL     1       2.511  46.151  53.511  1.00  0.00     0.116 C 
BRANCH  13  14
ATOM     14  C   UNL     1       2.847  45.128  54.600  1.00  0.00     0.021 C 
BRANCH  14  15
ATOM     15  C   UNL     1       4.091  45.496  55.413  1.00  0.00    -0.002 C 
ATOM     16  C   UNL     1       5.309  44.650  55.078  1.00  0.00     0.004 C 
ENDBRANCH  14  15
ENDBRANCH  13  14
ENDBRANCH  11  13
ENDBRANCH   1  11
BRANCH   3  17
ATOM     17  N   UNL     1       6.944  45.908  51.327  1.00  0.00    -0.336 N 
ATOM     18  H   UNL     1       7.281  46.159  50.406  1.00  0.00     0.168 HD
BRANCH  17  19
ATOM     19  C   UNL     1       7.791  46.377  52.354  1.00  0.00     0.082 A 
ATOM     20  C   UNL     1       9.146  45.985  52.278  1.00  0.00     0.030 A 
ATOM     21  C   UNL     1       7.438  47.177  53.449  1.00  0.00     0.139 A 
ATOM     22  C   UNL     1      10.090  46.366  53.239  1.00  0.00     0.006 A 
ATOM     23  C   UNL     1       8.378  47.562  54.415  1.00  0.00     0.051 A 
ATOM     24  C   UNL     1       9.709  47.150  54.325  1.00  0.00    -0.047 A 
ATOM     25  C   UNL     1      10.715  47.595  55.343  1.00  0.00     0.044 C 
BRANCH  21  26
ATOM     26  O   UNL     1       6.182  47.666  53.670  1.00  0.00    -0.506 OA
ATOM     27  H   UNL     1       5.579  46.895  53.635  1.00  0.00     0.293 HD
ENDBRANCH  21  26
ENDBRANCH  17  19
ENDBRANCH   3  17
TORSDOF 7
ENDMDL
MODEL 8
REMARK VINA RESULT:    -8.326      1.991      6.711
REMARK INTER + INTRA:         -12.364
REMARK INTER:                 -11.503
REMARK INTRA:                  -0.861
REMARK UNBOUND:                -0.875
REMARK SMILES CCCCNc1nc(Nc2ccc(C)cc2O)c2cnn(C)c2n1
REMARK SMILES IDX 6 1 7 2 8 3 18 4 19 5 20 6 21 7 22 8 23 9 24 10 5 11 4 13
REMARK SMILES IDX 3 14 2 15 1 16 9 17 10 19 11 20 16 21 12 22 15 23 13 24
REMARK SMILES IDX 14 25 17 26
REMARK H PARENT 5 12 9 18 17 27
ROOT
ATOM      1  C   UNL     1       3.462  42.557  52.098  1.00  0.00     0.226 A 
ATOM      2  N   UNL     1       4.317  43.598  52.173  1.00  0.00    -0.195 NA
ATOM      3  C   UNL     1       3.961  44.755  52.791  1.00  0.00     0.147 A 
ATOM      4  C   UNL     1       2.677  44.801  53.350  1.00  0.00     0.082 A 
ATOM      5  C   UNL     1       1.867  45.710  54.063  1.00  0.00     0.149 A 
ATOM      6  N   UNL     1       0.661  45.213  54.360  1.00  0.00    -0.179 NA
ATOM      7  N   UNL     1       0.703  43.966  53.835  1.00  0.00    -0.250 N 
ATOM      8  C   UNL     1      -0.440  43.100  53.968  1.00  0.00     0.176 C 
ATOM      9  C   UNL     1       1.887  43.677  53.214  1.00  0.00     0.165 A 
ATOM     10  N   UNL     1       2.222  42.536  52.597  1.00  0.00    -0.193 NA
ENDROOT
BRANCH   1  11
ATOM     11  N   UNL     1       3.973  41.446  51.443  1.00  0.00    -0.354 N 
ATOM     12  H   UNL     1       4.961  41.403  51.665  1.00  0.00     0.163 HD
BRANCH  11  13
ATOM     13  C   UNL     1       3.655  41.324  50.030  1.00  0.00     0.116 C 
BRANCH  13  14
ATOM     14  C   UNL     1       4.932  41.138  49.205  1.00  0.00     0.021 C 
BRANCH  14  15
ATOM     15  C   UNL     1       6.203  41.534  49.961  1.00  0.00    -0.002 C 
ATOM     16  C   UNL     1       6.835  42.822  49.458  1.00  0.00     0.004 C 
ENDBRANCH  14  15
ENDBRANCH  13  14
ENDBRANCH  11  13
ENDBRANCH   1  11
BRANCH   3  17
ATOM     17  N   UNL     1       4.833  45.849  52.862  1.00  0.00    -0.336 N 
ATOM     18  H   UNL     1       4.339  46.716  53.027  1.00  0.00     0.168 HD
BRANCH  17  19
ATOM     19  C   UNL     1       6.225  46.042  52.722  1.00  0.00     0.082 A 
ATOM     20  C   UNL     1       6.738  45.976  51.408  1.00  0.00     0.030 A 
ATOM     21  C   UNL     1       7.157  46.280  53.741  1.00  0.00     0.139 A 
ATOM     22  C   UNL     1       8.102  46.134  51.129  1.00  0.00     0.006 A 
ATOM     23  C   UNL     1       8.523  46.439  53.469  1.00  0.00     0.051 A 
ATOM     24  C   UNL     1       9.008  46.355  52.163  1.00  0.00    -0.047 A 
ATOM     25  C   UNL     1      10.465  46.561  51.878  1.00  0.00     0.044 C 
BRANCH  21  26
ATOM     26  O   UNL     1       6.836  46.397  55.064  1.00  0.00    -0.506 OA
ATOM     27  H   UNL     1       6.653  47.346  55.217  1.00  0.00     0.293 HD
ENDBRANCH  21  26
ENDBRANCH  17  19
ENDBRANCH   3  17
TORSDOF 7
ENDMDL
MODEL 9
REMARK VINA RESULT:    -8.305      2.845      7.024
REMARK INTER + INTRA:         -12.336
REMARK INTER:                 -11.735
REMARK INTRA:                  -0.601
REMARK UNBOUND:                -0.875
REMARK SMILES CCCCNc1nc(Nc2ccc(C)cc2O)c2cnn(C)c2n1
REMARK SMILES IDX 6 1 7 2 8 3 18 4 19 5 20 6 21 7 22 8 23 9 24 10 5 11 4 13
REMARK SMILES IDX 3 14 2 15 1 16 9 17 10 19 11 20 16 21 12 22 15 23 13 24
REMARK SMILES IDX 14 25 17 26
REMARK H PARENT 5 12 9 18 17 27
ROOT
ATOM      1  C   UNL     1       5.710  42.504  50.044  1.00  0.00     0.226 A 
ATOM      2  N   UNL     1       6.559  43.543  50.182  1.00  0.00    -0.195 NA
ATOM      3  C   UNL     1       6.250  44.599  50.980  1.00  0.00     0.147 A 
ATOM      4  C   UNL     1       5.023  44.544  51.653  1.00  0.00     0.082 A 
ATOM      5  C   UNL     1       4.274  45.332  52.551  1.00  0.00     0.149 A 
ATOM      6  N   UNL     1       3.105  44.775  52.885  1.00  0.00    -0.179 NA
ATOM      7  N   UNL     1       3.109  43.610  52.195  1.00  0.00    -0.250 N 
ATOM      8  C   UNL     1       1.990  42.710  52.312  1.00  0.00     0.176 C 
ATOM      9  C   UNL     1       4.234  43.431  51.437  1.00  0.00     0.165 A 
ATOM     10  N   UNL     1       4.520  42.391  50.645  1.00  0.00    -0.193 NA
ENDROOT
BRANCH   1  11
ATOM     11  N   UNL     1       6.168  41.501  49.202  1.00  0.00    -0.354 N 
ATOM     12  H   UNL     1       7.141  41.707  49.003  1.00  0.00     0.163 HD
BRANCH  11  13
ATOM     13  C   UNL     1       5.351  41.210  48.036  1.00  0.00     0.116 C 
BRANCH  13  14
ATOM     14  C   UNL     1       5.879  41.957  46.809  1.00  0.00     0.021 C 
BRANCH  14  15
ATOM     15  C   UNL     1       5.150  41.586  45.515  1.00  0.00    -0.002 C 
ATOM     16  C   UNL     1       5.214  42.668  44.448  1.00  0.00     0.004 C 
ENDBRANCH  14  15
ENDBRANCH  13  14
ENDBRANCH  11  13
ENDBRANCH   1  11
BRANCH   3  17
ATOM     17  N   UNL     1       7.116  45.692  51.119  1.00  0.00    -0.336 N 
ATOM     18  H   UNL     1       7.107  46.288  50.301  1.00  0.00     0.168 HD
BRANCH  17  19
ATOM     19  C   UNL     1       8.024  46.144  52.101  1.00  0.00     0.082 A 
ATOM     20  C   UNL     1       7.457  46.684  53.276  1.00  0.00     0.030 A 
ATOM     21  C   UNL     1       9.424  46.131  52.036  1.00  0.00     0.139 A 
ATOM     22  C   UNL     1       8.242  47.184  54.324  1.00  0.00     0.006 A 
ATOM     23  C   UNL     1      10.215  46.630  53.080  1.00  0.00     0.051 A 
ATOM     24  C   UNL     1       9.631  47.171  54.227  1.00  0.00    -0.047 A 
ATOM     25  C   UNL     1      10.485  47.670  55.353  1.00  0.00     0.044 C 
BRANCH  21  26
ATOM     26  O   UNL     1      10.139  45.628  50.988  1.00  0.00    -0.506 OA
ATOM     27  H   UNL     1      11.053  45.501  51.316  1.00  0.00     0.293 HD
ENDBRANCH  21  26
ENDBRANCH  17  19
ENDBRANCH   3  17
TORSDOF 7
ENDMDL
MODEL 10
REMARK VINA RESULT:    -8.165      3.099      6.306
REMARK INTER + INTRA:         -12.143
REMARK INTER:                 -11.459
REMARK INTRA:                  -0.684
REMARK UNBOUND:                -0.875
REMARK SMILES CCCCNc1nc(Nc2ccc(C)cc2O)c2cnn(C)c2n1
REMARK SMILES IDX 6 1 7 2 8 3 18 4 19 5 20 6 21 7 22 8 23 9 24 10 5 11 4 13
REMARK SMILES IDX 3 14 2 15 1 16 9 17 10 19 11 20 16 21 12 22 15 23 13 24
REMARK SMILES IDX 14 25 17 26
REMARK H PARENT 5 12 9 18 17 27
ROOT
ATOM      1  C   UNL     1       6.383  44.995  51.199  1.00  0.00     0.226 A 
ATOM      2  N   UNL     1       6.492  43.934  50.372  1.00  0.00    -0.195 NA
ATOM      3  C   UNL     1       5.579  42.927  50.400  1.00  0.00     0.147 A 
ATOM      4  C   UNL     1       4.525  43.057  51.314  1.00  0.00     0.082 A 
ATOM      5  C   UNL     1       3.379  42.338  51.714  1.00  0.00     0.149 A 
ATOM      6  N   UNL     1       2.690  42.951  52.682  1.00  0.00    -0.179 NA
ATOM      7  N   UNL     1       3.402  44.081  52.900  1.00  0.00    -0.250 N 
ATOM      8  C   UNL     1       2.953  45.025  53.892  1.00  0.00     0.176 C 
ATOM      9  C   UNL     1       4.513  44.185  52.109  1.00  0.00     0.165 A 
ATOM     10  N   UNL     1       5.413  45.178  52.100  1.00  0.00    -0.193 NA
ENDROOT
BRANCH   1  11
ATOM     11  N   UNL     1       7.386  45.941  51.047  1.00  0.00    -0.354 N 
ATOM     12  H   UNL     1       8.246  45.432  50.874  1.00  0.00     0.163 HD
BRANCH  11  13
ATOM     13  C   UNL     1       7.474  46.963  52.077  1.00  0.00     0.116 C 
BRANCH  13  14
ATOM     14  C   UNL     1       8.856  47.621  52.066  1.00  0.00     0.021 C 
BRANCH  14  15
ATOM     15  C   UNL     1       9.903  46.842  52.867  1.00  0.00    -0.002 C 
ATOM     16  C   UNL     1       9.890  47.158  54.354  1.00  0.00     0.004 C 
ENDBRANCH  14  15
ENDBRANCH  13  14
ENDBRANCH  11  13
ENDBRANCH   1  11
BRANCH   3  17
ATOM     17  N   UNL     1       5.690  41.812  49.559  1.00  0.00    -0.336 N 
ATOM     18  H   UNL     1       6.370  41.145  49.903  1.00  0.00     0.168 HD
BRANCH  17  19
ATOM     19  C   UNL     1       5.116  41.409  48.334  1.00  0.00     0.082 A 
ATOM     20  C   UNL     1       5.745  41.881  47.161  1.00  0.00     0.030 A 
ATOM     21  C   UNL     1       3.983  40.604  48.149  1.00  0.00     0.139 A 
ATOM     22  C   UNL     1       5.270  41.570  45.880  1.00  0.00     0.006 A 
ATOM     23  C   UNL     1       3.503  40.290  46.871  1.00  0.00     0.051 A 
ATOM     24  C   UNL     1       4.134  40.780  45.726  1.00  0.00    -0.047 A 
ATOM     25  C   UNL     1       3.634  40.409  44.363  1.00  0.00     0.044 C 
BRANCH  21  26
ATOM     26  O   UNL     1       3.265  40.044  49.167  1.00  0.00    -0.506 OA
ATOM     27  H   UNL     1       3.916  39.789  49.852  1.00  0.00     0.293 HD
ENDBRANCH  21  26
ENDBRANCH  17  19
ENDBRANCH   3  17
TORSDOF 7
ENDMDL
MODEL 11
REMARK VINA RESULT:    -8.165      0.811      1.095
REMARK INTER + INTRA:         -12.143
REMARK INTER:                 -11.362
REMARK INTRA:                  -0.781
REMARK UNBOUND:                -0.875
REMARK SMILES CCCCNc1nc(Nc2ccc(C)cc2O)c2cnn(C)c2n1
REMARK SMILES IDX 6 1 7 2 8 3 18 4 19 5 20 6 21 7 22 8 23 9 24 10 5 11 4 13
REMARK SMILES IDX 3 14 2 15 1 16 9 17 10 19 11 20 16 21 12 22 15 23 13 24
REMARK SMILES IDX 14 25 17 26
REMARK H PARENT 5 12 9 18 17 27
ROOT
ATOM      1  C   UNL     1       6.219  46.070  52.155  1.00  0.00     0.226 A 
ATOM      2  N   UNL     1       5.185  45.486  52.795  1.00  0.00    -0.195 NA
ATOM      3  C   UNL     1       4.713  44.273  52.402  1.00  0.00     0.147 A 
ATOM      4  C   UNL     1       5.361  43.666  51.318  1.00  0.00     0.082 A 
ATOM      5  C   UNL     1       5.271  42.476  50.565  1.00  0.00     0.149 A 
ATOM      6  N   UNL     1       6.182  42.406  49.589  1.00  0.00    -0.179 NA
ATOM      7  N   UNL     1       6.868  43.565  49.723  1.00  0.00    -0.250 N 
ATOM      8  C   UNL     1       7.963  43.850  48.831  1.00  0.00     0.176 C 
ATOM      9  C   UNL     1       6.408  44.355  50.741  1.00  0.00     0.165 A 
ATOM     10  N   UNL     1       6.874  45.555  51.110  1.00  0.00    -0.193 NA
ENDROOT
BRANCH   1  11
ATOM     11  N   UNL     1       6.589  47.301  52.676  1.00  0.00    -0.354 N 
ATOM     12  H   UNL     1       5.804  47.927  52.536  1.00  0.00     0.163 HD
BRANCH  11  13
ATOM     13  C   UNL     1       7.876  47.826  52.249  1.00  0.00     0.116 C 
BRANCH  13  14
ATOM     14  C   UNL     1       8.857  47.866  53.423  1.00  0.00     0.021 C 
BRANCH  14  15
ATOM     15  C   UNL     1       9.920  46.766  53.361  1.00  0.00    -0.002 C 
ATOM     16  C   UNL     1      10.267  46.334  51.946  1.00  0.00     0.004 C 
ENDBRANCH  14  15
ENDBRANCH  13  14
ENDBRANCH  11  13
ENDBRANCH   1  11
BRANCH   3  17
ATOM     17  N   UNL     1       3.629  43.663  53.047  1.00  0.00    -0.336 N 
ATOM     18  H   UNL     1       3.868  42.745  53.402  1.00  0.00     0.168 HD
BRANCH  17  19
ATOM     19  C   UNL     1       2.280  43.997  53.291  1.00  0.00     0.082 A 
ATOM     20  C   UNL     1       1.398  43.882  52.194  1.00  0.00     0.030 A 
ATOM     21  C   UNL     1       1.718  44.444  54.495  1.00  0.00     0.139 A 
ATOM     22  C   UNL     1       0.036  44.197  52.293  1.00  0.00     0.006 A 
ATOM     23  C   UNL     1       0.357  44.761  54.600  1.00  0.00     0.051 A 
ATOM     24  C   UNL     1      -0.493  44.652  53.498  1.00  0.00    -0.047 A 
ATOM     25  C   UNL     1      -1.954  44.960  53.629  1.00  0.00     0.044 C 
BRANCH  21  26
ATOM     26  O   UNL     1       2.416  44.593  55.659  1.00  0.00    -0.506 OA
ATOM     27  H   UNL     1       2.177  45.475  56.010  1.00  0.00     0.293 HD
ENDBRANCH  21  26
ENDBRANCH  17  19
ENDBRANCH   3  17
TORSDOF 7
ENDMDL
MODEL 12
REMARK VINA RESULT:    -8.130      1.652      1.966
REMARK INTER + INTRA:         -12.094
REMARK INTER:                 -11.301
REMARK INTRA:                  -0.793
REMARK UNBOUND:                -0.875
REMARK SMILES CCCCNc1nc(Nc2ccc(C)cc2O)c2cnn(C)c2n1
REMARK SMILES IDX 6 1 7 2 8 3 18 4 19 5 20 6 21 7 22 8 23 9 24 10 5 11 4 13
REMARK SMILES IDX 3 14 2 15 1 16 9 17 10 19 11 20 16 21 12 22 15 23 13 24
REMARK SMILES IDX 14 25 17 26
REMARK H PARENT 5 12 9 18 17 27
ROOT
ATOM      1  C   UNL     1       5.917  46.070  52.288  1.00  0.00     0.226 A 
ATOM      2  N   UNL     1       4.841  45.686  53.005  1.00  0.00    -0.195 NA
ATOM      3  C   UNL     1       4.218  44.504  52.756  1.00  0.00     0.147 A 
ATOM      4  C   UNL     1       4.756  43.710  51.734  1.00  0.00     0.082 A 
ATOM      5  C   UNL     1       4.504  42.467  51.118  1.00  0.00     0.149 A 
ATOM      6  N   UNL     1       5.370  42.183  50.140  1.00  0.00    -0.179 NA
ATOM      7  N   UNL     1       6.193  43.258  50.134  1.00  0.00    -0.250 N 
ATOM      8  C   UNL     1       7.286  43.313  49.198  1.00  0.00     0.176 C 
ATOM      9  C   UNL     1       5.860  44.203  51.067  1.00  0.00     0.165 A 
ATOM     10  N   UNL     1       6.476  45.370  51.294  1.00  0.00    -0.193 NA
ENDROOT
BRANCH   1  11
ATOM     11  N   UNL     1       6.446  47.295  52.664  1.00  0.00    -0.354 N 
ATOM     12  H   UNL     1       5.739  47.994  52.462  1.00  0.00     0.163 HD
BRANCH  11  13
ATOM     13  C   UNL     1       7.776  47.607  52.170  1.00  0.00     0.116 C 
BRANCH  13  14
ATOM     14  C   UNL     1       8.748  47.818  53.334  1.00  0.00     0.021 C 
BRANCH  14  15
ATOM     15  C   UNL     1       9.934  46.851  53.314  1.00  0.00    -0.002 C 
ATOM     16  C   UNL     1      10.229  46.277  51.937  1.00  0.00     0.004 C 
ENDBRANCH  14  15
ENDBRANCH  13  14
ENDBRANCH  11  13
ENDBRANCH   1  11
BRANCH   3  17
ATOM     17  N   UNL     1       3.089  44.102  53.482  1.00  0.00    -0.336 N 
ATOM     18  H   UNL     1       3.334  43.764  54.404  1.00  0.00     0.168 HD
BRANCH  17  19
ATOM     19  C   UNL     1       1.703  44.018  53.231  1.00  0.00     0.082 A 
ATOM     20  C   UNL     1       1.110  42.748  53.403  1.00  0.00     0.030 A 
ATOM     21  C   UNL     1       0.849  45.050  52.817  1.00  0.00     0.139 A 
ATOM     22  C   UNL     1      -0.253  42.521  53.172  1.00  0.00     0.006 A 
ATOM     23  C   UNL     1      -0.515  44.829  52.584  1.00  0.00     0.051 A 
ATOM     24  C   UNL     1      -1.075  43.561  52.747  1.00  0.00    -0.047 A 
ATOM     25  C   UNL     1      -2.542  43.342  52.530  1.00  0.00     0.044 C 
BRANCH  21  26
ATOM     26  O   UNL     1       1.245  46.342  52.623  1.00  0.00    -0.506 OA
ATOM     27  H   UNL     1       0.425  46.867  52.521  1.00  0.00     0.293 HD
ENDBRANCH  21  26
ENDBRANCH  17  19
ENDBRANCH   3  17
TORSDOF 7
ENDMDL
MODEL 13
REMARK VINA RESULT:    -8.105      2.704      6.408
REMARK INTER + INTRA:         -12.060
REMARK INTER:                 -11.385
REMARK INTRA:                  -0.675
REMARK UNBOUND:                -0.875
REMARK SMILES CCCCNc1nc(Nc2ccc(C)cc2O)c2cnn(C)c2n1
REMARK SMILES IDX 6 1 7 2 8 3 18 4 19 5 20 6 21 7 22 8 23 9 24 10 5 11 4 13
REMARK SMILES IDX 3 14 2 15 1 16 9 17 10 19 11 20 16 21 12 22 15 23 13 24
REMARK SMILES IDX 14 25 17 26
REMARK H PARENT 5 12 9 18 17 27
ROOT
ATOM      1  C   UNL     1       2.737  45.262  55.102  1.00  0.00     0.226 A 
ATOM      2  N   UNL     1       3.150  44.670  53.962  1.00  0.00    -0.195 NA
ATOM      3  C   UNL     1       2.313  43.880  53.240  1.00  0.00     0.147 A 
ATOM      4  C   UNL     1       1.010  43.727  53.731  1.00  0.00     0.082 A 
ATOM      5  C   UNL     1      -0.181  43.057  53.378  1.00  0.00     0.149 A 
ATOM      6  N   UNL     1      -1.173  43.262  54.250  1.00  0.00    -0.179 NA
ATOM      7  N   UNL     1      -0.612  44.079  55.171  1.00  0.00    -0.250 N 
ATOM      8  C   UNL     1      -1.397  44.537  56.289  1.00  0.00     0.176 C 
ATOM      9  C   UNL     1       0.697  44.380  54.907  1.00  0.00     0.165 A 
ATOM     10  N   UNL     1       1.515  45.150  55.634  1.00  0.00    -0.193 NA
ENDROOT
BRANCH   1  11
ATOM     11  N   UNL     1       3.702  46.042  55.722  1.00  0.00    -0.354 N 
ATOM     12  H   UNL     1       3.212  46.682  56.337  1.00  0.00     0.163 HD
BRANCH  11  13
ATOM     13  C   UNL     1       4.691  46.660  54.855  1.00  0.00     0.116 C 
BRANCH  13  14
ATOM     14  C   UNL     1       6.040  45.948  54.982  1.00  0.00     0.021 C 
BRANCH  14  15
ATOM     15  C   UNL     1       6.910  46.071  53.729  1.00  0.00    -0.002 C 
ATOM     16  C   UNL     1       6.525  47.238  52.833  1.00  0.00     0.004 C 
ENDBRANCH  14  15
ENDBRANCH  13  14
ENDBRANCH  11  13
ENDBRANCH   1  11
BRANCH   3  17
ATOM     17  N   UNL     1       2.735  43.247  52.063  1.00  0.00    -0.336 N 
ATOM     18  H   UNL     1       1.998  42.689  51.650  1.00  0.00     0.168 HD
BRANCH  17  19
ATOM     19  C   UNL     1       3.941  43.166  51.336  1.00  0.00     0.082 A 
ATOM     20  C   UNL     1       4.675  44.366  51.203  1.00  0.00     0.030 A 
ATOM     21  C   UNL     1       4.488  42.033  50.717  1.00  0.00     0.139 A 
ATOM     22  C   UNL     1       5.881  44.431  50.493  1.00  0.00     0.006 A 
ATOM     23  C   UNL     1       5.694  42.092  50.005  1.00  0.00     0.051 A 
ATOM     24  C   UNL     1       6.394  43.293  49.877  1.00  0.00    -0.047 A 
ATOM     25  C   UNL     1       7.700  43.338  49.144  1.00  0.00     0.044 C 
BRANCH  21  26
ATOM     26  O   UNL     1       3.928  40.789  50.762  1.00  0.00    -0.506 OA
ATOM     27  H   UNL     1       3.902  40.534  51.706  1.00  0.00     0.293 HD
ENDBRANCH  21  26
ENDBRANCH  17  19
ENDBRANCH   3  17
TORSDOF 7
ENDMDL
MODEL 14
REMARK VINA RESULT:    -8.092      1.495      6.251
REMARK INTER + INTRA:         -12.042
REMARK INTER:                 -11.135
REMARK INTRA:                  -0.907
REMARK UNBOUND:                -0.875
REMARK SMILES CCCCNc1nc(Nc2ccc(C)cc2O)c2cnn(C)c2n1
REMARK SMILES IDX 6 1 7 2 8 3 18 4 19 5 20 6 21 7 22 8 23 9 24 10 5 11 4 13
REMARK SMILES IDX 3 14 2 15 1 16 9 17 10 19 11 20 16 21 12 22 15 23 13 24
REMARK SMILES IDX 14 25 17 26
REMARK H PARENT 5 12 9 18 17 27
ROOT
ATOM      1  C   UNL     1       3.302  44.539  52.021  1.00  0.00     0.226 A 
ATOM      2  N   UNL     1       4.355  45.382  52.055  1.00  0.00    -0.195 NA
ATOM      3  C   UNL     1       5.524  45.067  51.438  1.00  0.00     0.147 A 
ATOM      4  C   UNL     1       5.571  43.840  50.762  1.00  0.00     0.082 A 
ATOM      5  C   UNL     1       6.490  43.087  50.001  1.00  0.00     0.149 A 
ATOM      6  N   UNL     1       5.987  41.922  49.579  1.00  0.00    -0.179 NA
ATOM      7  N   UNL     1       4.726  41.933  50.072  1.00  0.00    -0.250 N 
ATOM      8  C   UNL     1       3.850  40.820  49.810  1.00  0.00     0.176 C 
ATOM      9  C   UNL     1       4.434  43.058  50.794  1.00  0.00     0.165 A 
ATOM     10  N   UNL     1       3.280  43.351  51.408  1.00  0.00    -0.193 NA
ENDROOT
BRANCH   1  11
ATOM     11  N   UNL     1       2.179  45.002  52.691  1.00  0.00    -0.354 N 
ATOM     12  H   UNL     1       1.551  45.374  51.987  1.00  0.00     0.163 HD
BRANCH  11  13
ATOM     13  C   UNL     1       2.417  45.879  53.826  1.00  0.00     0.116 C 
BRANCH  13  14
ATOM     14  C   UNL     1       2.159  45.138  55.141  1.00  0.00     0.021 C 
BRANCH  14  15
ATOM     15  C   UNL     1       0.702  45.214  55.602  1.00  0.00    -0.002 C 
ATOM     16  C   UNL     1       0.543  45.261  57.113  1.00  0.00     0.004 C 
ENDBRANCH  14  15
ENDBRANCH  13  14
ENDBRANCH  11  13
ENDBRANCH   1  11
BRANCH   3  17
ATOM     17  N   UNL     1       6.631  45.926  51.479  1.00  0.00    -0.336 N 
ATOM     18  H   UNL     1       6.847  46.308  50.567  1.00  0.00     0.168 HD
BRANCH  17  19
ATOM     19  C   UNL     1       7.537  46.359  52.470  1.00  0.00     0.082 A 
ATOM     20  C   UNL     1       8.909  46.189  52.183  1.00  0.00     0.030 A 
ATOM     21  C   UNL     1       7.230  46.927  53.715  1.00  0.00     0.139 A 
ATOM     22  C   UNL     1       9.915  46.561  53.084  1.00  0.00     0.006 A 
ATOM     23  C   UNL     1       8.231  47.300  54.622  1.00  0.00     0.051 A 
ATOM     24  C   UNL     1       9.581  47.109  54.320  1.00  0.00    -0.047 A 
ATOM     25  C   UNL     1      10.645  47.544  55.281  1.00  0.00     0.044 C 
BRANCH  21  26
ATOM     26  O   UNL     1       5.961  47.184  54.149  1.00  0.00    -0.506 OA
ATOM     27  H   UNL     1       5.923  46.878  55.078  1.00  0.00     0.293 HD
ENDBRANCH  21  26
ENDBRANCH  17  19
ENDBRANCH   3  17
TORSDOF 7
ENDMDL
MODEL 15
REMARK VINA RESULT:    -8.034      2.418      6.068
REMARK INTER + INTRA:         -11.961
REMARK INTER:                 -11.157
REMARK INTRA:                  -0.804
REMARK UNBOUND:                -0.875
REMARK SMILES CCCCNc1nc(Nc2ccc(C)cc2O)c2cnn(C)c2n1
REMARK SMILES IDX 6 1 7 2 8 3 18 4 19 5 20 6 21 7 22 8 23 9 24 10 5 11 4 13
REMARK SMILES IDX 3 14 2 15 1 16 9 17 10 19 11 20 16 21 12 22 15 23 13 24
REMARK SMILES IDX 14 25 17 26
REMARK H PARENT 5 12 9 18 17 27
ROOT
ATOM      1  C   UNL     1       5.864  46.736  54.270  1.00  0.00     0.226 A 
ATOM      2  N   UNL     1       5.716  46.073  53.104  1.00  0.00    -0.195 NA
ATOM      3  C   UNL     1       6.783  45.819  52.302  1.00  0.00     0.147 A 
ATOM      4  C   UNL     1       8.032  46.267  52.753  1.00  0.00     0.082 A 
ATOM      5  C   UNL     1       9.376  46.256  52.326  1.00  0.00     0.149 A 
ATOM      6  N   UNL     1      10.202  46.862  53.185  1.00  0.00    -0.179 NA
ATOM      7  N   UNL     1       9.375  47.261  54.180  1.00  0.00    -0.250 N 
ATOM      8  C   UNL     1       9.917  47.958  55.318  1.00  0.00     0.176 C 
ATOM      9  C   UNL     1       8.065  46.934  53.962  1.00  0.00     0.165 A 
ATOM     10  N   UNL     1       7.020  47.201  54.755  1.00  0.00    -0.193 NA
ENDROOT
BRANCH   1  11
ATOM     11  N   UNL     1       4.685  46.911  54.979  1.00  0.00    -0.354 N 
ATOM     12  H   UNL     1       4.891  47.555  55.735  1.00  0.00     0.163 HD
BRANCH  11  13
ATOM     13  C   UNL     1       3.981  45.703  55.376  1.00  0.00     0.116 C 
BRANCH  13  14
ATOM     14  C   UNL     1       2.501  45.793  54.995  1.00  0.00     0.021 C 
BRANCH  14  15
ATOM     15  C   UNL     1       2.194  45.204  53.616  1.00  0.00    -0.002 C 
ATOM     16  C   UNL     1       2.029  46.253  52.528  1.00  0.00     0.004 C 
ENDBRANCH  14  15
ENDBRANCH  13  14
ENDBRANCH  11  13
ENDBRANCH   1  11
BRANCH   3  17
ATOM     17  N   UNL     1       6.641  45.147  51.081  1.00  0.00    -0.336 N 
ATOM     18  H   UNL     1       7.097  45.638  50.323  1.00  0.00     0.168 HD
BRANCH  17  19
ATOM     19  C   UNL     1       5.988  43.974  50.643  1.00  0.00     0.082 A 
ATOM     20  C   UNL     1       4.711  43.725  51.194  1.00  0.00     0.030 A 
ATOM     21  C   UNL     1       6.468  43.022  49.734  1.00  0.00     0.139 A 
ATOM     22  C   UNL     1       3.961  42.591  50.858  1.00  0.00     0.006 A 
ATOM     23  C   UNL     1       5.722  41.884  49.395  1.00  0.00     0.051 A 
ATOM     24  C   UNL     1       4.469  41.653  49.963  1.00  0.00    -0.047 A 
ATOM     25  C   UNL     1       3.663  40.453  49.567  1.00  0.00     0.044 C 
BRANCH  21  26
ATOM     26  O   UNL     1       7.669  43.112  49.090  1.00  0.00    -0.506 OA
ATOM     27  H   UNL     1       8.174  42.311  49.340  1.00  0.00     0.293 HD
ENDBRANCH  21  26
ENDBRANCH  17  19
ENDBRANCH   3  17
TORSDOF 7
ENDMDL
MODEL 16
REMARK VINA RESULT:    -8.030      2.195      6.812
REMARK INTER + INTRA:         -11.957
REMARK INTER:                 -11.043
REMARK INTRA:                  -0.914
REMARK UNBOUND:                -0.875
REMARK SMILES CCCCNc1nc(Nc2ccc(C)cc2O)c2cnn(C)c2n1
REMARK SMILES IDX 6 1 7 2 8 3 18 4 19 5 20 6 21 7 22 8 23 9 24 10 5 11 4 13
REMARK SMILES IDX 3 14 2 15 1 16 9 17 10 19 11 20 16 21 12 22 15 23 13 24
REMARK SMILES IDX 14 25 17 26
REMARK H PARENT 5 12 9 18 17 27
ROOT
ATOM      1  C   UNL     1       2.717  42.921  52.258  1.00  0.00     0.226 A 
ATOM      2  N   UNL     1       3.708  43.807  52.494  1.00  0.00    -0.195 NA
ATOM      3  C   UNL     1       3.544  44.822  53.383  1.00  0.00     0.147 A 
ATOM      4  C   UNL     1       2.309  44.889  54.042  1.00  0.00     0.082 A 
ATOM      5  C   UNL     1       1.668  45.697  55.004  1.00  0.00     0.149 A 
ATOM      6  N   UNL     1       0.424  45.292  55.281  1.00  0.00    -0.179 NA
ATOM      7  N   UNL     1       0.270  44.206  54.489  1.00  0.00    -0.250 N 
ATOM      8  C   UNL     1      -0.971  43.475  54.518  1.00  0.00     0.176 C 
ATOM      9  C   UNL     1       1.369  43.930  53.723  1.00  0.00     0.165 A 
ATOM     10  N   UNL     1       1.514  42.933  52.841  1.00  0.00    -0.193 NA
ENDROOT
BRANCH   1  11
ATOM     11  N   UNL     1       3.038  41.941  51.332  1.00  0.00    -0.354 N 
ATOM     12  H   UNL     1       2.378  41.183  51.466  1.00  0.00     0.163 HD
BRANCH  11  13
ATOM     13  C   UNL     1       4.433  41.536  51.272  1.00  0.00     0.116 C 
BRANCH  13  14
ATOM     14  C   UNL     1       4.933  41.540  49.825  1.00  0.00     0.021 C 
BRANCH  14  15
ATOM     15  C   UNL     1       6.460  41.529  49.713  1.00  0.00    -0.002 C 
ATOM     16  C   UNL     1       7.056  42.889  49.386  1.00  0.00     0.004 C 
ENDBRANCH  14  15
ENDBRANCH  13  14
ENDBRANCH  11  13
ENDBRANCH   1  11
BRANCH   3  17
ATOM     17  N   UNL     1       4.558  45.758  53.624  1.00  0.00    -0.336 N 
ATOM     18  H   UNL     1       4.263  46.476  54.273  1.00  0.00     0.168 HD
BRANCH  17  19
ATOM     19  C   UNL     1       5.875  45.964  53.157  1.00  0.00     0.082 A 
ATOM     20  C   UNL     1       6.855  46.221  54.140  1.00  0.00     0.030 A 
ATOM     21  C   UNL     1       6.316  45.957  51.827  1.00  0.00     0.139 A 
ATOM     22  C   UNL     1       8.197  46.459  53.814  1.00  0.00     0.006 A 
ATOM     23  C   UNL     1       7.657  46.195  51.494  1.00  0.00     0.051 A 
ATOM     24  C   UNL     1       8.605  46.461  52.483  1.00  0.00    -0.047 A 
ATOM     25  C   UNL     1      10.043  46.679  52.120  1.00  0.00     0.044 C 
BRANCH  21  26
ATOM     26  O   UNL     1       5.512  45.705  50.752  1.00  0.00    -0.506 OA
ATOM     27  H   UNL     1       5.570  44.742  50.587  1.00  0.00     0.293 HD
ENDBRANCH  21  26
ENDBRANCH  17  19
ENDBRANCH   3  17
TORSDOF 7
ENDMDL
MODEL 17
REMARK VINA RESULT:    -7.979      1.683      2.219
REMARK INTER + INTRA:         -11.886
REMARK INTER:                 -11.147
REMARK INTRA:                  -0.740
REMARK UNBOUND:                -0.875
REMARK SMILES CCCCNc1nc(Nc2ccc(C)cc2O)c2cnn(C)c2n1
REMARK SMILES IDX 6 1 7 2 8 3 18 4 19 5 20 6 21 7 22 8 23 9 24 10 5 11 4 13
REMARK SMILES IDX 3 14 2 15 1 16 9 17 10 19 11 20 16 21 12 22 15 23 13 24
REMARK SMILES IDX 14 25 17 26
REMARK H PARENT 5 12 9 18 17 27
ROOT
ATOM      1  C   UNL     1       7.045  45.716  50.935  1.00  0.00     0.226 A 
ATOM      2  N   UNL     1       6.043  46.350  51.579  1.00  0.00    -0.195 NA
ATOM      3  C   UNL     1       4.864  45.723  51.830  1.00  0.00     0.147 A 
ATOM      4  C   UNL     1       4.752  44.395  51.400  1.00  0.00     0.082 A 
ATOM      5  C   UNL     1       3.798  43.355  51.416  1.00  0.00     0.149 A 
ATOM      6  N   UNL     1       4.235  42.236  50.830  1.00  0.00    -0.179 NA
ATOM      7  N   UNL     1       5.489  42.562  50.439  1.00  0.00    -0.250 N 
ATOM      8  C   UNL     1       6.301  41.582  49.763  1.00  0.00     0.176 C 
ATOM      9  C   UNL     1       5.840  43.846  50.751  1.00  0.00     0.165 A 
ATOM     10  N   UNL     1       7.003  44.457  50.487  1.00  0.00    -0.193 NA
ENDROOT
BRANCH   1  11
ATOM     11  N   UNL     1       8.186  46.484  50.759  1.00  0.00    -0.354 N 
ATOM     12  H   UNL     1       8.916  45.856  50.442  1.00  0.00     0.163 HD
BRANCH  11  13
ATOM     13  C   UNL     1       8.560  47.351  51.864  1.00  0.00     0.116 C 
BRANCH  13  14
ATOM     14  C   UNL     1       9.885  46.897  52.481  1.00  0.00     0.021 C 
BRANCH  14  15
ATOM     15  C   UNL     1       9.791  46.624  53.984  1.00  0.00    -0.002 C 
ATOM     16  C   UNL     1       9.464  47.859  54.808  1.00  0.00     0.004 C 
ENDBRANCH  14  15
ENDBRANCH  13  14
ENDBRANCH  11  13
ENDBRANCH   1  11
BRANCH   3  17
ATOM     17  N   UNL     1       3.810  46.376  52.483  1.00  0.00    -0.336 N 
ATOM     18  H   UNL     1       3.653  47.305  52.113  1.00  0.00     0.168 HD
BRANCH  17  19
ATOM     19  C   UNL     1       2.940  46.071  53.553  1.00  0.00     0.082 A 
ATOM     20  C   UNL     1       3.530  45.966  54.831  1.00  0.00     0.030 A 
ATOM     21  C   UNL     1       1.558  45.846  53.487  1.00  0.00     0.139 A 
ATOM     22  C   UNL     1       2.786  45.653  55.976  1.00  0.00     0.006 A 
ATOM     23  C   UNL     1       0.807  45.532  54.629  1.00  0.00     0.051 A 
ATOM     24  C   UNL     1       1.416  45.421  55.880  1.00  0.00    -0.047 A 
ATOM     25  C   UNL     1       0.600  45.120  57.100  1.00  0.00     0.044 C 
BRANCH  21  26
ATOM     26  O   UNL     1       0.820  45.927  52.341  1.00  0.00    -0.506 OA
ATOM     27  H   UNL     1       0.049  46.493  52.552  1.00  0.00     0.293 HD
ENDBRANCH  21  26
ENDBRANCH  17  19
ENDBRANCH   3  17
TORSDOF 7
ENDMDL
MODEL 18
REMARK VINA RESULT:    -7.884      1.939      4.426
REMARK INTER + INTRA:         -11.754
REMARK INTER:                 -10.716
REMARK INTRA:                  -1.039
REMARK UNBOUND:                -0.875
REMARK SMILES CCCCNc1nc(Nc2ccc(C)cc2O)c2cnn(C)c2n1
REMARK SMILES IDX 6 1 7 2 8 3 18 4 19 5 20 6 21 7 22 8 23 9 24 10 5 11 4 13
REMARK SMILES IDX 3 14 2 15 1 16 9 17 10 19 11 20 16 21 12 22 15 23 13 24
REMARK SMILES IDX 14 25 17 26
REMARK H PARENT 5 12 9 18 17 27
ROOT
ATOM      1  C   UNL     1       7.400  45.652  50.815  1.00  0.00     0.226 A 
ATOM      2  N   UNL     1       6.064  45.693  51.000  1.00  0.00    -0.195 NA
ATOM      3  C   UNL     1       5.531  46.167  52.157  1.00  0.00     0.147 A 
ATOM      4  C   UNL     1       6.434  46.614  53.130  1.00  0.00     0.082 A 
ATOM      5  C   UNL     1       6.401  47.169  54.427  1.00  0.00     0.149 A 
ATOM      6  N   UNL     1       7.619  47.416  54.921  1.00  0.00    -0.179 NA
ATOM      7  N   UNL     1       8.443  47.019  53.923  1.00  0.00    -0.250 N 
ATOM      8  C   UNL     1       9.869  47.143  54.087  1.00  0.00     0.176 C 
ATOM      9  C   UNL     1       7.779  46.525  52.833  1.00  0.00     0.165 A 
ATOM     10  N   UNL     1       8.318  46.050  51.703  1.00  0.00    -0.193 NA
ENDROOT
BRANCH   1  11
ATOM     11  N   UNL     1       7.790  45.150  49.582  1.00  0.00    -0.354 N 
ATOM     12  H   UNL     1       7.126  45.500  48.900  1.00  0.00     0.163 HD
BRANCH  11  13
ATOM     13  C   UNL     1       8.044  43.721  49.515  1.00  0.00     0.116 C 
BRANCH  13  14
ATOM     14  C   UNL     1       6.849  42.990  48.896  1.00  0.00     0.021 C 
BRANCH  14  15
ATOM     15  C   UNL     1       6.282  41.889  49.795  1.00  0.00    -0.002 C 
ATOM     16  C   UNL     1       5.055  42.318  50.584  1.00  0.00     0.004 C 
ENDBRANCH  14  15
ENDBRANCH  13  14
ENDBRANCH  11  13
ENDBRANCH   1  11
BRANCH   3  17
ATOM     17  N   UNL     1       4.146  46.200  52.367  1.00  0.00    -0.336 N 
ATOM     18  H   UNL     1       3.812  47.141  52.533  1.00  0.00     0.168 HD
BRANCH  17  19
ATOM     19  C   UNL     1       3.112  45.243  52.442  1.00  0.00     0.082 A 
ATOM     20  C   UNL     1       2.373  45.026  51.258  1.00  0.00     0.030 A 
ATOM     21  C   UNL     1       2.726  44.492  53.561  1.00  0.00     0.139 A 
ATOM     22  C   UNL     1       1.310  44.115  51.197  1.00  0.00     0.006 A 
ATOM     23  C   UNL     1       1.663  43.581  53.506  1.00  0.00     0.051 A 
ATOM     24  C   UNL     1       0.938  43.393  52.328  1.00  0.00    -0.047 A 
ATOM     25  C   UNL     1      -0.174  42.391  52.269  1.00  0.00     0.044 C 
BRANCH  21  26
ATOM     26  O   UNL     1       3.341  44.557  54.778  1.00  0.00    -0.506 OA
ATOM     27  H   UNL     1       3.925  45.343  54.748  1.00  0.00     0.293 HD
ENDBRANCH  21  26
ENDBRANCH  17  19
ENDBRANCH   3  17
TORSDOF 7
ENDMDL
MODEL 19
REMARK VINA RESULT:    -7.802      1.668      4.424
REMARK INTER + INTRA:         -11.642
REMARK INTER:                 -10.707
REMARK INTRA:                  -0.935
REMARK UNBOUND:                -0.875
REMARK SMILES CCCCNc1nc(Nc2ccc(C)cc2O)c2cnn(C)c2n1
REMARK SMILES IDX 6 1 7 2 8 3 18 4 19 5 20 6 21 7 22 8 23 9 24 10 5 11 4 13
REMARK SMILES IDX 3 14 2 15 1 16 9 17 10 19 11 20 16 21 12 22 15 23 13 24
REMARK SMILES IDX 14 25 17 26
REMARK H PARENT 5 12 9 18 17 27
ROOT
ATOM      1  C   UNL     1       5.882  44.601  51.287  1.00  0.00     0.226 A 
ATOM      2  N   UNL     1       4.903  44.299  52.164  1.00  0.00    -0.195 NA
ATOM      3  C   UNL     1       4.875  44.858  53.403  1.00  0.00     0.147 A 
ATOM      4  C   UNL     1       5.900  45.762  53.710  1.00  0.00     0.082 A 
ATOM      5  C   UNL     1       6.305  46.573  54.791  1.00  0.00     0.149 A 
ATOM      6  N   UNL     1       7.417  47.269  54.533  1.00  0.00    -0.179 NA
ATOM      7  N   UNL     1       7.725  46.903  53.267  1.00  0.00    -0.250 N 
ATOM      8  C   UNL     1       8.884  47.468  52.625  1.00  0.00     0.176 C 
ATOM      9  C   UNL     1       6.849  45.997  52.735  1.00  0.00     0.165 A 
ATOM     10  N   UNL     1       6.894  45.444  51.516  1.00  0.00    -0.193 NA
ENDROOT
BRANCH   1  11
ATOM     11  N   UNL     1       5.769  43.958  50.063  1.00  0.00    -0.354 N 
ATOM     12  H   UNL     1       4.817  43.615  49.998  1.00  0.00     0.163 HD
BRANCH  11  13
ATOM     13  C   UNL     1       6.797  42.979  49.749  1.00  0.00     0.116 C 
BRANCH  13  14
ATOM     14  C   UNL     1       6.272  41.558  49.970  1.00  0.00     0.021 C 
BRANCH  14  15
ATOM     15  C   UNL     1       5.094  41.199  49.060  1.00  0.00    -0.002 C 
ATOM     16  C   UNL     1       3.810  40.896  49.817  1.00  0.00     0.004 C 
ENDBRANCH  14  15
ENDBRANCH  13  14
ENDBRANCH  11  13
ENDBRANCH   1  11
BRANCH   3  17
ATOM     17  N   UNL     1       3.873  44.540  54.329  1.00  0.00    -0.336 N 
ATOM     18  H   UNL     1       4.248  44.404  55.260  1.00  0.00     0.168 HD
BRANCH  17  19
ATOM     19  C   UNL     1       2.479  44.326  54.277  1.00  0.00     0.082 A 
ATOM     20  C   UNL     1       1.677  45.246  54.987  1.00  0.00     0.030 A 
ATOM     21  C   UNL     1       1.800  43.297  53.610  1.00  0.00     0.139 A 
ATOM     22  C   UNL     1       0.280  45.142  55.032  1.00  0.00     0.006 A 
ATOM     23  C   UNL     1       0.403  43.187  53.651  1.00  0.00     0.051 A 
ATOM     24  C   UNL     1      -0.367  44.101  54.372  1.00  0.00    -0.047 A 
ATOM     25  C   UNL     1      -1.862  43.996  54.381  1.00  0.00     0.044 C 
BRANCH  21  26
ATOM     26  O   UNL     1       2.412  42.335  52.859  1.00  0.00    -0.506 OA
ATOM     27  H   UNL     1       3.348  42.319  53.144  1.00  0.00     0.293 HD
ENDBRANCH  21  26
ENDBRANCH  17  19
ENDBRANCH   3  17
TORSDOF 7
ENDMDL
MODEL 20
REMARK VINA RESULT:    -7.790      2.324      7.190
REMARK INTER + INTRA:         -11.624
REMARK INTER:                 -10.851
REMARK INTRA:                  -0.774
REMARK UNBOUND:                -0.875
REMARK SMILES CCCCNc1nc(Nc2ccc(C)cc2O)c2cnn(C)c2n1
REMARK SMILES IDX 6 1 7 2 8 3 18 4 19 5 20 6 21 7 22 8 23 9 24 10 5 11 4 13
REMARK SMILES IDX 3 14 2 15 1 16 9 17 10 19 11 20 16 21 12 22 15 23 13 24
REMARK SMILES IDX 14 25 17 26
REMARK H PARENT 5 12 9 18 17 27
ROOT
ATOM      1  C   UNL     1       2.434  45.536  55.308  1.00  0.00     0.226 A 
ATOM      2  N   UNL     1       3.350  46.148  54.527  1.00  0.00    -0.195 NA
ATOM      3  C   UNL     1       3.546  45.757  53.240  1.00  0.00     0.147 A 
ATOM      4  C   UNL     1       2.746  44.706  52.771  1.00  0.00     0.082 A 
ATOM      5  C   UNL     1       2.561  43.969  51.583  1.00  0.00     0.149 A 
ATOM      6  N   UNL     1       1.618  43.027  51.695  1.00  0.00    -0.179 NA
ATOM      7  N   UNL     1       1.191  43.168  52.971  1.00  0.00    -0.250 N 
ATOM      8  C   UNL     1       0.145  42.311  53.470  1.00  0.00     0.176 C 
ATOM      9  C   UNL     1       1.842  44.156  53.657  1.00  0.00     0.165 A 
ATOM     10  N   UNL     1       1.647  44.523  54.930  1.00  0.00    -0.193 NA
ENDROOT
BRANCH   1  11
ATOM     11  N   UNL     1       2.346  46.051  56.592  1.00  0.00    -0.354 N 
ATOM     12  H   UNL     1       3.122  45.664  57.118  1.00  0.00     0.163 HD
BRANCH  11  13
ATOM     13  C   UNL     1       1.051  45.948  57.244  1.00  0.00     0.116 C 
BRANCH  13  14
ATOM     14  C   UNL     1       1.016  46.806  58.512  1.00  0.00     0.021 C 
BRANCH  14  15
ATOM     15  C   UNL     1      -0.286  47.594  58.674  1.00  0.00    -0.002 C 
ATOM     16  C   UNL     1      -0.384  48.344  59.993  1.00  0.00     0.004 C 
ENDBRANCH  14  15
ENDBRANCH  13  14
ENDBRANCH  11  13
ENDBRANCH   1  11
BRANCH   3  17
ATOM     17  N   UNL     1       4.504  46.372  52.424  1.00  0.00    -0.336 N 
ATOM     18  H   UNL     1       4.079  46.889  51.665  1.00  0.00     0.168 HD
BRANCH  17  19
ATOM     19  C   UNL     1       5.915  46.418  52.380  1.00  0.00     0.082 A 
ATOM     20  C   UNL     1       6.520  45.945  51.195  1.00  0.00     0.030 A 
ATOM     21  C   UNL     1       6.783  46.866  53.385  1.00  0.00     0.139 A 
ATOM     22  C   UNL     1       7.910  45.919  51.025  1.00  0.00     0.006 A 
ATOM     23  C   UNL     1       8.175  46.843  53.221  1.00  0.00     0.051 A 
ATOM     24  C   UNL     1       8.751  46.358  52.045  1.00  0.00    -0.047 A 
ATOM     25  C   UNL     1      10.238  46.369  51.865  1.00  0.00     0.044 C 
BRANCH  21  26
ATOM     26  O   UNL     1       6.373  47.376  54.584  1.00  0.00    -0.506 OA
ATOM     27  H   UNL     1       5.673  48.029  54.378  1.00  0.00     0.293 HD
ENDBRANCH  21  26
ENDBRANCH  17  19
ENDBRANCH   3  17
TORSDOF 7
ENDMDL
