MODEL 1
REMARK VINA RESULT:    -8.386      0.000      0.000
REMARK INTER + INTRA:         -12.679
REMARK INTER:                 -12.062
REMARK INTRA:                  -0.617
REMARK UNBOUND:                -0.617
REMARK SMILES COc1ccc(Nc2nc(NCCO)c3nccnc3n2)c(OC)c1
REMARK SMILES IDX 8 1 9 2 10 3 15 4 16 5 17 6 18 7 19 8 20 9 21 10 7 11 6 13
REMARK SMILES IDX 3 14 4 15 25 16 5 17 22 18 2 19 1 20 23 21 24 22 11 23 12 25
REMARK SMILES IDX 13 26 14 27
REMARK H PARENT 7 12 11 24 14 28
ROOT
ATOM      1  C   UNL     1       6.396  44.980  51.212  1.00  0.00     0.231 A 
ATOM      2  N   UNL     1       5.448  44.709  52.113  1.00  0.00    -0.193 NA
ATOM      3  C   UNL     1       4.691  43.610  51.926  1.00  0.00     0.160 A 
ATOM      4  C   UNL     1       4.868  42.743  50.850  1.00  0.00     0.150 A 
ATOM      5  N   UNL     1       4.102  41.624  50.642  1.00  0.00    -0.247 NA
ATOM      6  C   UNL     1       4.398  40.896  49.550  1.00  0.00     0.132 A 
ATOM      7  C   UNL     1       5.407  41.270  48.693  1.00  0.00     0.133 A 
ATOM      8  N   UNL     1       6.153  42.380  48.894  1.00  0.00    -0.233 NA
ATOM      9  C   UNL     1       5.891  43.127  49.974  1.00  0.00     0.185 A 
ATOM     10  N   UNL     1       6.631  44.214  50.149  1.00  0.00    -0.191 NA
ENDROOT
BRANCH   1  11
ATOM     11  N   UNL     1       7.133  46.129  51.460  1.00  0.00    -0.321 N 
ATOM     12  H   UNL     1       7.060  46.784  50.691  1.00  0.00     0.170 HD
BRANCH  11  13
ATOM     13  C   UNL     1       7.925  46.588  52.524  1.00  0.00     0.084 A 
ATOM     14  C   UNL     1       9.423  47.563  54.714  1.00  0.00     0.122 A 
ATOM     15  C   UNL     1      10.048  46.849  53.696  1.00  0.00     0.049 A 
ATOM     16  C   UNL     1       8.047  47.794  54.644  1.00  0.00     0.095 A 
ATOM     17  C   UNL     1       9.303  46.368  52.612  1.00  0.00     0.034 A 
ATOM     18  C   UNL     1       7.297  47.315  53.563  1.00  0.00     0.146 A 
BRANCH  14  19
ATOM     19  O   UNL     1      10.033  48.085  55.822  1.00  0.00    -0.497 OA
ATOM     20  C   UNL     1      11.183  47.400  56.304  1.00  0.00     0.278 C 
ENDBRANCH  14  19
BRANCH  18  21
ATOM     21  O   UNL     1       5.939  47.492  53.408  1.00  0.00    -0.494 OA
ATOM     22  C   UNL     1       5.130  47.317  54.564  1.00  0.00     0.278 C 
ENDBRANCH  18  21
ENDBRANCH  11  13
ENDBRANCH   1  11
BRANCH   3  23
ATOM     23  N   UNL     1       3.732  43.269  52.914  1.00  0.00    -0.366 N 
ATOM     24  H   UNL     1       3.310  42.371  52.660  1.00  0.00     0.162 HD
BRANCH  23  25
ATOM     25  C   UNL     1       2.707  44.283  53.156  1.00  0.00     0.142 C 
BRANCH  25  26
ATOM     26  C   UNL     1       1.409  43.593  53.586  1.00  0.00     0.177 C 
BRANCH  26  27
ATOM     27  O   UNL     1       1.579  42.174  53.558  1.00  0.00    -0.395 OA
ATOM     28  H   UNL     1       0.930  41.802  54.180  1.00  0.00     0.210 HD
ENDBRANCH  26  27
ENDBRANCH  25  26
ENDBRANCH  23  25
ENDBRANCH   3  23
TORSDOF 8
ENDMDL
MODEL 2
REMARK VINA RESULT:    -7.918      2.068      3.329
REMARK INTER + INTRA:         -12.006
REMARK INTER:                 -11.245
REMARK INTRA:                  -0.761
REMARK UNBOUND:                -0.617
REMARK SMILES COc1ccc(Nc2nc(NCCO)c3nccnc3n2)c(OC)c1
REMARK SMILES IDX 8 1 9 2 10 3 15 4 16 5 17 6 18 7 19 8 20 9 21 10 7 11 6 13
REMARK SMILES IDX 3 14 4 15 25 16 5 17 22 18 2 19 1 20 23 21 24 22 11 23 12 25
REMARK SMILES IDX 13 26 14 27
REMARK H PARENT 7 12 11 24 14 28
ROOT
ATOM      1  C   UNL     1       5.355  45.398  51.246  1.00  0.00     0.231 A 
ATOM      2  N   UNL     1       5.707  44.118  51.100  1.00  0.00    -0.193 NA
ATOM      3  C   UNL     1       4.731  43.190  51.084  1.00  0.00     0.160 A 
ATOM      4  C   UNL     1       3.380  43.509  51.193  1.00  0.00     0.150 A 
ATOM      5  N   UNL     1       2.375  42.575  51.185  1.00  0.00    -0.247 NA
ATOM      6  C   UNL     1       1.122  43.050  51.307  1.00  0.00     0.132 A 
ATOM      7  C   UNL     1       0.877  44.397  51.444  1.00  0.00     0.133 A 
ATOM      8  N   UNL     1       1.870  45.314  51.464  1.00  0.00    -0.233 NA
ATOM      9  C   UNL     1       3.131  44.880  51.339  1.00  0.00     0.185 A 
ATOM     10  N   UNL     1       4.090  45.796  51.367  1.00  0.00    -0.191 NA
ENDROOT
BRANCH   1  11
ATOM     11  N   UNL     1       6.408  46.301  51.262  1.00  0.00    -0.321 N 
ATOM     12  H   UNL     1       6.321  46.979  50.515  1.00  0.00     0.170 HD
BRANCH  11  13
ATOM     13  C   UNL     1       7.534  46.494  52.077  1.00  0.00     0.084 A 
ATOM     14  C   UNL     1       9.732  46.941  53.798  1.00  0.00     0.122 A 
ATOM     15  C   UNL     1       9.915  46.308  52.572  1.00  0.00     0.049 A 
ATOM     16  C   UNL     1       8.450  47.354  54.171  1.00  0.00     0.095 A 
ATOM     17  C   UNL     1       8.824  46.089  51.722  1.00  0.00     0.034 A 
ATOM     18  C   UNL     1       7.356  47.137  53.325  1.00  0.00     0.146 A 
BRANCH  14  19
ATOM     19  O   UNL     1      10.710  47.214  54.716  1.00  0.00    -0.497 OA
ATOM     20  C   UNL     1      10.303  47.872  55.909  1.00  0.00     0.278 C 
ENDBRANCH  14  19
BRANCH  18  21
ATOM     21  O   UNL     1       6.059  47.508  53.607  1.00  0.00    -0.494 OA
ATOM     22  C   UNL     1       5.422  46.849  54.694  1.00  0.00     0.278 C 
ENDBRANCH  18  21
ENDBRANCH  11  13
ENDBRANCH   1  11
BRANCH   3  23
ATOM     23  N   UNL     1       5.085  41.835  50.855  1.00  0.00    -0.366 N 
ATOM     24  H   UNL     1       5.408  41.430  51.737  1.00  0.00     0.162 HD
BRANCH  23  25
ATOM     25  C   UNL     1       6.063  41.625  49.788  1.00  0.00     0.142 C 
BRANCH  25  26
ATOM     26  C   UNL     1       5.332  41.183  48.516  1.00  0.00     0.177 C 
BRANCH  26  27
ATOM     27  O   UNL     1       6.101  41.539  47.364  1.00  0.00    -0.395 OA
ATOM     28  H   UNL     1       7.033  41.546  47.642  1.00  0.00     0.210 HD
ENDBRANCH  26  27
ENDBRANCH  25  26
ENDBRANCH  23  25
ENDBRANCH   3  23
TORSDOF 8
ENDMDL
MODEL 3
REMARK VINA RESULT:    -7.906      2.004      3.718
REMARK INTER + INTRA:         -11.989
REMARK INTER:                 -11.227
REMARK INTRA:                  -0.762
REMARK UNBOUND:                -0.617
REMARK SMILES COc1ccc(Nc2nc(NCCO)c3nccnc3n2)c(OC)c1
REMARK SMILES IDX 8 1 9 2 10 3 15 4 16 5 17 6 18 7 19 8 20 9 21 10 7 11 6 13
REMARK SMILES IDX 3 14 4 15 25 16 5 17 22 18 2 19 1 20 23 21 24 22 11 23 12 25
REMARK SMILES IDX 13 26 14 27
REMARK H PARENT 7 12 11 24 14 28
ROOT
ATOM      1  C   UNL     1       3.977  45.455  51.470  1.00  0.00     0.231 A 
ATOM      2  N   UNL     1       4.246  44.147  51.506  1.00  0.00    -0.193 NA
ATOM      3  C   UNL     1       3.246  43.303  51.824  1.00  0.00     0.160 A 
ATOM      4  C   UNL     1       1.950  43.732  52.097  1.00  0.00     0.150 A 
ATOM      5  N   UNL     1       0.922  42.885  52.428  1.00  0.00    -0.247 NA
ATOM      6  C   UNL     1      -0.269  43.462  52.669  1.00  0.00     0.132 A 
ATOM      7  C   UNL     1      -0.431  44.826  52.595  1.00  0.00     0.133 A 
ATOM      8  N   UNL     1       0.586  45.660  52.279  1.00  0.00    -0.233 NA
ATOM      9  C   UNL     1       1.786  45.121  52.028  1.00  0.00     0.185 A 
ATOM     10  N   UNL     1       2.771  45.957  51.726  1.00  0.00    -0.191 NA
ENDROOT
BRANCH   1  11
ATOM     11  N   UNL     1       5.052  46.269  51.145  1.00  0.00    -0.321 N 
ATOM     12  H   UNL     1       4.815  46.904  50.392  1.00  0.00     0.170 HD
BRANCH  11  13
ATOM     13  C   UNL     1       6.361  46.422  51.627  1.00  0.00     0.084 A 
ATOM     14  C   UNL     1       8.955  46.800  52.685  1.00  0.00     0.122 A 
ATOM     15  C   UNL     1       8.769  46.041  51.534  1.00  0.00     0.049 A 
ATOM     16  C   UNL     1       7.847  47.374  53.314  1.00  0.00     0.095 A 
ATOM     17  C   UNL     1       7.482  45.856  51.012  1.00  0.00     0.034 A 
ATOM     18  C   UNL     1       6.559  47.192  52.796  1.00  0.00     0.146 A 
BRANCH  14  19
ATOM     19  O   UNL     1      10.154  47.056  53.294  1.00  0.00    -0.497 OA
ATOM     20  C   UNL     1      10.128  47.255  54.702  1.00  0.00     0.278 C 
ENDBRANCH  14  19
BRANCH  18  21
ATOM     21  O   UNL     1       5.410  47.718  53.347  1.00  0.00    -0.494 OA
ATOM     22  C   UNL     1       4.984  47.177  54.591  1.00  0.00     0.278 C 
ENDBRANCH  18  21
ENDBRANCH  11  13
ENDBRANCH   1  11
BRANCH   3  23
ATOM     23  N   UNL     1       3.499  41.907  51.791  1.00  0.00    -0.366 N 
ATOM     24  H   UNL     1       3.693  41.589  52.744  1.00  0.00     0.162 HD
BRANCH  23  25
ATOM     25  C   UNL     1       4.558  41.493  50.871  1.00  0.00     0.142 C 
BRANCH  25  26
ATOM     26  C   UNL     1       3.924  40.959  49.583  1.00  0.00     0.177 C 
BRANCH  26  27
ATOM     27  O   UNL     1       3.074  39.848  49.882  1.00  0.00    -0.395 OA
ATOM     28  H   UNL     1       2.170  40.115  49.640  1.00  0.00     0.210 HD
ENDBRANCH  26  27
ENDBRANCH  25  26
ENDBRANCH  23  25
ENDBRANCH   3  23
TORSDOF 8
ENDMDL
MODEL 4
REMARK VINA RESULT:    -7.786      2.176      4.034
REMARK INTER + INTRA:         -11.817
REMARK INTER:                 -11.039
REMARK INTRA:                  -0.779
REMARK UNBOUND:                -0.617
REMARK SMILES COc1ccc(Nc2nc(NCCO)c3nccnc3n2)c(OC)c1
REMARK SMILES IDX 8 1 9 2 10 3 15 4 16 5 17 6 18 7 19 8 20 9 21 10 7 11 6 13
REMARK SMILES IDX 3 14 4 15 25 16 5 17 22 18 2 19 1 20 23 21 24 22 11 23 12 25
REMARK SMILES IDX 13 26 14 27
REMARK H PARENT 7 12 11 24 14 28
ROOT
ATOM      1  C   UNL     1       4.183  45.351  51.522  1.00  0.00     0.231 A 
ATOM      2  N   UNL     1       4.351  44.027  51.450  1.00  0.00    -0.193 NA
ATOM      3  C   UNL     1       3.281  43.240  51.677  1.00  0.00     0.160 A 
ATOM      4  C   UNL     1       2.015  43.746  51.962  1.00  0.00     0.150 A 
ATOM      5  N   UNL     1       0.918  42.957  52.202  1.00  0.00    -0.247 NA
ATOM      6  C   UNL     1      -0.231  43.603  52.469  1.00  0.00     0.132 A 
ATOM      7  C   UNL     1      -0.286  44.977  52.509  1.00  0.00     0.133 A 
ATOM      8  N   UNL     1       0.799  45.752  52.284  1.00  0.00    -0.233 NA
ATOM      9  C   UNL     1       1.960  45.144  52.009  1.00  0.00     0.185 A 
ATOM     10  N   UNL     1       3.013  45.923  51.797  1.00  0.00    -0.191 NA
ENDROOT
BRANCH   1  11
ATOM     11  N   UNL     1       5.325  46.103  51.286  1.00  0.00    -0.321 N 
ATOM     12  H   UNL     1       5.263  46.596  50.404  1.00  0.00     0.170 HD
BRANCH  11  13
ATOM     13  C   UNL     1       6.515  46.345  51.990  1.00  0.00     0.084 A 
ATOM     14  C   UNL     1       8.973  46.797  53.310  1.00  0.00     0.122 A 
ATOM     15  C   UNL     1       7.769  46.995  53.978  1.00  0.00     0.049 A 
ATOM     16  C   UNL     1       8.956  46.373  51.979  1.00  0.00     0.095 A 
ATOM     17  C   UNL     1       6.553  46.769  53.322  1.00  0.00     0.034 A 
ATOM     18  C   UNL     1       7.743  46.146  51.317  1.00  0.00     0.146 A 
BRANCH  14  19
ATOM     19  O   UNL     1      10.224  46.981  53.835  1.00  0.00    -0.497 OA
ATOM     20  C   UNL     1      10.294  47.413  55.188  1.00  0.00     0.278 C 
ENDBRANCH  14  19
BRANCH  18  21
ATOM     21  O   UNL     1       7.628  45.728  50.009  1.00  0.00    -0.494 OA
ATOM     22  C   UNL     1       8.095  44.419  49.706  1.00  0.00     0.278 C 
ENDBRANCH  18  21
ENDBRANCH  11  13
ENDBRANCH   1  11
BRANCH   3  23
ATOM     23  N   UNL     1       3.427  41.837  51.530  1.00  0.00    -0.366 N 
ATOM     24  H   UNL     1       3.552  41.424  52.458  1.00  0.00     0.162 HD
BRANCH  23  25
ATOM     25  C   UNL     1       4.493  41.418  50.620  1.00  0.00     0.142 C 
BRANCH  25  26
ATOM     26  C   UNL     1       3.869  40.798  49.366  1.00  0.00     0.177 C 
BRANCH  26  27
ATOM     27  O   UNL     1       3.062  39.674  49.729  1.00  0.00    -0.395 OA
ATOM     28  H   UNL     1       3.194  39.533  50.683  1.00  0.00     0.210 HD
ENDBRANCH  26  27
ENDBRANCH  25  26
ENDBRANCH  23  25
ENDBRANCH   3  23
TORSDOF 8
ENDMDL
MODEL 5
REMARK VINA RESULT:    -7.732      2.568      6.867
REMARK INTER + INTRA:         -11.739
REMARK INTER:                 -11.206
REMARK INTRA:                  -0.533
REMARK UNBOUND:                -0.617
REMARK SMILES COc1ccc(Nc2nc(NCCO)c3nccnc3n2)c(OC)c1
REMARK SMILES IDX 8 1 9 2 10 3 15 4 16 5 17 6 18 7 19 8 20 9 21 10 7 11 6 13
REMARK SMILES IDX 3 14 4 15 25 16 5 17 22 18 2 19 1 20 23 21 24 22 11 23 12 25
REMARK SMILES IDX 13 26 14 27
REMARK H PARENT 7 12 11 24 14 28
ROOT
ATOM      1  C   UNL     1       5.416  46.998  52.811  1.00  0.00     0.231 A 
ATOM      2  N   UNL     1       5.669  46.257  51.729  1.00  0.00    -0.193 NA
ATOM      3  C   UNL     1       6.955  45.994  51.427  1.00  0.00     0.160 A 
ATOM      4  C   UNL     1       8.022  46.442  52.203  1.00  0.00     0.150 A 
ATOM      5  N   UNL     1       9.338  46.188  51.905  1.00  0.00    -0.247 NA
ATOM      6  C   UNL     1      10.247  46.700  52.753  1.00  0.00     0.132 A 
ATOM      7  C   UNL     1       9.868  47.445  53.846  1.00  0.00     0.133 A 
ATOM      8  N   UNL     1       8.572  47.704  54.130  1.00  0.00    -0.233 NA
ATOM      9  C   UNL     1       7.636  47.206  53.311  1.00  0.00     0.185 A 
ATOM     10  N   UNL     1       6.371  47.477  53.605  1.00  0.00    -0.191 NA
ENDROOT
BRANCH   1  11
ATOM     11  N   UNL     1       4.073  47.238  53.060  1.00  0.00    -0.321 N 
ATOM     12  H   UNL     1       3.875  48.231  53.076  1.00  0.00     0.170 HD
BRANCH  11  13
ATOM     13  C   UNL     1       2.944  46.431  53.270  1.00  0.00     0.084 A 
ATOM     14  C   UNL     1       0.715  44.775  53.802  1.00  0.00     0.122 A 
ATOM     15  C   UNL     1       0.830  45.430  52.579  1.00  0.00     0.049 A 
ATOM     16  C   UNL     1       1.712  44.944  54.765  1.00  0.00     0.095 A 
ATOM     17  C   UNL     1       1.936  46.248  52.318  1.00  0.00     0.034 A 
ATOM     18  C   UNL     1       2.820  45.762  54.510  1.00  0.00     0.146 A 
BRANCH  14  19
ATOM     19  O   UNL     1      -0.310  43.952  54.179  1.00  0.00    -0.497 OA
ATOM     20  C   UNL     1      -0.327  42.647  53.613  1.00  0.00     0.278 C 
ENDBRANCH  14  19
BRANCH  18  21
ATOM     21  O   UNL     1       3.850  45.988  55.398  1.00  0.00    -0.494 OA
ATOM     22  C   UNL     1       4.826  44.962  55.529  1.00  0.00     0.278 C 
ENDBRANCH  18  21
ENDBRANCH  11  13
ENDBRANCH   1  11
BRANCH   3  23
ATOM     23  N   UNL     1       7.235  45.146  50.325  1.00  0.00    -0.366 N 
ATOM     24  H   UNL     1       7.320  45.723  49.484  1.00  0.00     0.162 HD
BRANCH  23  25
ATOM     25  C   UNL     1       6.278  44.058  50.124  1.00  0.00     0.142 C 
BRANCH  25  26
ATOM     26  C   UNL     1       6.966  42.918  49.365  1.00  0.00     0.177 C 
BRANCH  26  27
ATOM     27  O   UNL     1       8.270  43.328  48.947  1.00  0.00    -0.395 OA
ATOM     28  H   UNL     1       8.408  44.225  49.301  1.00  0.00     0.210 HD
ENDBRANCH  26  27
ENDBRANCH  25  26
ENDBRANCH  23  25
ENDBRANCH   3  23
TORSDOF 8
ENDMDL
MODEL 6
REMARK VINA RESULT:    -7.628      2.807      7.045
REMARK INTER + INTRA:         -11.589
REMARK INTER:                 -10.824
REMARK INTRA:                  -0.765
REMARK UNBOUND:                -0.617
REMARK SMILES COc1ccc(Nc2nc(NCCO)c3nccnc3n2)c(OC)c1
REMARK SMILES IDX 8 1 9 2 10 3 15 4 16 5 17 6 18 7 19 8 20 9 21 10 7 11 6 13
REMARK SMILES IDX 3 14 4 15 25 16 5 17 22 18 2 19 1 20 23 21 24 22 11 23 12 25
REMARK SMILES IDX 13 26 14 27
REMARK H PARENT 7 12 11 24 14 28
ROOT
ATOM      1  C   UNL     1       5.450  46.948  53.477  1.00  0.00     0.231 A 
ATOM      2  N   UNL     1       5.720  46.359  52.309  1.00  0.00    -0.193 NA
ATOM      3  C   UNL     1       7.012  46.166  51.980  1.00  0.00     0.160 A 
ATOM      4  C   UNL     1       8.068  46.536  52.809  1.00  0.00     0.150 A 
ATOM      5  N   UNL     1       9.389  46.352  52.485  1.00  0.00    -0.247 NA
ATOM      6  C   UNL     1      10.287  46.771  53.395  1.00  0.00     0.132 A 
ATOM      7  C   UNL     1       9.890  47.360  54.574  1.00  0.00     0.133 A 
ATOM      8  N   UNL     1       8.589  47.550  54.885  1.00  0.00    -0.233 NA
ATOM      9  C   UNL     1       7.665  47.141  54.006  1.00  0.00     0.185 A 
ATOM     10  N   UNL     1       6.394  47.343  54.329  1.00  0.00    -0.191 NA
ENDROOT
BRANCH   1  11
ATOM     11  N   UNL     1       4.102  47.123  53.750  1.00  0.00    -0.321 N 
ATOM     12  H   UNL     1       3.833  48.095  53.659  1.00  0.00     0.170 HD
BRANCH  11  13
ATOM     13  C   UNL     1       3.042  46.271  54.100  1.00  0.00     0.084 A 
ATOM     14  C   UNL     1       0.865  44.568  54.690  1.00  0.00     0.122 A 
ATOM     15  C   UNL     1       1.797  44.885  55.673  1.00  0.00     0.049 A 
ATOM     16  C   UNL     1       1.015  45.099  53.407  1.00  0.00     0.095 A 
ATOM     17  C   UNL     1       2.874  45.730  55.378  1.00  0.00     0.034 A 
ATOM     18  C   UNL     1       2.090  45.944  53.106  1.00  0.00     0.146 A 
BRANCH  14  19
ATOM     19  O   UNL     1      -0.227  43.758  54.849  1.00  0.00    -0.497 OA
ATOM     20  C   UNL     1      -0.669  43.045  53.701  1.00  0.00     0.278 C 
ENDBRANCH  14  19
BRANCH  18  21
ATOM     21  O   UNL     1       2.320  46.513  51.872  1.00  0.00    -0.494 OA
ATOM     22  C   UNL     1       2.750  45.645  50.830  1.00  0.00     0.278 C 
ENDBRANCH  18  21
ENDBRANCH  11  13
ENDBRANCH   1  11
BRANCH   3  23
ATOM     23  N   UNL     1       7.312  45.475  50.778  1.00  0.00    -0.366 N 
ATOM     24  H   UNL     1       7.360  46.155  50.015  1.00  0.00     0.162 HD
BRANCH  23  25
ATOM     25  C   UNL     1       6.398  44.380  50.451  1.00  0.00     0.142 C 
BRANCH  25  26
ATOM     26  C   UNL     1       7.092  43.420  49.480  1.00  0.00     0.177 C 
BRANCH  26  27
ATOM     27  O   UNL     1       8.467  43.782  49.336  1.00  0.00    -0.395 OA
ATOM     28  H   UNL     1       8.899  43.055  48.855  1.00  0.00     0.210 HD
ENDBRANCH  26  27
ENDBRANCH  25  26
ENDBRANCH  23  25
ENDBRANCH   3  23
TORSDOF 8
ENDMDL
MODEL 7
REMARK VINA RESULT:    -7.558      1.309      2.081
REMARK INTER + INTRA:         -11.488
REMARK INTER:                 -10.816
REMARK INTRA:                  -0.672
REMARK UNBOUND:                -0.617
REMARK SMILES COc1ccc(Nc2nc(NCCO)c3nccnc3n2)c(OC)c1
REMARK SMILES IDX 8 1 9 2 10 3 15 4 16 5 17 6 18 7 19 8 20 9 21 10 7 11 6 13
REMARK SMILES IDX 3 14 4 15 25 16 5 17 22 18 2 19 1 20 23 21 24 22 11 23 12 25
REMARK SMILES IDX 13 26 14 27
REMARK H PARENT 7 12 11 24 14 28
ROOT
ATOM      1  C   UNL     1       6.335  44.906  51.197  1.00  0.00     0.231 A 
ATOM      2  N   UNL     1       5.399  44.692  52.125  1.00  0.00    -0.193 NA
ATOM      3  C   UNL     1       4.592  43.623  51.978  1.00  0.00     0.160 A 
ATOM      4  C   UNL     1       4.707  42.728  50.917  1.00  0.00     0.150 A 
ATOM      5  N   UNL     1       3.890  41.638  50.750  1.00  0.00    -0.247 NA
ATOM      6  C   UNL     1       4.129  40.877  49.667  1.00  0.00     0.132 A 
ATOM      7  C   UNL     1       5.131  41.192  48.778  1.00  0.00     0.133 A 
ATOM      8  N   UNL     1       5.928  42.273  48.939  1.00  0.00    -0.233 NA
ATOM      9  C   UNL     1       5.723  43.052  50.010  1.00  0.00     0.185 A 
ATOM     10  N   UNL     1       6.511  44.110  50.144  1.00  0.00    -0.191 NA
ENDROOT
BRANCH   1  11
ATOM     11  N   UNL     1       7.125  46.027  51.404  1.00  0.00    -0.321 N 
ATOM     12  H   UNL     1       7.250  46.550  50.546  1.00  0.00     0.170 HD
BRANCH  11  13
ATOM     13  C   UNL     1       7.761  46.599  52.517  1.00  0.00     0.084 A 
ATOM     14  C   UNL     1       9.148  47.731  54.704  1.00  0.00     0.122 A 
ATOM     15  C   UNL     1       7.761  47.623  54.730  1.00  0.00     0.049 A 
ATOM     16  C   UNL     1       9.850  47.276  53.585  1.00  0.00     0.095 A 
ATOM     17  C   UNL     1       7.077  47.061  53.645  1.00  0.00     0.034 A 
ATOM     18  C   UNL     1       9.171  46.713  52.497  1.00  0.00     0.146 A 
BRANCH  14  19
ATOM     19  O   UNL     1       9.933  48.259  55.694  1.00  0.00    -0.497 OA
ATOM     20  C   UNL     1      11.072  47.500  56.081  1.00  0.00     0.278 C 
ENDBRANCH  14  19
BRANCH  18  21
ATOM     21  O   UNL     1       9.776  46.238  51.354  1.00  0.00    -0.494 OA
ATOM     22  C   UNL     1      10.651  45.126  51.501  1.00  0.00     0.278 C 
ENDBRANCH  18  21
ENDBRANCH  11  13
ENDBRANCH   1  11
BRANCH   3  23
ATOM     23  N   UNL     1       3.644  43.341  52.995  1.00  0.00    -0.366 N 
ATOM     24  H   UNL     1       3.234  42.422  52.811  1.00  0.00     0.162 HD
BRANCH  23  25
ATOM     25  C   UNL     1       2.606  44.357  53.170  1.00  0.00     0.142 C 
BRANCH  25  26
ATOM     26  C   UNL     1       2.898  45.159  54.442  1.00  0.00     0.177 C 
BRANCH  26  27
ATOM     27  O   UNL     1       3.963  44.545  55.172  1.00  0.00    -0.395 OA
ATOM     28  H   UNL     1       3.553  44.056  55.906  1.00  0.00     0.210 HD
ENDBRANCH  26  27
ENDBRANCH  25  26
ENDBRANCH  23  25
ENDBRANCH   3  23
TORSDOF 8
ENDMDL
MODEL 8
REMARK VINA RESULT:    -7.531      2.159      6.141
REMARK INTER + INTRA:         -11.450
REMARK INTER:                 -10.553
REMARK INTRA:                  -0.897
REMARK UNBOUND:                -0.617
REMARK SMILES COc1ccc(Nc2nc(NCCO)c3nccnc3n2)c(OC)c1
REMARK SMILES IDX 8 1 9 2 10 3 15 4 16 5 17 6 18 7 19 8 20 9 21 10 7 11 6 13
REMARK SMILES IDX 3 14 4 15 25 16 5 17 22 18 2 19 1 20 23 21 24 22 11 23 12 25
REMARK SMILES IDX 13 26 14 27
REMARK H PARENT 7 12 11 24 14 28
ROOT
ATOM      1  C   UNL     1       5.379  46.283  52.043  1.00  0.00     0.231 A 
ATOM      2  N   UNL     1       6.545  46.894  52.274  1.00  0.00    -0.193 NA
ATOM      3  C   UNL     1       7.639  46.433  51.637  1.00  0.00     0.160 A 
ATOM      4  C   UNL     1       7.601  45.367  50.741  1.00  0.00     0.150 A 
ATOM      5  N   UNL     1       8.708  44.883  50.089  1.00  0.00    -0.247 NA
ATOM      6  C   UNL     1       8.501  43.843  49.262  1.00  0.00     0.132 A 
ATOM      7  C   UNL     1       7.249  43.298  49.096  1.00  0.00     0.133 A 
ATOM      8  N   UNL     1       6.163  43.770  49.749  1.00  0.00    -0.233 NA
ATOM      9  C   UNL     1       6.328  44.809  50.578  1.00  0.00     0.185 A 
ATOM     10  N   UNL     1       5.250  45.251  51.212  1.00  0.00    -0.191 NA
ENDROOT
BRANCH   1  11
ATOM     11  N   UNL     1       4.295  46.800  52.737  1.00  0.00    -0.321 N 
ATOM     12  H   UNL     1       4.327  47.812  52.764  1.00  0.00     0.170 HD
BRANCH  11  13
ATOM     13  C   UNL     1       3.175  46.250  53.380  1.00  0.00     0.084 A 
ATOM     14  C   UNL     1       0.988  45.127  54.775  1.00  0.00     0.122 A 
ATOM     15  C   UNL     1       0.858  45.494  53.439  1.00  0.00     0.049 A 
ATOM     16  C   UNL     1       2.212  45.319  55.421  1.00  0.00     0.095 A 
ATOM     17  C   UNL     1       1.944  46.049  52.751  1.00  0.00     0.034 A 
ATOM     18  C   UNL     1       3.301  45.874  54.738  1.00  0.00     0.146 A 
BRANCH  14  19
ATOM     19  O   UNL     1       0.009  44.577  55.557  1.00  0.00    -0.497 OA
ATOM     20  C   UNL     1      -0.321  45.272  56.754  1.00  0.00     0.278 C 
ENDBRANCH  14  19
BRANCH  18  21
ATOM     21  O   UNL     1       4.543  46.101  55.291  1.00  0.00    -0.494 OA
ATOM     22  C   UNL     1       5.396  44.974  55.445  1.00  0.00     0.278 C 
ENDBRANCH  18  21
ENDBRANCH  11  13
ENDBRANCH   1  11
BRANCH   3  23
ATOM     23  N   UNL     1       8.867  47.120  51.814  1.00  0.00    -0.366 N 
ATOM     24  H   UNL     1       9.386  47.091  50.932  1.00  0.00     0.162 HD
BRANCH  23  25
ATOM     25  C   UNL     1       9.689  46.639  52.924  1.00  0.00     0.142 C 
BRANCH  25  26
ATOM     26  C   UNL     1       9.518  47.580  54.121  1.00  0.00     0.177 C 
BRANCH  26  27
ATOM     27  O   UNL     1       8.318  47.256  54.827  1.00  0.00    -0.395 OA
ATOM     28  H   UNL     1       8.123  46.323  54.633  1.00  0.00     0.210 HD
ENDBRANCH  26  27
ENDBRANCH  25  26
ENDBRANCH  23  25
ENDBRANCH   3  23
TORSDOF 8
ENDMDL
MODEL 9
REMARK VINA RESULT:    -7.502      2.434      6.701
REMARK INTER + INTRA:         -11.408
REMARK INTER:                 -10.520
REMARK INTRA:                  -0.888
REMARK UNBOUND:                -0.617
REMARK SMILES COc1ccc(Nc2nc(NCCO)c3nccnc3n2)c(OC)c1
REMARK SMILES IDX 8 1 9 2 10 3 15 4 16 5 17 6 18 7 19 8 20 9 21 10 7 11 6 13
REMARK SMILES IDX 3 14 4 15 25 16 5 17 22 18 2 19 1 20 23 21 24 22 11 23 12 25
REMARK SMILES IDX 13 26 14 27
REMARK H PARENT 7 12 11 24 14 28
ROOT
ATOM      1  C   UNL     1       6.550  45.686  51.696  1.00  0.00     0.231 A 
ATOM      2  N   UNL     1       5.737  46.108  52.669  1.00  0.00    -0.193 NA
ATOM      3  C   UNL     1       6.289  46.711  53.739  1.00  0.00     0.160 A 
ATOM      4  C   UNL     1       7.659  46.929  53.863  1.00  0.00     0.150 A 
ATOM      5  N   UNL     1       8.236  47.537  54.950  1.00  0.00    -0.247 NA
ATOM      6  C   UNL     1       9.575  47.664  54.917  1.00  0.00     0.132 A 
ATOM      7  C   UNL     1      10.313  47.197  53.853  1.00  0.00     0.133 A 
ATOM      8  N   UNL     1       9.742  46.588  52.789  1.00  0.00    -0.233 NA
ATOM      9  C   UNL     1       8.410  46.448  52.784  1.00  0.00     0.185 A 
ATOM     10  N   UNL     1       7.872  45.843  51.733  1.00  0.00    -0.191 NA
ENDROOT
BRANCH   1  11
ATOM     11  N   UNL     1       5.919  45.067  50.628  1.00  0.00    -0.321 N 
ATOM     12  H   UNL     1       5.837  45.694  49.837  1.00  0.00     0.170 HD
BRANCH  11  13
ATOM     13  C   UNL     1       5.396  43.785  50.394  1.00  0.00     0.084 A 
ATOM     14  C   UNL     1       4.246  41.235  49.988  1.00  0.00     0.122 A 
ATOM     15  C   UNL     1       5.501  41.532  49.467  1.00  0.00     0.049 A 
ATOM     16  C   UNL     1       3.557  42.211  50.715  1.00  0.00     0.095 A 
ATOM     17  C   UNL     1       6.069  42.796  49.671  1.00  0.00     0.034 A 
ATOM     18  C   UNL     1       4.120  43.476  50.920  1.00  0.00     0.146 A 
BRANCH  14  19
ATOM     19  O   UNL     1       3.583  40.044  49.862  1.00  0.00    -0.497 OA
ATOM     20  C   UNL     1       3.349  39.579  48.538  1.00  0.00     0.278 C 
ENDBRANCH  14  19
BRANCH  18  21
ATOM     21  O   UNL     1       3.517  44.499  51.621  1.00  0.00    -0.494 OA
ATOM     22  C   UNL     1       2.241  44.929  51.165  1.00  0.00     0.278 C 
ENDBRANCH  18  21
ENDBRANCH  11  13
ENDBRANCH   1  11
BRANCH   3  23
ATOM     23  N   UNL     1       5.432  47.231  54.743  1.00  0.00    -0.366 N 
ATOM     24  H   UNL     1       5.716  46.842  55.646  1.00  0.00     0.162 HD
BRANCH  23  25
ATOM     25  C   UNL     1       4.004  47.022  54.506  1.00  0.00     0.142 C 
BRANCH  25  26
ATOM     26  C   UNL     1       3.527  45.823  55.332  1.00  0.00     0.177 C 
BRANCH  26  27
ATOM     27  O   UNL     1       3.743  44.612  54.603  1.00  0.00    -0.395 OA
ATOM     28  H   UNL     1       3.478  44.789  53.683  1.00  0.00     0.210 HD
ENDBRANCH  26  27
ENDBRANCH  25  26
ENDBRANCH  23  25
ENDBRANCH   3  23
TORSDOF 8
ENDMDL
MODEL 10
REMARK VINA RESULT:    -7.491      2.825      7.340
REMARK INTER + INTRA:         -11.392
REMARK INTER:                 -10.727
REMARK INTRA:                  -0.664
REMARK UNBOUND:                -0.617
REMARK SMILES COc1ccc(Nc2nc(NCCO)c3nccnc3n2)c(OC)c1
REMARK SMILES IDX 8 1 9 2 10 3 15 4 16 5 17 6 18 7 19 8 20 9 21 10 7 11 6 13
REMARK SMILES IDX 3 14 4 15 25 16 5 17 22 18 2 19 1 20 23 21 24 22 11 23 12 25
REMARK SMILES IDX 13 26 14 27
REMARK H PARENT 7 12 11 24 14 28
ROOT
ATOM      1  C   UNL     1       5.130  46.528  52.965  1.00  0.00     0.231 A 
ATOM      2  N   UNL     1       5.637  46.020  51.839  1.00  0.00    -0.193 NA
ATOM      3  C   UNL     1       6.975  46.039  51.681  1.00  0.00     0.160 A 
ATOM      4  C   UNL     1       7.844  46.546  52.644  1.00  0.00     0.150 A 
ATOM      5  N   UNL     1       9.208  46.578  52.495  1.00  0.00    -0.247 NA
ATOM      6  C   UNL     1       9.904  47.107  53.518  1.00  0.00     0.132 A 
ATOM      7  C   UNL     1       9.272  47.595  54.637  1.00  0.00     0.133 A 
ATOM      8  N   UNL     1       7.927  47.573  54.776  1.00  0.00    -0.233 NA
ATOM      9  C   UNL     1       7.200  47.048  53.781  1.00  0.00     0.185 A 
ATOM     10  N   UNL     1       5.883  47.042  53.936  1.00  0.00    -0.191 NA
ENDROOT
BRANCH   1  11
ATOM     11  N   UNL     1       3.747  46.485  53.061  1.00  0.00    -0.321 N 
ATOM     12  H   UNL     1       3.380  47.343  53.453  1.00  0.00     0.170 HD
BRANCH  11  13
ATOM     13  C   UNL     1       2.759  45.545  52.724  1.00  0.00     0.084 A 
ATOM     14  C   UNL     1       0.763  43.624  52.162  1.00  0.00     0.122 A 
ATOM     15  C   UNL     1       1.347  44.354  51.132  1.00  0.00     0.049 A 
ATOM     16  C   UNL     1       1.173  43.850  53.479  1.00  0.00     0.095 A 
ATOM     17  C   UNL     1       2.336  45.305  51.413  1.00  0.00     0.034 A 
ATOM     18  C   UNL     1       2.161  44.799  53.766  1.00  0.00     0.146 A 
BRANCH  14  19
ATOM     19  O   UNL     1      -0.209  42.671  52.022  1.00  0.00    -0.497 OA
ATOM     20  C   UNL     1      -1.408  43.069  51.370  1.00  0.00     0.278 C 
ENDBRANCH  14  19
BRANCH  18  21
ATOM     21  O   UNL     1       2.628  45.090  55.030  1.00  0.00    -0.494 OA
ATOM     22  C   UNL     1       1.654  45.340  56.036  1.00  0.00     0.278 C 
ENDBRANCH  18  21
ENDBRANCH  11  13
ENDBRANCH   1  11
BRANCH   3  23
ATOM     23  N   UNL     1       7.532  45.435  50.524  1.00  0.00    -0.366 N 
ATOM     24  H   UNL     1       7.589  46.140  49.785  1.00  0.00     0.162 HD
BRANCH  23  25
ATOM     25  C   UNL     1       6.835  44.236  50.058  1.00  0.00     0.142 C 
BRANCH  25  26
ATOM     26  C   UNL     1       7.773  43.429  49.155  1.00  0.00     0.177 C 
BRANCH  26  27
ATOM     27  O   UNL     1       9.129  43.821  49.388  1.00  0.00    -0.395 OA
ATOM     28  H   UNL     1       9.264  43.799  50.351  1.00  0.00     0.210 HD
ENDBRANCH  26  27
ENDBRANCH  25  26
ENDBRANCH  23  25
ENDBRANCH   3  23
TORSDOF 8
ENDMDL
MODEL 11
REMARK VINA RESULT:    -7.394      2.289      6.082
REMARK INTER + INTRA:         -11.253
REMARK INTER:                 -10.266
REMARK INTRA:                  -0.987
REMARK UNBOUND:                -0.617
REMARK SMILES COc1ccc(Nc2nc(NCCO)c3nccnc3n2)c(OC)c1
REMARK SMILES IDX 8 1 9 2 10 3 15 4 16 5 17 6 18 7 19 8 20 9 21 10 7 11 6 13
REMARK SMILES IDX 3 14 4 15 25 16 5 17 22 18 2 19 1 20 23 21 24 22 11 23 12 25
REMARK SMILES IDX 13 26 14 27
REMARK H PARENT 7 12 11 24 14 28
ROOT
ATOM      1  C   UNL     1       5.316  46.276  52.084  1.00  0.00     0.231 A 
ATOM      2  N   UNL     1       6.496  46.871  52.278  1.00  0.00    -0.193 NA
ATOM      3  C   UNL     1       7.565  46.391  51.614  1.00  0.00     0.160 A 
ATOM      4  C   UNL     1       7.487  45.320  50.726  1.00  0.00     0.150 A 
ATOM      5  N   UNL     1       8.568  44.816  50.047  1.00  0.00    -0.247 NA
ATOM      6  C   UNL     1       8.323  43.773  49.233  1.00  0.00     0.132 A 
ATOM      7  C   UNL     1       7.059  43.245  49.106  1.00  0.00     0.133 A 
ATOM      8  N   UNL     1       5.999  43.737  49.785  1.00  0.00    -0.233 NA
ATOM      9  C   UNL     1       6.202  44.779  50.602  1.00  0.00     0.185 A 
ATOM     10  N   UNL     1       5.149  45.241  51.263  1.00  0.00    -0.191 NA
ENDROOT
BRANCH   1  11
ATOM     11  N   UNL     1       4.260  46.814  52.803  1.00  0.00    -0.321 N 
ATOM     12  H   UNL     1       4.079  47.772  52.529  1.00  0.00     0.170 HD
BRANCH  11  13
ATOM     13  C   UNL     1       3.388  46.333  53.794  1.00  0.00     0.084 A 
ATOM     14  C   UNL     1       1.548  45.352  55.702  1.00  0.00     0.122 A 
ATOM     15  C   UNL     1       2.820  45.757  56.094  1.00  0.00     0.049 A 
ATOM     16  C   UNL     1       1.188  45.434  54.354  1.00  0.00     0.095 A 
ATOM     17  C   UNL     1       3.729  46.244  55.146  1.00  0.00     0.034 A 
ATOM     18  C   UNL     1       2.093  45.919  53.403  1.00  0.00     0.146 A 
BRANCH  14  19
ATOM     19  O   UNL     1       0.571  44.860  56.525  1.00  0.00    -0.497 OA
ATOM     20  C   UNL     1      -0.360  45.800  57.047  1.00  0.00     0.278 C 
ENDBRANCH  14  19
BRANCH  18  21
ATOM     21  O   UNL     1       1.828  46.035  52.055  1.00  0.00    -0.494 OA
ATOM     22  C   UNL     1       1.540  44.835  51.348  1.00  0.00     0.278 C 
ENDBRANCH  18  21
ENDBRANCH  11  13
ENDBRANCH   1  11
BRANCH   3  23
ATOM     23  N   UNL     1       8.808  47.060  51.752  1.00  0.00    -0.366 N 
ATOM     24  H   UNL     1       9.369  46.880  50.915  1.00  0.00     0.162 HD
BRANCH  23  25
ATOM     25  C   UNL     1       9.555  46.732  52.967  1.00  0.00     0.142 C 
BRANCH  25  26
ATOM     26  C   UNL     1       9.312  47.822  54.016  1.00  0.00     0.177 C 
BRANCH  26  27
ATOM     27  O   UNL     1       8.184  47.477  54.825  1.00  0.00    -0.395 OA
ATOM     28  H   UNL     1       7.960  46.554  54.612  1.00  0.00     0.210 HD
ENDBRANCH  26  27
ENDBRANCH  25  26
ENDBRANCH  23  25
ENDBRANCH   3  23
TORSDOF 8
ENDMDL
MODEL 12
REMARK VINA RESULT:    -7.387      2.716      7.475
REMARK INTER + INTRA:         -11.243
REMARK INTER:                 -10.356
REMARK INTRA:                  -0.887
REMARK UNBOUND:                -0.617
REMARK SMILES COc1ccc(Nc2nc(NCCO)c3nccnc3n2)c(OC)c1
REMARK SMILES IDX 8 1 9 2 10 3 15 4 16 5 17 6 18 7 19 8 20 9 21 10 7 11 6 13
REMARK SMILES IDX 3 14 4 15 25 16 5 17 22 18 2 19 1 20 23 21 24 22 11 23 12 25
REMARK SMILES IDX 13 26 14 27
REMARK H PARENT 7 12 11 24 14 28
ROOT
ATOM      1  C   UNL     1       5.297  45.150  53.437  1.00  0.00     0.231 A 
ATOM      2  N   UNL     1       5.713  44.935  52.186  1.00  0.00    -0.193 NA
ATOM      3  C   UNL     1       6.885  45.479  51.805  1.00  0.00     0.160 A 
ATOM      4  C   UNL     1       7.683  46.235  52.661  1.00  0.00     0.150 A 
ATOM      5  N   UNL     1       8.875  46.801  52.286  1.00  0.00    -0.247 NA
ATOM      6  C   UNL     1       9.520  47.508  53.232  1.00  0.00     0.132 A 
ATOM      7  C   UNL     1       8.997  47.656  54.495  1.00  0.00     0.133 A 
ATOM      8  N   UNL     1       7.816  47.107  54.859  1.00  0.00    -0.233 NA
ATOM      9  C   UNL     1       7.147  46.391  53.945  1.00  0.00     0.185 A 
ATOM     10  N   UNL     1       5.988  45.867  54.321  1.00  0.00    -0.191 NA
ENDROOT
BRANCH   1  11
ATOM     11  N   UNL     1       4.080  44.569  53.762  1.00  0.00    -0.321 N 
ATOM     12  H   UNL     1       4.122  44.112  54.665  1.00  0.00     0.170 HD
BRANCH  11  13
ATOM     13  C   UNL     1       2.823  44.489  53.142  1.00  0.00     0.084 A 
ATOM     14  C   UNL     1       0.323  44.220  51.851  1.00  0.00     0.122 A 
ATOM     15  C   UNL     1       0.636  45.386  52.542  1.00  0.00     0.049 A 
ATOM     16  C   UNL     1       1.257  43.182  51.800  1.00  0.00     0.095 A 
ATOM     17  C   UNL     1       1.876  45.517  53.180  1.00  0.00     0.034 A 
ATOM     18  C   UNL     1       2.498  43.307  52.436  1.00  0.00     0.146 A 
BRANCH  14  19
ATOM     19  O   UNL     1      -0.848  43.968  51.188  1.00  0.00    -0.497 OA
ATOM     20  C   UNL     1      -1.977  44.748  51.562  1.00  0.00     0.278 C 
ENDBRANCH  14  19
BRANCH  18  21
ATOM     21  O   UNL     1       3.479  42.339  52.441  1.00  0.00    -0.494 OA
ATOM     22  C   UNL     1       3.949  41.891  51.176  1.00  0.00     0.278 C 
ENDBRANCH  18  21
ENDBRANCH  11  13
ENDBRANCH   1  11
BRANCH   3  23
ATOM     23  N   UNL     1       7.375  45.196  50.504  1.00  0.00    -0.366 N 
ATOM     24  H   UNL     1       7.490  46.080  50.001  1.00  0.00     0.162 HD
BRANCH  23  25
ATOM     25  C   UNL     1       6.568  44.251  49.732  1.00  0.00     0.142 C 
BRANCH  25  26
ATOM     26  C   UNL     1       7.416  43.020  49.401  1.00  0.00     0.177 C 
BRANCH  26  27
ATOM     27  O   UNL     1       8.702  43.427  48.926  1.00  0.00    -0.395 OA
ATOM     28  H   UNL     1       8.549  44.151  48.294  1.00  0.00     0.210 HD
ENDBRANCH  26  27
ENDBRANCH  25  26
ENDBRANCH  23  25
ENDBRANCH   3  23
TORSDOF 8
ENDMDL
MODEL 13
REMARK VINA RESULT:    -7.280      3.035      4.273
REMARK INTER + INTRA:         -11.088
REMARK INTER:                 -10.107
REMARK INTRA:                  -0.981
REMARK UNBOUND:                -0.617
REMARK SMILES COc1ccc(Nc2nc(NCCO)c3nccnc3n2)c(OC)c1
REMARK SMILES IDX 8 1 9 2 10 3 15 4 16 5 17 6 18 7 19 8 20 9 21 10 7 11 6 13
REMARK SMILES IDX 3 14 4 15 25 16 5 17 22 18 2 19 1 20 23 21 24 22 11 23 12 25
REMARK SMILES IDX 13 26 14 27
REMARK H PARENT 7 12 11 24 14 28
ROOT
ATOM      1  C   UNL     1       2.935  45.552  52.069  1.00  0.00     0.231 A 
ATOM      2  N   UNL     1       2.889  45.373  53.392  1.00  0.00    -0.193 NA
ATOM      3  C   UNL     1       1.888  44.627  53.896  1.00  0.00     0.160 A 
ATOM      4  C   UNL     1       0.917  44.024  53.099  1.00  0.00     0.150 A 
ATOM      5  N   UNL     1      -0.112  43.266  53.598  1.00  0.00    -0.247 NA
ATOM      6  C   UNL     1      -0.970  42.760  52.693  1.00  0.00     0.132 A 
ATOM      7  C   UNL     1      -0.818  43.006  51.348  1.00  0.00     0.133 A 
ATOM      8  N   UNL     1       0.191  43.763  50.860  1.00  0.00    -0.233 NA
ATOM      9  C   UNL     1       1.068  44.279  51.731  1.00  0.00     0.185 A 
ATOM     10  N   UNL     1       2.046  45.023  51.231  1.00  0.00    -0.191 NA
ENDROOT
BRANCH   1  11
ATOM     11  N   UNL     1       3.986  46.337  51.617  1.00  0.00    -0.321 N 
ATOM     12  H   UNL     1       3.667  47.264  51.361  1.00  0.00     0.170 HD
BRANCH  11  13
ATOM     13  C   UNL     1       5.368  46.146  51.456  1.00  0.00     0.084 A 
ATOM     14  C   UNL     1       8.168  45.840  51.223  1.00  0.00     0.122 A 
ATOM     15  C   UNL     1       7.312  45.181  50.346  1.00  0.00     0.049 A 
ATOM     16  C   UNL     1       7.629  46.655  52.222  1.00  0.00     0.095 A 
ATOM     17  C   UNL     1       5.925  45.336  50.463  1.00  0.00     0.034 A 
ATOM     18  C   UNL     1       6.244  46.813  52.344  1.00  0.00     0.146 A 
BRANCH  14  19
ATOM     19  O   UNL     1       9.535  45.773  51.216  1.00  0.00    -0.497 OA
ATOM     20  C   UNL     1      10.216  46.467  52.253  1.00  0.00     0.278 C 
ENDBRANCH  14  19
BRANCH  18  21
ATOM     21  O   UNL     1       5.623  47.594  53.296  1.00  0.00    -0.494 OA
ATOM     22  C   UNL     1       5.654  47.123  54.637  1.00  0.00     0.278 C 
ENDBRANCH  18  21
ENDBRANCH  11  13
ENDBRANCH   1  11
BRANCH   3  23
ATOM     23  N   UNL     1       1.870  44.365  55.290  1.00  0.00    -0.366 N 
ATOM     24  H   UNL     1       1.187  43.625  55.473  1.00  0.00     0.162 HD
BRANCH  23  25
ATOM     25  C   UNL     1       1.620  45.533  56.134  1.00  0.00     0.142 C 
BRANCH  25  26
ATOM     26  C   UNL     1       0.201  45.447  56.705  1.00  0.00     0.177 C 
BRANCH  26  27
ATOM     27  O   UNL     1      -0.755  45.692  55.670  1.00  0.00    -0.395 OA
ATOM     28  H   UNL     1      -0.325  46.281  55.026  1.00  0.00     0.210 HD
ENDBRANCH  26  27
ENDBRANCH  25  26
ENDBRANCH  23  25
ENDBRANCH   3  23
TORSDOF 8
ENDMDL
MODEL 14
REMARK VINA RESULT:    -7.201      2.856      7.299
REMARK INTER + INTRA:         -10.976
REMARK INTER:                 -10.560
REMARK INTRA:                  -0.416
REMARK UNBOUND:                -0.617
REMARK SMILES COc1ccc(Nc2nc(NCCO)c3nccnc3n2)c(OC)c1
REMARK SMILES IDX 8 1 9 2 10 3 15 4 16 5 17 6 18 7 19 8 20 9 21 10 7 11 6 13
REMARK SMILES IDX 3 14 4 15 25 16 5 17 22 18 2 19 1 20 23 21 24 22 11 23 12 25
REMARK SMILES IDX 13 26 14 27
REMARK H PARENT 7 12 11 24 14 28
ROOT
ATOM      1  C   UNL     1       4.463  44.882  53.478  1.00  0.00     0.231 A 
ATOM      2  N   UNL     1       4.688  44.165  52.374  1.00  0.00    -0.193 NA
ATOM      3  C   UNL     1       5.697  44.543  51.566  1.00  0.00     0.160 A 
ATOM      4  C   UNL     1       6.521  45.632  51.843  1.00  0.00     0.150 A 
ATOM      5  N   UNL     1       7.549  46.034  51.027  1.00  0.00    -0.247 NA
ATOM      6  C   UNL     1       8.245  47.110  51.436  1.00  0.00     0.132 A 
ATOM      7  C   UNL     1       7.926  47.768  52.602  1.00  0.00     0.133 A 
ATOM      8  N   UNL     1       6.906  47.376  53.398  1.00  0.00    -0.233 NA
ATOM      9  C   UNL     1       6.193  46.305  53.026  1.00  0.00     0.185 A 
ATOM     10  N   UNL     1       5.193  45.942  53.818  1.00  0.00    -0.191 NA
ENDROOT
BRANCH   1  11
ATOM     11  N   UNL     1       3.405  44.443  54.261  1.00  0.00    -0.321 N 
ATOM     12  H   UNL     1       3.664  44.407  55.239  1.00  0.00     0.170 HD
BRANCH  11  13
ATOM     13  C   UNL     1       2.077  44.064  54.009  1.00  0.00     0.084 A 
ATOM     14  C   UNL     1      -0.630  43.360  53.603  1.00  0.00     0.122 A 
ATOM     15  C   UNL     1       0.352  42.916  52.724  1.00  0.00     0.049 A 
ATOM     16  C   UNL     1      -0.266  44.159  54.690  1.00  0.00     0.095 A 
ATOM     17  C   UNL     1       1.692  43.266  52.928  1.00  0.00     0.034 A 
ATOM     18  C   UNL     1       1.073  44.512  54.899  1.00  0.00     0.146 A 
BRANCH  14  19
ATOM     19  O   UNL     1      -1.969  43.090  53.516  1.00  0.00    -0.497 OA
ATOM     20  C   UNL     1      -2.629  43.496  52.324  1.00  0.00     0.278 C 
ENDBRANCH  14  19
BRANCH  18  21
ATOM     21  O   UNL     1       1.526  45.294  55.940  1.00  0.00    -0.494 OA
ATOM     22  C   UNL     1       0.576  45.656  56.935  1.00  0.00     0.278 C 
ENDBRANCH  18  21
ENDBRANCH  11  13
ENDBRANCH   1  11
BRANCH   3  23
ATOM     23  N   UNL     1       5.995  43.747  50.431  1.00  0.00    -0.366 N 
ATOM     24  H   UNL     1       5.704  44.256  49.592  1.00  0.00     0.162 HD
BRANCH  23  25
ATOM     25  C   UNL     1       5.424  42.400  50.454  1.00  0.00     0.142 C 
BRANCH  25  26
ATOM     26  C   UNL     1       6.139  41.533  49.413  1.00  0.00     0.177 C 
BRANCH  26  27
ATOM     27  O   UNL     1       7.217  40.823  50.029  1.00  0.00    -0.395 OA
ATOM     28  H   UNL     1       7.738  40.427  49.309  1.00  0.00     0.210 HD
ENDBRANCH  26  27
ENDBRANCH  25  26
ENDBRANCH  23  25
ENDBRANCH   3  23
TORSDOF 8
ENDMDL
MODEL 15
REMARK VINA RESULT:    -7.196      2.843      6.719
REMARK INTER + INTRA:         -10.968
REMARK INTER:                 -10.596
REMARK INTRA:                  -0.372
REMARK UNBOUND:                -0.617
REMARK SMILES COc1ccc(Nc2nc(NCCO)c3nccnc3n2)c(OC)c1
REMARK SMILES IDX 8 1 9 2 10 3 15 4 16 5 17 6 18 7 19 8 20 9 21 10 7 11 6 13
REMARK SMILES IDX 3 14 4 15 25 16 5 17 22 18 2 19 1 20 23 21 24 22 11 23 12 25
REMARK SMILES IDX 13 26 14 27
REMARK H PARENT 7 12 11 24 14 28
ROOT
ATOM      1  C   UNL     1       2.617  43.640  53.002  1.00  0.00     0.231 A 
ATOM      2  N   UNL     1       3.460  44.366  53.742  1.00  0.00    -0.193 NA
ATOM      3  C   UNL     1       2.968  45.001  54.823  1.00  0.00     0.160 A 
ATOM      4  C   UNL     1       1.632  44.918  55.209  1.00  0.00     0.150 A 
ATOM      5  N   UNL     1       1.115  45.564  56.303  1.00  0.00    -0.247 NA
ATOM      6  C   UNL     1      -0.199  45.384  56.533  1.00  0.00     0.132 A 
ATOM      7  C   UNL     1      -0.970  44.604  55.703  1.00  0.00     0.133 A 
ATOM      8  N   UNL     1      -0.460  43.978  54.619  1.00  0.00    -0.233 NA
ATOM      9  C   UNL     1       0.846  44.129  54.360  1.00  0.00     0.185 A 
ATOM     10  N   UNL     1       1.323  43.510  53.288  1.00  0.00    -0.191 NA
ENDROOT
BRANCH   1  11
ATOM     11  N   UNL     1       3.186  43.019  51.900  1.00  0.00    -0.321 N 
ATOM     12  H   UNL     1       2.573  42.306  51.524  1.00  0.00     0.170 HD
BRANCH  11  13
ATOM     13  C   UNL     1       4.388  43.166  51.191  1.00  0.00     0.084 A 
ATOM     14  C   UNL     1       6.801  43.347  49.729  1.00  0.00     0.122 A 
ATOM     15  C   UNL     1       6.328  44.442  50.445  1.00  0.00     0.049 A 
ATOM     16  C   UNL     1       6.071  42.155  49.739  1.00  0.00     0.095 A 
ATOM     17  C   UNL     1       5.133  44.349  51.169  1.00  0.00     0.034 A 
ATOM     18  C   UNL     1       4.876  42.057  50.461  1.00  0.00     0.146 A 
BRANCH  14  19
ATOM     19  O   UNL     1       7.949  43.307  48.985  1.00  0.00    -0.497 OA
ATOM     20  C   UNL     1       8.958  44.253  49.313  1.00  0.00     0.278 C 
ENDBRANCH  14  19
BRANCH  18  21
ATOM     21  O   UNL     1       4.090  40.926  50.529  1.00  0.00    -0.494 OA
ATOM     22  C   UNL     1       3.551  40.440  49.306  1.00  0.00     0.278 C 
ENDBRANCH  18  21
ENDBRANCH  11  13
ENDBRANCH   1  11
BRANCH   3  23
ATOM     23  N   UNL     1       3.865  45.714  55.660  1.00  0.00    -0.366 N 
ATOM     24  H   UNL     1       3.332  46.131  56.427  1.00  0.00     0.162 HD
BRANCH  23  25
ATOM     25  C   UNL     1       4.681  46.717  54.978  1.00  0.00     0.142 C 
BRANCH  25  26
ATOM     26  C   UNL     1       6.147  46.271  54.997  1.00  0.00     0.177 C 
BRANCH  26  27
ATOM     27  O   UNL     1       7.004  47.407  54.858  1.00  0.00    -0.395 OA
ATOM     28  H   UNL     1       7.855  47.076  54.523  1.00  0.00     0.210 HD
ENDBRANCH  26  27
ENDBRANCH  25  26
ENDBRANCH  23  25
ENDBRANCH   3  23
TORSDOF 8
ENDMDL
MODEL 16
REMARK VINA RESULT:    -7.157      3.223      5.547
REMARK INTER + INTRA:         -10.912
REMARK INTER:                  -9.804
REMARK INTRA:                  -1.108
REMARK UNBOUND:                -0.617
REMARK SMILES COc1ccc(Nc2nc(NCCO)c3nccnc3n2)c(OC)c1
REMARK SMILES IDX 8 1 9 2 10 3 15 4 16 5 17 6 18 7 19 8 20 9 21 10 7 11 6 13
REMARK SMILES IDX 3 14 4 15 25 16 5 17 22 18 2 19 1 20 23 21 24 22 11 23 12 25
REMARK SMILES IDX 13 26 14 27
REMARK H PARENT 7 12 11 24 14 28
ROOT
ATOM      1  C   UNL     1       2.047  43.827  53.466  1.00  0.00     0.231 A 
ATOM      2  N   UNL     1       1.571  44.664  54.393  1.00  0.00    -0.193 NA
ATOM      3  C   UNL     1       0.240  44.861  54.446  1.00  0.00     0.160 A 
ATOM      4  C   UNL     1      -0.655  44.218  53.593  1.00  0.00     0.150 A 
ATOM      5  N   UNL     1      -2.013  44.413  53.631  1.00  0.00    -0.247 NA
ATOM      6  C   UNL     1      -2.737  43.720  52.733  1.00  0.00     0.132 A 
ATOM      7  C   UNL     1      -2.136  42.877  51.827  1.00  0.00     0.133 A 
ATOM      8  N   UNL     1      -0.797  42.696  51.785  1.00  0.00    -0.233 NA
ATOM      9  C   UNL     1      -0.043  43.365  52.667  1.00  0.00     0.185 A 
ATOM     10  N   UNL     1       1.268  43.177  52.604  1.00  0.00    -0.191 NA
ENDROOT
BRANCH   1  11
ATOM     11  N   UNL     1       3.426  43.676  53.461  1.00  0.00    -0.321 N 
ATOM     12  H   UNL     1       3.727  43.038  54.187  1.00  0.00     0.170 HD
BRANCH  11  13
ATOM     13  C   UNL     1       4.475  44.184  52.678  1.00  0.00     0.084 A 
ATOM     14  C   UNL     1       6.611  45.285  51.191  1.00  0.00     0.122 A 
ATOM     15  C   UNL     1       5.840  44.257  50.658  1.00  0.00     0.049 A 
ATOM     16  C   UNL     1       6.321  45.768  52.469  1.00  0.00     0.095 A 
ATOM     17  C   UNL     1       4.781  43.714  51.398  1.00  0.00     0.034 A 
ATOM     18  C   UNL     1       5.264  45.229  53.213  1.00  0.00     0.146 A 
BRANCH  14  19
ATOM     19  O   UNL     1       7.668  45.899  50.574  1.00  0.00    -0.497 OA
ATOM     20  C   UNL     1       8.667  46.456  51.419  1.00  0.00     0.278 C 
ENDBRANCH  14  19
BRANCH  18  21
ATOM     21  O   UNL     1       4.904  45.640  54.478  1.00  0.00    -0.494 OA
ATOM     22  C   UNL     1       4.511  46.998  54.628  1.00  0.00     0.278 C 
ENDBRANCH  18  21
ENDBRANCH  11  13
ENDBRANCH   1  11
BRANCH   3  23
ATOM     23  N   UNL     1      -0.285  45.687  55.472  1.00  0.00    -0.366 N 
ATOM     24  H   UNL     1       0.083  46.634  55.347  1.00  0.00     0.162 HD
BRANCH  23  25
ATOM     25  C   UNL     1      -0.050  45.206  56.834  1.00  0.00     0.142 C 
BRANCH  25  26
ATOM     26  C   UNL     1       0.797  46.234  57.591  1.00  0.00     0.177 C 
BRANCH  26  27
ATOM     27  O   UNL     1       2.157  46.162  57.153  1.00  0.00    -0.395 OA
ATOM     28  H   UNL     1       2.681  46.684  57.785  1.00  0.00     0.210 HD
ENDBRANCH  26  27
ENDBRANCH  25  26
ENDBRANCH  23  25
ENDBRANCH   3  23
TORSDOF 8
ENDMDL
MODEL 17
REMARK VINA RESULT:    -7.157      3.076      6.770
REMARK INTER + INTRA:         -10.912
REMARK INTER:                 -10.276
REMARK INTRA:                  -0.635
REMARK UNBOUND:                -0.617
REMARK SMILES COc1ccc(Nc2nc(NCCO)c3nccnc3n2)c(OC)c1
REMARK SMILES IDX 8 1 9 2 10 3 15 4 16 5 17 6 18 7 19 8 20 9 21 10 7 11 6 13
REMARK SMILES IDX 3 14 4 15 25 16 5 17 22 18 2 19 1 20 23 21 24 22 11 23 12 25
REMARK SMILES IDX 13 26 14 27
REMARK H PARENT 7 12 11 24 14 28
ROOT
ATOM      1  C   UNL     1       4.128  45.912  52.250  1.00  0.00     0.231 A 
ATOM      2  N   UNL     1       4.525  44.922  51.445  1.00  0.00    -0.193 NA
ATOM      3  C   UNL     1       5.814  44.901  51.053  1.00  0.00     0.160 A 
ATOM      4  C   UNL     1       6.746  45.852  51.464  1.00  0.00     0.150 A 
ATOM      5  N   UNL     1       8.060  45.847  51.069  1.00  0.00    -0.247 NA
ATOM      6  C   UNL     1       8.828  46.841  51.551  1.00  0.00     0.132 A 
ATOM      7  C   UNL     1       8.310  47.807  52.382  1.00  0.00     0.133 A 
ATOM      8  N   UNL     1       7.012  47.815  52.761  1.00  0.00    -0.233 NA
ATOM      9  C   UNL     1       6.217  46.838  52.305  1.00  0.00     0.185 A 
ATOM     10  N   UNL     1       4.946  46.868  52.685  1.00  0.00    -0.191 NA
ENDROOT
BRANCH   1  11
ATOM     11  N   UNL     1       2.789  45.879  52.608  1.00  0.00    -0.321 N 
ATOM     12  H   UNL     1       2.193  46.087  51.817  1.00  0.00     0.170 HD
BRANCH  11  13
ATOM     13  C   UNL     1       2.087  45.609  53.794  1.00  0.00     0.084 A 
ATOM     14  C   UNL     1       0.573  45.052  56.115  1.00  0.00     0.122 A 
ATOM     15  C   UNL     1       1.927  45.356  56.214  1.00  0.00     0.049 A 
ATOM     16  C   UNL     1      -0.032  45.024  54.856  1.00  0.00     0.095 A 
ATOM     17  C   UNL     1       2.674  45.632  55.062  1.00  0.00     0.034 A 
ATOM     18  C   UNL     1       0.710  45.299  53.701  1.00  0.00     0.146 A 
BRANCH  14  19
ATOM     19  O   UNL     1      -0.265  44.765  57.158  1.00  0.00    -0.497 OA
ATOM     20  C   UNL     1      -1.593  45.263  57.069  1.00  0.00     0.278 C 
ENDBRANCH  14  19
BRANCH  18  21
ATOM     21  O   UNL     1       0.201  45.295  52.421  1.00  0.00    -0.494 OA
ATOM     22  C   UNL     1      -0.216  44.040  51.896  1.00  0.00     0.278 C 
ENDBRANCH  18  21
ENDBRANCH  11  13
ENDBRANCH   1  11
BRANCH   3  23
ATOM     23  N   UNL     1       6.266  43.815  50.261  1.00  0.00    -0.366 N 
ATOM     24  H   UNL     1       6.300  44.116  49.284  1.00  0.00     0.162 HD
BRANCH  23  25
ATOM     25  C   UNL     1       5.493  42.581  50.406  1.00  0.00     0.142 C 
BRANCH  25  26
ATOM     26  C   UNL     1       6.039  41.529  49.435  1.00  0.00     0.177 C 
BRANCH  26  27
ATOM     27  O   UNL     1       7.178  40.883  50.009  1.00  0.00    -0.395 OA
ATOM     28  H   UNL     1       6.885  40.495  50.851  1.00  0.00     0.210 HD
ENDBRANCH  26  27
ENDBRANCH  25  26
ENDBRANCH  23  25
ENDBRANCH   3  23
TORSDOF 8
ENDMDL
MODEL 18
REMARK VINA RESULT:    -7.147      2.885      4.827
REMARK INTER + INTRA:         -10.897
REMARK INTER:                  -9.950
REMARK INTRA:                  -0.947
REMARK UNBOUND:                -0.617
REMARK SMILES COc1ccc(Nc2nc(NCCO)c3nccnc3n2)c(OC)c1
REMARK SMILES IDX 8 1 9 2 10 3 15 4 16 5 17 6 18 7 19 8 20 9 21 10 7 11 6 13
REMARK SMILES IDX 3 14 4 15 25 16 5 17 22 18 2 19 1 20 23 21 24 22 11 23 12 25
REMARK SMILES IDX 13 26 14 27
REMARK H PARENT 7 12 11 24 14 28
ROOT
ATOM      1  C   UNL     1       2.817  44.148  53.373  1.00  0.00     0.231 A 
ATOM      2  N   UNL     1       2.206  44.874  54.314  1.00  0.00    -0.193 NA
ATOM      3  C   UNL     1       0.870  45.022  54.231  1.00  0.00     0.160 A 
ATOM      4  C   UNL     1       0.103  44.439  53.225  1.00  0.00     0.150 A 
ATOM      5  N   UNL     1      -1.257  44.586  53.124  1.00  0.00    -0.247 NA
ATOM      6  C   UNL     1      -1.846  43.963  52.088  1.00  0.00     0.132 A 
ATOM      7  C   UNL     1      -1.113  43.232  51.181  1.00  0.00     0.133 A 
ATOM      8  N   UNL     1       0.229  43.099  51.277  1.00  0.00    -0.233 NA
ATOM      9  C   UNL     1       0.851  43.701  52.299  1.00  0.00     0.185 A 
ATOM     10  N   UNL     1       2.168  43.562  52.370  1.00  0.00    -0.191 NA
ENDROOT
BRANCH   1  11
ATOM     11  N   UNL     1       4.193  44.042  53.512  1.00  0.00    -0.321 N 
ATOM     12  H   UNL     1       4.471  43.085  53.691  1.00  0.00     0.170 HD
BRANCH  11  13
ATOM     13  C   UNL     1       5.269  44.942  53.442  1.00  0.00     0.084 A 
ATOM     14  C   UNL     1       7.440  46.733  53.183  1.00  0.00     0.122 A 
ATOM     15  C   UNL     1       6.886  46.475  54.433  1.00  0.00     0.049 A 
ATOM     16  C   UNL     1       6.912  46.098  52.055  1.00  0.00     0.095 A 
ATOM     17  C   UNL     1       5.811  45.586  54.558  1.00  0.00     0.034 A 
ATOM     18  C   UNL     1       5.837  45.209  52.175  1.00  0.00     0.146 A 
BRANCH  14  19
ATOM     19  O   UNL     1       8.487  47.575  52.926  1.00  0.00    -0.497 OA
ATOM     20  C   UNL     1       9.794  47.020  53.013  1.00  0.00     0.278 C 
ENDBRANCH  14  19
BRANCH  18  21
ATOM     21  O   UNL     1       5.251  44.539  51.122  1.00  0.00    -0.494 OA
ATOM     22  C   UNL     1       6.106  43.750  50.304  1.00  0.00     0.278 C 
ENDBRANCH  18  21
ENDBRANCH  11  13
ENDBRANCH   1  11
BRANCH   3  23
ATOM     23  N   UNL     1       0.199  45.726  55.264  1.00  0.00    -0.366 N 
ATOM     24  H   UNL     1       0.555  46.686  55.287  1.00  0.00     0.162 HD
BRANCH  23  25
ATOM     25  C   UNL     1       0.275  45.104  56.586  1.00  0.00     0.142 C 
BRANCH  25  26
ATOM     26  C   UNL     1       0.930  46.083  57.565  1.00  0.00     0.177 C 
BRANCH  26  27
ATOM     27  O   UNL     1       2.294  46.303  57.195  1.00  0.00    -0.395 OA
ATOM     28  H   UNL     1       2.828  46.148  57.994  1.00  0.00     0.210 HD
ENDBRANCH  26  27
ENDBRANCH  25  26
ENDBRANCH  23  25
ENDBRANCH   3  23
TORSDOF 8
ENDMDL
MODEL 19
REMARK VINA RESULT:    -7.118      2.961      4.499
REMARK INTER + INTRA:         -10.856
REMARK INTER:                  -9.763
REMARK INTRA:                  -1.093
REMARK UNBOUND:                -0.617
REMARK SMILES COc1ccc(Nc2nc(NCCO)c3nccnc3n2)c(OC)c1
REMARK SMILES IDX 8 1 9 2 10 3 15 4 16 5 17 6 18 7 19 8 20 9 21 10 7 11 6 13
REMARK SMILES IDX 3 14 4 15 25 16 5 17 22 18 2 19 1 20 23 21 24 22 11 23 12 25
REMARK SMILES IDX 13 26 14 27
REMARK H PARENT 7 12 11 24 14 28
ROOT
ATOM      1  C   UNL     1       3.174  46.034  53.435  1.00  0.00     0.231 A 
ATOM      2  N   UNL     1       2.880  45.890  54.730  1.00  0.00    -0.193 NA
ATOM      3  C   UNL     1       1.846  45.093  55.061  1.00  0.00     0.160 A 
ATOM      4  C   UNL     1       1.089  44.403  54.117  1.00  0.00     0.150 A 
ATOM      5  N   UNL     1       0.030  43.592  54.438  1.00  0.00    -0.247 NA
ATOM      6  C   UNL     1      -0.601  43.004  53.405  1.00  0.00     0.132 A 
ATOM      7  C   UNL     1      -0.203  43.220  52.106  1.00  0.00     0.133 A 
ATOM      8  N   UNL     1       0.834  44.029  51.792  1.00  0.00    -0.233 NA
ATOM      9  C   UNL     1       1.490  44.629  52.794  1.00  0.00     0.185 A 
ATOM     10  N   UNL     1       2.501  45.422  52.464  1.00  0.00    -0.191 NA
ENDROOT
BRANCH   1  11
ATOM     11  N   UNL     1       4.244  46.874  53.164  1.00  0.00    -0.321 N 
ATOM     12  H   UNL     1       3.925  47.791  52.874  1.00  0.00     0.170 HD
BRANCH  11  13
ATOM     13  C   UNL     1       5.641  46.749  53.217  1.00  0.00     0.084 A 
ATOM     14  C   UNL     1       8.452  46.456  53.210  1.00  0.00     0.122 A 
ATOM     15  C   UNL     1       7.793  46.893  54.355  1.00  0.00     0.049 A 
ATOM     16  C   UNL     1       7.711  46.162  52.063  1.00  0.00     0.095 A 
ATOM     17  C   UNL     1       6.400  47.037  54.355  1.00  0.00     0.034 A 
ATOM     18  C   UNL     1       6.318  46.305  52.057  1.00  0.00     0.146 A 
BRANCH  14  19
ATOM     19  O   UNL     1       9.803  46.274  53.080  1.00  0.00    -0.497 OA
ATOM     20  C   UNL     1      10.298  46.075  51.762  1.00  0.00     0.278 C 
ENDBRANCH  14  19
BRANCH  18  21
ATOM     21  O   UNL     1       5.506  46.040  50.975  1.00  0.00    -0.494 OA
ATOM     22  C   UNL     1       5.501  44.706  50.483  1.00  0.00     0.278 C 
ENDBRANCH  18  21
ENDBRANCH  11  13
ENDBRANCH   1  11
BRANCH   3  23
ATOM     23  N   UNL     1       1.571  44.872  56.435  1.00  0.00    -0.366 N 
ATOM     24  H   UNL     1       0.945  44.066  56.515  1.00  0.00     0.162 HD
BRANCH  23  25
ATOM     25  C   UNL     1       1.035  46.029  57.152  1.00  0.00     0.142 C 
BRANCH  25  26
ATOM     26  C   UNL     1      -0.495  45.957  57.149  1.00  0.00     0.177 C 
BRANCH  26  27
ATOM     27  O   UNL     1      -0.919  44.595  57.248  1.00  0.00    -0.395 OA
ATOM     28  H   UNL     1      -1.291  44.355  56.381  1.00  0.00     0.210 HD
ENDBRANCH  26  27
ENDBRANCH  25  26
ENDBRANCH  23  25
ENDBRANCH   3  23
TORSDOF 8
ENDMDL
MODEL 20
REMARK VINA RESULT:    -7.058      2.966      5.599
REMARK INTER + INTRA:         -10.769
REMARK INTER:                  -9.731
REMARK INTRA:                  -1.038
REMARK UNBOUND:                -0.617
REMARK SMILES COc1ccc(Nc2nc(NCCO)c3nccnc3n2)c(OC)c1
REMARK SMILES IDX 8 1 9 2 10 3 15 4 16 5 17 6 18 7 19 8 20 9 21 10 7 11 6 13
REMARK SMILES IDX 3 14 4 15 25 16 5 17 22 18 2 19 1 20 23 21 24 22 11 23 12 25
REMARK SMILES IDX 13 26 14 27
REMARK H PARENT 7 12 11 24 14 28
ROOT
ATOM      1  C   UNL     1       3.029  44.301  54.056  1.00  0.00     0.231 A 
ATOM      2  N   UNL     1       2.121  43.819  53.202  1.00  0.00    -0.193 NA
ATOM      3  C   UNL     1       0.819  43.968  53.510  1.00  0.00     0.160 A 
ATOM      4  C   UNL     1       0.383  44.616  54.664  1.00  0.00     0.150 A 
ATOM      5  N   UNL     1      -0.940  44.770  54.995  1.00  0.00    -0.247 NA
ATOM      6  C   UNL     1      -1.192  45.413  56.149  1.00  0.00     0.132 A 
ATOM      7  C   UNL     1      -0.172  45.875  56.948  1.00  0.00     0.133 A 
ATOM      8  N   UNL     1       1.131  45.711  56.626  1.00  0.00    -0.233 NA
ATOM      9  C   UNL     1       1.421  45.079  55.481  1.00  0.00     0.185 A 
ATOM     10  N   UNL     1       2.705  44.924  55.187  1.00  0.00    -0.191 NA
ENDROOT
BRANCH   1  11
ATOM     11  N   UNL     1       4.350  44.107  53.683  1.00  0.00    -0.321 N 
ATOM     12  H   UNL     1       4.558  43.122  53.567  1.00  0.00     0.170 HD
BRANCH  11  13
ATOM     13  C   UNL     1       5.440  44.952  53.417  1.00  0.00     0.084 A 
ATOM     14  C   UNL     1       7.622  46.625  52.764  1.00  0.00     0.122 A 
ATOM     15  C   UNL     1       7.228  46.467  54.089  1.00  0.00     0.049 A 
ATOM     16  C   UNL     1       6.927  45.949  51.757  1.00  0.00     0.095 A 
ATOM     17  C   UNL     1       6.147  45.637  54.409  1.00  0.00     0.034 A 
ATOM     18  C   UNL     1       5.846  45.118  52.072  1.00  0.00     0.146 A 
BRANCH  14  19
ATOM     19  O   UNL     1       8.656  47.404  52.319  1.00  0.00    -0.497 OA
ATOM     20  C   UNL     1       9.885  46.742  52.046  1.00  0.00     0.278 C 
ENDBRANCH  14  19
BRANCH  18  21
ATOM     21  O   UNL     1       5.103  44.412  51.150  1.00  0.00    -0.494 OA
ATOM     22  C   UNL     1       5.790  43.434  50.380  1.00  0.00     0.278 C 
ENDBRANCH  18  21
ENDBRANCH  11  13
ENDBRANCH   1  11
BRANCH   3  23
ATOM     23  N   UNL     1      -0.155  43.530  52.577  1.00  0.00    -0.366 N 
ATOM     24  H   UNL     1       0.057  42.564  52.315  1.00  0.00     0.162 HD
BRANCH  23  25
ATOM     25  C   UNL     1      -0.302  44.377  51.393  1.00  0.00     0.142 C 
BRANCH  25  26
ATOM     26  C   UNL     1      -1.684  45.036  51.415  1.00  0.00     0.177 C 
BRANCH  26  27
ATOM     27  O   UNL     1      -1.670  46.169  52.287  1.00  0.00    -0.395 OA
ATOM     28  H   UNL     1      -2.373  46.767  51.981  1.00  0.00     0.210 HD
ENDBRANCH  26  27
ENDBRANCH  25  26
ENDBRANCH  23  25
ENDBRANCH   3  23
TORSDOF 8
ENDMDL
