MODEL 1
REMARK VINA RESULT:    -8.263      0.000      0.000
REMARK INTER + INTRA:         -14.046
REMARK INTER:                 -12.610
REMARK INTRA:                  -1.436
REMARK UNBOUND:                -1.436
REMARK SMILES CCCCCCNc1nc(Nc2ccccc2C#N)c2cnn(C)c2n1
REMARK SMILES IDX 6 1 5 2 4 3 3 4 2 5 1 6 7 7 8 9 9 10 26 11 10 12 25 13 20 14
REMARK SMILES IDX 23 15 21 16 22 17 24 18 11 19 12 21 13 22 17 23 14 24 16 25
REMARK SMILES IDX 15 26 18 27 19 28
REMARK H PARENT 7 8 11 20
ROOT
ATOM      1  C   UNL     1       3.538  46.048  55.474  1.00  0.00     0.116 C 
ENDROOT
BRANCH   1   2
ATOM      2  C   UNL     1       2.465  44.956  55.482  1.00  0.00     0.021 C 
BRANCH   2   3
ATOM      3  C   UNL     1       1.956  44.671  54.068  1.00  0.00     0.002 C 
BRANCH   3   4
ATOM      4  C   UNL     1       2.008  45.929  53.197  1.00  0.00    -0.000 C 
BRANCH   4   5
ATOM      5  C   UNL     1       2.097  45.627  51.700  1.00  0.00    -0.003 C 
ATOM      6  C   UNL     1       3.112  46.490  50.966  1.00  0.00     0.004 C 
ENDBRANCH   4   5
ENDBRANCH   3   4
ENDBRANCH   2   3
ENDBRANCH   1   2
BRANCH   1   7
ATOM      7  N   UNL     1       4.871  45.494  55.628  1.00  0.00    -0.354 N 
ATOM      8  H   UNL     1       5.358  45.740  56.484  1.00  0.00     0.163 HD
BRANCH   7   9
ATOM      9  C   UNL     1       5.761  45.689  54.583  1.00  0.00     0.226 A 
ATOM     10  N   UNL     1       5.480  45.182  53.367  1.00  0.00    -0.195 NA
ATOM     11  N   UNL     1       6.852  46.397  54.896  1.00  0.00    -0.193 NA
ATOM     12  C   UNL     1       6.327  45.357  52.321  1.00  0.00     0.147 A 
ATOM     13  C   UNL     1       7.679  46.565  53.854  1.00  0.00     0.165 A 
ATOM     14  C   UNL     1       7.492  46.093  52.570  1.00  0.00     0.082 A 
ATOM     15  N   UNL     1       8.872  47.235  53.842  1.00  0.00    -0.250 N 
ATOM     16  C   UNL     1       8.628  46.543  51.864  1.00  0.00     0.149 A 
ATOM     17  N   UNL     1       9.475  47.241  52.629  1.00  0.00    -0.179 NA
ATOM     18  C   UNL     1       9.505  47.901  54.951  1.00  0.00     0.176 C 
BRANCH  12  19
ATOM     19  N   UNL     1       6.034  44.859  51.040  1.00  0.00    -0.338 N 
ATOM     20  H   UNL     1       6.129  45.559  50.315  1.00  0.00     0.168 HD
BRANCH  19  21
ATOM     21  C   UNL     1       5.659  43.572  50.590  1.00  0.00     0.058 A 
ATOM     22  C   UNL     1       4.449  42.970  50.969  1.00  0.00     0.027 A 
ATOM     23  C   UNL     1       6.479  42.858  49.684  1.00  0.00     0.076 A 
ATOM     24  C   UNL     1       4.071  41.713  50.486  1.00  0.00     0.002 A 
ATOM     25  C   UNL     1       6.096  41.595  49.200  1.00  0.00     0.021 A 
ATOM     26  C   UNL     1       4.893  41.024  49.602  1.00  0.00     0.002 A 
BRANCH  23  27
ATOM     27  C   UNL     1       7.725  43.404  49.232  1.00  0.00     0.101 C 
ATOM     28  N   UNL     1       8.725  43.885  48.892  1.00  0.00    -0.192 NA
ENDBRANCH  23  27
ENDBRANCH  19  21
ENDBRANCH  12  19
ENDBRANCH   7   9
ENDBRANCH   1   7
TORSDOF 9
ENDMDL
MODEL 2
REMARK VINA RESULT:    -8.254      2.016      6.540
REMARK INTER + INTRA:         -14.032
REMARK INTER:                 -13.117
REMARK INTRA:                  -0.915
REMARK UNBOUND:                -1.436
REMARK SMILES CCCCCCNc1nc(Nc2ccccc2C#N)c2cnn(C)c2n1
REMARK SMILES IDX 6 1 5 2 4 3 3 4 2 5 1 6 7 7 8 9 9 10 26 11 10 12 25 13 20 14
REMARK SMILES IDX 23 15 21 16 22 17 24 18 11 19 12 21 13 22 17 23 14 24 16 25
REMARK SMILES IDX 15 26 18 27 19 28
REMARK H PARENT 7 8 11 20
ROOT
ATOM      1  C   UNL     1       6.913  46.999  52.231  1.00  0.00     0.116 C 
ENDROOT
BRANCH   1   2
ATOM      2  C   UNL     1       8.139  47.917  52.255  1.00  0.00     0.021 C 
BRANCH   2   3
ATOM      3  C   UNL     1       9.430  47.121  52.049  1.00  0.00     0.002 C 
BRANCH   3   4
ATOM      4  C   UNL     1      10.001  46.638  53.384  1.00  0.00    -0.000 C 
BRANCH   4   5
ATOM      5  C   UNL     1       9.618  47.529  54.567  1.00  0.00    -0.003 C 
ATOM      6  C   UNL     1      10.636  47.511  55.696  1.00  0.00     0.004 C 
ENDBRANCH   4   5
ENDBRANCH   3   4
ENDBRANCH   2   3
ENDBRANCH   1   2
BRANCH   1   7
ATOM      7  N   UNL     1       7.074  45.911  51.283  1.00  0.00    -0.354 N 
ATOM      8  H   UNL     1       7.144  46.179  50.307  1.00  0.00     0.163 HD
BRANCH   7   9
ATOM      9  C   UNL     1       6.162  44.869  51.356  1.00  0.00     0.226 A 
ATOM     10  N   UNL     1       5.227  44.870  52.325  1.00  0.00    -0.195 NA
ATOM     11  N   UNL     1       6.301  43.932  50.412  1.00  0.00    -0.193 NA
ATOM     12  C   UNL     1       4.316  43.868  52.423  1.00  0.00     0.147 A 
ATOM     13  C   UNL     1       5.394  42.949  50.517  1.00  0.00     0.165 A 
ATOM     14  C   UNL     1       4.396  42.849  51.465  1.00  0.00     0.082 A 
ATOM     15  N   UNL     1       5.267  41.848  49.715  1.00  0.00    -0.250 N 
ATOM     16  C   UNL     1       3.720  41.655  51.136  1.00  0.00     0.149 A 
ATOM     17  N   UNL     1       4.243  41.037  50.071  1.00  0.00    -0.179 NA
ATOM     18  C   UNL     1       6.087  41.500  48.583  1.00  0.00     0.176 C 
BRANCH  12  19
ATOM     19  N   UNL     1       3.318  43.869  53.411  1.00  0.00    -0.338 N 
ATOM     20  H   UNL     1       3.695  43.870  54.351  1.00  0.00     0.168 HD
BRANCH  19  21
ATOM     21  C   UNL     1       1.906  43.891  53.328  1.00  0.00     0.058 A 
ATOM     22  C   UNL     1       1.123  42.763  53.615  1.00  0.00     0.027 A 
ATOM     23  C   UNL     1       1.222  45.085  52.999  1.00  0.00     0.076 A 
ATOM     24  C   UNL     1      -0.275  42.808  53.567  1.00  0.00     0.002 A 
ATOM     25  C   UNL     1      -0.182  45.127  52.952  1.00  0.00     0.021 A 
ATOM     26  C   UNL     1      -0.929  43.988  53.235  1.00  0.00     0.002 A 
BRANCH  23  27
ATOM     27  C   UNL     1       1.943  46.289  52.706  1.00  0.00     0.101 C 
ATOM     28  N   UNL     1       2.485  47.287  52.464  1.00  0.00    -0.192 NA
ENDBRANCH  23  27
ENDBRANCH  19  21
ENDBRANCH  12  19
ENDBRANCH   7   9
ENDBRANCH   1   7
TORSDOF 9
ENDMDL
MODEL 3
REMARK VINA RESULT:    -8.240      1.146      1.383
REMARK INTER + INTRA:         -14.011
REMARK INTER:                 -12.842
REMARK INTRA:                  -1.169
REMARK UNBOUND:                -1.436
REMARK SMILES CCCCCCNc1nc(Nc2ccccc2C#N)c2cnn(C)c2n1
REMARK SMILES IDX 6 1 5 2 4 3 3 4 2 5 1 6 7 7 8 9 9 10 26 11 10 12 25 13 20 14
REMARK SMILES IDX 23 15 21 16 22 17 24 18 11 19 12 21 13 22 17 23 14 24 16 25
REMARK SMILES IDX 15 26 18 27 19 28
REMARK H PARENT 7 8 11 20
ROOT
ATOM      1  C   UNL     1       3.613  45.915  55.440  1.00  0.00     0.116 C 
ENDROOT
BRANCH   1   2
ATOM      2  C   UNL     1       2.386  45.643  54.565  1.00  0.00     0.021 C 
BRANCH   2   3
ATOM      3  C   UNL     1       1.393  44.721  55.275  1.00  0.00     0.002 C 
BRANCH   3   4
ATOM      4  C   UNL     1       0.593  43.888  54.270  1.00  0.00    -0.000 C 
BRANCH   4   5
ATOM      5  C   UNL     1       1.473  43.063  53.330  1.00  0.00    -0.003 C 
ATOM      6  C   UNL     1       0.799  42.721  52.010  1.00  0.00     0.004 C 
ENDBRANCH   4   5
ENDBRANCH   3   4
ENDBRANCH   2   3
ENDBRANCH   1   2
BRANCH   1   7
ATOM      7  N   UNL     1       4.363  47.067  54.973  1.00  0.00    -0.354 N 
ATOM      8  H   UNL     1       3.819  47.803  54.537  1.00  0.00     0.163 HD
BRANCH   7   9
ATOM      9  C   UNL     1       5.452  46.821  54.151  1.00  0.00     0.226 A 
ATOM     10  N   UNL     1       5.276  46.153  52.996  1.00  0.00    -0.195 NA
ATOM     11  N   UNL     1       6.617  47.301  54.602  1.00  0.00    -0.193 NA
ATOM     12  C   UNL     1       6.321  45.898  52.166  1.00  0.00     0.147 A 
ATOM     13  C   UNL     1       7.640  47.046  53.773  1.00  0.00     0.165 A 
ATOM     14  C   UNL     1       7.575  46.373  52.569  1.00  0.00     0.082 A 
ATOM     15  N   UNL     1       8.952  47.396  53.942  1.00  0.00    -0.250 N 
ATOM     16  C   UNL     1       8.903  46.383  52.092  1.00  0.00     0.149 A 
ATOM     17  N   UNL     1       9.750  47.004  52.921  1.00  0.00    -0.179 NA
ATOM     18  C   UNL     1       9.523  48.110  55.055  1.00  0.00     0.176 C 
BRANCH  12  19
ATOM     19  N   UNL     1       6.149  45.227  50.944  1.00  0.00    -0.338 N 
ATOM     20  H   UNL     1       6.348  45.812  50.143  1.00  0.00     0.168 HD
BRANCH  19  21
ATOM     21  C   UNL     1       5.775  43.897  50.641  1.00  0.00     0.058 A 
ATOM     22  C   UNL     1       4.570  43.337  51.093  1.00  0.00     0.027 A 
ATOM     23  C   UNL     1       6.591  43.090  49.814  1.00  0.00     0.076 A 
ATOM     24  C   UNL     1       4.193  42.033  50.754  1.00  0.00     0.002 A 
ATOM     25  C   UNL     1       6.210  41.780  49.475  1.00  0.00     0.021 A 
ATOM     26  C   UNL     1       5.012  41.253  49.946  1.00  0.00     0.002 A 
BRANCH  23  27
ATOM     27  C   UNL     1       7.833  43.586  49.296  1.00  0.00     0.101 C 
ATOM     28  N   UNL     1       8.847  44.007  48.919  1.00  0.00    -0.192 NA
ENDBRANCH  23  27
ENDBRANCH  19  21
ENDBRANCH  12  19
ENDBRANCH   7   9
ENDBRANCH   1   7
TORSDOF 9
ENDMDL
MODEL 4
REMARK VINA RESULT:    -8.204      1.986      5.192
REMARK INTER + INTRA:         -13.957
REMARK INTER:                 -12.008
REMARK INTRA:                  -1.949
REMARK UNBOUND:                -1.436
REMARK SMILES CCCCCCNc1nc(Nc2ccccc2C#N)c2cnn(C)c2n1
REMARK SMILES IDX 6 1 5 2 4 3 3 4 2 5 1 6 7 7 8 9 9 10 26 11 10 12 25 13 20 14
REMARK SMILES IDX 23 15 21 16 22 17 24 18 11 19 12 21 13 22 17 23 14 24 16 25
REMARK SMILES IDX 15 26 18 27 19 28
REMARK H PARENT 7 8 11 20
ROOT
ATOM      1  C   UNL     1       2.522  46.662  52.936  1.00  0.00     0.116 C 
ENDROOT
BRANCH   1   2
ATOM      2  C   UNL     1       2.026  45.758  54.068  1.00  0.00     0.021 C 
BRANCH   2   3
ATOM      3  C   UNL     1       3.183  45.305  54.961  1.00  0.00     0.002 C 
BRANCH   3   4
ATOM      4  C   UNL     1       4.233  46.409  55.109  1.00  0.00    -0.000 C 
BRANCH   4   5
ATOM      5  C   UNL     1       5.668  45.904  54.954  1.00  0.00    -0.003 C 
ATOM      6  C   UNL     1       5.764  44.538  54.293  1.00  0.00     0.004 C 
ENDBRANCH   4   5
ENDBRANCH   3   4
ENDBRANCH   2   3
ENDBRANCH   1   2
BRANCH   1   7
ATOM      7  N   UNL     1       2.483  45.987  51.651  1.00  0.00    -0.354 N 
ATOM      8  H   UNL     1       1.709  45.349  51.508  1.00  0.00     0.163 HD
BRANCH   7   9
ATOM      9  C   UNL     1       3.635  45.328  51.248  1.00  0.00     0.226 A 
ATOM     10  N   UNL     1       4.786  46.016  51.124  1.00  0.00    -0.195 NA
ATOM     11  N   UNL     1       3.484  44.018  51.021  1.00  0.00    -0.193 NA
ATOM     12  C   UNL     1       5.932  45.401  50.735  1.00  0.00     0.147 A 
ATOM     13  C   UNL     1       4.623  43.422  50.641  1.00  0.00     0.165 A 
ATOM     14  C   UNL     1       5.855  44.026  50.483  1.00  0.00     0.082 A 
ATOM     15  N   UNL     1       4.806  42.101  50.333  1.00  0.00    -0.250 N 
ATOM     16  C   UNL     1       6.710  42.975  50.085  1.00  0.00     0.149 A 
ATOM     17  N   UNL     1       6.080  41.798  49.992  1.00  0.00    -0.179 NA
ATOM     18  C   UNL     1       3.808  41.062  50.344  1.00  0.00     0.176 C 
BRANCH  12  19
ATOM     19  N   UNL     1       7.147  46.099  50.628  1.00  0.00    -0.338 N 
ATOM     20  H   UNL     1       7.389  46.322  49.671  1.00  0.00     0.168 HD
BRANCH  19  21
ATOM     21  C   UNL     1       8.063  46.555  51.603  1.00  0.00     0.058 A 
ATOM     22  C   UNL     1       7.723  47.534  52.549  1.00  0.00     0.027 A 
ATOM     23  C   UNL     1       9.359  45.993  51.693  1.00  0.00     0.076 A 
ATOM     24  C   UNL     1       8.627  47.950  53.534  1.00  0.00     0.002 A 
ATOM     25  C   UNL     1      10.264  46.412  52.684  1.00  0.00     0.021 A 
ATOM     26  C   UNL     1       9.897  47.391  53.602  1.00  0.00     0.002 A 
BRANCH  23  27
ATOM     27  C   UNL     1       9.786  44.977  50.777  1.00  0.00     0.101 C 
ATOM     28  N   UNL     1      10.176  44.170  50.039  1.00  0.00    -0.192 NA
ENDBRANCH  23  27
ENDBRANCH  19  21
ENDBRANCH  12  19
ENDBRANCH   7   9
ENDBRANCH   1   7
TORSDOF 9
ENDMDL
MODEL 5
REMARK VINA RESULT:    -8.181      2.007      5.427
REMARK INTER + INTRA:         -13.921
REMARK INTER:                 -12.906
REMARK INTRA:                  -1.014
REMARK UNBOUND:                -1.436
REMARK SMILES CCCCCCNc1nc(Nc2ccccc2C#N)c2cnn(C)c2n1
REMARK SMILES IDX 6 1 5 2 4 3 3 4 2 5 1 6 7 7 8 9 9 10 26 11 10 12 25 13 20 14
REMARK SMILES IDX 23 15 21 16 22 17 24 18 11 19 12 21 13 22 17 23 14 24 16 25
REMARK SMILES IDX 15 26 18 27 19 28
REMARK H PARENT 7 8 11 20
ROOT
ATOM      1  C   UNL     1       6.962  46.711  54.763  1.00  0.00     0.116 C 
ENDROOT
BRANCH   1   2
ATOM      2  C   UNL     1       7.693  47.754  53.913  1.00  0.00     0.021 C 
BRANCH   2   3
ATOM      3  C   UNL     1       9.156  47.888  54.338  1.00  0.00     0.002 C 
BRANCH   3   4
ATOM      4  C   UNL     1      10.024  46.809  53.686  1.00  0.00    -0.000 C 
BRANCH   4   5
ATOM      5  C   UNL     1       9.863  46.738  52.167  1.00  0.00    -0.003 C 
ATOM      6  C   UNL     1      10.603  45.570  51.532  1.00  0.00     0.004 C 
ENDBRANCH   4   5
ENDBRANCH   3   4
ENDBRANCH   2   3
ENDBRANCH   1   2
BRANCH   1   7
ATOM      7  N   UNL     1       5.563  47.053  54.950  1.00  0.00    -0.354 N 
ATOM      8  H   UNL     1       5.275  47.237  55.905  1.00  0.00     0.163 HD
BRANCH   7   9
ATOM      9  C   UNL     1       4.624  46.195  54.398  1.00  0.00     0.226 A 
ATOM     10  N   UNL     1       4.849  45.653  53.187  1.00  0.00    -0.195 NA
ATOM     11  N   UNL     1       3.547  45.975  55.160  1.00  0.00    -0.193 NA
ATOM     12  C   UNL     1       3.952  44.807  52.619  1.00  0.00     0.147 A 
ATOM     13  C   UNL     1       2.670  45.135  54.590  1.00  0.00     0.165 A 
ATOM     14  C   UNL     1       2.797  44.523  53.359  1.00  0.00     0.082 A 
ATOM     15  N   UNL     1       1.475  44.710  55.103  1.00  0.00    -0.250 N 
ATOM     16  C   UNL     1       1.627  43.745  53.234  1.00  0.00     0.149 A 
ATOM     17  N   UNL     1       0.815  43.851  54.291  1.00  0.00    -0.179 NA
ATOM     18  C   UNL     1       0.894  45.078  56.369  1.00  0.00     0.176 C 
BRANCH  12  19
ATOM     19  N   UNL     1       4.185  44.212  51.367  1.00  0.00    -0.338 N 
ATOM     20  H   UNL     1       3.331  43.932  50.900  1.00  0.00     0.168 HD
BRANCH  19  21
ATOM     21  C   UNL     1       5.376  43.957  50.649  1.00  0.00     0.058 A 
ATOM     22  C   UNL     1       6.360  44.939  50.461  1.00  0.00     0.027 A 
ATOM     23  C   UNL     1       5.644  42.668  50.133  1.00  0.00     0.076 A 
ATOM     24  C   UNL     1       7.552  44.664  49.781  1.00  0.00     0.002 A 
ATOM     25  C   UNL     1       6.843  42.394  49.451  1.00  0.00     0.021 A 
ATOM     26  C   UNL     1       7.795  43.393  49.276  1.00  0.00     0.002 A 
BRANCH  23  27
ATOM     27  C   UNL     1       4.701  41.600  50.292  1.00  0.00     0.101 C 
ATOM     28  N   UNL     1       3.903  40.763  50.402  1.00  0.00    -0.192 NA
ENDBRANCH  23  27
ENDBRANCH  19  21
ENDBRANCH  12  19
ENDBRANCH   7   9
ENDBRANCH   1   7
TORSDOF 9
ENDMDL
MODEL 6
REMARK VINA RESULT:    -7.952      2.316      5.587
REMARK INTER + INTRA:         -13.571
REMARK INTER:                 -12.509
REMARK INTRA:                  -1.062
REMARK UNBOUND:                -1.436
REMARK SMILES CCCCCCNc1nc(Nc2ccccc2C#N)c2cnn(C)c2n1
REMARK SMILES IDX 6 1 5 2 4 3 3 4 2 5 1 6 7 7 8 9 9 10 26 11 10 12 25 13 20 14
REMARK SMILES IDX 23 15 21 16 22 17 24 18 11 19 12 21 13 22 17 23 14 24 16 25
REMARK SMILES IDX 15 26 18 27 19 28
REMARK H PARENT 7 8 11 20
ROOT
ATOM      1  C   UNL     1       5.952  45.354  55.397  1.00  0.00     0.116 C 
ENDROOT
BRANCH   1   2
ATOM      2  C   UNL     1       6.379  46.678  54.757  1.00  0.00     0.021 C 
BRANCH   2   3
ATOM      3  C   UNL     1       7.383  46.447  53.626  1.00  0.00     0.002 C 
BRANCH   3   4
ATOM      4  C   UNL     1       8.511  47.482  53.667  1.00  0.00    -0.000 C 
BRANCH   4   5
ATOM      5  C   UNL     1       9.901  46.871  53.484  1.00  0.00    -0.003 C 
ATOM      6  C   UNL     1      10.201  46.462  52.050  1.00  0.00     0.004 C 
ENDBRANCH   4   5
ENDBRANCH   3   4
ENDBRANCH   2   3
ENDBRANCH   1   2
BRANCH   1   7
ATOM      7  N   UNL     1       4.542  45.353  55.743  1.00  0.00    -0.354 N 
ATOM      8  H   UNL     1       4.288  44.818  56.566  1.00  0.00     0.163 HD
BRANCH   7   9
ATOM      9  C   UNL     1       3.646  45.012  54.742  1.00  0.00     0.226 A 
ATOM     10  N   UNL     1       4.097  44.784  53.494  1.00  0.00    -0.195 NA
ATOM     11  N   UNL     1       2.369  44.932  55.133  1.00  0.00    -0.193 NA
ATOM     12  C   UNL     1       3.247  44.445  52.491  1.00  0.00     0.147 A 
ATOM     13  C   UNL     1       1.540  44.594  54.135  1.00  0.00     0.165 A 
ATOM     14  C   UNL     1       1.891  44.338  52.824  1.00  0.00     0.082 A 
ATOM     15  N   UNL     1       0.183  44.432  54.202  1.00  0.00    -0.250 N 
ATOM     16  C   UNL     1       0.670  44.023  52.191  1.00  0.00     0.149 A 
ATOM     17  N   UNL     1      -0.377  44.077  53.022  1.00  0.00    -0.179 NA
ATOM     18  C   UNL     1      -0.654  44.598  55.362  1.00  0.00     0.176 C 
BRANCH  12  19
ATOM     19  N   UNL     1       3.706  44.177  51.191  1.00  0.00    -0.338 N 
ATOM     20  H   UNL     1       2.955  44.103  50.516  1.00  0.00     0.168 HD
BRANCH  19  21
ATOM     21  C   UNL     1       5.008  44.015  50.663  1.00  0.00     0.058 A 
ATOM     22  C   UNL     1       5.932  45.069  50.614  1.00  0.00     0.027 A 
ATOM     23  C   UNL     1       5.448  42.749  50.207  1.00  0.00     0.076 A 
ATOM     24  C   UNL     1       7.231  44.886  50.125  1.00  0.00     0.002 A 
ATOM     25  C   UNL     1       6.753  42.568  49.717  1.00  0.00     0.021 A 
ATOM     26  C   UNL     1       7.642  43.638  49.675  1.00  0.00     0.002 A 
BRANCH  23  27
ATOM     27  C   UNL     1       4.575  41.612  50.234  1.00  0.00     0.101 C 
ATOM     28  N   UNL     1       3.833  40.720  50.240  1.00  0.00    -0.192 NA
ENDBRANCH  23  27
ENDBRANCH  19  21
ENDBRANCH  12  19
ENDBRANCH   7   9
ENDBRANCH   1   7
TORSDOF 9
ENDMDL
MODEL 7
REMARK VINA RESULT:    -7.879      2.319      6.136
REMARK INTER + INTRA:         -13.460
REMARK INTER:                 -12.406
REMARK INTRA:                  -1.054
REMARK UNBOUND:                -1.436
REMARK SMILES CCCCCCNc1nc(Nc2ccccc2C#N)c2cnn(C)c2n1
REMARK SMILES IDX 6 1 5 2 4 3 3 4 2 5 1 6 7 7 8 9 9 10 26 11 10 12 25 13 20 14
REMARK SMILES IDX 23 15 21 16 22 17 24 18 11 19 12 21 13 22 17 23 14 24 16 25
REMARK SMILES IDX 15 26 18 27 19 28
REMARK H PARENT 7 8 11 20
ROOT
ATOM      1  C   UNL     1       3.531  40.852  49.705  1.00  0.00     0.116 C 
ENDROOT
BRANCH   1   2
ATOM      2  C   UNL     1       4.364  40.742  48.425  1.00  0.00     0.021 C 
BRANCH   2   3
ATOM      3  C   UNL     1       3.559  40.099  47.295  1.00  0.00     0.002 C 
BRANCH   3   4
ATOM      4  C   UNL     1       3.722  40.877  45.987  1.00  0.00    -0.000 C 
BRANCH   4   5
ATOM      5  C   UNL     1       5.092  41.540  45.842  1.00  0.00    -0.003 C 
ATOM      6  C   UNL     1       5.242  42.353  44.565  1.00  0.00     0.004 C 
ENDBRANCH   4   5
ENDBRANCH   3   4
ENDBRANCH   2   3
ENDBRANCH   1   2
BRANCH   1   7
ATOM      7  N   UNL     1       4.352  41.183  50.856  1.00  0.00    -0.354 N 
ATOM      8  H   UNL     1       4.251  40.576  51.662  1.00  0.00     0.163 HD
BRANCH   7   9
ATOM      9  C   UNL     1       4.297  42.489  51.318  1.00  0.00     0.226 A 
ATOM     10  N   UNL     1       5.214  43.381  50.901  1.00  0.00    -0.195 NA
ATOM     11  N   UNL     1       3.289  42.746  52.160  1.00  0.00    -0.193 NA
ATOM     12  C   UNL     1       5.187  44.669  51.331  1.00  0.00     0.147 A 
ATOM     13  C   UNL     1       3.271  44.021  52.574  1.00  0.00     0.165 A 
ATOM     14  C   UNL     1       4.157  45.016  52.214  1.00  0.00     0.082 A 
ATOM     15  N   UNL     1       2.378  44.601  53.434  1.00  0.00    -0.250 N 
ATOM     16  C   UNL     1       3.701  46.158  52.907  1.00  0.00     0.149 A 
ATOM     17  N   UNL     1       2.617  45.916  53.653  1.00  0.00    -0.179 NA
ATOM     18  C   UNL     1       1.265  43.964  54.089  1.00  0.00     0.176 C 
BRANCH  12  19
ATOM     19  N   UNL     1       6.121  45.619  50.884  1.00  0.00    -0.338 N 
ATOM     20  H   UNL     1       5.828  46.089  50.036  1.00  0.00     0.168 HD
BRANCH  19  21
ATOM     21  C   UNL     1       7.364  46.042  51.409  1.00  0.00     0.058 A 
ATOM     22  C   UNL     1       7.456  46.956  52.469  1.00  0.00     0.027 A 
ATOM     23  C   UNL     1       8.576  45.508  50.910  1.00  0.00     0.076 A 
ATOM     24  C   UNL     1       8.691  47.338  53.005  1.00  0.00     0.002 A 
ATOM     25  C   UNL     1       9.815  45.893  51.451  1.00  0.00     0.021 A 
ATOM     26  C   UNL     1       9.871  46.808  52.497  1.00  0.00     0.002 A 
BRANCH  23  27
ATOM     27  C   UNL     1       8.575  44.556  49.838  1.00  0.00     0.101 C 
ATOM     28  N   UNL     1       8.530  43.774  48.982  1.00  0.00    -0.192 NA
ENDBRANCH  23  27
ENDBRANCH  19  21
ENDBRANCH  12  19
ENDBRANCH   7   9
ENDBRANCH   1   7
TORSDOF 9
ENDMDL
MODEL 8
REMARK VINA RESULT:    -7.856      1.621      5.412
REMARK INTER + INTRA:         -13.425
REMARK INTER:                 -12.246
REMARK INTRA:                  -1.179
REMARK UNBOUND:                -1.436
REMARK SMILES CCCCCCNc1nc(Nc2ccccc2C#N)c2cnn(C)c2n1
REMARK SMILES IDX 6 1 5 2 4 3 3 4 2 5 1 6 7 7 8 9 9 10 26 11 10 12 25 13 20 14
REMARK SMILES IDX 23 15 21 16 22 17 24 18 11 19 12 21 13 22 17 23 14 24 16 25
REMARK SMILES IDX 15 26 18 27 19 28
REMARK H PARENT 7 8 11 20
ROOT
ATOM      1  C   UNL     1       1.931  42.833  52.562  1.00  0.00     0.116 C 
ENDROOT
BRANCH   1   2
ATOM      2  C   UNL     1       0.910  42.991  53.691  1.00  0.00     0.021 C 
BRANCH   2   3
ATOM      3  C   UNL     1       0.916  44.416  54.248  1.00  0.00     0.002 C 
BRANCH   3   4
ATOM      4  C   UNL     1       1.213  45.439  53.148  1.00  0.00    -0.000 C 
BRANCH   4   5
ATOM      5  C   UNL     1       2.366  46.382  53.493  1.00  0.00    -0.003 C 
ATOM      6  C   UNL     1       2.881  47.173  52.300  1.00  0.00     0.004 C 
ENDBRANCH   4   5
ENDBRANCH   3   4
ENDBRANCH   2   3
ENDBRANCH   1   2
BRANCH   1   7
ATOM      7  N   UNL     1       3.295  42.888  53.057  1.00  0.00    -0.354 N 
ATOM      8  H   UNL     1       3.434  43.406  53.918  1.00  0.00     0.163 HD
BRANCH   7   9
ATOM      9  C   UNL     1       4.274  43.303  52.168  1.00  0.00     0.226 A 
ATOM     10  N   UNL     1       4.905  44.475  52.373  1.00  0.00    -0.195 NA
ATOM     11  N   UNL     1       4.511  42.459  51.157  1.00  0.00    -0.193 NA
ATOM     12  C   UNL     1       5.870  44.910  51.523  1.00  0.00     0.147 A 
ATOM     13  C   UNL     1       5.469  42.899  50.327  1.00  0.00     0.165 A 
ATOM     14  C   UNL     1       6.178  44.078  50.440  1.00  0.00     0.082 A 
ATOM     15  N   UNL     1       5.942  42.277  49.204  1.00  0.00    -0.250 N 
ATOM     16  C   UNL     1       7.058  44.062  49.337  1.00  0.00     0.149 A 
ATOM     17  N   UNL     1       6.923  42.969  48.578  1.00  0.00    -0.179 NA
ATOM     18  C   UNL     1       5.507  41.015  48.662  1.00  0.00     0.176 C 
BRANCH  12  19
ATOM     19  N   UNL     1       6.557  46.117  51.739  1.00  0.00    -0.338 N 
ATOM     20  H   UNL     1       6.077  46.918  51.348  1.00  0.00     0.168 HD
BRANCH  19  21
ATOM     21  C   UNL     1       7.767  46.409  52.410  1.00  0.00     0.058 A 
ATOM     22  C   UNL     1       9.019  46.262  51.794  1.00  0.00     0.027 A 
ATOM     23  C   UNL     1       7.753  46.918  53.731  1.00  0.00     0.076 A 
ATOM     24  C   UNL     1      10.207  46.591  52.457  1.00  0.00     0.002 A 
ATOM     25  C   UNL     1       8.948  47.248  54.394  1.00  0.00     0.021 A 
ATOM     26  C   UNL     1      10.173  47.083  53.756  1.00  0.00     0.002 A 
BRANCH  23  27
ATOM     27  C   UNL     1       6.517  47.114  54.431  1.00  0.00     0.101 C 
ATOM     28  N   UNL     1       5.494  47.267  54.957  1.00  0.00    -0.192 NA
ENDBRANCH  23  27
ENDBRANCH  19  21
ENDBRANCH  12  19
ENDBRANCH   7   9
ENDBRANCH   1   7
TORSDOF 9
ENDMDL
MODEL 9
REMARK VINA RESULT:    -7.853      2.015      6.318
REMARK INTER + INTRA:         -13.421
REMARK INTER:                 -12.433
REMARK INTRA:                  -0.988
REMARK UNBOUND:                -1.436
REMARK SMILES CCCCCCNc1nc(Nc2ccccc2C#N)c2cnn(C)c2n1
REMARK SMILES IDX 6 1 5 2 4 3 3 4 2 5 1 6 7 7 8 9 9 10 26 11 10 12 25 13 20 14
REMARK SMILES IDX 23 15 21 16 22 17 24 18 11 19 12 21 13 22 17 23 14 24 16 25
REMARK SMILES IDX 15 26 18 27 19 28
REMARK H PARENT 7 8 11 20
ROOT
ATOM      1  C   UNL     1       3.697  41.241  50.410  1.00  0.00     0.116 C 
ENDROOT
BRANCH   1   2
ATOM      2  C   UNL     1       4.493  41.067  49.114  1.00  0.00     0.021 C 
BRANCH   2   3
ATOM      3  C   UNL     1       5.994  41.231  49.360  1.00  0.00     0.002 C 
BRANCH   3   4
ATOM      4  C   UNL     1       6.537  42.479  48.659  1.00  0.00    -0.000 C 
BRANCH   4   5
ATOM      5  C   UNL     1       7.604  43.214  49.472  1.00  0.00    -0.003 C 
ATOM      6  C   UNL     1       8.413  44.209  48.653  1.00  0.00     0.004 C 
ENDBRANCH   4   5
ENDBRANCH   3   4
ENDBRANCH   2   3
ENDBRANCH   1   2
BRANCH   1   7
ATOM      7  N   UNL     1       4.483  41.896  51.441  1.00  0.00    -0.354 N 
ATOM      8  H   UNL     1       4.478  41.452  52.352  1.00  0.00     0.163 HD
BRANCH   7   9
ATOM      9  C   UNL     1       4.257  43.248  51.644  1.00  0.00     0.226 A 
ATOM     10  N   UNL     1       5.274  44.120  51.514  1.00  0.00    -0.195 NA
ATOM     11  N   UNL     1       2.995  43.568  51.954  1.00  0.00    -0.193 NA
ATOM     12  C   UNL     1       5.087  45.452  51.703  1.00  0.00     0.147 A 
ATOM     13  C   UNL     1       2.821  44.885  52.135  1.00  0.00     0.165 A 
ATOM     14  C   UNL     1       3.788  45.865  52.027  1.00  0.00     0.082 A 
ATOM     15  N   UNL     1       1.660  45.532  52.460  1.00  0.00    -0.250 N 
ATOM     16  C   UNL     1       3.100  47.066  52.299  1.00  0.00     0.149 A 
ATOM     17  N   UNL     1       1.802  46.875  52.564  1.00  0.00    -0.179 NA
ATOM     18  C   UNL     1       0.369  44.936  52.688  1.00  0.00     0.176 C 
BRANCH  12  19
ATOM     19  N   UNL     1       6.132  46.377  51.544  1.00  0.00    -0.338 N 
ATOM     20  H   UNL     1       5.923  47.091  50.857  1.00  0.00     0.168 HD
BRANCH  19  21
ATOM     21  C   UNL     1       7.392  46.497  52.174  1.00  0.00     0.058 A 
ATOM     22  C   UNL     1       8.595  46.246  51.497  1.00  0.00     0.027 A 
ATOM     23  C   UNL     1       7.486  46.933  53.517  1.00  0.00     0.076 A 
ATOM     24  C   UNL     1       9.837  46.406  52.122  1.00  0.00     0.002 A 
ATOM     25  C   UNL     1       8.735  47.093  54.142  1.00  0.00     0.021 A 
ATOM     26  C   UNL     1       9.909  46.829  53.444  1.00  0.00     0.002 A 
BRANCH  23  27
ATOM     27  C   UNL     1       6.308  47.227  54.280  1.00  0.00     0.101 C 
ATOM     28  N   UNL     1       5.363  47.510  54.892  1.00  0.00    -0.192 NA
ENDBRANCH  23  27
ENDBRANCH  19  21
ENDBRANCH  12  19
ENDBRANCH   7   9
ENDBRANCH   1   7
TORSDOF 9
ENDMDL
MODEL 10
REMARK VINA RESULT:    -7.807      1.317      4.967
REMARK INTER + INTRA:         -13.351
REMARK INTER:                 -11.519
REMARK INTRA:                  -1.832
REMARK UNBOUND:                -1.436
REMARK SMILES CCCCCCNc1nc(Nc2ccccc2C#N)c2cnn(C)c2n1
REMARK SMILES IDX 6 1 5 2 4 3 3 4 2 5 1 6 7 7 8 9 9 10 26 11 10 12 25 13 20 14
REMARK SMILES IDX 23 15 21 16 22 17 24 18 11 19 12 21 13 22 17 23 14 24 16 25
REMARK SMILES IDX 15 26 18 27 19 28
REMARK H PARENT 7 8 11 20
ROOT
ATOM      1  C   UNL     1       8.135  43.753  49.528  1.00  0.00     0.116 C 
ENDROOT
BRANCH   1   2
ATOM      2  C   UNL     1       7.009  43.071  48.747  1.00  0.00     0.021 C 
BRANCH   2   3
ATOM      3  C   UNL     1       6.356  41.961  49.572  1.00  0.00     0.002 C 
BRANCH   3   4
ATOM      4  C   UNL     1       5.376  42.536  50.598  1.00  0.00    -0.000 C 
BRANCH   4   5
ATOM      5  C   UNL     1       4.261  41.563  50.983  1.00  0.00    -0.003 C 
ATOM      6  C   UNL     1       3.633  40.857  49.791  1.00  0.00     0.004 C 
ENDBRANCH   4   5
ENDBRANCH   3   4
ENDBRANCH   2   3
ENDBRANCH   1   2
BRANCH   1   7
ATOM      7  N   UNL     1       7.950  45.191  49.596  1.00  0.00    -0.354 N 
ATOM      8  H   UNL     1       8.756  45.755  49.346  1.00  0.00     0.163 HD
BRANCH   7   9
ATOM      9  C   UNL     1       7.441  45.708  50.777  1.00  0.00     0.226 A 
ATOM     10  N   UNL     1       6.108  45.821  50.934  1.00  0.00    -0.195 NA
ATOM     11  N   UNL     1       8.362  46.050  51.686  1.00  0.00    -0.193 NA
ATOM     12  C   UNL     1       5.576  46.319  52.079  1.00  0.00     0.147 A 
ATOM     13  C   UNL     1       7.824  46.538  52.813  1.00  0.00     0.165 A 
ATOM     14  C   UNL     1       6.479  46.696  53.082  1.00  0.00     0.082 A 
ATOM     15  N   UNL     1       8.487  46.977  53.926  1.00  0.00    -0.250 N 
ATOM     16  C   UNL     1       6.444  47.230  54.387  1.00  0.00     0.149 A 
ATOM     17  N   UNL     1       7.662  47.405  54.911  1.00  0.00    -0.179 NA
ATOM     18  C   UNL     1       9.913  47.018  54.127  1.00  0.00     0.176 C 
BRANCH  12  19
ATOM     19  N   UNL     1       4.187  46.416  52.269  1.00  0.00    -0.338 N 
ATOM     20  H   UNL     1       3.879  47.366  52.439  1.00  0.00     0.168 HD
BRANCH  19  21
ATOM     21  C   UNL     1       3.160  45.445  52.244  1.00  0.00     0.058 A 
ATOM     22  C   UNL     1       2.588  44.991  51.046  1.00  0.00     0.027 A 
ATOM     23  C   UNL     1       2.703  44.850  53.444  1.00  0.00     0.076 A 
ATOM     24  C   UNL     1       1.599  44.002  51.033  1.00  0.00     0.002 A 
ATOM     25  C   UNL     1       1.709  43.855  53.427  1.00  0.00     0.021 A 
ATOM     26  C   UNL     1       1.158  43.433  52.221  1.00  0.00     0.002 A 
BRANCH  23  27
ATOM     27  C   UNL     1       3.242  45.242  54.713  1.00  0.00     0.101 C 
ATOM     28  N   UNL     1       3.647  45.596  55.741  1.00  0.00    -0.192 NA
ENDBRANCH  23  27
ENDBRANCH  19  21
ENDBRANCH  12  19
ENDBRANCH   7   9
ENDBRANCH   1   7
TORSDOF 9
ENDMDL
MODEL 11
REMARK VINA RESULT:    -7.778      1.767      5.672
REMARK INTER + INTRA:         -13.306
REMARK INTER:                 -12.324
REMARK INTRA:                  -0.982
REMARK UNBOUND:                -1.436
REMARK SMILES CCCCCCNc1nc(Nc2ccccc2C#N)c2cnn(C)c2n1
REMARK SMILES IDX 6 1 5 2 4 3 3 4 2 5 1 6 7 7 8 9 9 10 26 11 10 12 25 13 20 14
REMARK SMILES IDX 23 15 21 16 22 17 24 18 11 19 12 21 13 22 17 23 14 24 16 25
REMARK SMILES IDX 15 26 18 27 19 28
REMARK H PARENT 7 8 11 20
ROOT
ATOM      1  C   UNL     1       1.991  44.302  53.126  1.00  0.00     0.116 C 
ENDROOT
BRANCH   1   2
ATOM      2  C   UNL     1       0.751  43.700  53.794  1.00  0.00     0.021 C 
BRANCH   2   3
ATOM      3  C   UNL     1       0.195  44.634  54.870  1.00  0.00     0.002 C 
BRANCH   3   4
ATOM      4  C   UNL     1       1.262  44.974  55.914  1.00  0.00    -0.000 C 
BRANCH   4   5
ATOM      5  C   UNL     1       0.700  45.687  57.145  1.00  0.00    -0.003 C 
ATOM      6  C   UNL     1      -0.761  46.085  57.003  1.00  0.00     0.004 C 
ENDBRANCH   4   5
ENDBRANCH   3   4
ENDBRANCH   2   3
ENDBRANCH   1   2
BRANCH   1   7
ATOM      7  N   UNL     1       3.086  43.351  53.067  1.00  0.00    -0.354 N 
ATOM      8  H   UNL     1       3.490  43.083  53.958  1.00  0.00     0.163 HD
BRANCH   7   9
ATOM      9  C   UNL     1       4.139  43.652  52.216  1.00  0.00     0.226 A 
ATOM     10  N   UNL     1       4.824  44.798  52.385  1.00  0.00    -0.195 NA
ATOM     11  N   UNL     1       4.386  42.730  51.278  1.00  0.00    -0.193 NA
ATOM     12  C   UNL     1       5.862  45.122  51.572  1.00  0.00     0.147 A 
ATOM     13  C   UNL     1       5.415  43.059  50.484  1.00  0.00     0.165 A 
ATOM     14  C   UNL     1       6.184  44.203  50.566  1.00  0.00     0.082 A 
ATOM     15  N   UNL     1       5.917  42.339  49.435  1.00  0.00    -0.250 N 
ATOM     16  C   UNL     1       7.126  44.065  49.524  1.00  0.00     0.149 A 
ATOM     17  N   UNL     1       6.972  42.932  48.829  1.00  0.00    -0.179 NA
ATOM     18  C   UNL     1       5.442  41.069  48.949  1.00  0.00     0.176 C 
BRANCH  12  19
ATOM     19  N   UNL     1       6.605  46.301  51.752  1.00  0.00    -0.338 N 
ATOM     20  H   UNL     1       6.217  47.090  51.249  1.00  0.00     0.168 HD
BRANCH  19  21
ATOM     21  C   UNL     1       7.762  46.582  52.514  1.00  0.00     0.058 A 
ATOM     22  C   UNL     1       9.055  46.446  51.988  1.00  0.00     0.027 A 
ATOM     23  C   UNL     1       7.652  47.068  53.839  1.00  0.00     0.076 A 
ATOM     24  C   UNL     1      10.192  46.764  52.740  1.00  0.00     0.002 A 
ATOM     25  C   UNL     1       8.795  47.387  54.592  1.00  0.00     0.021 A 
ATOM     26  C   UNL     1      10.064  47.233  54.042  1.00  0.00     0.002 A 
BRANCH  23  27
ATOM     27  C   UNL     1       6.369  47.252  54.451  1.00  0.00     0.101 C 
ATOM     28  N   UNL     1       5.312  47.413  54.905  1.00  0.00    -0.192 NA
ENDBRANCH  23  27
ENDBRANCH  19  21
ENDBRANCH  12  19
ENDBRANCH   7   9
ENDBRANCH   1   7
TORSDOF 9
ENDMDL
MODEL 12
REMARK VINA RESULT:    -7.742      2.225      6.618
REMARK INTER + INTRA:         -13.251
REMARK INTER:                 -12.251
REMARK INTRA:                  -1.000
REMARK UNBOUND:                -1.436
REMARK SMILES CCCCCCNc1nc(Nc2ccccc2C#N)c2cnn(C)c2n1
REMARK SMILES IDX 6 1 5 2 4 3 3 4 2 5 1 6 7 7 8 9 9 10 26 11 10 12 25 13 20 14
REMARK SMILES IDX 23 15 21 16 22 17 24 18 11 19 12 21 13 22 17 23 14 24 16 25
REMARK SMILES IDX 15 26 18 27 19 28
REMARK H PARENT 7 8 11 20
ROOT
ATOM      1  C   UNL     1       5.997  41.556  50.072  1.00  0.00     0.116 C 
ENDROOT
BRANCH   1   2
ATOM      2  C   UNL     1       5.764  41.496  48.559  1.00  0.00     0.021 C 
BRANCH   2   3
ATOM      3  C   UNL     1       4.435  40.813  48.231  1.00  0.00     0.002 C 
BRANCH   3   4
ATOM      4  C   UNL     1       4.151  40.847  46.727  1.00  0.00    -0.000 C 
BRANCH   4   5
ATOM      5  C   UNL     1       5.230  41.575  45.923  1.00  0.00    -0.003 C 
ATOM      6  C   UNL     1       5.252  41.191  44.451  1.00  0.00     0.004 C 
ENDBRANCH   4   5
ENDBRANCH   3   4
ENDBRANCH   2   3
ENDBRANCH   1   2
BRANCH   1   7
ATOM      7  N   UNL     1       4.761  41.788  50.798  1.00  0.00    -0.354 N 
ATOM      8  H   UNL     1       3.925  41.385  50.391  1.00  0.00     0.163 HD
BRANCH   7   9
ATOM      9  C   UNL     1       4.462  43.100  51.131  1.00  0.00     0.226 A 
ATOM     10  N   UNL     1       5.434  44.031  51.108  1.00  0.00    -0.195 NA
ATOM     11  N   UNL     1       3.181  43.322  51.448  1.00  0.00    -0.193 NA
ATOM     12  C   UNL     1       5.175  45.326  51.426  1.00  0.00     0.147 A 
ATOM     13  C   UNL     1       2.937  44.604  51.757  1.00  0.00     0.165 A 
ATOM     14  C   UNL     1       3.852  45.638  51.766  1.00  0.00     0.082 A 
ATOM     15  N   UNL     1       1.740  45.156  52.124  1.00  0.00    -0.250 N 
ATOM     16  C   UNL     1       3.099  46.769  52.144  1.00  0.00     0.149 A 
ATOM     17  N   UNL     1       1.810  46.486  52.364  1.00  0.00    -0.179 NA
ATOM     18  C   UNL     1       0.478  44.475  52.267  1.00  0.00     0.176 C 
BRANCH  12  19
ATOM     19  N   UNL     1       6.173  46.314  51.379  1.00  0.00    -0.338 N 
ATOM     20  H   UNL     1       5.913  47.107  50.807  1.00  0.00     0.168 HD
BRANCH  19  21
ATOM     21  C   UNL     1       7.442  46.404  51.995  1.00  0.00     0.058 A 
ATOM     22  C   UNL     1       8.631  46.127  51.303  1.00  0.00     0.027 A 
ATOM     23  C   UNL     1       7.563  46.837  53.337  1.00  0.00     0.076 A 
ATOM     24  C   UNL     1       9.884  46.258  51.913  1.00  0.00     0.002 A 
ATOM     25  C   UNL     1       8.823  46.967  53.947  1.00  0.00     0.021 A 
ATOM     26  C   UNL     1       9.981  46.677  53.234  1.00  0.00     0.002 A 
BRANCH  23  27
ATOM     27  C   UNL     1       6.401  47.156  54.115  1.00  0.00     0.101 C 
ATOM     28  N   UNL     1       5.438  47.378  54.723  1.00  0.00    -0.192 NA
ENDBRANCH  23  27
ENDBRANCH  19  21
ENDBRANCH  12  19
ENDBRANCH   7   9
ENDBRANCH   1   7
TORSDOF 9
ENDMDL
MODEL 13
REMARK VINA RESULT:    -7.733      2.256      6.279
REMARK INTER + INTRA:         -13.238
REMARK INTER:                 -12.255
REMARK INTRA:                  -0.983
REMARK UNBOUND:                -1.436
REMARK SMILES CCCCCCNc1nc(Nc2ccccc2C#N)c2cnn(C)c2n1
REMARK SMILES IDX 6 1 5 2 4 3 3 4 2 5 1 6 7 7 8 9 9 10 26 11 10 12 25 13 20 14
REMARK SMILES IDX 23 15 21 16 22 17 24 18 11 19 12 21 13 22 17 23 14 24 16 25
REMARK SMILES IDX 15 26 18 27 19 28
REMARK H PARENT 7 8 11 20
ROOT
ATOM      1  C   UNL     1       5.751  41.514  49.944  1.00  0.00     0.116 C 
ENDROOT
BRANCH   1   2
ATOM      2  C   UNL     1       5.256  41.138  48.545  1.00  0.00     0.021 C 
BRANCH   2   3
ATOM      3  C   UNL     1       3.869  40.495  48.603  1.00  0.00     0.002 C 
BRANCH   3   4
ATOM      4  C   UNL     1       3.455  39.946  47.236  1.00  0.00    -0.000 C 
BRANCH   4   5
ATOM      5  C   UNL     1       2.774  38.579  47.312  1.00  0.00    -0.003 C 
ATOM      6  C   UNL     1       3.148  37.649  46.168  1.00  0.00     0.004 C 
ENDBRANCH   4   5
ENDBRANCH   3   4
ENDBRANCH   2   3
ENDBRANCH   1   2
BRANCH   1   7
ATOM      7  N   UNL     1       4.655  41.883  50.822  1.00  0.00    -0.354 N 
ATOM      8  H   UNL     1       3.738  41.545  50.553  1.00  0.00     0.163 HD
BRANCH   7   9
ATOM      9  C   UNL     1       4.520  43.228  51.133  1.00  0.00     0.226 A 
ATOM     10  N   UNL     1       5.545  44.070  50.904  1.00  0.00    -0.195 NA
ATOM     11  N   UNL     1       3.332  43.570  51.645  1.00  0.00    -0.193 NA
ATOM     12  C   UNL     1       5.445  45.393  51.194  1.00  0.00     0.147 A 
ATOM     13  C   UNL     1       3.245  44.879  51.924  1.00  0.00     0.165 A 
ATOM     14  C   UNL     1       4.227  45.830  51.729  1.00  0.00     0.082 A 
ATOM     15  N   UNL     1       2.173  45.545  52.454  1.00  0.00    -0.250 N 
ATOM     16  C   UNL     1       3.639  47.035  52.169  1.00  0.00     0.149 A 
ATOM     17  N   UNL     1       2.387  46.872  52.611  1.00  0.00    -0.179 NA
ATOM     18  C   UNL     1       0.904  44.980  52.836  1.00  0.00     0.176 C 
BRANCH  12  19
ATOM     19  N   UNL     1       6.496  46.289  50.934  1.00  0.00    -0.338 N 
ATOM     20  H   UNL     1       6.327  46.867  50.120  1.00  0.00     0.168 HD
BRANCH  19  21
ATOM     21  C   UNL     1       7.714  46.537  51.606  1.00  0.00     0.058 A 
ATOM     22  C   UNL     1       7.808  47.440  52.676  1.00  0.00     0.027 A 
ATOM     23  C   UNL     1       8.889  45.833  51.253  1.00  0.00     0.076 A 
ATOM     24  C   UNL     1       9.011  47.649  53.359  1.00  0.00     0.002 A 
ATOM     25  C   UNL     1      10.097  46.043  51.940  1.00  0.00     0.021 A 
ATOM     26  C   UNL     1      10.156  46.952  52.992  1.00  0.00     0.002 A 
BRANCH  23  27
ATOM     27  C   UNL     1       8.881  44.880  50.181  1.00  0.00     0.101 C 
ATOM     28  N   UNL     1       8.834  44.091  49.331  1.00  0.00    -0.192 NA
ENDBRANCH  23  27
ENDBRANCH  19  21
ENDBRANCH  12  19
ENDBRANCH   7   9
ENDBRANCH   1   7
TORSDOF 9
ENDMDL
MODEL 14
REMARK VINA RESULT:    -7.707      1.756      6.695
REMARK INTER + INTRA:         -13.197
REMARK INTER:                 -12.272
REMARK INTRA:                  -0.926
REMARK UNBOUND:                -1.436
REMARK SMILES CCCCCCNc1nc(Nc2ccccc2C#N)c2cnn(C)c2n1
REMARK SMILES IDX 6 1 5 2 4 3 3 4 2 5 1 6 7 7 8 9 9 10 26 11 10 12 25 13 20 14
REMARK SMILES IDX 23 15 21 16 22 17 24 18 11 19 12 21 13 22 17 23 14 24 16 25
REMARK SMILES IDX 15 26 18 27 19 28
REMARK H PARENT 7 8 11 20
ROOT
ATOM      1  C   UNL     1       7.782  47.046  51.893  1.00  0.00     0.116 C 
ENDROOT
BRANCH   1   2
ATOM      2  C   UNL     1       9.231  47.533  51.814  1.00  0.00     0.021 C 
BRANCH   2   3
ATOM      3  C   UNL     1      10.112  46.817  52.840  1.00  0.00     0.002 C 
BRANCH   3   4
ATOM      4  C   UNL     1       9.432  46.761  54.210  1.00  0.00    -0.000 C 
BRANCH   4   5
ATOM      5  C   UNL     1       9.836  47.910  55.136  1.00  0.00    -0.003 C 
ATOM      6  C   UNL     1      10.927  47.536  56.127  1.00  0.00     0.004 C 
ENDBRANCH   4   5
ENDBRANCH   3   4
ENDBRANCH   2   3
ENDBRANCH   1   2
BRANCH   1   7
ATOM      7  N   UNL     1       7.457  46.141  50.805  1.00  0.00    -0.354 N 
ATOM      8  H   UNL     1       7.391  46.561  49.884  1.00  0.00     0.163 HD
BRANCH   7   9
ATOM      9  C   UNL     1       6.342  45.333  50.966  1.00  0.00     0.226 A 
ATOM     10  N   UNL     1       5.233  45.836  51.538  1.00  0.00    -0.195 NA
ATOM     11  N   UNL     1       6.483  44.083  50.511  1.00  0.00    -0.193 NA
ATOM     12  C   UNL     1       4.123  45.074  51.709  1.00  0.00     0.147 A 
ATOM     13  C   UNL     1       5.379  43.340  50.682  1.00  0.00     0.165 A 
ATOM     14  C   UNL     1       4.191  43.751  51.252  1.00  0.00     0.082 A 
ATOM     15  N   UNL     1       5.198  42.031  50.330  1.00  0.00    -0.250 N 
ATOM     16  C   UNL     1       3.360  42.613  51.185  1.00  0.00     0.149 A 
ATOM     17  N   UNL     1       3.963  41.559  50.624  1.00  0.00    -0.179 NA
ATOM     18  C   UNL     1       6.159  41.159  49.703  1.00  0.00     0.176 C 
BRANCH  12  19
ATOM     19  N   UNL     1       2.948  45.593  52.278  1.00  0.00    -0.338 N 
ATOM     20  H   UNL     1       2.462  46.232  51.662  1.00  0.00     0.168 HD
BRANCH  19  21
ATOM     21  C   UNL     1       2.324  45.369  53.527  1.00  0.00     0.058 A 
ATOM     22  C   UNL     1       1.191  44.552  53.662  1.00  0.00     0.027 A 
ATOM     23  C   UNL     1       2.861  45.927  54.711  1.00  0.00     0.076 A 
ATOM     24  C   UNL     1       0.606  44.307  54.910  1.00  0.00     0.002 A 
ATOM     25  C   UNL     1       2.272  45.679  55.963  1.00  0.00     0.021 A 
ATOM     26  C   UNL     1       1.145  44.870  56.060  1.00  0.00     0.002 A 
BRANCH  23  27
ATOM     27  C   UNL     1       4.026  46.762  54.668  1.00  0.00     0.101 C 
ATOM     28  N   UNL     1       4.941  47.476  54.642  1.00  0.00    -0.192 NA
ENDBRANCH  23  27
ENDBRANCH  19  21
ENDBRANCH  12  19
ENDBRANCH   7   9
ENDBRANCH   1   7
TORSDOF 9
ENDMDL
MODEL 15
REMARK VINA RESULT:    -7.662      2.284      6.794
REMARK INTER + INTRA:         -13.129
REMARK INTER:                 -12.935
REMARK INTRA:                  -0.194
REMARK UNBOUND:                -1.436
REMARK SMILES CCCCCCNc1nc(Nc2ccccc2C#N)c2cnn(C)c2n1
REMARK SMILES IDX 6 1 5 2 4 3 3 4 2 5 1 6 7 7 8 9 9 10 26 11 10 12 25 13 20 14
REMARK SMILES IDX 23 15 21 16 22 17 24 18 11 19 12 21 13 22 17 23 14 24 16 25
REMARK SMILES IDX 15 26 18 27 19 28
REMARK H PARENT 7 8 11 20
ROOT
ATOM      1  C   UNL     1       6.842  47.028  53.072  1.00  0.00     0.116 C 
ENDROOT
BRANCH   1   2
ATOM      2  C   UNL     1       7.843  47.912  52.323  1.00  0.00     0.021 C 
BRANCH   2   3
ATOM      3  C   UNL     1       9.176  47.188  52.120  1.00  0.00     0.002 C 
BRANCH   3   4
ATOM      4  C   UNL     1       9.709  46.629  53.442  1.00  0.00    -0.000 C 
BRANCH   4   5
ATOM      5  C   UNL     1       9.512  47.577  54.625  1.00  0.00    -0.003 C 
ATOM      6  C   UNL     1      10.661  47.553  55.621  1.00  0.00     0.004 C 
ENDBRANCH   4   5
ENDBRANCH   3   4
ENDBRANCH   2   3
ENDBRANCH   1   2
BRANCH   1   7
ATOM      7  N   UNL     1       5.599  46.880  52.336  1.00  0.00    -0.354 N 
ATOM      8  H   UNL     1       4.818  47.436  52.667  1.00  0.00     0.163 HD
BRANCH   7   9
ATOM      9  C   UNL     1       5.129  45.590  52.144  1.00  0.00     0.226 A 
ATOM     10  N   UNL     1       4.079  45.150  52.862  1.00  0.00    -0.195 NA
ATOM     11  N   UNL     1       5.788  44.883  51.218  1.00  0.00    -0.193 NA
ATOM     12  C   UNL     1       3.591  43.894  52.697  1.00  0.00     0.147 A 
ATOM     13  C   UNL     1       5.295  43.646  51.061  1.00  0.00     0.165 A 
ATOM     14  C   UNL     1       4.227  43.093  51.740  1.00  0.00     0.082 A 
ATOM     15  N   UNL     1       5.741  42.678  50.203  1.00  0.00    -0.250 N 
ATOM     16  C   UNL     1       4.111  41.791  51.207  1.00  0.00     0.149 A 
ATOM     17  N   UNL     1       5.028  41.529  50.269  1.00  0.00    -0.179 NA
ATOM     18  C   UNL     1       6.845  42.775  49.283  1.00  0.00     0.176 C 
BRANCH  12  19
ATOM     19  N   UNL     1       2.479  43.430  53.419  1.00  0.00    -0.338 N 
ATOM     20  H   UNL     1       2.272  42.456  53.239  1.00  0.00     0.168 HD
BRANCH  19  21
ATOM     21  C   UNL     1       1.626  44.065  54.351  1.00  0.00     0.058 A 
ATOM     22  C   UNL     1       2.107  44.968  55.311  1.00  0.00     0.027 A 
ATOM     23  C   UNL     1       0.228  43.849  54.312  1.00  0.00     0.076 A 
ATOM     24  C   UNL     1       1.248  45.619  56.203  1.00  0.00     0.002 A 
ATOM     25  C   UNL     1      -0.633  44.504  55.209  1.00  0.00     0.021 A 
ATOM     26  C   UNL     1      -0.122  45.388  56.154  1.00  0.00     0.002 A 
BRANCH  23  27
ATOM     27  C   UNL     1      -0.352  42.954  53.354  1.00  0.00     0.101 C 
ATOM     28  N   UNL     1      -0.828  42.197  52.613  1.00  0.00    -0.192 NA
ENDBRANCH  23  27
ENDBRANCH  19  21
ENDBRANCH  12  19
ENDBRANCH   7   9
ENDBRANCH   1   7
TORSDOF 9
ENDMDL
MODEL 16
REMARK VINA RESULT:    -7.635      2.312      5.775
REMARK INTER + INTRA:         -13.087
REMARK INTER:                 -12.385
REMARK INTRA:                  -0.702
REMARK UNBOUND:                -1.436
REMARK SMILES CCCCCCNc1nc(Nc2ccccc2C#N)c2cnn(C)c2n1
REMARK SMILES IDX 6 1 5 2 4 3 3 4 2 5 1 6 7 7 8 9 9 10 26 11 10 12 25 13 20 14
REMARK SMILES IDX 23 15 21 16 22 17 24 18 11 19 12 21 13 22 17 23 14 24 16 25
REMARK SMILES IDX 15 26 18 27 19 28
REMARK H PARENT 7 8 11 20
ROOT
ATOM      1  C   UNL     1       5.622  45.314  55.309  1.00  0.00     0.116 C 
ENDROOT
BRANCH   1   2
ATOM      2  C   UNL     1       6.191  46.504  54.530  1.00  0.00     0.021 C 
BRANCH   2   3
ATOM      3  C   UNL     1       7.202  46.044  53.478  1.00  0.00     0.002 C 
BRANCH   3   4
ATOM      4  C   UNL     1       8.202  47.154  53.147  1.00  0.00    -0.000 C 
BRANCH   4   5
ATOM      5  C   UNL     1       9.651  46.780  53.465  1.00  0.00    -0.003 C 
ATOM      6  C   UNL     1      10.132  47.303  54.810  1.00  0.00     0.004 C 
ENDBRANCH   4   5
ENDBRANCH   3   4
ENDBRANCH   2   3
ENDBRANCH   1   2
BRANCH   1   7
ATOM      7  N   UNL     1       4.239  45.533  55.691  1.00  0.00    -0.354 N 
ATOM      8  H   UNL     1       4.008  45.329  56.657  1.00  0.00     0.163 HD
BRANCH   7   9
ATOM      9  C   UNL     1       3.265  44.938  54.904  1.00  0.00     0.226 A 
ATOM     10  N   UNL     1       3.606  44.392  53.722  1.00  0.00    -0.195 NA
ATOM     11  N   UNL     1       2.031  44.958  55.423  1.00  0.00    -0.193 NA
ATOM     12  C   UNL     1       2.678  43.798  52.928  1.00  0.00     0.147 A 
ATOM     13  C   UNL     1       1.125  44.367  54.632  1.00  0.00     0.165 A 
ATOM     14  C   UNL     1       1.361  43.776  53.407  1.00  0.00     0.082 A 
ATOM     15  N   UNL     1      -0.215  44.223  54.870  1.00  0.00    -0.250 N 
ATOM     16  C   UNL     1       0.097  43.301  52.998  1.00  0.00     0.149 A 
ATOM     17  N   UNL     1      -0.870  43.567  53.883  1.00  0.00    -0.179 NA
ATOM     18  C   UNL     1      -0.947  44.684  56.022  1.00  0.00     0.176 C 
BRANCH  12  19
ATOM     19  N   UNL     1       3.023  43.199  51.705  1.00  0.00    -0.338 N 
ATOM     20  H   UNL     1       2.216  42.892  51.176  1.00  0.00     0.168 HD
BRANCH  19  21
ATOM     21  C   UNL     1       4.273  42.973  51.084  1.00  0.00     0.058 A 
ATOM     22  C   UNL     1       4.750  41.681  50.813  1.00  0.00     0.027 A 
ATOM     23  C   UNL     1       5.073  44.059  50.659  1.00  0.00     0.076 A 
ATOM     24  C   UNL     1       5.972  41.471  50.162  1.00  0.00     0.002 A 
ATOM     25  C   UNL     1       6.300  43.845  50.006  1.00  0.00     0.021 A 
ATOM     26  C   UNL     1       6.747  42.551  49.759  1.00  0.00     0.002 A 
BRANCH  23  27
ATOM     27  C   UNL     1       4.656  45.413  50.882  1.00  0.00     0.101 C 
ATOM     28  N   UNL     1       4.278  46.492  51.082  1.00  0.00    -0.192 NA
ENDBRANCH  23  27
ENDBRANCH  19  21
ENDBRANCH  12  19
ENDBRANCH   7   9
ENDBRANCH   1   7
TORSDOF 9
ENDMDL
MODEL 17
REMARK VINA RESULT:    -7.608      2.082      6.321
REMARK INTER + INTRA:         -13.047
REMARK INTER:                 -11.997
REMARK INTRA:                  -1.050
REMARK UNBOUND:                -1.436
REMARK SMILES CCCCCCNc1nc(Nc2ccccc2C#N)c2cnn(C)c2n1
REMARK SMILES IDX 6 1 5 2 4 3 3 4 2 5 1 6 7 7 8 9 9 10 26 11 10 12 25 13 20 14
REMARK SMILES IDX 23 15 21 16 22 17 24 18 11 19 12 21 13 22 17 23 14 24 16 25
REMARK SMILES IDX 15 26 18 27 19 28
REMARK H PARENT 7 8 11 20
ROOT
ATOM      1  C   UNL     1       6.237  47.264  53.420  1.00  0.00     0.116 C 
ENDROOT
BRANCH   1   2
ATOM      2  C   UNL     1       7.422  46.584  54.111  1.00  0.00     0.021 C 
BRANCH   2   3
ATOM      3  C   UNL     1       8.608  47.541  54.244  1.00  0.00     0.002 C 
BRANCH   3   4
ATOM      4  C   UNL     1       9.866  46.956  53.598  1.00  0.00    -0.000 C 
BRANCH   4   5
ATOM      5  C   UNL     1       9.762  46.826  52.077  1.00  0.00    -0.003 C 
ATOM      6  C   UNL     1      10.567  45.667  51.510  1.00  0.00     0.004 C 
ENDBRANCH   4   5
ENDBRANCH   3   4
ENDBRANCH   2   3
ENDBRANCH   1   2
BRANCH   1   7
ATOM      7  N   UNL     1       6.055  46.782  52.063  1.00  0.00    -0.354 N 
ATOM      8  H   UNL     1       5.545  47.396  51.438  1.00  0.00     0.163 HD
BRANCH   7   9
ATOM      9  C   UNL     1       5.523  45.510  51.910  1.00  0.00     0.226 A 
ATOM     10  N   UNL     1       4.549  45.093  52.740  1.00  0.00    -0.195 NA
ATOM     11  N   UNL     1       6.046  44.798  50.905  1.00  0.00    -0.193 NA
ATOM     12  C   UNL     1       4.003  43.855  52.616  1.00  0.00     0.147 A 
ATOM     13  C   UNL     1       5.497  43.580  50.791  1.00  0.00     0.165 A 
ATOM     14  C   UNL     1       4.497  43.050  51.582  1.00  0.00     0.082 A 
ATOM     15  N   UNL     1       5.808  42.613  49.874  1.00  0.00    -0.250 N 
ATOM     16  C   UNL     1       4.276  41.762  51.049  1.00  0.00     0.149 A 
ATOM     17  N   UNL     1       5.069  41.486  50.008  1.00  0.00    -0.179 NA
ATOM     18  C   UNL     1       6.801  42.691  48.834  1.00  0.00     0.176 C 
BRANCH  12  19
ATOM     19  N   UNL     1       2.967  43.416  53.456  1.00  0.00    -0.338 N 
ATOM     20  H   UNL     1       3.304  43.055  54.340  1.00  0.00     0.168 HD
BRANCH  19  21
ATOM     21  C   UNL     1       1.562  43.407  53.298  1.00  0.00     0.058 A 
ATOM     22  C   UNL     1       0.927  42.667  52.289  1.00  0.00     0.027 A 
ATOM     23  C   UNL     1       0.731  44.113  54.200  1.00  0.00     0.076 A 
ATOM     24  C   UNL     1      -0.467  42.636  52.166  1.00  0.00     0.002 A 
ATOM     25  C   UNL     1      -0.669  44.079  54.075  1.00  0.00     0.021 A 
ATOM     26  C   UNL     1      -1.266  43.342  53.058  1.00  0.00     0.002 A 
BRANCH  23  27
ATOM     27  C   UNL     1       1.294  44.883  55.271  1.00  0.00     0.101 C 
ATOM     28  N   UNL     1       1.710  45.498  56.163  1.00  0.00    -0.192 NA
ENDBRANCH  23  27
ENDBRANCH  19  21
ENDBRANCH  12  19
ENDBRANCH   7   9
ENDBRANCH   1   7
TORSDOF 9
ENDMDL
MODEL 18
REMARK VINA RESULT:    -7.577      1.832      5.363
REMARK INTER + INTRA:         -13.000
REMARK INTER:                 -11.756
REMARK INTRA:                  -1.243
REMARK UNBOUND:                -1.436
REMARK SMILES CCCCCCNc1nc(Nc2ccccc2C#N)c2cnn(C)c2n1
REMARK SMILES IDX 6 1 5 2 4 3 3 4 2 5 1 6 7 7 8 9 9 10 26 11 10 12 25 13 20 14
REMARK SMILES IDX 23 15 21 16 22 17 24 18 11 19 12 21 13 22 17 23 14 24 16 25
REMARK SMILES IDX 15 26 18 27 19 28
REMARK H PARENT 7 8 11 20
ROOT
ATOM      1  C   UNL     1       2.613  44.963  54.441  1.00  0.00     0.116 C 
ENDROOT
BRANCH   1   2
ATOM      2  C   UNL     1       1.124  45.230  54.677  1.00  0.00     0.021 C 
BRANCH   2   3
ATOM      3  C   UNL     1       0.259  44.142  54.040  1.00  0.00     0.002 C 
BRANCH   3   4
ATOM      4  C   UNL     1      -0.717  44.735  53.021  1.00  0.00    -0.000 C 
BRANCH   4   5
ATOM      5  C   UNL     1      -0.219  44.640  51.578  1.00  0.00    -0.003 C 
ATOM      6  C   UNL     1       0.263  43.249  51.192  1.00  0.00     0.004 C 
ENDBRANCH   4   5
ENDBRANCH   3   4
ENDBRANCH   2   3
ENDBRANCH   1   2
BRANCH   1   7
ATOM      7  N   UNL     1       2.824  43.807  53.589  1.00  0.00    -0.354 N 
ATOM      8  H   UNL     1       2.959  42.922  54.066  1.00  0.00     0.163 HD
BRANCH   7   9
ATOM      9  C   UNL     1       3.815  43.905  52.624  1.00  0.00     0.226 A 
ATOM     10  N   UNL     1       4.618  44.986  52.603  1.00  0.00    -0.195 NA
ATOM     11  N   UNL     1       3.884  42.869  51.780  1.00  0.00    -0.193 NA
ATOM     12  C   UNL     1       5.600  45.112  51.674  1.00  0.00     0.147 A 
ATOM     13  C   UNL     1       4.860  43.004  50.870  1.00  0.00     0.165 A 
ATOM     14  C   UNL     1       5.738  44.064  50.756  1.00  0.00     0.082 A 
ATOM     15  N   UNL     1       5.190  42.129  49.871  1.00  0.00    -0.250 N 
ATOM     16  C   UNL     1       6.559  43.720  49.661  1.00  0.00     0.149 A 
ATOM     17  N   UNL     1       6.234  42.543  49.116  1.00  0.00    -0.179 NA
ATOM     18  C   UNL     1       4.554  40.871  49.575  1.00  0.00     0.176 C 
BRANCH  12  19
ATOM     19  N   UNL     1       6.464  46.221  51.656  1.00  0.00    -0.338 N 
ATOM     20  H   UNL     1       6.093  46.999  51.126  1.00  0.00     0.168 HD
BRANCH  19  21
ATOM     21  C   UNL     1       7.725  46.445  52.254  1.00  0.00     0.058 A 
ATOM     22  C   UNL     1       8.929  46.234  51.564  1.00  0.00     0.027 A 
ATOM     23  C   UNL     1       7.818  46.949  53.573  1.00  0.00     0.076 A 
ATOM     24  C   UNL     1      10.170  46.497  52.155  1.00  0.00     0.002 A 
ATOM     25  C   UNL     1       9.066  47.212  54.164  1.00  0.00     0.021 A 
ATOM     26  C   UNL     1      10.241  46.985  53.453  1.00  0.00     0.002 A 
BRANCH  23  27
ATOM     27  C   UNL     1       6.639  47.208  54.347  1.00  0.00     0.101 C 
ATOM     28  N   UNL     1       5.658  47.394  54.940  1.00  0.00    -0.192 NA
ENDBRANCH  23  27
ENDBRANCH  19  21
ENDBRANCH  12  19
ENDBRANCH   7   9
ENDBRANCH   1   7
TORSDOF 9
ENDMDL
MODEL 19
REMARK VINA RESULT:    -7.553      1.906      5.105
REMARK INTER + INTRA:         -12.962
REMARK INTER:                 -11.841
REMARK INTRA:                  -1.122
REMARK UNBOUND:                -1.436
REMARK SMILES CCCCCCNc1nc(Nc2ccccc2C#N)c2cnn(C)c2n1
REMARK SMILES IDX 6 1 5 2 4 3 3 4 2 5 1 6 7 7 8 9 9 10 26 11 10 12 25 13 20 14
REMARK SMILES IDX 23 15 21 16 22 17 24 18 11 19 12 21 13 22 17 23 14 24 16 25
REMARK SMILES IDX 15 26 18 27 19 28
REMARK H PARENT 7 8 11 20
ROOT
ATOM      1  C   UNL     1       2.514  45.515  54.228  1.00  0.00     0.116 C 
ENDROOT
BRANCH   1   2
ATOM      2  C   UNL     1       1.009  45.455  53.953  1.00  0.00     0.021 C 
BRANCH   2   3
ATOM      3  C   UNL     1       0.303  44.525  54.942  1.00  0.00     0.002 C 
BRANCH   3   4
ATOM      4  C   UNL     1      -0.629  43.551  54.217  1.00  0.00    -0.000 C 
BRANCH   4   5
ATOM      5  C   UNL     1       0.113  42.417  53.508  1.00  0.00    -0.003 C 
ATOM      6  C   UNL     1       0.253  42.626  52.008  1.00  0.00     0.004 C 
ENDBRANCH   4   5
ENDBRANCH   3   4
ENDBRANCH   2   3
ENDBRANCH   1   2
BRANCH   1   7
ATOM      7  N   UNL     1       3.154  44.230  54.008  1.00  0.00    -0.354 N 
ATOM      8  H   UNL     1       3.626  43.826  54.809  1.00  0.00     0.163 HD
BRANCH   7   9
ATOM      9  C   UNL     1       4.021  44.133  52.931  1.00  0.00     0.226 A 
ATOM     10  N   UNL     1       4.945  45.091  52.731  1.00  0.00    -0.195 NA
ATOM     11  N   UNL     1       3.853  43.045  52.169  1.00  0.00    -0.193 NA
ATOM     12  C   UNL     1       5.812  45.025  51.688  1.00  0.00     0.147 A 
ATOM     13  C   UNL     1       4.717  42.990  51.145  1.00  0.00     0.165 A 
ATOM     14  C   UNL     1       5.700  43.912  50.847  1.00  0.00     0.082 A 
ATOM     15  N   UNL     1       4.807  42.016  50.187  1.00  0.00    -0.250 N 
ATOM     16  C   UNL     1       6.329  43.391  49.695  1.00  0.00     0.149 A 
ATOM     17  N   UNL     1       5.792  42.236  49.286  1.00  0.00    -0.179 NA
ATOM     18  C   UNL     1       3.985  40.839  50.067  1.00  0.00     0.176 C 
BRANCH  12  19
ATOM     19  N   UNL     1       6.799  46.004  51.483  1.00  0.00    -0.338 N 
ATOM     20  H   UNL     1       6.695  46.488  50.600  1.00  0.00     0.168 HD
BRANCH  19  21
ATOM     21  C   UNL     1       7.880  46.438  52.285  1.00  0.00     0.058 A 
ATOM     22  C   UNL     1       7.692  47.230  53.428  1.00  0.00     0.027 A 
ATOM     23  C   UNL     1       9.204  46.038  51.988  1.00  0.00     0.076 A 
ATOM     24  C   UNL     1       8.766  47.622  54.235  1.00  0.00     0.002 A 
ATOM     25  C   UNL     1      10.281  46.432  52.800  1.00  0.00     0.021 A 
ATOM     26  C   UNL     1      10.061  47.224  53.923  1.00  0.00     0.002 A 
BRANCH  23  27
ATOM     27  C   UNL     1       9.486  45.216  50.847  1.00  0.00     0.101 C 
ATOM     28  N   UNL     1       9.682  44.519  49.940  1.00  0.00    -0.192 NA
ENDBRANCH  23  27
ENDBRANCH  19  21
ENDBRANCH  12  19
ENDBRANCH   7   9
ENDBRANCH   1   7
TORSDOF 9
ENDMDL
MODEL 20
REMARK VINA RESULT:    -7.302      1.963      5.382
REMARK INTER + INTRA:         -12.579
REMARK INTER:                 -11.689
REMARK INTRA:                  -0.890
REMARK UNBOUND:                -1.436
REMARK SMILES CCCCCCNc1nc(Nc2ccccc2C#N)c2cnn(C)c2n1
REMARK SMILES IDX 6 1 5 2 4 3 3 4 2 5 1 6 7 7 8 9 9 10 26 11 10 12 25 13 20 14
REMARK SMILES IDX 23 15 21 16 22 17 24 18 11 19 12 21 13 22 17 23 14 24 16 25
REMARK SMILES IDX 15 26 18 27 19 28
REMARK H PARENT 7 8 11 20
ROOT
ATOM      1  C   UNL     1       1.839  43.384  53.340  1.00  0.00     0.116 C 
ENDROOT
BRANCH   1   2
ATOM      2  C   UNL     1       0.748  43.795  54.333  1.00  0.00     0.021 C 
BRANCH   2   3
ATOM      3  C   UNL     1       1.211  44.958  55.212  1.00  0.00     0.002 C 
BRANCH   3   4
ATOM      4  C   UNL     1       0.403  45.026  56.511  1.00  0.00    -0.000 C 
BRANCH   4   5
ATOM      5  C   UNL     1       0.901  46.100  57.479  1.00  0.00    -0.003 C 
ATOM      6  C   UNL     1      -0.201  47.014  57.992  1.00  0.00     0.004 C 
ENDBRANCH   4   5
ENDBRANCH   3   4
ENDBRANCH   2   3
ENDBRANCH   1   2
BRANCH   1   7
ATOM      7  N   UNL     1       3.055  44.156  53.525  1.00  0.00    -0.354 N 
ATOM      8  H   UNL     1       2.928  45.139  53.740  1.00  0.00     0.163 HD
BRANCH   7   9
ATOM      9  C   UNL     1       4.013  44.076  52.526  1.00  0.00     0.226 A 
ATOM     10  N   UNL     1       4.937  45.048  52.411  1.00  0.00    -0.195 NA
ATOM     11  N   UNL     1       3.926  42.990  51.748  1.00  0.00    -0.193 NA
ATOM     12  C   UNL     1       5.891  44.999  51.446  1.00  0.00     0.147 A 
ATOM     13  C   UNL     1       4.875  42.952  50.802  1.00  0.00     0.165 A 
ATOM     14  C   UNL     1       5.867  43.889  50.593  1.00  0.00     0.082 A 
ATOM     15  N   UNL     1       5.060  41.985  49.851  1.00  0.00    -0.250 N 
ATOM     16  C   UNL     1       6.599  43.383  49.497  1.00  0.00     0.149 A 
ATOM     17  N   UNL     1       6.116  42.223  49.039  1.00  0.00    -0.179 NA
ATOM     18  C   UNL     1       4.268  40.798  49.656  1.00  0.00     0.176 C 
BRANCH  12  19
ATOM     19  N   UNL     1       6.878  45.992  51.330  1.00  0.00    -0.338 N 
ATOM     20  H   UNL     1       6.836  46.487  50.448  1.00  0.00     0.168 HD
BRANCH  19  21
ATOM     21  C   UNL     1       7.888  46.428  52.218  1.00  0.00     0.058 A 
ATOM     22  C   UNL     1       7.606  47.218  53.343  1.00  0.00     0.027 A 
ATOM     23  C   UNL     1       9.233  46.031  52.030  1.00  0.00     0.076 A 
ATOM     24  C   UNL     1       8.609  47.611  54.236  1.00  0.00     0.002 A 
ATOM     25  C   UNL     1      10.239  46.427  52.929  1.00  0.00     0.021 A 
ATOM     26  C   UNL     1       9.926  47.217  54.030  1.00  0.00     0.002 A 
BRANCH  23  27
ATOM     27  C   UNL     1       9.610  45.211  50.916  1.00  0.00     0.101 C 
ATOM     28  N   UNL     1       9.907  44.509  50.041  1.00  0.00    -0.192 NA
ENDBRANCH  23  27
ENDBRANCH  19  21
ENDBRANCH  12  19
ENDBRANCH   7   9
ENDBRANCH   1   7
TORSDOF 9
ENDMDL
