MODEL 1
REMARK VINA RESULT:    -8.894      0.000      0.000
REMARK INTER + INTRA:         -12.936
REMARK INTER:                 -12.013
REMARK INTRA:                  -0.923
REMARK UNBOUND:                -0.923
REMARK SMILES Cn1ncc2c(Nc3ccc(F)c(F)c3F)nc(NCC[NH+](C)C)nc21
REMARK SMILES IDX 19 1 20 3 21 4 22 5 23 6 24 7 18 9 17 10 25 11 6 12 26 13
REMARK SMILES IDX 5 14 2 15 4 16 3 17 1 18 7 19 8 21 9 22 15 23 10 24 13 25
REMARK SMILES IDX 11 26 16 27 14 28 12 29
REMARK H PARENT 19 2 22 8 7 20
ROOT
ATOM      1  N   UNL     1       4.596  47.015  54.971  1.00  0.00    -0.348 N 
ATOM      2  H   UNL     1       4.004  47.515  54.303  1.00  0.00     0.163 HD
ENDROOT
BRANCH   1   3
ATOM      3  C   UNL     1       4.012  45.791  55.490  1.00  0.00     0.177 C 
BRANCH   3   4
ATOM      4  C   UNL     1       2.530  45.667  55.081  1.00  0.00     0.283 C 
BRANCH   4   5
ATOM      5  N   UNL     1       2.318  45.108  53.681  1.00  0.00    -0.338 N 
ATOM      6  C   UNL     1       1.865  46.140  52.687  1.00  0.00     0.332 C 
ATOM      7  C   UNL     1       1.483  43.861  53.642  1.00  0.00     0.332 C 
ATOM      8  H   UNL     1       3.257  44.821  53.375  1.00  0.00     0.347 HD
ENDBRANCH   4   5
ENDBRANCH   3   4
ENDBRANCH   1   3
BRANCH   1   9
ATOM      9  C   UNL     1       5.767  46.821  54.239  1.00  0.00     0.226 A 
ATOM     10  N   UNL     1       5.571  46.242  53.049  1.00  0.00    -0.195 NA
ATOM     11  N   UNL     1       6.948  47.188  54.759  1.00  0.00    -0.193 NA
ATOM     12  C   UNL     1       6.616  45.942  52.238  1.00  0.00     0.147 A 
ATOM     13  C   UNL     1       7.969  46.936  53.919  1.00  0.00     0.165 A 
ATOM     14  C   UNL     1       7.886  46.330  52.677  1.00  0.00     0.082 A 
ATOM     15  N   UNL     1       9.295  47.221  54.105  1.00  0.00    -0.250 N 
ATOM     16  C   UNL     1       9.219  46.275  52.221  1.00  0.00     0.149 A 
ATOM     17  N   UNL     1      10.083  46.814  53.086  1.00  0.00    -0.179 NA
ATOM     18  C   UNL     1       9.897  47.887  55.232  1.00  0.00     0.176 C 
BRANCH  12  19
ATOM     19  N   UNL     1       6.408  45.320  51.001  1.00  0.00    -0.337 N 
ATOM     20  H   UNL     1       6.723  45.848  50.198  1.00  0.00     0.168 HD
BRANCH  19  21
ATOM     21  C   UNL     1       5.788  44.091  50.702  1.00  0.00     0.079 A 
ATOM     22  C   UNL     1       4.498  43.858  51.217  1.00  0.00     0.032 A 
ATOM     23  C   UNL     1       6.404  43.048  49.984  1.00  0.00     0.185 A 
ATOM     24  C   UNL     1       3.851  42.633  51.018  1.00  0.00     0.045 A 
ATOM     25  C   UNL     1       5.760  41.831  49.789  1.00  0.00     0.196 A 
ATOM     26  C   UNL     1       4.490  41.626  50.307  1.00  0.00     0.162 A 
ATOM     27  F   UNL     1       7.604  43.223  49.407  1.00  0.00    -0.201 F 
ATOM     28  F   UNL     1       6.367  40.858  49.092  1.00  0.00    -0.200 F 
ATOM     29  F   UNL     1       3.867  40.454  50.122  1.00  0.00    -0.204 F 
ENDBRANCH  19  21
ENDBRANCH  12  19
ENDBRANCH   1   9
TORSDOF 6
ENDMDL
MODEL 2
REMARK VINA RESULT:    -8.774      2.606      6.477
REMARK INTER + INTRA:         -12.775
REMARK INTER:                 -11.839
REMARK INTRA:                  -0.935
REMARK UNBOUND:                -0.923
REMARK SMILES Cn1ncc2c(Nc3ccc(F)c(F)c3F)nc(NCC[NH+](C)C)nc21
REMARK SMILES IDX 19 1 20 3 21 4 22 5 23 6 24 7 18 9 17 10 25 11 6 12 26 13
REMARK SMILES IDX 5 14 2 15 4 16 3 17 1 18 7 19 8 21 9 22 15 23 10 24 13 25
REMARK SMILES IDX 11 26 16 27 14 28 12 29
REMARK H PARENT 19 2 22 8 7 20
ROOT
ATOM      1  N   UNL     1       4.007  41.517  51.151  1.00  0.00    -0.348 N 
ATOM      2  H   UNL     1       3.162  41.400  50.587  1.00  0.00     0.163 HD
ENDROOT
BRANCH   1   3
ATOM      3  C   UNL     1       5.248  41.405  50.405  1.00  0.00     0.177 C 
BRANCH   3   4
ATOM      4  C   UNL     1       4.974  41.079  48.923  1.00  0.00     0.283 C 
BRANCH   4   5
ATOM      5  N   UNL     1       6.036  41.601  47.966  1.00  0.00    -0.338 N 
ATOM      6  C   UNL     1       6.745  42.827  48.468  1.00  0.00     0.332 C 
ATOM      7  C   UNL     1       5.562  41.748  46.549  1.00  0.00     0.332 C 
ATOM      8  H   UNL     1       6.747  40.858  47.943  1.00  0.00     0.347 HD
ENDBRANCH   4   5
ENDBRANCH   3   4
ENDBRANCH   1   3
BRANCH   1   9
ATOM      9  C   UNL     1       3.803  42.768  51.733  1.00  0.00     0.226 A 
ATOM     10  N   UNL     1       4.698  43.690  51.360  1.00  0.00    -0.195 NA
ATOM     11  N   UNL     1       2.792  42.947  52.597  1.00  0.00    -0.193 NA
ATOM     12  C   UNL     1       4.664  44.945  51.874  1.00  0.00     0.147 A 
ATOM     13  C   UNL     1       2.738  44.212  53.055  1.00  0.00     0.165 A 
ATOM     14  C   UNL     1       3.616  45.238  52.750  1.00  0.00     0.082 A 
ATOM     15  N   UNL     1       1.815  44.753  53.909  1.00  0.00    -0.250 N 
ATOM     16  C   UNL     1       3.144  46.337  53.497  1.00  0.00     0.149 A 
ATOM     17  N   UNL     1       2.050  46.049  54.206  1.00  0.00    -0.179 NA
ATOM     18  C   UNL     1       0.669  44.098  54.488  1.00  0.00     0.176 C 
BRANCH  12  19
ATOM     19  N   UNL     1       5.614  45.901  51.494  1.00  0.00    -0.337 N 
ATOM     20  H   UNL     1       5.374  46.439  50.671  1.00  0.00     0.168 HD
BRANCH  19  21
ATOM     21  C   UNL     1       6.871  46.197  52.056  1.00  0.00     0.079 A 
ATOM     22  C   UNL     1       6.903  46.767  53.343  1.00  0.00     0.032 A 
ATOM     23  C   UNL     1       8.097  46.030  51.384  1.00  0.00     0.185 A 
ATOM     24  C   UNL     1       8.111  47.150  53.935  1.00  0.00     0.045 A 
ATOM     25  C   UNL     1       9.298  46.413  51.973  1.00  0.00     0.196 A 
ATOM     26  C   UNL     1       9.302  46.973  53.241  1.00  0.00     0.162 A 
ATOM     27  F   UNL     1       8.150  45.432  50.183  1.00  0.00    -0.201 F 
ATOM     28  F   UNL     1      10.452  46.234  51.314  1.00  0.00    -0.200 F 
ATOM     29  F   UNL     1      10.456  47.345  53.812  1.00  0.00    -0.204 F 
ENDBRANCH  19  21
ENDBRANCH  12  19
ENDBRANCH   1   9
TORSDOF 6
ENDMDL
MODEL 3
REMARK VINA RESULT:    -8.676      2.536      5.653
REMARK INTER + INTRA:         -12.642
REMARK INTER:                 -11.638
REMARK INTRA:                  -1.004
REMARK UNBOUND:                -0.923
REMARK SMILES Cn1ncc2c(Nc3ccc(F)c(F)c3F)nc(NCC[NH+](C)C)nc21
REMARK SMILES IDX 19 1 20 3 21 4 22 5 23 6 24 7 18 9 17 10 25 11 6 12 26 13
REMARK SMILES IDX 5 14 2 15 4 16 3 17 1 18 7 19 8 21 9 22 15 23 10 24 13 25
REMARK SMILES IDX 11 26 16 27 14 28 12 29
REMARK H PARENT 19 2 22 8 7 20
ROOT
ATOM      1  N   UNL     1       2.750  43.678  53.403  1.00  0.00    -0.348 N 
ATOM      2  H   UNL     1       3.182  43.101  54.130  1.00  0.00     0.163 HD
ENDROOT
BRANCH   1   3
ATOM      3  C   UNL     1       2.317  44.988  53.854  1.00  0.00     0.177 C 
BRANCH   3   4
ATOM      4  C   UNL     1       2.644  45.196  55.347  1.00  0.00     0.283 C 
BRANCH   4   5
ATOM      5  N   UNL     1       3.912  45.999  55.599  1.00  0.00    -0.338 N 
ATOM      6  C   UNL     1       4.076  47.167  54.668  1.00  0.00     0.332 C 
ATOM      7  C   UNL     1       5.155  45.163  55.702  1.00  0.00     0.332 C 
ATOM      8  H   UNL     1       3.775  46.406  56.534  1.00  0.00     0.347 HD
ENDBRANCH   4   5
ENDBRANCH   3   4
ENDBRANCH   1   3
BRANCH   1   9
ATOM      9  C   UNL     1       3.743  43.711  52.425  1.00  0.00     0.226 A 
ATOM     10  N   UNL     1       4.516  44.802  52.476  1.00  0.00    -0.195 NA
ATOM     11  N   UNL     1       3.837  42.713  51.533  1.00  0.00    -0.193 NA
ATOM     12  C   UNL     1       5.498  45.007  51.563  1.00  0.00     0.147 A 
ATOM     13  C   UNL     1       4.851  42.903  50.668  1.00  0.00     0.165 A 
ATOM     14  C   UNL     1       5.700  43.996  50.619  1.00  0.00     0.082 A 
ATOM     15  N   UNL     1       5.260  42.069  49.663  1.00  0.00    -0.250 N 
ATOM     16  C   UNL     1       6.557  43.727  49.532  1.00  0.00     0.149 A 
ATOM     17  N   UNL     1       6.294  42.557  48.943  1.00  0.00    -0.179 NA
ATOM     18  C   UNL     1       4.717  40.778  49.321  1.00  0.00     0.176 C 
BRANCH  12  19
ATOM     19  N   UNL     1       6.292  46.159  51.610  1.00  0.00    -0.337 N 
ATOM     20  H   UNL     1       5.972  46.922  51.028  1.00  0.00     0.168 HD
BRANCH  19  21
ATOM     21  C   UNL     1       7.489  46.402  52.311  1.00  0.00     0.079 A 
ATOM     22  C   UNL     1       7.400  46.966  53.598  1.00  0.00     0.032 A 
ATOM     23  C   UNL     1       8.774  46.187  51.778  1.00  0.00     0.185 A 
ATOM     24  C   UNL     1       8.549  47.297  54.323  1.00  0.00     0.045 A 
ATOM     25  C   UNL     1       9.917  46.519  52.500  1.00  0.00     0.196 A 
ATOM     26  C   UNL     1       9.802  47.074  53.765  1.00  0.00     0.162 A 
ATOM     27  F   UNL     1       8.936  45.591  50.586  1.00  0.00    -0.201 F 
ATOM     28  F   UNL     1      11.129  46.293  51.972  1.00  0.00    -0.200 F 
ATOM     29  F   UNL     1      10.899  47.396  54.463  1.00  0.00    -0.204 F 
ENDBRANCH  19  21
ENDBRANCH  12  19
ENDBRANCH   1   9
TORSDOF 6
ENDMDL
MODEL 4
REMARK VINA RESULT:    -8.655      2.611      5.654
REMARK INTER + INTRA:         -12.613
REMARK INTER:                 -11.697
REMARK INTRA:                  -0.916
REMARK UNBOUND:                -0.923
REMARK SMILES Cn1ncc2c(Nc3ccc(F)c(F)c3F)nc(NCC[NH+](C)C)nc21
REMARK SMILES IDX 19 1 20 3 21 4 22 5 23 6 24 7 18 9 17 10 25 11 6 12 26 13
REMARK SMILES IDX 5 14 2 15 4 16 3 17 1 18 7 19 8 21 9 22 15 23 10 24 13 25
REMARK SMILES IDX 11 26 16 27 14 28 12 29
REMARK H PARENT 19 2 22 8 7 20
ROOT
ATOM      1  N   UNL     1       2.488  44.243  54.084  1.00  0.00    -0.348 N 
ATOM      2  H   UNL     1       3.061  44.179  54.929  1.00  0.00     0.163 HD
ENDROOT
BRANCH   1   3
ATOM      3  C   UNL     1       1.662  45.435  54.008  1.00  0.00     0.177 C 
BRANCH   3   4
ATOM      4  C   UNL     1       0.672  45.348  52.829  1.00  0.00     0.283 C 
BRANCH   4   5
ATOM      5  N   UNL     1      -0.792  45.355  53.246  1.00  0.00    -0.338 N 
ATOM      6  C   UNL     1      -1.137  44.281  54.239  1.00  0.00     0.332 C 
ATOM      7  C   UNL     1      -1.755  45.408  52.095  1.00  0.00     0.332 C 
ATOM      8  H   UNL     1      -0.910  46.245  53.747  1.00  0.00     0.347 HD
ENDBRANCH   4   5
ENDBRANCH   3   4
ENDBRANCH   1   3
BRANCH   1   9
ATOM      9  C   UNL     1       3.442  44.144  53.072  1.00  0.00     0.226 A 
ATOM     10  N   UNL     1       4.283  45.183  53.021  1.00  0.00    -0.195 NA
ATOM     11  N   UNL     1       3.438  43.085  52.250  1.00  0.00    -0.193 NA
ATOM     12  C   UNL     1       5.240  45.261  52.062  1.00  0.00     0.147 A 
ATOM     13  C   UNL     1       4.428  43.148  51.340  1.00  0.00     0.165 A 
ATOM     14  C   UNL     1       5.342  44.177  51.185  1.00  0.00     0.082 A 
ATOM     15  N   UNL     1       4.744  42.222  50.382  1.00  0.00    -0.250 N 
ATOM     16  C   UNL     1       6.137  43.779  50.091  1.00  0.00     0.149 A 
ATOM     17  N   UNL     1       5.778  42.591  49.596  1.00  0.00    -0.179 NA
ATOM     18  C   UNL     1       4.108  40.950  50.151  1.00  0.00     0.176 C 
BRANCH  12  19
ATOM     19  N   UNL     1       6.107  46.359  52.001  1.00  0.00    -0.337 N 
ATOM     20  H   UNL     1       5.801  47.111  51.397  1.00  0.00     0.168 HD
BRANCH  19  21
ATOM     21  C   UNL     1       7.357  46.558  52.618  1.00  0.00     0.079 A 
ATOM     22  C   UNL     1       7.373  47.062  53.933  1.00  0.00     0.032 A 
ATOM     23  C   UNL     1       8.595  46.355  51.980  1.00  0.00     0.185 A 
ATOM     24  C   UNL     1       8.578  47.349  54.583  1.00  0.00     0.045 A 
ATOM     25  C   UNL     1       9.793  46.642  52.627  1.00  0.00     0.196 A 
ATOM     26  C   UNL     1       9.782  47.139  53.921  1.00  0.00     0.162 A 
ATOM     27  F   UNL     1       8.659  45.813  50.753  1.00  0.00    -0.201 F 
ATOM     28  F   UNL     1      10.959  46.430  51.998  1.00  0.00    -0.200 F 
ATOM     29  F   UNL     1      10.933  47.418  54.547  1.00  0.00    -0.204 F 
ENDBRANCH  19  21
ENDBRANCH  12  19
ENDBRANCH   1   9
TORSDOF 6
ENDMDL
MODEL 5
REMARK VINA RESULT:    -8.609      2.627      5.647
REMARK INTER + INTRA:         -12.552
REMARK INTER:                 -11.686
REMARK INTRA:                  -0.866
REMARK UNBOUND:                -0.923
REMARK SMILES Cn1ncc2c(Nc3ccc(F)c(F)c3F)nc(NCC[NH+](C)C)nc21
REMARK SMILES IDX 19 1 20 3 21 4 22 5 23 6 24 7 18 9 17 10 25 11 6 12 26 13
REMARK SMILES IDX 5 14 2 15 4 16 3 17 1 18 7 19 8 21 9 22 15 23 10 24 13 25
REMARK SMILES IDX 11 26 16 27 14 28 12 29
REMARK H PARENT 19 2 22 8 7 20
ROOT
ATOM      1  N   UNL     1       2.172  44.061  53.864  1.00  0.00    -0.348 N 
ATOM      2  H   UNL     1       2.492  43.378  54.556  1.00  0.00     0.163 HD
ENDROOT
BRANCH   1   3
ATOM      3  C   UNL     1       1.945  45.393  54.395  1.00  0.00     0.177 C 
BRANCH   3   4
ATOM      4  C   UNL     1       1.287  45.329  55.788  1.00  0.00     0.283 C 
BRANCH   4   5
ATOM      5  N   UNL     1      -0.177  45.744  55.803  1.00  0.00    -0.338 N 
ATOM      6  C   UNL     1      -0.610  46.367  57.100  1.00  0.00     0.332 C 
ATOM      7  C   UNL     1      -1.119  44.672  55.334  1.00  0.00     0.332 C 
ATOM      8  H   UNL     1      -0.238  46.492  55.100  1.00  0.00     0.347 HD
ENDBRANCH   4   5
ENDBRANCH   3   4
ENDBRANCH   1   3
BRANCH   1   9
ATOM      9  C   UNL     1       3.177  43.995  52.900  1.00  0.00     0.226 A 
ATOM     10  N   UNL     1       3.985  45.062  52.888  1.00  0.00    -0.195 NA
ATOM     11  N   UNL     1       3.248  42.937  52.079  1.00  0.00    -0.193 NA
ATOM     12  C   UNL     1       4.984  45.172  51.977  1.00  0.00     0.147 A 
ATOM     13  C   UNL     1       4.278  43.034  51.218  1.00  0.00     0.165 A 
ATOM     14  C   UNL     1       5.164  44.093  51.107  1.00  0.00     0.082 A 
ATOM     15  N   UNL     1       4.672  42.120  50.277  1.00  0.00    -0.250 N 
ATOM     16  C   UNL     1       6.024  43.723  50.053  1.00  0.00     0.149 A 
ATOM     17  N   UNL     1       5.730  42.524  49.541  1.00  0.00    -0.179 NA
ATOM     18  C   UNL     1       4.090  40.828  50.016  1.00  0.00     0.176 C 
BRANCH  12  19
ATOM     19  N   UNL     1       5.815  46.299  51.957  1.00  0.00    -0.337 N 
ATOM     20  H   UNL     1       5.468  47.076  51.410  1.00  0.00     0.168 HD
BRANCH  19  21
ATOM     21  C   UNL     1       7.078  46.499  52.548  1.00  0.00     0.079 A 
ATOM     22  C   UNL     1       7.121  46.895  53.899  1.00  0.00     0.032 A 
ATOM     23  C   UNL     1       8.299  46.402  51.855  1.00  0.00     0.185 A 
ATOM     24  C   UNL     1       8.337  47.179  54.530  1.00  0.00     0.045 A 
ATOM     25  C   UNL     1       9.507  46.686  52.484  1.00  0.00     0.196 A 
ATOM     26  C   UNL     1       9.523  47.075  53.814  1.00  0.00     0.162 A 
ATOM     27  F   UNL     1       8.340  45.965  50.586  1.00  0.00    -0.201 F 
ATOM     28  F   UNL     1      10.657  46.575  51.802  1.00  0.00    -0.200 F 
ATOM     29  F   UNL     1      10.684  47.350  54.423  1.00  0.00    -0.204 F 
ENDBRANCH  19  21
ENDBRANCH  12  19
ENDBRANCH   1   9
TORSDOF 6
ENDMDL
MODEL 6
REMARK VINA RESULT:    -8.526      3.302      6.760
REMARK INTER + INTRA:         -12.439
REMARK INTER:                 -11.445
REMARK INTRA:                  -0.994
REMARK UNBOUND:                -0.923
REMARK SMILES Cn1ncc2c(Nc3ccc(F)c(F)c3F)nc(NCC[NH+](C)C)nc21
REMARK SMILES IDX 19 1 20 3 21 4 22 5 23 6 24 7 18 9 17 10 25 11 6 12 26 13
REMARK SMILES IDX 5 14 2 15 4 16 3 17 1 18 7 19 8 21 9 22 15 23 10 24 13 25
REMARK SMILES IDX 11 26 16 27 14 28 12 29
REMARK H PARENT 19 2 22 8 7 20
ROOT
ATOM      1  N   UNL     1       4.146  41.493  51.164  1.00  0.00    -0.348 N 
ATOM      2  H   UNL     1       3.304  41.241  50.640  1.00  0.00     0.163 HD
ENDROOT
BRANCH   1   3
ATOM      3  C   UNL     1       5.368  41.479  50.381  1.00  0.00     0.177 C 
BRANCH   3   4
ATOM      4  C   UNL     1       5.095  41.010  48.937  1.00  0.00     0.283 C 
BRANCH   4   5
ATOM      5  N   UNL     1       6.059  41.579  47.906  1.00  0.00    -0.338 N 
ATOM      6  C   UNL     1       6.745  42.837  48.358  1.00  0.00     0.332 C 
ATOM      7  C   UNL     1       5.475  41.702  46.528  1.00  0.00     0.332 C 
ATOM      8  H   UNL     1       6.799  40.869  47.830  1.00  0.00     0.347 HD
ENDBRANCH   4   5
ENDBRANCH   3   4
ENDBRANCH   1   3
BRANCH   1   9
ATOM      9  C   UNL     1       3.810  42.747  51.675  1.00  0.00     0.226 A 
ATOM     10  N   UNL     1       4.642  43.724  51.295  1.00  0.00    -0.195 NA
ATOM     11  N   UNL     1       2.750  42.877  52.486  1.00  0.00    -0.193 NA
ATOM     12  C   UNL     1       4.479  44.994  51.745  1.00  0.00     0.147 A 
ATOM     13  C   UNL     1       2.569  44.151  52.879  1.00  0.00     0.165 A 
ATOM     14  C   UNL     1       3.371  45.235  52.562  1.00  0.00     0.082 A 
ATOM     15  N   UNL     1       1.566  44.649  53.667  1.00  0.00    -0.250 N 
ATOM     16  C   UNL     1       2.775  46.322  53.234  1.00  0.00     0.149 A 
ATOM     17  N   UNL     1       1.677  45.973  53.910  1.00  0.00    -0.179 NA
ATOM     18  C   UNL     1       0.454  43.925  54.229  1.00  0.00     0.176 C 
BRANCH  12  19
ATOM     19  N   UNL     1       5.362  46.010  51.359  1.00  0.00    -0.337 N 
ATOM     20  H   UNL     1       5.055  46.565  50.571  1.00  0.00     0.168 HD
BRANCH  19  21
ATOM     21  C   UNL     1       6.629  46.347  51.872  1.00  0.00     0.079 A 
ATOM     22  C   UNL     1       7.760  46.059  51.084  1.00  0.00     0.032 A 
ATOM     23  C   UNL     1       6.846  46.888  53.154  1.00  0.00     0.185 A 
ATOM     24  C   UNL     1       9.053  46.303  51.559  1.00  0.00     0.045 A 
ATOM     25  C   UNL     1       8.132  47.129  53.625  1.00  0.00     0.196 A 
ATOM     26  C   UNL     1       9.229  46.835  52.830  1.00  0.00     0.162 A 
ATOM     27  F   UNL     1       5.813  47.251  53.933  1.00  0.00    -0.201 F 
ATOM     28  F   UNL     1       8.308  47.654  54.847  1.00  0.00    -0.200 F 
ATOM     29  F   UNL     1      10.470  47.065  53.281  1.00  0.00    -0.204 F 
ENDBRANCH  19  21
ENDBRANCH  12  19
ENDBRANCH   1   9
TORSDOF 6
ENDMDL
MODEL 7
REMARK VINA RESULT:    -8.448      2.927      6.787
REMARK INTER + INTRA:         -12.333
REMARK INTER:                 -11.535
REMARK INTRA:                  -0.798
REMARK UNBOUND:                -0.923
REMARK SMILES Cn1ncc2c(Nc3ccc(F)c(F)c3F)nc(NCC[NH+](C)C)nc21
REMARK SMILES IDX 19 1 20 3 21 4 22 5 23 6 24 7 18 9 17 10 25 11 6 12 26 13
REMARK SMILES IDX 5 14 2 15 4 16 3 17 1 18 7 19 8 21 9 22 15 23 10 24 13 25
REMARK SMILES IDX 11 26 16 27 14 28 12 29
REMARK H PARENT 19 2 22 8 7 20
ROOT
ATOM      1  N   UNL     1       5.095  41.176  50.358  1.00  0.00    -0.348 N 
ATOM      2  H   UNL     1       4.362  40.507  50.610  1.00  0.00     0.163 HD
ENDROOT
BRANCH   1   3
ATOM      3  C   UNL     1       5.295  41.337  48.929  1.00  0.00     0.177 C 
BRANCH   3   4
ATOM      4  C   UNL     1       4.178  40.635  48.131  1.00  0.00     0.283 C 
BRANCH   4   5
ATOM      5  N   UNL     1       4.424  40.587  46.630  1.00  0.00    -0.338 N 
ATOM      6  C   UNL     1       5.388  41.633  46.147  1.00  0.00     0.332 C 
ATOM      7  C   UNL     1       3.169  40.535  45.807  1.00  0.00     0.332 C 
ATOM      8  H   UNL     1       4.892  39.684  46.476  1.00  0.00     0.347 HD
ENDBRANCH   4   5
ENDBRANCH   3   4
ENDBRANCH   1   3
BRANCH   1   9
ATOM      9  C   UNL     1       4.672  42.334  51.009  1.00  0.00     0.226 A 
ATOM     10  N   UNL     1       5.464  43.392  50.798  1.00  0.00    -0.195 NA
ATOM     11  N   UNL     1       3.574  42.306  51.779  1.00  0.00    -0.193 NA
ATOM     12  C   UNL     1       5.215  44.582  51.399  1.00  0.00     0.147 A 
ATOM     13  C   UNL     1       3.308  43.508  52.324  1.00  0.00     0.165 A 
ATOM     14  C   UNL     1       4.063  44.661  52.187  1.00  0.00     0.082 A 
ATOM     15  N   UNL     1       2.249  43.850  53.121  1.00  0.00    -0.250 N 
ATOM     16  C   UNL     1       3.383  45.621  52.964  1.00  0.00     0.149 A 
ATOM     17  N   UNL     1       2.279  45.134  53.537  1.00  0.00    -0.179 NA
ATOM     18  C   UNL     1       1.155  43.005  53.532  1.00  0.00     0.176 C 
BRANCH  12  19
ATOM     19  N   UNL     1       6.057  45.681  51.189  1.00  0.00    -0.337 N 
ATOM     20  H   UNL     1       5.816  46.257  50.393  1.00  0.00     0.168 HD
BRANCH  19  21
ATOM     21  C   UNL     1       7.211  46.081  51.890  1.00  0.00     0.079 A 
ATOM     22  C   UNL     1       7.043  46.698  53.145  1.00  0.00     0.032 A 
ATOM     23  C   UNL     1       8.520  45.972  51.385  1.00  0.00     0.185 A 
ATOM     24  C   UNL     1       8.140  47.183  53.865  1.00  0.00     0.045 A 
ATOM     25  C   UNL     1       9.610  46.456  52.102  1.00  0.00     0.196 A 
ATOM     26  C   UNL     1       9.418  47.060  53.334  1.00  0.00     0.162 A 
ATOM     27  F   UNL     1       8.763  45.336  50.228  1.00  0.00    -0.201 F 
ATOM     28  F   UNL     1      10.848  46.330  51.601  1.00  0.00    -0.200 F 
ATOM     29  F   UNL     1      10.465  47.529  54.027  1.00  0.00    -0.204 F 
ENDBRANCH  19  21
ENDBRANCH  12  19
ENDBRANCH   1   9
TORSDOF 6
ENDMDL
MODEL 8
REMARK VINA RESULT:    -8.387      3.270      7.017
REMARK INTER + INTRA:         -12.252
REMARK INTER:                 -11.398
REMARK INTRA:                  -0.854
REMARK UNBOUND:                -0.923
REMARK SMILES Cn1ncc2c(Nc3ccc(F)c(F)c3F)nc(NCC[NH+](C)C)nc21
REMARK SMILES IDX 19 1 20 3 21 4 22 5 23 6 24 7 18 9 17 10 25 11 6 12 26 13
REMARK SMILES IDX 5 14 2 15 4 16 3 17 1 18 7 19 8 21 9 22 15 23 10 24 13 25
REMARK SMILES IDX 11 26 16 27 14 28 12 29
REMARK H PARENT 19 2 22 8 7 20
ROOT
ATOM      1  N   UNL     1       5.294  41.267  50.165  1.00  0.00    -0.348 N 
ATOM      2  H   UNL     1       4.670  40.521  50.483  1.00  0.00     0.163 HD
ENDROOT
BRANCH   1   3
ATOM      3  C   UNL     1       5.354  41.427  48.723  1.00  0.00     0.177 C 
BRANCH   3   4
ATOM      4  C   UNL     1       4.212  40.654  48.033  1.00  0.00     0.283 C 
BRANCH   4   5
ATOM      5  N   UNL     1       4.289  40.659  46.513  1.00  0.00    -0.338 N 
ATOM      6  C   UNL     1       5.256  41.670  45.966  1.00  0.00     0.332 C 
ATOM      7  C   UNL     1       2.951  40.712  45.834  1.00  0.00     0.332 C 
ATOM      8  H   UNL     1       4.683  39.739  46.275  1.00  0.00     0.347 HD
ENDBRANCH   4   5
ENDBRANCH   3   4
ENDBRANCH   1   3
BRANCH   1   9
ATOM      9  C   UNL     1       4.793  42.378  50.842  1.00  0.00     0.226 A 
ATOM     10  N   UNL     1       5.506  43.494  50.650  1.00  0.00    -0.195 NA
ATOM     11  N   UNL     1       3.704  42.256  51.616  1.00  0.00    -0.193 NA
ATOM     12  C   UNL     1       5.176  44.651  51.278  1.00  0.00     0.147 A 
ATOM     13  C   UNL     1       3.356  43.424  52.187  1.00  0.00     0.165 A 
ATOM     14  C   UNL     1       4.026  44.630  52.071  1.00  0.00     0.082 A 
ATOM     15  N   UNL     1       2.279  43.672  52.994  1.00  0.00    -0.250 N 
ATOM     16  C   UNL     1       3.283  45.523  52.871  1.00  0.00     0.149 A 
ATOM     17  N   UNL     1       2.219  44.946  53.438  1.00  0.00    -0.179 NA
ATOM     18  C   UNL     1       1.251  42.743  53.392  1.00  0.00     0.176 C 
BRANCH  12  19
ATOM     19  N   UNL     1       5.936  45.811  51.088  1.00  0.00    -0.337 N 
ATOM     20  H   UNL     1       5.627  46.405  50.329  1.00  0.00     0.168 HD
BRANCH  19  21
ATOM     21  C   UNL     1       7.089  46.256  51.763  1.00  0.00     0.079 A 
ATOM     22  C   UNL     1       8.338  46.052  51.145  1.00  0.00     0.032 A 
ATOM     23  C   UNL     1       7.082  46.825  53.050  1.00  0.00     0.185 A 
ATOM     24  C   UNL     1       9.529  46.406  51.788  1.00  0.00     0.045 A 
ATOM     25  C   UNL     1       8.267  47.175  53.689  1.00  0.00     0.196 A 
ATOM     26  C   UNL     1       9.484  46.963  53.060  1.00  0.00     0.162 A 
ATOM     27  F   UNL     1       5.926  47.111  53.672  1.00  0.00    -0.201 F 
ATOM     28  F   UNL     1       8.230  47.725  54.912  1.00  0.00    -0.200 F 
ATOM     29  F   UNL     1      10.628  47.298  53.672  1.00  0.00    -0.204 F 
ENDBRANCH  19  21
ENDBRANCH  12  19
ENDBRANCH   1   9
TORSDOF 6
ENDMDL
MODEL 9
REMARK VINA RESULT:    -8.296      3.158      5.935
REMARK INTER + INTRA:         -12.129
REMARK INTER:                 -11.169
REMARK INTRA:                  -0.959
REMARK UNBOUND:                -0.923
REMARK SMILES Cn1ncc2c(Nc3ccc(F)c(F)c3F)nc(NCC[NH+](C)C)nc21
REMARK SMILES IDX 19 1 20 3 21 4 22 5 23 6 24 7 18 9 17 10 25 11 6 12 26 13
REMARK SMILES IDX 5 14 2 15 4 16 3 17 1 18 7 19 8 21 9 22 15 23 10 24 13 25
REMARK SMILES IDX 11 26 16 27 14 28 12 29
REMARK H PARENT 19 2 22 8 7 20
ROOT
ATOM      1  N   UNL     1       3.117  44.523  53.850  1.00  0.00    -0.348 N 
ATOM      2  H   UNL     1       3.783  44.785  54.582  1.00  0.00     0.163 HD
ENDROOT
BRANCH   1   3
ATOM      3  C   UNL     1       2.114  45.533  53.561  1.00  0.00     0.177 C 
BRANCH   3   4
ATOM      4  C   UNL     1       0.706  44.909  53.484  1.00  0.00     0.283 C 
BRANCH   4   5
ATOM      5  N   UNL     1       0.639  43.629  52.664  1.00  0.00    -0.338 N 
ATOM      6  C   UNL     1      -0.068  43.796  51.349  1.00  0.00     0.332 C 
ATOM      7  C   UNL     1       0.151  42.435  53.435  1.00  0.00     0.332 C 
ATOM      8  H   UNL     1       1.619  43.424  52.430  1.00  0.00     0.347 HD
ENDBRANCH   4   5
ENDBRANCH   3   4
ENDBRANCH   1   3
BRANCH   1   9
ATOM      9  C   UNL     1       3.958  44.231  52.777  1.00  0.00     0.226 A 
ATOM     10  N   UNL     1       4.919  45.141  52.581  1.00  0.00    -0.195 NA
ATOM     11  N   UNL     1       3.744  43.131  52.040  1.00  0.00    -0.193 NA
ATOM     12  C   UNL     1       5.789  45.026  51.547  1.00  0.00     0.147 A 
ATOM     13  C   UNL     1       4.649  43.001  51.053  1.00  0.00     0.165 A 
ATOM     14  C   UNL     1       5.672  43.884  50.749  1.00  0.00     0.082 A 
ATOM     15  N   UNL     1       4.758  41.981  50.146  1.00  0.00    -0.250 N 
ATOM     16  C   UNL     1       6.310  43.313  49.629  1.00  0.00     0.149 A 
ATOM     17  N   UNL     1       5.757  42.155  49.254  1.00  0.00    -0.179 NA
ATOM     18  C   UNL     1       3.943  40.795  50.062  1.00  0.00     0.176 C 
BRANCH  12  19
ATOM     19  N   UNL     1       6.782  45.990  51.335  1.00  0.00    -0.337 N 
ATOM     20  H   UNL     1       6.786  46.405  50.412  1.00  0.00     0.168 HD
BRANCH  19  21
ATOM     21  C   UNL     1       7.803  46.439  52.196  1.00  0.00     0.079 A 
ATOM     22  C   UNL     1       9.129  46.075  51.897  1.00  0.00     0.032 A 
ATOM     23  C   UNL     1       7.576  47.168  53.379  1.00  0.00     0.185 A 
ATOM     24  C   UNL     1      10.185  46.427  52.745  1.00  0.00     0.045 A 
ATOM     25  C   UNL     1       8.626  47.516  54.222  1.00  0.00     0.196 A 
ATOM     26  C   UNL     1       9.923  47.144  53.905  1.00  0.00     0.162 A 
ATOM     27  F   UNL     1       6.346  47.607  53.694  1.00  0.00    -0.201 F 
ATOM     28  F   UNL     1       8.382  48.219  55.338  1.00  0.00    -0.200 F 
ATOM     29  F   UNL     1      10.938  47.476  54.715  1.00  0.00    -0.204 F 
ENDBRANCH  19  21
ENDBRANCH  12  19
ENDBRANCH   1   9
TORSDOF 6
ENDMDL
MODEL 10
REMARK VINA RESULT:    -8.146      2.833      4.356
REMARK INTER + INTRA:         -11.926
REMARK INTER:                 -10.806
REMARK INTRA:                  -1.120
REMARK UNBOUND:                -0.923
REMARK SMILES Cn1ncc2c(Nc3ccc(F)c(F)c3F)nc(NCC[NH+](C)C)nc21
REMARK SMILES IDX 19 1 20 3 21 4 22 5 23 6 24 7 18 9 17 10 25 11 6 12 26 13
REMARK SMILES IDX 5 14 2 15 4 16 3 17 1 18 7 19 8 21 9 22 15 23 10 24 13 25
REMARK SMILES IDX 11 26 16 27 14 28 12 29
REMARK H PARENT 19 2 22 8 7 20
ROOT
ATOM      1  N   UNL     1       2.669  42.269  52.955  1.00  0.00    -0.348 N 
ATOM      2  H   UNL     1       3.015  42.423  53.905  1.00  0.00     0.163 HD
ENDROOT
BRANCH   1   3
ATOM      3  C   UNL     1       1.408  42.927  52.661  1.00  0.00     0.177 C 
BRANCH   3   4
ATOM      4  C   UNL     1       0.891  43.706  53.887  1.00  0.00     0.283 C 
BRANCH   4   5
ATOM      5  N   UNL     1       1.820  44.818  54.353  1.00  0.00    -0.338 N 
ATOM      6  C   UNL     1       1.593  45.229  55.780  1.00  0.00     0.332 C 
ATOM      7  C   UNL     1       1.885  45.990  53.417  1.00  0.00     0.332 C 
ATOM      8  H   UNL     1       2.757  44.394  54.330  1.00  0.00     0.347 HD
ENDBRANCH   4   5
ENDBRANCH   3   4
ENDBRANCH   1   3
BRANCH   1   9
ATOM      9  C   UNL     1       3.738  42.711  52.176  1.00  0.00     0.226 A 
ATOM     10  N   UNL     1       4.059  41.880  51.178  1.00  0.00    -0.195 NA
ATOM     11  N   UNL     1       4.354  43.864  52.479  1.00  0.00    -0.193 NA
ATOM     12  C   UNL     1       5.108  42.144  50.358  1.00  0.00     0.147 A 
ATOM     13  C   UNL     1       5.356  44.140  51.624  1.00  0.00     0.165 A 
ATOM     14  C   UNL     1       5.783  43.350  50.570  1.00  0.00     0.082 A 
ATOM     15  N   UNL     1       6.161  45.247  51.608  1.00  0.00    -0.250 N 
ATOM     16  C   UNL     1       6.863  44.063  50.011  1.00  0.00     0.149 A 
ATOM     17  N   UNL     1       7.101  45.218  50.638  1.00  0.00    -0.179 NA
ATOM     18  C   UNL     1       6.097  46.388  52.486  1.00  0.00     0.176 C 
BRANCH  12  19
ATOM     19  N   UNL     1       5.450  41.263  49.326  1.00  0.00    -0.337 N 
ATOM     20  H   UNL     1       6.208  40.629  49.540  1.00  0.00     0.168 HD
BRANCH  19  21
ATOM     21  C   UNL     1       4.929  41.154  48.022  1.00  0.00     0.079 A 
ATOM     22  C   UNL     1       3.817  40.313  47.822  1.00  0.00     0.032 A 
ATOM     23  C   UNL     1       5.492  41.774  46.891  1.00  0.00     0.185 A 
ATOM     24  C   UNL     1       3.290  40.104  46.543  1.00  0.00     0.045 A 
ATOM     25  C   UNL     1       4.968  41.563  45.619  1.00  0.00     0.196 A 
ATOM     26  C   UNL     1       3.874  40.730  45.449  1.00  0.00     0.162 A 
ATOM     27  F   UNL     1       6.510  42.641  47.014  1.00  0.00    -0.201 F 
ATOM     28  F   UNL     1       5.519  42.175  44.560  1.00  0.00    -0.200 F 
ATOM     29  F   UNL     1       3.367  40.523  44.225  1.00  0.00    -0.204 F 
ENDBRANCH  19  21
ENDBRANCH  12  19
ENDBRANCH   1   9
TORSDOF 6
ENDMDL
MODEL 11
REMARK VINA RESULT:    -8.039      2.785      4.535
REMARK INTER + INTRA:         -11.782
REMARK INTER:                 -10.641
REMARK INTRA:                  -1.141
REMARK UNBOUND:                -0.923
REMARK SMILES Cn1ncc2c(Nc3ccc(F)c(F)c3F)nc(NCC[NH+](C)C)nc21
REMARK SMILES IDX 19 1 20 3 21 4 22 5 23 6 24 7 18 9 17 10 25 11 6 12 26 13
REMARK SMILES IDX 5 14 2 15 4 16 3 17 1 18 7 19 8 21 9 22 15 23 10 24 13 25
REMARK SMILES IDX 11 26 16 27 14 28 12 29
REMARK H PARENT 19 2 22 8 7 20
ROOT
ATOM      1  N   UNL     1       2.913  42.331  52.727  1.00  0.00    -0.348 N 
ATOM      2  H   UNL     1       3.198  42.610  53.670  1.00  0.00     0.163 HD
ENDROOT
BRANCH   1   3
ATOM      3  C   UNL     1       1.622  42.851  52.311  1.00  0.00     0.177 C 
BRANCH   3   4
ATOM      4  C   UNL     1       1.047  43.816  53.368  1.00  0.00     0.283 C 
BRANCH   4   5
ATOM      5  N   UNL     1       2.038  44.862  53.857  1.00  0.00    -0.338 N 
ATOM      6  C   UNL     1       2.052  45.021  55.351  1.00  0.00     0.332 C 
ATOM      7  C   UNL     1       1.945  46.176  53.136  1.00  0.00     0.332 C 
ATOM      8  H   UNL     1       2.960  44.476  53.610  1.00  0.00     0.347 HD
ENDBRANCH   4   5
ENDBRANCH   3   4
ENDBRANCH   1   3
BRANCH   1   9
ATOM      9  C   UNL     1       3.984  42.778  51.952  1.00  0.00     0.226 A 
ATOM     10  N   UNL     1       4.304  41.952  50.949  1.00  0.00    -0.195 NA
ATOM     11  N   UNL     1       4.600  43.928  52.262  1.00  0.00    -0.193 NA
ATOM     12  C   UNL     1       5.355  42.221  50.132  1.00  0.00     0.147 A 
ATOM     13  C   UNL     1       5.603  44.209  51.410  1.00  0.00     0.165 A 
ATOM     14  C   UNL     1       6.031  43.425  50.351  1.00  0.00     0.082 A 
ATOM     15  N   UNL     1       6.408  45.316  51.401  1.00  0.00    -0.250 N 
ATOM     16  C   UNL     1       7.112  44.140  49.798  1.00  0.00     0.149 A 
ATOM     17  N   UNL     1       7.349  45.291  50.432  1.00  0.00    -0.179 NA
ATOM     18  C   UNL     1       6.343  46.452  52.286  1.00  0.00     0.176 C 
BRANCH  12  19
ATOM     19  N   UNL     1       5.698  41.345  49.095  1.00  0.00    -0.337 N 
ATOM     20  H   UNL     1       6.545  40.815  49.247  1.00  0.00     0.168 HD
BRANCH  19  21
ATOM     21  C   UNL     1       5.066  41.123  47.856  1.00  0.00     0.079 A 
ATOM     22  C   UNL     1       5.613  41.741  46.715  1.00  0.00     0.032 A 
ATOM     23  C   UNL     1       3.881  40.382  47.694  1.00  0.00     0.185 A 
ATOM     24  C   UNL     1       4.999  41.620  45.463  1.00  0.00     0.045 A 
ATOM     25  C   UNL     1       3.271  40.264  46.449  1.00  0.00     0.196 A 
ATOM     26  C   UNL     1       3.828  40.883  45.341  1.00  0.00     0.162 A 
ATOM     27  F   UNL     1       3.341  39.710  48.724  1.00  0.00    -0.201 F 
ATOM     28  F   UNL     1       2.146  39.543  46.322  1.00  0.00    -0.200 F 
ATOM     29  F   UNL     1       3.242  40.773  44.141  1.00  0.00    -0.204 F 
ENDBRANCH  19  21
ENDBRANCH  12  19
ENDBRANCH   1   9
TORSDOF 6
ENDMDL
MODEL 12
REMARK VINA RESULT:    -8.002      1.498      5.316
REMARK INTER + INTRA:         -11.731
REMARK INTER:                 -10.835
REMARK INTRA:                  -0.896
REMARK UNBOUND:                -0.923
REMARK SMILES Cn1ncc2c(Nc3ccc(F)c(F)c3F)nc(NCC[NH+](C)C)nc21
REMARK SMILES IDX 19 1 20 3 21 4 22 5 23 6 24 7 18 9 17 10 25 11 6 12 26 13
REMARK SMILES IDX 5 14 2 15 4 16 3 17 1 18 7 19 8 21 9 22 15 23 10 24 13 25
REMARK SMILES IDX 11 26 16 27 14 28 12 29
REMARK H PARENT 19 2 22 8 7 20
ROOT
ATOM      1  N   UNL     1       5.305  46.848  55.015  1.00  0.00    -0.348 N 
ATOM      2  H   UNL     1       5.214  46.971  56.027  1.00  0.00     0.163 HD
ENDROOT
BRANCH   1   3
ATOM      3  C   UNL     1       6.534  46.199  54.597  1.00  0.00     0.177 C 
BRANCH   3   4
ATOM      4  C   UNL     1       7.356  47.116  53.669  1.00  0.00     0.283 C 
BRANCH   4   5
ATOM      5  N   UNL     1       8.576  46.444  53.055  1.00  0.00    -0.338 N 
ATOM      6  C   UNL     1       9.880  47.014  53.538  1.00  0.00     0.332 C 
ATOM      7  C   UNL     1       8.518  46.322  51.559  1.00  0.00     0.332 C 
ATOM      8  H   UNL     1       8.544  45.480  53.412  1.00  0.00     0.347 HD
ENDBRANCH   4   5
ENDBRANCH   3   4
ENDBRANCH   1   3
BRANCH   1   9
ATOM      9  C   UNL     1       4.148  46.135  54.701  1.00  0.00     0.226 A 
ATOM     10  N   UNL     1       4.165  45.592  53.478  1.00  0.00    -0.195 NA
ATOM     11  N   UNL     1       3.143  46.066  55.587  1.00  0.00    -0.193 NA
ATOM     12  C   UNL     1       3.094  44.907  53.004  1.00  0.00     0.147 A 
ATOM     13  C   UNL     1       2.111  45.336  55.124  1.00  0.00     0.165 A 
ATOM     14  C   UNL     1       2.014  44.743  53.876  1.00  0.00     0.082 A 
ATOM     15  N   UNL     1       0.949  45.023  55.775  1.00  0.00    -0.250 N 
ATOM     16  C   UNL     1       0.745  44.129  53.876  1.00  0.00     0.149 A 
ATOM     17  N   UNL     1       0.090  44.297  55.028  1.00  0.00    -0.179 NA
ATOM     18  C   UNL     1       0.578  45.378  57.122  1.00  0.00     0.176 C 
BRANCH  12  19
ATOM     19  N   UNL     1       3.109  44.355  51.717  1.00  0.00    -0.337 N 
ATOM     20  H   UNL     1       2.294  44.561  51.154  1.00  0.00     0.168 HD
BRANCH  19  21
ATOM     21  C   UNL     1       4.065  43.523  51.102  1.00  0.00     0.079 A 
ATOM     22  C   UNL     1       3.828  42.135  51.096  1.00  0.00     0.032 A 
ATOM     23  C   UNL     1       5.280  43.982  50.559  1.00  0.00     0.185 A 
ATOM     24  C   UNL     1       4.766  41.244  50.565  1.00  0.00     0.045 A 
ATOM     25  C   UNL     1       6.213  43.094  50.033  1.00  0.00     0.196 A 
ATOM     26  C   UNL     1       5.956  41.732  50.040  1.00  0.00     0.162 A 
ATOM     27  F   UNL     1       5.544  45.295  50.470  1.00  0.00    -0.201 F 
ATOM     28  F   UNL     1       7.359  43.560  49.513  1.00  0.00    -0.200 F 
ATOM     29  F   UNL     1       6.853  40.873  49.535  1.00  0.00    -0.204 F 
ENDBRANCH  19  21
ENDBRANCH  12  19
ENDBRANCH   1   9
TORSDOF 6
ENDMDL
MODEL 13
REMARK VINA RESULT:    -7.972      2.766      5.804
REMARK INTER + INTRA:         -11.691
REMARK INTER:                 -10.732
REMARK INTRA:                  -0.959
REMARK UNBOUND:                -0.923
REMARK SMILES Cn1ncc2c(Nc3ccc(F)c(F)c3F)nc(NCC[NH+](C)C)nc21
REMARK SMILES IDX 19 1 20 3 21 4 22 5 23 6 24 7 18 9 17 10 25 11 6 12 26 13
REMARK SMILES IDX 5 14 2 15 4 16 3 17 1 18 7 19 8 21 9 22 15 23 10 24 13 25
REMARK SMILES IDX 11 26 16 27 14 28 12 29
REMARK H PARENT 19 2 22 8 7 20
ROOT
ATOM      1  N   UNL     1       7.725  45.530  50.293  1.00  0.00    -0.348 N 
ATOM      2  H   UNL     1       7.511  45.835  49.340  1.00  0.00     0.163 HD
ENDROOT
BRANCH   1   3
ATOM      3  C   UNL     1       7.775  46.603  51.270  1.00  0.00     0.177 C 
BRANCH   3   4
ATOM      4  C   UNL     1       9.086  46.552  52.081  1.00  0.00     0.283 C 
BRANCH   4   5
ATOM      5  N   UNL     1       8.880  46.479  53.587  1.00  0.00    -0.338 N 
ATOM      6  C   UNL     1       7.482  46.819  54.019  1.00  0.00     0.332 C 
ATOM      7  C   UNL     1       9.924  47.209  54.382  1.00  0.00     0.332 C 
ATOM      8  H   UNL     1       9.007  45.483  53.814  1.00  0.00     0.347 HD
ENDBRANCH   4   5
ENDBRANCH   3   4
ENDBRANCH   1   3
BRANCH   1   9
ATOM      9  C   UNL     1       6.725  44.587  50.532  1.00  0.00     0.226 A 
ATOM     10  N   UNL     1       6.778  43.527  49.717  1.00  0.00    -0.195 NA
ATOM     11  N   UNL     1       5.816  44.806  51.493  1.00  0.00    -0.193 NA
ATOM     12  C   UNL     1       5.846  42.543  49.790  1.00  0.00     0.147 A 
ATOM     13  C   UNL     1       4.932  43.796  51.591  1.00  0.00     0.165 A 
ATOM     14  C   UNL     1       4.881  42.663  50.795  1.00  0.00     0.082 A 
ATOM     15  N   UNL     1       3.905  43.667  52.487  1.00  0.00    -0.250 N 
ATOM     16  C   UNL     1       3.772  41.942  51.281  1.00  0.00     0.149 A 
ATOM     17  N   UNL     1       3.171  42.547  52.308  1.00  0.00    -0.179 NA
ATOM     18  C   UNL     1       3.554  44.572  53.552  1.00  0.00     0.176 C 
BRANCH  12  19
ATOM     19  N   UNL     1       5.894  41.445  48.924  1.00  0.00    -0.337 N 
ATOM     20  H   UNL     1       6.548  40.720  49.190  1.00  0.00     0.168 HD
BRANCH  19  21
ATOM     21  C   UNL     1       5.204  41.215  47.718  1.00  0.00     0.079 A 
ATOM     22  C   UNL     1       5.691  41.831  46.549  1.00  0.00     0.032 A 
ATOM     23  C   UNL     1       4.015  40.468  47.617  1.00  0.00     0.185 A 
ATOM     24  C   UNL     1       5.017  41.703  45.330  1.00  0.00     0.045 A 
ATOM     25  C   UNL     1       3.345  40.343  46.404  1.00  0.00     0.196 A 
ATOM     26  C   UNL     1       3.844  40.961  45.269  1.00  0.00     0.162 A 
ATOM     27  F   UNL     1       3.529  39.798  48.675  1.00  0.00    -0.201 F 
ATOM     28  F   UNL     1       2.218  39.617  46.336  1.00  0.00    -0.200 F 
ATOM     29  F   UNL     1       3.201  40.843  44.099  1.00  0.00    -0.204 F 
ENDBRANCH  19  21
ENDBRANCH  12  19
ENDBRANCH   1   9
TORSDOF 6
ENDMDL
MODEL 14
REMARK VINA RESULT:    -7.916      3.443      6.143
REMARK INTER + INTRA:         -11.616
REMARK INTER:                 -10.722
REMARK INTRA:                  -0.894
REMARK UNBOUND:                -0.923
REMARK SMILES Cn1ncc2c(Nc3ccc(F)c(F)c3F)nc(NCC[NH+](C)C)nc21
REMARK SMILES IDX 19 1 20 3 21 4 22 5 23 6 24 7 18 9 17 10 25 11 6 12 26 13
REMARK SMILES IDX 5 14 2 15 4 16 3 17 1 18 7 19 8 21 9 22 15 23 10 24 13 25
REMARK SMILES IDX 11 26 16 27 14 28 12 29
REMARK H PARENT 19 2 22 8 7 20
ROOT
ATOM      1  N   UNL     1       1.954  45.711  56.757  1.00  0.00    -0.348 N 
ATOM      2  H   UNL     1       2.199  46.703  56.812  1.00  0.00     0.163 HD
ENDROOT
BRANCH   1   3
ATOM      3  C   UNL     1       0.597  45.405  57.170  1.00  0.00     0.177 C 
BRANCH   3   4
ATOM      4  C   UNL     1      -0.144  46.678  57.626  1.00  0.00     0.283 C 
BRANCH   4   5
ATOM      5  N   UNL     1      -1.333  47.051  56.752  1.00  0.00    -0.338 N 
ATOM      6  C   UNL     1      -2.191  48.136  57.338  1.00  0.00     0.332 C 
ATOM      7  C   UNL     1      -2.134  45.873  56.276  1.00  0.00     0.332 C 
ATOM      8  H   UNL     1      -0.910  47.457  55.906  1.00  0.00     0.347 HD
ENDBRANCH   4   5
ENDBRANCH   3   4
ENDBRANCH   1   3
BRANCH   1   9
ATOM      9  C   UNL     1       2.225  45.415  55.421  1.00  0.00     0.226 A 
ATOM     10  N   UNL     1       3.518  45.177  55.173  1.00  0.00    -0.195 NA
ATOM     11  N   UNL     1       1.230  45.412  54.522  1.00  0.00    -0.193 NA
ATOM     12  C   UNL     1       3.951  44.920  53.913  1.00  0.00     0.147 A 
ATOM     13  C   UNL     1       1.665  45.101  53.288  1.00  0.00     0.165 A 
ATOM     14  C   UNL     1       2.975  44.851  52.913  1.00  0.00     0.082 A 
ATOM     15  N   UNL     1       0.921  44.963  52.147  1.00  0.00    -0.250 N 
ATOM     16  C   UNL     1       2.905  44.605  51.527  1.00  0.00     0.149 A 
ATOM     17  N   UNL     1       1.657  44.674  51.053  1.00  0.00    -0.179 NA
ATOM     18  C   UNL     1      -0.509  45.089  52.016  1.00  0.00     0.176 C 
BRANCH  12  19
ATOM     19  N   UNL     1       5.307  44.689  53.654  1.00  0.00    -0.337 N 
ATOM     20  H   UNL     1       5.653  43.789  53.962  1.00  0.00     0.168 HD
BRANCH  19  21
ATOM     21  C   UNL     1       6.272  45.533  53.071  1.00  0.00     0.079 A 
ATOM     22  C   UNL     1       6.534  45.386  51.695  1.00  0.00     0.032 A 
ATOM     23  C   UNL     1       7.045  46.465  53.788  1.00  0.00     0.185 A 
ATOM     24  C   UNL     1       7.527  46.142  51.064  1.00  0.00     0.045 A 
ATOM     25  C   UNL     1       8.034  47.215  53.159  1.00  0.00     0.196 A 
ATOM     26  C   UNL     1       8.273  47.051  51.804  1.00  0.00     0.162 A 
ATOM     27  F   UNL     1       6.804  46.707  55.087  1.00  0.00    -0.201 F 
ATOM     28  F   UNL     1       8.749  48.103  53.866  1.00  0.00    -0.200 F 
ATOM     29  F   UNL     1       9.225  47.771  51.195  1.00  0.00    -0.204 F 
ENDBRANCH  19  21
ENDBRANCH  12  19
ENDBRANCH   1   9
TORSDOF 6
ENDMDL
MODEL 15
REMARK VINA RESULT:    -7.892      1.546      5.610
REMARK INTER + INTRA:         -11.583
REMARK INTER:                 -11.005
REMARK INTRA:                  -0.578
REMARK UNBOUND:                -0.923
REMARK SMILES Cn1ncc2c(Nc3ccc(F)c(F)c3F)nc(NCC[NH+](C)C)nc21
REMARK SMILES IDX 19 1 20 3 21 4 22 5 23 6 24 7 18 9 17 10 25 11 6 12 26 13
REMARK SMILES IDX 5 14 2 15 4 16 3 17 1 18 7 19 8 21 9 22 15 23 10 24 13 25
REMARK SMILES IDX 11 26 16 27 14 28 12 29
REMARK H PARENT 19 2 22 8 7 20
ROOT
ATOM      1  N   UNL     1       4.528  46.440  55.320  1.00  0.00    -0.348 N 
ATOM      2  H   UNL     1       4.949  45.824  56.020  1.00  0.00     0.163 HD
ENDROOT
BRANCH   1   3
ATOM      3  C   UNL     1       5.451  46.914  54.304  1.00  0.00     0.177 C 
BRANCH   3   4
ATOM      4  C   UNL     1       6.891  46.454  54.606  1.00  0.00     0.283 C 
BRANCH   4   5
ATOM      5  N   UNL     1       7.895  46.800  53.516  1.00  0.00    -0.338 N 
ATOM      6  C   UNL     1       9.109  47.522  54.027  1.00  0.00     0.332 C 
ATOM      7  C   UNL     1       7.287  47.468  52.317  1.00  0.00     0.332 C 
ATOM      8  H   UNL     1       8.233  45.888  53.182  1.00  0.00     0.347 HD
ENDBRANCH   4   5
ENDBRANCH   3   4
ENDBRANCH   1   3
BRANCH   1   9
ATOM      9  C   UNL     1       3.488  45.655  54.824  1.00  0.00     0.226 A 
ATOM     10  N   UNL     1       3.792  45.008  53.693  1.00  0.00    -0.195 NA
ATOM     11  N   UNL     1       2.310  45.621  55.466  1.00  0.00    -0.193 NA
ATOM     12  C   UNL     1       2.871  44.240  53.058  1.00  0.00     0.147 A 
ATOM     13  C   UNL     1       1.426  44.811  54.855  1.00  0.00     0.165 A 
ATOM     14  C   UNL     1       1.626  44.108  53.679  1.00  0.00     0.082 A 
ATOM     15  N   UNL     1       0.153  44.508  55.258  1.00  0.00    -0.250 N 
ATOM     16  C   UNL     1       0.403  43.443  53.454  1.00  0.00     0.149 A 
ATOM     17  N   UNL     1      -0.499  43.683  54.409  1.00  0.00    -0.179 NA
ATOM     18  C   UNL     1      -0.520  44.963  56.448  1.00  0.00     0.176 C 
BRANCH  12  19
ATOM     19  N   UNL     1       3.189  43.580  51.865  1.00  0.00    -0.337 N 
ATOM     20  H   UNL     1       2.416  43.097  51.425  1.00  0.00     0.168 HD
BRANCH  19  21
ATOM     21  C   UNL     1       4.428  43.449  51.208  1.00  0.00     0.079 A 
ATOM     22  C   UNL     1       5.124  44.625  50.869  1.00  0.00     0.032 A 
ATOM     23  C   UNL     1       4.981  42.221  50.801  1.00  0.00     0.185 A 
ATOM     24  C   UNL     1       6.326  44.573  50.154  1.00  0.00     0.045 A 
ATOM     25  C   UNL     1       6.176  42.171  50.089  1.00  0.00     0.196 A 
ATOM     26  C   UNL     1       6.841  43.343  49.767  1.00  0.00     0.162 A 
ATOM     27  F   UNL     1       4.408  41.057  51.148  1.00  0.00    -0.201 F 
ATOM     28  F   UNL     1       6.686  40.985  49.723  1.00  0.00    -0.200 F 
ATOM     29  F   UNL     1       7.992  43.299  49.080  1.00  0.00    -0.204 F 
ENDBRANCH  19  21
ENDBRANCH  12  19
ENDBRANCH   1   9
TORSDOF 6
ENDMDL
MODEL 16
REMARK VINA RESULT:    -7.882      2.721      5.024
REMARK INTER + INTRA:         -11.569
REMARK INTER:                 -10.645
REMARK INTRA:                  -0.925
REMARK UNBOUND:                -0.923
REMARK SMILES Cn1ncc2c(Nc3ccc(F)c(F)c3F)nc(NCC[NH+](C)C)nc21
REMARK SMILES IDX 19 1 20 3 21 4 22 5 23 6 24 7 18 9 17 10 25 11 6 12 26 13
REMARK SMILES IDX 5 14 2 15 4 16 3 17 1 18 7 19 8 21 9 22 15 23 10 24 13 25
REMARK SMILES IDX 11 26 16 27 14 28 12 29
REMARK H PARENT 19 2 22 8 7 20
ROOT
ATOM      1  N   UNL     1       8.133  44.879  49.417  1.00  0.00    -0.348 N 
ATOM      2  H   UNL     1       9.093  45.231  49.381  1.00  0.00     0.163 HD
ENDROOT
BRANCH   1   3
ATOM      3  C   UNL     1       8.020  43.433  49.353  1.00  0.00     0.177 C 
BRANCH   3   4
ATOM      4  C   UNL     1       6.802  43.009  48.509  1.00  0.00     0.283 C 
BRANCH   4   5
ATOM      5  N   UNL     1       6.222  41.655  48.891  1.00  0.00    -0.338 N 
ATOM      6  C   UNL     1       5.189  41.150  47.925  1.00  0.00     0.332 C 
ATOM      7  C   UNL     1       5.768  41.567  50.320  1.00  0.00     0.332 C 
ATOM      8  H   UNL     1       7.017  41.006  48.814  1.00  0.00     0.347 HD
ENDBRANCH   4   5
ENDBRANCH   3   4
ENDBRANCH   1   3
BRANCH   1   9
ATOM      9  C   UNL     1       7.659  45.436  50.605  1.00  0.00     0.226 A 
ATOM     10  N   UNL     1       6.325  45.429  50.710  1.00  0.00    -0.195 NA
ATOM     11  N   UNL     1       8.523  45.935  51.501  1.00  0.00    -0.193 NA
ATOM     12  C   UNL     1       5.706  45.978  51.785  1.00  0.00     0.147 A 
ATOM     13  C   UNL     1       7.898  46.425  52.587  1.00  0.00     0.165 A 
ATOM     14  C   UNL     1       6.530  46.483  52.795  1.00  0.00     0.082 A 
ATOM     15  N   UNL     1       8.468  46.965  53.709  1.00  0.00    -0.250 N 
ATOM     16  C   UNL     1       6.392  47.101  54.055  1.00  0.00     0.149 A 
ATOM     17  N   UNL     1       7.567  47.399  54.616  1.00  0.00    -0.179 NA
ATOM     18  C   UNL     1       9.873  47.102  53.996  1.00  0.00     0.176 C 
BRANCH  12  19
ATOM     19  N   UNL     1       4.309  45.984  51.882  1.00  0.00    -0.337 N 
ATOM     20  H   UNL     1       3.861  46.821  51.534  1.00  0.00     0.168 HD
BRANCH  19  21
ATOM     21  C   UNL     1       3.438  45.021  52.429  1.00  0.00     0.079 A 
ATOM     22  C   UNL     1       3.113  43.901  51.641  1.00  0.00     0.032 A 
ATOM     23  C   UNL     1       2.813  45.143  53.683  1.00  0.00     0.185 A 
ATOM     24  C   UNL     1       2.201  42.940  52.092  1.00  0.00     0.045 A 
ATOM     25  C   UNL     1       1.905  44.188  54.130  1.00  0.00     0.196 A 
ATOM     26  C   UNL     1       1.600  43.095  53.335  1.00  0.00     0.162 A 
ATOM     27  F   UNL     1       3.126  46.149  54.516  1.00  0.00    -0.201 F 
ATOM     28  F   UNL     1       1.330  44.324  55.335  1.00  0.00    -0.200 F 
ATOM     29  F   UNL     1       0.725  42.173  53.761  1.00  0.00    -0.204 F 
ENDBRANCH  19  21
ENDBRANCH  12  19
ENDBRANCH   1   9
TORSDOF 6
ENDMDL
MODEL 17
REMARK VINA RESULT:    -7.858      2.842      5.865
REMARK INTER + INTRA:         -11.537
REMARK INTER:                 -10.718
REMARK INTRA:                  -0.819
REMARK UNBOUND:                -0.923
REMARK SMILES Cn1ncc2c(Nc3ccc(F)c(F)c3F)nc(NCC[NH+](C)C)nc21
REMARK SMILES IDX 19 1 20 3 21 4 22 5 23 6 24 7 18 9 17 10 25 11 6 12 26 13
REMARK SMILES IDX 5 14 2 15 4 16 3 17 1 18 7 19 8 21 9 22 15 23 10 24 13 25
REMARK SMILES IDX 11 26 16 27 14 28 12 29
REMARK H PARENT 19 2 22 8 7 20
ROOT
ATOM      1  N   UNL     1       2.370  46.028  56.538  1.00  0.00    -0.348 N 
ATOM      2  H   UNL     1       2.606  47.014  56.399  1.00  0.00     0.163 HD
ENDROOT
BRANCH   1   3
ATOM      3  C   UNL     1       1.106  45.804  57.216  1.00  0.00     0.177 C 
BRANCH   3   4
ATOM      4  C   UNL     1       0.922  46.791  58.386  1.00  0.00     0.283 C 
BRANCH   4   5
ATOM      5  N   UNL     1      -0.361  47.606  58.315  1.00  0.00    -0.338 N 
ATOM      6  C   UNL     1      -0.714  48.281  59.610  1.00  0.00     0.332 C 
ATOM      7  C   UNL     1      -1.522  46.866  57.714  1.00  0.00     0.332 C 
ATOM      8  H   UNL     1      -0.146  48.364  57.655  1.00  0.00     0.347 HD
ENDBRANCH   4   5
ENDBRANCH   3   4
ENDBRANCH   1   3
BRANCH   1   9
ATOM      9  C   UNL     1       2.417  45.528  55.237  1.00  0.00     0.226 A 
ATOM     10  N   UNL     1       3.238  46.206  54.427  1.00  0.00    -0.195 NA
ATOM     11  N   UNL     1       1.660  44.474  54.898  1.00  0.00    -0.193 NA
ATOM     12  C   UNL     1       3.358  45.874  53.117  1.00  0.00     0.147 A 
ATOM     13  C   UNL     1       1.832  44.121  53.611  1.00  0.00     0.165 A 
ATOM     14  C   UNL     1       2.640  44.757  52.682  1.00  0.00     0.082 A 
ATOM     15  N   UNL     1       1.257  43.071  52.947  1.00  0.00    -0.250 N 
ATOM     16  C   UNL     1       2.451  44.025  51.492  1.00  0.00     0.149 A 
ATOM     17  N   UNL     1       1.609  42.999  51.644  1.00  0.00    -0.179 NA
ATOM     18  C   UNL     1       0.358  42.082  53.486  1.00  0.00     0.176 C 
BRANCH  12  19
ATOM     19  N   UNL     1       4.205  46.598  52.269  1.00  0.00    -0.337 N 
ATOM     20  H   UNL     1       3.748  47.311  51.715  1.00  0.00     0.168 HD
BRANCH  19  21
ATOM     21  C   UNL     1       5.588  46.457  52.039  1.00  0.00     0.079 A 
ATOM     22  C   UNL     1       6.472  47.197  52.848  1.00  0.00     0.032 A 
ATOM     23  C   UNL     1       6.142  45.682  51.003  1.00  0.00     0.185 A 
ATOM     24  C   UNL     1       7.853  47.159  52.631  1.00  0.00     0.045 A 
ATOM     25  C   UNL     1       7.516  45.647  50.787  1.00  0.00     0.196 A 
ATOM     26  C   UNL     1       8.365  46.385  51.597  1.00  0.00     0.162 A 
ATOM     27  F   UNL     1       5.366  44.900  50.236  1.00  0.00    -0.201 F 
ATOM     28  F   UNL     1       8.017  44.892  49.798  1.00  0.00    -0.200 F 
ATOM     29  F   UNL     1       9.689  46.355  51.392  1.00  0.00    -0.204 F 
ENDBRANCH  19  21
ENDBRANCH  12  19
ENDBRANCH   1   9
TORSDOF 6
ENDMDL
MODEL 18
REMARK VINA RESULT:    -7.807      3.803      7.078
REMARK INTER + INTRA:         -11.468
REMARK INTER:                 -10.332
REMARK INTRA:                  -1.135
REMARK UNBOUND:                -0.923
REMARK SMILES Cn1ncc2c(Nc3ccc(F)c(F)c3F)nc(NCC[NH+](C)C)nc21
REMARK SMILES IDX 19 1 20 3 21 4 22 5 23 6 24 7 18 9 17 10 25 11 6 12 26 13
REMARK SMILES IDX 5 14 2 15 4 16 3 17 1 18 7 19 8 21 9 22 15 23 10 24 13 25
REMARK SMILES IDX 11 26 16 27 14 28 12 29
REMARK H PARENT 19 2 22 8 7 20
ROOT
ATOM      1  N   UNL     1      -0.505  43.452  53.273  1.00  0.00    -0.348 N 
ATOM      2  H   UNL     1      -0.833  44.186  52.639  1.00  0.00     0.163 HD
ENDROOT
BRANCH   1   3
ATOM      3  C   UNL     1       0.522  42.591  52.714  1.00  0.00     0.177 C 
BRANCH   3   4
ATOM      4  C   UNL     1       0.923  43.055  51.298  1.00  0.00     0.283 C 
BRANCH   4   5
ATOM      5  N   UNL     1       2.324  43.641  51.211  1.00  0.00    -0.338 N 
ATOM      6  C   UNL     1       3.303  42.996  52.151  1.00  0.00     0.332 C 
ATOM      7  C   UNL     1       2.363  45.141  51.276  1.00  0.00     0.332 C 
ATOM      8  H   UNL     1       2.645  43.397  50.264  1.00  0.00     0.347 HD
ENDBRANCH   4   5
ENDBRANCH   3   4
ENDBRANCH   1   3
BRANCH   1   9
ATOM      9  C   UNL     1      -0.092  44.185  54.385  1.00  0.00     0.226 A 
ATOM     10  N   UNL     1       1.238  44.258  54.519  1.00  0.00    -0.195 NA
ATOM     11  N   UNL     1      -1.003  44.719  55.211  1.00  0.00    -0.193 NA
ATOM     12  C   UNL     1       1.799  44.896  55.576  1.00  0.00     0.147 A 
ATOM     13  C   UNL     1      -0.432  45.396  56.224  1.00  0.00     0.165 A 
ATOM     14  C   UNL     1       0.925  45.524  56.469  1.00  0.00     0.082 A 
ATOM     15  N   UNL     1      -1.057  46.098  57.219  1.00  0.00    -0.250 N 
ATOM     16  C   UNL     1       0.999  46.294  57.647  1.00  0.00     0.149 A 
ATOM     17  N   UNL     1      -0.204  46.646  58.111  1.00  0.00    -0.179 NA
ATOM     18  C   UNL     1      -2.474  46.299  57.390  1.00  0.00     0.176 C 
BRANCH  12  19
ATOM     19  N   UNL     1       3.190  44.955  55.722  1.00  0.00    -0.337 N 
ATOM     20  H   UNL     1       3.559  44.439  56.511  1.00  0.00     0.168 HD
BRANCH  19  21
ATOM     21  C   UNL     1       4.149  45.655  54.964  1.00  0.00     0.079 A 
ATOM     22  C   UNL     1       3.753  46.854  54.342  1.00  0.00     0.032 A 
ATOM     23  C   UNL     1       5.458  45.196  54.727  1.00  0.00     0.185 A 
ATOM     24  C   UNL     1       4.631  47.566  53.518  1.00  0.00     0.045 A 
ATOM     25  C   UNL     1       6.331  45.905  53.906  1.00  0.00     0.196 A 
ATOM     26  C   UNL     1       5.916  47.082  53.304  1.00  0.00     0.162 A 
ATOM     27  F   UNL     1       5.927  44.098  55.341  1.00  0.00    -0.201 F 
ATOM     28  F   UNL     1       7.576  45.449  53.705  1.00  0.00    -0.200 F 
ATOM     29  F   UNL     1       6.753  47.766  52.512  1.00  0.00    -0.204 F 
ENDBRANCH  19  21
ENDBRANCH  12  19
ENDBRANCH   1   9
TORSDOF 6
ENDMDL
MODEL 19
REMARK VINA RESULT:    -7.791      2.748      5.067
REMARK INTER + INTRA:         -11.446
REMARK INTER:                 -10.384
REMARK INTRA:                  -1.062
REMARK UNBOUND:                -0.923
REMARK SMILES Cn1ncc2c(Nc3ccc(F)c(F)c3F)nc(NCC[NH+](C)C)nc21
REMARK SMILES IDX 19 1 20 3 21 4 22 5 23 6 24 7 18 9 17 10 25 11 6 12 26 13
REMARK SMILES IDX 5 14 2 15 4 16 3 17 1 18 7 19 8 21 9 22 15 23 10 24 13 25
REMARK SMILES IDX 11 26 16 27 14 28 12 29
REMARK H PARENT 19 2 22 8 7 20
ROOT
ATOM      1  N   UNL     1       6.093  43.953  49.582  1.00  0.00    -0.348 N 
ATOM      2  H   UNL     1       6.233  44.445  48.696  1.00  0.00     0.163 HD
ENDROOT
BRANCH   1   3
ATOM      3  C   UNL     1       6.764  42.668  49.668  1.00  0.00     0.177 C 
BRANCH   3   4
ATOM      4  C   UNL     1       5.908  41.648  50.446  1.00  0.00     0.283 C 
BRANCH   4   5
ATOM      5  N   UNL     1       4.410  41.909  50.372  1.00  0.00    -0.338 N 
ATOM      6  C   UNL     1       3.801  42.282  51.694  1.00  0.00     0.332 C 
ATOM      7  C   UNL     1       3.638  40.835  49.662  1.00  0.00     0.332 C 
ATOM      8  H   UNL     1       4.326  42.746  49.780  1.00  0.00     0.347 HD
ENDBRANCH   4   5
ENDBRANCH   3   4
ENDBRANCH   1   3
BRANCH   1   9
ATOM      9  C   UNL     1       6.538  44.891  50.513  1.00  0.00     0.226 A 
ATOM     10  N   UNL     1       5.551  45.485  51.193  1.00  0.00    -0.195 NA
ATOM     11  N   UNL     1       7.850  45.138  50.640  1.00  0.00    -0.193 NA
ATOM     12  C   UNL     1       5.816  46.457  52.103  1.00  0.00     0.147 A 
ATOM     13  C   UNL     1       8.101  46.062  51.585  1.00  0.00     0.165 A 
ATOM     14  C   UNL     1       7.162  46.750  52.336  1.00  0.00     0.082 A 
ATOM     15  N   UNL     1       9.321  46.519  52.006  1.00  0.00    -0.250 N 
ATOM     16  C   UNL     1       7.926  47.611  53.151  1.00  0.00     0.149 A 
ATOM     17  N   UNL     1       9.241  47.477  52.954  1.00  0.00    -0.179 NA
ATOM     18  C   UNL     1      10.620  46.087  51.554  1.00  0.00     0.176 C 
BRANCH  12  19
ATOM     19  N   UNL     1       4.778  47.089  52.799  1.00  0.00    -0.337 N 
ATOM     20  H   UNL     1       4.857  48.095  52.862  1.00  0.00     0.168 HD
BRANCH  19  21
ATOM     21  C   UNL     1       3.666  46.533  53.461  1.00  0.00     0.079 A 
ATOM     22  C   UNL     1       3.785  46.259  54.838  1.00  0.00     0.032 A 
ATOM     23  C   UNL     1       2.468  46.165  52.822  1.00  0.00     0.185 A 
ATOM     24  C   UNL     1       2.745  45.644  55.544  1.00  0.00     0.045 A 
ATOM     25  C   UNL     1       1.435  45.552  53.526  1.00  0.00     0.196 A 
ATOM     26  C   UNL     1       1.578  45.292  54.879  1.00  0.00     0.162 A 
ATOM     27  F   UNL     1       2.258  46.457  51.528  1.00  0.00    -0.201 F 
ATOM     28  F   UNL     1       0.300  45.221  52.892  1.00  0.00    -0.200 F 
ATOM     29  F   UNL     1       0.586  44.701  55.561  1.00  0.00    -0.204 F 
ENDBRANCH  19  21
ENDBRANCH  12  19
ENDBRANCH   1   9
TORSDOF 6
ENDMDL
MODEL 20
REMARK VINA RESULT:    -7.768      2.475      5.773
REMARK INTER + INTRA:         -11.416
REMARK INTER:                 -10.557
REMARK INTRA:                  -0.859
REMARK UNBOUND:                -0.923
REMARK SMILES Cn1ncc2c(Nc3ccc(F)c(F)c3F)nc(NCC[NH+](C)C)nc21
REMARK SMILES IDX 19 1 20 3 21 4 22 5 23 6 24 7 18 9 17 10 25 11 6 12 26 13
REMARK SMILES IDX 5 14 2 15 4 16 3 17 1 18 7 19 8 21 9 22 15 23 10 24 13 25
REMARK SMILES IDX 11 26 16 27 14 28 12 29
REMARK H PARENT 19 2 22 8 7 20
ROOT
ATOM      1  N   UNL     1       5.752  46.807  52.767  1.00  0.00    -0.348 N 
ATOM      2  H   UNL     1       5.510  46.581  53.736  1.00  0.00     0.163 HD
ENDROOT
BRANCH   1   3
ATOM      3  C   UNL     1       7.048  47.442  52.605  1.00  0.00     0.177 C 
BRANCH   3   4
ATOM      4  C   UNL     1       7.910  47.272  53.872  1.00  0.00     0.283 C 
BRANCH   4   5
ATOM      5  N   UNL     1       9.402  47.462  53.638  1.00  0.00    -0.338 N 
ATOM      6  C   UNL     1       9.919  46.721  52.438  1.00  0.00     0.332 C 
ATOM      7  C   UNL     1      10.245  47.242  54.861  1.00  0.00     0.332 C 
ATOM      8  H   UNL     1       9.500  48.461  53.412  1.00  0.00     0.347 HD
ENDBRANCH   4   5
ENDBRANCH   3   4
ENDBRANCH   1   3
BRANCH   1   9
ATOM      9  C   UNL     1       5.643  45.566  52.140  1.00  0.00     0.226 A 
ATOM     10  N   UNL     1       4.628  44.820  52.592  1.00  0.00    -0.195 NA
ATOM     11  N   UNL     1       6.526  45.215  51.194  1.00  0.00    -0.193 NA
ATOM     12  C   UNL     1       4.416  43.567  52.116  1.00  0.00     0.147 A 
ATOM     13  C   UNL     1       6.270  43.993  50.692  1.00  0.00     0.165 A 
ATOM     14  C   UNL     1       5.262  43.131  51.092  1.00  0.00     0.082 A 
ATOM     15  N   UNL     1       6.937  43.343  49.688  1.00  0.00    -0.250 N 
ATOM     16  C   UNL     1       5.436  41.988  50.287  1.00  0.00     0.149 A 
ATOM     17  N   UNL     1       6.455  42.108  49.431  1.00  0.00    -0.179 NA
ATOM     18  C   UNL     1       8.050  43.836  48.917  1.00  0.00     0.176 C 
BRANCH  12  19
ATOM     19  N   UNL     1       3.364  42.783  52.605  1.00  0.00    -0.337 N 
ATOM     20  H   UNL     1       3.643  41.897  53.005  1.00  0.00     0.168 HD
BRANCH  19  21
ATOM     21  C   UNL     1       1.976  43.022  52.587  1.00  0.00     0.079 A 
ATOM     22  C   UNL     1       1.339  43.316  53.808  1.00  0.00     0.032 A 
ATOM     23  C   UNL     1       1.170  42.913  51.439  1.00  0.00     0.185 A 
ATOM     24  C   UNL     1      -0.046  43.496  53.876  1.00  0.00     0.045 A 
ATOM     25  C   UNL     1      -0.208  43.091  51.508  1.00  0.00     0.196 A 
ATOM     26  C   UNL     1      -0.811  43.378  52.722  1.00  0.00     0.162 A 
ATOM     27  F   UNL     1       1.716  42.703  50.230  1.00  0.00    -0.201 F 
ATOM     28  F   UNL     1      -0.951  42.991  50.395  1.00  0.00    -0.200 F 
ATOM     29  F   UNL     1      -2.138  43.549  52.793  1.00  0.00    -0.204 F 
ENDBRANCH  19  21
ENDBRANCH  12  19
ENDBRANCH   1   9
TORSDOF 6
ENDMDL
