MODEL 1
REMARK VINA RESULT:    -8.663      0.000      0.000
REMARK INTER + INTRA:         -12.844
REMARK INTER:                 -11.701
REMARK INTRA:                  -1.142
REMARK UNBOUND:                -1.142
REMARK SMILES CCCCNc1nc(Nc2ccc(Cl)cc2C)c2cnn(C)c2n1
REMARK SMILES IDX 5 1 4 3 3 4 2 5 1 6 6 7 7 8 24 9 8 10 23 11 18 12 21 13
REMARK SMILES IDX 19 14 20 15 22 16 9 17 10 19 11 20 16 21 12 22 15 23 13 24
REMARK SMILES IDX 17 25 14 26
REMARK H PARENT 5 2 9 18
ROOT
ATOM      1  N   UNL     1       3.332  45.157  52.279  1.00  0.00    -0.354 N 
ATOM      2  H   UNL     1       2.603  45.040  51.581  1.00  0.00     0.163 HD
ENDROOT
BRANCH   1   3
ATOM      3  C   UNL     1       3.177  44.358  53.480  1.00  0.00     0.116 C 
BRANCH   3   4
ATOM      4  C   UNL     1       3.023  45.267  54.702  1.00  0.00     0.021 C 
BRANCH   4   5
ATOM      5  C   UNL     1       4.324  45.907  55.200  1.00  0.00    -0.002 C 
ATOM      6  C   UNL     1       5.481  44.926  55.310  1.00  0.00     0.004 C 
ENDBRANCH   4   5
ENDBRANCH   3   4
ENDBRANCH   1   3
BRANCH   1   7
ATOM      7  C   UNL     1       4.522  44.944  51.593  1.00  0.00     0.226 A 
ATOM      8  N   UNL     1       5.444  45.906  51.771  1.00  0.00    -0.195 NA
ATOM      9  N   UNL     1       4.673  43.847  50.839  1.00  0.00    -0.193 NA
ATOM     10  C   UNL     1       6.663  45.821  51.174  1.00  0.00     0.147 A 
ATOM     11  C   UNL     1       5.880  43.776  50.262  1.00  0.00     0.165 A 
ATOM     12  C   UNL     1       6.902  44.697  50.376  1.00  0.00     0.082 A 
ATOM     13  N   UNL     1       6.355  42.784  49.447  1.00  0.00    -0.250 N 
ATOM     14  C   UNL     1       7.939  44.172  49.578  1.00  0.00     0.149 A 
ATOM     15  N   UNL     1       7.619  43.003  49.011  1.00  0.00    -0.179 NA
ATOM     16  C   UNL     1       5.658  41.591  49.037  1.00  0.00     0.176 C 
BRANCH  10  17
ATOM     17  N   UNL     1       7.644  46.814  51.368  1.00  0.00    -0.339 N 
ATOM     18  H   UNL     1       8.151  46.997  50.511  1.00  0.00     0.168 HD
BRANCH  17  19
ATOM     19  C   UNL     1       8.433  46.986  52.526  1.00  0.00     0.043 A 
ATOM     20  C   UNL     1       7.876  47.686  53.612  1.00  0.00     0.028 A 
ATOM     21  C   UNL     1       9.769  46.546  52.612  1.00  0.00    -0.026 A 
ATOM     22  C   UNL     1       8.623  47.950  54.762  1.00  0.00     0.022 A 
ATOM     23  C   UNL     1      10.517  46.832  53.769  1.00  0.00     0.026 A 
ATOM     24  C   UNL     1       9.944  47.525  54.832  1.00  0.00     0.041 A 
ATOM     25  C   UNL     1      10.443  45.780  51.506  1.00  0.00     0.046 C 
ATOM     26  Cl  UNL     1      10.874  47.856  56.241  1.00  0.00    -0.084 Cl
ENDBRANCH  17  19
ENDBRANCH  10  17
ENDBRANCH   1   7
TORSDOF 6
ENDMDL
MODEL 2
REMARK VINA RESULT:    -8.527      1.043      1.358
REMARK INTER + INTRA:         -12.661
REMARK INTER:                 -11.779
REMARK INTRA:                  -0.882
REMARK UNBOUND:                -1.142
REMARK SMILES CCCCNc1nc(Nc2ccc(Cl)cc2C)c2cnn(C)c2n1
REMARK SMILES IDX 5 1 4 3 3 4 2 5 1 6 6 7 7 8 24 9 8 10 23 11 18 12 21 13
REMARK SMILES IDX 19 14 20 15 22 16 9 17 10 19 11 20 16 21 12 22 15 23 13 24
REMARK SMILES IDX 17 25 14 26
REMARK H PARENT 5 2 9 18
ROOT
ATOM      1  N   UNL     1       3.697  43.831  53.232  1.00  0.00    -0.354 N 
ATOM      2  H   UNL     1       3.846  42.917  53.648  1.00  0.00     0.163 HD
ENDROOT
BRANCH   1   3
ATOM      3  C   UNL     1       3.670  44.942  54.167  1.00  0.00     0.116 C 
BRANCH   3   4
ATOM      4  C   UNL     1       2.335  45.684  54.066  1.00  0.00     0.021 C 
BRANCH   4   5
ATOM      5  C   UNL     1       2.055  46.328  52.704  1.00  0.00    -0.002 C 
ATOM      6  C   UNL     1       3.029  47.439  52.344  1.00  0.00     0.004 C 
ENDBRANCH   4   5
ENDBRANCH   3   4
ENDBRANCH   1   3
BRANCH   1   7
ATOM      7  C   UNL     1       4.664  43.937  52.239  1.00  0.00     0.226 A 
ATOM      8  N   UNL     1       5.442  45.028  52.336  1.00  0.00    -0.195 NA
ATOM      9  N   UNL     1       4.760  42.991  51.295  1.00  0.00    -0.193 NA
ATOM     10  C   UNL     1       6.441  45.253  51.442  1.00  0.00     0.147 A 
ATOM     11  C   UNL     1       5.752  43.224  50.425  1.00  0.00     0.165 A 
ATOM     12  C   UNL     1       6.613  44.304  50.430  1.00  0.00     0.082 A 
ATOM     13  N   UNL     1       6.122  42.451  49.358  1.00  0.00    -0.250 N 
ATOM     14  C   UNL     1       7.450  44.090  49.315  1.00  0.00     0.149 A 
ATOM     15  N   UNL     1       7.163  42.961  48.658  1.00  0.00    -0.179 NA
ATOM     16  C   UNL     1       5.526  41.207  48.943  1.00  0.00     0.176 C 
BRANCH  10  17
ATOM     17  N   UNL     1       7.275  46.385  51.546  1.00  0.00    -0.339 N 
ATOM     18  H   UNL     1       7.644  46.649  50.641  1.00  0.00     0.168 HD
BRANCH  17  19
ATOM     19  C   UNL     1       8.160  46.669  52.609  1.00  0.00     0.043 A 
ATOM     20  C   UNL     1       7.641  47.292  53.759  1.00  0.00     0.028 A 
ATOM     21  C   UNL     1       9.545  46.415  52.538  1.00  0.00    -0.026 A 
ATOM     22  C   UNL     1       8.471  47.661  54.818  1.00  0.00     0.022 A 
ATOM     23  C   UNL     1      10.374  46.807  53.606  1.00  0.00     0.026 A 
ATOM     24  C   UNL     1       9.837  47.420  54.734  1.00  0.00     0.041 A 
ATOM     25  C   UNL     1      10.186  45.742  51.355  1.00  0.00     0.046 C 
ATOM     26  Cl  UNL     1      10.868  47.882  56.032  1.00  0.00    -0.084 Cl
ENDBRANCH  17  19
ENDBRANCH  10  17
ENDBRANCH   1   7
TORSDOF 6
ENDMDL
MODEL 3
REMARK VINA RESULT:    -8.504      1.319      4.443
REMARK INTER + INTRA:         -12.629
REMARK INTER:                 -11.911
REMARK INTRA:                  -0.718
REMARK UNBOUND:                -1.142
REMARK SMILES CCCCNc1nc(Nc2ccc(Cl)cc2C)c2cnn(C)c2n1
REMARK SMILES IDX 5 1 4 3 3 4 2 5 1 6 6 7 7 8 24 9 8 10 23 11 18 12 21 13
REMARK SMILES IDX 19 14 20 15 22 16 9 17 10 19 11 20 16 21 12 22 15 23 13 24
REMARK SMILES IDX 17 25 14 26
REMARK H PARENT 5 2 9 18
ROOT
ATOM      1  N   UNL     1       6.530  42.394  49.091  1.00  0.00    -0.354 N 
ATOM      2  H   UNL     1       7.510  42.236  49.307  1.00  0.00     0.163 HD
ENDROOT
BRANCH   1   3
ATOM      3  C   UNL     1       5.728  41.195  48.933  1.00  0.00     0.116 C 
BRANCH   3   4
ATOM      4  C   UNL     1       5.013  41.213  47.579  1.00  0.00     0.021 C 
BRANCH   4   5
ATOM      5  C   UNL     1       5.756  41.961  46.466  1.00  0.00    -0.002 C 
ATOM      6  C   UNL     1       4.994  42.008  45.151  1.00  0.00     0.004 C 
ENDBRANCH   4   5
ENDBRANCH   3   4
ENDBRANCH   1   3
BRANCH   1   7
ATOM      7  C   UNL     1       6.080  43.263  50.079  1.00  0.00     0.226 A 
ATOM      8  N   UNL     1       6.857  44.345  50.260  1.00  0.00    -0.195 NA
ATOM      9  N   UNL     1       4.956  42.986  50.753  1.00  0.00    -0.193 NA
ATOM     10  C   UNL     1       6.530  45.289  51.183  1.00  0.00     0.147 A 
ATOM     11  C   UNL     1       4.646  43.928  51.653  1.00  0.00     0.165 A 
ATOM     12  C   UNL     1       5.362  45.077  51.922  1.00  0.00     0.082 A 
ATOM     13  N   UNL     1       3.563  43.955  52.490  1.00  0.00    -0.250 N 
ATOM     14  C   UNL     1       4.633  45.715  52.946  1.00  0.00     0.149 A 
ATOM     15  N   UNL     1       3.531  45.042  53.297  1.00  0.00    -0.179 NA
ATOM     16  C   UNL     1       2.512  42.973  52.577  1.00  0.00     0.176 C 
BRANCH  10  17
ATOM     17  N   UNL     1       7.327  46.437  51.368  1.00  0.00    -0.339 N 
ATOM     18  H   UNL     1       7.705  46.764  50.488  1.00  0.00     0.168 HD
BRANCH  17  19
ATOM     19  C   UNL     1       8.183  46.684  52.463  1.00  0.00     0.043 A 
ATOM     20  C   UNL     1       7.654  47.350  53.584  1.00  0.00     0.028 A 
ATOM     21  C   UNL     1       9.554  46.353  52.452  1.00  0.00    -0.026 A 
ATOM     22  C   UNL     1       8.461  47.686  54.673  1.00  0.00     0.022 A 
ATOM     23  C   UNL     1      10.360  46.711  53.548  1.00  0.00     0.026 A 
ATOM     24  C   UNL     1       9.813  47.368  54.647  1.00  0.00     0.041 A 
ATOM     25  C   UNL     1      10.203  45.630  51.303  1.00  0.00     0.046 C 
ATOM     26  Cl  UNL     1      10.816  47.788  55.981  1.00  0.00    -0.084 Cl
ENDBRANCH  17  19
ENDBRANCH  10  17
ENDBRANCH   1   7
TORSDOF 6
ENDMDL
MODEL 4
REMARK VINA RESULT:    -8.313      0.988      1.371
REMARK INTER + INTRA:         -12.371
REMARK INTER:                 -11.620
REMARK INTRA:                  -0.751
REMARK UNBOUND:                -1.142
REMARK SMILES CCCCNc1nc(Nc2ccc(Cl)cc2C)c2cnn(C)c2n1
REMARK SMILES IDX 5 1 4 3 3 4 2 5 1 6 6 7 7 8 24 9 8 10 23 11 18 12 21 13
REMARK SMILES IDX 19 14 20 15 22 16 9 17 10 19 11 20 16 21 12 22 15 23 13 24
REMARK SMILES IDX 17 25 14 26
REMARK H PARENT 5 2 9 18
ROOT
ATOM      1  N   UNL     1       3.526  43.874  53.127  1.00  0.00    -0.354 N 
ATOM      2  H   UNL     1       3.944  43.372  53.905  1.00  0.00     0.163 HD
ENDROOT
BRANCH   1   3
ATOM      3  C   UNL     1       2.904  45.140  53.469  1.00  0.00     0.116 C 
BRANCH   3   4
ATOM      4  C   UNL     1       2.614  45.196  54.972  1.00  0.00     0.021 C 
BRANCH   4   5
ATOM      5  C   UNL     1       1.146  44.975  55.355  1.00  0.00    -0.002 C 
ATOM      6  C   UNL     1       0.840  45.306  56.808  1.00  0.00     0.004 C 
ENDBRANCH   4   5
ENDBRANCH   3   4
ENDBRANCH   1   3
BRANCH   1   7
ATOM      7  C   UNL     1       4.535  43.966  52.175  1.00  0.00     0.226 A 
ATOM      8  N   UNL     1       5.306  45.061  52.288  1.00  0.00    -0.195 NA
ATOM      9  N   UNL     1       4.672  43.005  51.251  1.00  0.00    -0.193 NA
ATOM     10  C   UNL     1       6.342  45.274  51.433  1.00  0.00     0.147 A 
ATOM     11  C   UNL     1       5.700  43.227  50.421  1.00  0.00     0.165 A 
ATOM     12  C   UNL     1       6.558  44.308  50.445  1.00  0.00     0.082 A 
ATOM     13  N   UNL     1       6.116  42.438  49.383  1.00  0.00    -0.250 N 
ATOM     14  C   UNL     1       7.442  44.078  49.370  1.00  0.00     0.149 A 
ATOM     15  N   UNL     1       7.186  42.938  48.719  1.00  0.00    -0.179 NA
ATOM     16  C   UNL     1       5.541  41.185  48.963  1.00  0.00     0.176 C 
BRANCH  10  17
ATOM     17  N   UNL     1       7.169  46.409  51.554  1.00  0.00    -0.339 N 
ATOM     18  H   UNL     1       7.521  46.700  50.651  1.00  0.00     0.168 HD
BRANCH  17  19
ATOM     19  C   UNL     1       8.069  46.671  52.610  1.00  0.00     0.043 A 
ATOM     20  C   UNL     1       7.565  47.267  53.781  1.00  0.00     0.028 A 
ATOM     21  C   UNL     1       9.453  46.423  52.514  1.00  0.00    -0.026 A 
ATOM     22  C   UNL     1       8.410  47.615  54.836  1.00  0.00     0.022 A 
ATOM     23  C   UNL     1      10.297  46.793  53.577  1.00  0.00     0.026 A 
ATOM     24  C   UNL     1       9.775  47.380  54.727  1.00  0.00     0.041 A 
ATOM     25  C   UNL     1      10.078  45.778  51.306  1.00  0.00     0.046 C 
ATOM     26  Cl  UNL     1      10.823  47.816  56.019  1.00  0.00    -0.084 Cl
ENDBRANCH  17  19
ENDBRANCH  10  17
ENDBRANCH   1   7
TORSDOF 6
ENDMDL
MODEL 5
REMARK VINA RESULT:    -8.254      3.037      5.715
REMARK INTER + INTRA:         -12.292
REMARK INTER:                 -11.553
REMARK INTRA:                  -0.739
REMARK UNBOUND:                -1.142
REMARK SMILES CCCCNc1nc(Nc2ccc(Cl)cc2C)c2cnn(C)c2n1
REMARK SMILES IDX 5 1 4 3 3 4 2 5 1 6 6 7 7 8 24 9 8 10 23 11 18 12 21 13
REMARK SMILES IDX 19 14 20 15 22 16 9 17 10 19 11 20 16 21 12 22 15 23 13 24
REMARK SMILES IDX 17 25 14 26
REMARK H PARENT 5 2 9 18
ROOT
ATOM      1  N   UNL     1       4.752  46.946  54.944  1.00  0.00    -0.354 N 
ATOM      2  H   UNL     1       4.172  47.556  54.375  1.00  0.00     0.163 HD
ENDROOT
BRANCH   1   3
ATOM      3  C   UNL     1       4.135  45.693  55.340  1.00  0.00     0.116 C 
BRANCH   3   4
ATOM      4  C   UNL     1       2.626  45.744  55.079  1.00  0.00     0.021 C 
BRANCH   4   5
ATOM      5  C   UNL     1       2.194  45.261  53.689  1.00  0.00    -0.002 C 
ATOM      6  C   UNL     1       2.072  46.381  52.667  1.00  0.00     0.004 C 
ENDBRANCH   4   5
ENDBRANCH   3   4
ENDBRANCH   1   3
BRANCH   1   7
ATOM      7  C   UNL     1       5.936  46.805  54.229  1.00  0.00     0.226 A 
ATOM      8  N   UNL     1       5.782  46.279  53.001  1.00  0.00    -0.195 NA
ATOM      9  N   UNL     1       7.097  47.185  54.775  1.00  0.00    -0.193 NA
ATOM     10  C   UNL     1       6.852  46.098  52.182  1.00  0.00     0.147 A 
ATOM     11  C   UNL     1       8.141  47.006  53.954  1.00  0.00     0.165 A 
ATOM     12  C   UNL     1       8.102  46.482  52.677  1.00  0.00     0.082 A 
ATOM     13  N   UNL     1       9.454  47.302  54.200  1.00  0.00    -0.250 N 
ATOM     14  C   UNL     1       9.447  46.492  52.252  1.00  0.00     0.149 A 
ATOM     15  N   UNL     1      10.279  46.995  53.171  1.00  0.00    -0.179 NA
ATOM     16  C   UNL     1      10.001  47.882  55.401  1.00  0.00     0.176 C 
BRANCH  10  17
ATOM     17  N   UNL     1       6.699  45.565  50.886  1.00  0.00    -0.339 N 
ATOM     18  H   UNL     1       6.573  46.301  50.202  1.00  0.00     0.168 HD
BRANCH  17  19
ATOM     19  C   UNL     1       6.015  44.377  50.553  1.00  0.00     0.043 A 
ATOM     20  C   UNL     1       4.754  44.149  51.136  1.00  0.00     0.028 A 
ATOM     21  C   UNL     1       6.568  43.385  49.718  1.00  0.00    -0.026 A 
ATOM     22  C   UNL     1       4.054  42.964  50.903  1.00  0.00     0.022 A 
ATOM     23  C   UNL     1       5.860  42.188  49.504  1.00  0.00     0.026 A 
ATOM     24  C   UNL     1       4.613  41.986  50.090  1.00  0.00     0.041 A 
ATOM     25  C   UNL     1       7.903  43.547  49.043  1.00  0.00     0.046 C 
ATOM     26  Cl  UNL     1       3.759  40.520  49.807  1.00  0.00    -0.084 Cl
ENDBRANCH  17  19
ENDBRANCH  10  17
ENDBRANCH   1   7
TORSDOF 6
ENDMDL
MODEL 6
REMARK VINA RESULT:    -8.242      1.999      5.076
REMARK INTER + INTRA:         -12.275
REMARK INTER:                 -11.257
REMARK INTRA:                  -1.018
REMARK UNBOUND:                -1.142
REMARK SMILES CCCCNc1nc(Nc2ccc(Cl)cc2C)c2cnn(C)c2n1
REMARK SMILES IDX 5 1 4 3 3 4 2 5 1 6 6 7 7 8 24 9 8 10 23 11 18 12 21 13
REMARK SMILES IDX 19 14 20 15 22 16 9 17 10 19 11 20 16 21 12 22 15 23 13 24
REMARK SMILES IDX 17 25 14 26
REMARK H PARENT 5 2 9 18
ROOT
ATOM      1  N   UNL     1       4.179  41.457  51.292  1.00  0.00    -0.354 N 
ATOM      2  H   UNL     1       3.909  40.719  51.935  1.00  0.00     0.163 HD
ENDROOT
BRANCH   1   3
ATOM      3  C   UNL     1       3.898  41.196  49.892  1.00  0.00     0.116 C 
BRANCH   3   4
ATOM      4  C   UNL     1       5.201  41.183  49.087  1.00  0.00     0.021 C 
BRANCH   4   5
ATOM      5  C   UNL     1       6.463  41.508  49.894  1.00  0.00    -0.002 C 
ATOM      6  C   UNL     1       7.068  42.862  49.559  1.00  0.00     0.004 C 
ENDBRANCH   4   5
ENDBRANCH   3   4
ENDBRANCH   1   3
BRANCH   1   7
ATOM      7  C   UNL     1       3.581  42.607  51.795  1.00  0.00     0.226 A 
ATOM      8  N   UNL     1       4.286  43.734  51.589  1.00  0.00    -0.195 NA
ATOM      9  N   UNL     1       2.399  42.529  52.420  1.00  0.00    -0.193 NA
ATOM     10  C   UNL     1       3.815  44.937  52.013  1.00  0.00     0.147 A 
ATOM     11  C   UNL     1       1.947  43.723  52.826  1.00  0.00     0.165 A 
ATOM     12  C   UNL     1       2.579  44.940  52.666  1.00  0.00     0.082 A 
ATOM     13  N   UNL     1       0.774  43.991  53.479  1.00  0.00    -0.250 N 
ATOM     14  C   UNL     1       1.709  45.870  53.271  1.00  0.00     0.149 A 
ATOM     15  N   UNL     1       0.602  45.303  53.766  1.00  0.00    -0.179 NA
ATOM     16  C   UNL     1      -0.239  43.040  53.864  1.00  0.00     0.176 C 
BRANCH  10  17
ATOM     17  N   UNL     1       4.537  46.126  51.785  1.00  0.00    -0.339 N 
ATOM     18  H   UNL     1       4.366  46.482  50.853  1.00  0.00     0.168 HD
BRANCH  17  19
ATOM     19  C   UNL     1       5.836  46.411  52.258  1.00  0.00     0.043 A 
ATOM     20  C   UNL     1       6.927  46.131  51.415  1.00  0.00     0.028 A 
ATOM     21  C   UNL     1       6.086  46.901  53.557  1.00  0.00    -0.026 A 
ATOM     22  C   UNL     1       8.241  46.326  51.845  1.00  0.00     0.022 A 
ATOM     23  C   UNL     1       7.415  47.077  53.984  1.00  0.00     0.026 A 
ATOM     24  C   UNL     1       8.479  46.795  53.131  1.00  0.00     0.041 A 
ATOM     25  C   UNL     1       4.982  47.239  54.521  1.00  0.00     0.046 C 
ATOM     26  Cl  UNL     1      10.096  47.028  53.671  1.00  0.00    -0.084 Cl
ENDBRANCH  17  19
ENDBRANCH  10  17
ENDBRANCH   1   7
TORSDOF 6
ENDMDL
MODEL 7
REMARK VINA RESULT:    -8.129      1.740      4.473
REMARK INTER + INTRA:         -12.123
REMARK INTER:                 -11.561
REMARK INTRA:                  -0.562
REMARK UNBOUND:                -1.142
REMARK SMILES CCCCNc1nc(Nc2ccc(Cl)cc2C)c2cnn(C)c2n1
REMARK SMILES IDX 5 1 4 3 3 4 2 5 1 6 6 7 7 8 24 9 8 10 23 11 18 12 21 13
REMARK SMILES IDX 19 14 20 15 22 16 9 17 10 19 11 20 16 21 12 22 15 23 13 24
REMARK SMILES IDX 17 25 14 26
REMARK H PARENT 5 2 9 18
ROOT
ATOM      1  N   UNL     1       4.586  41.984  50.838  1.00  0.00    -0.354 N 
ATOM      2  H   UNL     1       3.690  41.760  50.417  1.00  0.00     0.163 HD
ENDROOT
BRANCH   1   3
ATOM      3  C   UNL     1       5.749  41.683  50.023  1.00  0.00     0.116 C 
BRANCH   3   4
ATOM      4  C   UNL     1       5.311  41.244  48.623  1.00  0.00     0.021 C 
BRANCH   4   5
ATOM      5  C   UNL     1       5.934  42.041  47.471  1.00  0.00    -0.002 C 
ATOM      6  C   UNL     1       5.395  41.657  46.102  1.00  0.00     0.004 C 
ENDBRANCH   4   5
ENDBRANCH   3   4
ENDBRANCH   1   3
BRANCH   1   7
ATOM      7  C   UNL     1       4.480  43.316  51.221  1.00  0.00     0.226 A 
ATOM      8  N   UNL     1       5.620  44.019  51.104  1.00  0.00    -0.195 NA
ATOM      9  N   UNL     1       3.308  43.795  51.658  1.00  0.00    -0.193 NA
ATOM     10  C   UNL     1       5.660  45.339  51.427  1.00  0.00     0.147 A 
ATOM     11  C   UNL     1       3.363  45.098  51.967  1.00  0.00     0.165 A 
ATOM     12  C   UNL     1       4.471  45.918  51.882  1.00  0.00     0.082 A 
ATOM     13  N   UNL     1       2.344  45.888  52.426  1.00  0.00    -0.250 N 
ATOM     14  C   UNL     1       4.014  47.174  52.329  1.00  0.00     0.149 A 
ATOM     15  N   UNL     1       2.717  47.169  52.658  1.00  0.00    -0.179 NA
ATOM     16  C   UNL     1       0.981  45.489  52.670  1.00  0.00     0.176 C 
BRANCH  10  17
ATOM     17  N   UNL     1       6.845  46.090  51.290  1.00  0.00    -0.339 N 
ATOM     18  H   UNL     1       7.294  45.903  50.403  1.00  0.00     0.168 HD
BRANCH  17  19
ATOM     19  C   UNL     1       7.762  46.389  52.322  1.00  0.00     0.043 A 
ATOM     20  C   UNL     1       7.259  46.909  53.529  1.00  0.00     0.028 A 
ATOM     21  C   UNL     1       9.156  46.251  52.167  1.00  0.00    -0.026 A 
ATOM     22  C   UNL     1       8.115  47.289  54.564  1.00  0.00     0.022 A 
ATOM     23  C   UNL     1      10.010  46.653  53.212  1.00  0.00     0.026 A 
ATOM     24  C   UNL     1       9.489  47.163  54.398  1.00  0.00     0.041 A 
ATOM     25  C   UNL     1       9.782  45.694  50.918  1.00  0.00     0.046 C 
ATOM     26  Cl  UNL     1      10.550  47.639  55.666  1.00  0.00    -0.084 Cl
ENDBRANCH  17  19
ENDBRANCH  10  17
ENDBRANCH   1   7
TORSDOF 6
ENDMDL
MODEL 8
REMARK VINA RESULT:    -8.033      3.267      6.509
REMARK INTER + INTRA:         -11.993
REMARK INTER:                 -11.098
REMARK INTRA:                  -0.894
REMARK UNBOUND:                -1.142
REMARK SMILES CCCCNc1nc(Nc2ccc(Cl)cc2C)c2cnn(C)c2n1
REMARK SMILES IDX 5 1 4 3 3 4 2 5 1 6 6 7 7 8 24 9 8 10 23 11 18 12 21 13
REMARK SMILES IDX 19 14 20 15 22 16 9 17 10 19 11 20 16 21 12 22 15 23 13 24
REMARK SMILES IDX 17 25 14 26
REMARK H PARENT 5 2 9 18
ROOT
ATOM      1  N   UNL     1       6.583  47.316  52.548  1.00  0.00    -0.354 N 
ATOM      2  H   UNL     1       6.444  47.256  53.552  1.00  0.00     0.163 HD
ENDROOT
BRANCH   1   3
ATOM      3  C   UNL     1       7.886  47.798  52.129  1.00  0.00     0.116 C 
BRANCH   3   4
ATOM      4  C   UNL     1       8.828  47.885  53.333  1.00  0.00     0.021 C 
BRANCH   4   5
ATOM      5  C   UNL     1       9.946  46.836  53.356  1.00  0.00    -0.002 C 
ATOM      6  C   UNL     1      10.315  46.310  51.977  1.00  0.00     0.004 C 
ENDBRANCH   4   5
ENDBRANCH   3   4
ENDBRANCH   1   3
BRANCH   1   7
ATOM      7  C   UNL     1       6.250  46.057  52.062  1.00  0.00     0.226 A 
ATOM      8  N   UNL     1       5.212  45.477  52.690  1.00  0.00    -0.195 NA
ATOM      9  N   UNL     1       6.944  45.526  51.047  1.00  0.00    -0.193 NA
ATOM     10  C   UNL     1       4.766  44.250  52.310  1.00  0.00     0.147 A 
ATOM     11  C   UNL     1       6.489  44.320  50.681  1.00  0.00     0.165 A 
ATOM     12  C   UNL     1       5.433  43.633  51.248  1.00  0.00     0.082 A 
ATOM     13  N   UNL     1       6.964  43.521  49.678  1.00  0.00    -0.250 N 
ATOM     14  C   UNL     1       5.370  42.426  50.521  1.00  0.00     0.149 A 
ATOM     15  N   UNL     1       6.295  42.349  49.558  1.00  0.00    -0.179 NA
ATOM     16  C   UNL     1       8.059  43.809  48.786  1.00  0.00     0.176 C 
BRANCH  10  17
ATOM     17  N   UNL     1       3.667  43.641  52.949  1.00  0.00    -0.339 N 
ATOM     18  H   UNL     1       3.806  42.643  53.038  1.00  0.00     0.168 HD
BRANCH  17  19
ATOM     19  C   UNL     1       2.311  44.000  52.790  1.00  0.00     0.043 A 
ATOM     20  C   UNL     1       1.713  43.800  51.532  1.00  0.00     0.028 A 
ATOM     21  C   UNL     1       1.556  44.607  53.814  1.00  0.00    -0.026 A 
ATOM     22  C   UNL     1       0.397  44.195  51.286  1.00  0.00     0.022 A 
ATOM     23  C   UNL     1       0.236  45.016  53.550  1.00  0.00     0.026 A 
ATOM     24  C   UNL     1      -0.335  44.805  52.297  1.00  0.00     0.041 A 
ATOM     25  C   UNL     1       2.108  44.849  55.193  1.00  0.00     0.046 C 
ATOM     26  Cl  UNL     1      -1.955  45.303  51.998  1.00  0.00    -0.084 Cl
ENDBRANCH  17  19
ENDBRANCH  10  17
ENDBRANCH   1   7
TORSDOF 6
ENDMDL
MODEL 9
REMARK VINA RESULT:    -7.895      1.131      2.003
REMARK INTER + INTRA:         -11.806
REMARK INTER:                 -11.130
REMARK INTRA:                  -0.676
REMARK UNBOUND:                -1.142
REMARK SMILES CCCCNc1nc(Nc2ccc(Cl)cc2C)c2cnn(C)c2n1
REMARK SMILES IDX 5 1 4 3 3 4 2 5 1 6 6 7 7 8 24 9 8 10 23 11 18 12 21 13
REMARK SMILES IDX 19 14 20 15 22 16 9 17 10 19 11 20 16 21 12 22 15 23 13 24
REMARK SMILES IDX 17 25 14 26
REMARK H PARENT 5 2 9 18
ROOT
ATOM      1  N   UNL     1       3.143  43.686  52.975  1.00  0.00    -0.354 N 
ATOM      2  H   UNL     1       3.517  43.822  53.910  1.00  0.00     0.163 HD
ENDROOT
BRANCH   1   3
ATOM      3  C   UNL     1       1.971  44.480  52.654  1.00  0.00     0.116 C 
BRANCH   3   4
ATOM      4  C   UNL     1       1.697  45.491  53.771  1.00  0.00     0.021 C 
BRANCH   4   5
ATOM      5  C   UNL     1       2.230  45.090  55.151  1.00  0.00    -0.002 C 
ATOM      6  C   UNL     1       1.220  45.279  56.272  1.00  0.00     0.004 C 
ENDBRANCH   4   5
ENDBRANCH   3   4
ENDBRANCH   1   3
BRANCH   1   7
ATOM      7  C   UNL     1       4.224  43.883  52.124  1.00  0.00     0.226 A 
ATOM      8  N   UNL     1       4.847  45.064  52.282  1.00  0.00    -0.195 NA
ATOM      9  N   UNL     1       4.565  42.932  51.244  1.00  0.00    -0.193 NA
ATOM     10  C   UNL     1       5.931  45.385  51.527  1.00  0.00     0.147 A 
ATOM     11  C   UNL     1       5.638  43.262  50.513  1.00  0.00     0.165 A 
ATOM     12  C   UNL     1       6.357  44.438  50.591  1.00  0.00     0.082 A 
ATOM     13  N   UNL     1       6.246  42.512  49.542  1.00  0.00    -0.250 N 
ATOM     14  C   UNL     1       7.365  44.299  49.615  1.00  0.00     0.149 A 
ATOM     15  N   UNL     1       7.310  43.126  48.973  1.00  0.00    -0.179 NA
ATOM     16  C   UNL     1       5.866  41.193  49.102  1.00  0.00     0.176 C 
BRANCH  10  17
ATOM     17  N   UNL     1       6.603  46.613  51.698  1.00  0.00    -0.339 N 
ATOM     18  H   UNL     1       6.792  47.051  50.805  1.00  0.00     0.168 HD
BRANCH  17  19
ATOM     19  C   UNL     1       7.587  46.891  52.671  1.00  0.00     0.043 A 
ATOM     20  C   UNL     1       8.937  46.880  52.274  1.00  0.00     0.028 A 
ATOM     21  C   UNL     1       7.278  47.114  54.028  1.00  0.00    -0.026 A 
ATOM     22  C   UNL     1       9.964  47.080  53.199  1.00  0.00     0.022 A 
ATOM     23  C   UNL     1       8.322  47.299  54.953  1.00  0.00     0.026 A 
ATOM     24  C   UNL     1       9.651  47.285  54.537  1.00  0.00     0.041 A 
ATOM     25  C   UNL     1       5.864  47.156  54.540  1.00  0.00     0.046 C 
ATOM     26  Cl  UNL     1      10.911  47.523  55.683  1.00  0.00    -0.084 Cl
ENDBRANCH  17  19
ENDBRANCH  10  17
ENDBRANCH   1   7
TORSDOF 6
ENDMDL
MODEL 10
REMARK VINA RESULT:    -7.884      2.368      5.100
REMARK INTER + INTRA:         -11.792
REMARK INTER:                 -10.664
REMARK INTRA:                  -1.128
REMARK UNBOUND:                -1.142
REMARK SMILES CCCCNc1nc(Nc2ccc(Cl)cc2C)c2cnn(C)c2n1
REMARK SMILES IDX 5 1 4 3 3 4 2 5 1 6 6 7 7 8 24 9 8 10 23 11 18 12 21 13
REMARK SMILES IDX 19 14 20 15 22 16 9 17 10 19 11 20 16 21 12 22 15 23 13 24
REMARK SMILES IDX 17 25 14 26
REMARK H PARENT 5 2 9 18
ROOT
ATOM      1  N   UNL     1       4.062  41.496  51.382  1.00  0.00    -0.354 N 
ATOM      2  H   UNL     1       3.530  40.679  51.664  1.00  0.00     0.163 HD
ENDROOT
BRANCH   1   3
ATOM      3  C   UNL     1       4.544  41.481  50.013  1.00  0.00     0.116 C 
BRANCH   3   4
ATOM      4  C   UNL     1       6.075  41.520  49.993  1.00  0.00     0.021 C 
BRANCH   4   5
ATOM      5  C   UNL     1       6.681  42.764  49.335  1.00  0.00    -0.002 C 
ATOM      6  C   UNL     1       6.470  44.040  50.135  1.00  0.00     0.004 C 
ENDBRANCH   4   5
ENDBRANCH   3   4
ENDBRANCH   1   3
BRANCH   1   7
ATOM      7  C   UNL     1       3.250  42.580  51.696  1.00  0.00     0.226 A 
ATOM      8  N   UNL     1       3.864  43.546  52.401  1.00  0.00    -0.195 NA
ATOM      9  N   UNL     1       1.973  42.598  51.294  1.00  0.00    -0.193 NA
ATOM     10  C   UNL     1       3.196  44.674  52.764  1.00  0.00     0.147 A 
ATOM     11  C   UNL     1       1.331  43.717  51.655  1.00  0.00     0.165 A 
ATOM     12  C   UNL     1       1.858  44.773  52.372  1.00  0.00     0.082 A 
ATOM     13  N   UNL     1       0.030  44.052  51.392  1.00  0.00    -0.250 N 
ATOM     14  C   UNL     1       0.786  45.680  52.499  1.00  0.00     0.149 A 
ATOM     15  N   UNL     1      -0.332  45.254  51.900  1.00  0.00    -0.179 NA
ATOM     16  C   UNL     1      -0.933  43.272  50.657  1.00  0.00     0.176 C 
BRANCH  10  17
ATOM     17  N   UNL     1       3.835  45.701  53.488  1.00  0.00    -0.339 N 
ATOM     18  H   UNL     1       3.226  46.502  53.596  1.00  0.00     0.168 HD
BRANCH  17  19
ATOM     19  C   UNL     1       5.200  46.051  53.402  1.00  0.00     0.043 A 
ATOM     20  C   UNL     1       5.620  46.828  52.307  1.00  0.00     0.028 A 
ATOM     21  C   UNL     1       6.163  45.600  54.328  1.00  0.00    -0.026 A 
ATOM     22  C   UNL     1       6.966  47.153  52.126  1.00  0.00     0.022 A 
ATOM     23  C   UNL     1       7.518  45.920  54.125  1.00  0.00     0.026 A 
ATOM     24  C   UNL     1       7.910  46.693  53.035  1.00  0.00     0.041 A 
ATOM     25  C   UNL     1       5.804  44.776  55.534  1.00  0.00     0.046 C 
ATOM     26  Cl  UNL     1       9.572  47.081  52.812  1.00  0.00    -0.084 Cl
ENDBRANCH  17  19
ENDBRANCH  10  17
ENDBRANCH   1   7
TORSDOF 6
ENDMDL
MODEL 11
REMARK VINA RESULT:    -7.839      2.516      5.550
REMARK INTER + INTRA:         -11.731
REMARK INTER:                 -11.008
REMARK INTRA:                  -0.723
REMARK UNBOUND:                -1.142
REMARK SMILES CCCCNc1nc(Nc2ccc(Cl)cc2C)c2cnn(C)c2n1
REMARK SMILES IDX 5 1 4 3 3 4 2 5 1 6 6 7 7 8 24 9 8 10 23 11 18 12 21 13
REMARK SMILES IDX 19 14 20 15 22 16 9 17 10 19 11 20 16 21 12 22 15 23 13 24
REMARK SMILES IDX 17 25 14 26
REMARK H PARENT 5 2 9 18
ROOT
ATOM      1  N   UNL     1       8.074  46.204  50.627  1.00  0.00    -0.354 N 
ATOM      2  H   UNL     1       7.949  46.638  49.718  1.00  0.00     0.163 HD
ENDROOT
BRANCH   1   3
ATOM      3  C   UNL     1       8.431  47.109  51.704  1.00  0.00     0.116 C 
BRANCH   3   4
ATOM      4  C   UNL     1       9.818  46.758  52.251  1.00  0.00     0.021 C 
BRANCH   4   5
ATOM      5  C   UNL     1       9.979  46.932  53.765  1.00  0.00    -0.002 C 
ATOM      6  C   UNL     1       8.840  47.703  54.413  1.00  0.00     0.004 C 
ENDBRANCH   4   5
ENDBRANCH   3   4
ENDBRANCH   1   3
BRANCH   1   7
ATOM      7  C   UNL     1       6.906  45.481  50.844  1.00  0.00     0.226 A 
ATOM      8  N   UNL     1       5.920  46.184  51.428  1.00  0.00    -0.195 NA
ATOM      9  N   UNL     1       6.836  44.196  50.474  1.00  0.00    -0.193 NA
ATOM     10  C   UNL     1       4.715  45.610  51.687  1.00  0.00     0.147 A 
ATOM     11  C   UNL     1       5.641  43.647  50.730  1.00  0.00     0.165 A 
ATOM     12  C   UNL     1       4.559  44.270  51.319  1.00  0.00     0.082 A 
ATOM     13  N   UNL     1       5.241  42.365  50.465  1.00  0.00    -0.250 N 
ATOM     14  C   UNL     1       3.566  43.270  51.375  1.00  0.00     0.149 A 
ATOM     15  N   UNL     1       3.969  42.106  50.852  1.00  0.00    -0.179 NA
ATOM     16  C   UNL     1       6.020  41.326  49.841  1.00  0.00     0.176 C 
BRANCH  10  17
ATOM     17  N   UNL     1       3.668  46.342  52.281  1.00  0.00    -0.339 N 
ATOM     18  H   UNL     1       3.817  47.338  52.179  1.00  0.00     0.168 HD
BRANCH  17  19
ATOM     19  C   UNL     1       2.991  46.003  53.473  1.00  0.00     0.043 A 
ATOM     20  C   UNL     1       1.637  45.631  53.387  1.00  0.00     0.028 A 
ATOM     21  C   UNL     1       3.595  46.087  54.745  1.00  0.00    -0.026 A 
ATOM     22  C   UNL     1       0.890  45.350  54.532  1.00  0.00     0.022 A 
ATOM     23  C   UNL     1       2.828  45.816  55.893  1.00  0.00     0.026 A 
ATOM     24  C   UNL     1       1.489  45.448  55.782  1.00  0.00     0.041 A 
ATOM     25  C   UNL     1       5.039  46.464  54.932  1.00  0.00     0.046 C 
ATOM     26  Cl  UNL     1       0.572  45.112  57.198  1.00  0.00    -0.084 Cl
ENDBRANCH  17  19
ENDBRANCH  10  17
ENDBRANCH   1   7
TORSDOF 6
ENDMDL
MODEL 12
REMARK VINA RESULT:    -7.828      2.614      5.874
REMARK INTER + INTRA:         -11.717
REMARK INTER:                 -10.843
REMARK INTRA:                  -0.873
REMARK UNBOUND:                -1.142
REMARK SMILES CCCCNc1nc(Nc2ccc(Cl)cc2C)c2cnn(C)c2n1
REMARK SMILES IDX 5 1 4 3 3 4 2 5 1 6 6 7 7 8 24 9 8 10 23 11 18 12 21 13
REMARK SMILES IDX 19 14 20 15 22 16 9 17 10 19 11 20 16 21 12 22 15 23 13 24
REMARK SMILES IDX 17 25 14 26
REMARK H PARENT 5 2 9 18
ROOT
ATOM      1  N   UNL     1       7.704  46.320  50.774  1.00  0.00    -0.354 N 
ATOM      2  H   UNL     1       7.504  46.935  49.991  1.00  0.00     0.163 HD
ENDROOT
BRANCH   1   3
ATOM      3  C   UNL     1       8.087  46.986  52.005  1.00  0.00     0.116 C 
BRANCH   3   4
ATOM      4  C   UNL     1       9.588  46.811  52.255  1.00  0.00     0.021 C 
BRANCH   4   5
ATOM      5  C   UNL     1      10.005  46.825  53.730  1.00  0.00    -0.002 C 
ATOM      6  C   UNL     1       9.265  47.861  54.561  1.00  0.00     0.004 C 
ENDBRANCH   4   5
ENDBRANCH   3   4
ENDBRANCH   1   3
BRANCH   1   7
ATOM      7  C   UNL     1       6.585  45.502  50.885  1.00  0.00     0.226 A 
ATOM      8  N   UNL     1       5.486  46.126  51.344  1.00  0.00    -0.195 NA
ATOM      9  N   UNL     1       6.664  44.210  50.541  1.00  0.00    -0.193 NA
ATOM     10  C   UNL     1       4.313  45.453  51.488  1.00  0.00     0.147 A 
ATOM     11  C   UNL     1       5.499  43.563  50.683  1.00  0.00     0.165 A 
ATOM     12  C   UNL     1       4.311  44.099  51.139  1.00  0.00     0.082 A 
ATOM     13  N   UNL     1       5.238  42.248  50.409  1.00  0.00    -0.250 N 
ATOM     14  C   UNL     1       3.406  43.018  51.115  1.00  0.00     0.149 A 
ATOM     15  N   UNL     1       3.959  41.886  50.667  1.00  0.00    -0.179 NA
ATOM     16  C   UNL     1       6.165  41.270  49.897  1.00  0.00     0.176 C 
BRANCH  10  17
ATOM     17  N   UNL     1       3.151  46.102  51.951  1.00  0.00    -0.339 N 
ATOM     18  H   UNL     1       3.142  47.075  51.674  1.00  0.00     0.168 HD
BRANCH  17  19
ATOM     19  C   UNL     1       2.509  45.872  53.187  1.00  0.00     0.043 A 
ATOM     20  C   UNL     1       3.244  46.084  54.368  1.00  0.00     0.028 A 
ATOM     21  C   UNL     1       1.191  45.379  53.284  1.00  0.00    -0.026 A 
ATOM     22  C   UNL     1       2.693  45.812  55.621  1.00  0.00     0.022 A 
ATOM     23  C   UNL     1       0.652  45.093  54.552  1.00  0.00     0.026 A 
ATOM     24  C   UNL     1       1.399  45.313  55.707  1.00  0.00     0.041 A 
ATOM     25  C   UNL     1       0.327  45.135  52.077  1.00  0.00     0.046 C 
ATOM     26  Cl  UNL     1       0.717  44.966  57.248  1.00  0.00    -0.084 Cl
ENDBRANCH  17  19
ENDBRANCH  10  17
ENDBRANCH   1   7
TORSDOF 6
ENDMDL
MODEL 13
REMARK VINA RESULT:    -7.745      3.142      6.696
REMARK INTER + INTRA:         -11.604
REMARK INTER:                 -10.435
REMARK INTRA:                  -1.170
REMARK UNBOUND:                -1.142
REMARK SMILES CCCCNc1nc(Nc2ccc(Cl)cc2C)c2cnn(C)c2n1
REMARK SMILES IDX 5 1 4 3 3 4 2 5 1 6 6 7 7 8 24 9 8 10 23 11 18 12 21 13
REMARK SMILES IDX 19 14 20 15 22 16 9 17 10 19 11 20 16 21 12 22 15 23 13 24
REMARK SMILES IDX 17 25 14 26
REMARK H PARENT 5 2 9 18
ROOT
ATOM      1  N   UNL     1       7.465  44.885  49.371  1.00  0.00    -0.354 N 
ATOM      2  H   UNL     1       8.213  45.453  48.984  1.00  0.00     0.163 HD
ENDROOT
BRANCH   1   3
ATOM      3  C   UNL     1       7.738  43.461  49.439  1.00  0.00     0.116 C 
BRANCH   3   4
ATOM      4  C   UNL     1       6.495  42.666  49.027  1.00  0.00     0.021 C 
BRANCH   4   5
ATOM      5  C   UNL     1       6.014  41.638  50.056  1.00  0.00    -0.002 C 
ATOM      6  C   UNL     1       4.706  42.019  50.732  1.00  0.00     0.004 C 
ENDBRANCH   4   5
ENDBRANCH   3   4
ENDBRANCH   1   3
BRANCH   1   7
ATOM      7  C   UNL     1       7.162  45.473  50.594  1.00  0.00     0.226 A 
ATOM      8  N   UNL     1       5.848  45.656  50.810  1.00  0.00    -0.195 NA
ATOM      9  N   UNL     1       8.146  45.802  51.440  1.00  0.00    -0.193 NA
ATOM     10  C   UNL     1       5.404  46.207  51.971  1.00  0.00     0.147 A 
ATOM     11  C   UNL     1       7.692  46.338  52.581  1.00  0.00     0.165 A 
ATOM     12  C   UNL     1       6.371  46.568  52.913  1.00  0.00     0.082 A 
ATOM     13  N   UNL     1       8.430  46.767  53.651  1.00  0.00    -0.250 N 
ATOM     14  C   UNL     1       6.429  47.152  54.196  1.00  0.00     0.149 A 
ATOM     15  N   UNL     1       7.679  47.273  54.658  1.00  0.00    -0.179 NA
ATOM     16  C   UNL     1       9.864  46.725  53.786  1.00  0.00     0.176 C 
BRANCH  10  17
ATOM     17  N   UNL     1       4.027  46.385  52.217  1.00  0.00    -0.339 N 
ATOM     18  H   UNL     1       3.868  47.153  52.857  1.00  0.00     0.168 HD
BRANCH  17  19
ATOM     19  C   UNL     1       3.065  45.359  52.333  1.00  0.00     0.043 A 
ATOM     20  C   UNL     1       2.406  44.929  51.167  1.00  0.00     0.028 A 
ATOM     21  C   UNL     1       2.693  44.798  53.572  1.00  0.00    -0.026 A 
ATOM     22  C   UNL     1       1.396  43.966  51.221  1.00  0.00     0.022 A 
ATOM     23  C   UNL     1       1.663  43.840  53.616  1.00  0.00     0.026 A 
ATOM     24  C   UNL     1       1.026  43.429  52.448  1.00  0.00     0.041 A 
ATOM     25  C   UNL     1       3.351  45.187  54.868  1.00  0.00     0.046 C 
ATOM     26  Cl  UNL     1      -0.224  42.249  52.522  1.00  0.00    -0.084 Cl
ENDBRANCH  17  19
ENDBRANCH  10  17
ENDBRANCH   1   7
TORSDOF 6
ENDMDL
MODEL 14
REMARK VINA RESULT:    -7.710      2.958      6.323
REMARK INTER + INTRA:         -11.557
REMARK INTER:                 -10.869
REMARK INTRA:                  -0.688
REMARK UNBOUND:                -1.142
REMARK SMILES CCCCNc1nc(Nc2ccc(Cl)cc2C)c2cnn(C)c2n1
REMARK SMILES IDX 5 1 4 3 3 4 2 5 1 6 6 7 7 8 24 9 8 10 23 11 18 12 21 13
REMARK SMILES IDX 19 14 20 15 22 16 9 17 10 19 11 20 16 21 12 22 15 23 13 24
REMARK SMILES IDX 17 25 14 26
REMARK H PARENT 5 2 9 18
ROOT
ATOM      1  N   UNL     1       4.273  45.820  55.804  1.00  0.00    -0.354 N 
ATOM      2  H   UNL     1       4.100  45.536  56.763  1.00  0.00     0.163 HD
ENDROOT
BRANCH   1   3
ATOM      3  C   UNL     1       5.595  45.507  55.292  1.00  0.00     0.116 C 
BRANCH   3   4
ATOM      4  C   UNL     1       6.191  46.730  54.589  1.00  0.00     0.021 C 
BRANCH   4   5
ATOM      5  C   UNL     1       7.402  46.436  53.697  1.00  0.00    -0.002 C 
ATOM      6  C   UNL     1       7.764  47.583  52.765  1.00  0.00     0.004 C 
ENDBRANCH   4   5
ENDBRANCH   3   4
ENDBRANCH   1   3
BRANCH   1   7
ATOM      7  C   UNL     1       3.227  45.271  55.071  1.00  0.00     0.226 A 
ATOM      8  N   UNL     1       3.569  44.859  53.838  1.00  0.00    -0.195 NA
ATOM      9  N   UNL     1       2.004  45.187  55.611  1.00  0.00    -0.193 NA
ATOM     10  C   UNL     1       2.651  44.287  53.015  1.00  0.00     0.147 A 
ATOM     11  C   UNL     1       1.112  44.616  54.790  1.00  0.00     0.165 A 
ATOM     12  C   UNL     1       1.350  44.153  53.511  1.00  0.00     0.082 A 
ATOM     13  N   UNL     1      -0.211  44.371  55.040  1.00  0.00    -0.250 N 
ATOM     14  C   UNL     1       0.101  43.664  53.077  1.00  0.00     0.149 A 
ATOM     15  N   UNL     1      -0.857  43.787  54.002  1.00  0.00    -0.179 NA
ATOM     16  C   UNL     1      -0.933  44.667  56.251  1.00  0.00     0.176 C 
BRANCH  10  17
ATOM     17  N   UNL     1       3.004  43.835  51.728  1.00  0.00    -0.339 N 
ATOM     18  H   UNL     1       2.467  43.016  51.470  1.00  0.00     0.168 HD
BRANCH  17  19
ATOM     19  C   UNL     1       4.301  43.843  51.172  1.00  0.00     0.043 A 
ATOM     20  C   UNL     1       4.952  45.082  51.020  1.00  0.00     0.028 A 
ATOM     21  C   UNL     1       4.940  42.676  50.705  1.00  0.00    -0.026 A 
ATOM     22  C   UNL     1       6.207  45.169  50.416  1.00  0.00     0.022 A 
ATOM     23  C   UNL     1       6.198  42.779  50.083  1.00  0.00     0.026 A 
ATOM     24  C   UNL     1       6.823  44.016  49.946  1.00  0.00     0.041 A 
ATOM     25  C   UNL     1       4.326  41.309  50.836  1.00  0.00     0.046 C 
ATOM     26  Cl  UNL     1       8.366  44.118  49.192  1.00  0.00    -0.084 Cl
ENDBRANCH  17  19
ENDBRANCH  10  17
ENDBRANCH   1   7
TORSDOF 6
ENDMDL
MODEL 15
REMARK VINA RESULT:    -7.654      3.657      6.981
REMARK INTER + INTRA:         -11.481
REMARK INTER:                 -10.366
REMARK INTRA:                  -1.116
REMARK UNBOUND:                -1.142
REMARK SMILES CCCCNc1nc(Nc2ccc(Cl)cc2C)c2cnn(C)c2n1
REMARK SMILES IDX 5 1 4 3 3 4 2 5 1 6 6 7 7 8 24 9 8 10 23 11 18 12 21 13
REMARK SMILES IDX 19 14 20 15 22 16 9 17 10 19 11 20 16 21 12 22 15 23 13 24
REMARK SMILES IDX 17 25 14 26
REMARK H PARENT 5 2 9 18
ROOT
ATOM      1  N   UNL     1       3.077  45.816  56.043  1.00  0.00    -0.354 N 
ATOM      2  H   UNL     1       3.247  45.143  56.784  1.00  0.00     0.163 HD
ENDROOT
BRANCH   1   3
ATOM      3  C   UNL     1       4.254  46.238  55.306  1.00  0.00     0.116 C 
BRANCH   3   4
ATOM      4  C   UNL     1       5.355  45.180  55.420  1.00  0.00     0.021 C 
BRANCH   4   5
ATOM      5  C   UNL     1       6.135  44.917  54.127  1.00  0.00    -0.002 C 
ATOM      6  C   UNL     1       6.918  46.124  53.632  1.00  0.00     0.004 C 
ENDBRANCH   4   5
ENDBRANCH   3   4
ENDBRANCH   1   3
BRANCH   1   7
ATOM      7  C   UNL     1       2.081  45.245  55.259  1.00  0.00     0.226 A 
ATOM      8  N   UNL     1       2.422  45.067  53.971  1.00  0.00    -0.195 NA
ATOM      9  N   UNL     1       0.903  44.920  55.807  1.00  0.00    -0.193 NA
ATOM     10  C   UNL     1       1.551  44.504  53.092  1.00  0.00     0.147 A 
ATOM     11  C   UNL     1       0.058  44.362  54.929  1.00  0.00     0.165 A 
ATOM     12  C   UNL     1       0.301  44.126  53.590  1.00  0.00     0.082 A 
ATOM     13  N   UNL     1      -1.211  43.908  55.168  1.00  0.00    -0.250 N 
ATOM     14  C   UNL     1      -0.892  43.544  53.115  1.00  0.00     0.149 A 
ATOM     15  N   UNL     1      -1.819  43.401  54.069  1.00  0.00    -0.179 NA
ATOM     16  C   UNL     1      -1.914  43.925  56.426  1.00  0.00     0.176 C 
BRANCH  10  17
ATOM     17  N   UNL     1       1.906  44.295  51.744  1.00  0.00    -0.339 N 
ATOM     18  H   UNL     1       1.091  44.079  51.183  1.00  0.00     0.168 HD
BRANCH  17  19
ATOM     19  C   UNL     1       3.080  43.661  51.283  1.00  0.00     0.043 A 
ATOM     20  C   UNL     1       3.095  42.255  51.219  1.00  0.00     0.028 A 
ATOM     21  C   UNL     1       4.251  44.370  50.950  1.00  0.00    -0.026 A 
ATOM     22  C   UNL     1       4.245  41.561  50.837  1.00  0.00     0.022 A 
ATOM     23  C   UNL     1       5.409  43.659  50.582  1.00  0.00     0.026 A 
ATOM     24  C   UNL     1       5.399  42.268  50.524  1.00  0.00     0.041 A 
ATOM     25  C   UNL     1       4.323  45.873  50.977  1.00  0.00     0.046 C 
ATOM     26  Cl  UNL     1       6.822  41.419  50.062  1.00  0.00    -0.084 Cl
ENDBRANCH  17  19
ENDBRANCH  10  17
ENDBRANCH   1   7
TORSDOF 6
ENDMDL
MODEL 16
REMARK VINA RESULT:    -7.588      2.688      5.510
REMARK INTER + INTRA:         -11.392
REMARK INTER:                 -10.270
REMARK INTRA:                  -1.122
REMARK UNBOUND:                -1.142
REMARK SMILES CCCCNc1nc(Nc2ccc(Cl)cc2C)c2cnn(C)c2n1
REMARK SMILES IDX 5 1 4 3 3 4 2 5 1 6 6 7 7 8 24 9 8 10 23 11 18 12 21 13
REMARK SMILES IDX 19 14 20 15 22 16 9 17 10 19 11 20 16 21 12 22 15 23 13 24
REMARK SMILES IDX 17 25 14 26
REMARK H PARENT 5 2 9 18
ROOT
ATOM      1  N   UNL     1       3.387  41.432  50.458  1.00  0.00    -0.354 N 
ATOM      2  H   UNL     1       3.140  41.530  49.478  1.00  0.00     0.163 HD
ENDROOT
BRANCH   1   3
ATOM      3  C   UNL     1       4.810  41.434  50.743  1.00  0.00     0.116 C 
BRANCH   3   4
ATOM      4  C   UNL     1       5.609  41.530  49.440  1.00  0.00     0.021 C 
BRANCH   4   5
ATOM      5  C   UNL     1       6.556  42.732  49.350  1.00  0.00    -0.002 C 
ATOM      6  C   UNL     1       6.162  43.887  50.257  1.00  0.00     0.004 C 
ENDBRANCH   4   5
ENDBRANCH   3   4
ENDBRANCH   1   3
BRANCH   1   7
ATOM      7  C   UNL     1       2.667  42.426  51.111  1.00  0.00     0.226 A 
ATOM      8  N   UNL     1       3.366  43.092  52.047  1.00  0.00    -0.195 NA
ATOM      9  N   UNL     1       1.389  42.652  50.783  1.00  0.00    -0.193 NA
ATOM     10  C   UNL     1       2.794  44.103  52.755  1.00  0.00     0.147 A 
ATOM     11  C   UNL     1       0.841  43.654  51.485  1.00  0.00     0.165 A 
ATOM     12  C   UNL     1       1.461  44.407  52.463  1.00  0.00     0.082 A 
ATOM     13  N   UNL     1      -0.433  44.141  51.385  1.00  0.00    -0.250 N 
ATOM     14  C   UNL     1       0.465  45.307  52.895  1.00  0.00     0.149 A 
ATOM     15  N   UNL     1      -0.692  45.158  52.241  1.00  0.00    -0.179 NA
ATOM     16  C   UNL     1      -1.467  43.685  50.489  1.00  0.00     0.176 C 
BRANCH  10  17
ATOM     17  N   UNL     1       3.522  44.820  53.725  1.00  0.00    -0.339 N 
ATOM     18  H   UNL     1       2.903  45.260  54.394  1.00  0.00     0.168 HD
BRANCH  17  19
ATOM     19  C   UNL     1       4.705  45.557  53.498  1.00  0.00     0.043 A 
ATOM     20  C   UNL     1       5.931  44.980  53.875  1.00  0.00     0.028 A 
ATOM     21  C   UNL     1       4.700  46.866  52.974  1.00  0.00    -0.026 A 
ATOM     22  C   UNL     1       7.132  45.681  53.741  1.00  0.00     0.022 A 
ATOM     23  C   UNL     1       5.914  47.568  52.858  1.00  0.00     0.026 A 
ATOM     24  C   UNL     1       7.116  46.976  53.236  1.00  0.00     0.041 A 
ATOM     25  C   UNL     1       3.438  47.557  52.533  1.00  0.00     0.046 C 
ATOM     26  Cl  UNL     1       8.590  47.849  53.077  1.00  0.00    -0.084 Cl
ENDBRANCH  17  19
ENDBRANCH  10  17
ENDBRANCH   1   7
TORSDOF 6
ENDMDL
MODEL 17
REMARK VINA RESULT:    -7.562      2.918      5.991
REMARK INTER + INTRA:         -11.356
REMARK INTER:                 -10.140
REMARK INTRA:                  -1.217
REMARK UNBOUND:                -1.142
REMARK SMILES CCCCNc1nc(Nc2ccc(Cl)cc2C)c2cnn(C)c2n1
REMARK SMILES IDX 5 1 4 3 3 4 2 5 1 6 6 7 7 8 24 9 8 10 23 11 18 12 21 13
REMARK SMILES IDX 19 14 20 15 22 16 9 17 10 19 11 20 16 21 12 22 15 23 13 24
REMARK SMILES IDX 17 25 14 26
REMARK H PARENT 5 2 9 18
ROOT
ATOM      1  N   UNL     1       6.319  43.721  49.486  1.00  0.00    -0.354 N 
ATOM      2  H   UNL     1       6.910  43.908  48.681  1.00  0.00     0.163 HD
ENDROOT
BRANCH   1   3
ATOM      3  C   UNL     1       6.403  42.374  50.020  1.00  0.00     0.116 C 
BRANCH   3   4
ATOM      4  C   UNL     1       5.053  41.665  49.878  1.00  0.00     0.021 C 
BRANCH   4   5
ATOM      5  C   UNL     1       4.228  41.582  51.166  1.00  0.00    -0.002 C 
ATOM      6  C   UNL     1       3.182  42.679  51.291  1.00  0.00     0.004 C 
ENDBRANCH   4   5
ENDBRANCH   3   4
ENDBRANCH   1   3
BRANCH   1   7
ATOM      7  C   UNL     1       6.627  44.724  50.398  1.00  0.00     0.226 A 
ATOM      8  N   UNL     1       5.557  45.287  50.985  1.00  0.00    -0.195 NA
ATOM      9  N   UNL     1       7.906  45.049  50.629  1.00  0.00    -0.193 NA
ATOM     10  C   UNL     1       5.708  46.271  51.912  1.00  0.00     0.147 A 
ATOM     11  C   UNL     1       8.038  46.015  51.548  1.00  0.00     0.165 A 
ATOM     12  C   UNL     1       7.016  46.660  52.216  1.00  0.00     0.082 A 
ATOM     13  N   UNL     1       9.201  46.564  52.017  1.00  0.00    -0.250 N 
ATOM     14  C   UNL     1       7.674  47.587  53.051  1.00  0.00     0.149 A 
ATOM     15  N   UNL     1       9.006  47.534  52.942  1.00  0.00    -0.179 NA
ATOM     16  C   UNL     1      10.543  46.211  51.629  1.00  0.00     0.176 C 
BRANCH  10  17
ATOM     17  N   UNL     1       4.594  46.856  52.547  1.00  0.00    -0.339 N 
ATOM     18  H   UNL     1       4.878  47.612  53.157  1.00  0.00     0.168 HD
BRANCH  17  19
ATOM     19  C   UNL     1       3.449  46.171  53.010  1.00  0.00     0.043 A 
ATOM     20  C   UNL     1       2.277  46.235  52.234  1.00  0.00     0.028 A 
ATOM     21  C   UNL     1       3.414  45.487  54.242  1.00  0.00    -0.026 A 
ATOM     22  C   UNL     1       1.091  45.638  52.666  1.00  0.00     0.022 A 
ATOM     23  C   UNL     1       2.209  44.904  54.674  1.00  0.00     0.026 A 
ATOM     24  C   UNL     1       1.062  44.978  53.888  1.00  0.00     0.041 A 
ATOM     25  C   UNL     1       4.621  45.357  55.131  1.00  0.00     0.046 C 
ATOM     26  Cl  UNL     1      -0.399  44.249  54.431  1.00  0.00    -0.084 Cl
ENDBRANCH  17  19
ENDBRANCH  10  17
ENDBRANCH   1   7
TORSDOF 6
ENDMDL
MODEL 18
REMARK VINA RESULT:    -7.539      3.510      7.328
REMARK INTER + INTRA:         -11.325
REMARK INTER:                 -10.570
REMARK INTRA:                  -0.755
REMARK UNBOUND:                -1.142
REMARK SMILES CCCCNc1nc(Nc2ccc(Cl)cc2C)c2cnn(C)c2n1
REMARK SMILES IDX 5 1 4 3 3 4 2 5 1 6 6 7 7 8 24 9 8 10 23 11 18 12 21 13
REMARK SMILES IDX 19 14 20 15 22 16 9 17 10 19 11 20 16 21 12 22 15 23 13 24
REMARK SMILES IDX 17 25 14 26
REMARK H PARENT 5 2 9 18
ROOT
ATOM      1  N   UNL     1       7.629  46.176  50.769  1.00  0.00    -0.354 N 
ATOM      2  H   UNL     1       7.361  46.673  49.924  1.00  0.00     0.163 HD
ENDROOT
BRANCH   1   3
ATOM      3  C   UNL     1       8.007  47.015  51.891  1.00  0.00     0.116 C 
BRANCH   3   4
ATOM      4  C   UNL     1       9.509  46.890  52.160  1.00  0.00     0.021 C 
BRANCH   4   5
ATOM      5  C   UNL     1       9.876  46.448  53.581  1.00  0.00    -0.002 C 
ATOM      6  C   UNL     1       9.808  47.571  54.605  1.00  0.00     0.004 C 
ENDBRANCH   4   5
ENDBRANCH   3   4
ENDBRANCH   1   3
BRANCH   1   7
ATOM      7  C   UNL     1       6.572  45.310  51.026  1.00  0.00     0.226 A 
ATOM      8  N   UNL     1       6.674  44.115  50.419  1.00  0.00    -0.195 NA
ATOM      9  N   UNL     1       5.570  45.697  51.826  1.00  0.00    -0.193 NA
ATOM     10  C   UNL     1       5.721  43.161  50.594  1.00  0.00     0.147 A 
ATOM     11  C   UNL     1       4.642  44.744  51.992  1.00  0.00     0.165 A 
ATOM     12  C   UNL     1       4.644  43.485  51.425  1.00  0.00     0.082 A 
ATOM     13  N   UNL     1       3.506  44.814  52.752  1.00  0.00    -0.250 N 
ATOM     14  C   UNL     1       3.458  42.886  51.896  1.00  0.00     0.149 A 
ATOM     15  N   UNL     1       2.758  43.685  52.710  1.00  0.00    -0.179 NA
ATOM     16  C   UNL     1       3.064  45.930  53.550  1.00  0.00     0.176 C 
BRANCH  10  17
ATOM     17  N   UNL     1       5.827  41.899  49.977  1.00  0.00    -0.339 N 
ATOM     18  H   UNL     1       6.701  41.449  50.217  1.00  0.00     0.168 HD
BRANCH  17  19
ATOM     19  C   UNL     1       5.370  41.566  48.683  1.00  0.00     0.043 A 
ATOM     20  C   UNL     1       6.078  42.071  47.577  1.00  0.00     0.028 A 
ATOM     21  C   UNL     1       4.203  40.809  48.456  1.00  0.00    -0.026 A 
ATOM     22  C   UNL     1       5.642  41.837  46.271  1.00  0.00     0.022 A 
ATOM     23  C   UNL     1       3.764  40.594  47.137  1.00  0.00     0.026 A 
ATOM     24  C   UNL     1       4.483  41.102  46.058  1.00  0.00     0.041 A 
ATOM     25  C   UNL     1       3.389  40.219  49.576  1.00  0.00     0.046 C 
ATOM     26  Cl  UNL     1       3.935  40.818  44.452  1.00  0.00    -0.084 Cl
ENDBRANCH  17  19
ENDBRANCH  10  17
ENDBRANCH   1   7
TORSDOF 6
ENDMDL
MODEL 19
REMARK VINA RESULT:    -7.521      2.987      4.831
REMARK INTER + INTRA:         -11.301
REMARK INTER:                 -10.616
REMARK INTRA:                  -0.685
REMARK UNBOUND:                -1.142
REMARK SMILES CCCCNc1nc(Nc2ccc(Cl)cc2C)c2cnn(C)c2n1
REMARK SMILES IDX 5 1 4 3 3 4 2 5 1 6 6 7 7 8 24 9 8 10 23 11 18 12 21 13
REMARK SMILES IDX 19 14 20 15 22 16 9 17 10 19 11 20 16 21 12 22 15 23 13 24
REMARK SMILES IDX 17 25 14 26
REMARK H PARENT 5 2 9 18
ROOT
ATOM      1  N   UNL     1       2.373  45.987  56.432  1.00  0.00    -0.354 N 
ATOM      2  H   UNL     1       2.742  46.931  56.360  1.00  0.00     0.163 HD
ENDROOT
BRANCH   1   3
ATOM      3  C   UNL     1       1.099  45.868  57.116  1.00  0.00     0.116 C 
BRANCH   3   4
ATOM      4  C   UNL     1       1.071  46.788  58.340  1.00  0.00     0.021 C 
BRANCH   4   5
ATOM      5  C   UNL     1      -0.256  47.523  58.566  1.00  0.00    -0.002 C 
ATOM      6  C   UNL     1      -0.305  48.302  59.871  1.00  0.00     0.004 C 
ENDBRANCH   4   5
ENDBRANCH   3   4
ENDBRANCH   1   3
BRANCH   1   7
ATOM      7  C   UNL     1       2.376  45.500  55.129  1.00  0.00     0.226 A 
ATOM      8  N   UNL     1       3.182  46.171  54.288  1.00  0.00    -0.195 NA
ATOM      9  N   UNL     1       1.617  44.444  54.808  1.00  0.00    -0.193 NA
ATOM     10  C   UNL     1       3.298  45.796  52.987  1.00  0.00     0.147 A 
ATOM     11  C   UNL     1       1.746  44.084  53.524  1.00  0.00     0.165 A 
ATOM     12  C   UNL     1       2.544  44.692  52.575  1.00  0.00     0.082 A 
ATOM     13  N   UNL     1       1.124  43.046  52.884  1.00  0.00    -0.250 N 
ATOM     14  C   UNL     1       2.314  43.952  51.397  1.00  0.00     0.149 A 
ATOM     15  N   UNL     1       1.455  42.943  51.575  1.00  0.00    -0.179 NA
ATOM     16  C   UNL     1       0.197  42.105  53.460  1.00  0.00     0.176 C 
BRANCH  10  17
ATOM     17  N   UNL     1       4.154  46.480  52.101  1.00  0.00    -0.339 N 
ATOM     18  H   UNL     1       3.774  46.491  51.163  1.00  0.00     0.168 HD
BRANCH  17  19
ATOM     19  C   UNL     1       5.565  46.456  52.127  1.00  0.00     0.043 A 
ATOM     20  C   UNL     1       6.231  47.351  52.985  1.00  0.00     0.028 A 
ATOM     21  C   UNL     1       6.331  45.624  51.285  1.00  0.00    -0.026 A 
ATOM     22  C   UNL     1       7.625  47.427  53.011  1.00  0.00     0.022 A 
ATOM     23  C   UNL     1       7.734  45.721  51.308  1.00  0.00     0.026 A 
ATOM     24  C   UNL     1       8.370  46.613  52.167  1.00  0.00     0.041 A 
ATOM     25  C   UNL     1       5.706  44.629  50.345  1.00  0.00     0.046 C 
ATOM     26  Cl  UNL     1      10.088  46.708  52.187  1.00  0.00    -0.084 Cl
ENDBRANCH  17  19
ENDBRANCH  10  17
ENDBRANCH   1   7
TORSDOF 6
ENDMDL
MODEL 20
REMARK VINA RESULT:    -7.369      3.324      6.911
REMARK INTER + INTRA:         -11.096
REMARK INTER:                 -10.013
REMARK INTRA:                  -1.084
REMARK UNBOUND:                -1.142
REMARK SMILES CCCCNc1nc(Nc2ccc(Cl)cc2C)c2cnn(C)c2n1
REMARK SMILES IDX 5 1 4 3 3 4 2 5 1 6 6 7 7 8 24 9 8 10 23 11 18 12 21 13
REMARK SMILES IDX 19 14 20 15 22 16 9 17 10 19 11 20 16 21 12 22 15 23 13 24
REMARK SMILES IDX 17 25 14 26
REMARK H PARENT 5 2 9 18
ROOT
ATOM      1  N   UNL     1       7.529  45.037  49.504  1.00  0.00    -0.354 N 
ATOM      2  H   UNL     1       8.260  45.704  49.278  1.00  0.00     0.163 HD
ENDROOT
BRANCH   1   3
ATOM      3  C   UNL     1       7.852  43.647  49.240  1.00  0.00     0.116 C 
BRANCH   3   4
ATOM      4  C   UNL     1       6.846  43.050  48.253  1.00  0.00     0.021 C 
BRANCH   4   5
ATOM      5  C   UNL     1       6.020  41.880  48.799  1.00  0.00    -0.002 C 
ATOM      6  C   UNL     1       6.574  41.294  50.089  1.00  0.00     0.004 C 
ENDBRANCH   4   5
ENDBRANCH   3   4
ENDBRANCH   1   3
BRANCH   1   7
ATOM      7  C   UNL     1       7.189  45.310  50.824  1.00  0.00     0.226 A 
ATOM      8  N   UNL     1       6.086  44.674  51.255  1.00  0.00    -0.195 NA
ATOM      9  N   UNL     1       7.944  46.143  51.551  1.00  0.00    -0.193 NA
ATOM     10  C   UNL     1       5.644  44.833  52.531  1.00  0.00     0.147 A 
ATOM     11  C   UNL     1       7.498  46.286  52.807  1.00  0.00     0.165 A 
ATOM     12  C   UNL     1       6.386  45.682  53.359  1.00  0.00     0.082 A 
ATOM     13  N   UNL     1       8.045  47.050  53.802  1.00  0.00    -0.250 N 
ATOM     14  C   UNL     1       6.346  46.163  54.683  1.00  0.00     0.149 A 
ATOM     15  N   UNL     1       7.356  46.993  54.967  1.00  0.00    -0.179 NA
ATOM     16  C   UNL     1       9.231  47.864  53.717  1.00  0.00     0.176 C 
BRANCH  10  17
ATOM     17  N   UNL     1       4.499  44.156  52.999  1.00  0.00    -0.339 N 
ATOM     18  H   UNL     1       4.699  43.179  53.170  1.00  0.00     0.168 HD
BRANCH  17  19
ATOM     19  C   UNL     1       3.171  44.385  52.579  1.00  0.00     0.043 A 
ATOM     20  C   UNL     1       2.485  45.492  53.113  1.00  0.00     0.028 A 
ATOM     21  C   UNL     1       2.487  43.516  51.704  1.00  0.00    -0.026 A 
ATOM     22  C   UNL     1       1.149  45.737  52.792  1.00  0.00     0.022 A 
ATOM     23  C   UNL     1       1.135  43.765  51.402  1.00  0.00     0.026 A 
ATOM     24  C   UNL     1       0.478  44.868  51.940  1.00  0.00     0.041 A 
ATOM     25  C   UNL     1       3.142  42.316  51.077  1.00  0.00     0.046 C 
ATOM     26  Cl  UNL     1      -1.172  45.159  51.549  1.00  0.00    -0.084 Cl
ENDBRANCH  17  19
ENDBRANCH  10  17
ENDBRANCH   1   7
TORSDOF 6
ENDMDL
