MODEL 1
REMARK VINA RESULT:    -8.626      0.000      0.000
REMARK INTER + INTRA:         -12.999
REMARK INTER:                 -11.652
REMARK INTRA:                  -1.347
REMARK UNBOUND:                -1.347
REMARK SMILES CCCCNc1nc(Nc2ccc(C)cc2C)c2cnn(C)c2n1
REMARK SMILES IDX 5 1 4 3 3 4 2 5 1 6 6 7 7 8 24 9 8 10 23 11 18 12 21 13
REMARK SMILES IDX 19 14 20 15 22 16 9 17 10 19 11 20 16 21 12 22 15 23 13 24
REMARK SMILES IDX 17 25 14 26
REMARK H PARENT 5 2 9 18
ROOT
ATOM      1  N   UNL     1       2.687  45.552  52.317  1.00  0.00    -0.354 N 
ATOM      2  H   UNL     1       2.226  46.143  51.634  1.00  0.00     0.163 HD
ENDROOT
BRANCH   1   3
ATOM      3  C   UNL     1       2.754  46.097  53.662  1.00  0.00     0.116 C 
BRANCH   3   4
ATOM      4  C   UNL     1       3.234  45.040  54.661  1.00  0.00     0.021 C 
BRANCH   4   5
ATOM      5  C   UNL     1       4.549  45.416  55.351  1.00  0.00    -0.002 C 
ATOM      6  C   UNL     1       5.736  44.579  54.906  1.00  0.00     0.004 C 
ENDBRANCH   4   5
ENDBRANCH   3   4
ENDBRANCH   1   3
BRANCH   1   7
ATOM      7  C   UNL     1       3.888  45.168  51.736  1.00  0.00     0.226 A 
ATOM      8  N   UNL     1       4.929  46.020  51.712  1.00  0.00    -0.195 NA
ATOM      9  N   UNL     1       3.891  43.921  51.246  1.00  0.00    -0.193 NA
ATOM     10  C   UNL     1       6.127  45.642  51.191  1.00  0.00     0.147 A 
ATOM     11  C   UNL     1       5.075  43.569  50.726  1.00  0.00     0.165 A 
ATOM     12  C   UNL     1       6.210  44.350  50.664  1.00  0.00     0.082 A 
ATOM     13  N   UNL     1       5.409  42.370  50.159  1.00  0.00    -0.250 N 
ATOM     14  C   UNL     1       7.166  43.530  50.030  1.00  0.00     0.149 A 
ATOM     15  N   UNL     1       6.691  42.318  49.723  1.00  0.00    -0.179 NA
ATOM     16  C   UNL     1       4.558  41.218  49.998  1.00  0.00     0.176 C 
BRANCH  10  17
ATOM     17  N   UNL     1       7.241  46.506  51.200  1.00  0.00    -0.339 N 
ATOM     18  H   UNL     1       7.758  46.424  50.333  1.00  0.00     0.168 HD
BRANCH  17  19
ATOM     19  C   UNL     1       8.093  46.724  52.307  1.00  0.00     0.043 A 
ATOM     20  C   UNL     1       7.577  47.374  53.439  1.00  0.00     0.026 A 
ATOM     21  C   UNL     1       9.454  46.367  52.286  1.00  0.00    -0.027 A 
ATOM     22  C   UNL     1       8.390  47.665  54.537  1.00  0.00     0.005 A 
ATOM     23  C   UNL     1      10.264  46.676  53.395  1.00  0.00     0.009 A 
ATOM     24  C   UNL     1       9.745  47.331  54.517  1.00  0.00    -0.051 A 
ATOM     25  C   UNL     1      10.078  45.673  51.108  1.00  0.00     0.046 C 
ATOM     26  C   UNL     1      10.620  47.622  55.700  1.00  0.00     0.044 C 
ENDBRANCH  17  19
ENDBRANCH  10  17
ENDBRANCH   1   7
TORSDOF 6
ENDMDL
MODEL 2
REMARK VINA RESULT:    -8.615      1.721      4.354
REMARK INTER + INTRA:         -12.983
REMARK INTER:                 -12.262
REMARK INTRA:                  -0.721
REMARK UNBOUND:                -1.347
REMARK SMILES CCCCNc1nc(Nc2ccc(C)cc2C)c2cnn(C)c2n1
REMARK SMILES IDX 5 1 4 3 3 4 2 5 1 6 6 7 7 8 24 9 8 10 23 11 18 12 21 13
REMARK SMILES IDX 19 14 20 15 22 16 9 17 10 19 11 20 16 21 12 22 15 23 13 24
REMARK SMILES IDX 17 25 14 26
REMARK H PARENT 5 2 9 18
ROOT
ATOM      1  N   UNL     1       6.503  42.341  49.010  1.00  0.00    -0.354 N 
ATOM      2  H   UNL     1       6.647  42.882  48.165  1.00  0.00     0.163 HD
ENDROOT
BRANCH   1   3
ATOM      3  C   UNL     1       5.636  41.184  48.866  1.00  0.00     0.116 C 
BRANCH   3   4
ATOM      4  C   UNL     1       4.963  41.169  47.490  1.00  0.00     0.021 C 
BRANCH   4   5
ATOM      5  C   UNL     1       5.727  41.975  46.436  1.00  0.00    -0.002 C 
ATOM      6  C   UNL     1       5.002  42.086  45.106  1.00  0.00     0.004 C 
ENDBRANCH   4   5
ENDBRANCH   3   4
ENDBRANCH   1   3
BRANCH   1   7
ATOM      7  C   UNL     1       6.162  43.259  49.994  1.00  0.00     0.226 A 
ATOM      8  N   UNL     1       6.930  44.345  50.200  1.00  0.00    -0.195 NA
ATOM      9  N   UNL     1       5.040  42.961  50.663  1.00  0.00    -0.193 NA
ATOM     10  C   UNL     1       6.583  45.278  51.127  1.00  0.00     0.147 A 
ATOM     11  C   UNL     1       4.720  43.884  51.580  1.00  0.00     0.165 A 
ATOM     12  C   UNL     1       5.419  45.040  51.863  1.00  0.00     0.082 A 
ATOM     13  N   UNL     1       3.637  43.884  52.417  1.00  0.00    -0.250 N 
ATOM     14  C   UNL     1       4.679  45.655  52.894  1.00  0.00     0.149 A 
ATOM     15  N   UNL     1       3.587  44.962  53.235  1.00  0.00    -0.179 NA
ATOM     16  C   UNL     1       2.601  42.886  52.494  1.00  0.00     0.176 C 
BRANCH  10  17
ATOM     17  N   UNL     1       7.351  46.445  51.322  1.00  0.00    -0.339 N 
ATOM     18  H   UNL     1       7.766  46.744  50.447  1.00  0.00     0.168 HD
BRANCH  17  19
ATOM     19  C   UNL     1       8.205  46.682  52.422  1.00  0.00     0.043 A 
ATOM     20  C   UNL     1       7.684  47.324  53.556  1.00  0.00     0.026 A 
ATOM     21  C   UNL     1       9.573  46.353  52.394  1.00  0.00    -0.027 A 
ATOM     22  C   UNL     1       8.497  47.635  54.648  1.00  0.00     0.005 A 
ATOM     23  C   UNL     1      10.384  46.681  53.496  1.00  0.00     0.009 A 
ATOM     24  C   UNL     1       9.858  47.328  54.620  1.00  0.00    -0.051 A 
ATOM     25  C   UNL     1      10.203  45.669  51.213  1.00  0.00     0.046 C 
ATOM     26  C   UNL     1      10.735  47.640  55.796  1.00  0.00     0.044 C 
ENDBRANCH  17  19
ENDBRANCH  10  17
ENDBRANCH   1   7
TORSDOF 6
ENDMDL
MODEL 3
REMARK VINA RESULT:    -8.470      1.098      1.601
REMARK INTER + INTRA:         -12.788
REMARK INTER:                 -11.929
REMARK INTRA:                  -0.859
REMARK UNBOUND:                -1.347
REMARK SMILES CCCCNc1nc(Nc2ccc(C)cc2C)c2cnn(C)c2n1
REMARK SMILES IDX 5 1 4 3 3 4 2 5 1 6 6 7 7 8 24 9 8 10 23 11 18 12 21 13
REMARK SMILES IDX 19 14 20 15 22 16 9 17 10 19 11 20 16 21 12 22 15 23 13 24
REMARK SMILES IDX 17 25 14 26
REMARK H PARENT 5 2 9 18
ROOT
ATOM      1  N   UNL     1       3.793  43.846  53.286  1.00  0.00    -0.354 N 
ATOM      2  H   UNL     1       3.057  43.316  52.833  1.00  0.00     0.163 HD
ENDROOT
BRANCH   1   3
ATOM      3  C   UNL     1       3.347  45.006  54.039  1.00  0.00     0.116 C 
BRANCH   3   4
ATOM      4  C   UNL     1       1.968  45.472  53.565  1.00  0.00     0.021 C 
BRANCH   4   5
ATOM      5  C   UNL     1       2.029  46.391  52.342  1.00  0.00    -0.002 C 
ATOM      6  C   UNL     1       3.074  47.489  52.452  1.00  0.00     0.004 C 
ENDBRANCH   4   5
ENDBRANCH   3   4
ENDBRANCH   1   3
BRANCH   1   7
ATOM      7  C   UNL     1       4.757  44.066  52.311  1.00  0.00     0.226 A 
ATOM      8  N   UNL     1       5.552  45.149  52.379  1.00  0.00    -0.195 NA
ATOM      9  N   UNL     1       4.806  43.123  51.360  1.00  0.00    -0.193 NA
ATOM     10  C   UNL     1       6.533  45.353  51.459  1.00  0.00     0.147 A 
ATOM     11  C   UNL     1       5.770  43.345  50.456  1.00  0.00     0.165 A 
ATOM     12  C   UNL     1       6.651  44.407  50.437  1.00  0.00     0.082 A 
ATOM     13  N   UNL     1       6.088  42.572  49.373  1.00  0.00    -0.250 N 
ATOM     14  C   UNL     1       7.447  44.182  49.295  1.00  0.00     0.149 A 
ATOM     15  N   UNL     1       7.117  43.063  48.642  1.00  0.00    -0.179 NA
ATOM     16  C   UNL     1       5.454  41.342  48.969  1.00  0.00     0.176 C 
BRANCH  10  17
ATOM     17  N   UNL     1       7.405  46.458  51.543  1.00  0.00    -0.339 N 
ATOM     18  H   UNL     1       7.873  46.607  50.657  1.00  0.00     0.168 HD
BRANCH  17  19
ATOM     19  C   UNL     1       8.245  46.750  52.641  1.00  0.00     0.043 A 
ATOM     20  C   UNL     1       7.704  47.431  53.743  1.00  0.00     0.026 A 
ATOM     21  C   UNL     1       9.616  46.436  52.640  1.00  0.00    -0.027 A 
ATOM     22  C   UNL     1       8.502  47.795  54.830  1.00  0.00     0.005 A 
ATOM     23  C   UNL     1      10.412  46.818  53.736  1.00  0.00     0.009 A 
ATOM     24  C   UNL     1       9.867  47.504  54.828  1.00  0.00    -0.051 A 
ATOM     25  C   UNL     1      10.267  45.713  51.494  1.00  0.00     0.046 C 
ATOM     26  C   UNL     1      10.728  47.873  55.999  1.00  0.00     0.044 C 
ENDBRANCH  17  19
ENDBRANCH  10  17
ENDBRANCH   1   7
TORSDOF 6
ENDMDL
MODEL 4
REMARK VINA RESULT:    -8.318      1.705      4.644
REMARK INTER + INTRA:         -12.583
REMARK INTER:                 -11.675
REMARK INTRA:                  -0.908
REMARK UNBOUND:                -1.347
REMARK SMILES CCCCNc1nc(Nc2ccc(C)cc2C)c2cnn(C)c2n1
REMARK SMILES IDX 5 1 4 3 3 4 2 5 1 6 6 7 7 8 24 9 8 10 23 11 18 12 21 13
REMARK SMILES IDX 19 14 20 15 22 16 9 17 10 19 11 20 16 21 12 22 15 23 13 24
REMARK SMILES IDX 17 25 14 26
REMARK H PARENT 5 2 9 18
ROOT
ATOM      1  N   UNL     1       4.264  41.438  51.313  1.00  0.00    -0.354 N 
ATOM      2  H   UNL     1       4.990  41.162  51.964  1.00  0.00     0.163 HD
ENDROOT
BRANCH   1   3
ATOM      3  C   UNL     1       4.641  41.394  49.910  1.00  0.00     0.116 C 
BRANCH   3   4
ATOM      4  C   UNL     1       6.157  41.534  49.742  1.00  0.00     0.021 C 
BRANCH   4   5
ATOM      5  C   UNL     1       6.559  42.722  48.865  1.00  0.00    -0.002 C 
ATOM      6  C   UNL     1       7.828  43.421  49.324  1.00  0.00     0.004 C 
ENDBRANCH   4   5
ENDBRANCH   3   4
ENDBRANCH   1   3
BRANCH   1   7
ATOM      7  C   UNL     1       3.766  42.643  51.788  1.00  0.00     0.226 A 
ATOM      8  N   UNL     1       4.480  43.774  51.643  1.00  0.00    -0.195 NA
ATOM      9  N   UNL     1       2.558  42.554  52.362  1.00  0.00    -0.193 NA
ATOM     10  C   UNL     1       3.984  44.970  52.061  1.00  0.00     0.147 A 
ATOM     11  C   UNL     1       2.089  43.738  52.777  1.00  0.00     0.165 A 
ATOM     12  C   UNL     1       2.724  44.958  52.665  1.00  0.00     0.082 A 
ATOM     13  N   UNL     1       0.892  43.990  53.388  1.00  0.00    -0.250 N 
ATOM     14  C   UNL     1       1.827  45.876  53.251  1.00  0.00     0.149 A 
ATOM     15  N   UNL     1       0.703  45.298  53.690  1.00  0.00    -0.179 NA
ATOM     16  C   UNL     1      -0.133  43.032  53.718  1.00  0.00     0.176 C 
BRANCH  10  17
ATOM     17  N   UNL     1       4.700  46.171  51.874  1.00  0.00    -0.339 N 
ATOM     18  H   UNL     1       4.596  46.498  50.920  1.00  0.00     0.168 HD
BRANCH  17  19
ATOM     19  C   UNL     1       5.988  46.439  52.389  1.00  0.00     0.043 A 
ATOM     20  C   UNL     1       7.104  46.218  51.567  1.00  0.00     0.026 A 
ATOM     21  C   UNL     1       6.191  46.862  53.715  1.00  0.00    -0.027 A 
ATOM     22  C   UNL     1       8.402  46.412  52.045  1.00  0.00     0.005 A 
ATOM     23  C   UNL     1       7.505  47.044  54.188  1.00  0.00     0.009 A 
ATOM     24  C   UNL     1       8.613  46.813  53.365  1.00  0.00    -0.051 A 
ATOM     25  C   UNL     1       5.045  47.116  54.656  1.00  0.00     0.046 C 
ATOM     26  C   UNL     1      10.002  47.044  53.880  1.00  0.00     0.044 C 
ENDBRANCH  17  19
ENDBRANCH  10  17
ENDBRANCH   1   7
TORSDOF 6
ENDMDL
MODEL 5
REMARK VINA RESULT:    -8.224      1.653      4.346
REMARK INTER + INTRA:         -12.455
REMARK INTER:                 -11.468
REMARK INTRA:                  -0.988
REMARK UNBOUND:                -1.347
REMARK SMILES CCCCNc1nc(Nc2ccc(C)cc2C)c2cnn(C)c2n1
REMARK SMILES IDX 5 1 4 3 3 4 2 5 1 6 6 7 7 8 24 9 8 10 23 11 18 12 21 13
REMARK SMILES IDX 19 14 20 15 22 16 9 17 10 19 11 20 16 21 12 22 15 23 13 24
REMARK SMILES IDX 17 25 14 26
REMARK H PARENT 5 2 9 18
ROOT
ATOM      1  N   UNL     1       4.233  41.515  51.263  1.00  0.00    -0.354 N 
ATOM      2  H   UNL     1       5.246  41.478  51.280  1.00  0.00     0.163 HD
ENDROOT
BRANCH   1   3
ATOM      3  C   UNL     1       3.622  41.170  49.990  1.00  0.00     0.116 C 
BRANCH   3   4
ATOM      4  C   UNL     1       4.687  40.893  48.925  1.00  0.00     0.021 C 
BRANCH   4   5
ATOM      5  C   UNL     1       6.089  41.343  49.343  1.00  0.00    -0.002 C 
ATOM      6  C   UNL     1       6.509  42.675  48.745  1.00  0.00     0.004 C 
ENDBRANCH   4   5
ENDBRANCH   3   4
ENDBRANCH   1   3
BRANCH   1   7
ATOM      7  C   UNL     1       3.890  42.744  51.809  1.00  0.00     0.226 A 
ATOM      8  N   UNL     1       4.708  43.801  51.661  1.00  0.00    -0.195 NA
ATOM      9  N   UNL     1       2.713  42.755  52.449  1.00  0.00    -0.193 NA
ATOM     10  C   UNL     1       4.363  45.024  52.149  1.00  0.00     0.147 A 
ATOM     11  C   UNL     1       2.394  43.963  52.933  1.00  0.00     0.165 A 
ATOM     12  C   UNL     1       3.144  45.116  52.826  1.00  0.00     0.082 A 
ATOM     13  N   UNL     1       1.264  44.310  53.622  1.00  0.00    -0.250 N 
ATOM     14  C   UNL     1       2.381  46.095  53.495  1.00  0.00     0.149 A 
ATOM     15  N   UNL     1       1.230  45.617  53.979  1.00  0.00    -0.179 NA
ATOM     16  C   UNL     1       0.166  43.449  53.979  1.00  0.00     0.176 C 
BRANCH  10  17
ATOM     17  N   UNL     1       5.188  46.152  51.961  1.00  0.00    -0.339 N 
ATOM     18  H   UNL     1       5.189  46.430  50.987  1.00  0.00     0.168 HD
BRANCH  17  19
ATOM     19  C   UNL     1       6.449  46.349  52.569  1.00  0.00     0.043 A 
ATOM     20  C   UNL     1       6.495  46.814  53.892  1.00  0.00     0.026 A 
ATOM     21  C   UNL     1       7.655  46.153  51.873  1.00  0.00    -0.027 A 
ATOM     22  C   UNL     1       7.713  47.080  54.522  1.00  0.00     0.005 A 
ATOM     23  C   UNL     1       8.876  46.435  52.515  1.00  0.00     0.009 A 
ATOM     24  C   UNL     1       8.914  46.906  53.832  1.00  0.00    -0.051 A 
ATOM     25  C   UNL     1       7.685  45.661  50.452  1.00  0.00     0.046 C 
ATOM     26  C   UNL     1      10.227  47.171  54.507  1.00  0.00     0.044 C 
ENDBRANCH  17  19
ENDBRANCH  10  17
ENDBRANCH   1   7
TORSDOF 6
ENDMDL
MODEL 6
REMARK VINA RESULT:    -8.204      1.504      3.965
REMARK INTER + INTRA:         -12.429
REMARK INTER:                 -11.910
REMARK INTRA:                  -0.519
REMARK UNBOUND:                -1.347
REMARK SMILES CCCCNc1nc(Nc2ccc(C)cc2C)c2cnn(C)c2n1
REMARK SMILES IDX 5 1 4 3 3 4 2 5 1 6 6 7 7 8 24 9 8 10 23 11 18 12 21 13
REMARK SMILES IDX 19 14 20 15 22 16 9 17 10 19 11 20 16 21 12 22 15 23 13 24
REMARK SMILES IDX 17 25 14 26
REMARK H PARENT 5 2 9 18
ROOT
ATOM      1  N   UNL     1       4.418  41.914  51.363  1.00  0.00    -0.354 N 
ATOM      2  H   UNL     1       5.044  41.522  52.058  1.00  0.00     0.163 HD
ENDROOT
BRANCH   1   3
ATOM      3  C   UNL     1       4.664  41.483  49.996  1.00  0.00     0.116 C 
BRANCH   3   4
ATOM      4  C   UNL     1       6.161  41.492  49.677  1.00  0.00     0.021 C 
BRANCH   4   5
ATOM      5  C   UNL     1       6.536  42.478  48.568  1.00  0.00    -0.002 C 
ATOM      6  C   UNL     1       7.729  43.356  48.905  1.00  0.00     0.004 C 
ENDBRANCH   4   5
ENDBRANCH   3   4
ENDBRANCH   1   3
BRANCH   1   7
ATOM      7  C   UNL     1       4.404  43.282  51.594  1.00  0.00     0.226 A 
ATOM      8  N   UNL     1       5.529  44.004  51.448  1.00  0.00    -0.195 NA
ATOM      9  N   UNL     1       3.206  43.770  51.947  1.00  0.00    -0.193 NA
ATOM     10  C   UNL     1       5.520  45.353  51.624  1.00  0.00     0.147 A 
ATOM     11  C   UNL     1       3.218  45.098  52.127  1.00  0.00     0.165 A 
ATOM     12  C   UNL     1       4.304  45.937  51.987  1.00  0.00     0.082 A 
ATOM     13  N   UNL     1       2.165  45.898  52.478  1.00  0.00    -0.250 N 
ATOM     14  C   UNL     1       3.798  47.219  52.288  1.00  0.00     0.149 A 
ATOM     15  N   UNL     1       2.493  47.208  52.583  1.00  0.00    -0.179 NA
ATOM     16  C   UNL     1       0.807  45.485  52.728  1.00  0.00     0.176 C 
BRANCH  10  17
ATOM     17  N   UNL     1       6.681  46.130  51.428  1.00  0.00    -0.339 N 
ATOM     18  H   UNL     1       7.111  45.903  50.539  1.00  0.00     0.168 HD
BRANCH  17  19
ATOM     19  C   UNL     1       7.641  46.424  52.422  1.00  0.00     0.043 A 
ATOM     20  C   UNL     1       7.208  46.973  53.639  1.00  0.00     0.026 A 
ATOM     21  C   UNL     1       9.020  46.241  52.209  1.00  0.00    -0.027 A 
ATOM     22  C   UNL     1       8.120  47.335  54.633  1.00  0.00     0.005 A 
ATOM     23  C   UNL     1       9.929  46.620  53.215  1.00  0.00     0.009 A 
ATOM     24  C   UNL     1       9.490  47.174  54.422  1.00  0.00    -0.051 A 
ATOM     25  C   UNL     1       9.559  45.662  50.930  1.00  0.00     0.046 C 
ATOM     26  C   UNL     1      10.475  47.542  55.492  1.00  0.00     0.044 C 
ENDBRANCH  17  19
ENDBRANCH  10  17
ENDBRANCH   1   7
TORSDOF 6
ENDMDL
MODEL 7
REMARK VINA RESULT:    -8.065      1.777      5.629
REMARK INTER + INTRA:         -12.241
REMARK INTER:                 -11.594
REMARK INTRA:                  -0.647
REMARK UNBOUND:                -1.347
REMARK SMILES CCCCNc1nc(Nc2ccc(C)cc2C)c2cnn(C)c2n1
REMARK SMILES IDX 5 1 4 3 3 4 2 5 1 6 6 7 7 8 24 9 8 10 23 11 18 12 21 13
REMARK SMILES IDX 19 14 20 15 22 16 9 17 10 19 11 20 16 21 12 22 15 23 13 24
REMARK SMILES IDX 17 25 14 26
REMARK H PARENT 5 2 9 18
ROOT
ATOM      1  N   UNL     1       4.750  46.985  54.953  1.00  0.00    -0.354 N 
ATOM      2  H   UNL     1       5.026  47.672  55.646  1.00  0.00     0.163 HD
ENDROOT
BRANCH   1   3
ATOM      3  C   UNL     1       4.073  45.812  55.480  1.00  0.00     0.116 C 
BRANCH   3   4
ATOM      4  C   UNL     1       2.594  45.804  55.082  1.00  0.00     0.021 C 
BRANCH   4   5
ATOM      5  C   UNL     1       2.327  45.062  53.770  1.00  0.00    -0.002 C 
ATOM      6  C   UNL     1       1.664  45.920  52.705  1.00  0.00     0.004 C 
ENDBRANCH   4   5
ENDBRANCH   3   4
ENDBRANCH   1   3
BRANCH   1   7
ATOM      7  C   UNL     1       5.875  46.760  54.173  1.00  0.00     0.226 A 
ATOM      8  N   UNL     1       5.754  46.188  52.961  1.00  0.00    -0.195 NA
ATOM      9  N   UNL     1       7.024  47.168  54.729  1.00  0.00    -0.193 NA
ATOM     10  C   UNL     1       6.841  46.005  52.164  1.00  0.00     0.147 A 
ATOM     11  C   UNL     1       8.086  46.969  53.936  1.00  0.00     0.165 A 
ATOM     12  C   UNL     1       8.077  46.411  52.675  1.00  0.00     0.082 A 
ATOM     13  N   UNL     1       9.391  47.282  54.201  1.00  0.00    -0.250 N 
ATOM     14  C   UNL     1       9.429  46.424  52.276  1.00  0.00     0.149 A 
ATOM     15  N   UNL     1      10.239  46.958  53.196  1.00  0.00    -0.179 NA
ATOM     16  C   UNL     1       9.910  47.897  55.396  1.00  0.00     0.176 C 
BRANCH  10  17
ATOM     17  N   UNL     1       6.724  45.450  50.873  1.00  0.00    -0.339 N 
ATOM     18  H   UNL     1       6.578  46.181  50.187  1.00  0.00     0.168 HD
BRANCH  17  19
ATOM     19  C   UNL     1       6.008  44.274  50.554  1.00  0.00     0.043 A 
ATOM     20  C   UNL     1       4.759  44.059  51.158  1.00  0.00     0.026 A 
ATOM     21  C   UNL     1       6.533  43.285  49.702  1.00  0.00    -0.027 A 
ATOM     22  C   UNL     1       4.036  42.887  50.922  1.00  0.00     0.005 A 
ATOM     23  C   UNL     1       5.799  42.104  49.482  1.00  0.00     0.009 A 
ATOM     24  C   UNL     1       4.558  41.893  50.093  1.00  0.00    -0.051 A 
ATOM     25  C   UNL     1       7.865  43.443  49.024  1.00  0.00     0.046 C 
ATOM     26  C   UNL     1       3.780  40.641  49.819  1.00  0.00     0.044 C 
ENDBRANCH  17  19
ENDBRANCH  10  17
ENDBRANCH   1   7
TORSDOF 6
ENDMDL
MODEL 8
REMARK VINA RESULT:    -7.905      1.414      2.264
REMARK INTER + INTRA:         -12.024
REMARK INTER:                 -11.349
REMARK INTRA:                  -0.675
REMARK UNBOUND:                -1.347
REMARK SMILES CCCCNc1nc(Nc2ccc(C)cc2C)c2cnn(C)c2n1
REMARK SMILES IDX 5 1 4 3 3 4 2 5 1 6 6 7 7 8 24 9 8 10 23 11 18 12 21 13
REMARK SMILES IDX 19 14 20 15 22 16 9 17 10 19 11 20 16 21 12 22 15 23 13 24
REMARK SMILES IDX 17 25 14 26
REMARK H PARENT 5 2 9 18
ROOT
ATOM      1  N   UNL     1       3.135  43.317  53.061  1.00  0.00    -0.354 N 
ATOM      2  H   UNL     1       3.270  42.324  53.216  1.00  0.00     0.163 HD
ENDROOT
BRANCH   1   3
ATOM      3  C   UNL     1       1.789  43.705  52.673  1.00  0.00     0.116 C 
BRANCH   3   4
ATOM      4  C   UNL     1       0.957  44.103  53.896  1.00  0.00     0.021 C 
BRANCH   4   5
ATOM      5  C   UNL     1       1.795  44.713  55.023  1.00  0.00    -0.002 C 
ATOM      6  C   UNL     1       0.968  45.235  56.186  1.00  0.00     0.004 C 
ENDBRANCH   4   5
ENDBRANCH   3   4
ENDBRANCH   1   3
BRANCH   1   7
ATOM      7  C   UNL     1       4.167  43.713  52.222  1.00  0.00     0.226 A 
ATOM      8  N   UNL     1       4.725  44.929  52.366  1.00  0.00    -0.195 NA
ATOM      9  N   UNL     1       4.528  42.793  51.317  1.00  0.00    -0.193 NA
ATOM     10  C   UNL     1       5.769  45.314  51.583  1.00  0.00     0.147 A 
ATOM     11  C   UNL     1       5.550  43.193  50.548  1.00  0.00     0.165 A 
ATOM     12  C   UNL     1       6.207  44.404  50.618  1.00  0.00     0.082 A 
ATOM     13  N   UNL     1       6.159  42.490  49.544  1.00  0.00    -0.250 N 
ATOM     14  C   UNL     1       7.185  44.331  49.604  1.00  0.00     0.149 A 
ATOM     15  N   UNL     1       7.169  43.166  48.947  1.00  0.00    -0.179 NA
ATOM     16  C   UNL     1       5.833  41.160  49.095  1.00  0.00     0.176 C 
BRANCH  10  17
ATOM     17  N   UNL     1       6.395  46.566  51.753  1.00  0.00    -0.339 N 
ATOM     18  H   UNL     1       6.562  47.001  50.853  1.00  0.00     0.168 HD
BRANCH  17  19
ATOM     19  C   UNL     1       7.430  46.841  52.675  1.00  0.00     0.043 A 
ATOM     20  C   UNL     1       8.760  46.811  52.226  1.00  0.00     0.026 A 
ATOM     21  C   UNL     1       7.176  47.081  54.037  1.00  0.00    -0.027 A 
ATOM     22  C   UNL     1       9.824  47.019  53.106  1.00  0.00     0.005 A 
ATOM     23  C   UNL     1       8.257  47.278  54.916  1.00  0.00     0.009 A 
ATOM     24  C   UNL     1       9.581  47.239  54.463  1.00  0.00    -0.051 A 
ATOM     25  C   UNL     1       5.779  47.123  54.592  1.00  0.00     0.046 C 
ATOM     26  C   UNL     1      10.716  47.483  55.412  1.00  0.00     0.044 C 
ENDBRANCH  17  19
ENDBRANCH  10  17
ENDBRANCH   1   7
TORSDOF 6
ENDMDL
MODEL 9
REMARK VINA RESULT:    -7.898      2.015      6.323
REMARK INTER + INTRA:         -12.015
REMARK INTER:                 -11.101
REMARK INTRA:                  -0.914
REMARK UNBOUND:                -1.347
REMARK SMILES CCCCNc1nc(Nc2ccc(C)cc2C)c2cnn(C)c2n1
REMARK SMILES IDX 5 1 4 3 3 4 2 5 1 6 6 7 7 8 24 9 8 10 23 11 18 12 21 13
REMARK SMILES IDX 19 14 20 15 22 16 9 17 10 19 11 20 16 21 12 22 15 23 13 24
REMARK SMILES IDX 17 25 14 26
REMARK H PARENT 5 2 9 18
ROOT
ATOM      1  N   UNL     1       6.535  47.407  52.653  1.00  0.00    -0.354 N 
ATOM      2  H   UNL     1       5.787  48.032  52.374  1.00  0.00     0.163 HD
ENDROOT
BRANCH   1   3
ATOM      3  C   UNL     1       7.875  47.850  52.305  1.00  0.00     0.116 C 
BRANCH   3   4
ATOM      4  C   UNL     1       8.795  47.830  53.529  1.00  0.00     0.021 C 
BRANCH   4   5
ATOM      5  C   UNL     1       9.914  46.791  53.425  1.00  0.00    -0.002 C 
ATOM      6  C   UNL     1      10.247  46.388  51.998  1.00  0.00     0.004 C 
ENDBRANCH   4   5
ENDBRANCH   3   4
ENDBRANCH   1   3
BRANCH   1   7
ATOM      7  C   UNL     1       6.158  46.146  52.211  1.00  0.00     0.226 A 
ATOM      8  N   UNL     1       5.130  45.504  52.795  1.00  0.00    -0.195 NA
ATOM      9  N   UNL     1       6.887  45.678  51.188  1.00  0.00    -0.193 NA
ATOM     10  C   UNL     1       4.718  44.290  52.342  1.00  0.00     0.147 A 
ATOM     11  C   UNL     1       6.476  44.476  50.762  1.00  0.00     0.165 A 
ATOM     12  C   UNL     1       5.427  43.738  51.271  1.00  0.00     0.082 A 
ATOM     13  N   UNL     1       6.996  43.735  49.736  1.00  0.00    -0.250 N 
ATOM     14  C   UNL     1       5.411  42.565  50.489  1.00  0.00     0.149 A 
ATOM     15  N   UNL     1       6.359  42.555  49.546  1.00  0.00    -0.179 NA
ATOM     16  C   UNL     1       8.105  44.088  48.886  1.00  0.00     0.176 C 
BRANCH  10  17
ATOM     17  N   UNL     1       3.612  43.626  52.913  1.00  0.00    -0.339 N 
ATOM     18  H   UNL     1       3.733  42.622  52.850  1.00  0.00     0.168 HD
BRANCH  17  19
ATOM     19  C   UNL     1       2.261  44.008  52.752  1.00  0.00     0.043 A 
ATOM     20  C   UNL     1       1.638  43.782  51.515  1.00  0.00     0.026 A 
ATOM     21  C   UNL     1       1.542  44.662  53.768  1.00  0.00    -0.027 A 
ATOM     22  C   UNL     1       0.323  44.192  51.283  1.00  0.00     0.005 A 
ATOM     23  C   UNL     1       0.221  45.080  53.519  1.00  0.00     0.009 A 
ATOM     24  C   UNL     1      -0.391  44.858  52.280  1.00  0.00    -0.051 A 
ATOM     25  C   UNL     1       2.144  44.943  55.117  1.00  0.00     0.046 C 
ATOM     26  C   UNL     1      -1.810  45.284  52.047  1.00  0.00     0.044 C 
ENDBRANCH  17  19
ENDBRANCH  10  17
ENDBRANCH   1   7
TORSDOF 6
ENDMDL
MODEL 10
REMARK VINA RESULT:    -7.867      1.882      4.691
REMARK INTER + INTRA:         -11.973
REMARK INTER:                 -11.301
REMARK INTRA:                  -0.672
REMARK UNBOUND:                -1.347
REMARK SMILES CCCCNc1nc(Nc2ccc(C)cc2C)c2cnn(C)c2n1
REMARK SMILES IDX 5 1 4 3 3 4 2 5 1 6 6 7 7 8 24 9 8 10 23 11 18 12 21 13
REMARK SMILES IDX 19 14 20 15 22 16 9 17 10 19 11 20 16 21 12 22 15 23 13 24
REMARK SMILES IDX 17 25 14 26
REMARK H PARENT 5 2 9 18
ROOT
ATOM      1  N   UNL     1       6.062  41.755  50.080  1.00  0.00    -0.354 N 
ATOM      2  H   UNL     1       7.048  41.986  50.035  1.00  0.00     0.163 HD
ENDROOT
BRANCH   1   3
ATOM      3  C   UNL     1       5.523  41.111  48.894  1.00  0.00     0.116 C 
BRANCH   3   4
ATOM      4  C   UNL     1       5.825  41.932  47.637  1.00  0.00     0.021 C 
BRANCH   4   5
ATOM      5  C   UNL     1       5.134  41.391  46.382  1.00  0.00    -0.002 C 
ATOM      6  C   UNL     1       5.305  42.275  45.159  1.00  0.00     0.004 C 
ENDBRANCH   4   5
ENDBRANCH   3   4
ENDBRANCH   1   3
BRANCH   1   7
ATOM      7  C   UNL     1       5.422  42.908  50.512  1.00  0.00     0.226 A 
ATOM      8  N   UNL     1       6.119  44.047  50.677  1.00  0.00    -0.195 NA
ATOM      9  N   UNL     1       4.106  42.764  50.721  1.00  0.00    -0.193 NA
ATOM     10  C   UNL     1       5.497  45.197  51.054  1.00  0.00     0.147 A 
ATOM     11  C   UNL     1       3.511  43.903  51.102  1.00  0.00     0.165 A 
ATOM     12  C   UNL     1       4.120  45.127  51.284  1.00  0.00     0.082 A 
ATOM     13  N   UNL     1       2.186  44.095  51.382  1.00  0.00    -0.250 N 
ATOM     14  C   UNL     1       3.074  45.984  51.685  1.00  0.00     0.149 A 
ATOM     15  N   UNL     1       1.889  45.367  51.742  1.00  0.00    -0.179 NA
ATOM     16  C   UNL     1       1.136  43.111  51.325  1.00  0.00     0.176 C 
BRANCH  10  17
ATOM     17  N   UNL     1       6.205  46.409  51.184  1.00  0.00    -0.339 N 
ATOM     18  H   UNL     1       6.444  46.778  50.272  1.00  0.00     0.168 HD
BRANCH  17  19
ATOM     19  C   UNL     1       7.216  46.663  52.139  1.00  0.00     0.043 A 
ATOM     20  C   UNL     1       8.559  46.544  51.749  1.00  0.00     0.026 A 
ATOM     21  C   UNL     1       6.920  46.969  53.480  1.00  0.00    -0.027 A 
ATOM     22  C   UNL     1       9.596  46.728  52.666  1.00  0.00     0.005 A 
ATOM     23  C   UNL     1       7.974  47.140  54.397  1.00  0.00     0.009 A 
ATOM     24  C   UNL     1       9.311  47.013  54.002  1.00  0.00    -0.051 A 
ATOM     25  C   UNL     1       5.506  47.108  53.973  1.00  0.00     0.046 C 
ATOM     26  C   UNL     1      10.419  47.231  54.990  1.00  0.00     0.044 C 
ENDBRANCH  17  19
ENDBRANCH  10  17
ENDBRANCH   1   7
TORSDOF 6
ENDMDL
MODEL 11
REMARK VINA RESULT:    -7.721      1.528      5.696
REMARK INTER + INTRA:         -11.776
REMARK INTER:                 -10.917
REMARK INTRA:                  -0.859
REMARK UNBOUND:                -1.347
REMARK SMILES CCCCNc1nc(Nc2ccc(C)cc2C)c2cnn(C)c2n1
REMARK SMILES IDX 5 1 4 3 3 4 2 5 1 6 6 7 7 8 24 9 8 10 23 11 18 12 21 13
REMARK SMILES IDX 19 14 20 15 22 16 9 17 10 19 11 20 16 21 12 22 15 23 13 24
REMARK SMILES IDX 17 25 14 26
REMARK H PARENT 5 2 9 18
ROOT
ATOM      1  N   UNL     1       7.643  46.352  50.684  1.00  0.00    -0.354 N 
ATOM      2  H   UNL     1       8.326  45.738  50.253  1.00  0.00     0.163 HD
ENDROOT
BRANCH   1   3
ATOM      3  C   UNL     1       8.124  47.102  51.832  1.00  0.00     0.116 C 
BRANCH   3   4
ATOM      4  C   UNL     1       9.616  46.851  52.069  1.00  0.00     0.021 C 
BRANCH   4   5
ATOM      5  C   UNL     1       9.939  46.455  53.512  1.00  0.00    -0.002 C 
ATOM      6  C   UNL     1       9.652  47.550  54.526  1.00  0.00     0.004 C 
ENDBRANCH   4   5
ENDBRANCH   3   4
ENDBRANCH   1   3
BRANCH   1   7
ATOM      7  C   UNL     1       6.505  45.580  50.873  1.00  0.00     0.226 A 
ATOM      8  N   UNL     1       5.374  46.146  51.333  1.00  0.00    -0.195 NA
ATOM      9  N   UNL     1       6.653  44.288  50.549  1.00  0.00    -0.193 NA
ATOM     10  C   UNL     1       4.237  45.413  51.477  1.00  0.00     0.147 A 
ATOM     11  C   UNL     1       5.527  43.579  50.708  1.00  0.00     0.165 A 
ATOM     12  C   UNL     1       4.311  44.056  51.153  1.00  0.00     0.082 A 
ATOM     13  N   UNL     1       5.342  42.247  50.458  1.00  0.00    -0.250 N 
ATOM     14  C   UNL     1       3.467  42.926  51.146  1.00  0.00     0.149 A 
ATOM     15  N   UNL     1       4.083  41.819  50.717  1.00  0.00    -0.179 NA
ATOM     16  C   UNL     1       6.321  41.312  49.965  1.00  0.00     0.176 C 
BRANCH  10  17
ATOM     17  N   UNL     1       3.032  46.001  51.914  1.00  0.00    -0.339 N 
ATOM     18  H   UNL     1       2.987  46.971  51.622  1.00  0.00     0.168 HD
BRANCH  17  19
ATOM     19  C   UNL     1       2.441  45.801  53.182  1.00  0.00     0.043 A 
ATOM     20  C   UNL     1       3.226  45.986  54.330  1.00  0.00     0.026 A 
ATOM     21  C   UNL     1       1.111  45.364  53.328  1.00  0.00    -0.027 A 
ATOM     22  C   UNL     1       2.709  45.747  55.605  1.00  0.00     0.005 A 
ATOM     23  C   UNL     1       0.605  45.116  54.618  1.00  0.00     0.009 A 
ATOM     24  C   UNL     1       1.397  45.295  55.758  1.00  0.00    -0.051 A 
ATOM     25  C   UNL     1       0.211  45.140  52.145  1.00  0.00     0.046 C 
ATOM     26  C   UNL     1       0.827  45.054  57.124  1.00  0.00     0.044 C 
ENDBRANCH  17  19
ENDBRANCH  10  17
ENDBRANCH   1   7
TORSDOF 6
ENDMDL
MODEL 12
REMARK VINA RESULT:    -7.711      2.253      6.388
REMARK INTER + INTRA:         -11.762
REMARK INTER:                 -11.180
REMARK INTRA:                  -0.583
REMARK UNBOUND:                -1.347
REMARK SMILES CCCCNc1nc(Nc2ccc(C)cc2C)c2cnn(C)c2n1
REMARK SMILES IDX 5 1 4 3 3 4 2 5 1 6 6 7 7 8 24 9 8 10 23 11 18 12 21 13
REMARK SMILES IDX 19 14 20 15 22 16 9 17 10 19 11 20 16 21 12 22 15 23 13 24
REMARK SMILES IDX 17 25 14 26
REMARK H PARENT 5 2 9 18
ROOT
ATOM      1  N   UNL     1       7.092  45.997  51.272  1.00  0.00    -0.354 N 
ATOM      2  H   UNL     1       8.010  45.571  51.206  1.00  0.00     0.163 HD
ENDROOT
BRANCH   1   3
ATOM      3  C   UNL     1       6.986  47.095  52.218  1.00  0.00     0.116 C 
BRANCH   3   4
ATOM      4  C   UNL     1       8.282  47.908  52.267  1.00  0.00     0.021 C 
BRANCH   4   5
ATOM      5  C   UNL     1       9.506  47.070  52.648  1.00  0.00    -0.002 C 
ATOM      6  C   UNL     1       9.934  47.236  54.096  1.00  0.00     0.004 C 
ENDBRANCH   4   5
ENDBRANCH   3   4
ENDBRANCH   1   3
BRANCH   1   7
ATOM      7  C   UNL     1       6.197  44.948  51.427  1.00  0.00     0.226 A 
ATOM      8  N   UNL     1       5.315  44.957  52.443  1.00  0.00    -0.195 NA
ATOM      9  N   UNL     1       6.300  43.991  50.494  1.00  0.00    -0.193 NA
ATOM     10  C   UNL     1       4.400  43.960  52.581  1.00  0.00     0.147 A 
ATOM     11  C   UNL     1       5.399  43.012  50.652  1.00  0.00     0.165 A 
ATOM     12  C   UNL     1       4.441  42.927  51.640  1.00  0.00     0.082 A 
ATOM     13  N   UNL     1       5.232  41.903  49.868  1.00  0.00    -0.250 N 
ATOM     14  C   UNL     1       3.760  41.722  51.368  1.00  0.00     0.149 A 
ATOM     15  N   UNL     1       4.230  41.092  50.285  1.00  0.00    -0.179 NA
ATOM     16  C   UNL     1       5.992  41.545  48.698  1.00  0.00     0.176 C 
BRANCH  10  17
ATOM     17  N   UNL     1       3.439  43.979  53.613  1.00  0.00    -0.339 N 
ATOM     18  H   UNL     1       3.702  43.336  54.351  1.00  0.00     0.168 HD
BRANCH  17  19
ATOM     19  C   UNL     1       2.040  44.023  53.421  1.00  0.00     0.043 A 
ATOM     20  C   UNL     1       1.293  42.852  53.625  1.00  0.00     0.026 A 
ATOM     21  C   UNL     1       1.380  45.182  52.975  1.00  0.00    -0.027 A 
ATOM     22  C   UNL     1      -0.084  42.824  53.395  1.00  0.00     0.005 A 
ATOM     23  C   UNL     1      -0.006  45.139  52.736  1.00  0.00     0.009 A 
ATOM     24  C   UNL     1      -0.743  43.965  52.934  1.00  0.00    -0.051 A 
ATOM     25  C   UNL     1       2.114  46.472  52.730  1.00  0.00     0.046 C 
ATOM     26  C   UNL     1      -2.225  43.950  52.703  1.00  0.00     0.044 C 
ENDBRANCH  17  19
ENDBRANCH  10  17
ENDBRANCH   1   7
TORSDOF 6
ENDMDL
MODEL 13
REMARK VINA RESULT:    -7.705      2.153      7.058
REMARK INTER + INTRA:         -11.755
REMARK INTER:                 -11.056
REMARK INTRA:                  -0.699
REMARK UNBOUND:                -1.347
REMARK SMILES CCCCNc1nc(Nc2ccc(C)cc2C)c2cnn(C)c2n1
REMARK SMILES IDX 5 1 4 3 3 4 2 5 1 6 6 7 7 8 24 9 8 10 23 11 18 12 21 13
REMARK SMILES IDX 19 14 20 15 22 16 9 17 10 19 11 20 16 21 12 22 15 23 13 24
REMARK SMILES IDX 17 25 14 26
REMARK H PARENT 5 2 9 18
ROOT
ATOM      1  N   UNL     1       7.763  46.163  50.497  1.00  0.00    -0.354 N 
ATOM      2  H   UNL     1       8.519  45.674  50.030  1.00  0.00     0.163 HD
ENDROOT
BRANCH   1   3
ATOM      3  C   UNL     1       8.163  46.987  51.625  1.00  0.00     0.116 C 
BRANCH   3   4
ATOM      4  C   UNL     1       9.644  46.788  51.955  1.00  0.00     0.021 C 
BRANCH   4   5
ATOM      5  C   UNL     1       9.894  46.446  53.427  1.00  0.00    -0.002 C 
ATOM      6  C   UNL     1       9.521  47.563  54.387  1.00  0.00     0.004 C 
ENDBRANCH   4   5
ENDBRANCH   3   4
ENDBRANCH   1   3
BRANCH   1   7
ATOM      7  C   UNL     1       6.784  45.209  50.734  1.00  0.00     0.226 A 
ATOM      8  N   UNL     1       6.826  44.024  50.098  1.00  0.00    -0.195 NA
ATOM      9  N   UNL     1       5.856  45.580  51.627  1.00  0.00    -0.193 NA
ATOM     10  C   UNL     1       5.901  43.061  50.356  1.00  0.00     0.147 A 
ATOM     11  C   UNL     1       4.946  44.624  51.860  1.00  0.00     0.165 A 
ATOM     12  C   UNL     1       4.902  43.372  51.283  1.00  0.00     0.082 A 
ATOM     13  N   UNL     1       3.882  44.682  52.718  1.00  0.00    -0.250 N 
ATOM     14  C   UNL     1       3.766  42.762  51.853  1.00  0.00     0.149 A 
ATOM     15  N   UNL     1       3.140  43.549  52.735  1.00  0.00    -0.179 NA
ATOM     16  C   UNL     1       3.507  45.787  53.563  1.00  0.00     0.176 C 
BRANCH  10  17
ATOM     17  N   UNL     1       5.959  41.797  49.733  1.00  0.00    -0.339 N 
ATOM     18  H   UNL     1       6.885  41.397  49.832  1.00  0.00     0.168 HD
BRANCH  17  19
ATOM     19  C   UNL     1       5.374  41.476  48.487  1.00  0.00     0.043 A 
ATOM     20  C   UNL     1       5.996  41.929  47.313  1.00  0.00     0.026 A 
ATOM     21  C   UNL     1       4.161  40.772  48.388  1.00  0.00    -0.027 A 
ATOM     22  C   UNL     1       5.431  41.689  46.058  1.00  0.00     0.005 A 
ATOM     23  C   UNL     1       3.596  40.546  47.118  1.00  0.00     0.009 A 
ATOM     24  C   UNL     1       4.217  41.008  45.952  1.00  0.00    -0.051 A 
ATOM     25  C   UNL     1       3.435  40.260  49.601  1.00  0.00     0.046 C 
ATOM     26  C   UNL     1       3.613  40.729  44.608  1.00  0.00     0.044 C 
ENDBRANCH  17  19
ENDBRANCH  10  17
ENDBRANCH   1   7
TORSDOF 6
ENDMDL
MODEL 14
REMARK VINA RESULT:    -7.704      1.445      5.424
REMARK INTER + INTRA:         -11.753
REMARK INTER:                 -11.132
REMARK INTRA:                  -0.621
REMARK UNBOUND:                -1.347
REMARK SMILES CCCCNc1nc(Nc2ccc(C)cc2C)c2cnn(C)c2n1
REMARK SMILES IDX 5 1 4 3 3 4 2 5 1 6 6 7 7 8 24 9 8 10 23 11 18 12 21 13
REMARK SMILES IDX 19 14 20 15 22 16 9 17 10 19 11 20 16 21 12 22 15 23 13 24
REMARK SMILES IDX 17 25 14 26
REMARK H PARENT 5 2 9 18
ROOT
ATOM      1  N   UNL     1       8.169  46.246  50.656  1.00  0.00    -0.354 N 
ATOM      2  H   UNL     1       8.828  45.499  50.464  1.00  0.00     0.163 HD
ENDROOT
BRANCH   1   3
ATOM      3  C   UNL     1       8.621  47.237  51.618  1.00  0.00     0.116 C 
BRANCH   3   4
ATOM      4  C   UNL     1       9.915  46.790  52.303  1.00  0.00     0.021 C 
BRANCH   4   5
ATOM      5  C   UNL     1       9.759  46.584  53.812  1.00  0.00    -0.002 C 
ATOM      6  C   UNL     1       9.305  47.829  54.556  1.00  0.00     0.004 C 
ENDBRANCH   4   5
ENDBRANCH   3   4
ENDBRANCH   1   3
BRANCH   1   7
ATOM      7  C   UNL     1       6.958  45.623  50.921  1.00  0.00     0.226 A 
ATOM      8  N   UNL     1       5.963  46.306  51.516  1.00  0.00    -0.195 NA
ATOM      9  N   UNL     1       6.896  44.344  50.527  1.00  0.00    -0.193 NA
ATOM     10  C   UNL     1       4.754  45.724  51.739  1.00  0.00     0.147 A 
ATOM     11  C   UNL     1       5.702  43.782  50.764  1.00  0.00     0.165 A 
ATOM     12  C   UNL     1       4.610  44.390  51.348  1.00  0.00     0.082 A 
ATOM     13  N   UNL     1       5.313  42.504  50.474  1.00  0.00    -0.250 N 
ATOM     14  C   UNL     1       3.621  43.385  51.373  1.00  0.00     0.149 A 
ATOM     15  N   UNL     1       4.036  42.232  50.837  1.00  0.00    -0.179 NA
ATOM     16  C   UNL     1       6.104  41.477  49.845  1.00  0.00     0.176 C 
BRANCH  10  17
ATOM     17  N   UNL     1       3.686  46.441  52.319  1.00  0.00    -0.339 N 
ATOM     18  H   UNL     1       3.890  47.433  52.324  1.00  0.00     0.168 HD
BRANCH  17  19
ATOM     19  C   UNL     1       2.966  46.041  53.467  1.00  0.00     0.043 A 
ATOM     20  C   UNL     1       1.614  45.690  53.328  1.00  0.00     0.026 A 
ATOM     21  C   UNL     1       3.541  46.043  54.751  1.00  0.00    -0.027 A 
ATOM     22  C   UNL     1       0.841  45.342  54.438  1.00  0.00     0.005 A 
ATOM     23  C   UNL     1       2.748  45.702  55.862  1.00  0.00     0.009 A 
ATOM     24  C   UNL     1       1.399  45.360  55.717  1.00  0.00    -0.051 A 
ATOM     25  C   UNL     1       4.981  46.413  54.978  1.00  0.00     0.046 C 
ATOM     26  C   UNL     1       0.581  44.970  56.912  1.00  0.00     0.044 C 
ENDBRANCH  17  19
ENDBRANCH  10  17
ENDBRANCH   1   7
TORSDOF 6
ENDMDL
MODEL 15
REMARK VINA RESULT:    -7.644      2.059      6.202
REMARK INTER + INTRA:         -11.672
REMARK INTER:                 -10.844
REMARK INTRA:                  -0.828
REMARK UNBOUND:                -1.347
REMARK SMILES CCCCNc1nc(Nc2ccc(C)cc2C)c2cnn(C)c2n1
REMARK SMILES IDX 5 1 4 3 3 4 2 5 1 6 6 7 7 8 24 9 8 10 23 11 18 12 21 13
REMARK SMILES IDX 19 14 20 15 22 16 9 17 10 19 11 20 16 21 12 22 15 23 13 24
REMARK SMILES IDX 17 25 14 26
REMARK H PARENT 5 2 9 18
ROOT
ATOM      1  N   UNL     1       6.526  47.353  52.683  1.00  0.00    -0.354 N 
ATOM      2  H   UNL     1       5.758  47.955  52.410  1.00  0.00     0.163 HD
ENDROOT
BRANCH   1   3
ATOM      3  C   UNL     1       7.850  47.837  52.330  1.00  0.00     0.116 C 
BRANCH   3   4
ATOM      4  C   UNL     1       8.759  47.901  53.560  1.00  0.00     0.021 C 
BRANCH   4   5
ATOM      5  C   UNL     1       9.976  46.976  53.459  1.00  0.00    -0.002 C 
ATOM      6  C   UNL     1      10.213  46.426  52.062  1.00  0.00     0.004 C 
ENDBRANCH   4   5
ENDBRANCH   3   4
ENDBRANCH   1   3
BRANCH   1   7
ATOM      7  C   UNL     1       6.186  46.082  52.242  1.00  0.00     0.226 A 
ATOM      8  N   UNL     1       5.208  45.392  52.856  1.00  0.00    -0.195 NA
ATOM      9  N   UNL     1       6.895  45.655  51.188  1.00  0.00    -0.193 NA
ATOM     10  C   UNL     1       4.831  44.165  52.405  1.00  0.00     0.147 A 
ATOM     11  C   UNL     1       6.519  44.441  50.764  1.00  0.00     0.165 A 
ATOM     12  C   UNL     1       5.522  43.654  51.303  1.00  0.00     0.082 A 
ATOM     13  N   UNL     1       7.031  43.732  49.712  1.00  0.00    -0.250 N 
ATOM     14  C   UNL     1       5.526  42.489  50.509  1.00  0.00     0.149 A 
ATOM     15  N   UNL     1       6.438  42.528  49.531  1.00  0.00    -0.179 NA
ATOM     16  C   UNL     1       8.091  44.140  48.825  1.00  0.00     0.176 C 
BRANCH  10  17
ATOM     17  N   UNL     1       3.776  43.450  53.009  1.00  0.00    -0.339 N 
ATOM     18  H   UNL     1       3.874  42.458  52.827  1.00  0.00     0.168 HD
BRANCH  17  19
ATOM     19  C   UNL     1       2.423  43.855  53.026  1.00  0.00     0.043 A 
ATOM     20  C   UNL     1       1.956  44.606  54.116  1.00  0.00     0.026 A 
ATOM     21  C   UNL     1       1.515  43.479  52.018  1.00  0.00    -0.027 A 
ATOM     22  C   UNL     1       0.615  44.984  54.211  1.00  0.00     0.005 A 
ATOM     23  C   UNL     1       0.164  43.857  52.131  1.00  0.00     0.009 A 
ATOM     24  C   UNL     1      -0.296  44.599  53.225  1.00  0.00    -0.051 A 
ATOM     25  C   UNL     1       1.941  42.671  50.824  1.00  0.00     0.046 C 
ATOM     26  C   UNL     1      -1.734  45.016  53.309  1.00  0.00     0.044 C 
ENDBRANCH  17  19
ENDBRANCH  10  17
ENDBRANCH   1   7
TORSDOF 6
ENDMDL
MODEL 16
REMARK VINA RESULT:    -7.642      2.244      5.687
REMARK INTER + INTRA:         -11.669
REMARK INTER:                 -10.951
REMARK INTRA:                  -0.718
REMARK UNBOUND:                -1.347
REMARK SMILES CCCCNc1nc(Nc2ccc(C)cc2C)c2cnn(C)c2n1
REMARK SMILES IDX 5 1 4 3 3 4 2 5 1 6 6 7 7 8 24 9 8 10 23 11 18 12 21 13
REMARK SMILES IDX 19 14 20 15 22 16 9 17 10 19 11 20 16 21 12 22 15 23 13 24
REMARK SMILES IDX 17 25 14 26
REMARK H PARENT 5 2 9 18
ROOT
ATOM      1  N   UNL     1       4.366  45.552  55.707  1.00  0.00    -0.354 N 
ATOM      2  H   UNL     1       4.084  46.503  55.918  1.00  0.00     0.163 HD
ENDROOT
BRANCH   1   3
ATOM      3  C   UNL     1       5.752  45.393  55.300  1.00  0.00     0.116 C 
BRANCH   3   4
ATOM      4  C   UNL     1       6.268  46.652  54.598  1.00  0.00     0.021 C 
BRANCH   4   5
ATOM      5  C   UNL     1       7.354  46.362  53.559  1.00  0.00    -0.002 C 
ATOM      6  C   UNL     1       7.711  47.560  52.695  1.00  0.00     0.004 C 
ENDBRANCH   4   5
ENDBRANCH   3   4
ENDBRANCH   1   3
BRANCH   1   7
ATOM      7  C   UNL     1       3.400  45.052  54.845  1.00  0.00     0.226 A 
ATOM      8  N   UNL     1       3.741  44.652  53.607  1.00  0.00    -0.195 NA
ATOM      9  N   UNL     1       2.166  45.004  55.366  1.00  0.00    -0.193 NA
ATOM     10  C   UNL     1       2.814  44.115  52.768  1.00  0.00     0.147 A 
ATOM     11  C   UNL     1       1.264  44.483  54.523  1.00  0.00     0.165 A 
ATOM     12  C   UNL     1       1.503  44.027  53.243  1.00  0.00     0.082 A 
ATOM     13  N   UNL     1      -0.070  44.287  54.751  1.00  0.00    -0.250 N 
ATOM     14  C   UNL     1       0.243  43.589  52.786  1.00  0.00     0.149 A 
ATOM     15  N   UNL     1      -0.723  43.737  53.699  1.00  0.00    -0.179 NA
ATOM     16  C   UNL     1      -0.800  44.598  55.953  1.00  0.00     0.176 C 
BRANCH  10  17
ATOM     17  N   UNL     1       3.165  43.649  51.484  1.00  0.00    -0.339 N 
ATOM     18  H   UNL     1       2.671  42.790  51.274  1.00  0.00     0.168 HD
BRANCH  17  19
ATOM     19  C   UNL     1       4.471  43.654  50.944  1.00  0.00     0.043 A 
ATOM     20  C   UNL     1       5.162  44.873  50.860  1.00  0.00     0.026 A 
ATOM     21  C   UNL     1       5.076  42.491  50.434  1.00  0.00    -0.027 A 
ATOM     22  C   UNL     1       6.432  44.944  50.284  1.00  0.00     0.005 A 
ATOM     23  C   UNL     1       6.352  42.578  49.846  1.00  0.00     0.009 A 
ATOM     24  C   UNL     1       7.031  43.799  49.758  1.00  0.00    -0.051 A 
ATOM     25  C   UNL     1       4.396  41.151  50.485  1.00  0.00     0.046 C 
ATOM     26  C   UNL     1       8.403  43.863  49.155  1.00  0.00     0.044 C 
ENDBRANCH  17  19
ENDBRANCH  10  17
ENDBRANCH   1   7
TORSDOF 6
ENDMDL
MODEL 17
REMARK VINA RESULT:    -7.587      2.034      6.636
REMARK INTER + INTRA:         -11.595
REMARK INTER:                 -10.372
REMARK INTRA:                  -1.223
REMARK UNBOUND:                -1.347
REMARK SMILES CCCCNc1nc(Nc2ccc(C)cc2C)c2cnn(C)c2n1
REMARK SMILES IDX 5 1 4 3 3 4 2 5 1 6 6 7 7 8 24 9 8 10 23 11 18 12 21 13
REMARK SMILES IDX 19 14 20 15 22 16 9 17 10 19 11 20 16 21 12 22 15 23 13 24
REMARK SMILES IDX 17 25 14 26
REMARK H PARENT 5 2 9 18
ROOT
ATOM      1  N   UNL     1       7.539  44.864  49.481  1.00  0.00    -0.354 N 
ATOM      2  H   UNL     1       6.938  45.202  48.738  1.00  0.00     0.163 HD
ENDROOT
BRANCH   1   3
ATOM      3  C   UNL     1       7.710  43.421  49.531  1.00  0.00     0.116 C 
BRANCH   3   4
ATOM      4  C   UNL     1       6.516  42.703  48.897  1.00  0.00     0.021 C 
BRANCH   4   5
ATOM      5  C   UNL     1       5.903  41.634  49.806  1.00  0.00    -0.002 C 
ATOM      6  C   UNL     1       4.846  42.170  50.757  1.00  0.00     0.004 C 
ENDBRANCH   4   5
ENDBRANCH   3   4
ENDBRANCH   1   3
BRANCH   1   7
ATOM      7  C   UNL     1       7.092  45.481  50.641  1.00  0.00     0.226 A 
ATOM      8  N   UNL     1       5.776  45.684  50.834  1.00  0.00    -0.195 NA
ATOM      9  N   UNL     1       8.065  45.818  51.499  1.00  0.00    -0.193 NA
ATOM     10  C   UNL     1       5.318  46.243  51.987  1.00  0.00     0.147 A 
ATOM     11  C   UNL     1       7.598  46.378  52.623  1.00  0.00     0.165 A 
ATOM     12  C   UNL     1       6.275  46.616  52.934  1.00  0.00     0.082 A 
ATOM     13  N   UNL     1       8.324  46.821  53.695  1.00  0.00    -0.250 N 
ATOM     14  C   UNL     1       6.318  47.217  54.210  1.00  0.00     0.149 A 
ATOM     15  N   UNL     1       7.561  47.341  54.686  1.00  0.00    -0.179 NA
ATOM     16  C   UNL     1       9.756  46.780  53.849  1.00  0.00     0.176 C 
BRANCH  10  17
ATOM     17  N   UNL     1       3.939  46.419  52.224  1.00  0.00    -0.339 N 
ATOM     18  H   UNL     1       3.791  47.140  52.921  1.00  0.00     0.168 HD
BRANCH  17  19
ATOM     19  C   UNL     1       2.992  45.376  52.331  1.00  0.00     0.043 A 
ATOM     20  C   UNL     1       2.359  44.917  51.165  1.00  0.00     0.026 A 
ATOM     21  C   UNL     1       2.619  44.826  53.570  1.00  0.00    -0.027 A 
ATOM     22  C   UNL     1       1.374  43.928  51.220  1.00  0.00     0.005 A 
ATOM     23  C   UNL     1       1.617  43.838  53.613  1.00  0.00     0.009 A 
ATOM     24  C   UNL     1       0.984  43.391  52.448  1.00  0.00    -0.051 A 
ATOM     25  C   UNL     1       3.249  45.270  54.861  1.00  0.00     0.046 C 
ATOM     26  C   UNL     1      -0.058  42.315  52.514  1.00  0.00     0.044 C 
ENDBRANCH  17  19
ENDBRANCH  10  17
ENDBRANCH   1   7
TORSDOF 6
ENDMDL
MODEL 18
REMARK VINA RESULT:    -7.488      2.825      4.280
REMARK INTER + INTRA:         -11.461
REMARK INTER:                 -10.750
REMARK INTRA:                  -0.712
REMARK UNBOUND:                -1.347
REMARK SMILES CCCCNc1nc(Nc2ccc(C)cc2C)c2cnn(C)c2n1
REMARK SMILES IDX 5 1 4 3 3 4 2 5 1 6 6 7 7 8 24 9 8 10 23 11 18 12 21 13
REMARK SMILES IDX 19 14 20 15 22 16 9 17 10 19 11 20 16 21 12 22 15 23 13 24
REMARK SMILES IDX 17 25 14 26
REMARK H PARENT 5 2 9 18
ROOT
ATOM      1  N   UNL     1       2.356  45.858  56.431  1.00  0.00    -0.354 N 
ATOM      2  H   UNL     1       3.246  45.579  56.828  1.00  0.00     0.163 HD
ENDROOT
BRANCH   1   3
ATOM      3  C   UNL     1       1.184  45.433  57.179  1.00  0.00     0.116 C 
BRANCH   3   4
ATOM      4  C   UNL     1       0.443  46.635  57.771  1.00  0.00     0.021 C 
BRANCH   4   5
ATOM      5  C   UNL     1       1.098  47.180  59.043  1.00  0.00    -0.002 C 
ATOM      6  C   UNL     1       0.141  47.939  59.947  1.00  0.00     0.004 C 
ENDBRANCH   4   5
ENDBRANCH   3   4
ENDBRANCH   1   3
BRANCH   1   7
ATOM      7  C   UNL     1       2.408  45.497  55.092  1.00  0.00     0.226 A 
ATOM      8  N   UNL     1       3.194  46.179  54.239  1.00  0.00    -0.195 NA
ATOM      9  N   UNL     1       1.641  44.446  54.772  1.00  0.00    -0.193 NA
ATOM     10  C   UNL     1       3.293  45.808  52.934  1.00  0.00     0.147 A 
ATOM     11  C   UNL     1       1.742  44.101  53.481  1.00  0.00     0.165 A 
ATOM     12  C   UNL     1       2.526  44.713  52.526  1.00  0.00     0.082 A 
ATOM     13  N   UNL     1       1.103  43.073  52.844  1.00  0.00    -0.250 N 
ATOM     14  C   UNL     1       2.274  43.984  51.345  1.00  0.00     0.149 A 
ATOM     15  N   UNL     1       1.413  42.977  51.528  1.00  0.00    -0.179 NA
ATOM     16  C   UNL     1       0.179  42.132  53.425  1.00  0.00     0.176 C 
BRANCH  10  17
ATOM     17  N   UNL     1       4.147  46.483  52.038  1.00  0.00    -0.339 N 
ATOM     18  H   UNL     1       3.803  46.396  51.089  1.00  0.00     0.168 HD
BRANCH  17  19
ATOM     19  C   UNL     1       5.560  46.468  52.092  1.00  0.00     0.043 A 
ATOM     20  C   UNL     1       6.213  47.383  52.933  1.00  0.00     0.026 A 
ATOM     21  C   UNL     1       6.331  45.611  51.288  1.00  0.00    -0.027 A 
ATOM     22  C   UNL     1       7.607  47.450  52.982  1.00  0.00     0.005 A 
ATOM     23  C   UNL     1       7.736  45.696  51.338  1.00  0.00     0.009 A 
ATOM     24  C   UNL     1       8.380  46.616  52.173  1.00  0.00    -0.051 A 
ATOM     25  C   UNL     1       5.703  44.608  50.360  1.00  0.00     0.046 C 
ATOM     26  C   UNL     1       9.877  46.667  52.234  1.00  0.00     0.044 C 
ENDBRANCH  17  19
ENDBRANCH  10  17
ENDBRANCH   1   7
TORSDOF 6
ENDMDL
MODEL 19
REMARK VINA RESULT:    -7.422      2.847      6.384
REMARK INTER + INTRA:         -11.372
REMARK INTER:                 -10.206
REMARK INTRA:                  -1.166
REMARK UNBOUND:                -1.347
REMARK SMILES CCCCNc1nc(Nc2ccc(C)cc2C)c2cnn(C)c2n1
REMARK SMILES IDX 5 1 4 3 3 4 2 5 1 6 6 7 7 8 24 9 8 10 23 11 18 12 21 13
REMARK SMILES IDX 19 14 20 15 22 16 9 17 10 19 11 20 16 21 12 22 15 23 13 24
REMARK SMILES IDX 17 25 14 26
REMARK H PARENT 5 2 9 18
ROOT
ATOM      1  N   UNL     1       3.132  45.820  55.958  1.00  0.00    -0.354 N 
ATOM      2  H   UNL     1       2.633  46.488  56.536  1.00  0.00     0.163 HD
ENDROOT
BRANCH   1   3
ATOM      3  C   UNL     1       4.341  46.327  55.329  1.00  0.00     0.116 C 
BRANCH   3   4
ATOM      4  C   UNL     1       5.467  45.291  55.387  1.00  0.00     0.021 C 
BRANCH   4   5
ATOM      5  C   UNL     1       5.989  44.890  54.005  1.00  0.00    -0.002 C 
ATOM      6  C   UNL     1       6.969  45.886  53.408  1.00  0.00     0.004 C 
ENDBRANCH   4   5
ENDBRANCH   3   4
ENDBRANCH   1   3
BRANCH   1   7
ATOM      7  C   UNL     1       2.179  45.258  55.120  1.00  0.00     0.226 A 
ATOM      8  N   UNL     1       2.469  45.026  53.827  1.00  0.00    -0.195 NA
ATOM      9  N   UNL     1       1.013  44.979  55.717  1.00  0.00    -0.193 NA
ATOM     10  C   UNL     1       1.563  44.432  53.004  1.00  0.00     0.147 A 
ATOM     11  C   UNL     1       0.128  44.405  54.891  1.00  0.00     0.165 A 
ATOM     12  C   UNL     1       0.323  44.105  53.559  1.00  0.00     0.082 A 
ATOM     13  N   UNL     1      -1.141  43.990  55.190  1.00  0.00    -0.250 N 
ATOM     14  C   UNL     1      -0.895  43.524  53.148  1.00  0.00     0.149 A 
ATOM     15  N   UNL     1      -1.793  43.444  54.136  1.00  0.00    -0.179 NA
ATOM     16  C   UNL     1      -1.805  44.080  56.465  1.00  0.00     0.176 C 
BRANCH  10  17
ATOM     17  N   UNL     1       1.869  44.139  51.659  1.00  0.00    -0.339 N 
ATOM     18  H   UNL     1       1.053  43.771  51.184  1.00  0.00     0.168 HD
BRANCH  17  19
ATOM     19  C   UNL     1       3.063  43.532  51.209  1.00  0.00     0.043 A 
ATOM     20  C   UNL     1       3.144  42.131  51.193  1.00  0.00     0.026 A 
ATOM     21  C   UNL     1       4.192  44.284  50.837  1.00  0.00    -0.027 A 
ATOM     22  C   UNL     1       4.319  41.480  50.812  1.00  0.00     0.005 A 
ATOM     23  C   UNL     1       5.374  43.616  50.465  1.00  0.00     0.009 A 
ATOM     24  C   UNL     1       5.450  42.219  50.459  1.00  0.00    -0.051 A 
ATOM     25  C   UNL     1       4.183  45.788  50.834  1.00  0.00     0.046 C 
ATOM     26  C   UNL     1       6.710  41.528  50.030  1.00  0.00     0.044 C 
ENDBRANCH  17  19
ENDBRANCH  10  17
ENDBRANCH   1   7
TORSDOF 6
ENDMDL
