MODEL 1
REMARK VINA RESULT:    -8.584      0.000      0.000
REMARK INTER + INTRA:         -12.352
REMARK INTER:                 -11.595
REMARK INTRA:                  -0.757
REMARK UNBOUND:                -0.757
REMARK SMILES CCCCNc1nc(Nc2ccc(Cl)cc2Cl)c2cnn(C)c2n1
REMARK SMILES IDX 5 1 4 3 3 4 2 5 1 6 6 7 7 8 24 9 8 10 23 11 18 12 21 13
REMARK SMILES IDX 19 14 20 15 22 16 9 17 10 19 11 20 16 21 12 22 15 23 13 24
REMARK SMILES IDX 17 25 14 26
REMARK H PARENT 5 2 9 18
ROOT
ATOM      1  N   UNL     1       6.387  41.661  49.410  1.00  0.00    -0.354 N 
ATOM      2  H   UNL     1       7.336  41.871  49.117  1.00  0.00     0.163 HD
ENDROOT
BRANCH   1   3
ATOM      3  C   UNL     1       5.483  41.260  48.346  1.00  0.00     0.116 C 
BRANCH   3   4
ATOM      4  C   UNL     1       5.852  42.009  47.064  1.00  0.00     0.021 C 
BRANCH   4   5
ATOM      5  C   UNL     1       5.045  41.503  45.870  1.00  0.00    -0.002 C 
ATOM      6  C   UNL     1       5.172  42.435  44.675  1.00  0.00     0.004 C 
ENDBRANCH   4   5
ENDBRANCH   3   4
ENDBRANCH   1   3
BRANCH   1   7
ATOM      7  C   UNL     1       5.964  42.765  50.142  1.00  0.00     0.226 A 
ATOM      8  N   UNL     1       6.723  43.877  50.167  1.00  0.00    -0.195 NA
ATOM      9  N   UNL     1       4.800  42.603  50.781  1.00  0.00    -0.193 NA
ATOM     10  C   UNL     1       6.328  44.963  50.877  1.00  0.00     0.147 A 
ATOM     11  C   UNL     1       4.426  43.691  51.470  1.00  0.00     0.165 A 
ATOM     12  C   UNL     1       5.116  44.883  51.568  1.00  0.00     0.082 A 
ATOM     13  N   UNL     1       3.288  43.848  52.213  1.00  0.00    -0.250 N 
ATOM     14  C   UNL     1       4.303  45.685  52.395  1.00  0.00     0.149 A 
ATOM     15  N   UNL     1       3.189  45.063  52.798  1.00  0.00    -0.179 NA
ATOM     16  C   UNL     1       2.241  42.878  52.414  1.00  0.00     0.176 C 
BRANCH  10  17
ATOM     17  N   UNL     1       7.202  46.074  50.841  1.00  0.00    -0.338 N 
ATOM     18  H   UNL     1       7.749  45.887  49.997  1.00  0.00     0.168 HD
BRANCH  17  19
ATOM     19  C   UNL     1       8.061  46.434  51.907  1.00  0.00     0.059 A 
ATOM     20  C   UNL     1       7.537  47.202  52.956  1.00  0.00     0.029 A 
ATOM     21  C   UNL     1       9.403  46.014  51.980  1.00  0.00     0.066 A 
ATOM     22  C   UNL     1       8.334  47.547  54.050  1.00  0.00     0.023 A 
ATOM     23  C   UNL     1      10.201  46.358  53.074  1.00  0.00     0.043 A 
ATOM     24  C   UNL     1       9.659  47.123  54.103  1.00  0.00     0.042 A 
ATOM     25  Cl  UNL     1      10.115  45.078  50.713  1.00  0.00    -0.082 Cl
ATOM     26  Cl  UNL     1      10.637  47.550  55.452  1.00  0.00    -0.084 Cl
ENDBRANCH  17  19
ENDBRANCH  10  17
ENDBRANCH   1   7
TORSDOF 6
ENDMDL
MODEL 2
REMARK VINA RESULT:    -8.489      1.912      4.485
REMARK INTER + INTRA:         -12.224
REMARK INTER:                 -11.132
REMARK INTRA:                  -1.091
REMARK UNBOUND:                -0.757
REMARK SMILES CCCCNc1nc(Nc2ccc(Cl)cc2Cl)c2cnn(C)c2n1
REMARK SMILES IDX 5 1 4 3 3 4 2 5 1 6 6 7 7 8 24 9 8 10 23 11 18 12 21 13
REMARK SMILES IDX 19 14 20 15 22 16 9 17 10 19 11 20 16 21 12 22 15 23 13 24
REMARK SMILES IDX 17 25 14 26
REMARK H PARENT 5 2 9 18
ROOT
ATOM      1  N   UNL     1       2.856  45.893  52.157  1.00  0.00    -0.354 N 
ATOM      2  H   UNL     1       2.509  46.542  51.458  1.00  0.00     0.163 HD
ENDROOT
BRANCH   1   3
ATOM      3  C   UNL     1       3.086  46.461  53.474  1.00  0.00     0.116 C 
BRANCH   3   4
ATOM      4  C   UNL     1       3.337  45.329  54.472  1.00  0.00     0.021 C 
BRANCH   4   5
ATOM      5  C   UNL     1       4.583  45.595  55.316  1.00  0.00    -0.002 C 
ATOM      6  C   UNL     1       5.762  44.757  54.850  1.00  0.00     0.004 C 
ENDBRANCH   4   5
ENDBRANCH   3   4
ENDBRANCH   1   3
BRANCH   1   7
ATOM      7  C   UNL     1       3.970  45.287  51.587  1.00  0.00     0.226 A 
ATOM      8  N   UNL     1       5.113  45.986  51.453  1.00  0.00    -0.195 NA
ATOM      9  N   UNL     1       3.785  44.017  51.206  1.00  0.00    -0.193 NA
ATOM     10  C   UNL     1       6.209  45.412  50.898  1.00  0.00     0.147 A 
ATOM     11  C   UNL     1       4.884  43.468  50.667  1.00  0.00     0.165 A 
ATOM     12  C   UNL     1       6.107  44.083  50.481  1.00  0.00     0.082 A 
ATOM     13  N   UNL     1       5.023  42.192  50.194  1.00  0.00    -0.250 N 
ATOM     14  C   UNL     1       6.907  43.084  49.888  1.00  0.00     0.149 A 
ATOM     15  N   UNL     1       6.256  41.930  49.704  1.00  0.00    -0.179 NA
ATOM     16  C   UNL     1       4.019  41.158  50.176  1.00  0.00     0.176 C 
BRANCH  10  17
ATOM     17  N   UNL     1       7.353  46.237  50.800  1.00  0.00    -0.338 N 
ATOM     18  H   UNL     1       7.894  45.767  50.068  1.00  0.00     0.168 HD
BRANCH  17  19
ATOM     19  C   UNL     1       8.192  46.553  51.895  1.00  0.00     0.059 A 
ATOM     20  C   UNL     1       7.668  47.335  52.934  1.00  0.00     0.029 A 
ATOM     21  C   UNL     1       9.512  46.076  52.008  1.00  0.00     0.066 A 
ATOM     22  C   UNL     1       8.442  47.639  54.056  1.00  0.00     0.023 A 
ATOM     23  C   UNL     1      10.288  46.378  53.129  1.00  0.00     0.043 A 
ATOM     24  C   UNL     1       9.746  47.159  54.148  1.00  0.00     0.042 A 
ATOM     25  Cl  UNL     1      10.225  45.120  50.756  1.00  0.00    -0.082 Cl
ATOM     26  Cl  UNL     1      10.697  47.534  55.531  1.00  0.00    -0.084 Cl
ENDBRANCH  17  19
ENDBRANCH  10  17
ENDBRANCH   1   7
TORSDOF 6
ENDMDL
MODEL 3
REMARK VINA RESULT:    -8.402      3.143      6.928
REMARK INTER + INTRA:         -12.106
REMARK INTER:                 -11.539
REMARK INTRA:                  -0.567
REMARK UNBOUND:                -0.757
REMARK SMILES CCCCNc1nc(Nc2ccc(Cl)cc2Cl)c2cnn(C)c2n1
REMARK SMILES IDX 5 1 4 3 3 4 2 5 1 6 6 7 7 8 24 9 8 10 23 11 18 12 21 13
REMARK SMILES IDX 19 14 20 15 22 16 9 17 10 19 11 20 16 21 12 22 15 23 13 24
REMARK SMILES IDX 17 25 14 26
REMARK H PARENT 5 2 9 18
ROOT
ATOM      1  N   UNL     1       8.795  47.526  51.714  1.00  0.00    -0.354 N 
ATOM      2  H   UNL     1       8.869  47.976  50.808  1.00  0.00     0.163 HD
ENDROOT
BRANCH   1   3
ATOM      3  C   UNL     1       9.970  46.785  52.139  1.00  0.00     0.116 C 
BRANCH   3   4
ATOM      4  C   UNL     1       9.795  46.361  53.599  1.00  0.00     0.021 C 
BRANCH   4   5
ATOM      5  C   UNL     1       9.647  47.573  54.518  1.00  0.00    -0.002 C 
ATOM      6  C   UNL     1      10.629  47.517  55.677  1.00  0.00     0.004 C 
ENDBRANCH   4   5
ENDBRANCH   3   4
ENDBRANCH   1   3
BRANCH   1   7
ATOM      7  C   UNL     1       7.625  46.775  51.667  1.00  0.00     0.226 A 
ATOM      8  N   UNL     1       6.541  47.190  52.349  1.00  0.00    -0.195 NA
ATOM      9  N   UNL     1       7.699  45.665  50.924  1.00  0.00    -0.193 NA
ATOM     10  C   UNL     1       5.391  46.470  52.318  1.00  0.00     0.147 A 
ATOM     11  C   UNL     1       6.550  44.974  50.902  1.00  0.00     0.165 A 
ATOM     12  C   UNL     1       5.378  45.299  51.556  1.00  0.00     0.082 A 
ATOM     13  N   UNL     1       6.299  43.809  50.229  1.00  0.00    -0.250 N 
ATOM     14  C   UNL     1       4.489  44.262  51.207  1.00  0.00     0.149 A 
ATOM     15  N   UNL     1       5.041  43.346  50.402  1.00  0.00    -0.179 NA
ATOM     16  C   UNL     1       7.215  43.074  49.393  1.00  0.00     0.176 C 
BRANCH  10  17
ATOM     17  N   UNL     1       4.317  46.992  53.074  1.00  0.00    -0.338 N 
ATOM     18  H   UNL     1       4.795  47.353  53.904  1.00  0.00     0.168 HD
BRANCH  17  19
ATOM     19  C   UNL     1       3.184  46.235  53.458  1.00  0.00     0.059 A 
ATOM     20  C   UNL     1       2.024  46.327  52.678  1.00  0.00     0.029 A 
ATOM     21  C   UNL     1       3.190  45.359  54.561  1.00  0.00     0.066 A 
ATOM     22  C   UNL     1       0.894  45.568  52.991  1.00  0.00     0.023 A 
ATOM     23  C   UNL     1       2.061  44.599  54.876  1.00  0.00     0.043 A 
ATOM     24  C   UNL     1       0.919  44.709  54.087  1.00  0.00     0.042 A 
ATOM     25  Cl  UNL     1       4.582  45.210  55.574  1.00  0.00    -0.082 Cl
ATOM     26  Cl  UNL     1      -0.474  43.776  54.470  1.00  0.00    -0.084 Cl
ENDBRANCH  17  19
ENDBRANCH  10  17
ENDBRANCH   1   7
TORSDOF 6
ENDMDL
MODEL 4
REMARK VINA RESULT:    -8.336      2.075      3.077
REMARK INTER + INTRA:         -12.017
REMARK INTER:                 -11.106
REMARK INTRA:                  -0.911
REMARK UNBOUND:                -0.757
REMARK SMILES CCCCNc1nc(Nc2ccc(Cl)cc2Cl)c2cnn(C)c2n1
REMARK SMILES IDX 5 1 4 3 3 4 2 5 1 6 6 7 7 8 24 9 8 10 23 11 18 12 21 13
REMARK SMILES IDX 19 14 20 15 22 16 9 17 10 19 11 20 16 21 12 22 15 23 13 24
REMARK SMILES IDX 17 25 14 26
REMARK H PARENT 5 2 9 18
ROOT
ATOM      1  N   UNL     1       4.338  41.507  51.319  1.00  0.00    -0.354 N 
ATOM      2  H   UNL     1       5.116  41.333  51.946  1.00  0.00     0.163 HD
ENDROOT
BRANCH   1   3
ATOM      3  C   UNL     1       4.653  41.447  49.903  1.00  0.00     0.116 C 
BRANCH   3   4
ATOM      4  C   UNL     1       6.173  41.483  49.725  1.00  0.00     0.021 C 
BRANCH   4   5
ATOM      5  C   UNL     1       6.600  42.626  48.805  1.00  0.00    -0.002 C 
ATOM      6  C   UNL     1       7.825  43.346  49.344  1.00  0.00     0.004 C 
ENDBRANCH   4   5
ENDBRANCH   3   4
ENDBRANCH   1   3
BRANCH   1   7
ATOM      7  C   UNL     1       3.780  42.711  51.736  1.00  0.00     0.226 A 
ATOM      8  N   UNL     1       4.450  43.861  51.532  1.00  0.00    -0.195 NA
ATOM      9  N   UNL     1       2.586  42.601  52.330  1.00  0.00    -0.193 NA
ATOM     10  C   UNL     1       3.924  45.045  51.934  1.00  0.00     0.147 A 
ATOM     11  C   UNL     1       2.082  43.784  52.712  1.00  0.00     0.165 A 
ATOM     12  C   UNL     1       2.673  45.023  52.556  1.00  0.00     0.082 A 
ATOM     13  N   UNL     1       0.883  44.011  53.331  1.00  0.00    -0.250 N 
ATOM     14  C   UNL     1       1.743  45.922  53.116  1.00  0.00     0.149 A 
ATOM     15  N   UNL     1       0.651  45.316  53.596  1.00  0.00    -0.179 NA
ATOM     16  C   UNL     1      -0.102  43.026  53.703  1.00  0.00     0.176 C 
BRANCH  10  17
ATOM     17  N   UNL     1       4.714  46.189  51.677  1.00  0.00    -0.338 N 
ATOM     18  H   UNL     1       4.789  46.172  50.657  1.00  0.00     0.168 HD
BRANCH  17  19
ATOM     19  C   UNL     1       5.988  46.410  52.253  1.00  0.00     0.059 A 
ATOM     20  C   UNL     1       7.125  46.199  51.460  1.00  0.00     0.029 A 
ATOM     21  C   UNL     1       6.159  46.878  53.570  1.00  0.00     0.066 A 
ATOM     22  C   UNL     1       8.402  46.444  51.969  1.00  0.00     0.023 A 
ATOM     23  C   UNL     1       7.436  47.124  54.081  1.00  0.00     0.043 A 
ATOM     24  C   UNL     1       8.551  46.905  53.275  1.00  0.00     0.042 A 
ATOM     25  Cl  UNL     1       4.801  47.143  54.606  1.00  0.00    -0.082 Cl
ATOM     26  Cl  UNL     1      10.125  47.206  53.900  1.00  0.00    -0.084 Cl
ENDBRANCH  17  19
ENDBRANCH  10  17
ENDBRANCH   1   7
TORSDOF 6
ENDMDL
MODEL 5
REMARK VINA RESULT:    -8.312      3.011      6.294
REMARK INTER + INTRA:         -11.985
REMARK INTER:                 -11.149
REMARK INTRA:                  -0.836
REMARK UNBOUND:                -0.757
REMARK SMILES CCCCNc1nc(Nc2ccc(Cl)cc2Cl)c2cnn(C)c2n1
REMARK SMILES IDX 5 1 4 3 3 4 2 5 1 6 6 7 7 8 24 9 8 10 23 11 18 12 21 13
REMARK SMILES IDX 19 14 20 15 22 16 9 17 10 19 11 20 16 21 12 22 15 23 13 24
REMARK SMILES IDX 17 25 14 26
REMARK H PARENT 5 2 9 18
ROOT
ATOM      1  N   UNL     1       8.027  46.216  50.681  1.00  0.00    -0.354 N 
ATOM      2  H   UNL     1       8.690  45.477  50.472  1.00  0.00     0.163 HD
ENDROOT
BRANCH   1   3
ATOM      3  C   UNL     1       8.422  47.123  51.745  1.00  0.00     0.116 C 
BRANCH   3   4
ATOM      4  C   UNL     1       9.846  46.785  52.190  1.00  0.00     0.021 C 
BRANCH   4   5
ATOM      5  C   UNL     1       9.947  46.687  53.711  1.00  0.00    -0.002 C 
ATOM      6  C   UNL     1       9.159  47.794  54.394  1.00  0.00     0.004 C 
ENDBRANCH   4   5
ENDBRANCH   3   4
ENDBRANCH   1   3
BRANCH   1   7
ATOM      7  C   UNL     1       6.807  45.581  50.887  1.00  0.00     0.226 A 
ATOM      8  N   UNL     1       5.784  46.265  51.433  1.00  0.00    -0.195 NA
ATOM      9  N   UNL     1       6.773  44.296  50.514  1.00  0.00    -0.193 NA
ATOM     10  C   UNL     1       4.588  45.662  51.644  1.00  0.00     0.147 A 
ATOM     11  C   UNL     1       5.579  43.723  50.725  1.00  0.00     0.165 A 
ATOM     12  C   UNL     1       4.461  44.321  51.273  1.00  0.00     0.082 A 
ATOM     13  N   UNL     1       5.219  42.433  50.442  1.00  0.00    -0.250 N 
ATOM     14  C   UNL     1       3.488  43.300  51.273  1.00  0.00     0.149 A 
ATOM     15  N   UNL     1       3.940  42.144  50.773  1.00  0.00    -0.179 NA
ATOM     16  C   UNL     1       6.046  41.411  49.850  1.00  0.00     0.176 C 
BRANCH  10  17
ATOM     17  N   UNL     1       3.585  46.470  52.228  1.00  0.00    -0.338 N 
ATOM     18  H   UNL     1       4.064  47.369  52.323  1.00  0.00     0.168 HD
BRANCH  17  19
ATOM     19  C   UNL     1       2.917  46.147  53.433  1.00  0.00     0.059 A 
ATOM     20  C   UNL     1       1.588  45.706  53.361  1.00  0.00     0.029 A 
ATOM     21  C   UNL     1       3.544  46.203  54.692  1.00  0.00     0.066 A 
ATOM     22  C   UNL     1       0.899  45.334  54.518  1.00  0.00     0.023 A 
ATOM     23  C   UNL     1       2.856  45.832  55.850  1.00  0.00     0.043 A 
ATOM     24  C   UNL     1       1.536  45.399  55.755  1.00  0.00     0.042 A 
ATOM     25  Cl  UNL     1       5.174  46.753  54.853  1.00  0.00    -0.082 Cl
ATOM     26  Cl  UNL     1       0.685  44.942  57.177  1.00  0.00    -0.084 Cl
ENDBRANCH  17  19
ENDBRANCH  10  17
ENDBRANCH   1   7
TORSDOF 6
ENDMDL
MODEL 6
REMARK VINA RESULT:    -8.311      2.835      6.827
REMARK INTER + INTRA:         -11.983
REMARK INTER:                 -11.278
REMARK INTRA:                  -0.706
REMARK UNBOUND:                -0.757
REMARK SMILES CCCCNc1nc(Nc2ccc(Cl)cc2Cl)c2cnn(C)c2n1
REMARK SMILES IDX 5 1 4 3 3 4 2 5 1 6 6 7 7 8 24 9 8 10 23 11 18 12 21 13
REMARK SMILES IDX 19 14 20 15 22 16 9 17 10 19 11 20 16 21 12 22 15 23 13 24
REMARK SMILES IDX 17 25 14 26
REMARK H PARENT 5 2 9 18
ROOT
ATOM      1  N   UNL     1       4.882  46.972  54.963  1.00  0.00    -0.354 N 
ATOM      2  H   UNL     1       5.215  47.586  55.698  1.00  0.00     0.163 HD
ENDROOT
BRANCH   1   3
ATOM      3  C   UNL     1       4.233  45.754  55.417  1.00  0.00     0.116 C 
BRANCH   3   4
ATOM      4  C   UNL     1       2.733  45.848  55.131  1.00  0.00     0.021 C 
BRANCH   4   5
ATOM      5  C   UNL     1       2.390  45.270  53.759  1.00  0.00    -0.002 C 
ATOM      6  C   UNL     1       2.107  46.368  52.746  1.00  0.00     0.004 C 
ENDBRANCH   4   5
ENDBRANCH   3   4
ENDBRANCH   1   3
BRANCH   1   7
ATOM      7  C   UNL     1       5.970  46.767  54.121  1.00  0.00     0.226 A 
ATOM      8  N   UNL     1       5.770  46.283  52.881  1.00  0.00    -0.195 NA
ATOM      9  N   UNL     1       7.158  47.078  54.653  1.00  0.00    -0.193 NA
ATOM     10  C   UNL     1       6.819  46.074  52.047  1.00  0.00     0.147 A 
ATOM     11  C   UNL     1       8.179  46.871  53.808  1.00  0.00     0.165 A 
ATOM     12  C   UNL     1       8.097  46.382  52.518  1.00  0.00     0.082 A 
ATOM     13  N   UNL     1       9.507  47.100  54.044  1.00  0.00    -0.250 N 
ATOM     14  C   UNL     1       9.435  46.359  52.073  1.00  0.00     0.149 A 
ATOM     15  N   UNL     1      10.303  46.790  52.996  1.00  0.00    -0.179 NA
ATOM     16  C   UNL     1      10.097  47.620  55.253  1.00  0.00     0.176 C 
BRANCH  10  17
ATOM     17  N   UNL     1       6.497  45.557  50.771  1.00  0.00    -0.338 N 
ATOM     18  H   UNL     1       5.924  46.307  50.374  1.00  0.00     0.168 HD
BRANCH  17  19
ATOM     19  C   UNL     1       5.869  44.306  50.565  1.00  0.00     0.059 A 
ATOM     20  C   UNL     1       4.624  44.077  51.168  1.00  0.00     0.029 A 
ATOM     21  C   UNL     1       6.417  43.302  49.743  1.00  0.00     0.066 A 
ATOM     22  C   UNL     1       3.945  42.874  50.961  1.00  0.00     0.023 A 
ATOM     23  C   UNL     1       5.739  42.099  49.535  1.00  0.00     0.043 A 
ATOM     24  C   UNL     1       4.504  41.893  50.146  1.00  0.00     0.042 A 
ATOM     25  Cl  UNL     1       7.955  43.514  48.982  1.00  0.00    -0.082 Cl
ATOM     26  Cl  UNL     1       3.665  40.414  49.893  1.00  0.00    -0.084 Cl
ENDBRANCH  17  19
ENDBRANCH  10  17
ENDBRANCH   1   7
TORSDOF 6
ENDMDL
MODEL 7
REMARK VINA RESULT:    -8.301      3.509      7.319
REMARK INTER + INTRA:         -11.969
REMARK INTER:                 -11.126
REMARK INTRA:                  -0.843
REMARK UNBOUND:                -0.757
REMARK SMILES CCCCNc1nc(Nc2ccc(Cl)cc2Cl)c2cnn(C)c2n1
REMARK SMILES IDX 5 1 4 3 3 4 2 5 1 6 6 7 7 8 24 9 8 10 23 11 18 12 21 13
REMARK SMILES IDX 19 14 20 15 22 16 9 17 10 19 11 20 16 21 12 22 15 23 13 24
REMARK SMILES IDX 17 25 14 26
REMARK H PARENT 5 2 9 18
ROOT
ATOM      1  N   UNL     1       6.610  47.380  52.629  1.00  0.00    -0.354 N 
ATOM      2  H   UNL     1       5.872  48.023  52.363  1.00  0.00     0.163 HD
ENDROOT
BRANCH   1   3
ATOM      3  C   UNL     1       7.949  47.765  52.217  1.00  0.00     0.116 C 
BRANCH   3   4
ATOM      4  C   UNL     1       8.842  47.878  53.455  1.00  0.00     0.021 C 
BRANCH   4   5
ATOM      5  C   UNL     1       9.942  46.818  53.447  1.00  0.00    -0.002 C 
ATOM      6  C   UNL     1      10.280  46.376  52.032  1.00  0.00     0.004 C 
ENDBRANCH   4   5
ENDBRANCH   3   4
ENDBRANCH   1   3
BRANCH   1   7
ATOM      7  C   UNL     1       6.203  46.130  52.175  1.00  0.00     0.226 A 
ATOM      8  N   UNL     1       5.152  45.521  52.755  1.00  0.00    -0.195 NA
ATOM      9  N   UNL     1       6.933  45.633  51.170  1.00  0.00    -0.193 NA
ATOM     10  C   UNL     1       4.742  44.301  52.327  1.00  0.00     0.147 A 
ATOM     11  C   UNL     1       6.506  44.430  50.759  1.00  0.00     0.165 A 
ATOM     12  C   UNL     1       5.443  43.711  51.273  1.00  0.00     0.082 A 
ATOM     13  N   UNL     1       7.028  43.667  49.750  1.00  0.00    -0.250 N 
ATOM     14  C   UNL     1       5.418  42.533  50.499  1.00  0.00     0.149 A 
ATOM     15  N   UNL     1       6.381  42.493  49.571  1.00  0.00    -0.179 NA
ATOM     16  C   UNL     1       8.150  43.994  48.906  1.00  0.00     0.176 C 
BRANCH  10  17
ATOM     17  N   UNL     1       3.633  43.750  53.010  1.00  0.00    -0.338 N 
ATOM     18  H   UNL     1       3.706  42.758  52.770  1.00  0.00     0.168 HD
BRANCH  17  19
ATOM     19  C   UNL     1       2.301  44.195  52.834  1.00  0.00     0.059 A 
ATOM     20  C   UNL     1       1.728  44.100  51.558  1.00  0.00     0.029 A 
ATOM     21  C   UNL     1       1.513  44.683  53.894  1.00  0.00     0.066 A 
ATOM     22  C   UNL     1       0.403  44.487  51.342  1.00  0.00     0.023 A 
ATOM     23  C   UNL     1       0.188  45.070  53.681  1.00  0.00     0.043 A 
ATOM     24  C   UNL     1      -0.359  44.969  52.404  1.00  0.00     0.042 A 
ATOM     25  Cl  UNL     1       2.163  44.841  55.488  1.00  0.00    -0.082 Cl
ATOM     26  Cl  UNL     1      -1.989  45.445  52.136  1.00  0.00    -0.084 Cl
ENDBRANCH  17  19
ENDBRANCH  10  17
ENDBRANCH   1   7
TORSDOF 6
ENDMDL
MODEL 8
REMARK VINA RESULT:    -8.239      1.645      4.358
REMARK INTER + INTRA:         -11.885
REMARK INTER:                 -11.084
REMARK INTRA:                  -0.801
REMARK UNBOUND:                -0.757
REMARK SMILES CCCCNc1nc(Nc2ccc(Cl)cc2Cl)c2cnn(C)c2n1
REMARK SMILES IDX 5 1 4 3 3 4 2 5 1 6 6 7 7 8 24 9 8 10 23 11 18 12 21 13
REMARK SMILES IDX 19 14 20 15 22 16 9 17 10 19 11 20 16 21 12 22 15 23 13 24
REMARK SMILES IDX 17 25 14 26
REMARK H PARENT 5 2 9 18
ROOT
ATOM      1  N   UNL     1       3.801  44.051  53.273  1.00  0.00    -0.354 N 
ATOM      2  H   UNL     1       2.978  43.736  52.772  1.00  0.00     0.163 HD
ENDROOT
BRANCH   1   3
ATOM      3  C   UNL     1       3.606  45.213  54.122  1.00  0.00     0.116 C 
BRANCH   3   4
ATOM      4  C   UNL     1       2.125  45.598  54.114  1.00  0.00     0.021 C 
BRANCH   4   5
ATOM      5  C   UNL     1       1.661  45.999  52.715  1.00  0.00    -0.002 C 
ATOM      6  C   UNL     1       0.352  45.321  52.346  1.00  0.00     0.004 C 
ENDBRANCH   4   5
ENDBRANCH   3   4
ENDBRANCH   1   3
BRANCH   1   7
ATOM      7  C   UNL     1       4.795  44.199  52.311  1.00  0.00     0.226 A 
ATOM      8  N   UNL     1       5.581  45.291  52.329  1.00  0.00    -0.195 NA
ATOM      9  N   UNL     1       4.869  43.201  51.422  1.00  0.00    -0.193 NA
ATOM     10  C   UNL     1       6.554  45.454  51.398  1.00  0.00     0.147 A 
ATOM     11  C   UNL     1       5.842  43.380  50.516  1.00  0.00     0.165 A 
ATOM     12  C   UNL     1       6.708  44.454  50.436  1.00  0.00     0.082 A 
ATOM     13  N   UNL     1       6.180  42.541  49.490  1.00  0.00    -0.250 N 
ATOM     14  C   UNL     1       7.523  44.156  49.324  1.00  0.00     0.149 A 
ATOM     15  N   UNL     1       7.207  42.996  48.737  1.00  0.00    -0.179 NA
ATOM     16  C   UNL     1       5.566  41.279  49.162  1.00  0.00     0.176 C 
BRANCH  10  17
ATOM     17  N   UNL     1       7.316  46.640  51.505  1.00  0.00    -0.338 N 
ATOM     18  H   UNL     1       7.809  46.660  50.608  1.00  0.00     0.168 HD
BRANCH  17  19
ATOM     19  C   UNL     1       8.222  46.900  52.562  1.00  0.00     0.059 A 
ATOM     20  C   UNL     1       7.758  47.606  53.680  1.00  0.00     0.029 A 
ATOM     21  C   UNL     1       9.553  46.440  52.556  1.00  0.00     0.066 A 
ATOM     22  C   UNL     1       8.602  47.851  54.767  1.00  0.00     0.023 A 
ATOM     23  C   UNL     1      10.398  46.684  53.641  1.00  0.00     0.043 A 
ATOM     24  C   UNL     1       9.915  47.389  54.741  1.00  0.00     0.042 A 
ATOM     25  Cl  UNL     1      10.193  45.578  51.201  1.00  0.00    -0.082 Cl
ATOM     26  Cl  UNL     1      10.952  47.692  56.080  1.00  0.00    -0.084 Cl
ENDBRANCH  17  19
ENDBRANCH  10  17
ENDBRANCH   1   7
TORSDOF 6
ENDMDL
MODEL 9
REMARK VINA RESULT:    -8.198      1.971      4.547
REMARK INTER + INTRA:         -11.830
REMARK INTER:                 -11.133
REMARK INTRA:                  -0.697
REMARK UNBOUND:                -0.757
REMARK SMILES CCCCNc1nc(Nc2ccc(Cl)cc2Cl)c2cnn(C)c2n1
REMARK SMILES IDX 5 1 4 3 3 4 2 5 1 6 6 7 7 8 24 9 8 10 23 11 18 12 21 13
REMARK SMILES IDX 19 14 20 15 22 16 9 17 10 19 11 20 16 21 12 22 15 23 13 24
REMARK SMILES IDX 17 25 14 26
REMARK H PARENT 5 2 9 18
ROOT
ATOM      1  N   UNL     1       3.633  43.651  53.152  1.00  0.00    -0.354 N 
ATOM      2  H   UNL     1       2.874  43.217  52.637  1.00  0.00     0.163 HD
ENDROOT
BRANCH   1   3
ATOM      3  C   UNL     1       3.264  44.812  53.942  1.00  0.00     0.116 C 
BRANCH   3   4
ATOM      4  C   UNL     1       1.809  45.180  53.646  1.00  0.00     0.021 C 
BRANCH   4   5
ATOM      5  C   UNL     1       1.701  46.081  52.417  1.00  0.00    -0.002 C 
ATOM      6  C   UNL     1       2.768  47.164  52.424  1.00  0.00     0.004 C 
ENDBRANCH   4   5
ENDBRANCH   3   4
ENDBRANCH   1   3
BRANCH   1   7
ATOM      7  C   UNL     1       4.637  43.883  52.218  1.00  0.00     0.226 A 
ATOM      8  N   UNL     1       5.371  45.009  52.296  1.00  0.00    -0.195 NA
ATOM      9  N   UNL     1       4.775  42.927  51.292  1.00  0.00    -0.193 NA
ATOM     10  C   UNL     1       6.353  45.254  51.393  1.00  0.00     0.147 A 
ATOM     11  C   UNL     1       5.756  43.187  50.415  1.00  0.00     0.165 A 
ATOM     12  C   UNL     1       6.572  44.302  50.396  1.00  0.00     0.082 A 
ATOM     13  N   UNL     1       6.154  42.406  49.364  1.00  0.00    -0.250 N 
ATOM     14  C   UNL     1       7.422  44.087  49.291  1.00  0.00     0.149 A 
ATOM     15  N   UNL     1       7.173  42.938  48.653  1.00  0.00    -0.179 NA
ATOM     16  C   UNL     1       5.606  41.131  48.974  1.00  0.00     0.176 C 
BRANCH  10  17
ATOM     17  N   UNL     1       7.056  46.469  51.563  1.00  0.00    -0.338 N 
ATOM     18  H   UNL     1       7.528  46.571  50.661  1.00  0.00     0.168 HD
BRANCH  17  19
ATOM     19  C   UNL     1       7.969  46.709  52.618  1.00  0.00     0.059 A 
ATOM     20  C   UNL     1       9.339  46.557  52.362  1.00  0.00     0.029 A 
ATOM     21  C   UNL     1       7.563  47.138  53.896  1.00  0.00     0.066 A 
ATOM     22  C   UNL     1      10.282  46.822  53.359  1.00  0.00     0.023 A 
ATOM     23  C   UNL     1       8.503  47.404  54.893  1.00  0.00     0.043 A 
ATOM     24  C   UNL     1       9.859  47.244  54.617  1.00  0.00     0.042 A 
ATOM     25  Cl  UNL     1       5.889  47.329  54.282  1.00  0.00    -0.082 Cl
ATOM     26  Cl  UNL     1      11.022  47.570  55.841  1.00  0.00    -0.084 Cl
ENDBRANCH  17  19
ENDBRANCH  10  17
ENDBRANCH   1   7
TORSDOF 6
ENDMDL
MODEL 10
REMARK VINA RESULT:    -8.126      3.600      7.440
REMARK INTER + INTRA:         -11.733
REMARK INTER:                 -11.012
REMARK INTRA:                  -0.721
REMARK UNBOUND:                -0.757
REMARK SMILES CCCCNc1nc(Nc2ccc(Cl)cc2Cl)c2cnn(C)c2n1
REMARK SMILES IDX 5 1 4 3 3 4 2 5 1 6 6 7 7 8 24 9 8 10 23 11 18 12 21 13
REMARK SMILES IDX 19 14 20 15 22 16 9 17 10 19 11 20 16 21 12 22 15 23 13 24
REMARK SMILES IDX 17 25 14 26
REMARK H PARENT 5 2 9 18
ROOT
ATOM      1  N   UNL     1       6.745  46.418  52.158  1.00  0.00    -0.354 N 
ATOM      2  H   UNL     1       6.130  47.214  52.031  1.00  0.00     0.163 HD
ENDROOT
BRANCH   1   3
ATOM      3  C   UNL     1       7.933  46.410  51.323  1.00  0.00     0.116 C 
BRANCH   3   4
ATOM      4  C   UNL     1       8.982  47.342  51.934  1.00  0.00     0.021 C 
BRANCH   4   5
ATOM      5  C   UNL     1       9.898  46.593  52.900  1.00  0.00    -0.002 C 
ATOM      6  C   UNL     1       9.911  47.244  54.274  1.00  0.00     0.004 C 
ENDBRANCH   4   5
ENDBRANCH   3   4
ENDBRANCH   1   3
BRANCH   1   7
ATOM      7  C   UNL     1       5.938  45.293  52.023  1.00  0.00     0.226 A 
ATOM      8  N   UNL     1       4.927  45.092  52.889  1.00  0.00    -0.195 NA
ATOM      9  N   UNL     1       6.265  44.486  51.007  1.00  0.00    -0.193 NA
ATOM     10  C   UNL     1       4.131  43.999  52.775  1.00  0.00     0.147 A 
ATOM     11  C   UNL     1       5.460  43.417  50.910  1.00  0.00     0.165 A 
ATOM     12  C   UNL     1       4.396  43.107  51.734  1.00  0.00     0.082 A 
ATOM     13  N   UNL     1       5.523  42.417  49.977  1.00  0.00    -0.250 N 
ATOM     14  C   UNL     1       3.891  41.900  51.206  1.00  0.00     0.149 A 
ATOM     15  N   UNL     1       4.573  41.468  50.139  1.00  0.00    -0.179 NA
ATOM     16  C   UNL     1       6.466  42.298  48.894  1.00  0.00     0.176 C 
BRANCH  10  17
ATOM     17  N   UNL     1       3.104  43.882  53.741  1.00  0.00    -0.338 N 
ATOM     18  H   UNL     1       3.379  43.034  54.243  1.00  0.00     0.168 HD
BRANCH  17  19
ATOM     19  C   UNL     1       1.726  43.832  53.422  1.00  0.00     0.059 A 
ATOM     20  C   UNL     1       1.044  42.620  53.596  1.00  0.00     0.029 A 
ATOM     21  C   UNL     1       1.003  44.958  52.983  1.00  0.00     0.066 A 
ATOM     22  C   UNL     1      -0.325  42.531  53.335  1.00  0.00     0.023 A 
ATOM     23  C   UNL     1      -0.366  44.872  52.722  1.00  0.00     0.043 A 
ATOM     24  C   UNL     1      -1.022  43.656  52.901  1.00  0.00     0.042 A 
ATOM     25  Cl  UNL     1       1.786  46.479  52.733  1.00  0.00    -0.082 Cl
ATOM     26  Cl  UNL     1      -2.708  43.543  52.580  1.00  0.00    -0.084 Cl
ENDBRANCH  17  19
ENDBRANCH  10  17
ENDBRANCH   1   7
TORSDOF 6
ENDMDL
MODEL 11
REMARK VINA RESULT:    -8.092      3.194      7.412
REMARK INTER + INTRA:         -11.687
REMARK INTER:                 -11.156
REMARK INTRA:                  -0.532
REMARK UNBOUND:                -0.757
REMARK SMILES CCCCNc1nc(Nc2ccc(Cl)cc2Cl)c2cnn(C)c2n1
REMARK SMILES IDX 5 1 4 3 3 4 2 5 1 6 6 7 7 8 24 9 8 10 23 11 18 12 21 13
REMARK SMILES IDX 19 14 20 15 22 16 9 17 10 19 11 20 16 21 12 22 15 23 13 24
REMARK SMILES IDX 17 25 14 26
REMARK H PARENT 5 2 9 18
ROOT
ATOM      1  N   UNL     1       7.836  45.658  50.296  1.00  0.00    -0.354 N 
ATOM      2  H   UNL     1       8.629  45.169  49.897  1.00  0.00     0.163 HD
ENDROOT
BRANCH   1   3
ATOM      3  C   UNL     1       8.131  46.478  51.458  1.00  0.00     0.116 C 
BRANCH   3   4
ATOM      4  C   UNL     1       9.633  46.417  51.747  1.00  0.00     0.021 C 
BRANCH   4   5
ATOM      5  C   UNL     1       9.917  46.504  53.245  1.00  0.00    -0.002 C 
ATOM      6  C   UNL     1       9.204  47.687  53.880  1.00  0.00     0.004 C 
ENDBRANCH   4   5
ENDBRANCH   3   4
ENDBRANCH   1   3
BRANCH   1   7
ATOM      7  C   UNL     1       6.861  44.689  50.507  1.00  0.00     0.226 A 
ATOM      8  N   UNL     1       6.874  43.561  49.771  1.00  0.00    -0.195 NA
ATOM      9  N   UNL     1       5.965  44.990  51.455  1.00  0.00    -0.193 NA
ATOM     10  C   UNL     1       5.930  42.606  49.961  1.00  0.00     0.147 A 
ATOM     11  C   UNL     1       5.047  44.028  51.629  1.00  0.00     0.165 A 
ATOM     12  C   UNL     1       4.960  42.834  50.939  1.00  0.00     0.082 A 
ATOM     13  N   UNL     1       4.011  44.027  52.523  1.00  0.00    -0.250 N 
ATOM     14  C   UNL     1       3.835  42.193  51.500  1.00  0.00     0.149 A 
ATOM     15  N   UNL     1       3.247  42.912  52.462  1.00  0.00    -0.179 NA
ATOM     16  C   UNL     1       3.685  45.058  53.476  1.00  0.00     0.176 C 
BRANCH  10  17
ATOM     17  N   UNL     1       6.032  41.466  49.130  1.00  0.00    -0.338 N 
ATOM     18  H   UNL     1       7.029  41.461  48.896  1.00  0.00     0.168 HD
BRANCH  17  19
ATOM     19  C   UNL     1       5.259  41.273  47.960  1.00  0.00     0.059 A 
ATOM     20  C   UNL     1       5.745  41.781  46.747  1.00  0.00     0.029 A 
ATOM     21  C   UNL     1       4.049  40.552  47.956  1.00  0.00     0.066 A 
ATOM     22  C   UNL     1       5.039  41.580  45.559  1.00  0.00     0.023 A 
ATOM     23  C   UNL     1       3.342  40.350  46.768  1.00  0.00     0.043 A 
ATOM     24  C   UNL     1       3.843  40.866  45.576  1.00  0.00     0.042 A 
ATOM     25  Cl  UNL     1       3.387  39.913  49.419  1.00  0.00    -0.082 Cl
ATOM     26  Cl  UNL     1       2.976  40.620  44.111  1.00  0.00    -0.084 Cl
ENDBRANCH  17  19
ENDBRANCH  10  17
ENDBRANCH   1   7
TORSDOF 6
ENDMDL
MODEL 12
REMARK VINA RESULT:    -8.086      1.400      1.939
REMARK INTER + INTRA:         -11.679
REMARK INTER:                 -10.839
REMARK INTRA:                  -0.840
REMARK UNBOUND:                -0.757
REMARK SMILES CCCCNc1nc(Nc2ccc(Cl)cc2Cl)c2cnn(C)c2n1
REMARK SMILES IDX 5 1 4 3 3 4 2 5 1 6 6 7 7 8 24 9 8 10 23 11 18 12 21 13
REMARK SMILES IDX 19 14 20 15 22 16 9 17 10 19 11 20 16 21 12 22 15 23 13 24
REMARK SMILES IDX 17 25 14 26
REMARK H PARENT 5 2 9 18
ROOT
ATOM      1  N   UNL     1       4.382  41.514  50.995  1.00  0.00    -0.354 N 
ATOM      2  H   UNL     1       4.448  40.883  51.787  1.00  0.00     0.163 HD
ENDROOT
BRANCH   1   3
ATOM      3  C   UNL     1       5.543  41.542  50.124  1.00  0.00     0.116 C 
BRANCH   3   4
ATOM      4  C   UNL     1       5.109  41.200  48.697  1.00  0.00     0.021 C 
BRANCH   4   5
ATOM      5  C   UNL     1       5.935  41.964  47.664  1.00  0.00    -0.002 C 
ATOM      6  C   UNL     1       5.442  41.700  46.250  1.00  0.00     0.004 C 
ENDBRANCH   4   5
ENDBRANCH   3   4
ENDBRANCH   1   3
BRANCH   1   7
ATOM      7  C   UNL     1       4.028  42.749  51.527  1.00  0.00     0.226 A 
ATOM      8  N   UNL     1       4.791  43.828  51.267  1.00  0.00    -0.195 NA
ATOM      9  N   UNL     1       2.923  42.741  52.281  1.00  0.00    -0.193 NA
ATOM     10  C   UNL     1       4.463  45.041  51.779  1.00  0.00     0.147 A 
ATOM     11  C   UNL     1       2.615  43.951  52.770  1.00  0.00     0.165 A 
ATOM     12  C   UNL     1       3.316  45.125  52.571  1.00  0.00     0.082 A 
ATOM     13  N   UNL     1       1.546  44.276  53.560  1.00  0.00    -0.250 N 
ATOM     14  C   UNL     1       2.581  46.091  53.288  1.00  0.00     0.149 A 
ATOM     15  N   UNL     1       1.503  45.585  53.898  1.00  0.00    -0.179 NA
ATOM     16  C   UNL     1       0.516  43.387  54.036  1.00  0.00     0.176 C 
BRANCH  10  17
ATOM     17  N   UNL     1       5.336  46.104  51.450  1.00  0.00    -0.338 N 
ATOM     18  H   UNL     1       5.538  45.917  50.464  1.00  0.00     0.168 HD
BRANCH  17  19
ATOM     19  C   UNL     1       6.537  46.381  52.147  1.00  0.00     0.059 A 
ATOM     20  C   UNL     1       6.450  46.963  53.419  1.00  0.00     0.029 A 
ATOM     21  C   UNL     1       7.808  46.053  51.637  1.00  0.00     0.066 A 
ATOM     22  C   UNL     1       7.605  47.217  54.164  1.00  0.00     0.023 A 
ATOM     23  C   UNL     1       8.963  46.305  52.381  1.00  0.00     0.043 A 
ATOM     24  C   UNL     1       8.853  46.886  53.642  1.00  0.00     0.042 A 
ATOM     25  Cl  UNL     1       7.985  45.348  50.069  1.00  0.00    -0.082 Cl
ATOM     26  Cl  UNL     1      10.272  47.200  54.562  1.00  0.00    -0.084 Cl
ENDBRANCH  17  19
ENDBRANCH  10  17
ENDBRANCH   1   7
TORSDOF 6
ENDMDL
MODEL 13
REMARK VINA RESULT:    -8.058      2.350      3.313
REMARK INTER + INTRA:         -11.641
REMARK INTER:                 -11.160
REMARK INTRA:                  -0.482
REMARK UNBOUND:                -0.757
REMARK SMILES CCCCNc1nc(Nc2ccc(Cl)cc2Cl)c2cnn(C)c2n1
REMARK SMILES IDX 5 1 4 3 3 4 2 5 1 6 6 7 7 8 24 9 8 10 23 11 18 12 21 13
REMARK SMILES IDX 19 14 20 15 22 16 9 17 10 19 11 20 16 21 12 22 15 23 13 24
REMARK SMILES IDX 17 25 14 26
REMARK H PARENT 5 2 9 18
ROOT
ATOM      1  N   UNL     1       4.118  41.323  51.274  1.00  0.00    -0.354 N 
ATOM      2  H   UNL     1       4.790  41.117  52.005  1.00  0.00     0.163 HD
ENDROOT
BRANCH   1   3
ATOM      3  C   UNL     1       4.660  41.374  49.927  1.00  0.00     0.116 C 
BRANCH   3   4
ATOM      4  C   UNL     1       6.146  41.734  49.998  1.00  0.00     0.021 C 
BRANCH   4   5
ATOM      5  C   UNL     1       6.433  43.058  49.290  1.00  0.00    -0.002 C 
ATOM      6  C   UNL     1       7.921  43.370  49.275  1.00  0.00     0.004 C 
ENDBRANCH   4   5
ENDBRANCH   3   4
ENDBRANCH   1   3
BRANCH   1   7
ATOM      7  C   UNL     1       3.463  42.482  51.678  1.00  0.00     0.226 A 
ATOM      8  N   UNL     1       4.138  43.421  52.367  1.00  0.00    -0.195 NA
ATOM      9  N   UNL     1       2.172  42.547  51.332  1.00  0.00    -0.193 NA
ATOM     10  C   UNL     1       3.516  44.557  52.771  1.00  0.00     0.147 A 
ATOM     11  C   UNL     1       1.580  43.681  51.735  1.00  0.00     0.165 A 
ATOM     12  C   UNL     1       2.167  44.712  52.443  1.00  0.00     0.082 A 
ATOM     13  N   UNL     1       0.280  44.053  51.529  1.00  0.00    -0.250 N 
ATOM     14  C   UNL     1       1.128  45.652  52.609  1.00  0.00     0.149 A 
ATOM     15  N   UNL     1      -0.027  45.259  52.060  1.00  0.00    -0.179 NA
ATOM     16  C   UNL     1      -0.736  43.308  50.829  1.00  0.00     0.176 C 
BRANCH  10  17
ATOM     17  N   UNL     1       4.315  45.473  53.493  1.00  0.00    -0.338 N 
ATOM     18  H   UNL     1       3.716  46.302  53.524  1.00  0.00     0.168 HD
BRANCH  17  19
ATOM     19  C   UNL     1       5.630  45.838  53.116  1.00  0.00     0.059 A 
ATOM     20  C   UNL     1       6.610  45.930  54.114  1.00  0.00     0.029 A 
ATOM     21  C   UNL     1       6.004  46.065  51.777  1.00  0.00     0.066 A 
ATOM     22  C   UNL     1       7.930  46.246  53.786  1.00  0.00     0.023 A 
ATOM     23  C   UNL     1       7.324  46.381  51.448  1.00  0.00     0.043 A 
ATOM     24  C   UNL     1       8.280  46.469  52.457  1.00  0.00     0.042 A 
ATOM     25  Cl  UNL     1       4.842  45.983  50.500  1.00  0.00    -0.082 Cl
ATOM     26  Cl  UNL     1       9.907  46.858  52.057  1.00  0.00    -0.084 Cl
ENDBRANCH  17  19
ENDBRANCH  10  17
ENDBRANCH   1   7
TORSDOF 6
ENDMDL
MODEL 14
REMARK VINA RESULT:    -8.021      3.431      6.509
REMARK INTER + INTRA:         -11.591
REMARK INTER:                 -10.757
REMARK INTRA:                  -0.834
REMARK UNBOUND:                -0.757
REMARK SMILES CCCCNc1nc(Nc2ccc(Cl)cc2Cl)c2cnn(C)c2n1
REMARK SMILES IDX 5 1 4 3 3 4 2 5 1 6 6 7 7 8 24 9 8 10 23 11 18 12 21 13
REMARK SMILES IDX 19 14 20 15 22 16 9 17 10 19 11 20 16 21 12 22 15 23 13 24
REMARK SMILES IDX 17 25 14 26
REMARK H PARENT 5 2 9 18
ROOT
ATOM      1  N   UNL     1       7.906  46.148  50.530  1.00  0.00    -0.354 N 
ATOM      2  H   UNL     1       8.207  45.860  49.605  1.00  0.00     0.163 HD
ENDROOT
BRANCH   1   3
ATOM      3  C   UNL     1       8.900  46.007  51.580  1.00  0.00     0.116 C 
BRANCH   3   4
ATOM      4  C   UNL     1       9.032  47.335  52.328  1.00  0.00     0.021 C 
BRANCH   4   5
ATOM      5  C   UNL     1       9.932  47.197  53.556  1.00  0.00    -0.002 C 
ATOM      6  C   UNL     1       9.338  47.903  54.764  1.00  0.00     0.004 C 
ENDBRANCH   4   5
ENDBRANCH   3   4
ENDBRANCH   1   3
BRANCH   1   7
ATOM      7  C   UNL     1       6.716  45.469  50.768  1.00  0.00     0.226 A 
ATOM      8  N   UNL     1       5.671  46.125  51.306  1.00  0.00    -0.195 NA
ATOM      9  N   UNL     1       6.731  44.174  50.429  1.00  0.00    -0.193 NA
ATOM     10  C   UNL     1       4.503  45.479  51.548  1.00  0.00     0.147 A 
ATOM     11  C   UNL     1       5.564  43.558  50.670  1.00  0.00     0.165 A 
ATOM     12  C   UNL     1       4.428  44.124  51.215  1.00  0.00     0.082 A 
ATOM     13  N   UNL     1       5.256  42.247  50.426  1.00  0.00    -0.250 N 
ATOM     14  C   UNL     1       3.498  43.064  51.253  1.00  0.00     0.149 A 
ATOM     15  N   UNL     1       3.993  41.915  50.779  1.00  0.00    -0.179 NA
ATOM     16  C   UNL     1       6.118  41.245  49.851  1.00  0.00     0.176 C 
BRANCH  10  17
ATOM     17  N   UNL     1       3.474  46.261  52.121  1.00  0.00    -0.338 N 
ATOM     18  H   UNL     1       3.931  47.170  52.228  1.00  0.00     0.168 HD
BRANCH  17  19
ATOM     19  C   UNL     1       2.796  45.915  53.315  1.00  0.00     0.059 A 
ATOM     20  C   UNL     1       3.471  46.071  54.534  1.00  0.00     0.029 A 
ATOM     21  C   UNL     1       1.461  45.469  53.333  1.00  0.00     0.066 A 
ATOM     22  C   UNL     1       2.830  45.784  55.742  1.00  0.00     0.023 A 
ATOM     23  C   UNL     1       0.819  45.181  54.539  1.00  0.00     0.043 A 
ATOM     24  C   UNL     1       1.510  45.342  55.739  1.00  0.00     0.042 A 
ATOM     25  Cl  UNL     1       0.578  45.240  51.865  1.00  0.00    -0.082 Cl
ATOM     26  Cl  UNL     1       0.725  44.989  57.227  1.00  0.00    -0.084 Cl
ENDBRANCH  17  19
ENDBRANCH  10  17
ENDBRANCH   1   7
TORSDOF 6
ENDMDL
MODEL 15
REMARK VINA RESULT:    -7.902      3.483      6.811
REMARK INTER + INTRA:         -11.430
REMARK INTER:                 -10.692
REMARK INTRA:                  -0.738
REMARK UNBOUND:                -0.757
REMARK SMILES CCCCNc1nc(Nc2ccc(Cl)cc2Cl)c2cnn(C)c2n1
REMARK SMILES IDX 5 1 4 3 3 4 2 5 1 6 6 7 7 8 24 9 8 10 23 11 18 12 21 13
REMARK SMILES IDX 19 14 20 15 22 16 9 17 10 19 11 20 16 21 12 22 15 23 13 24
REMARK SMILES IDX 17 25 14 26
REMARK H PARENT 5 2 9 18
ROOT
ATOM      1  N   UNL     1       7.497  46.523  51.362  1.00  0.00    -0.354 N 
ATOM      2  H   UNL     1       7.295  47.355  50.818  1.00  0.00     0.163 HD
ENDROOT
BRANCH   1   3
ATOM      3  C   UNL     1       8.675  45.780  50.949  1.00  0.00     0.116 C 
BRANCH   3   4
ATOM      4  C   UNL     1       9.821  46.078  51.919  1.00  0.00     0.021 C 
BRANCH   4   5
ATOM      5  C   UNL     1       9.499  47.275  52.812  1.00  0.00    -0.002 C 
ATOM      6  C   UNL     1      10.000  47.062  54.231  1.00  0.00     0.004 C 
ENDBRANCH   4   5
ENDBRANCH   3   4
ENDBRANCH   1   3
BRANCH   1   7
ATOM      7  C   UNL     1       6.320  45.781  51.368  1.00  0.00     0.226 A 
ATOM      8  N   UNL     1       5.169  46.362  51.756  1.00  0.00    -0.195 NA
ATOM      9  N   UNL     1       6.456  44.509  50.976  1.00  0.00    -0.193 NA
ATOM     10  C   UNL     1       4.012  45.654  51.771  1.00  0.00     0.147 A 
ATOM     11  C   UNL     1       5.299  43.831  50.992  1.00  0.00     0.165 A 
ATOM     12  C   UNL     1       4.062  44.318  51.367  1.00  0.00     0.082 A 
ATOM     13  N   UNL     1       5.102  42.524  50.639  1.00  0.00    -0.250 N 
ATOM     14  C   UNL     1       3.194  43.219  51.202  1.00  0.00     0.149 A 
ATOM     15  N   UNL     1       3.817  42.119  50.763  1.00  0.00    -0.179 NA
ATOM     16  C   UNL     1       6.096  41.592  50.169  1.00  0.00     0.176 C 
BRANCH  10  17
ATOM     17  N   UNL     1       2.865  46.359  52.202  1.00  0.00    -0.338 N 
ATOM     18  H   UNL     1       3.275  47.192  52.634  1.00  0.00     0.168 HD
BRANCH  17  19
ATOM     19  C   UNL     1       1.878  45.808  53.054  1.00  0.00     0.059 A 
ATOM     20  C   UNL     1       0.651  45.425  52.494  1.00  0.00     0.029 A 
ATOM     21  C   UNL     1       2.093  45.586  54.428  1.00  0.00     0.066 A 
ATOM     22  C   UNL     1      -0.339  44.838  53.285  1.00  0.00     0.023 A 
ATOM     23  C   UNL     1       1.104  45.000  55.221  1.00  0.00     0.043 A 
ATOM     24  C   UNL     1      -0.108  44.628  54.642  1.00  0.00     0.042 A 
ATOM     25  Cl  UNL     1       3.576  46.050  55.185  1.00  0.00    -0.082 Cl
ATOM     26  Cl  UNL     1      -1.329  43.906  55.614  1.00  0.00    -0.084 Cl
ENDBRANCH  17  19
ENDBRANCH  10  17
ENDBRANCH   1   7
TORSDOF 6
ENDMDL
MODEL 16
REMARK VINA RESULT:    -7.896      3.172      6.030
REMARK INTER + INTRA:         -11.423
REMARK INTER:                 -10.226
REMARK INTRA:                  -1.197
REMARK UNBOUND:                -0.757
REMARK SMILES CCCCNc1nc(Nc2ccc(Cl)cc2Cl)c2cnn(C)c2n1
REMARK SMILES IDX 5 1 4 3 3 4 2 5 1 6 6 7 7 8 24 9 8 10 23 11 18 12 21 13
REMARK SMILES IDX 19 14 20 15 22 16 9 17 10 19 11 20 16 21 12 22 15 23 13 24
REMARK SMILES IDX 17 25 14 26
REMARK H PARENT 5 2 9 18
ROOT
ATOM      1  N   UNL     1       7.555  45.109  49.615  1.00  0.00    -0.354 N 
ATOM      2  H   UNL     1       6.855  45.390  48.937  1.00  0.00     0.163 HD
ENDROOT
BRANCH   1   3
ATOM      3  C   UNL     1       7.829  43.683  49.673  1.00  0.00     0.116 C 
BRANCH   3   4
ATOM      4  C   UNL     1       6.662  42.922  49.040  1.00  0.00     0.021 C 
BRANCH   4   5
ATOM      5  C   UNL     1       6.045  41.929  50.022  1.00  0.00    -0.002 C 
ATOM      6  C   UNL     1       4.845  42.526  50.740  1.00  0.00     0.004 C 
ENDBRANCH   4   5
ENDBRANCH   3   4
ENDBRANCH   1   3
BRANCH   1   7
ATOM      7  C   UNL     1       7.156  45.670  50.824  1.00  0.00     0.226 A 
ATOM      8  N   UNL     1       5.851  45.913  51.046  1.00  0.00    -0.195 NA
ATOM      9  N   UNL     1       8.152  45.929  51.679  1.00  0.00    -0.193 NA
ATOM     10  C   UNL     1       5.443  46.462  52.217  1.00  0.00     0.147 A 
ATOM     11  C   UNL     1       7.725  46.464  52.832  1.00  0.00     0.165 A 
ATOM     12  C   UNL     1       6.418  46.756  53.173  1.00  0.00     0.082 A 
ATOM     13  N   UNL     1       8.488  46.828  53.907  1.00  0.00    -0.250 N 
ATOM     14  C   UNL     1       6.512  47.292  54.473  1.00  0.00     0.149 A 
ATOM     15  N   UNL     1       7.769  47.345  54.930  1.00  0.00    -0.179 NA
ATOM     16  C   UNL     1       9.919  46.712  54.036  1.00  0.00     0.176 C 
BRANCH  10  17
ATOM     17  N   UNL     1       4.051  46.681  52.342  1.00  0.00    -0.338 N 
ATOM     18  H   UNL     1       4.000  47.244  53.196  1.00  0.00     0.168 HD
BRANCH  17  19
ATOM     19  C   UNL     1       3.092  45.641  52.388  1.00  0.00     0.059 A 
ATOM     20  C   UNL     1       2.409  45.311  51.209  1.00  0.00     0.029 A 
ATOM     21  C   UNL     1       2.830  44.896  53.553  1.00  0.00     0.066 A 
ATOM     22  C   UNL     1       1.484  44.265  51.193  1.00  0.00     0.023 A 
ATOM     23  C   UNL     1       1.905  43.849  53.539  1.00  0.00     0.043 A 
ATOM     24  C   UNL     1       1.237  43.540  52.356  1.00  0.00     0.042 A 
ATOM     25  Cl  UNL     1       3.625  45.261  55.044  1.00  0.00    -0.082 Cl
ATOM     26  Cl  UNL     1       0.097  42.253  52.334  1.00  0.00    -0.084 Cl
ENDBRANCH  17  19
ENDBRANCH  10  17
ENDBRANCH   1   7
TORSDOF 6
ENDMDL
MODEL 17
REMARK VINA RESULT:    -7.885      3.014      5.831
REMARK INTER + INTRA:         -11.408
REMARK INTER:                 -10.238
REMARK INTRA:                  -1.170
REMARK UNBOUND:                -0.757
REMARK SMILES CCCCNc1nc(Nc2ccc(Cl)cc2Cl)c2cnn(C)c2n1
REMARK SMILES IDX 5 1 4 3 3 4 2 5 1 6 6 7 7 8 24 9 8 10 23 11 18 12 21 13
REMARK SMILES IDX 19 14 20 15 22 16 9 17 10 19 11 20 16 21 12 22 15 23 13 24
REMARK SMILES IDX 17 25 14 26
REMARK H PARENT 5 2 9 18
ROOT
ATOM      1  N   UNL     1       6.926  43.350  49.221  1.00  0.00    -0.354 N 
ATOM      2  H   UNL     1       6.390  43.632  48.408  1.00  0.00     0.163 HD
ENDROOT
BRANCH   1   3
ATOM      3  C   UNL     1       6.557  42.067  49.794  1.00  0.00     0.116 C 
BRANCH   3   4
ATOM      4  C   UNL     1       5.514  41.397  48.897  1.00  0.00     0.021 C 
BRANCH   4   5
ATOM      5  C   UNL     1       4.244  41.058  49.676  1.00  0.00    -0.002 C 
ATOM      6  C   UNL     1       4.259  41.680  51.064  1.00  0.00     0.004 C 
ENDBRANCH   4   5
ENDBRANCH   3   4
ENDBRANCH   1   3
BRANCH   1   7
ATOM      7  C   UNL     1       6.859  44.419  50.108  1.00  0.00     0.226 A 
ATOM      8  N   UNL     1       5.658  44.872  50.515  1.00  0.00    -0.195 NA
ATOM      9  N   UNL     1       8.045  44.917  50.478  1.00  0.00    -0.193 NA
ATOM     10  C   UNL     1       5.573  45.915  51.377  1.00  0.00     0.147 A 
ATOM     11  C   UNL     1       7.936  45.943  51.335  1.00  0.00     0.165 A 
ATOM     12  C   UNL     1       6.765  46.490  51.823  1.00  0.00     0.082 A 
ATOM     13  N   UNL     1       8.955  46.655  51.906  1.00  0.00    -0.250 N 
ATOM     14  C   UNL     1       7.198  47.525  52.677  1.00  0.00     0.149 A 
ATOM     15  N   UNL     1       8.531  47.638  52.732  1.00  0.00    -0.179 NA
ATOM     16  C   UNL     1      10.370  46.455  51.711  1.00  0.00     0.176 C 
BRANCH  10  17
ATOM     17  N   UNL     1       4.264  46.314  51.733  1.00  0.00    -0.338 N 
ATOM     18  H   UNL     1       4.438  46.939  52.524  1.00  0.00     0.168 HD
BRANCH  17  19
ATOM     19  C   UNL     1       3.225  45.407  52.052  1.00  0.00     0.059 A 
ATOM     20  C   UNL     1       2.227  45.173  51.096  1.00  0.00     0.029 A 
ATOM     21  C   UNL     1       3.178  44.696  53.267  1.00  0.00     0.066 A 
ATOM     22  C   UNL     1       1.204  44.255  51.347  1.00  0.00     0.023 A 
ATOM     23  C   UNL     1       2.156  43.778  53.519  1.00  0.00     0.043 A 
ATOM     24  C   UNL     1       1.174  43.563  52.555  1.00  0.00     0.042 A 
ATOM     25  Cl  UNL     1       4.368  44.950  54.495  1.00  0.00    -0.082 Cl
ATOM     26  Cl  UNL     1      -0.087  42.435  52.861  1.00  0.00    -0.084 Cl
ENDBRANCH  17  19
ENDBRANCH  10  17
ENDBRANCH   1   7
TORSDOF 6
ENDMDL
MODEL 18
REMARK VINA RESULT:    -7.885      2.856      6.100
REMARK INTER + INTRA:         -11.407
REMARK INTER:                 -11.241
REMARK INTRA:                  -0.166
REMARK UNBOUND:                -0.757
REMARK SMILES CCCCNc1nc(Nc2ccc(Cl)cc2Cl)c2cnn(C)c2n1
REMARK SMILES IDX 5 1 4 3 3 4 2 5 1 6 6 7 7 8 24 9 8 10 23 11 18 12 21 13
REMARK SMILES IDX 19 14 20 15 22 16 9 17 10 19 11 20 16 21 12 22 15 23 13 24
REMARK SMILES IDX 17 25 14 26
REMARK H PARENT 5 2 9 18
ROOT
ATOM      1  N   UNL     1       5.736  46.590  55.051  1.00  0.00    -0.354 N 
ATOM      2  H   UNL     1       5.395  47.255  55.737  1.00  0.00     0.163 HD
ENDROOT
BRANCH   1   3
ATOM      3  C   UNL     1       6.524  47.159  53.971  1.00  0.00     0.116 C 
BRANCH   3   4
ATOM      4  C   UNL     1       8.007  46.893  54.237  1.00  0.00     0.021 C 
BRANCH   4   5
ATOM      5  C   UNL     1       8.893  47.594  53.208  1.00  0.00    -0.002 C 
ATOM      6  C   UNL     1       9.912  46.639  52.608  1.00  0.00     0.004 C 
ENDBRANCH   4   5
ENDBRANCH   3   4
ENDBRANCH   1   3
BRANCH   1   7
ATOM      7  C   UNL     1       4.621  45.871  54.635  1.00  0.00     0.226 A 
ATOM      8  N   UNL     1       4.658  45.201  53.468  1.00  0.00    -0.195 NA
ATOM      9  N   UNL     1       3.575  45.926  55.468  1.00  0.00    -0.193 NA
ATOM     10  C   UNL     1       3.578  44.497  53.044  1.00  0.00     0.147 A 
ATOM     11  C   UNL     1       2.523  45.217  55.033  1.00  0.00     0.165 A 
ATOM     12  C   UNL     1       2.444  44.492  53.859  1.00  0.00     0.082 A 
ATOM     13  N   UNL     1       1.315  45.063  55.656  1.00  0.00    -0.250 N 
ATOM     14  C   UNL     1       1.145  43.943  53.880  1.00  0.00     0.149 A 
ATOM     15  N   UNL     1       0.446  44.288  54.967  1.00  0.00    -0.179 NA
ATOM     16  C   UNL     1       0.912  45.626  56.921  1.00  0.00     0.176 C 
BRANCH  10  17
ATOM     17  N   UNL     1       3.723  43.837  51.802  1.00  0.00    -0.338 N 
ATOM     18  H   UNL     1       3.464  42.876  52.040  1.00  0.00     0.168 HD
BRANCH  17  19
ATOM     19  C   UNL     1       4.917  43.844  51.042  1.00  0.00     0.059 A 
ATOM     20  C   UNL     1       5.636  45.043  50.939  1.00  0.00     0.029 A 
ATOM     21  C   UNL     1       5.436  42.689  50.427  1.00  0.00     0.066 A 
ATOM     22  C   UNL     1       6.841  45.091  50.235  1.00  0.00     0.023 A 
ATOM     23  C   UNL     1       6.642  42.735  49.722  1.00  0.00     0.043 A 
ATOM     24  C   UNL     1       7.338  43.938  49.632  1.00  0.00     0.042 A 
ATOM     25  Cl  UNL     1       4.593  41.182  50.502  1.00  0.00    -0.082 Cl
ATOM     26  Cl  UNL     1       8.822  44.000  48.766  1.00  0.00    -0.084 Cl
ENDBRANCH  17  19
ENDBRANCH  10  17
ENDBRANCH   1   7
TORSDOF 6
ENDMDL
MODEL 19
REMARK VINA RESULT:    -7.695      3.251      6.367
REMARK INTER + INTRA:         -11.151
REMARK INTER:                 -10.372
REMARK INTRA:                  -0.779
REMARK UNBOUND:                -0.757
REMARK SMILES CCCCNc1nc(Nc2ccc(Cl)cc2Cl)c2cnn(C)c2n1
REMARK SMILES IDX 5 1 4 3 3 4 2 5 1 6 6 7 7 8 24 9 8 10 23 11 18 12 21 13
REMARK SMILES IDX 19 14 20 15 22 16 9 17 10 19 11 20 16 21 12 22 15 23 13 24
REMARK SMILES IDX 17 25 14 26
REMARK H PARENT 5 2 9 18
ROOT
ATOM      1  N   UNL     1       4.263  45.523  55.785  1.00  0.00    -0.354 N 
ATOM      2  H   UNL     1       4.045  46.492  55.992  1.00  0.00     0.163 HD
ENDROOT
BRANCH   1   3
ATOM      3  C   UNL     1       5.557  45.296  55.166  1.00  0.00     0.116 C 
BRANCH   3   4
ATOM      4  C   UNL     1       6.046  46.599  54.531  1.00  0.00     0.021 C 
BRANCH   4   5
ATOM      5  C   UNL     1       7.109  46.336  53.465  1.00  0.00    -0.002 C 
ATOM      6  C   UNL     1       7.302  47.542  52.561  1.00  0.00     0.004 C 
ENDBRANCH   4   5
ENDBRANCH   3   4
ENDBRANCH   1   3
BRANCH   1   7
ATOM      7  C   UNL     1       3.181  45.042  55.054  1.00  0.00     0.226 A 
ATOM      8  N   UNL     1       3.370  44.610  53.793  1.00  0.00    -0.195 NA
ATOM      9  N   UNL     1       2.011  45.064  55.703  1.00  0.00    -0.193 NA
ATOM     10  C   UNL     1       2.327  44.139  53.064  1.00  0.00     0.147 A 
ATOM     11  C   UNL     1       0.997  44.588  54.966  1.00  0.00     0.165 A 
ATOM     12  C   UNL     1       1.068  44.117  53.668  1.00  0.00     0.082 A 
ATOM     13  N   UNL     1      -0.313  44.467  55.343  1.00  0.00    -0.250 N 
ATOM     14  C   UNL     1      -0.257  43.740  53.366  1.00  0.00     0.149 A 
ATOM     15  N   UNL     1      -1.107  43.952  54.376  1.00  0.00    -0.179 NA
ATOM     16  C   UNL     1      -0.887  44.821  56.617  1.00  0.00     0.176 C 
BRANCH  10  17
ATOM     17  N   UNL     1       2.635  43.718  51.750  1.00  0.00    -0.338 N 
ATOM     18  H   UNL     1       2.274  42.760  51.742  1.00  0.00     0.168 HD
BRANCH  17  19
ATOM     19  C   UNL     1       3.938  43.750  51.199  1.00  0.00     0.059 A 
ATOM     20  C   UNL     1       4.599  42.534  50.976  1.00  0.00     0.029 A 
ATOM     21  C   UNL     1       4.578  44.946  50.822  1.00  0.00     0.066 A 
ATOM     22  C   UNL     1       5.869  42.510  50.396  1.00  0.00     0.023 A 
ATOM     23  C   UNL     1       5.848  44.925  50.241  1.00  0.00     0.043 A 
ATOM     24  C   UNL     1       6.486  43.705  50.031  1.00  0.00     0.042 A 
ATOM     25  Cl  UNL     1       3.826  46.481  51.084  1.00  0.00    -0.082 Cl
ATOM     26  Cl  UNL     1       8.050  43.673  49.317  1.00  0.00    -0.084 Cl
ENDBRANCH  17  19
ENDBRANCH  10  17
ENDBRANCH   1   7
TORSDOF 6
ENDMDL
