MODEL 1
REMARK VINA RESULT:    -9.289      0.000      0.000
REMARK INTER + INTRA:         -14.029
REMARK INTER:                 -13.091
REMARK INTRA:                  -0.938
REMARK UNBOUND:                -0.938
REMARK SMILES COc1ccc(Nc2nc(NC[C@H]3CCCO3)c3ccccc3n2)c(OC)c1
REMARK SMILES IDX 8 1 9 2 10 3 18 4 19 5 20 6 21 7 22 8 23 9 24 10 7 11 6 13
REMARK SMILES IDX 3 14 4 15 28 16 5 17 25 18 2 19 1 20 26 21 27 22 11 23 12 25
REMARK SMILES IDX 13 26 14 27 17 28 15 29 16 30
REMARK H PARENT 7 12 11 24
ROOT
ATOM      1  C   UNL     1       3.372  44.013  52.821  1.00  0.00     0.229 A 
ATOM      2  N   UNL     1       3.931  45.225  52.900  1.00  0.00    -0.195 NA
ATOM      3  C   UNL     1       5.014  45.482  52.149  1.00  0.00     0.139 A 
ATOM      4  C   UNL     1       5.545  44.532  51.262  1.00  0.00     0.043 A 
ATOM      5  C   UNL     1       6.654  44.741  50.402  1.00  0.00     0.014 A 
ATOM      6  C   UNL     1       7.110  43.726  49.563  1.00  0.00     0.001 A 
ATOM      7  C   UNL     1       6.464  42.497  49.573  1.00  0.00     0.002 A 
ATOM      8  C   UNL     1       5.367  42.298  50.415  1.00  0.00     0.029 A 
ATOM      9  C   UNL     1       4.893  43.298  51.259  1.00  0.00     0.078 A 
ATOM     10  N   UNL     1       3.832  43.038  52.026  1.00  0.00    -0.213 NA
ENDROOT
BRANCH   1  11
ATOM     11  N   UNL     1       2.260  43.669  53.579  1.00  0.00    -0.321 N 
ATOM     12  H   UNL     1       1.914  42.757  53.312  1.00  0.00     0.170 HD
BRANCH  11  13
ATOM     13  C   UNL     1       1.525  44.285  54.603  1.00  0.00     0.084 A 
ATOM     14  C   UNL     1      -0.064  45.482  56.612  1.00  0.00     0.122 A 
ATOM     15  C   UNL     1       1.327  45.545  56.672  1.00  0.00     0.049 A 
ATOM     16  C   UNL     1      -0.673  44.819  55.546  1.00  0.00     0.095 A 
ATOM     17  C   UNL     1       2.113  44.953  55.679  1.00  0.00     0.034 A 
ATOM     18  C   UNL     1       0.111  44.224  54.547  1.00  0.00     0.146 A 
BRANCH  14  19
ATOM     19  O   UNL     1      -0.706  46.103  57.649  1.00  0.00    -0.497 OA
ATOM     20  C   UNL     1      -1.496  47.241  57.334  1.00  0.00     0.278 C 
ENDBRANCH  14  19
BRANCH  18  21
ATOM     21  O   UNL     1      -0.392  43.547  53.455  1.00  0.00    -0.494 OA
ATOM     22  C   UNL     1      -1.728  43.835  53.064  1.00  0.00     0.278 C 
ENDBRANCH  18  21
ENDBRANCH  11  13
ENDBRANCH   1  11
BRANCH   3  23
ATOM     23  N   UNL     1       5.610  46.761  52.226  1.00  0.00    -0.367 N 
ATOM     24  H   UNL     1       6.347  46.830  51.525  1.00  0.00     0.162 HD
BRANCH  23  25
ATOM     25  C   UNL     1       6.160  47.108  53.540  1.00  0.00     0.146 C 
BRANCH  25  26
ATOM     26  C   UNL     1       7.612  46.619  53.622  1.00  0.00     0.137 C 
ATOM     27  C   UNL     1       8.478  47.119  52.479  1.00  0.00     0.036 C 
ATOM     28  O   UNL     1       8.237  47.101  54.836  1.00  0.00    -0.376 OA
ATOM     29  C   UNL     1       9.851  47.077  53.099  1.00  0.00     0.031 C 
ATOM     30  C   UNL     1       9.571  47.525  54.518  1.00  0.00     0.160 C 
ENDBRANCH  25  26
ENDBRANCH  23  25
ENDBRANCH   3  23
TORSDOF 7
ENDMDL
MODEL 2
REMARK VINA RESULT:    -9.260      1.143      2.483
REMARK INTER + INTRA:         -13.987
REMARK INTER:                 -13.086
REMARK INTRA:                  -0.901
REMARK UNBOUND:                -0.938
REMARK SMILES COc1ccc(Nc2nc(NC[C@H]3CCCO3)c3ccccc3n2)c(OC)c1
REMARK SMILES IDX 8 1 9 2 10 3 18 4 19 5 20 6 21 7 22 8 23 9 24 10 7 11 6 13
REMARK SMILES IDX 3 14 4 15 28 16 5 17 25 18 2 19 1 20 26 21 27 22 11 23 12 25
REMARK SMILES IDX 13 26 14 27 17 28 15 29 16 30
REMARK H PARENT 7 12 11 24
ROOT
ATOM      1  C   UNL     1       3.644  43.958  52.919  1.00  0.00     0.229 A 
ATOM      2  N   UNL     1       4.323  45.105  52.814  1.00  0.00    -0.195 NA
ATOM      3  C   UNL     1       5.325  45.179  51.922  1.00  0.00     0.139 A 
ATOM      4  C   UNL     1       5.648  44.105  51.079  1.00  0.00     0.043 A 
ATOM      5  C   UNL     1       6.657  44.118  50.081  1.00  0.00     0.014 A 
ATOM      6  C   UNL     1       6.905  42.992  49.299  1.00  0.00     0.001 A 
ATOM      7  C   UNL     1       6.151  41.845  49.503  1.00  0.00     0.002 A 
ATOM      8  C   UNL     1       5.151  41.839  50.480  1.00  0.00     0.029 A 
ATOM      9  C   UNL     1       4.884  42.952  51.270  1.00  0.00     0.078 A 
ATOM     10  N   UNL     1       3.906  42.875  52.176  1.00  0.00    -0.213 NA
ENDROOT
BRANCH   1  11
ATOM     11  N   UNL     1       2.607  43.803  53.829  1.00  0.00    -0.321 N 
ATOM     12  H   UNL     1       2.964  43.772  54.775  1.00  0.00     0.170 HD
BRANCH  11  13
ATOM     13  C   UNL     1       1.212  43.680  53.737  1.00  0.00     0.084 A 
ATOM     14  C   UNL     1      -1.609  43.530  53.633  1.00  0.00     0.122 A 
ATOM     15  C   UNL     1      -0.822  42.698  52.839  1.00  0.00     0.049 A 
ATOM     16  C   UNL     1      -0.992  44.446  54.486  1.00  0.00     0.095 A 
ATOM     17  C   UNL     1       0.573  42.772  52.890  1.00  0.00     0.034 A 
ATOM     18  C   UNL     1       0.408  44.523  54.541  1.00  0.00     0.146 A 
BRANCH  14  19
ATOM     19  O   UNL     1      -2.957  43.350  53.481  1.00  0.00    -0.497 OA
ATOM     20  C   UNL     1      -3.457  43.286  52.153  1.00  0.00     0.278 C 
ENDBRANCH  14  19
BRANCH  18  21
ATOM     21  O   UNL     1       1.113  45.392  55.347  1.00  0.00    -0.494 OA
ATOM     22  C   UNL     1       0.792  45.408  56.732  1.00  0.00     0.278 C 
ENDBRANCH  18  21
ENDBRANCH  11  13
ENDBRANCH   1  11
BRANCH   3  23
ATOM     23  N   UNL     1       6.046  46.389  51.805  1.00  0.00    -0.367 N 
ATOM     24  H   UNL     1       6.941  46.202  51.355  1.00  0.00     0.162 HD
BRANCH  23  25
ATOM     25  C   UNL     1       6.280  47.093  53.070  1.00  0.00     0.146 C 
BRANCH  25  26
ATOM     26  C   UNL     1       7.647  46.679  53.630  1.00  0.00     0.137 C 
ATOM     27  C   UNL     1       8.787  46.896  52.651  1.00  0.00     0.036 C 
ATOM     28  O   UNL     1       7.971  47.470  54.799  1.00  0.00    -0.376 OA
ATOM     29  C   UNL     1       9.962  47.049  53.582  1.00  0.00     0.031 C 
ATOM     30  C   UNL     1       9.357  47.835  54.726  1.00  0.00     0.160 C 
ENDBRANCH  25  26
ENDBRANCH  23  25
ENDBRANCH   3  23
TORSDOF 7
ENDMDL
MODEL 3
REMARK VINA RESULT:    -9.051      2.250      4.944
REMARK INTER + INTRA:         -13.693
REMARK INTER:                 -12.740
REMARK INTRA:                  -0.953
REMARK UNBOUND:                -0.938
REMARK SMILES COc1ccc(Nc2nc(NC[C@H]3CCCO3)c3ccccc3n2)c(OC)c1
REMARK SMILES IDX 8 1 9 2 10 3 18 4 19 5 20 6 21 7 22 8 23 9 24 10 7 11 6 13
REMARK SMILES IDX 3 14 4 15 28 16 5 17 25 18 2 19 1 20 26 21 27 22 11 23 12 25
REMARK SMILES IDX 13 26 14 27 17 28 15 29 16 30
REMARK H PARENT 7 12 11 24
ROOT
ATOM      1  C   UNL     1       5.577  46.911  53.530  1.00  0.00     0.229 A 
ATOM      2  N   UNL     1       5.796  46.317  52.353  1.00  0.00    -0.195 NA
ATOM      3  C   UNL     1       7.065  46.132  51.953  1.00  0.00     0.139 A 
ATOM      4  C   UNL     1       8.157  46.510  52.750  1.00  0.00     0.043 A 
ATOM      5  C   UNL     1       9.523  46.307  52.423  1.00  0.00     0.014 A 
ATOM      6  C   UNL     1      10.535  46.728  53.282  1.00  0.00     0.001 A 
ATOM      7  C   UNL     1      10.195  47.351  54.476  1.00  0.00     0.002 A 
ATOM      8  C   UNL     1       8.849  47.540  54.799  1.00  0.00     0.029 A 
ATOM      9  C   UNL     1       7.822  47.126  53.958  1.00  0.00     0.078 A 
ATOM     10  N   UNL     1       6.559  47.330  54.339  1.00  0.00    -0.213 NA
ENDROOT
BRANCH   1  11
ATOM     11  N   UNL     1       4.293  47.149  54.002  1.00  0.00    -0.321 N 
ATOM     12  H   UNL     1       4.159  48.135  54.192  1.00  0.00     0.170 HD
BRANCH  11  13
ATOM     13  C   UNL     1       3.169  46.355  54.271  1.00  0.00     0.084 A 
ATOM     14  C   UNL     1       0.866  44.769  54.691  1.00  0.00     0.122 A 
ATOM     15  C   UNL     1       1.799  44.954  55.710  1.00  0.00     0.049 A 
ATOM     16  C   UNL     1       1.077  45.376  53.453  1.00  0.00     0.095 A 
ATOM     17  C   UNL     1       2.938  45.737  55.502  1.00  0.00     0.034 A 
ATOM     18  C   UNL     1       2.217  46.164  53.239  1.00  0.00     0.146 A 
BRANCH  14  19
ATOM     19  O   UNL     1      -0.198  43.979  55.033  1.00  0.00    -0.497 OA
ATOM     20  C   UNL     1      -1.029  43.520  53.976  1.00  0.00     0.278 C 
ENDBRANCH  14  19
BRANCH  18  21
ATOM     21  O   UNL     1       2.517  46.804  52.055  1.00  0.00    -0.494 OA
ATOM     22  C   UNL     1       2.785  45.992  50.921  1.00  0.00     0.278 C 
ENDBRANCH  18  21
ENDBRANCH  11  13
ENDBRANCH   1  11
BRANCH   3  23
ATOM     23  N   UNL     1       7.304  45.503  50.710  1.00  0.00    -0.367 N 
ATOM     24  H   UNL     1       7.697  46.184  50.061  1.00  0.00     0.162 HD
BRANCH  23  25
ATOM     25  C   UNL     1       6.128  44.877  50.099  1.00  0.00     0.146 C 
BRANCH  25  26
ATOM     26  C   UNL     1       6.132  43.377  50.422  1.00  0.00     0.137 C 
ATOM     27  C   UNL     1       4.785  42.864  50.900  1.00  0.00     0.036 C 
ATOM     28  O   UNL     1       6.453  42.609  49.238  1.00  0.00    -0.376 OA
ATOM     29  C   UNL     1       4.866  41.406  50.525  1.00  0.00     0.031 C 
ATOM     30  C   UNL     1       5.590  41.462  49.197  1.00  0.00     0.160 C 
ENDBRANCH  25  26
ENDBRANCH  23  25
ENDBRANCH   3  23
TORSDOF 7
ENDMDL
MODEL 4
REMARK VINA RESULT:    -8.976      1.503      2.494
REMARK INTER + INTRA:         -13.587
REMARK INTER:                 -12.766
REMARK INTRA:                  -0.821
REMARK UNBOUND:                -0.938
REMARK SMILES COc1ccc(Nc2nc(NC[C@H]3CCCO3)c3ccccc3n2)c(OC)c1
REMARK SMILES IDX 8 1 9 2 10 3 18 4 19 5 20 6 21 7 22 8 23 9 24 10 7 11 6 13
REMARK SMILES IDX 3 14 4 15 28 16 5 17 25 18 2 19 1 20 26 21 27 22 11 23 12 25
REMARK SMILES IDX 13 26 14 27 17 28 15 29 16 30
REMARK H PARENT 7 12 11 24
ROOT
ATOM      1  C   UNL     1       4.041  45.292  52.116  1.00  0.00     0.229 A 
ATOM      2  N   UNL     1       5.211  45.846  51.781  1.00  0.00    -0.195 NA
ATOM      3  C   UNL     1       6.090  45.112  51.079  1.00  0.00     0.139 A 
ATOM      4  C   UNL     1       5.798  43.805  50.659  1.00  0.00     0.043 A 
ATOM      5  C   UNL     1       6.650  42.983  49.876  1.00  0.00     0.014 A 
ATOM      6  C   UNL     1       6.268  41.692  49.518  1.00  0.00     0.001 A 
ATOM      7  C   UNL     1       5.034  41.210  49.935  1.00  0.00     0.002 A 
ATOM      8  C   UNL     1       4.194  42.026  50.697  1.00  0.00     0.029 A 
ATOM      9  C   UNL     1       4.553  43.318  51.064  1.00  0.00     0.078 A 
ATOM     10  N   UNL     1       3.693  44.042  51.784  1.00  0.00    -0.213 NA
ENDROOT
BRANCH   1  11
ATOM     11  N   UNL     1       3.089  45.984  52.854  1.00  0.00    -0.321 N 
ATOM     12  H   UNL     1       3.002  46.936  52.521  1.00  0.00     0.170 HD
BRANCH  11  13
ATOM     13  C   UNL     1       2.245  45.673  53.931  1.00  0.00     0.084 A 
ATOM     14  C   UNL     1       0.638  45.081  56.180  1.00  0.00     0.122 A 
ATOM     15  C   UNL     1       0.127  44.964  54.889  1.00  0.00     0.049 A 
ATOM     16  C   UNL     1       1.958  45.497  56.358  1.00  0.00     0.095 A 
ATOM     17  C   UNL     1       0.921  45.256  53.777  1.00  0.00     0.034 A 
ATOM     18  C   UNL     1       2.760  45.791  55.245  1.00  0.00     0.146 A 
BRANCH  14  19
ATOM     19  O   UNL     1      -0.248  44.764  57.173  1.00  0.00    -0.497 OA
ATOM     20  C   UNL     1      -1.628  44.970  56.901  1.00  0.00     0.278 C 
ENDBRANCH  14  19
BRANCH  18  21
ATOM     21  O   UNL     1       4.073  46.208  55.313  1.00  0.00    -0.494 OA
ATOM     22  C   UNL     1       5.066  45.216  55.531  1.00  0.00     0.278 C 
ENDBRANCH  18  21
ENDBRANCH  11  13
ENDBRANCH   1  11
BRANCH   3  23
ATOM     23  N   UNL     1       7.329  45.690  50.720  1.00  0.00    -0.367 N 
ATOM     24  H   UNL     1       8.073  45.012  50.880  1.00  0.00     0.162 HD
BRANCH  23  25
ATOM     25  C   UNL     1       7.654  46.937  51.420  1.00  0.00     0.146 C 
BRANCH  25  26
ATOM     26  C   UNL     1       8.350  46.602  52.746  1.00  0.00     0.137 C 
ATOM     27  C   UNL     1       9.856  46.790  52.696  1.00  0.00     0.036 C 
ATOM     28  O   UNL     1       7.874  47.476  53.798  1.00  0.00    -0.376 OA
ATOM     29  C   UNL     1      10.178  47.039  54.147  1.00  0.00     0.031 C 
ATOM     30  C   UNL     1       9.000  47.878  54.593  1.00  0.00     0.160 C 
ENDBRANCH  25  26
ENDBRANCH  23  25
ENDBRANCH   3  23
TORSDOF 7
ENDMDL
MODEL 5
REMARK VINA RESULT:    -8.951      2.147      5.076
REMARK INTER + INTRA:         -13.553
REMARK INTER:                 -12.748
REMARK INTRA:                  -0.805
REMARK UNBOUND:                -0.938
REMARK SMILES COc1ccc(Nc2nc(NC[C@H]3CCCO3)c3ccccc3n2)c(OC)c1
REMARK SMILES IDX 8 1 9 2 10 3 18 4 19 5 20 6 21 7 22 8 23 9 24 10 7 11 6 13
REMARK SMILES IDX 3 14 4 15 28 16 5 17 25 18 2 19 1 20 26 21 27 22 11 23 12 25
REMARK SMILES IDX 13 26 14 27 17 28 15 29 16 30
REMARK H PARENT 7 12 11 24
ROOT
ATOM      1  C   UNL     1       5.308  46.842  52.717  1.00  0.00     0.229 A 
ATOM      2  N   UNL     1       5.567  46.187  51.580  1.00  0.00    -0.195 NA
ATOM      3  C   UNL     1       6.849  45.980  51.236  1.00  0.00     0.139 A 
ATOM      4  C   UNL     1       7.913  46.395  52.054  1.00  0.00     0.043 A 
ATOM      5  C   UNL     1       9.289  46.173  51.787  1.00  0.00     0.014 A 
ATOM      6  C   UNL     1      10.270  46.635  52.661  1.00  0.00     0.001 A 
ATOM      7  C   UNL     1       9.890  47.320  53.808  1.00  0.00     0.002 A 
ATOM      8  C   UNL     1       8.533  47.527  54.071  1.00  0.00     0.029 A 
ATOM      9  C   UNL     1       7.536  47.073  53.215  1.00  0.00     0.078 A 
ATOM     10  N   UNL     1       6.261  47.300  53.538  1.00  0.00    -0.213 NA
ENDROOT
BRANCH   1  11
ATOM     11  N   UNL     1       4.008  47.106  53.128  1.00  0.00    -0.321 N 
ATOM     12  H   UNL     1       3.866  48.102  53.243  1.00  0.00     0.170 HD
BRANCH  11  13
ATOM     13  C   UNL     1       2.877  46.327  53.415  1.00  0.00     0.084 A 
ATOM     14  C   UNL     1       0.644  44.740  54.112  1.00  0.00     0.122 A 
ATOM     15  C   UNL     1       0.725  45.344  52.859  1.00  0.00     0.049 A 
ATOM     16  C   UNL     1       1.679  44.926  55.029  1.00  0.00     0.095 A 
ATOM     17  C   UNL     1       1.829  46.128  52.514  1.00  0.00     0.034 A 
ATOM     18  C   UNL     1       2.790  45.712  54.688  1.00  0.00     0.146 A 
BRANCH  14  19
ATOM     19  O   UNL     1      -0.491  44.002  54.314  1.00  0.00    -0.497 OA
ATOM     20  C   UNL     1      -1.152  43.500  53.161  1.00  0.00     0.278 C 
ENDBRANCH  14  19
BRANCH  18  21
ATOM     21  O   UNL     1       3.862  45.957  55.520  1.00  0.00    -0.494 OA
ATOM     22  C   UNL     1       4.839  44.933  55.648  1.00  0.00     0.278 C 
ENDBRANCH  18  21
ENDBRANCH  11  13
ENDBRANCH   1  11
BRANCH   3  23
ATOM     23  N   UNL     1       7.131  45.288  50.037  1.00  0.00    -0.367 N 
ATOM     24  H   UNL     1       6.410  45.503  49.349  1.00  0.00     0.162 HD
BRANCH  23  25
ATOM     25  C   UNL     1       7.246  43.833  50.176  1.00  0.00     0.146 C 
BRANCH  25  26
ATOM     26  C   UNL     1       5.914  43.184  49.777  1.00  0.00     0.137 C 
ATOM     27  C   UNL     1       6.086  41.854  49.065  1.00  0.00     0.036 C 
ATOM     28  O   UNL     1       5.119  42.904  50.955  1.00  0.00    -0.376 OA
ATOM     29  C   UNL     1       4.774  41.175  49.369  1.00  0.00     0.031 C 
ATOM     30  C   UNL     1       4.519  41.610  50.797  1.00  0.00     0.160 C 
ENDBRANCH  25  26
ENDBRANCH  23  25
ENDBRANCH   3  23
TORSDOF 7
ENDMDL
MODEL 6
REMARK VINA RESULT:    -8.876      2.197      4.688
REMARK INTER + INTRA:         -13.446
REMARK INTER:                 -12.459
REMARK INTRA:                  -0.987
REMARK UNBOUND:                -0.938
REMARK SMILES COc1ccc(Nc2nc(NC[C@H]3CCCO3)c3ccccc3n2)c(OC)c1
REMARK SMILES IDX 8 1 9 2 10 3 18 4 19 5 20 6 21 7 22 8 23 9 24 10 7 11 6 13
REMARK SMILES IDX 3 14 4 15 28 16 5 17 25 18 2 19 1 20 26 21 27 22 11 23 12 25
REMARK SMILES IDX 13 26 14 27 17 28 15 29 16 30
REMARK H PARENT 7 12 11 24
ROOT
ATOM      1  C   UNL     1       5.405  46.801  52.664  1.00  0.00     0.229 A 
ATOM      2  N   UNL     1       5.662  46.120  51.543  1.00  0.00    -0.195 NA
ATOM      3  C   UNL     1       6.944  45.899  51.206  1.00  0.00     0.139 A 
ATOM      4  C   UNL     1       8.008  46.328  52.015  1.00  0.00     0.043 A 
ATOM      5  C   UNL     1       9.383  46.093  51.755  1.00  0.00     0.014 A 
ATOM      6  C   UNL     1      10.366  46.571  52.619  1.00  0.00     0.001 A 
ATOM      7  C   UNL     1       9.988  47.283  53.749  1.00  0.00     0.002 A 
ATOM      8  C   UNL     1       8.632  47.503  54.007  1.00  0.00     0.029 A 
ATOM      9  C   UNL     1       7.633  47.034  53.159  1.00  0.00     0.078 A 
ATOM     10  N   UNL     1       6.359  47.274  53.476  1.00  0.00    -0.213 NA
ENDROOT
BRANCH   1  11
ATOM     11  N   UNL     1       4.106  47.081  53.068  1.00  0.00    -0.321 N 
ATOM     12  H   UNL     1       3.793  47.962  52.679  1.00  0.00     0.170 HD
BRANCH  11  13
ATOM     13  C   UNL     1       3.153  46.439  53.873  1.00  0.00     0.084 A 
ATOM     14  C   UNL     1       1.168  45.115  55.389  1.00  0.00     0.122 A 
ATOM     15  C   UNL     1       2.301  45.644  56.006  1.00  0.00     0.049 A 
ATOM     16  C   UNL     1       1.019  45.243  54.008  1.00  0.00     0.095 A 
ATOM     17  C   UNL     1       3.282  46.298  55.256  1.00  0.00     0.034 A 
ATOM     18  C   UNL     1       2.001  45.899  53.251  1.00  0.00     0.146 A 
BRANCH  14  19
ATOM     19  O   UNL     1       0.291  44.502  56.243  1.00  0.00    -0.497 OA
ATOM     20  C   UNL     1      -0.785  45.285  56.739  1.00  0.00     0.278 C 
ENDBRANCH  14  19
BRANCH  18  21
ATOM     21  O   UNL     1       1.948  46.077  51.885  1.00  0.00    -0.494 OA
ATOM     22  C   UNL     1       2.095  44.924  51.067  1.00  0.00     0.278 C 
ENDBRANCH  18  21
ENDBRANCH  11  13
ENDBRANCH   1  11
BRANCH   3  23
ATOM     23  N   UNL     1       7.224  45.178  50.023  1.00  0.00    -0.367 N 
ATOM     24  H   UNL     1       6.525  45.409  49.318  1.00  0.00     0.162 HD
BRANCH  23  25
ATOM     25  C   UNL     1       7.280  43.722  50.186  1.00  0.00     0.146 C 
BRANCH  25  26
ATOM     26  C   UNL     1       5.923  43.119  49.802  1.00  0.00     0.137 C 
ATOM     27  C   UNL     1       6.036  41.748  49.159  1.00  0.00     0.036 C 
ATOM     28  O   UNL     1       5.101  42.940  50.980  1.00  0.00    -0.376 OA
ATOM     29  C   UNL     1       4.689  41.152  49.479  1.00  0.00     0.031 C 
ATOM     30  C   UNL     1       4.439  41.670  50.879  1.00  0.00     0.160 C 
ENDBRANCH  25  26
ENDBRANCH  23  25
ENDBRANCH   3  23
TORSDOF 7
ENDMDL
MODEL 7
REMARK VINA RESULT:    -8.813      1.730      6.981
REMARK INTER + INTRA:         -13.358
REMARK INTER:                 -12.381
REMARK INTRA:                  -0.977
REMARK UNBOUND:                -0.938
REMARK SMILES COc1ccc(Nc2nc(NC[C@H]3CCCO3)c3ccccc3n2)c(OC)c1
REMARK SMILES IDX 8 1 9 2 10 3 18 4 19 5 20 6 21 7 22 8 23 9 24 10 7 11 6 13
REMARK SMILES IDX 3 14 4 15 28 16 5 17 25 18 2 19 1 20 26 21 27 22 11 23 12 25
REMARK SMILES IDX 13 26 14 27 17 28 15 29 16 30
REMARK H PARENT 7 12 11 24
ROOT
ATOM      1  C   UNL     1       6.081  45.025  51.376  1.00  0.00     0.229 A 
ATOM      2  N   UNL     1       5.049  44.720  52.169  1.00  0.00    -0.195 NA
ATOM      3  C   UNL     1       4.332  43.618  51.894  1.00  0.00     0.139 A 
ATOM      4  C   UNL     1       4.660  42.766  50.827  1.00  0.00     0.043 A 
ATOM      5  C   UNL     1       3.984  41.562  50.499  1.00  0.00     0.014 A 
ATOM      6  C   UNL     1       4.386  40.790  49.411  1.00  0.00     0.001 A 
ATOM      7  C   UNL     1       5.463  41.210  48.642  1.00  0.00     0.002 A 
ATOM      8  C   UNL     1       6.132  42.391  48.974  1.00  0.00     0.029 A 
ATOM      9  C   UNL     1       5.751  43.176  50.057  1.00  0.00     0.078 A 
ATOM     10  N   UNL     1       6.444  44.286  50.320  1.00  0.00    -0.213 NA
ENDROOT
BRANCH   1  11
ATOM     11  N   UNL     1       6.858  46.156  51.590  1.00  0.00    -0.321 N 
ATOM     12  H   UNL     1       6.602  46.892  50.944  1.00  0.00     0.170 HD
BRANCH  11  13
ATOM     13  C   UNL     1       7.892  46.501  52.473  1.00  0.00     0.084 A 
ATOM     14  C   UNL     1       9.887  47.242  54.334  1.00  0.00     0.122 A 
ATOM     15  C   UNL     1      10.222  46.565  53.163  1.00  0.00     0.049 A 
ATOM     16  C   UNL     1       8.550  47.554  54.585  1.00  0.00     0.095 A 
ATOM     17  C   UNL     1       9.235  46.198  52.243  1.00  0.00     0.034 A 
ATOM     18  C   UNL     1       7.557  47.189  53.665  1.00  0.00     0.146 A 
BRANCH  14  19
ATOM     19  O   UNL     1      10.951  47.538  55.143  1.00  0.00    -0.497 OA
ATOM     20  C   UNL     1      10.661  47.931  56.477  1.00  0.00     0.278 C 
ENDBRANCH  14  19
BRANCH  18  21
ATOM     21  O   UNL     1       6.211  47.449  53.820  1.00  0.00    -0.494 OA
ATOM     22  C   UNL     1       5.549  46.841  54.920  1.00  0.00     0.278 C 
ENDBRANCH  18  21
ENDBRANCH  11  13
ENDBRANCH   1  11
BRANCH   3  23
ATOM     23  N   UNL     1       3.240  43.288  52.728  1.00  0.00    -0.367 N 
ATOM     24  H   UNL     1       3.154  42.273  52.781  1.00  0.00     0.162 HD
BRANCH  23  25
ATOM     25  C   UNL     1       1.954  43.860  52.317  1.00  0.00     0.146 C 
BRANCH  25  26
ATOM     26  C   UNL     1       1.451  44.806  53.416  1.00  0.00     0.137 C 
ATOM     27  C   UNL     1       0.290  44.236  54.212  1.00  0.00     0.036 C 
ATOM     28  O   UNL     1       2.503  45.064  54.376  1.00  0.00    -0.376 OA
ATOM     29  C   UNL     1       0.427  44.975  55.518  1.00  0.00     0.031 C 
ATOM     30  C   UNL     1       1.930  45.032  55.692  1.00  0.00     0.160 C 
ENDBRANCH  25  26
ENDBRANCH  23  25
ENDBRANCH   3  23
TORSDOF 7
ENDMDL
MODEL 8
REMARK VINA RESULT:    -8.812      1.312      1.574
REMARK INTER + INTRA:         -13.356
REMARK INTER:                 -12.443
REMARK INTRA:                  -0.913
REMARK UNBOUND:                -0.938
REMARK SMILES COc1ccc(Nc2nc(NC[C@H]3CCCO3)c3ccccc3n2)c(OC)c1
REMARK SMILES IDX 8 1 9 2 10 3 18 4 19 5 20 6 21 7 22 8 23 9 24 10 7 11 6 13
REMARK SMILES IDX 3 14 4 15 28 16 5 17 25 18 2 19 1 20 26 21 27 22 11 23 12 25
REMARK SMILES IDX 13 26 14 27 17 28 15 29 16 30
REMARK H PARENT 7 12 11 24
ROOT
ATOM      1  C   UNL     1       3.883  45.253  52.316  1.00  0.00     0.229 A 
ATOM      2  N   UNL     1       5.056  45.816  52.006  1.00  0.00    -0.195 NA
ATOM      3  C   UNL     1       5.946  45.098  51.301  1.00  0.00     0.139 A 
ATOM      4  C   UNL     1       5.662  43.798  50.852  1.00  0.00     0.043 A 
ATOM      5  C   UNL     1       6.526  42.994  50.064  1.00  0.00     0.014 A 
ATOM      6  C   UNL     1       6.152  41.710  49.677  1.00  0.00     0.001 A 
ATOM      7  C   UNL     1       4.915  41.216  50.068  1.00  0.00     0.002 A 
ATOM      8  C   UNL     1       4.063  42.015  50.835  1.00  0.00     0.029 A 
ATOM      9  C   UNL     1       4.414  43.301  51.232  1.00  0.00     0.078 A 
ATOM     10  N   UNL     1       3.543  44.008  51.955  1.00  0.00    -0.213 NA
ENDROOT
BRANCH   1  11
ATOM     11  N   UNL     1       2.921  45.928  53.055  1.00  0.00    -0.321 N 
ATOM     12  H   UNL     1       2.887  46.904  52.790  1.00  0.00     0.170 HD
BRANCH  11  13
ATOM     13  C   UNL     1       2.009  45.574  54.061  1.00  0.00     0.084 A 
ATOM     14  C   UNL     1       0.083  44.845  55.998  1.00  0.00     0.122 A 
ATOM     15  C   UNL     1       1.400  45.110  56.368  1.00  0.00     0.049 A 
ATOM     16  C   UNL     1      -0.283  44.942  54.655  1.00  0.00     0.095 A 
ATOM     17  C   UNL     1       2.353  45.470  55.411  1.00  0.00     0.034 A 
ATOM     18  C   UNL     1       0.669  45.304  53.690  1.00  0.00     0.146 A 
BRANCH  14  19
ATOM     19  O   UNL     1      -0.741  44.503  57.036  1.00  0.00    -0.497 OA
ATOM     20  C   UNL     1      -2.086  44.955  56.972  1.00  0.00     0.278 C 
ENDBRANCH  14  19
BRANCH  18  21
ATOM     21  O   UNL     1       0.410  45.427  52.341  1.00  0.00    -0.494 OA
ATOM     22  C   UNL     1      -0.333  44.388  51.719  1.00  0.00     0.278 C 
ENDBRANCH  18  21
ENDBRANCH  11  13
ENDBRANCH   1  11
BRANCH   3  23
ATOM     23  N   UNL     1       7.187  45.686  50.969  1.00  0.00    -0.367 N 
ATOM     24  H   UNL     1       7.933  45.015  51.146  1.00  0.00     0.162 HD
BRANCH  23  25
ATOM     25  C   UNL     1       7.486  46.936  51.674  1.00  0.00     0.146 C 
BRANCH  25  26
ATOM     26  C   UNL     1       8.277  46.617  52.950  1.00  0.00     0.137 C 
ATOM     27  C   UNL     1       9.775  46.805  52.788  1.00  0.00     0.036 C 
ATOM     28  O   UNL     1       7.878  47.502  54.024  1.00  0.00    -0.376 OA
ATOM     29  C   UNL     1      10.202  47.071  54.210  1.00  0.00     0.031 C 
ATOM     30  C   UNL     1       9.057  47.914  54.730  1.00  0.00     0.160 C 
ENDBRANCH  25  26
ENDBRANCH  23  25
ENDBRANCH   3  23
TORSDOF 7
ENDMDL
MODEL 9
REMARK VINA RESULT:    -8.662      3.474      7.057
REMARK INTER + INTRA:         -13.145
REMARK INTER:                 -12.113
REMARK INTRA:                  -1.031
REMARK UNBOUND:                -0.938
REMARK SMILES COc1ccc(Nc2nc(NC[C@H]3CCCO3)c3ccccc3n2)c(OC)c1
REMARK SMILES IDX 8 1 9 2 10 3 18 4 19 5 20 6 21 7 22 8 23 9 24 10 7 11 6 13
REMARK SMILES IDX 3 14 4 15 28 16 5 17 25 18 2 19 1 20 26 21 27 22 11 23 12 25
REMARK SMILES IDX 13 26 14 27 17 28 15 29 16 30
REMARK H PARENT 7 12 11 24
ROOT
ATOM      1  C   UNL     1       6.979  43.817  49.696  1.00  0.00     0.229 A 
ATOM      2  N   UNL     1       5.881  44.470  50.093  1.00  0.00    -0.195 NA
ATOM      3  C   UNL     1       6.026  45.546  50.884  1.00  0.00     0.139 A 
ATOM      4  C   UNL     1       7.290  46.020  51.268  1.00  0.00     0.043 A 
ATOM      5  C   UNL     1       7.530  47.173  52.060  1.00  0.00     0.014 A 
ATOM      6  C   UNL     1       8.827  47.555  52.394  1.00  0.00     0.001 A 
ATOM      7  C   UNL     1       9.896  46.793  51.941  1.00  0.00     0.002 A 
ATOM      8  C   UNL     1       9.657  45.664  51.153  1.00  0.00     0.029 A 
ATOM      9  C   UNL     1       8.370  45.265  50.805  1.00  0.00     0.078 A 
ATOM     10  N   UNL     1       8.220  44.182  50.041  1.00  0.00    -0.213 NA
ENDROOT
BRANCH   1  11
ATOM     11  N   UNL     1       6.906  42.688  48.891  1.00  0.00    -0.321 N 
ATOM     12  H   UNL     1       7.831  42.316  48.714  1.00  0.00     0.170 HD
BRANCH  11  13
ATOM     13  C   UNL     1       5.869  41.966  48.280  1.00  0.00     0.084 A 
ATOM     14  C   UNL     1       3.738  40.479  47.167  1.00  0.00     0.122 A 
ATOM     15  C   UNL     1       4.615  41.189  46.349  1.00  0.00     0.049 A 
ATOM     16  C   UNL     1       3.919  40.507  48.550  1.00  0.00     0.095 A 
ATOM     17  C   UNL     1       5.669  41.924  46.899  1.00  0.00     0.034 A 
ATOM     18  C   UNL     1       4.976  41.243  49.107  1.00  0.00     0.146 A 
BRANCH  14  19
ATOM     19  O   UNL     1       2.754  39.805  46.495  1.00  0.00    -0.497 OA
ATOM     20  C   UNL     1       2.702  38.396  46.665  1.00  0.00     0.278 C 
ENDBRANCH  14  19
BRANCH  18  21
ATOM     21  O   UNL     1       5.240  41.335  50.458  1.00  0.00    -0.494 OA
ATOM     22  C   UNL     1       4.172  41.727  51.309  1.00  0.00     0.278 C 
ENDBRANCH  18  21
ENDBRANCH  11  13
ENDBRANCH   1  11
BRANCH   3  23
ATOM     23  N   UNL     1       4.871  46.243  51.307  1.00  0.00    -0.367 N 
ATOM     24  H   UNL     1       5.141  46.961  51.978  1.00  0.00     0.162 HD
BRANCH  23  25
ATOM     25  C   UNL     1       3.824  45.402  51.895  1.00  0.00     0.146 C 
BRANCH  25  26
ATOM     26  C   UNL     1       3.945  45.444  53.424  1.00  0.00     0.137 C 
ATOM     27  C   UNL     1       5.035  44.535  53.964  1.00  0.00     0.036 C 
ATOM     28  O   UNL     1       4.287  46.780  53.864  1.00  0.00    -0.376 OA
ATOM     29  C   UNL     1       5.373  45.209  55.269  1.00  0.00     0.031 C 
ATOM     30  C   UNL     1       5.273  46.674  54.902  1.00  0.00     0.160 C 
ENDBRANCH  25  26
ENDBRANCH  23  25
ENDBRANCH   3  23
TORSDOF 7
ENDMDL
MODEL 10
REMARK VINA RESULT:    -8.624      1.914      7.124
REMARK INTER + INTRA:         -13.091
REMARK INTER:                 -12.118
REMARK INTRA:                  -0.973
REMARK UNBOUND:                -0.938
REMARK SMILES COc1ccc(Nc2nc(NC[C@H]3CCCO3)c3ccccc3n2)c(OC)c1
REMARK SMILES IDX 8 1 9 2 10 3 18 4 19 5 20 6 21 7 22 8 23 9 24 10 7 11 6 13
REMARK SMILES IDX 3 14 4 15 28 16 5 17 25 18 2 19 1 20 26 21 27 22 11 23 12 25
REMARK SMILES IDX 13 26 14 27 17 28 15 29 16 30
REMARK H PARENT 7 12 11 24
ROOT
ATOM      1  C   UNL     1       6.214  44.965  51.273  1.00  0.00     0.229 A 
ATOM      2  N   UNL     1       5.149  44.786  52.060  1.00  0.00    -0.195 NA
ATOM      3  C   UNL     1       4.343  43.738  51.821  1.00  0.00     0.139 A 
ATOM      4  C   UNL     1       4.611  42.814  50.799  1.00  0.00     0.043 A 
ATOM      5  C   UNL     1       3.839  41.659  50.513  1.00  0.00     0.014 A 
ATOM      6  C   UNL     1       4.187  40.807  49.467  1.00  0.00     0.001 A 
ATOM      7  C   UNL     1       5.307  41.097  48.700  1.00  0.00     0.002 A 
ATOM      8  C   UNL     1       6.071  42.230  48.991  1.00  0.00     0.029 A 
ATOM      9  C   UNL     1       5.744  43.094  50.032  1.00  0.00     0.078 A 
ATOM     10  N   UNL     1       6.527  44.151  50.257  1.00  0.00    -0.213 NA
ENDROOT
BRANCH   1  11
ATOM     11  N   UNL     1       7.083  46.034  51.451  1.00  0.00    -0.321 N 
ATOM     12  H   UNL     1       7.227  46.526  50.577  1.00  0.00     0.170 HD
BRANCH  11  13
ATOM     13  C   UNL     1       7.790  46.572  52.536  1.00  0.00     0.084 A 
ATOM     14  C   UNL     1       9.323  47.637  54.659  1.00  0.00     0.122 A 
ATOM     15  C   UNL     1       7.931  47.625  54.722  1.00  0.00     0.049 A 
ATOM     16  C   UNL     1       9.961  47.117  53.533  1.00  0.00     0.095 A 
ATOM     17  C   UNL     1       7.173  47.099  53.673  1.00  0.00     0.034 A 
ATOM     18  C   UNL     1       9.205  46.587  52.477  1.00  0.00     0.146 A 
BRANCH  14  19
ATOM     19  O   UNL     1       9.937  48.182  55.755  1.00  0.00    -0.497 OA
ATOM     20  C   UNL     1      11.060  47.489  56.280  1.00  0.00     0.278 C 
ENDBRANCH  14  19
BRANCH  18  21
ATOM     21  O   UNL     1       9.737  46.051  51.323  1.00  0.00    -0.494 OA
ATOM     22  C   UNL     1      10.698  45.014  51.465  1.00  0.00     0.278 C 
ENDBRANCH  18  21
ENDBRANCH  11  13
ENDBRANCH   1  11
BRANCH   3  23
ATOM     23  N   UNL     1       3.215  43.541  52.650  1.00  0.00    -0.367 N 
ATOM     24  H   UNL     1       2.933  42.563  52.604  1.00  0.00     0.162 HD
BRANCH  23  25
ATOM     25  C   UNL     1       2.061  44.390  52.334  1.00  0.00     0.146 C 
BRANCH  25  26
ATOM     26  C   UNL     1       1.637  45.150  53.597  1.00  0.00     0.137 C 
ATOM     27  C   UNL     1       1.135  44.239  54.704  1.00  0.00     0.036 C 
ATOM     28  O   UNL     1       2.763  45.869  54.154  1.00  0.00    -0.376 OA
ATOM     29  C   UNL     1       1.410  45.073  55.930  1.00  0.00     0.031 C 
ATOM     30  C   UNL     1       2.733  45.720  55.581  1.00  0.00     0.160 C 
ENDBRANCH  25  26
ENDBRANCH  23  25
ENDBRANCH   3  23
TORSDOF 7
ENDMDL
MODEL 11
REMARK VINA RESULT:    -8.622      2.474      7.529
REMARK INTER + INTRA:         -13.088
REMARK INTER:                 -12.031
REMARK INTRA:                  -1.057
REMARK UNBOUND:                -0.938
REMARK SMILES COc1ccc(Nc2nc(NC[C@H]3CCCO3)c3ccccc3n2)c(OC)c1
REMARK SMILES IDX 8 1 9 2 10 3 18 4 19 5 20 6 21 7 22 8 23 9 24 10 7 11 6 13
REMARK SMILES IDX 3 14 4 15 28 16 5 17 25 18 2 19 1 20 26 21 27 22 11 23 12 25
REMARK SMILES IDX 13 26 14 27 17 28 15 29 16 30
REMARK H PARENT 7 12 11 24
ROOT
ATOM      1  C   UNL     1       6.298  44.896  51.273  1.00  0.00     0.229 A 
ATOM      2  N   UNL     1       5.313  44.606  52.130  1.00  0.00    -0.195 NA
ATOM      3  C   UNL     1       4.538  43.538  51.878  1.00  0.00     0.139 A 
ATOM      4  C   UNL     1       4.758  42.705  50.770  1.00  0.00     0.043 A 
ATOM      5  C   UNL     1       4.016  41.536  50.462  1.00  0.00     0.014 A 
ATOM      6  C   UNL     1       4.311  40.780  49.329  1.00  0.00     0.001 A 
ATOM      7  C   UNL     1       5.347  41.181  48.496  1.00  0.00     0.002 A 
ATOM      8  C   UNL     1       6.081  42.328  48.810  1.00  0.00     0.029 A 
ATOM      9  C   UNL     1       5.807  43.097  49.936  1.00  0.00     0.078 A 
ATOM     10  N   UNL     1       6.558  44.173  50.176  1.00  0.00    -0.213 NA
ENDROOT
BRANCH   1  11
ATOM     11  N   UNL     1       7.130  45.992  51.459  1.00  0.00    -0.321 N 
ATOM     12  H   UNL     1       7.235  46.511  50.597  1.00  0.00     0.170 HD
BRANCH  11  13
ATOM     13  C   UNL     1       7.843  46.528  52.543  1.00  0.00     0.084 A 
ATOM     14  C   UNL     1       9.387  47.595  54.657  1.00  0.00     0.122 A 
ATOM     15  C   UNL     1       7.999  47.518  54.756  1.00  0.00     0.049 A 
ATOM     16  C   UNL     1      10.015  47.139  53.497  1.00  0.00     0.095 A 
ATOM     17  C   UNL     1       7.236  46.991  53.711  1.00  0.00     0.034 A 
ATOM     18  C   UNL     1       9.254  46.608  52.446  1.00  0.00     0.146 A 
BRANCH  14  19
ATOM     19  O   UNL     1      10.006  48.133  55.752  1.00  0.00    -0.497 OA
ATOM     20  C   UNL     1      11.148  47.451  56.251  1.00  0.00     0.278 C 
ENDBRANCH  14  19
BRANCH  18  21
ATOM     21  O   UNL     1       9.777  46.132  51.262  1.00  0.00    -0.494 OA
ATOM     22  C   UNL     1      10.700  45.055  51.339  1.00  0.00     0.278 C 
ENDBRANCH  18  21
ENDBRANCH  11  13
ENDBRANCH   1  11
BRANCH   3  23
ATOM     23  N   UNL     1       3.495  43.225  52.780  1.00  0.00    -0.367 N 
ATOM     24  H   UNL     1       2.958  42.442  52.410  1.00  0.00     0.162 HD
BRANCH  23  25
ATOM     25  C   UNL     1       2.585  44.335  53.081  1.00  0.00     0.146 C 
BRANCH  25  26
ATOM     26  C   UNL     1       1.566  44.472  51.943  1.00  0.00     0.137 C 
ATOM     27  C   UNL     1       0.837  43.177  51.633  1.00  0.00     0.036 C 
ATOM     28  O   UNL     1       0.541  45.430  52.300  1.00  0.00    -0.376 OA
ATOM     29  C   UNL     1      -0.446  43.689  51.029  1.00  0.00     0.031 C 
ATOM     30  C   UNL     1      -0.729  44.910  51.878  1.00  0.00     0.160 C 
ENDBRANCH  25  26
ENDBRANCH  23  25
ENDBRANCH   3  23
TORSDOF 7
ENDMDL
MODEL 12
REMARK VINA RESULT:    -8.596      1.238      2.193
REMARK INTER + INTRA:         -13.052
REMARK INTER:                 -12.104
REMARK INTRA:                  -0.948
REMARK UNBOUND:                -0.938
REMARK SMILES COc1ccc(Nc2nc(NC[C@H]3CCCO3)c3ccccc3n2)c(OC)c1
REMARK SMILES IDX 8 1 9 2 10 3 18 4 19 5 20 6 21 7 22 8 23 9 24 10 7 11 6 13
REMARK SMILES IDX 3 14 4 15 28 16 5 17 25 18 2 19 1 20 26 21 27 22 11 23 12 25
REMARK SMILES IDX 13 26 14 27 17 28 15 29 16 30
REMARK H PARENT 7 12 11 24
ROOT
ATOM      1  C   UNL     1       3.340  44.437  53.597  1.00  0.00     0.229 A 
ATOM      2  N   UNL     1       4.038  45.552  53.355  1.00  0.00    -0.195 NA
ATOM      3  C   UNL     1       4.943  45.540  52.362  1.00  0.00     0.139 A 
ATOM      4  C   UNL     1       5.142  44.409  51.554  1.00  0.00     0.043 A 
ATOM      5  C   UNL     1       6.041  44.331  50.458  1.00  0.00     0.014 A 
ATOM      6  C   UNL     1       6.171  43.155  49.722  1.00  0.00     0.001 A 
ATOM      7  C   UNL     1       5.407  42.049  50.070  1.00  0.00     0.002 A 
ATOM      8  C   UNL     1       4.517  42.134  51.144  1.00  0.00     0.029 A 
ATOM      9  C   UNL     1       4.368  43.298  51.891  1.00  0.00     0.078 A 
ATOM     10  N   UNL     1       3.489  43.306  52.895  1.00  0.00    -0.213 NA
ENDROOT
BRANCH   1  11
ATOM     11  N   UNL     1       2.399  44.370  54.616  1.00  0.00    -0.321 N 
ATOM     12  H   UNL     1       2.848  44.174  55.503  1.00  0.00     0.170 HD
BRANCH  11  13
ATOM     13  C   UNL     1       1.005  44.507  54.695  1.00  0.00     0.084 A 
ATOM     14  C   UNL     1      -1.787  44.860  54.955  1.00  0.00     0.122 A 
ATOM     15  C   UNL     1      -1.259  44.099  53.914  1.00  0.00     0.049 A 
ATOM     16  C   UNL     1      -0.922  45.453  55.875  1.00  0.00     0.095 A 
ATOM     17  C   UNL     1       0.121  43.924  53.785  1.00  0.00     0.034 A 
ATOM     18  C   UNL     1       0.464  45.280  55.751  1.00  0.00     0.146 A 
BRANCH  14  19
ATOM     19  O   UNL     1      -3.153  44.948  54.959  1.00  0.00    -0.497 OA
ATOM     20  C   UNL     1      -3.873  43.823  55.443  1.00  0.00     0.278 C 
ENDBRANCH  14  19
BRANCH  18  21
ATOM     21  O   UNL     1       1.401  45.822  56.606  1.00  0.00    -0.494 OA
ATOM     22  C   UNL     1       0.942  46.302  57.863  1.00  0.00     0.278 C 
ENDBRANCH  18  21
ENDBRANCH  11  13
ENDBRANCH   1  11
BRANCH   3  23
ATOM     23  N   UNL     1       5.684  46.714  52.100  1.00  0.00    -0.367 N 
ATOM     24  H   UNL     1       6.472  46.484  51.496  1.00  0.00     0.162 HD
BRANCH  23  25
ATOM     25  C   UNL     1       6.177  47.412  53.291  1.00  0.00     0.146 C 
BRANCH  25  26
ATOM     26  C   UNL     1       7.560  46.859  53.661  1.00  0.00     0.137 C 
ATOM     27  C   UNL     1       8.605  47.091  52.584  1.00  0.00     0.036 C 
ATOM     28  O   UNL     1       8.062  47.514  54.850  1.00  0.00    -0.376 OA
ATOM     29  C   UNL     1       9.879  47.079  53.390  1.00  0.00     0.031 C 
ATOM     30  C   UNL     1       9.457  47.793  54.656  1.00  0.00     0.160 C 
ENDBRANCH  25  26
ENDBRANCH  23  25
ENDBRANCH   3  23
TORSDOF 7
ENDMDL
MODEL 13
REMARK VINA RESULT:    -8.561      2.301      6.739
REMARK INTER + INTRA:         -13.003
REMARK INTER:                 -11.967
REMARK INTRA:                  -1.036
REMARK UNBOUND:                -0.938
REMARK SMILES COc1ccc(Nc2nc(NC[C@H]3CCCO3)c3ccccc3n2)c(OC)c1
REMARK SMILES IDX 8 1 9 2 10 3 18 4 19 5 20 6 21 7 22 8 23 9 24 10 7 11 6 13
REMARK SMILES IDX 3 14 4 15 28 16 5 17 25 18 2 19 1 20 26 21 27 22 11 23 12 25
REMARK SMILES IDX 13 26 14 27 17 28 15 29 16 30
REMARK H PARENT 7 12 11 24
ROOT
ATOM      1  C   UNL     1       2.814  43.698  52.802  1.00  0.00     0.229 A 
ATOM      2  N   UNL     1       3.565  44.415  53.645  1.00  0.00    -0.195 NA
ATOM      3  C   UNL     1       2.982  44.940  54.736  1.00  0.00     0.139 A 
ATOM      4  C   UNL     1       1.626  44.724  55.030  1.00  0.00     0.043 A 
ATOM      5  C   UNL     1       0.949  45.201  56.181  1.00  0.00     0.014 A 
ATOM      6  C   UNL     1      -0.405  44.938  56.376  1.00  0.00     0.001 A 
ATOM      7  C   UNL     1      -1.095  44.195  55.427  1.00  0.00     0.002 A 
ATOM      8  C   UNL     1      -0.422  43.718  54.299  1.00  0.00     0.029 A 
ATOM      9  C   UNL     1       0.930  43.967  54.085  1.00  0.00     0.078 A 
ATOM     10  N   UNL     1       1.508  43.469  52.990  1.00  0.00    -0.213 NA
ENDROOT
BRANCH   1  11
ATOM     11  N   UNL     1       3.343  43.139  51.647  1.00  0.00    -0.321 N 
ATOM     12  H   UNL     1       2.668  42.529  51.204  1.00  0.00     0.170 HD
BRANCH  11  13
ATOM     13  C   UNL     1       4.571  43.221  50.973  1.00  0.00     0.084 A 
ATOM     14  C   UNL     1       7.031  43.266  49.581  1.00  0.00     0.122 A 
ATOM     15  C   UNL     1       6.534  44.419  50.186  1.00  0.00     0.049 A 
ATOM     16  C   UNL     1       6.301  42.080  49.666  1.00  0.00     0.095 A 
ATOM     17  C   UNL     1       5.318  44.397  50.874  1.00  0.00     0.034 A 
ATOM     18  C   UNL     1       5.080  42.053  50.356  1.00  0.00     0.146 A 
BRANCH  14  19
ATOM     19  O   UNL     1       8.230  43.432  48.941  1.00  0.00    -0.497 OA
ATOM     20  C   UNL     1       9.198  44.251  49.582  1.00  0.00     0.278 C 
ENDBRANCH  14  19
BRANCH  18  21
ATOM     21  O   UNL     1       4.285  40.935  50.498  1.00  0.00    -0.494 OA
ATOM     22  C   UNL     1       3.599  40.469  49.344  1.00  0.00     0.278 C 
ENDBRANCH  18  21
ENDBRANCH  11  13
ENDBRANCH   1  11
BRANCH   3  23
ATOM     23  N   UNL     1       3.769  45.698  55.632  1.00  0.00    -0.367 N 
ATOM     24  H   UNL     1       3.695  46.686  55.389  1.00  0.00     0.162 HD
BRANCH  23  25
ATOM     25  C   UNL     1       5.184  45.319  55.683  1.00  0.00     0.146 C 
BRANCH  25  26
ATOM     26  C   UNL     1       6.014  46.375  54.940  1.00  0.00     0.137 C 
ATOM     27  C   UNL     1       6.882  45.789  53.840  1.00  0.00     0.036 C 
ATOM     28  O   UNL     1       5.144  47.333  54.292  1.00  0.00    -0.376 OA
ATOM     29  C   UNL     1       7.043  46.971  52.919  1.00  0.00     0.031 C 
ATOM     30  C   UNL     1       5.673  47.612  52.987  1.00  0.00     0.160 C 
ENDBRANCH  25  26
ENDBRANCH  23  25
ENDBRANCH   3  23
TORSDOF 7
ENDMDL
MODEL 14
REMARK VINA RESULT:    -8.074      2.850      7.600
REMARK INTER + INTRA:         -12.316
REMARK INTER:                 -11.341
REMARK INTRA:                  -0.975
REMARK UNBOUND:                -0.938
REMARK SMILES COc1ccc(Nc2nc(NC[C@H]3CCCO3)c3ccccc3n2)c(OC)c1
REMARK SMILES IDX 8 1 9 2 10 3 18 4 19 5 20 6 21 7 22 8 23 9 24 10 7 11 6 13
REMARK SMILES IDX 3 14 4 15 28 16 5 17 25 18 2 19 1 20 26 21 27 22 11 23 12 25
REMARK SMILES IDX 13 26 14 27 17 28 15 29 16 30
REMARK H PARENT 7 12 11 24
ROOT
ATOM      1  C   UNL     1       4.095  45.291  52.440  1.00  0.00     0.229 A 
ATOM      2  N   UNL     1       4.236  44.024  52.037  1.00  0.00    -0.195 NA
ATOM      3  C   UNL     1       3.252  43.150  52.311  1.00  0.00     0.139 A 
ATOM      4  C   UNL     1       2.075  43.540  52.969  1.00  0.00     0.043 A 
ATOM      5  C   UNL     1       0.973  42.692  53.252  1.00  0.00     0.014 A 
ATOM      6  C   UNL     1      -0.149  43.177  53.920  1.00  0.00     0.001 A 
ATOM      7  C   UNL     1      -0.184  44.510  54.309  1.00  0.00     0.002 A 
ATOM      8  C   UNL     1       0.899  45.344  54.019  1.00  0.00     0.029 A 
ATOM      9  C   UNL     1       2.029  44.882  53.352  1.00  0.00     0.078 A 
ATOM     10  N   UNL     1       3.019  45.740  53.100  1.00  0.00    -0.213 NA
ENDROOT
BRANCH   1  11
ATOM     11  N   UNL     1       5.076  46.246  52.207  1.00  0.00    -0.321 N 
ATOM     12  H   UNL     1       4.746  46.943  51.551  1.00  0.00     0.170 HD
BRANCH  11  13
ATOM     13  C   UNL     1       6.387  46.456  52.659  1.00  0.00     0.084 A 
ATOM     14  C   UNL     1       9.071  46.856  53.451  1.00  0.00     0.122 A 
ATOM     15  C   UNL     1       8.026  47.060  54.349  1.00  0.00     0.049 A 
ATOM     16  C   UNL     1       8.783  46.451  52.147  1.00  0.00     0.095 A 
ATOM     17  C   UNL     1       6.698  46.863  53.958  1.00  0.00     0.034 A 
ATOM     18  C   UNL     1       7.453  46.251  51.749  1.00  0.00     0.146 A 
BRANCH  14  19
ATOM     19  O   UNL     1      10.317  47.087  53.968  1.00  0.00    -0.497 OA
ATOM     20  C   UNL     1      10.401  47.367  55.358  1.00  0.00     0.278 C 
ENDBRANCH  14  19
BRANCH  18  21
ATOM     21  O   UNL     1       7.064  45.852  50.488  1.00  0.00    -0.494 OA
ATOM     22  C   UNL     1       7.435  44.546  50.069  1.00  0.00     0.278 C 
ENDBRANCH  18  21
ENDBRANCH  11  13
ENDBRANCH   1  11
BRANCH   3  23
ATOM     23  N   UNL     1       3.393  41.809  51.888  1.00  0.00    -0.367 N 
ATOM     24  H   UNL     1       3.346  41.195  52.700  1.00  0.00     0.162 HD
BRANCH  23  25
ATOM     25  C   UNL     1       4.621  41.524  51.138  1.00  0.00     0.146 C 
BRANCH  25  26
ATOM     26  C   UNL     1       4.344  41.689  49.638  1.00  0.00     0.137 C 
ATOM     27  C   UNL     1       5.544  41.359  48.768  1.00  0.00     0.036 C 
ATOM     28  O   UNL     1       3.289  40.789  49.221  1.00  0.00    -0.376 OA
ATOM     29  C   UNL     1       4.879  40.971  47.471  1.00  0.00     0.031 C 
ATOM     30  C   UNL     1       3.657  40.220  47.955  1.00  0.00     0.160 C 
ENDBRANCH  25  26
ENDBRANCH  23  25
ENDBRANCH   3  23
TORSDOF 7
ENDMDL
MODEL 15
REMARK VINA RESULT:    -8.030      2.231      5.046
REMARK INTER + INTRA:         -12.255
REMARK INTER:                 -11.587
REMARK INTRA:                  -0.668
REMARK UNBOUND:                -0.938
REMARK SMILES COc1ccc(Nc2nc(NC[C@H]3CCCO3)c3ccccc3n2)c(OC)c1
REMARK SMILES IDX 8 1 9 2 10 3 18 4 19 5 20 6 21 7 22 8 23 9 24 10 7 11 6 13
REMARK SMILES IDX 3 14 4 15 28 16 5 17 25 18 2 19 1 20 26 21 27 22 11 23 12 25
REMARK SMILES IDX 13 26 14 27 17 28 15 29 16 30
REMARK H PARENT 7 12 11 24
ROOT
ATOM      1  C   UNL     1       4.245  44.559  53.234  1.00  0.00     0.229 A 
ATOM      2  N   UNL     1       4.444  43.929  52.071  1.00  0.00    -0.195 NA
ATOM      3  C   UNL     1       5.455  44.336  51.286  1.00  0.00     0.139 A 
ATOM      4  C   UNL     1       6.322  45.372  51.669  1.00  0.00     0.043 A 
ATOM      5  C   UNL     1       7.438  45.828  50.921  1.00  0.00     0.014 A 
ATOM      6  C   UNL     1       8.234  46.872  51.388  1.00  0.00     0.001 A 
ATOM      7  C   UNL     1       7.926  47.468  52.603  1.00  0.00     0.002 A 
ATOM      8  C   UNL     1       6.832  47.009  53.342  1.00  0.00     0.029 A 
ATOM      9  C   UNL     1       6.025  45.967  52.897  1.00  0.00     0.078 A 
ATOM     10  N   UNL     1       5.004  45.576  53.662  1.00  0.00    -0.213 NA
ENDROOT
BRANCH   1  11
ATOM     11  N   UNL     1       3.211  44.204  54.090  1.00  0.00    -0.321 N 
ATOM     12  H   UNL     1       3.541  44.152  55.046  1.00  0.00     0.170 HD
BRANCH  11  13
ATOM     13  C   UNL     1       1.849  43.905  53.936  1.00  0.00     0.084 A 
ATOM     14  C   UNL     1      -0.922  43.391  53.713  1.00  0.00     0.122 A 
ATOM     15  C   UNL     1      -0.007  42.731  52.894  1.00  0.00     0.049 A 
ATOM     16  C   UNL     1      -0.458  44.315  54.650  1.00  0.00     0.095 A 
ATOM     17  C   UNL     1       1.363  42.985  53.004  1.00  0.00     0.034 A 
ATOM     18  C   UNL     1       0.916  44.573  54.765  1.00  0.00     0.146 A 
BRANCH  14  19
ATOM     19  O   UNL     1      -2.229  43.047  53.497  1.00  0.00    -0.497 OA
ATOM     20  C   UNL     1      -3.208  44.056  53.704  1.00  0.00     0.278 C 
ENDBRANCH  14  19
BRANCH  18  21
ATOM     21  O   UNL     1       1.474  45.465  55.656  1.00  0.00    -0.494 OA
ATOM     22  C   UNL     1       0.823  45.634  56.908  1.00  0.00     0.278 C 
ENDBRANCH  18  21
ENDBRANCH  11  13
ENDBRANCH   1  11
BRANCH   3  23
ATOM     23  N   UNL     1       5.673  43.674  50.056  1.00  0.00    -0.367 N 
ATOM     24  H   UNL     1       4.774  43.421  49.649  1.00  0.00     0.162 HD
BRANCH  23  25
ATOM     25  C   UNL     1       6.518  42.479  50.140  1.00  0.00     0.146 C 
BRANCH  25  26
ATOM     26  C   UNL     1       5.725  41.266  49.637  1.00  0.00     0.137 C 
ATOM     27  C   UNL     1       4.300  41.224  50.160  1.00  0.00     0.036 C 
ATOM     28  O   UNL     1       5.618  41.299  48.193  1.00  0.00    -0.376 OA
ATOM     29  C   UNL     1       3.608  40.418  49.091  1.00  0.00     0.031 C 
ATOM     30  C   UNL     1       4.282  40.920  47.832  1.00  0.00     0.160 C 
ENDBRANCH  25  26
ENDBRANCH  23  25
ENDBRANCH   3  23
TORSDOF 7
ENDMDL
MODEL 16
REMARK VINA RESULT:    -8.025      3.291      7.582
REMARK INTER + INTRA:         -12.247
REMARK INTER:                 -11.240
REMARK INTRA:                  -1.007
REMARK UNBOUND:                -0.938
REMARK SMILES COc1ccc(Nc2nc(NC[C@H]3CCCO3)c3ccccc3n2)c(OC)c1
REMARK SMILES IDX 8 1 9 2 10 3 18 4 19 5 20 6 21 7 22 8 23 9 24 10 7 11 6 13
REMARK SMILES IDX 3 14 4 15 28 16 5 17 25 18 2 19 1 20 26 21 27 22 11 23 12 25
REMARK SMILES IDX 13 26 14 27 17 28 15 29 16 30
REMARK H PARENT 7 12 11 24
ROOT
ATOM      1  C   UNL     1       5.300  45.497  51.417  1.00  0.00     0.229 A 
ATOM      2  N   UNL     1       5.615  44.248  51.061  1.00  0.00    -0.195 NA
ATOM      3  C   UNL     1       4.628  43.343  50.953  1.00  0.00     0.139 A 
ATOM      4  C   UNL     1       3.282  43.684  51.164  1.00  0.00     0.043 A 
ATOM      5  C   UNL     1       2.180  42.802  51.023  1.00  0.00     0.014 A 
ATOM      6  C   UNL     1       0.879  43.239  51.265  1.00  0.00     0.001 A 
ATOM      7  C   UNL     1       0.666  44.557  51.646  1.00  0.00     0.002 A 
ATOM      8  C   UNL     1       1.754  45.425  51.774  1.00  0.00     0.029 A 
ATOM      9  C   UNL     1       3.061  45.012  51.535  1.00  0.00     0.078 A 
ATOM     10  N   UNL     1       4.048  45.900  51.667  1.00  0.00    -0.213 NA
ENDROOT
BRANCH   1  11
ATOM     11  N   UNL     1       6.269  46.482  51.564  1.00  0.00    -0.321 N 
ATOM     12  H   UNL     1       6.106  47.242  50.916  1.00  0.00     0.170 HD
BRANCH  11  13
ATOM     13  C   UNL     1       7.394  46.656  52.384  1.00  0.00     0.084 A 
ATOM     14  C   UNL     1       9.583  47.045  54.130  1.00  0.00     0.122 A 
ATOM     15  C   UNL     1       9.777  46.537  52.847  1.00  0.00     0.049 A 
ATOM     16  C   UNL     1       8.291  47.363  54.552  1.00  0.00     0.095 A 
ATOM     17  C   UNL     1       8.695  46.345  51.983  1.00  0.00     0.034 A 
ATOM     18  C   UNL     1       7.202  47.172  53.689  1.00  0.00     0.146 A 
BRANCH  14  19
ATOM     19  O   UNL     1      10.729  47.181  54.866  1.00  0.00    -0.497 OA
ATOM     20  C   UNL     1      10.610  47.795  56.142  1.00  0.00     0.278 C 
ENDBRANCH  14  19
BRANCH  18  21
ATOM     21  O   UNL     1       5.890  47.454  54.009  1.00  0.00    -0.494 OA
ATOM     22  C   UNL     1       5.253  46.613  54.961  1.00  0.00     0.278 C 
ENDBRANCH  18  21
ENDBRANCH  11  13
ENDBRANCH   1  11
BRANCH   3  23
ATOM     23  N   UNL     1       4.953  42.020  50.576  1.00  0.00    -0.367 N 
ATOM     24  H   UNL     1       5.296  41.515  51.392  1.00  0.00     0.162 HD
BRANCH  23  25
ATOM     25  C   UNL     1       5.935  41.910  49.493  1.00  0.00     0.146 C 
BRANCH  25  26
ATOM     26  C   UNL     1       5.400  40.947  48.425  1.00  0.00     0.137 C 
ATOM     27  C   UNL     1       3.926  40.623  48.596  1.00  0.00     0.036 C 
ATOM     28  O   UNL     1       5.528  41.535  47.108  1.00  0.00    -0.376 OA
ATOM     29  C   UNL     1       3.531  40.260  47.187  1.00  0.00     0.031 C 
ATOM     30  C   UNL     1       4.330  41.252  46.370  1.00  0.00     0.160 C 
ENDBRANCH  25  26
ENDBRANCH  23  25
ENDBRANCH   3  23
TORSDOF 7
ENDMDL
MODEL 17
REMARK VINA RESULT:    -7.962      2.392      7.115
REMARK INTER + INTRA:         -12.158
REMARK INTER:                 -11.411
REMARK INTRA:                  -0.747
REMARK UNBOUND:                -0.938
REMARK SMILES COc1ccc(Nc2nc(NC[C@H]3CCCO3)c3ccccc3n2)c(OC)c1
REMARK SMILES IDX 8 1 9 2 10 3 18 4 19 5 20 6 21 7 22 8 23 9 24 10 7 11 6 13
REMARK SMILES IDX 3 14 4 15 28 16 5 17 25 18 2 19 1 20 26 21 27 22 11 23 12 25
REMARK SMILES IDX 13 26 14 27 17 28 15 29 16 30
REMARK H PARENT 7 12 11 24
ROOT
ATOM      1  C   UNL     1       3.320  45.307  54.424  1.00  0.00     0.229 A 
ATOM      2  N   UNL     1       3.412  44.233  53.633  1.00  0.00    -0.195 NA
ATOM      3  C   UNL     1       2.325  43.460  53.471  1.00  0.00     0.139 A 
ATOM      4  C   UNL     1       1.097  43.771  54.075  1.00  0.00     0.043 A 
ATOM      5  C   UNL     1      -0.106  43.035  53.916  1.00  0.00     0.014 A 
ATOM      6  C   UNL     1      -1.274  43.424  54.569  1.00  0.00     0.001 A 
ATOM      7  C   UNL     1      -1.254  44.549  55.382  1.00  0.00     0.002 A 
ATOM      8  C   UNL     1      -0.069  45.276  55.528  1.00  0.00     0.029 A 
ATOM      9  C   UNL     1       1.108  44.908  54.885  1.00  0.00     0.078 A 
ATOM     10  N   UNL     1       2.197  45.658  55.063  1.00  0.00    -0.213 NA
ENDROOT
BRANCH   1  11
ATOM     11  N   UNL     1       4.406  46.143  54.651  1.00  0.00    -0.321 N 
ATOM     12  H   UNL     1       4.278  46.669  55.507  1.00  0.00     0.170 HD
BRANCH  11  13
ATOM     13  C   UNL     1       5.607  46.418  53.981  1.00  0.00     0.084 A 
ATOM     14  C   UNL     1       7.958  47.014  52.530  1.00  0.00     0.122 A 
ATOM     15  C   UNL     1       8.029  46.567  53.848  1.00  0.00     0.049 A 
ATOM     16  C   UNL     1       6.710  47.168  51.926  1.00  0.00     0.095 A 
ATOM     17  C   UNL     1       6.866  46.273  54.566  1.00  0.00     0.034 A 
ATOM     18  C   UNL     1       5.540  46.873  52.642  1.00  0.00     0.146 A 
BRANCH  14  19
ATOM     19  O   UNL     1       9.172  47.264  51.949  1.00  0.00    -0.497 OA
ATOM     20  C   UNL     1      10.252  46.416  52.314  1.00  0.00     0.278 C 
ENDBRANCH  14  19
BRANCH  18  21
ATOM     21  O   UNL     1       4.262  46.992  52.137  1.00  0.00    -0.494 OA
ATOM     22  C   UNL     1       3.977  46.330  50.913  1.00  0.00     0.278 C 
ENDBRANCH  18  21
ENDBRANCH  11  13
ENDBRANCH   1  11
BRANCH   3  23
ATOM     23  N   UNL     1       2.415  42.324  52.635  1.00  0.00    -0.367 N 
ATOM     24  H   UNL     1       3.049  41.647  53.057  1.00  0.00     0.162 HD
BRANCH  23  25
ATOM     25  C   UNL     1       2.849  42.600  51.262  1.00  0.00     0.146 C 
BRANCH  25  26
ATOM     26  C   UNL     1       4.275  42.065  51.069  1.00  0.00     0.137 C 
ATOM     27  C   UNL     1       4.433  41.220  49.818  1.00  0.00     0.036 C 
ATOM     28  O   UNL     1       5.208  43.163  50.929  1.00  0.00    -0.376 OA
ATOM     29  C   UNL     1       5.903  41.381  49.527  1.00  0.00     0.031 C 
ATOM     30  C   UNL     1       6.138  42.833  49.886  1.00  0.00     0.160 C 
ENDBRANCH  25  26
ENDBRANCH  23  25
ENDBRANCH   3  23
TORSDOF 7
ENDMDL
MODEL 18
REMARK VINA RESULT:    -7.927      1.784      2.293
REMARK INTER + INTRA:         -12.110
REMARK INTER:                 -11.053
REMARK INTRA:                  -1.057
REMARK UNBOUND:                -0.938
REMARK SMILES COc1ccc(Nc2nc(NC[C@H]3CCCO3)c3ccccc3n2)c(OC)c1
REMARK SMILES IDX 8 1 9 2 10 3 18 4 19 5 20 6 21 7 22 8 23 9 24 10 7 11 6 13
REMARK SMILES IDX 3 14 4 15 28 16 5 17 25 18 2 19 1 20 26 21 27 22 11 23 12 25
REMARK SMILES IDX 13 26 14 27 17 28 15 29 16 30
REMARK H PARENT 7 12 11 24
ROOT
ATOM      1  C   UNL     1       2.500  43.189  52.365  1.00  0.00     0.229 A 
ATOM      2  N   UNL     1       3.574  43.949  52.602  1.00  0.00    -0.195 NA
ATOM      3  C   UNL     1       4.687  43.730  51.882  1.00  0.00     0.139 A 
ATOM      4  C   UNL     1       4.737  42.757  50.871  1.00  0.00     0.043 A 
ATOM      5  C   UNL     1       5.855  42.497  50.037  1.00  0.00     0.014 A 
ATOM      6  C   UNL     1       5.805  41.500  49.065  1.00  0.00     0.001 A 
ATOM      7  C   UNL     1       4.643  40.757  48.914  1.00  0.00     0.002 A 
ATOM      8  C   UNL     1       3.541  41.023  49.731  1.00  0.00     0.029 A 
ATOM      9  C   UNL     1       3.566  42.015  50.707  1.00  0.00     0.078 A 
ATOM     10  N   UNL     1       2.472  42.219  51.442  1.00  0.00    -0.213 NA
ENDROOT
BRANCH   1  11
ATOM     11  N   UNL     1       1.320  43.348  53.080  1.00  0.00    -0.321 N 
ATOM     12  H   UNL     1       0.561  42.850  52.631  1.00  0.00     0.170 HD
BRANCH  11  13
ATOM     13  C   UNL     1       0.949  44.025  54.251  1.00  0.00     0.084 A 
ATOM     14  C   UNL     1       0.084  45.341  56.599  1.00  0.00     0.122 A 
ATOM     15  C   UNL     1       1.414  45.417  56.188  1.00  0.00     0.049 A 
ATOM     16  C   UNL     1      -0.825  44.605  55.838  1.00  0.00     0.095 A 
ATOM     17  C   UNL     1       1.842  44.766  55.028  1.00  0.00     0.034 A 
ATOM     18  C   UNL     1      -0.401  43.950  54.673  1.00  0.00     0.146 A 
BRANCH  14  19
ATOM     19  O   UNL     1      -0.194  46.025  57.751  1.00  0.00    -0.497 OA
ATOM     20  C   UNL     1       0.853  46.805  58.311  1.00  0.00     0.278 C 
ENDBRANCH  14  19
BRANCH  18  21
ATOM     21  O   UNL     1      -1.218  43.199  53.854  1.00  0.00    -0.494 OA
ATOM     22  C   UNL     1      -2.312  43.861  53.235  1.00  0.00     0.278 C 
ENDBRANCH  18  21
ENDBRANCH  11  13
ENDBRANCH   1  11
BRANCH   3  23
ATOM     23  N   UNL     1       5.826  44.531  52.126  1.00  0.00    -0.367 N 
ATOM     24  H   UNL     1       5.989  44.584  53.131  1.00  0.00     0.162 HD
BRANCH  23  25
ATOM     25  C   UNL     1       5.756  45.888  51.576  1.00  0.00     0.146 C 
BRANCH  25  26
ATOM     26  C   UNL     1       5.644  46.892  52.731  1.00  0.00     0.137 C 
ATOM     27  C   UNL     1       4.226  47.385  52.962  1.00  0.00     0.036 C 
ATOM     28  O   UNL     1       6.059  46.277  53.974  1.00  0.00    -0.376 OA
ATOM     29  C   UNL     1       4.274  47.773  54.417  1.00  0.00     0.031 C 
ATOM     30  C   UNL     1       5.149  46.686  55.005  1.00  0.00     0.160 C 
ENDBRANCH  25  26
ENDBRANCH  23  25
ENDBRANCH   3  23
TORSDOF 7
ENDMDL
MODEL 19
REMARK VINA RESULT:    -7.911      2.941      5.884
REMARK INTER + INTRA:         -12.087
REMARK INTER:                 -10.960
REMARK INTRA:                  -1.127
REMARK UNBOUND:                -0.938
REMARK SMILES COc1ccc(Nc2nc(NC[C@H]3CCCO3)c3ccccc3n2)c(OC)c1
REMARK SMILES IDX 8 1 9 2 10 3 18 4 19 5 20 6 21 7 22 8 23 9 24 10 7 11 6 13
REMARK SMILES IDX 3 14 4 15 28 16 5 17 25 18 2 19 1 20 26 21 27 22 11 23 12 25
REMARK SMILES IDX 13 26 14 27 17 28 15 29 16 30
REMARK H PARENT 7 12 11 24
ROOT
ATOM      1  C   UNL     1       3.663  42.545  51.806  1.00  0.00     0.229 A 
ATOM      2  N   UNL     1       3.915  41.639  50.856  1.00  0.00    -0.195 NA
ATOM      3  C   UNL     1       4.948  41.852  50.024  1.00  0.00     0.139 A 
ATOM      4  C   UNL     1       5.785  42.972  50.151  1.00  0.00     0.043 A 
ATOM      5  C   UNL     1       6.920  43.245  49.345  1.00  0.00     0.014 A 
ATOM      6  C   UNL     1       7.682  44.393  49.548  1.00  0.00     0.001 A 
ATOM      7  C   UNL     1       7.320  45.278  50.555  1.00  0.00     0.002 A 
ATOM      8  C   UNL     1       6.207  45.001  51.352  1.00  0.00     0.029 A 
ATOM      9  C   UNL     1       5.433  43.859  51.170  1.00  0.00     0.078 A 
ATOM     10  N   UNL     1       4.390  43.657  51.978  1.00  0.00    -0.213 NA
ENDROOT
BRANCH   1  11
ATOM     11  N   UNL     1       2.604  42.400  52.692  1.00  0.00    -0.321 N 
ATOM     12  H   UNL     1       2.817  41.700  53.392  1.00  0.00     0.170 HD
BRANCH  11  13
ATOM     13  C   UNL     1       1.336  42.985  52.833  1.00  0.00     0.084 A 
ATOM     14  C   UNL     1      -1.169  44.239  53.209  1.00  0.00     0.122 A 
ATOM     15  C   UNL     1      -0.992  43.289  52.206  1.00  0.00     0.049 A 
ATOM     16  C   UNL     1      -0.094  44.572  54.033  1.00  0.00     0.095 A 
ATOM     17  C   UNL     1       0.247  42.669  52.019  1.00  0.00     0.034 A 
ATOM     18  C   UNL     1       1.151  43.952  53.851  1.00  0.00     0.146 A 
BRANCH  14  19
ATOM     19  O   UNL     1      -2.431  44.765  53.277  1.00  0.00    -0.497 OA
ATOM     20  C   UNL     1      -2.938  45.389  52.106  1.00  0.00     0.278 C 
ENDBRANCH  14  19
BRANCH  18  21
ATOM     21  O   UNL     1       2.274  44.210  54.610  1.00  0.00    -0.494 OA
ATOM     22  C   UNL     1       2.778  45.539  54.604  1.00  0.00     0.278 C 
ENDBRANCH  18  21
ENDBRANCH  11  13
ENDBRANCH   1  11
BRANCH   3  23
ATOM     23  N   UNL     1       5.222  40.897  49.018  1.00  0.00    -0.367 N 
ATOM     24  H   UNL     1       5.886  41.293  48.354  1.00  0.00     0.162 HD
BRANCH  23  25
ATOM     25  C   UNL     1       4.045  40.411  48.292  1.00  0.00     0.146 C 
BRANCH  25  26
ATOM     26  C   UNL     1       3.994  41.081  46.912  1.00  0.00     0.137 C 
ATOM     27  C   UNL     1       5.354  41.539  46.418  1.00  0.00     0.036 C 
ATOM     28  O   UNL     1       3.502  40.149  45.919  1.00  0.00    -0.376 OA
ATOM     29  C   UNL     1       5.152  41.530  44.924  1.00  0.00     0.031 C 
ATOM     30  C   UNL     1       4.291  40.301  44.729  1.00  0.00     0.160 C 
ENDBRANCH  25  26
ENDBRANCH  23  25
ENDBRANCH   3  23
TORSDOF 7
ENDMDL
