MODEL 1
REMARK VINA RESULT:    -9.058      0.000      0.000
REMARK INTER + INTRA:         -13.021
REMARK INTER:                 -12.235
REMARK INTRA:                  -0.787
REMARK UNBOUND:                -0.787
REMARK SMILES COc1ccc(Oc2nc(SCc3ccccc3)nc3ccsc23)cc1
REMARK SMILES IDX 8 1 9 2 10 3 19 4 20 5 21 6 22 7 23 8 24 9 7 10 6 11 3 12
REMARK SMILES IDX 4 13 26 14 5 15 25 16 2 17 1 18 11 19 12 20 13 21 14 22
REMARK SMILES IDX 18 23 15 24 17 25 16 26
REMARK H PARENT
ROOT
ATOM      1  C   UNL     1       7.094  46.369  51.794  1.00  0.00     0.241 A 
ATOM      2  N   UNL     1       5.863  46.695  52.231  1.00  0.00    -0.186 NA
ATOM      3  C   UNL     1       5.747  47.193  53.468  1.00  0.00     0.192 A 
ATOM      4  N   UNL     1       6.749  47.457  54.319  1.00  0.00    -0.221 NA
ATOM      5  C   UNL     1       7.984  47.169  53.848  1.00  0.00     0.090 A 
ATOM      6  C   UNL     1       9.203  47.374  54.562  1.00  0.00     0.041 A 
ATOM      7  C   UNL     1      10.306  46.984  53.838  1.00  0.00     0.068 A 
ATOM      8  S   UNL     1       9.878  46.372  52.301  1.00  0.00    -0.136 S 
ATOM      9  C   UNL     1       8.203  46.621  52.590  1.00  0.00     0.116 A 
ENDROOT
BRANCH   1  10
ATOM     10  O   UNL     1       7.191  45.841  50.518  1.00  0.00    -0.437 OA
BRANCH  10  11
ATOM     11  C   UNL     1       6.665  44.577  50.371  1.00  0.00     0.129 A 
ATOM     12  C   UNL     1       5.505  42.031  50.211  1.00  0.00     0.119 A 
ATOM     13  C   UNL     1       6.681  42.311  49.513  1.00  0.00     0.050 A 
ATOM     14  C   UNL     1       4.924  43.027  51.001  1.00  0.00     0.050 A 
ATOM     15  C   UNL     1       7.263  43.581  49.597  1.00  0.00     0.051 A 
ATOM     16  C   UNL     1       5.505  44.294  51.089  1.00  0.00     0.051 A 
BRANCH  12  17
ATOM     17  O   UNL     1       4.836  40.838  50.212  1.00  0.00    -0.497 OA
ATOM     18  C   UNL     1       3.527  40.836  49.655  1.00  0.00     0.278 C 
ENDBRANCH  12  17
ENDBRANCH  10  11
ENDBRANCH   1  10
BRANCH   3  19
ATOM     19  S   UNL     1       4.095  47.501  54.035  1.00  0.00    -0.081 SA
BRANCH  19  20
ATOM     20  C   UNL     1       3.212  47.186  52.480  1.00  0.00     0.113 C 
BRANCH  20  21
ATOM     21  C   UNL     1       2.521  45.844  52.435  1.00  0.00    -0.038 A 
ATOM     22  C   UNL     1       1.985  45.355  51.234  1.00  0.00     0.004 A 
ATOM     23  C   UNL     1       2.411  45.060  53.593  1.00  0.00     0.004 A 
ATOM     24  C   UNL     1       1.349  44.113  51.196  1.00  0.00     0.000 A 
ATOM     25  C   UNL     1       1.776  43.818  53.552  1.00  0.00     0.000 A 
ATOM     26  C   UNL     1       1.242  43.346  52.355  1.00  0.00     0.000 A 
ENDBRANCH  20  21
ENDBRANCH  19  20
ENDBRANCH   3  19
TORSDOF 6
ENDMDL
MODEL 2
REMARK VINA RESULT:    -9.009      2.241      5.954
REMARK INTER + INTRA:         -12.956
REMARK INTER:                 -12.611
REMARK INTRA:                  -0.345
REMARK UNBOUND:                -0.787
REMARK SMILES COc1ccc(Oc2nc(SCc3ccccc3)nc3ccsc23)cc1
REMARK SMILES IDX 8 1 9 2 10 3 19 4 20 5 21 6 22 7 23 8 24 9 7 10 6 11 3 12
REMARK SMILES IDX 4 13 26 14 5 15 25 16 2 17 1 18 11 19 12 20 13 21 14 22
REMARK SMILES IDX 18 23 15 24 17 25 16 26
REMARK H PARENT
ROOT
ATOM      1  C   UNL     1       2.700  44.350  53.215  1.00  0.00     0.241 A 
ATOM      2  N   UNL     1       3.948  44.682  53.596  1.00  0.00    -0.186 NA
ATOM      3  C   UNL     1       4.106  45.271  54.787  1.00  0.00     0.192 A 
ATOM      4  N   UNL     1       3.143  45.527  55.684  1.00  0.00    -0.221 NA
ATOM      5  C   UNL     1       1.901  45.146  55.307  1.00  0.00     0.090 A 
ATOM      6  C   UNL     1       0.721  45.302  56.095  1.00  0.00     0.041 A 
ATOM      7  C   UNL     1      -0.401  44.829  55.456  1.00  0.00     0.068 A 
ATOM      8  S   UNL     1      -0.039  44.199  53.909  1.00  0.00    -0.136 S 
ATOM      9  C   UNL     1       1.633  44.556  54.079  1.00  0.00     0.116 A 
ENDROOT
BRANCH   1  10
ATOM     10  O   UNL     1       2.557  43.756  51.973  1.00  0.00    -0.437 OA
BRANCH  10  11
ATOM     11  C   UNL     1       3.736  43.377  51.371  1.00  0.00     0.129 A 
ATOM     12  C   UNL     1       6.152  42.762  50.090  1.00  0.00     0.119 A 
ATOM     13  C   UNL     1       5.281  41.741  50.473  1.00  0.00     0.050 A 
ATOM     14  C   UNL     1       5.799  44.092  50.339  1.00  0.00     0.050 A 
ATOM     15  C   UNL     1       4.072  42.048  51.108  1.00  0.00     0.051 A 
ATOM     16  C   UNL     1       4.592  44.401  50.970  1.00  0.00     0.051 A 
BRANCH  12  17
ATOM     17  O   UNL     1       7.359  42.599  49.468  1.00  0.00    -0.497 OA
ATOM     18  C   UNL     1       8.041  43.782  49.071  1.00  0.00     0.278 C 
ENDBRANCH  12  17
ENDBRANCH  10  11
ENDBRANCH   1  10
BRANCH   3  19
ATOM     19  S   UNL     1       5.754  45.786  55.192  1.00  0.00    -0.081 SA
BRANCH  19  20
ATOM     20  C   UNL     1       6.089  46.800  53.724  1.00  0.00     0.113 C 
BRANCH  20  21
ATOM     21  C   UNL     1       7.537  46.791  53.297  1.00  0.00    -0.038 A 
ATOM     22  C   UNL     1       7.898  46.406  51.997  1.00  0.00     0.004 A 
ATOM     23  C   UNL     1       8.546  47.177  54.192  1.00  0.00     0.004 A 
ATOM     24  C   UNL     1       9.239  46.402  51.606  1.00  0.00     0.000 A 
ATOM     25  C   UNL     1       9.885  47.174  53.798  1.00  0.00     0.000 A 
ATOM     26  C   UNL     1      10.231  46.782  52.507  1.00  0.00     0.000 A 
ENDBRANCH  20  21
ENDBRANCH  19  20
ENDBRANCH   3  19
TORSDOF 6
ENDMDL
MODEL 3
REMARK VINA RESULT:    -8.788      2.995      6.745
REMARK INTER + INTRA:         -12.657
REMARK INTER:                 -11.526
REMARK INTRA:                  -1.131
REMARK UNBOUND:                -0.787
REMARK SMILES COc1ccc(Oc2nc(SCc3ccccc3)nc3ccsc23)cc1
REMARK SMILES IDX 8 1 9 2 10 3 19 4 20 5 21 6 22 7 23 8 24 9 7 10 6 11 3 12
REMARK SMILES IDX 4 13 26 14 5 15 25 16 2 17 1 18 11 19 12 20 13 21 14 22
REMARK SMILES IDX 18 23 15 24 17 25 16 26
REMARK H PARENT
ROOT
ATOM      1  C   UNL     1       2.457  45.036  54.957  1.00  0.00     0.241 A 
ATOM      2  N   UNL     1       2.645  44.542  53.718  1.00  0.00    -0.186 NA
ATOM      3  C   UNL     1       1.589  44.022  53.083  1.00  0.00     0.192 A 
ATOM      4  N   UNL     1       0.327  43.983  53.532  1.00  0.00    -0.221 NA
ATOM      5  C   UNL     1       0.144  44.524  54.759  1.00  0.00     0.090 A 
ATOM      6  C   UNL     1      -1.107  44.611  55.440  1.00  0.00     0.041 A 
ATOM      7  C   UNL     1      -0.991  45.206  56.674  1.00  0.00     0.068 A 
ATOM      8  S   UNL     1       0.620  45.660  57.016  1.00  0.00    -0.136 S 
ATOM      9  C   UNL     1       1.184  45.061  55.508  1.00  0.00     0.116 A 
ENDROOT
BRANCH   1  10
ATOM     10  O   UNL     1       3.566  45.556  55.603  1.00  0.00    -0.437 OA
BRANCH  10  11
ATOM     11  C   UNL     1       4.590  45.950  54.772  1.00  0.00     0.129 A 
ATOM     12  C   UNL     1       6.780  46.664  53.175  1.00  0.00     0.119 A 
ATOM     13  C   UNL     1       5.602  47.410  53.124  1.00  0.00     0.050 A 
ATOM     14  C   UNL     1       6.860  45.569  54.041  1.00  0.00     0.050 A 
ATOM     15  C   UNL     1       4.510  47.058  53.925  1.00  0.00     0.051 A 
ATOM     16  C   UNL     1       5.773  45.217  54.844  1.00  0.00     0.051 A 
BRANCH  12  17
ATOM     17  O   UNL     1       7.913  46.899  52.446  1.00  0.00    -0.497 OA
ATOM     18  C   UNL     1       9.054  47.356  53.163  1.00  0.00     0.278 C 
ENDBRANCH  12  17
ENDBRANCH  10  11
ENDBRANCH   1  10
BRANCH   3  19
ATOM     19  S   UNL     1       1.912  43.286  51.502  1.00  0.00    -0.081 SA
BRANCH  19  20
ATOM     20  C   UNL     1       3.414  42.362  51.936  1.00  0.00     0.113 C 
BRANCH  20  21
ATOM     21  C   UNL     1       4.620  42.740  51.110  1.00  0.00    -0.038 A 
ATOM     22  C   UNL     1       5.093  44.060  51.097  1.00  0.00     0.004 A 
ATOM     23  C   UNL     1       5.294  41.773  50.348  1.00  0.00     0.004 A 
ATOM     24  C   UNL     1       6.211  44.406  50.334  1.00  0.00     0.000 A 
ATOM     25  C   UNL     1       6.411  42.120  49.587  1.00  0.00     0.000 A 
ATOM     26  C   UNL     1       6.867  43.436  49.578  1.00  0.00     0.000 A 
ENDBRANCH  20  21
ENDBRANCH  19  20
ENDBRANCH   3  19
TORSDOF 6
ENDMDL
MODEL 4
REMARK VINA RESULT:    -8.714      2.105      5.717
REMARK INTER + INTRA:         -12.557
REMARK INTER:                 -11.623
REMARK INTRA:                  -0.934
REMARK UNBOUND:                -0.787
REMARK SMILES COc1ccc(Oc2nc(SCc3ccccc3)nc3ccsc23)cc1
REMARK SMILES IDX 8 1 9 2 10 3 19 4 20 5 21 6 22 7 23 8 24 9 7 10 6 11 3 12
REMARK SMILES IDX 4 13 26 14 5 15 25 16 2 17 1 18 11 19 12 20 13 21 14 22
REMARK SMILES IDX 18 23 15 24 17 25 16 26
REMARK H PARENT
ROOT
ATOM      1  C   UNL     1       3.555  43.951  52.583  1.00  0.00     0.241 A 
ATOM      2  N   UNL     1       4.275  44.992  53.042  1.00  0.00    -0.186 NA
ATOM      3  C   UNL     1       3.654  46.168  53.190  1.00  0.00     0.192 A 
ATOM      4  N   UNL     1       2.354  46.417  52.976  1.00  0.00    -0.221 NA
ATOM      5  C   UNL     1       1.633  45.350  52.560  1.00  0.00     0.090 A 
ATOM      6  C   UNL     1       0.234  45.364  52.281  1.00  0.00     0.041 A 
ATOM      7  C   UNL     1      -0.230  44.136  51.870  1.00  0.00     0.068 A 
ATOM      8  S   UNL     1       1.014  42.966  51.820  1.00  0.00    -0.136 S 
ATOM      9  C   UNL     1       2.195  44.097  52.348  1.00  0.00     0.116 A 
ENDROOT
BRANCH   1  10
ATOM     10  O   UNL     1       4.220  42.747  52.423  1.00  0.00    -0.437 OA
BRANCH  10  11
ATOM     11  C   UNL     1       4.771  42.550  51.176  1.00  0.00     0.129 A 
ATOM     12  C   UNL     1       5.829  41.995  48.641  1.00  0.00     0.119 A 
ATOM     13  C   UNL     1       6.331  43.058  49.393  1.00  0.00     0.050 A 
ATOM     14  C   UNL     1       4.806  41.204  49.172  1.00  0.00     0.050 A 
ATOM     15  C   UNL     1       5.807  43.332  50.662  1.00  0.00     0.051 A 
ATOM     16  C   UNL     1       4.283  41.473  50.439  1.00  0.00     0.051 A 
BRANCH  12  17
ATOM     17  O   UNL     1       6.248  41.624  47.393  1.00  0.00    -0.497 OA
ATOM     18  C   UNL     1       5.269  41.622  46.361  1.00  0.00     0.278 C 
ENDBRANCH  12  17
ENDBRANCH  10  11
ENDBRANCH   1  10
BRANCH   3  19
ATOM     19  S   UNL     1       4.672  47.531  53.691  1.00  0.00    -0.081 SA
BRANCH  19  20
ATOM     20  C   UNL     1       6.040  46.592  54.426  1.00  0.00     0.113 C 
BRANCH  20  21
ATOM     21  C   UNL     1       7.332  46.692  53.650  1.00  0.00    -0.038 A 
ATOM     22  C   UNL     1       7.358  46.445  52.269  1.00  0.00     0.004 A 
ATOM     23  C   UNL     1       8.527  47.042  54.296  1.00  0.00     0.004 A 
ATOM     24  C   UNL     1       8.553  46.540  51.554  1.00  0.00     0.000 A 
ATOM     25  C   UNL     1       9.720  47.139  53.579  1.00  0.00     0.000 A 
ATOM     26  C   UNL     1       9.734  46.884  52.210  1.00  0.00     0.000 A 
ENDBRANCH  20  21
ENDBRANCH  19  20
ENDBRANCH   3  19
TORSDOF 6
ENDMDL
MODEL 5
REMARK VINA RESULT:    -8.507      2.909      7.107
REMARK INTER + INTRA:         -12.277
REMARK INTER:                 -11.063
REMARK INTRA:                  -1.214
REMARK UNBOUND:                -0.787
REMARK SMILES COc1ccc(Oc2nc(SCc3ccccc3)nc3ccsc23)cc1
REMARK SMILES IDX 8 1 9 2 10 3 19 4 20 5 21 6 22 7 23 8 24 9 7 10 6 11 3 12
REMARK SMILES IDX 4 13 26 14 5 15 25 16 2 17 1 18 11 19 12 20 13 21 14 22
REMARK SMILES IDX 18 23 15 24 17 25 16 26
REMARK H PARENT
ROOT
ATOM      1  C   UNL     1       2.477  43.875  53.072  1.00  0.00     0.241 A 
ATOM      2  N   UNL     1       3.475  43.133  52.557  1.00  0.00    -0.186 NA
ATOM      3  C   UNL     1       3.227  42.432  51.444  1.00  0.00     0.192 A 
ATOM      4  N   UNL     1       2.085  42.427  50.743  1.00  0.00    -0.221 NA
ATOM      5  C   UNL     1       1.106  43.213  51.246  1.00  0.00     0.090 A 
ATOM      6  C   UNL     1      -0.189  43.382  50.671  1.00  0.00     0.041 A 
ATOM      7  C   UNL     1      -0.980  44.238  51.402  1.00  0.00     0.068 A 
ATOM      8  S   UNL     1      -0.167  44.839  52.780  1.00  0.00    -0.136 S 
ATOM      9  C   UNL     1       1.259  43.954  52.412  1.00  0.00     0.116 A 
ENDROOT
BRANCH   1  10
ATOM     10  O   UNL     1       2.750  44.580  54.232  1.00  0.00    -0.437 OA
BRANCH  10  11
ATOM     11  C   UNL     1       3.872  45.376  54.177  1.00  0.00     0.129 A 
ATOM     12  C   UNL     1       6.214  46.915  54.200  1.00  0.00     0.119 A 
ATOM     13  C   UNL     1       5.094  47.352  53.490  1.00  0.00     0.050 A 
ATOM     14  C   UNL     1       6.148  45.712  54.910  1.00  0.00     0.050 A 
ATOM     15  C   UNL     1       3.923  46.587  53.483  1.00  0.00     0.051 A 
ATOM     16  C   UNL     1       4.980  44.948  54.906  1.00  0.00     0.051 A 
BRANCH  12  17
ATOM     17  O   UNL     1       7.415  47.564  54.286  1.00  0.00    -0.497 OA
ATOM     18  C   UNL     1       8.559  46.861  53.818  1.00  0.00     0.278 C 
ENDBRANCH  12  17
ENDBRANCH  10  11
ENDBRANCH   1  10
BRANCH   3  19
ATOM     19  S   UNL     1       4.539  41.386  50.870  1.00  0.00    -0.081 SA
BRANCH  19  20
ATOM     20  C   UNL     1       5.051  42.361  49.427  1.00  0.00     0.113 C 
BRANCH  20  21
ATOM     21  C   UNL     1       6.114  43.389  49.734  1.00  0.00    -0.038 A 
ATOM     22  C   UNL     1       5.816  44.515  50.514  1.00  0.00     0.004 A 
ATOM     23  C   UNL     1       7.421  43.228  49.250  1.00  0.00     0.004 A 
ATOM     24  C   UNL     1       6.802  45.462  50.798  1.00  0.00     0.000 A 
ATOM     25  C   UNL     1       8.406  44.174  49.537  1.00  0.00     0.000 A 
ATOM     26  C   UNL     1       8.095  45.293  50.307  1.00  0.00     0.000 A 
ENDBRANCH  20  21
ENDBRANCH  19  20
ENDBRANCH   3  19
TORSDOF 6
ENDMDL
MODEL 6
REMARK VINA RESULT:    -8.432      2.738      6.711
REMARK INTER + INTRA:         -12.176
REMARK INTER:                 -11.453
REMARK INTRA:                  -0.723
REMARK UNBOUND:                -0.787
REMARK SMILES COc1ccc(Oc2nc(SCc3ccccc3)nc3ccsc23)cc1
REMARK SMILES IDX 8 1 9 2 10 3 19 4 20 5 21 6 22 7 23 8 24 9 7 10 6 11 3 12
REMARK SMILES IDX 4 13 26 14 5 15 25 16 2 17 1 18 11 19 12 20 13 21 14 22
REMARK SMILES IDX 18 23 15 24 17 25 16 26
REMARK H PARENT
ROOT
ATOM      1  C   UNL     1       5.510  45.524  51.569  1.00  0.00     0.241 A 
ATOM      2  N   UNL     1       6.181  44.785  50.667  1.00  0.00    -0.186 NA
ATOM      3  C   UNL     1       5.767  43.531  50.449  1.00  0.00     0.192 A 
ATOM      4  N   UNL     1       4.704  42.933  51.006  1.00  0.00    -0.221 NA
ATOM      5  C   UNL     1       4.012  43.704  51.877  1.00  0.00     0.090 A 
ATOM      6  C   UNL     1       2.841  43.296  52.582  1.00  0.00     0.041 A 
ATOM      7  C   UNL     1       2.352  44.285  53.403  1.00  0.00     0.068 A 
ATOM      8  S   UNL     1       3.300  45.705  53.327  1.00  0.00    -0.136 S 
ATOM      9  C   UNL     1       4.381  45.006  52.190  1.00  0.00     0.116 A 
ENDROOT
BRANCH   1  10
ATOM     10  O   UNL     1       5.964  46.813  51.791  1.00  0.00    -0.437 OA
BRANCH  10  11
ATOM     11  C   UNL     1       7.166  46.899  52.455  1.00  0.00     0.129 A 
ATOM     12  C   UNL     1       9.529  47.107  53.949  1.00  0.00     0.119 A 
ATOM     13  C   UNL     1       9.568  47.203  52.557  1.00  0.00     0.050 A 
ATOM     14  C   UNL     1       8.299  46.922  54.588  1.00  0.00     0.050 A 
ATOM     15  C   UNL     1       8.388  47.105  51.811  1.00  0.00     0.051 A 
ATOM     16  C   UNL     1       7.120  46.827  53.846  1.00  0.00     0.051 A 
BRANCH  12  17
ATOM     17  O   UNL     1      10.604  47.183  54.791  1.00  0.00    -0.497 OA
ATOM     18  C   UNL     1      10.432  47.938  55.984  1.00  0.00     0.278 C 
ENDBRANCH  12  17
ENDBRANCH  10  11
ENDBRANCH   1  10
BRANCH   3  19
ATOM     19  S   UNL     1       6.752  42.565  49.334  1.00  0.00    -0.081 SA
BRANCH  19  20
ATOM     20  C   UNL     1       5.581  41.207  49.047  1.00  0.00     0.113 C 
BRANCH  20  21
ATOM     21  C   UNL     1       5.000  41.190  47.653  1.00  0.00    -0.038 A 
ATOM     22  C   UNL     1       3.828  40.471  47.375  1.00  0.00     0.004 A 
ATOM     23  C   UNL     1       5.618  41.903  46.615  1.00  0.00     0.004 A 
ATOM     24  C   UNL     1       3.293  40.460  46.085  1.00  0.00     0.000 A 
ATOM     25  C   UNL     1       5.080  41.893  45.327  1.00  0.00     0.000 A 
ATOM     26  C   UNL     1       3.920  41.169  45.062  1.00  0.00     0.000 A 
ENDBRANCH  20  21
ENDBRANCH  19  20
ENDBRANCH   3  19
TORSDOF 6
ENDMDL
MODEL 7
REMARK VINA RESULT:    -8.410      2.997      6.737
REMARK INTER + INTRA:         -12.146
REMARK INTER:                 -11.475
REMARK INTRA:                  -0.671
REMARK UNBOUND:                -0.787
REMARK SMILES COc1ccc(Oc2nc(SCc3ccccc3)nc3ccsc23)cc1
REMARK SMILES IDX 8 1 9 2 10 3 19 4 20 5 21 6 22 7 23 8 24 9 7 10 6 11 3 12
REMARK SMILES IDX 4 13 26 14 5 15 25 16 2 17 1 18 11 19 12 20 13 21 14 22
REMARK SMILES IDX 18 23 15 24 17 25 16 26
REMARK H PARENT
ROOT
ATOM      1  C   UNL     1       3.279  42.979  52.368  1.00  0.00     0.241 A 
ATOM      2  N   UNL     1       3.562  44.088  53.077  1.00  0.00    -0.186 NA
ATOM      3  C   UNL     1       4.708  44.727  52.811  1.00  0.00     0.192 A 
ATOM      4  N   UNL     1       5.600  44.406  51.863  1.00  0.00    -0.221 NA
ATOM      5  C   UNL     1       5.279  43.316  51.129  1.00  0.00     0.090 A 
ATOM      6  C   UNL     1       6.062  42.789  50.058  1.00  0.00     0.041 A 
ATOM      7  C   UNL     1       5.493  41.670  49.495  1.00  0.00     0.068 A 
ATOM      8  S   UNL     1       4.019  41.253  50.252  1.00  0.00    -0.136 S 
ATOM      9  C   UNL     1       4.128  42.570  51.349  1.00  0.00     0.116 A 
ENDROOT
BRANCH   1  10
ATOM     10  O   UNL     1       2.096  42.325  52.669  1.00  0.00    -0.437 OA
BRANCH  10  11
ATOM     11  C   UNL     1       0.962  43.098  52.563  1.00  0.00     0.129 A 
ATOM     12  C   UNL     1      -1.399  44.606  52.492  1.00  0.00     0.119 A 
ATOM     13  C   UNL     1      -0.651  44.419  51.329  1.00  0.00     0.050 A 
ATOM     14  C   UNL     1      -0.966  44.021  53.686  1.00  0.00     0.050 A 
ATOM     15  C   UNL     1       0.525  43.661  51.362  1.00  0.00     0.051 A 
ATOM     16  C   UNL     1       0.206  43.262  53.722  1.00  0.00     0.051 A 
BRANCH  12  17
ATOM     17  O   UNL     1      -2.559  45.323  52.596  1.00  0.00    -0.497 OA
ATOM     18  C   UNL     1      -2.901  46.153  51.492  1.00  0.00     0.278 C 
ENDBRANCH  12  17
ENDBRANCH  10  11
ENDBRANCH   1  10
BRANCH   3  19
ATOM     19  S   UNL     1       5.086  46.117  53.846  1.00  0.00    -0.081 SA
BRANCH  19  20
ATOM     20  C   UNL     1       6.012  47.109  52.640  1.00  0.00     0.113 C 
BRANCH  20  21
ATOM     21  C   UNL     1       7.510  47.036  52.815  1.00  0.00    -0.038 A 
ATOM     22  C   UNL     1       8.090  47.179  54.083  1.00  0.00     0.004 A 
ATOM     23  C   UNL     1       8.346  46.814  51.710  1.00  0.00     0.004 A 
ATOM     24  C   UNL     1       9.476  47.108  54.241  1.00  0.00     0.000 A 
ATOM     25  C   UNL     1       9.731  46.741  51.870  1.00  0.00     0.000 A 
ATOM     26  C   UNL     1      10.295  46.892  53.135  1.00  0.00     0.000 A 
ENDBRANCH  20  21
ENDBRANCH  19  20
ENDBRANCH   3  19
TORSDOF 6
ENDMDL
MODEL 8
REMARK VINA RESULT:    -8.370      1.993      4.349
REMARK INTER + INTRA:         -12.092
REMARK INTER:                 -10.924
REMARK INTRA:                  -1.168
REMARK UNBOUND:                -0.787
REMARK SMILES COc1ccc(Oc2nc(SCc3ccccc3)nc3ccsc23)cc1
REMARK SMILES IDX 8 1 9 2 10 3 19 4 20 5 21 6 22 7 23 8 24 9 7 10 6 11 3 12
REMARK SMILES IDX 4 13 26 14 5 15 25 16 2 17 1 18 11 19 12 20 13 21 14 22
REMARK SMILES IDX 18 23 15 24 17 25 16 26
REMARK H PARENT
ROOT
ATOM      1  C   UNL     1       6.673  46.549  51.917  1.00  0.00     0.241 A 
ATOM      2  N   UNL     1       6.617  45.739  50.843  1.00  0.00    -0.186 NA
ATOM      3  C   UNL     1       7.764  45.226  50.383  1.00  0.00     0.192 A 
ATOM      4  N   UNL     1       8.983  45.393  50.915  1.00  0.00    -0.221 NA
ATOM      5  C   UNL     1       9.018  46.171  52.021  1.00  0.00     0.090 A 
ATOM      6  C   UNL     1      10.192  46.483  52.769  1.00  0.00     0.041 A 
ATOM      7  C   UNL     1       9.928  47.301  53.843  1.00  0.00     0.068 A 
ATOM      8  S   UNL     1       8.269  47.695  53.952  1.00  0.00    -0.136 S 
ATOM      9  C   UNL     1       7.885  46.772  52.555  1.00  0.00     0.116 A 
ENDROOT
BRANCH   1  10
ATOM     10  O   UNL     1       5.477  47.081  52.367  1.00  0.00    -0.437 OA
BRANCH  10  11
ATOM     11  C   UNL     1       4.392  46.240  52.264  1.00  0.00     0.129 A 
ATOM     12  C   UNL     1       2.254  44.430  52.168  1.00  0.00     0.119 A 
ATOM     13  C   UNL     1       2.440  45.352  51.136  1.00  0.00     0.050 A 
ATOM     14  C   UNL     1       3.153  44.411  53.238  1.00  0.00     0.050 A 
ATOM     15  C   UNL     1       3.510  46.252  51.181  1.00  0.00     0.051 A 
ATOM     16  C   UNL     1       4.224  45.306  53.284  1.00  0.00     0.051 A 
BRANCH  12  17
ATOM     17  O   UNL     1       1.252  43.502  52.246  1.00  0.00    -0.497 OA
ATOM     18  C   UNL     1       1.264  42.640  53.378  1.00  0.00     0.278 C 
ENDBRANCH  12  17
ENDBRANCH  10  11
ENDBRANCH   1  10
BRANCH   3  19
ATOM     19  S   UNL     1       7.649  44.256  48.902  1.00  0.00    -0.081 SA
BRANCH  19  20
ATOM     20  C   UNL     1       7.560  42.610  49.663  1.00  0.00     0.113 C 
BRANCH  20  21
ATOM     21  C   UNL     1       6.165  42.032  49.698  1.00  0.00    -0.038 A 
ATOM     22  C   UNL     1       5.342  42.214  50.819  1.00  0.00     0.004 A 
ATOM     23  C   UNL     1       5.665  41.310  48.603  1.00  0.00     0.004 A 
ATOM     24  C   UNL     1       4.052  41.679  50.847  1.00  0.00     0.000 A 
ATOM     25  C   UNL     1       4.375  40.778  48.632  1.00  0.00     0.000 A 
ATOM     26  C   UNL     1       3.571  40.960  49.754  1.00  0.00     0.000 A 
ENDBRANCH  20  21
ENDBRANCH  19  20
ENDBRANCH   3  19
TORSDOF 6
ENDMDL
MODEL 9
REMARK VINA RESULT:    -8.329      2.197      4.405
REMARK INTER + INTRA:         -12.037
REMARK INTER:                 -10.790
REMARK INTRA:                  -1.247
REMARK UNBOUND:                -0.787
REMARK SMILES COc1ccc(Oc2nc(SCc3ccccc3)nc3ccsc23)cc1
REMARK SMILES IDX 8 1 9 2 10 3 19 4 20 5 21 6 22 7 23 8 24 9 7 10 6 11 3 12
REMARK SMILES IDX 4 13 26 14 5 15 25 16 2 17 1 18 11 19 12 20 13 21 14 22
REMARK SMILES IDX 18 23 15 24 17 25 16 26
REMARK H PARENT
ROOT
ATOM      1  C   UNL     1       6.808  47.138  52.583  1.00  0.00     0.241 A 
ATOM      2  N   UNL     1       6.571  46.435  51.460  1.00  0.00    -0.186 NA
ATOM      3  C   UNL     1       7.600  45.793  50.892  1.00  0.00     0.192 A 
ATOM      4  N   UNL     1       8.856  45.731  51.357  1.00  0.00    -0.221 NA
ATOM      5  C   UNL     1       9.068  46.404  52.511  1.00  0.00     0.090 A 
ATOM      6  C   UNL     1      10.314  46.473  53.203  1.00  0.00     0.041 A 
ATOM      7  C   UNL     1      10.236  47.233  54.347  1.00  0.00     0.068 A 
ATOM      8  S   UNL     1       8.666  47.863  54.590  1.00  0.00    -0.136 S 
ATOM      9  C   UNL     1       8.071  47.124  53.158  1.00  0.00     0.116 A 
ENDROOT
BRANCH   1  10
ATOM     10  O   UNL     1       5.734  47.806  53.146  1.00  0.00    -0.437 OA
BRANCH  10  11
ATOM     11  C   UNL     1       4.679  47.003  53.516  1.00  0.00     0.129 A 
ATOM     12  C   UNL     1       2.640  45.273  54.355  1.00  0.00     0.119 A 
ATOM     13  C   UNL     1       2.435  46.126  53.270  1.00  0.00     0.050 A 
ATOM     14  C   UNL     1       3.877  45.282  55.008  1.00  0.00     0.050 A 
ATOM     15  C   UNL     1       3.454  46.985  52.847  1.00  0.00     0.051 A 
ATOM     16  C   UNL     1       4.897  46.137  54.586  1.00  0.00     0.051 A 
BRANCH  12  17
ATOM     17  O   UNL     1       1.730  44.390  54.868  1.00  0.00    -0.497 OA
ATOM     18  C   UNL     1       0.964  43.642  53.932  1.00  0.00     0.278 C 
ENDBRANCH  12  17
ENDBRANCH  10  11
ENDBRANCH   1  10
BRANCH   3  19
ATOM     19  S   UNL     1       7.259  44.974  49.357  1.00  0.00    -0.081 SA
BRANCH  19  20
ATOM     20  C   UNL     1       7.220  43.264  49.964  1.00  0.00     0.113 C 
BRANCH  20  21
ATOM     21  C   UNL     1       5.832  42.767  50.293  1.00  0.00    -0.038 A 
ATOM     22  C   UNL     1       5.009  43.476  51.180  1.00  0.00     0.004 A 
ATOM     23  C   UNL     1       5.339  41.591  49.707  1.00  0.00     0.004 A 
ATOM     24  C   UNL     1       3.725  43.015  51.479  1.00  0.00     0.000 A 
ATOM     25  C   UNL     1       4.055  41.133  50.006  1.00  0.00     0.000 A 
ATOM     26  C   UNL     1       3.250  41.843  50.894  1.00  0.00     0.000 A 
ENDBRANCH  20  21
ENDBRANCH  19  20
ENDBRANCH   3  19
TORSDOF 6
ENDMDL
MODEL 10
REMARK VINA RESULT:    -8.298      2.273      5.461
REMARK INTER + INTRA:         -11.996
REMARK INTER:                 -10.753
REMARK INTRA:                  -1.243
REMARK UNBOUND:                -0.787
REMARK SMILES COc1ccc(Oc2nc(SCc3ccccc3)nc3ccsc23)cc1
REMARK SMILES IDX 8 1 9 2 10 3 19 4 20 5 21 6 22 7 23 8 24 9 7 10 6 11 3 12
REMARK SMILES IDX 4 13 26 14 5 15 25 16 2 17 1 18 11 19 12 20 13 21 14 22
REMARK SMILES IDX 18 23 15 24 17 25 16 26
REMARK H PARENT
ROOT
ATOM      1  C   UNL     1       6.099  45.172  50.330  1.00  0.00     0.241 A 
ATOM      2  N   UNL     1       4.955  45.710  50.792  1.00  0.00    -0.186 NA
ATOM      3  C   UNL     1       3.936  44.885  51.059  1.00  0.00     0.192 A 
ATOM      4  N   UNL     1       3.946  43.547  50.964  1.00  0.00    -0.221 NA
ATOM      5  C   UNL     1       5.117  43.017  50.544  1.00  0.00     0.090 A 
ATOM      6  C   UNL     1       5.374  41.624  50.378  1.00  0.00     0.041 A 
ATOM      7  C   UNL     1       6.652  41.376  49.932  1.00  0.00     0.068 A 
ATOM      8  S   UNL     1       7.543  42.818  49.713  1.00  0.00    -0.136 S 
ATOM      9  C   UNL     1       6.221  43.794  50.213  1.00  0.00     0.116 A 
ENDROOT
BRANCH   1  10
ATOM     10  O   UNL     1       7.136  46.044  50.045  1.00  0.00    -0.437 OA
BRANCH  10  11
ATOM     11  C   UNL     1       7.959  46.335  51.110  1.00  0.00     0.129 A 
ATOM     12  C   UNL     1       9.553  47.073  53.293  1.00  0.00     0.119 A 
ATOM     13  C   UNL     1       9.974  46.062  52.427  1.00  0.00     0.050 A 
ATOM     14  C   UNL     1       8.339  47.722  53.050  1.00  0.00     0.050 A 
ATOM     15  C   UNL     1       9.180  45.697  51.334  1.00  0.00     0.051 A 
ATOM     16  C   UNL     1       7.547  47.361  51.958  1.00  0.00     0.051 A 
BRANCH  12  17
ATOM     17  O   UNL     1      10.230  47.522  54.394  1.00  0.00    -0.497 OA
ATOM     18  C   UNL     1       9.466  48.205  55.381  1.00  0.00     0.278 C 
ENDBRANCH  12  17
ENDBRANCH  10  11
ENDBRANCH   1  10
BRANCH   3  19
ATOM     19  S   UNL     1       2.417  45.653  51.558  1.00  0.00    -0.081 SA
BRANCH  19  20
ATOM     20  C   UNL     1       2.434  45.174  53.309  1.00  0.00     0.113 C 
BRANCH  20  21
ATOM     21  C   UNL     1       3.737  45.478  54.010  1.00  0.00    -0.038 A 
ATOM     22  C   UNL     1       4.557  44.441  54.478  1.00  0.00     0.004 A 
ATOM     23  C   UNL     1       4.153  46.805  54.197  1.00  0.00     0.004 A 
ATOM     24  C   UNL     1       5.762  44.725  55.123  1.00  0.00     0.000 A 
ATOM     25  C   UNL     1       5.359  47.087  54.840  1.00  0.00     0.000 A 
ATOM     26  C   UNL     1       6.161  46.048  55.306  1.00  0.00     0.000 A 
ENDBRANCH  20  21
ENDBRANCH  19  20
ENDBRANCH   3  19
TORSDOF 6
ENDMDL
MODEL 11
REMARK VINA RESULT:    -8.288      3.702      7.473
REMARK INTER + INTRA:         -11.982
REMARK INTER:                 -11.373
REMARK INTRA:                  -0.609
REMARK UNBOUND:                -0.787
REMARK SMILES COc1ccc(Oc2nc(SCc3ccccc3)nc3ccsc23)cc1
REMARK SMILES IDX 8 1 9 2 10 3 19 4 20 5 21 6 22 7 23 8 24 9 7 10 6 11 3 12
REMARK SMILES IDX 4 13 26 14 5 15 25 16 2 17 1 18 11 19 12 20 13 21 14 22
REMARK SMILES IDX 18 23 15 24 17 25 16 26
REMARK H PARENT
ROOT
ATOM      1  C   UNL     1       2.317  44.962  53.345  1.00  0.00     0.241 A 
ATOM      2  N   UNL     1       3.319  45.396  54.132  1.00  0.00    -0.186 NA
ATOM      3  C   UNL     1       4.506  44.786  54.031  1.00  0.00     0.192 A 
ATOM      4  N   UNL     1       4.828  43.803  53.179  1.00  0.00    -0.221 NA
ATOM      5  C   UNL     1       3.824  43.409  52.362  1.00  0.00     0.090 A 
ATOM      6  C   UNL     1       3.928  42.393  51.365  1.00  0.00     0.041 A 
ATOM      7  C   UNL     1       2.746  42.200  50.688  1.00  0.00     0.068 A 
ATOM      8  S   UNL     1       1.511  43.239  51.250  1.00  0.00    -0.136 S 
ATOM      9  C   UNL     1       2.550  43.961  52.412  1.00  0.00     0.116 A 
ENDROOT
BRANCH   1  10
ATOM     10  O   UNL     1       1.093  45.597  53.475  1.00  0.00    -0.437 OA
BRANCH  10  11
ATOM     11  C   UNL     1       0.363  45.227  54.582  1.00  0.00     0.129 A 
ATOM     12  C   UNL     1      -1.250  44.434  56.733  1.00  0.00     0.119 A 
ATOM     13  C   UNL     1      -0.137  45.247  56.953  1.00  0.00     0.050 A 
ATOM     14  C   UNL     1      -1.558  44.033  55.429  1.00  0.00     0.050 A 
ATOM     15  C   UNL     1       0.665  45.648  55.879  1.00  0.00     0.051 A 
ATOM     16  C   UNL     1      -0.761  44.434  54.355  1.00  0.00     0.051 A 
BRANCH  12  17
ATOM     17  O   UNL     1      -2.110  43.971  57.691  1.00  0.00    -0.497 OA
ATOM     18  C   UNL     1      -3.123  43.069  57.262  1.00  0.00     0.278 C 
ENDBRANCH  12  17
ENDBRANCH  10  11
ENDBRANCH   1  10
BRANCH   3  19
ATOM     19  S   UNL     1       5.759  45.321  55.167  1.00  0.00    -0.081 SA
BRANCH  19  20
ATOM     20  C   UNL     1       6.210  46.882  54.356  1.00  0.00     0.113 C 
BRANCH  20  21
ATOM     21  C   UNL     1       7.517  46.819  53.602  1.00  0.00    -0.038 A 
ATOM     22  C   UNL     1       7.558  46.355  52.280  1.00  0.00     0.004 A 
ATOM     23  C   UNL     1       8.712  47.233  54.211  1.00  0.00     0.004 A 
ATOM     24  C   UNL     1       8.769  46.300  51.585  1.00  0.00     0.000 A 
ATOM     25  C   UNL     1       9.920  47.179  53.514  1.00  0.00     0.000 A 
ATOM     26  C   UNL     1       9.948  46.710  52.203  1.00  0.00     0.000 A 
ENDBRANCH  20  21
ENDBRANCH  19  20
ENDBRANCH   3  19
TORSDOF 6
ENDMDL
MODEL 12
REMARK VINA RESULT:    -8.231      2.406      5.520
REMARK INTER + INTRA:         -11.905
REMARK INTER:                 -11.595
REMARK INTRA:                  -0.310
REMARK UNBOUND:                -0.787
REMARK SMILES COc1ccc(Oc2nc(SCc3ccccc3)nc3ccsc23)cc1
REMARK SMILES IDX 8 1 9 2 10 3 19 4 20 5 21 6 22 7 23 8 24 9 7 10 6 11 3 12
REMARK SMILES IDX 4 13 26 14 5 15 25 16 2 17 1 18 11 19 12 20 13 21 14 22
REMARK SMILES IDX 18 23 15 24 17 25 16 26
REMARK H PARENT
ROOT
ATOM      1  C   UNL     1       6.087  45.270  50.823  1.00  0.00     0.241 A 
ATOM      2  N   UNL     1       5.029  45.759  51.498  1.00  0.00    -0.186 NA
ATOM      3  C   UNL     1       4.008  44.931  51.749  1.00  0.00     0.192 A 
ATOM      4  N   UNL     1       3.942  43.628  51.442  1.00  0.00    -0.221 NA
ATOM      5  C   UNL     1       5.032  43.139  50.805  1.00  0.00     0.090 A 
ATOM      6  C   UNL     1       5.202  41.785  50.389  1.00  0.00     0.041 A 
ATOM      7  C   UNL     1       6.408  41.577  49.762  1.00  0.00     0.068 A 
ATOM      8  S   UNL     1       7.337  43.008  49.671  1.00  0.00    -0.136 S 
ATOM      9  C   UNL     1       6.128  43.927  50.474  1.00  0.00     0.116 A 
ENDROOT
BRANCH   1  10
ATOM     10  O   UNL     1       7.126  46.146  50.560  1.00  0.00    -0.437 OA
BRANCH  10  11
ATOM     11  C   UNL     1       7.924  46.442  51.642  1.00  0.00     0.129 A 
ATOM     12  C   UNL     1       9.669  46.948  53.776  1.00  0.00     0.119 A 
ATOM     13  C   UNL     1       8.301  47.189  53.916  1.00  0.00     0.050 A 
ATOM     14  C   UNL     1      10.154  46.439  52.567  1.00  0.00     0.050 A 
ATOM     15  C   UNL     1       7.429  46.931  52.852  1.00  0.00     0.051 A 
ATOM     16  C   UNL     1       9.286  46.178  51.506  1.00  0.00     0.051 A 
BRANCH  12  17
ATOM     17  O   UNL     1      10.625  47.159  54.732  1.00  0.00    -0.497 OA
ATOM     18  C   UNL     1      10.233  47.908  55.876  1.00  0.00     0.278 C 
ENDBRANCH  12  17
ENDBRANCH  10  11
ENDBRANCH   1  10
BRANCH   3  19
ATOM     19  S   UNL     1       2.594  45.651  52.542  1.00  0.00    -0.081 SA
BRANCH  19  20
ATOM     20  C   UNL     1       1.928  44.153  53.322  1.00  0.00     0.113 C 
BRANCH  20  21
ATOM     21  C   UNL     1       1.075  44.429  54.537  1.00  0.00    -0.038 A 
ATOM     22  C   UNL     1       1.646  44.944  55.711  1.00  0.00     0.004 A 
ATOM     23  C   UNL     1      -0.306  44.184  54.508  1.00  0.00     0.004 A 
ATOM     24  C   UNL     1       0.853  45.200  56.831  1.00  0.00     0.000 A 
ATOM     25  C   UNL     1      -1.097  44.443  55.629  1.00  0.00     0.000 A 
ATOM     26  C   UNL     1      -0.517  44.947  56.791  1.00  0.00     0.000 A 
ENDBRANCH  20  21
ENDBRANCH  19  20
ENDBRANCH   3  19
TORSDOF 6
ENDMDL
MODEL 13
REMARK VINA RESULT:    -8.129      4.315      8.349
REMARK INTER + INTRA:         -11.768
REMARK INTER:                 -11.073
REMARK INTRA:                  -0.694
REMARK UNBOUND:                -0.787
REMARK SMILES COc1ccc(Oc2nc(SCc3ccccc3)nc3ccsc23)cc1
REMARK SMILES IDX 8 1 9 2 10 3 19 4 20 5 21 6 22 7 23 8 24 9 7 10 6 11 3 12
REMARK SMILES IDX 4 13 26 14 5 15 25 16 2 17 1 18 11 19 12 20 13 21 14 22
REMARK SMILES IDX 18 23 15 24 17 25 16 26
REMARK H PARENT
ROOT
ATOM      1  C   UNL     1       2.195  44.912  54.934  1.00  0.00     0.241 A 
ATOM      2  N   UNL     1       3.043  45.958  54.919  1.00  0.00    -0.186 NA
ATOM      3  C   UNL     1       3.569  46.324  53.744  1.00  0.00     0.192 A 
ATOM      4  N   UNL     1       3.300  45.784  52.547  1.00  0.00    -0.221 NA
ATOM      5  C   UNL     1       2.410  44.765  52.571  1.00  0.00     0.090 A 
ATOM      6  C   UNL     1       1.958  44.044  51.426  1.00  0.00     0.041 A 
ATOM      7  C   UNL     1       1.057  43.056  51.751  1.00  0.00     0.068 A 
ATOM      8  S   UNL     1       0.756  42.994  53.432  1.00  0.00    -0.136 S 
ATOM      9  C   UNL     1       1.835  44.294  53.744  1.00  0.00     0.116 A 
ENDROOT
BRANCH   1  10
ATOM     10  O   UNL     1       1.675  44.540  56.161  1.00  0.00    -0.437 OA
BRANCH  10  11
ATOM     11  C   UNL     1       0.752  45.414  56.690  1.00  0.00     0.129 A 
ATOM     12  C   UNL     1      -1.030  47.208  57.900  1.00  0.00     0.119 A 
ATOM     13  C   UNL     1      -1.455  46.403  56.842  1.00  0.00     0.050 A 
ATOM     14  C   UNL     1       0.287  47.098  58.357  1.00  0.00     0.050 A 
ATOM     15  C   UNL     1      -0.568  45.503  56.241  1.00  0.00     0.051 A 
ATOM     16  C   UNL     1       1.174  46.199  57.761  1.00  0.00     0.051 A 
BRANCH  12  17
ATOM     17  O   UNL     1      -1.792  48.125  58.569  1.00  0.00    -0.497 OA
ATOM     18  C   UNL     1      -1.139  48.889  59.577  1.00  0.00     0.278 C 
ENDBRANCH  12  17
ENDBRANCH  10  11
ENDBRANCH   1  10
BRANCH   3  19
ATOM     19  S   UNL     1       4.763  47.634  53.796  1.00  0.00    -0.081 SA
BRANCH  19  20
ATOM     20  C   UNL     1       6.144  46.712  54.533  1.00  0.00     0.113 C 
BRANCH  20  21
ATOM     21  C   UNL     1       7.408  46.750  53.708  1.00  0.00    -0.038 A 
ATOM     22  C   UNL     1       8.626  47.142  54.283  1.00  0.00     0.004 A 
ATOM     23  C   UNL     1       7.387  46.384  52.354  1.00  0.00     0.004 A 
ATOM     24  C   UNL     1       9.794  47.174  53.517  1.00  0.00     0.000 A 
ATOM     25  C   UNL     1       8.556  46.414  51.591  1.00  0.00     0.000 A 
ATOM     26  C   UNL     1       9.757  46.813  52.172  1.00  0.00     0.000 A 
ENDBRANCH  20  21
ENDBRANCH  19  20
ENDBRANCH   3  19
TORSDOF 6
ENDMDL
MODEL 14
REMARK VINA RESULT:    -8.084      2.072      5.377
REMARK INTER + INTRA:         -11.706
REMARK INTER:                 -11.253
REMARK INTRA:                  -0.452
REMARK UNBOUND:                -0.787
REMARK SMILES COc1ccc(Oc2nc(SCc3ccccc3)nc3ccsc23)cc1
REMARK SMILES IDX 8 1 9 2 10 3 19 4 20 5 21 6 22 7 23 8 24 9 7 10 6 11 3 12
REMARK SMILES IDX 4 13 26 14 5 15 25 16 2 17 1 18 11 19 12 20 13 21 14 22
REMARK SMILES IDX 18 23 15 24 17 25 16 26
REMARK H PARENT
ROOT
ATOM      1  C   UNL     1       6.830  45.746  51.153  1.00  0.00     0.241 A 
ATOM      2  N   UNL     1       5.844  46.021  52.027  1.00  0.00    -0.186 NA
ATOM      3  C   UNL     1       4.815  45.168  52.102  1.00  0.00     0.192 A 
ATOM      4  N   UNL     1       4.680  44.020  51.424  1.00  0.00    -0.221 NA
ATOM      5  C   UNL     1       5.701  43.733  50.584  1.00  0.00     0.090 A 
ATOM      6  C   UNL     1       5.789  42.565  49.769  1.00  0.00     0.041 A 
ATOM      7  C   UNL     1       6.937  42.541  49.011  1.00  0.00     0.068 A 
ATOM      8  S   UNL     1       7.908  43.921  49.278  1.00  0.00    -0.136 S 
ATOM      9  C   UNL     1       6.797  44.570  50.416  1.00  0.00     0.116 A 
ENDROOT
BRANCH   1  10
ATOM     10  O   UNL     1       7.878  46.648  51.081  1.00  0.00    -0.437 OA
BRANCH  10  11
ATOM     11  C   UNL     1       8.490  46.925  52.283  1.00  0.00     0.129 A 
ATOM     12  C   UNL     1       9.661  47.640  54.726  1.00  0.00     0.119 A 
ATOM     13  C   UNL     1      10.180  46.578  53.983  1.00  0.00     0.050 A 
ATOM     14  C   UNL     1       8.563  48.350  54.231  1.00  0.00     0.050 A 
ATOM     15  C   UNL     1       9.599  46.225  52.761  1.00  0.00     0.051 A 
ATOM     16  C   UNL     1       7.983  48.001  53.010  1.00  0.00     0.051 A 
BRANCH  12  17
ATOM     17  O   UNL     1      10.132  48.084  55.931  1.00  0.00    -0.497 OA
ATOM     18  C   UNL     1      11.257  47.402  56.471  1.00  0.00     0.278 C 
ENDBRANCH  12  17
ENDBRANCH  10  11
ENDBRANCH   1  10
BRANCH   3  19
ATOM     19  S   UNL     1       3.491  45.634  53.186  1.00  0.00    -0.081 SA
BRANCH  19  20
ATOM     20  C   UNL     1       2.130  45.590  51.986  1.00  0.00     0.113 C 
BRANCH  20  21
ATOM     21  C   UNL     1       1.180  44.433  52.187  1.00  0.00    -0.038 A 
ATOM     22  C   UNL     1       1.399  43.496  53.206  1.00  0.00     0.004 A 
ATOM     23  C   UNL     1       0.056  44.283  51.361  1.00  0.00     0.004 A 
ATOM     24  C   UNL     1       0.517  42.429  53.391  1.00  0.00     0.000 A 
ATOM     25  C   UNL     1      -0.826  43.217  51.547  1.00  0.00     0.000 A 
ATOM     26  C   UNL     1      -0.593  42.289  52.559  1.00  0.00     0.000 A 
ENDBRANCH  20  21
ENDBRANCH  19  20
ENDBRANCH   3  19
TORSDOF 6
ENDMDL
MODEL 15
REMARK VINA RESULT:    -8.064      2.730      5.558
REMARK INTER + INTRA:         -11.680
REMARK INTER:                 -11.107
REMARK INTRA:                  -0.572
REMARK UNBOUND:                -0.787
REMARK SMILES COc1ccc(Oc2nc(SCc3ccccc3)nc3ccsc23)cc1
REMARK SMILES IDX 8 1 9 2 10 3 19 4 20 5 21 6 22 7 23 8 24 9 7 10 6 11 3 12
REMARK SMILES IDX 4 13 26 14 5 15 25 16 2 17 1 18 11 19 12 20 13 21 14 22
REMARK SMILES IDX 18 23 15 24 17 25 16 26
REMARK H PARENT
ROOT
ATOM      1  C   UNL     1       4.887  44.858  51.195  1.00  0.00     0.241 A 
ATOM      2  N   UNL     1       3.753  44.609  51.877  1.00  0.00    -0.186 NA
ATOM      3  C   UNL     1       3.300  43.350  51.905  1.00  0.00     0.192 A 
ATOM      4  N   UNL     1       3.889  42.278  51.358  1.00  0.00    -0.221 NA
ATOM      5  C   UNL     1       5.052  42.535  50.715  1.00  0.00     0.090 A 
ATOM      6  C   UNL     1       5.865  41.558  50.068  1.00  0.00     0.041 A 
ATOM      7  C   UNL     1       6.987  42.107  49.492  1.00  0.00     0.068 A 
ATOM      8  S   UNL     1       7.063  43.798  49.729  1.00  0.00    -0.136 S 
ATOM      9  C   UNL     1       5.587  43.813  50.607  1.00  0.00     0.116 A 
ENDROOT
BRANCH   1  10
ATOM     10  O   UNL     1       5.331  46.169  51.166  1.00  0.00    -0.437 OA
BRANCH  10  11
ATOM     11  C   UNL     1       6.158  46.525  52.207  1.00  0.00     0.129 A 
ATOM     12  C   UNL     1       7.972  47.246  54.218  1.00  0.00     0.119 A 
ATOM     13  C   UNL     1       6.716  46.736  54.555  1.00  0.00     0.050 A 
ATOM     14  C   UNL     1       8.318  47.378  52.870  1.00  0.00     0.050 A 
ATOM     15  C   UNL     1       5.813  46.371  53.551  1.00  0.00     0.051 A 
ATOM     16  C   UNL     1       7.419  47.011  51.866  1.00  0.00     0.051 A 
BRANCH  12  17
ATOM     17  O   UNL     1       8.941  47.641  55.098  1.00  0.00    -0.497 OA
ATOM     18  C   UNL     1      10.265  47.191  54.838  1.00  0.00     0.278 C 
ENDBRANCH  12  17
ENDBRANCH  10  11
ENDBRANCH   1  10
BRANCH   3  19
ATOM     19  S   UNL     1       1.747  43.097  52.723  1.00  0.00    -0.081 SA
BRANCH  19  20
ATOM     20  C   UNL     1       1.519  44.768  53.395  1.00  0.00     0.113 C 
BRANCH  20  21
ATOM     21  C   UNL     1       0.686  44.808  54.654  1.00  0.00    -0.038 A 
ATOM     22  C   UNL     1      -0.661  44.417  54.634  1.00  0.00     0.004 A 
ATOM     23  C   UNL     1       1.250  45.228  55.868  1.00  0.00     0.004 A 
ATOM     24  C   UNL     1      -1.427  44.453  55.801  1.00  0.00     0.000 A 
ATOM     25  C   UNL     1       0.483  45.262  57.034  1.00  0.00     0.000 A 
ATOM     26  C   UNL     1      -0.855  44.878  56.999  1.00  0.00     0.000 A 
ENDBRANCH  20  21
ENDBRANCH  19  20
ENDBRANCH   3  19
TORSDOF 6
ENDMDL
MODEL 16
REMARK VINA RESULT:    -7.907      2.723      6.790
REMARK INTER + INTRA:         -11.467
REMARK INTER:                 -10.745
REMARK INTRA:                  -0.722
REMARK UNBOUND:                -0.787
REMARK SMILES COc1ccc(Oc2nc(SCc3ccccc3)nc3ccsc23)cc1
REMARK SMILES IDX 8 1 9 2 10 3 19 4 20 5 21 6 22 7 23 8 24 9 7 10 6 11 3 12
REMARK SMILES IDX 4 13 26 14 5 15 25 16 2 17 1 18 11 19 12 20 13 21 14 22
REMARK SMILES IDX 18 23 15 24 17 25 16 26
REMARK H PARENT
ROOT
ATOM      1  C   UNL     1       4.346  44.849  51.120  1.00  0.00     0.241 A 
ATOM      2  N   UNL     1       5.580  45.304  50.834  1.00  0.00    -0.186 NA
ATOM      3  C   UNL     1       6.490  44.423  50.403  1.00  0.00     0.192 A 
ATOM      4  N   UNL     1       6.290  43.117  50.172  1.00  0.00    -0.221 NA
ATOM      5  C   UNL     1       5.032  42.684  50.420  1.00  0.00     0.090 A 
ATOM      6  C   UNL     1       4.576  41.345  50.237  1.00  0.00     0.041 A 
ATOM      7  C   UNL     1       3.251  41.192  50.574  1.00  0.00     0.068 A 
ATOM      8  S   UNL     1       2.555  42.658  51.110  1.00  0.00    -0.136 S 
ATOM      9  C   UNL     1       4.028  43.517  50.897  1.00  0.00     0.116 A 
ENDROOT
BRANCH   1  10
ATOM     10  O   UNL     1       3.424  45.775  51.579  1.00  0.00    -0.437 OA
BRANCH  10  11
ATOM     11  C   UNL     1       2.989  45.571  52.869  1.00  0.00     0.129 A 
ATOM     12  C   UNL     1       1.954  45.209  55.448  1.00  0.00     0.119 A 
ATOM     13  C   UNL     1       3.334  45.274  55.249  1.00  0.00     0.050 A 
ATOM     14  C   UNL     1       1.097  45.342  54.352  1.00  0.00     0.050 A 
ATOM     15  C   UNL     1       3.851  45.460  53.962  1.00  0.00     0.051 A 
ATOM     16  C   UNL     1       1.610  45.530  53.067  1.00  0.00     0.051 A 
BRANCH  12  17
ATOM     17  O   UNL     1       1.322  45.029  56.648  1.00  0.00    -0.497 OA
ATOM     18  C   UNL     1       0.002  45.546  56.762  1.00  0.00     0.278 C 
ENDBRANCH  12  17
ENDBRANCH  10  11
ENDBRANCH   1  10
BRANCH   3  19
ATOM     19  S   UNL     1       8.128  45.052  50.147  1.00  0.00    -0.081 SA
BRANCH  19  20
ATOM     20  C   UNL     1       7.875  46.733  50.786  1.00  0.00     0.113 C 
BRANCH  20  21
ATOM     21  C   UNL     1       8.463  46.955  52.159  1.00  0.00    -0.038 A 
ATOM     22  C   UNL     1       9.838  46.798  52.384  1.00  0.00     0.004 A 
ATOM     23  C   UNL     1       7.641  47.333  53.233  1.00  0.00     0.004 A 
ATOM     24  C   UNL     1      10.378  47.007  53.655  1.00  0.00     0.000 A 
ATOM     25  C   UNL     1       8.183  47.543  54.502  1.00  0.00     0.000 A 
ATOM     26  C   UNL     1       9.550  47.377  54.713  1.00  0.00     0.000 A 
ENDBRANCH  20  21
ENDBRANCH  19  20
ENDBRANCH   3  19
TORSDOF 6
ENDMDL
MODEL 17
REMARK VINA RESULT:    -7.879      2.214      5.332
REMARK INTER + INTRA:         -11.429
REMARK INTER:                 -10.837
REMARK INTRA:                  -0.592
REMARK UNBOUND:                -0.787
REMARK SMILES COc1ccc(Oc2nc(SCc3ccccc3)nc3ccsc23)cc1
REMARK SMILES IDX 8 1 9 2 10 3 19 4 20 5 21 6 22 7 23 8 24 9 7 10 6 11 3 12
REMARK SMILES IDX 4 13 26 14 5 15 25 16 2 17 1 18 11 19 12 20 13 21 14 22
REMARK SMILES IDX 18 23 15 24 17 25 16 26
REMARK H PARENT
ROOT
ATOM      1  C   UNL     1       5.938  45.055  50.988  1.00  0.00     0.241 A 
ATOM      2  N   UNL     1       5.100  45.390  51.987  1.00  0.00    -0.186 NA
ATOM      3  C   UNL     1       4.227  44.467  52.410  1.00  0.00     0.192 A 
ATOM      4  N   UNL     1       4.127  43.204  51.974  1.00  0.00    -0.221 NA
ATOM      5  C   UNL     1       5.006  42.868  51.002  1.00  0.00     0.090 A 
ATOM      6  C   UNL     1       5.101  41.582  50.390  1.00  0.00     0.041 A 
ATOM      7  C   UNL     1       6.083  41.531  49.428  1.00  0.00     0.068 A 
ATOM      8  S   UNL     1       6.891  43.027  49.259  1.00  0.00    -0.136 S 
ATOM      9  C   UNL     1       5.929  43.764  50.477  1.00  0.00     0.116 A 
ENDROOT
BRANCH   1  10
ATOM     10  O   UNL     1       6.822  46.027  50.554  1.00  0.00    -0.437 OA
BRANCH  10  11
ATOM     11  C   UNL     1       7.734  46.445  51.497  1.00  0.00     0.129 A 
ATOM     12  C   UNL     1       9.674  47.150  53.393  1.00  0.00     0.119 A 
ATOM     13  C   UNL     1       8.442  47.805  53.373  1.00  0.00     0.050 A 
ATOM     14  C   UNL     1       9.923  46.131  52.469  1.00  0.00     0.050 A 
ATOM     15  C   UNL     1       7.471  47.449  52.430  1.00  0.00     0.051 A 
ATOM     16  C   UNL     1       8.955  45.772  51.529  1.00  0.00     0.051 A 
BRANCH  12  17
ATOM     17  O   UNL     1      10.705  47.402  54.256  1.00  0.00    -0.497 OA
ATOM     18  C   UNL     1      10.373  47.519  55.635  1.00  0.00     0.278 C 
ENDBRANCH  12  17
ENDBRANCH  10  11
ENDBRANCH   1  10
BRANCH   3  19
ATOM     19  S   UNL     1       3.074  44.994  53.650  1.00  0.00    -0.081 SA
BRANCH  19  20
ATOM     20  C   UNL     1       1.718  45.509  52.558  1.00  0.00     0.113 C 
BRANCH  20  21
ATOM     21  C   UNL     1       0.637  44.467  52.398  1.00  0.00    -0.038 A 
ATOM     22  C   UNL     1       0.747  43.220  53.029  1.00  0.00     0.004 A 
ATOM     23  C   UNL     1      -0.501  44.734  51.623  1.00  0.00     0.004 A 
ATOM     24  C   UNL     1      -0.257  42.259  52.881  1.00  0.00     0.000 A 
ATOM     25  C   UNL     1      -1.504  43.774  51.477  1.00  0.00     0.000 A 
ATOM     26  C   UNL     1      -1.379  42.536  52.104  1.00  0.00     0.000 A 
ENDBRANCH  20  21
ENDBRANCH  19  20
ENDBRANCH   3  19
TORSDOF 6
ENDMDL
MODEL 18
REMARK VINA RESULT:    -7.863      2.721      6.130
REMARK INTER + INTRA:         -11.408
REMARK INTER:                 -10.896
REMARK INTRA:                  -0.512
REMARK UNBOUND:                -0.787
REMARK SMILES COc1ccc(Oc2nc(SCc3ccccc3)nc3ccsc23)cc1
REMARK SMILES IDX 8 1 9 2 10 3 19 4 20 5 21 6 22 7 23 8 24 9 7 10 6 11 3 12
REMARK SMILES IDX 4 13 26 14 5 15 25 16 2 17 1 18 11 19 12 20 13 21 14 22
REMARK SMILES IDX 18 23 15 24 17 25 16 26
REMARK H PARENT
ROOT
ATOM      1  C   UNL     1       5.378  42.546  50.328  1.00  0.00     0.241 A 
ATOM      2  N   UNL     1       6.524  43.214  50.101  1.00  0.00    -0.186 NA
ATOM      3  C   UNL     1       6.620  44.469  50.555  1.00  0.00     0.192 A 
ATOM      4  N   UNL     1       5.699  45.131  51.271  1.00  0.00    -0.221 NA
ATOM      5  C   UNL     1       4.572  44.431  51.531  1.00  0.00     0.090 A 
ATOM      6  C   UNL     1       3.460  44.915  52.283  1.00  0.00     0.041 A 
ATOM      7  C   UNL     1       2.450  43.987  52.382  1.00  0.00     0.068 A 
ATOM      8  S   UNL     1       2.837  42.532  51.573  1.00  0.00    -0.136 S 
ATOM      9  C   UNL     1       4.368  43.134  51.076  1.00  0.00     0.116 A 
ENDROOT
BRANCH   1  10
ATOM     10  O   UNL     1       5.293  41.254  49.836  1.00  0.00    -0.437 OA
BRANCH  10  11
ATOM     11  C   UNL     1       4.950  41.161  48.506  1.00  0.00     0.129 A 
ATOM     12  C   UNL     1       4.152  40.840  45.838  1.00  0.00     0.119 A 
ATOM     13  C   UNL     1       5.297  41.578  46.145  1.00  0.00     0.050 A 
ATOM     14  C   UNL     1       3.419  40.252  46.874  1.00  0.00     0.050 A 
ATOM     15  C   UNL     1       5.698  41.733  47.476  1.00  0.00     0.051 A 
ATOM     16  C   UNL     1       3.819  40.404  48.203  1.00  0.00     0.051 A 
BRANCH  12  17
ATOM     17  O   UNL     1       3.652  40.615  44.585  1.00  0.00    -0.497 OA
ATOM     18  C   UNL     1       4.518  39.977  43.654  1.00  0.00     0.278 C 
ENDBRANCH  12  17
ENDBRANCH  10  11
ENDBRANCH   1  10
BRANCH   3  19
ATOM     19  S   UNL     1       8.105  45.342  50.134  1.00  0.00    -0.081 SA
BRANCH  19  20
ATOM     20  C   UNL     1       7.755  46.902  50.994  1.00  0.00     0.113 C 
BRANCH  20  21
ATOM     21  C   UNL     1       8.523  47.071  52.283  1.00  0.00    -0.038 A 
ATOM     22  C   UNL     1       9.844  46.613  52.394  1.00  0.00     0.004 A 
ATOM     23  C   UNL     1       7.931  47.699  53.389  1.00  0.00     0.004 A 
ATOM     24  C   UNL     1      10.553  46.773  53.587  1.00  0.00     0.000 A 
ATOM     25  C   UNL     1       8.641  47.859  54.580  1.00  0.00     0.000 A 
ATOM     26  C   UNL     1       9.950  47.393  54.680  1.00  0.00     0.000 A 
ENDBRANCH  20  21
ENDBRANCH  19  20
ENDBRANCH   3  19
TORSDOF 6
ENDMDL
MODEL 19
REMARK VINA RESULT:    -7.673      2.598      6.212
REMARK INTER + INTRA:         -11.151
REMARK INTER:                  -9.839
REMARK INTRA:                  -1.312
REMARK UNBOUND:                -0.787
REMARK SMILES COc1ccc(Oc2nc(SCc3ccccc3)nc3ccsc23)cc1
REMARK SMILES IDX 8 1 9 2 10 3 19 4 20 5 21 6 22 7 23 8 24 9 7 10 6 11 3 12
REMARK SMILES IDX 4 13 26 14 5 15 25 16 2 17 1 18 11 19 12 20 13 21 14 22
REMARK SMILES IDX 18 23 15 24 17 25 16 26
REMARK H PARENT
ROOT
ATOM      1  C   UNL     1       1.928  43.621  52.717  1.00  0.00     0.241 A 
ATOM      2  N   UNL     1       2.713  44.227  53.628  1.00  0.00    -0.186 NA
ATOM      3  C   UNL     1       2.119  44.928  54.601  1.00  0.00     0.192 A 
ATOM      4  N   UNL     1       0.799  45.056  54.801  1.00  0.00    -0.221 NA
ATOM      5  C   UNL     1       0.024  44.404  53.904  1.00  0.00     0.090 A 
ATOM      6  C   UNL     1      -1.403  44.381  53.918  1.00  0.00     0.041 A 
ATOM      7  C   UNL     1      -1.925  43.642  52.881  1.00  0.00     0.068 A 
ATOM      8  S   UNL     1      -0.701  42.977  51.891  1.00  0.00    -0.136 S 
ATOM      9  C   UNL     1       0.547  43.676  52.844  1.00  0.00     0.116 A 
ENDROOT
BRANCH   1  10
ATOM     10  O   UNL     1       2.562  42.913  51.710  1.00  0.00    -0.437 OA
BRANCH  10  11
ATOM     11  C   UNL     1       3.714  43.494  51.228  1.00  0.00     0.129 A 
ATOM     12  C   UNL     1       6.138  44.535  50.284  1.00  0.00     0.119 A 
ATOM     13  C   UNL     1       5.082  45.392  50.598  1.00  0.00     0.050 A 
ATOM     14  C   UNL     1       5.978  43.158  50.460  1.00  0.00     0.050 A 
ATOM     15  C   UNL     1       3.873  44.873  51.075  1.00  0.00     0.051 A 
ATOM     16  C   UNL     1       4.774  42.638  50.938  1.00  0.00     0.051 A 
BRANCH  12  17
ATOM     17  O   UNL     1       7.365  44.912  49.809  1.00  0.00    -0.497 OA
ATOM     18  C   UNL     1       8.199  43.879  49.298  1.00  0.00     0.278 C 
ENDBRANCH  12  17
ENDBRANCH  10  11
ENDBRANCH   1  10
BRANCH   3  19
ATOM     19  S   UNL     1       3.198  45.796  55.709  1.00  0.00    -0.081 SA
BRANCH  19  20
ATOM     20  C   UNL     1       4.764  45.013  55.230  1.00  0.00     0.113 C 
BRANCH  20  21
ATOM     21  C   UNL     1       5.620  45.869  54.327  1.00  0.00    -0.038 A 
ATOM     22  C   UNL     1       5.156  47.110  53.866  1.00  0.00     0.004 A 
ATOM     23  C   UNL     1       6.900  45.441  53.942  1.00  0.00     0.004 A 
ATOM     24  C   UNL     1       5.951  47.900  53.033  1.00  0.00     0.000 A 
ATOM     25  C   UNL     1       7.694  46.233  53.111  1.00  0.00     0.000 A 
ATOM     26  C   UNL     1       7.218  47.460  52.654  1.00  0.00     0.000 A 
ENDBRANCH  20  21
ENDBRANCH  19  20
ENDBRANCH   3  19
TORSDOF 6
ENDMDL
