MODEL 1
REMARK VINA RESULT:    -8.428      0.000      0.000
REMARK INTER + INTRA:         -12.219
REMARK INTER:                 -11.385
REMARK INTRA:                  -0.834
REMARK UNBOUND:                -0.834
REMARK SMILES CC[C@@H](CNc1cc(-c2ccccc2)nc2ccnn12)OC
REMARK SMILES IDX 4 1 3 2 2 3 1 4 21 5 22 6 5 7 6 9 7 10 20 11 8 12 19 13
REMARK SMILES IDX 16 14 15 15 18 16 17 17 9 18 10 19 14 20 11 21 13 22 12 23
REMARK H PARENT 5 8
ROOT
ATOM      1  C   UNL     1       7.772  47.817  52.279  1.00  0.00     0.146 C 
ENDROOT
BRANCH   1   2
ATOM      2  C   UNL     1       9.095  47.819  53.078  1.00  0.00     0.136 C 
BRANCH   2   3
ATOM      3  C   UNL     1       9.821  46.460  53.055  1.00  0.00     0.030 C 
ATOM      4  C   UNL     1      10.246  45.990  51.669  1.00  0.00     0.007 C 
ENDBRANCH   2   3
BRANCH   2   5
ATOM      5  O   UNL     1       8.863  48.151  54.459  1.00  0.00    -0.380 OA
ATOM      6  C   UNL     1       9.915  47.719  55.313  1.00  0.00     0.195 C 
ENDBRANCH   2   5
ENDBRANCH   1   2
BRANCH   1   7
ATOM      7  N   UNL     1       6.614  47.463  53.092  1.00  0.00    -0.367 N 
ATOM      8  H   UNL     1       6.545  47.971  53.968  1.00  0.00     0.162 HD
BRANCH   7   9
ATOM      9  C   UNL     1       5.788  46.338  52.984  1.00  0.00     0.132 A 
ATOM     10  C   UNL     1       5.994  45.439  52.001  1.00  0.00     0.075 A 
ATOM     11  N   UNL     1       4.723  46.079  53.898  1.00  0.00    -0.199 N 
ATOM     12  C   UNL     1       5.088  44.249  51.934  1.00  0.00     0.076 A 
ATOM     13  N   UNL     1       4.296  46.826  54.966  1.00  0.00    -0.173 NA
ATOM     14  C   UNL     1       3.936  44.922  53.768  1.00  0.00     0.157 A 
ATOM     15  N   UNL     1       4.129  44.003  52.780  1.00  0.00    -0.228 NA
ATOM     16  C   UNL     1       3.282  46.136  55.485  1.00  0.00     0.138 A 
ATOM     17  C   UNL     1       3.013  44.954  54.788  1.00  0.00     0.071 A 
BRANCH  12  18
ATOM     18  C   UNL     1       5.340  43.283  50.827  1.00  0.00     0.000 A 
ATOM     19  C   UNL     1       4.559  42.122  50.762  1.00  0.00     0.010 A 
ATOM     20  C   UNL     1       6.306  43.522  49.842  1.00  0.00     0.010 A 
ATOM     21  C   UNL     1       4.763  41.194  49.739  1.00  0.00     0.001 A 
ATOM     22  C   UNL     1       6.505  42.592  48.818  1.00  0.00     0.001 A 
ATOM     23  C   UNL     1       5.738  41.428  48.770  1.00  0.00     0.000 A 
ENDBRANCH  12  18
ENDBRANCH   7   9
ENDBRANCH   1   7
TORSDOF 6
ENDMDL
MODEL 2
REMARK VINA RESULT:    -8.246      0.813      1.826
REMARK INTER + INTRA:         -11.973
REMARK INTER:                 -11.181
REMARK INTRA:                  -0.791
REMARK UNBOUND:                -0.834
REMARK SMILES CC[C@@H](CNc1cc(-c2ccccc2)nc2ccnn12)OC
REMARK SMILES IDX 4 1 3 2 2 3 1 4 21 5 22 6 5 7 6 9 7 10 20 11 8 12 19 13
REMARK SMILES IDX 16 14 15 15 18 16 17 17 9 18 10 19 14 20 11 21 13 22 12 23
REMARK H PARENT 5 8
ROOT
ATOM      1  C   UNL     1       8.392  47.798  52.523  1.00  0.00     0.146 C 
ENDROOT
BRANCH   1   2
ATOM      2  C   UNL     1       8.899  47.001  53.745  1.00  0.00     0.136 C 
BRANCH   2   3
ATOM      3  C   UNL     1       9.362  47.901  54.909  1.00  0.00     0.030 C 
ATOM      4  C   UNL     1      10.636  47.436  55.604  1.00  0.00     0.007 C 
ENDBRANCH   2   3
BRANCH   2   5
ATOM      5  O   UNL     1      10.015  46.166  53.388  1.00  0.00    -0.380 OA
ATOM      6  C   UNL     1      10.240  46.116  51.984  1.00  0.00     0.195 C 
ENDBRANCH   2   5
ENDBRANCH   1   2
BRANCH   1   7
ATOM      7  N   UNL     1       6.943  47.739  52.363  1.00  0.00    -0.367 N 
ATOM      8  H   UNL     1       6.480  48.642  52.400  1.00  0.00     0.162 HD
BRANCH   7   9
ATOM      9  C   UNL     1       6.101  46.627  52.478  1.00  0.00     0.132 A 
ATOM     10  C   UNL     1       6.180  45.623  51.582  1.00  0.00     0.075 A 
ATOM     11  N   UNL     1       5.150  46.493  53.534  1.00  0.00    -0.199 N 
ATOM     12  C   UNL     1       5.263  44.453  51.755  1.00  0.00     0.076 A 
ATOM     13  N   UNL     1       4.860  47.360  54.555  1.00  0.00    -0.173 NA
ATOM     14  C   UNL     1       4.343  45.345  53.625  1.00  0.00     0.157 A 
ATOM     15  N   UNL     1       4.409  44.321  52.729  1.00  0.00    -0.228 NA
ATOM     16  C   UNL     1       3.909  46.753  55.262  1.00  0.00     0.138 A 
ATOM     17  C   UNL     1       3.549  45.509  54.736  1.00  0.00     0.071 A 
BRANCH  12  18
ATOM     18  C   UNL     1       5.372  43.367  50.739  1.00  0.00     0.000 A 
ATOM     19  C   UNL     1       6.348  43.479  49.741  1.00  0.00     0.010 A 
ATOM     20  C   UNL     1       4.551  42.232  50.777  1.00  0.00     0.010 A 
ATOM     21  C   UNL     1       6.483  42.482  48.774  1.00  0.00     0.001 A 
ATOM     22  C   UNL     1       4.691  41.236  49.808  1.00  0.00     0.001 A 
ATOM     23  C   UNL     1       5.652  41.363  48.806  1.00  0.00     0.000 A 
ENDBRANCH  12  18
ENDBRANCH   7   9
ENDBRANCH   1   7
TORSDOF 6
ENDMDL
MODEL 3
REMARK VINA RESULT:    -8.052      2.598      6.054
REMARK INTER + INTRA:         -11.711
REMARK INTER:                 -10.923
REMARK INTRA:                  -0.788
REMARK UNBOUND:                -0.834
REMARK SMILES CC[C@@H](CNc1cc(-c2ccccc2)nc2ccnn12)OC
REMARK SMILES IDX 4 1 3 2 2 3 1 4 21 5 22 6 5 7 6 9 7 10 20 11 8 12 19 13
REMARK SMILES IDX 16 14 15 15 18 16 17 17 9 18 10 19 14 20 11 21 13 22 12 23
REMARK H PARENT 5 8
ROOT
ATOM      1  C   UNL     1       3.548  41.974  51.391  1.00  0.00     0.146 C 
ENDROOT
BRANCH   1   2
ATOM      2  C   UNL     1       4.167  41.143  50.245  1.00  0.00     0.136 C 
BRANCH   2   3
ATOM      3  C   UNL     1       5.337  41.857  49.539  1.00  0.00     0.030 C 
ATOM      4  C   UNL     1       6.721  41.440  50.022  1.00  0.00     0.007 C 
ENDBRANCH   2   3
BRANCH   2   5
ATOM      5  O   UNL     1       3.186  40.842  49.237  1.00  0.00    -0.380 OA
ATOM      6  C   UNL     1       3.767  40.391  48.020  1.00  0.00     0.195 C 
ENDBRANCH   2   5
ENDBRANCH   1   2
BRANCH   1   7
ATOM      7  N   UNL     1       3.842  43.399  51.288  1.00  0.00    -0.367 N 
ATOM      8  H   UNL     1       3.924  43.743  50.336  1.00  0.00     0.162 HD
BRANCH   7   9
ATOM      9  C   UNL     1       4.324  44.260  52.280  1.00  0.00     0.132 A 
ATOM     10  C   UNL     1       5.575  44.757  52.196  1.00  0.00     0.075 A 
ATOM     11  N   UNL     1       3.531  44.663  53.397  1.00  0.00    -0.199 N 
ATOM     12  C   UNL     1       6.039  45.680  53.279  1.00  0.00     0.076 A 
ATOM     13  N   UNL     1       2.250  44.301  53.725  1.00  0.00    -0.173 NA
ATOM     14  C   UNL     1       4.048  45.552  54.356  1.00  0.00     0.157 A 
ATOM     15  N   UNL     1       5.309  46.063  54.286  1.00  0.00    -0.228 NA
ATOM     16  C   UNL     1       1.984  44.963  54.850  1.00  0.00     0.138 A 
ATOM     17  C   UNL     1       3.055  45.748  55.287  1.00  0.00     0.071 A 
BRANCH  12  18
ATOM     18  C   UNL     1       7.431  46.201  53.158  1.00  0.00     0.000 A 
ATOM     19  C   UNL     1       8.019  46.807  54.275  1.00  0.00     0.010 A 
ATOM     20  C   UNL     1       8.169  46.071  51.974  1.00  0.00     0.010 A 
ATOM     21  C   UNL     1       9.321  47.304  54.202  1.00  0.00     0.001 A 
ATOM     22  C   UNL     1       9.473  46.568  51.906  1.00  0.00     0.001 A 
ATOM     23  C   UNL     1      10.046  47.187  53.016  1.00  0.00     0.000 A 
ENDBRANCH  12  18
ENDBRANCH   7   9
ENDBRANCH   1   7
TORSDOF 6
ENDMDL
MODEL 4
REMARK VINA RESULT:    -7.921      2.635      6.345
REMARK INTER + INTRA:         -11.534
REMARK INTER:                 -10.530
REMARK INTRA:                  -1.005
REMARK UNBOUND:                -0.834
REMARK SMILES CC[C@@H](CNc1cc(-c2ccccc2)nc2ccnn12)OC
REMARK SMILES IDX 4 1 3 2 2 3 1 4 21 5 22 6 5 7 6 9 7 10 20 11 8 12 19 13
REMARK SMILES IDX 16 14 15 15 18 16 17 17 9 18 10 19 14 20 11 21 13 22 12 23
REMARK H PARENT 5 8
ROOT
ATOM      1  C   UNL     1       1.791  43.106  52.663  1.00  0.00     0.146 C 
ENDROOT
BRANCH   1   2
ATOM      2  C   UNL     1       1.344  44.408  53.364  1.00  0.00     0.136 C 
BRANCH   2   3
ATOM      3  C   UNL     1       1.277  45.619  52.412  1.00  0.00     0.030 C 
ATOM      4  C   UNL     1       2.410  46.624  52.581  1.00  0.00     0.007 C 
ENDBRANCH   2   3
BRANCH   2   5
ATOM      5  O   UNL     1       2.248  44.757  54.428  1.00  0.00    -0.380 OA
ATOM      6  C   UNL     1       1.604  44.832  55.694  1.00  0.00     0.195 C 
ENDBRANCH   2   5
ENDBRANCH   1   2
BRANCH   1   7
ATOM      7  N   UNL     1       3.212  42.825  52.828  1.00  0.00    -0.367 N 
ATOM      8  H   UNL     1       3.477  42.543  53.767  1.00  0.00     0.162 HD
BRANCH   7   9
ATOM      9  C   UNL     1       4.272  43.183  51.987  1.00  0.00     0.132 A 
ATOM     10  C   UNL     1       5.011  44.277  52.259  1.00  0.00     0.075 A 
ATOM     11  N   UNL     1       4.628  42.418  50.836  1.00  0.00    -0.199 N 
ATOM     12  C   UNL     1       6.138  44.612  51.332  1.00  0.00     0.076 A 
ATOM     13  N   UNL     1       4.043  41.285  50.333  1.00  0.00    -0.173 NA
ATOM     14  C   UNL     1       5.718  42.801  50.034  1.00  0.00     0.157 A 
ATOM     15  N   UNL     1       6.476  43.904  50.294  1.00  0.00    -0.228 NA
ATOM     16  C   UNL     1       4.766  40.974  49.258  1.00  0.00     0.138 A 
ATOM     17  C   UNL     1       5.810  41.873  49.023  1.00  0.00     0.071 A 
BRANCH  12  18
ATOM     18  C   UNL     1       6.927  45.835  51.659  1.00  0.00     0.000 A 
ATOM     19  C   UNL     1       6.330  46.825  52.450  1.00  0.00     0.010 A 
ATOM     20  C   UNL     1       8.248  46.002  51.224  1.00  0.00     0.010 A 
ATOM     21  C   UNL     1       7.036  47.982  52.780  1.00  0.00     0.001 A 
ATOM     22  C   UNL     1       8.951  47.161  51.558  1.00  0.00     0.001 A 
ATOM     23  C   UNL     1       8.345  48.151  52.331  1.00  0.00     0.000 A 
ENDBRANCH  12  18
ENDBRANCH   7   9
ENDBRANCH   1   7
TORSDOF 6
ENDMDL
MODEL 5
REMARK VINA RESULT:    -7.912      2.665      5.918
REMARK INTER + INTRA:         -11.522
REMARK INTER:                 -10.768
REMARK INTRA:                  -0.755
REMARK UNBOUND:                -0.834
REMARK SMILES CC[C@@H](CNc1cc(-c2ccccc2)nc2ccnn12)OC
REMARK SMILES IDX 4 1 3 2 2 3 1 4 21 5 22 6 5 7 6 9 7 10 20 11 8 12 19 13
REMARK SMILES IDX 16 14 15 15 18 16 17 17 9 18 10 19 14 20 11 21 13 22 12 23
REMARK H PARENT 5 8
ROOT
ATOM      1  C   UNL     1       5.394  41.771  50.727  1.00  0.00     0.146 C 
ENDROOT
BRANCH   1   2
ATOM      2  C   UNL     1       6.037  41.614  49.330  1.00  0.00     0.136 C 
BRANCH   2   3
ATOM      3  C   UNL     1       6.563  42.942  48.750  1.00  0.00     0.030 C 
ATOM      4  C   UNL     1       7.950  43.343  49.236  1.00  0.00     0.007 C 
ENDBRANCH   2   3
BRANCH   2   5
ATOM      5  O   UNL     1       5.091  41.085  48.384  1.00  0.00    -0.380 OA
ATOM      6  C   UNL     1       5.396  41.443  47.041  1.00  0.00     0.195 C 
ENDBRANCH   2   5
ENDBRANCH   1   2
BRANCH   1   7
ATOM      7  N   UNL     1       4.463  42.890  50.806  1.00  0.00    -0.367 N 
ATOM      8  H   UNL     1       3.721  42.868  50.112  1.00  0.00     0.162 HD
BRANCH   7   9
ATOM      9  C   UNL     1       4.625  44.110  51.472  1.00  0.00     0.132 A 
ATOM     10  C   UNL     1       5.860  44.551  51.784  1.00  0.00     0.075 A 
ATOM     11  N   UNL     1       3.520  44.939  51.833  1.00  0.00    -0.199 N 
ATOM     12  C   UNL     1       5.980  45.866  52.491  1.00  0.00     0.076 A 
ATOM     13  N   UNL     1       2.179  44.725  51.647  1.00  0.00    -0.173 NA
ATOM     14  C   UNL     1       3.733  46.170  52.479  1.00  0.00     0.157 A 
ATOM     15  N   UNL     1       4.974  46.632  52.801  1.00  0.00    -0.228 NA
ATOM     16  C   UNL     1       1.585  45.804  52.154  1.00  0.00     0.138 A 
ATOM     17  C   UNL     1       2.492  46.728  52.681  1.00  0.00     0.071 A 
BRANCH  12  18
ATOM     18  C   UNL     1       7.360  46.316  52.829  1.00  0.00     0.000 A 
ATOM     19  C   UNL     1       8.330  46.317  51.818  1.00  0.00     0.010 A 
ATOM     20  C   UNL     1       7.699  46.765  54.112  1.00  0.00     0.010 A 
ATOM     21  C   UNL     1       9.633  46.734  52.094  1.00  0.00     0.001 A 
ATOM     22  C   UNL     1       9.004  47.183  54.383  1.00  0.00     0.001 A 
ATOM     23  C   UNL     1       9.970  47.163  53.378  1.00  0.00     0.000 A 
ENDBRANCH  12  18
ENDBRANCH   7   9
ENDBRANCH   1   7
TORSDOF 6
ENDMDL
MODEL 6
REMARK VINA RESULT:    -7.876      1.040      1.919
REMARK INTER + INTRA:         -11.473
REMARK INTER:                 -10.896
REMARK INTRA:                  -0.577
REMARK UNBOUND:                -0.834
REMARK SMILES CC[C@@H](CNc1cc(-c2ccccc2)nc2ccnn12)OC
REMARK SMILES IDX 4 1 3 2 2 3 1 4 21 5 22 6 5 7 6 9 7 10 20 11 8 12 19 13
REMARK SMILES IDX 16 14 15 15 18 16 17 17 9 18 10 19 14 20 11 21 13 22 12 23
REMARK H PARENT 5 8
ROOT
ATOM      1  C   UNL     1       7.383  47.338  53.233  1.00  0.00     0.146 C 
ENDROOT
BRANCH   1   2
ATOM      2  C   UNL     1       8.680  46.511  53.084  1.00  0.00     0.136 C 
BRANCH   2   3
ATOM      3  C   UNL     1       9.898  47.162  53.769  1.00  0.00     0.030 C 
ATOM      4  C   UNL     1       9.574  47.934  55.042  1.00  0.00     0.007 C 
ENDBRANCH   2   3
BRANCH   2   5
ATOM      5  O   UNL     1       9.021  46.331  51.698  1.00  0.00    -0.380 OA
ATOM      6  C   UNL     1      10.282  45.698  51.518  1.00  0.00     0.195 C 
ENDBRANCH   2   5
ENDBRANCH   1   2
BRANCH   1   7
ATOM      7  N   UNL     1       6.359  46.661  54.021  1.00  0.00    -0.367 N 
ATOM      8  H   UNL     1       6.505  46.707  55.025  1.00  0.00     0.162 HD
BRANCH   7   9
ATOM      9  C   UNL     1       5.413  45.723  53.593  1.00  0.00     0.132 A 
ATOM     10  C   UNL     1       5.685  44.917  52.547  1.00  0.00     0.075 A 
ATOM     11  N   UNL     1       4.149  45.562  54.235  1.00  0.00    -0.199 N 
ATOM     12  C   UNL     1       4.643  43.925  52.134  1.00  0.00     0.076 A 
ATOM     13  N   UNL     1       3.623  46.251  55.297  1.00  0.00    -0.173 NA
ATOM     14  C   UNL     1       3.239  44.588  53.788  1.00  0.00     0.157 A 
ATOM     15  N   UNL     1       3.498  43.764  52.733  1.00  0.00    -0.228 NA
ATOM     16  C   UNL     1       2.426  45.703  55.504  1.00  0.00     0.138 A 
ATOM     17  C   UNL     1       2.135  44.674  54.603  1.00  0.00     0.071 A 
BRANCH  12  18
ATOM     18  C   UNL     1       4.975  43.057  50.968  1.00  0.00     0.000 A 
ATOM     19  C   UNL     1       6.074  43.401  50.170  1.00  0.00     0.010 A 
ATOM     20  C   UNL     1       4.241  41.901  50.673  1.00  0.00     0.010 A 
ATOM     21  C   UNL     1       6.418  42.613  49.071  1.00  0.00     0.001 A 
ATOM     22  C   UNL     1       4.591  41.114  49.573  1.00  0.00     0.001 A 
ATOM     23  C   UNL     1       5.674  41.472  48.771  1.00  0.00     0.000 A 
ENDBRANCH  12  18
ENDBRANCH   7   9
ENDBRANCH   1   7
TORSDOF 6
ENDMDL
MODEL 7
REMARK VINA RESULT:    -7.869      2.659      6.418
REMARK INTER + INTRA:         -11.464
REMARK INTER:                 -10.508
REMARK INTRA:                  -0.955
REMARK UNBOUND:                -0.834
REMARK SMILES CC[C@@H](CNc1cc(-c2ccccc2)nc2ccnn12)OC
REMARK SMILES IDX 4 1 3 2 2 3 1 4 21 5 22 6 5 7 6 9 7 10 20 11 8 12 19 13
REMARK SMILES IDX 16 14 15 15 18 16 17 17 9 18 10 19 14 20 11 21 13 22 12 23
REMARK H PARENT 5 8
ROOT
ATOM      1  C   UNL     1       1.732  43.144  52.536  1.00  0.00     0.146 C 
ENDROOT
BRANCH   1   2
ATOM      2  C   UNL     1       1.284  44.351  53.390  1.00  0.00     0.136 C 
BRANCH   2   3
ATOM      3  C   UNL     1       1.110  45.645  52.569  1.00  0.00     0.030 C 
ATOM      4  C   UNL     1       2.340  46.544  52.532  1.00  0.00     0.007 C 
ENDBRANCH   2   3
BRANCH   2   5
ATOM      5  O   UNL     1       2.241  44.634  54.427  1.00  0.00    -0.380 OA
ATOM      6  C   UNL     1       1.634  44.826  55.699  1.00  0.00     0.195 C 
ENDBRANCH   2   5
ENDBRANCH   1   2
BRANCH   1   7
ATOM      7  N   UNL     1       3.142  42.813  52.710  1.00  0.00    -0.367 N 
ATOM      8  H   UNL     1       3.384  42.484  53.639  1.00  0.00     0.162 HD
BRANCH   7   9
ATOM      9  C   UNL     1       4.225  43.173  51.900  1.00  0.00     0.132 A 
ATOM     10  C   UNL     1       4.958  44.265  52.196  1.00  0.00     0.075 A 
ATOM     11  N   UNL     1       4.612  42.413  50.755  1.00  0.00    -0.199 N 
ATOM     12  C   UNL     1       6.111  44.602  51.302  1.00  0.00     0.076 A 
ATOM     13  N   UNL     1       4.039  41.283  50.231  1.00  0.00    -0.173 NA
ATOM     14  C   UNL     1       5.723  42.797  49.985  1.00  0.00     0.157 A 
ATOM     15  N   UNL     1       6.476  43.898  50.270  1.00  0.00    -0.228 NA
ATOM     16  C   UNL     1       4.790  40.975  49.175  1.00  0.00     0.138 A 
ATOM     17  C   UNL     1       5.841  41.873  48.973  1.00  0.00     0.071 A 
BRANCH  12  18
ATOM     18  C   UNL     1       6.891  45.822  51.656  1.00  0.00     0.000 A 
ATOM     19  C   UNL     1       8.195  45.950  51.159  1.00  0.00     0.010 A 
ATOM     20  C   UNL     1       6.347  46.848  52.439  1.00  0.00     0.010 A 
ATOM     21  C   UNL     1       8.957  47.078  51.465  1.00  0.00     0.001 A 
ATOM     22  C   UNL     1       7.113  47.976  52.741  1.00  0.00     0.001 A 
ATOM     23  C   UNL     1       8.416  48.089  52.259  1.00  0.00     0.000 A 
ENDBRANCH  12  18
ENDBRANCH   7   9
ENDBRANCH   1   7
TORSDOF 6
ENDMDL
MODEL 8
REMARK VINA RESULT:    -7.801      1.935      4.483
REMARK INTER + INTRA:         -11.372
REMARK INTER:                 -10.781
REMARK INTRA:                  -0.591
REMARK UNBOUND:                -0.834
REMARK SMILES CC[C@@H](CNc1cc(-c2ccccc2)nc2ccnn12)OC
REMARK SMILES IDX 4 1 3 2 2 3 1 4 21 5 22 6 5 7 6 9 7 10 20 11 8 12 19 13
REMARK SMILES IDX 16 14 15 15 18 16 17 17 9 18 10 19 14 20 11 21 13 22 12 23
REMARK H PARENT 5 8
ROOT
ATOM      1  C   UNL     1       8.379  47.380  52.028  1.00  0.00     0.146 C 
ENDROOT
BRANCH   1   2
ATOM      2  C   UNL     1       8.841  46.730  53.352  1.00  0.00     0.136 C 
BRANCH   2   3
ATOM      3  C   UNL     1       9.210  47.759  54.439  1.00  0.00     0.030 C 
ATOM      4  C   UNL     1      10.396  47.366  55.310  1.00  0.00     0.007 C 
ENDBRANCH   2   3
BRANCH   2   5
ATOM      5  O   UNL     1       9.999  45.903  53.143  1.00  0.00    -0.380 OA
ATOM      6  C   UNL     1      10.496  45.976  51.812  1.00  0.00     0.195 C 
ENDBRANCH   2   5
ENDBRANCH   1   2
BRANCH   1   7
ATOM      7  N   UNL     1       6.975  47.126  51.725  1.00  0.00    -0.367 N 
ATOM      8  H   UNL     1       6.362  47.921  51.878  1.00  0.00     0.162 HD
BRANCH   7   9
ATOM      9  C   UNL     1       6.331  45.895  51.563  1.00  0.00     0.132 A 
ATOM     10  C   UNL     1       5.199  45.628  52.246  1.00  0.00     0.075 A 
ATOM     11  N   UNL     1       6.815  44.888  50.675  1.00  0.00    -0.199 N 
ATOM     12  C   UNL     1       4.545  44.299  52.030  1.00  0.00     0.076 A 
ATOM     13  N   UNL     1       7.933  44.896  49.882  1.00  0.00    -0.173 NA
ATOM     14  C   UNL     1       6.120  43.675  50.523  1.00  0.00     0.157 A 
ATOM     15  N   UNL     1       4.975  43.388  51.205  1.00  0.00    -0.228 NA
ATOM     16  C   UNL     1       7.916  43.724  49.250  1.00  0.00     0.138 A 
ATOM     17  C   UNL     1       6.823  42.929  49.606  1.00  0.00     0.071 A 
BRANCH  12  18
ATOM     18  C   UNL     1       3.302  44.036  52.811  1.00  0.00     0.000 A 
ATOM     19  C   UNL     1       2.977  44.900  53.864  1.00  0.00     0.010 A 
ATOM     20  C   UNL     1       2.442  42.974  52.498  1.00  0.00     0.010 A 
ATOM     21  C   UNL     1       1.821  44.688  54.616  1.00  0.00     0.001 A 
ATOM     22  C   UNL     1       1.285  42.768  53.252  1.00  0.00     0.001 A 
ATOM     23  C   UNL     1       0.977  43.620  54.312  1.00  0.00     0.000 A 
ENDBRANCH  12  18
ENDBRANCH   7   9
ENDBRANCH   1   7
TORSDOF 6
ENDMDL
MODEL 9
REMARK VINA RESULT:    -7.741      1.584      2.092
REMARK INTER + INTRA:         -11.290
REMARK INTER:                 -10.370
REMARK INTRA:                  -0.920
REMARK UNBOUND:                -0.834
REMARK SMILES CC[C@@H](CNc1cc(-c2ccccc2)nc2ccnn12)OC
REMARK SMILES IDX 4 1 3 2 2 3 1 4 21 5 22 6 5 7 6 9 7 10 20 11 8 12 19 13
REMARK SMILES IDX 16 14 15 15 18 16 17 17 9 18 10 19 14 20 11 21 13 22 12 23
REMARK H PARENT 5 8
ROOT
ATOM      1  C   UNL     1       6.262  45.882  54.924  1.00  0.00     0.146 C 
ENDROOT
BRANCH   1   2
ATOM      2  C   UNL     1       7.093  46.897  54.108  1.00  0.00     0.136 C 
BRANCH   2   3
ATOM      3  C   UNL     1       7.934  46.240  52.995  1.00  0.00     0.030 C 
ATOM      4  C   UNL     1       7.390  46.439  51.586  1.00  0.00     0.007 C 
ENDBRANCH   2   3
BRANCH   2   5
ATOM      5  O   UNL     1       8.005  47.618  54.957  1.00  0.00    -0.380 OA
ATOM      6  C   UNL     1       9.340  47.608  54.464  1.00  0.00     0.195 C 
ENDBRANCH   2   5
ENDBRANCH   1   2
BRANCH   1   7
ATOM      7  N   UNL     1       4.839  45.921  54.607  1.00  0.00    -0.367 N 
ATOM      8  H   UNL     1       4.301  46.571  55.171  1.00  0.00     0.162 HD
BRANCH   7   9
ATOM      9  C   UNL     1       4.086  44.993  53.879  1.00  0.00     0.132 A 
ATOM     10  C   UNL     1       4.642  44.333  52.843  1.00  0.00     0.075 A 
ATOM     11  N   UNL     1       2.727  44.691  54.196  1.00  0.00    -0.199 N 
ATOM     12  C   UNL     1       3.796  43.345  52.102  1.00  0.00     0.076 A 
ATOM     13  N   UNL     1       1.929  45.219  55.177  1.00  0.00    -0.173 NA
ATOM     14  C   UNL     1       2.017  43.731  53.454  1.00  0.00     0.157 A 
ATOM     15  N   UNL     1       2.564  43.055  52.404  1.00  0.00    -0.228 NA
ATOM     16  C   UNL     1       0.763  44.589  55.048  1.00  0.00     0.138 A 
ATOM     17  C   UNL     1       0.757  43.662  54.001  1.00  0.00     0.071 A 
BRANCH  12  18
ATOM     18  C   UNL     1       4.443  42.643  50.957  1.00  0.00     0.000 A 
ATOM     19  C   UNL     1       3.775  41.558  50.374  1.00  0.00     0.010 A 
ATOM     20  C   UNL     1       5.674  43.057  50.434  1.00  0.00     0.010 A 
ATOM     21  C   UNL     1       4.346  40.876  49.299  1.00  0.00     0.001 A 
ATOM     22  C   UNL     1       6.242  42.373  49.357  1.00  0.00     0.001 A 
ATOM     23  C   UNL     1       5.581  41.282  48.793  1.00  0.00     0.000 A 
ENDBRANCH  12  18
ENDBRANCH   7   9
ENDBRANCH   1   7
TORSDOF 6
ENDMDL
MODEL 10
REMARK VINA RESULT:    -7.682      2.558      6.465
REMARK INTER + INTRA:         -11.211
REMARK INTER:                 -10.475
REMARK INTRA:                  -0.736
REMARK UNBOUND:                -0.834
REMARK SMILES CC[C@@H](CNc1cc(-c2ccccc2)nc2ccnn12)OC
REMARK SMILES IDX 4 1 3 2 2 3 1 4 21 5 22 6 5 7 6 9 7 10 20 11 8 12 19 13
REMARK SMILES IDX 16 14 15 15 18 16 17 17 9 18 10 19 14 20 11 21 13 22 12 23
REMARK H PARENT 5 8
ROOT
ATOM      1  C   UNL     1       1.915  43.752  53.020  1.00  0.00     0.146 C 
ENDROOT
BRANCH   1   2
ATOM      2  C   UNL     1       2.025  44.600  54.306  1.00  0.00     0.136 C 
BRANCH   2   3
ATOM      3  C   UNL     1       0.735  44.596  55.151  1.00  0.00     0.030 C 
ATOM      4  C   UNL     1       0.844  45.330  56.481  1.00  0.00     0.007 C 
ENDBRANCH   2   3
BRANCH   2   5
ATOM      5  O   UNL     1       2.321  45.974  53.994  1.00  0.00    -0.380 OA
ATOM      6  C   UNL     1       1.917  46.339  52.680  1.00  0.00     0.195 C 
ENDBRANCH   2   5
ENDBRANCH   1   2
BRANCH   1   7
ATOM      7  N   UNL     1       3.106  42.953  52.757  1.00  0.00    -0.367 N 
ATOM      8  H   UNL     1       3.259  42.197  53.417  1.00  0.00     0.162 HD
BRANCH   7   9
ATOM      9  C   UNL     1       4.199  43.267  51.941  1.00  0.00     0.132 A 
ATOM     10  C   UNL     1       4.955  44.351  52.209  1.00  0.00     0.075 A 
ATOM     11  N   UNL     1       4.573  42.466  50.819  1.00  0.00    -0.199 N 
ATOM     12  C   UNL     1       6.117  44.638  51.310  1.00  0.00     0.076 A 
ATOM     13  N   UNL     1       3.978  41.334  50.326  1.00  0.00    -0.173 NA
ATOM     14  C   UNL     1       5.695  42.805  50.043  1.00  0.00     0.157 A 
ATOM     15  N   UNL     1       6.470  43.897  50.300  1.00  0.00    -0.228 NA
ATOM     16  C   UNL     1       4.725  40.981  49.282  1.00  0.00     0.138 A 
ATOM     17  C   UNL     1       5.797  41.850  49.058  1.00  0.00     0.071 A 
BRANCH  12  18
ATOM     18  C   UNL     1       6.923  45.850  51.632  1.00  0.00     0.000 A 
ATOM     19  C   UNL     1       6.357  46.830  52.458  1.00  0.00     0.010 A 
ATOM     20  C   UNL     1       8.231  46.017  51.159  1.00  0.00     0.010 A 
ATOM     21  C   UNL     1       7.081  47.978  52.784  1.00  0.00     0.001 A 
ATOM     22  C   UNL     1       8.952  47.166  51.489  1.00  0.00     0.001 A 
ATOM     23  C   UNL     1       8.376  48.147  52.297  1.00  0.00     0.000 A 
ENDBRANCH  12  18
ENDBRANCH   7   9
ENDBRANCH   1   7
TORSDOF 6
ENDMDL
MODEL 11
REMARK VINA RESULT:    -7.669      1.896      4.948
REMARK INTER + INTRA:         -11.193
REMARK INTER:                 -10.423
REMARK INTRA:                  -0.770
REMARK UNBOUND:                -0.834
REMARK SMILES CC[C@@H](CNc1cc(-c2ccccc2)nc2ccnn12)OC
REMARK SMILES IDX 4 1 3 2 2 3 1 4 21 5 22 6 5 7 6 9 7 10 20 11 8 12 19 13
REMARK SMILES IDX 16 14 15 15 18 16 17 17 9 18 10 19 14 20 11 21 13 22 12 23
REMARK H PARENT 5 8
ROOT
ATOM      1  C   UNL     1       7.414  46.043  51.705  1.00  0.00     0.146 C 
ENDROOT
BRANCH   1   2
ATOM      2  C   UNL     1       7.430  47.448  52.347  1.00  0.00     0.136 C 
BRANCH   2   3
ATOM      3  C   UNL     1       8.790  47.815  52.973  1.00  0.00     0.030 C 
ATOM      4  C   UNL     1       9.904  46.811  52.706  1.00  0.00     0.007 C 
ENDBRANCH   2   3
BRANCH   2   5
ATOM      5  O   UNL     1       6.443  47.551  53.389  1.00  0.00    -0.380 OA
ATOM      6  C   UNL     1       6.763  46.763  54.530  1.00  0.00     0.195 C 
ENDBRANCH   2   5
ENDBRANCH   1   2
BRANCH   1   7
ATOM      7  N   UNL     1       6.137  45.712  51.083  1.00  0.00    -0.367 N 
ATOM      8  H   UNL     1       5.776  46.427  50.460  1.00  0.00     0.162 HD
BRANCH   7   9
ATOM      9  C   UNL     1       5.219  44.723  51.456  1.00  0.00     0.132 A 
ATOM     10  C   UNL     1       4.254  45.000  52.356  1.00  0.00     0.075 A 
ATOM     11  N   UNL     1       5.244  43.406  50.905  1.00  0.00    -0.199 N 
ATOM     12  C   UNL     1       3.293  43.910  52.716  1.00  0.00     0.076 A 
ATOM     13  N   UNL     1       6.114  42.865  49.994  1.00  0.00    -0.173 NA
ATOM     14  C   UNL     1       4.286  42.453  51.290  1.00  0.00     0.157 A 
ATOM     15  N   UNL     1       3.304  42.716  52.198  1.00  0.00    -0.228 NA
ATOM     16  C   UNL     1       5.690  41.616  49.814  1.00  0.00     0.138 A 
ATOM     17  C   UNL     1       4.568  41.304  50.588  1.00  0.00     0.071 A 
BRANCH  12  18
ATOM     18  C   UNL     1       2.247  44.251  53.722  1.00  0.00     0.000 A 
ATOM     19  C   UNL     1       2.614  45.017  54.835  1.00  0.00     0.010 A 
ATOM     20  C   UNL     1       0.913  43.854  53.566  1.00  0.00     0.010 A 
ATOM     21  C   UNL     1       1.662  45.359  55.798  1.00  0.00     0.001 A 
ATOM     22  C   UNL     1      -0.036  44.200  54.530  1.00  0.00     0.001 A 
ATOM     23  C   UNL     1       0.339  44.948  55.646  1.00  0.00     0.000 A 
ENDBRANCH  12  18
ENDBRANCH   7   9
ENDBRANCH   1   7
TORSDOF 6
ENDMDL
MODEL 12
REMARK VINA RESULT:    -7.612      3.066      6.760
REMARK INTER + INTRA:         -11.117
REMARK INTER:                 -10.227
REMARK INTRA:                  -0.890
REMARK UNBOUND:                -0.834
REMARK SMILES CC[C@@H](CNc1cc(-c2ccccc2)nc2ccnn12)OC
REMARK SMILES IDX 4 1 3 2 2 3 1 4 21 5 22 6 5 7 6 9 7 10 20 11 8 12 19 13
REMARK SMILES IDX 16 14 15 15 18 16 17 17 9 18 10 19 14 20 11 21 13 22 12 23
REMARK H PARENT 5 8
ROOT
ATOM      1  C   UNL     1       1.790  43.036  52.579  1.00  0.00     0.146 C 
ENDROOT
BRANCH   1   2
ATOM      2  C   UNL     1       1.508  44.410  51.931  1.00  0.00     0.136 C 
BRANCH   2   3
ATOM      3  C   UNL     1       1.529  45.575  52.942  1.00  0.00     0.030 C 
ATOM      4  C   UNL     1       2.461  46.721  52.570  1.00  0.00     0.007 C 
ENDBRANCH   2   3
BRANCH   2   5
ATOM      5  O   UNL     1       0.216  44.425  51.296  1.00  0.00    -0.380 OA
ATOM      6  C   UNL     1      -0.486  43.197  51.447  1.00  0.00     0.195 C 
ENDBRANCH   2   5
ENDBRANCH   1   2
BRANCH   1   7
ATOM      7  N   UNL     1       3.213  42.769  52.756  1.00  0.00    -0.367 N 
ATOM      8  H   UNL     1       3.471  42.477  53.694  1.00  0.00     0.162 HD
BRANCH   7   9
ATOM      9  C   UNL     1       4.278  43.150  51.932  1.00  0.00     0.132 A 
ATOM     10  C   UNL     1       5.004  44.247  52.229  1.00  0.00     0.075 A 
ATOM     11  N   UNL     1       4.654  42.407  50.772  1.00  0.00    -0.199 N 
ATOM     12  C   UNL     1       6.137  44.607  51.319  1.00  0.00     0.076 A 
ATOM     13  N   UNL     1       4.085  41.277  50.245  1.00  0.00    -0.173 NA
ATOM     14  C   UNL     1       5.748  42.813  49.988  1.00  0.00     0.157 A 
ATOM     15  N   UNL     1       6.493  43.919  50.273  1.00  0.00    -0.228 NA
ATOM     16  C   UNL     1       4.821  40.990  49.173  1.00  0.00     0.138 A 
ATOM     17  C   UNL     1       5.859  41.902  48.964  1.00  0.00     0.071 A 
BRANCH  12  18
ATOM     18  C   UNL     1       6.910  45.832  51.673  1.00  0.00     0.000 A 
ATOM     19  C   UNL     1       8.207  45.975  51.164  1.00  0.00     0.010 A 
ATOM     20  C   UNL     1       6.365  46.848  52.469  1.00  0.00     0.010 A 
ATOM     21  C   UNL     1       8.962  47.109  51.470  1.00  0.00     0.001 A 
ATOM     22  C   UNL     1       7.123  47.981  52.772  1.00  0.00     0.001 A 
ATOM     23  C   UNL     1       8.420  48.109  52.277  1.00  0.00     0.000 A 
ENDBRANCH  12  18
ENDBRANCH   7   9
ENDBRANCH   1   7
TORSDOF 6
ENDMDL
MODEL 13
REMARK VINA RESULT:    -7.609      2.330      5.962
REMARK INTER + INTRA:         -11.112
REMARK INTER:                 -10.434
REMARK INTRA:                  -0.679
REMARK UNBOUND:                -0.834
REMARK SMILES CC[C@@H](CNc1cc(-c2ccccc2)nc2ccnn12)OC
REMARK SMILES IDX 4 1 3 2 2 3 1 4 21 5 22 6 5 7 6 9 7 10 20 11 8 12 19 13
REMARK SMILES IDX 16 14 15 15 18 16 17 17 9 18 10 19 14 20 11 21 13 22 12 23
REMARK H PARENT 5 8
ROOT
ATOM      1  C   UNL     1       4.215  41.785  51.234  1.00  0.00     0.146 C 
ENDROOT
BRANCH   1   2
ATOM      2  C   UNL     1       4.473  41.543  49.730  1.00  0.00     0.136 C 
BRANCH   2   3
ATOM      3  C   UNL     1       3.626  40.395  49.145  1.00  0.00     0.030 C 
ATOM      4  C   UNL     1       3.670  40.284  47.626  1.00  0.00     0.007 C 
ENDBRANCH   2   3
BRANCH   2   5
ATOM      5  O   UNL     1       5.853  41.215  49.489  1.00  0.00    -0.380 OA
ATOM      6  C   UNL     1       6.720  42.333  49.643  1.00  0.00     0.195 C 
ENDBRANCH   2   5
ENDBRANCH   1   2
BRANCH   1   7
ATOM      7  N   UNL     1       3.677  43.111  51.517  1.00  0.00    -0.367 N 
ATOM      8  H   UNL     1       3.049  43.469  50.804  1.00  0.00     0.162 HD
BRANCH   7   9
ATOM      9  C   UNL     1       4.135  44.054  52.443  1.00  0.00     0.132 A 
ATOM     10  C   UNL     1       5.366  44.589  52.312  1.00  0.00     0.075 A 
ATOM     11  N   UNL     1       3.337  44.503  53.538  1.00  0.00    -0.199 N 
ATOM     12  C   UNL     1       5.805  45.600  53.325  1.00  0.00     0.076 A 
ATOM     13  N   UNL     1       2.073  44.119  53.904  1.00  0.00    -0.173 NA
ATOM     14  C   UNL     1       3.828  45.474  54.429  1.00  0.00     0.157 A 
ATOM     15  N   UNL     1       5.070  46.024  54.312  1.00  0.00    -0.228 NA
ATOM     16  C   UNL     1       1.791  44.847  54.984  1.00  0.00     0.138 A 
ATOM     17  C   UNL     1       2.836  45.698  55.355  1.00  0.00     0.071 A 
BRANCH  12  18
ATOM     18  C   UNL     1       7.176  46.160  53.154  1.00  0.00     0.000 A 
ATOM     19  C   UNL     1       7.766  46.110  51.885  1.00  0.00     0.010 A 
ATOM     20  C   UNL     1       7.868  46.759  54.214  1.00  0.00     0.010 A 
ATOM     21  C   UNL     1       9.046  46.627  51.683  1.00  0.00     0.001 A 
ATOM     22  C   UNL     1       9.149  47.277  54.008  1.00  0.00     0.001 A 
ATOM     23  C   UNL     1       9.739  47.207  52.746  1.00  0.00     0.000 A 
ENDBRANCH  12  18
ENDBRANCH   7   9
ENDBRANCH   1   7
TORSDOF 6
ENDMDL
MODEL 14
REMARK VINA RESULT:    -7.568      2.118      5.049
REMARK INTER + INTRA:         -11.058
REMARK INTER:                 -10.353
REMARK INTRA:                  -0.705
REMARK UNBOUND:                -0.834
REMARK SMILES CC[C@@H](CNc1cc(-c2ccccc2)nc2ccnn12)OC
REMARK SMILES IDX 4 1 3 2 2 3 1 4 21 5 22 6 5 7 6 9 7 10 20 11 8 12 19 13
REMARK SMILES IDX 16 14 15 15 18 16 17 17 9 18 10 19 14 20 11 21 13 22 12 23
REMARK H PARENT 5 8
ROOT
ATOM      1  C   UNL     1       4.004  45.524  55.112  1.00  0.00     0.146 C 
ENDROOT
BRANCH   1   2
ATOM      2  C   UNL     1       2.481  45.648  54.882  1.00  0.00     0.136 C 
BRANCH   2   3
ATOM      3  C   UNL     1       1.643  44.963  55.980  1.00  0.00     0.030 C 
ATOM      4  C   UNL     1       0.159  45.308  55.955  1.00  0.00     0.007 C 
ENDBRANCH   2   3
BRANCH   2   5
ATOM      5  O   UNL     1       2.099  45.055  53.628  1.00  0.00    -0.380 OA
ATOM      6  C   UNL     1       1.628  46.013  52.687  1.00  0.00     0.195 C 
ENDBRANCH   2   5
ENDBRANCH   1   2
BRANCH   1   7
ATOM      7  N   UNL     1       4.787  46.388  54.237  1.00  0.00    -0.367 N 
ATOM      8  H   UNL     1       4.544  47.372  54.293  1.00  0.00     0.162 HD
BRANCH   7   9
ATOM      9  C   UNL     1       5.579  46.027  53.141  1.00  0.00     0.132 A 
ATOM     10  C   UNL     1       5.266  44.938  52.410  1.00  0.00     0.075 A 
ATOM     11  N   UNL     1       6.721  46.783  52.738  1.00  0.00    -0.199 N 
ATOM     12  C   UNL     1       6.140  44.599  51.243  1.00  0.00     0.076 A 
ATOM     13  N   UNL     1       7.259  47.908  53.306  1.00  0.00    -0.173 NA
ATOM     14  C   UNL     1       7.472  46.397  51.614  1.00  0.00     0.157 A 
ATOM     15  N   UNL     1       7.170  45.300  50.864  1.00  0.00    -0.228 NA
ATOM     16  C   UNL     1       8.305  48.213  52.539  1.00  0.00     0.138 A 
ATOM     17  C   UNL     1       8.487  47.316  51.483  1.00  0.00     0.071 A 
BRANCH  12  18
ATOM     18  C   UNL     1       5.769  43.383  50.465  1.00  0.00     0.000 A 
ATOM     19  C   UNL     1       4.686  42.612  50.905  1.00  0.00     0.010 A 
ATOM     20  C   UNL     1       6.450  43.015  49.297  1.00  0.00     0.010 A 
ATOM     21  C   UNL     1       4.305  41.467  50.202  1.00  0.00     0.001 A 
ATOM     22  C   UNL     1       6.065  41.870  48.596  1.00  0.00     0.001 A 
ATOM     23  C   UNL     1       4.997  41.095  49.050  1.00  0.00     0.000 A 
ENDBRANCH  12  18
ENDBRANCH   7   9
ENDBRANCH   1   7
TORSDOF 6
ENDMDL
MODEL 15
REMARK VINA RESULT:    -7.500      1.917      4.928
REMARK INTER + INTRA:         -10.966
REMARK INTER:                 -10.356
REMARK INTRA:                  -0.610
REMARK UNBOUND:                -0.834
REMARK SMILES CC[C@@H](CNc1cc(-c2ccccc2)nc2ccnn12)OC
REMARK SMILES IDX 4 1 3 2 2 3 1 4 21 5 22 6 5 7 6 9 7 10 20 11 8 12 19 13
REMARK SMILES IDX 16 14 15 15 18 16 17 17 9 18 10 19 14 20 11 21 13 22 12 23
REMARK H PARENT 5 8
ROOT
ATOM      1  C   UNL     1       7.366  46.736  51.618  1.00  0.00     0.146 C 
ENDROOT
BRANCH   1   2
ATOM      2  C   UNL     1       8.665  46.564  52.437  1.00  0.00     0.136 C 
BRANCH   2   3
ATOM      3  C   UNL     1       8.813  47.602  53.567  1.00  0.00     0.030 C 
ATOM      4  C   UNL     1       9.944  47.317  54.547  1.00  0.00     0.007 C 
ENDBRANCH   2   3
BRANCH   2   5
ATOM      5  O   UNL     1       9.825  46.688  51.595  1.00  0.00    -0.380 OA
ATOM      6  C   UNL     1      10.582  45.486  51.520  1.00  0.00     0.195 C 
ENDBRANCH   2   5
ENDBRANCH   1   2
BRANCH   1   7
ATOM      7  N   UNL     1       6.985  45.532  50.889  1.00  0.00    -0.367 N 
ATOM      8  H   UNL     1       7.346  45.484  49.941  1.00  0.00     0.162 HD
BRANCH   7   9
ATOM      9  C   UNL     1       5.970  44.617  51.191  1.00  0.00     0.132 A 
ATOM     10  C   UNL     1       5.051  44.914  52.132  1.00  0.00     0.075 A 
ATOM     11  N   UNL     1       5.846  43.361  50.525  1.00  0.00    -0.199 N 
ATOM     12  C   UNL     1       3.981  43.905  52.413  1.00  0.00     0.076 A 
ATOM     13  N   UNL     1       6.642  42.814  49.552  1.00  0.00    -0.173 NA
ATOM     14  C   UNL     1       4.794  42.485  50.843  1.00  0.00     0.157 A 
ATOM     15  N   UNL     1       3.856  42.768  51.791  1.00  0.00    -0.228 NA
ATOM     16  C   UNL     1       6.083  41.638  49.271  1.00  0.00     0.138 A 
ATOM     17  C   UNL     1       4.942  41.381  50.037  1.00  0.00     0.071 A 
BRANCH  12  18
ATOM     18  C   UNL     1       2.989  44.264  53.466  1.00  0.00     0.000 A 
ATOM     19  C   UNL     1       3.384  45.135  54.489  1.00  0.00     0.010 A 
ATOM     20  C   UNL     1       1.674  43.781  53.440  1.00  0.00     0.010 A 
ATOM     21  C   UNL     1       2.483  45.497  55.492  1.00  0.00     0.001 A 
ATOM     22  C   UNL     1       0.775  44.147  54.445  1.00  0.00     0.001 A 
ATOM     23  C   UNL     1       1.180  45.000  55.471  1.00  0.00     0.000 A 
ENDBRANCH  12  18
ENDBRANCH   7   9
ENDBRANCH   1   7
TORSDOF 6
ENDMDL
MODEL 16
REMARK VINA RESULT:    -7.495      2.827      6.596
REMARK INTER + INTRA:         -10.958
REMARK INTER:                 -10.357
REMARK INTRA:                  -0.601
REMARK UNBOUND:                -0.834
REMARK SMILES CC[C@@H](CNc1cc(-c2ccccc2)nc2ccnn12)OC
REMARK SMILES IDX 4 1 3 2 2 3 1 4 21 5 22 6 5 7 6 9 7 10 20 11 8 12 19 13
REMARK SMILES IDX 16 14 15 15 18 16 17 17 9 18 10 19 14 20 11 21 13 22 12 23
REMARK H PARENT 5 8
ROOT
ATOM      1  C   UNL     1       1.874  45.604  55.515  1.00  0.00     0.146 C 
ENDROOT
BRANCH   1   2
ATOM      2  C   UNL     1       0.807  44.830  56.320  1.00  0.00     0.136 C 
BRANCH   2   3
ATOM      3  C   UNL     1      -0.575  44.810  55.635  1.00  0.00     0.030 C 
ATOM      4  C   UNL     1      -0.673  43.882  54.431  1.00  0.00     0.007 C 
ENDBRANCH   2   3
BRANCH   2   5
ATOM      5  O   UNL     1       0.623  45.410  57.624  1.00  0.00    -0.380 OA
ATOM      6  C   UNL     1      -0.168  46.592  57.595  1.00  0.00     0.195 C 
ENDBRANCH   2   5
ENDBRANCH   1   2
BRANCH   1   7
ATOM      7  N   UNL     1       3.135  44.881  55.394  1.00  0.00    -0.367 N 
ATOM      8  H   UNL     1       3.554  44.618  56.281  1.00  0.00     0.162 HD
BRANCH   7   9
ATOM      9  C   UNL     1       3.977  44.783  54.280  1.00  0.00     0.132 A 
ATOM     10  C   UNL     1       5.153  45.441  54.261  1.00  0.00     0.075 A 
ATOM     11  N   UNL     1       3.650  43.987  53.141  1.00  0.00    -0.199 N 
ATOM     12  C   UNL     1       6.020  45.296  53.049  1.00  0.00     0.076 A 
ATOM     13  N   UNL     1       2.528  43.237  52.901  1.00  0.00    -0.173 NA
ATOM     14  C   UNL     1       4.539  43.896  52.055  1.00  0.00     0.157 A 
ATOM     15  N   UNL     1       5.732  44.554  52.019  1.00  0.00    -0.228 NA
ATOM     16  C   UNL     1       2.730  42.690  51.704  1.00  0.00     0.138 A 
ATOM     17  C   UNL     1       3.952  43.061  51.134  1.00  0.00     0.071 A 
BRANCH  12  18
ATOM     18  C   UNL     1       7.309  46.047  53.060  1.00  0.00     0.000 A 
ATOM     19  C   UNL     1       7.681  46.721  54.230  1.00  0.00     0.010 A 
ATOM     20  C   UNL     1       8.163  46.067  51.949  1.00  0.00     0.010 A 
ATOM     21  C   UNL     1       8.881  47.432  54.280  1.00  0.00     0.001 A 
ATOM     22  C   UNL     1       9.363  46.778  52.005  1.00  0.00     0.001 A 
ATOM     23  C   UNL     1       9.719  47.463  53.166  1.00  0.00     0.000 A 
ENDBRANCH  12  18
ENDBRANCH   7   9
ENDBRANCH   1   7
TORSDOF 6
ENDMDL
MODEL 17
REMARK VINA RESULT:    -7.479      3.243      6.581
REMARK INTER + INTRA:         -10.937
REMARK INTER:                 -10.346
REMARK INTRA:                  -0.591
REMARK UNBOUND:                -0.834
REMARK SMILES CC[C@@H](CNc1cc(-c2ccccc2)nc2ccnn12)OC
REMARK SMILES IDX 4 1 3 2 2 3 1 4 21 5 22 6 5 7 6 9 7 10 20 11 8 12 19 13
REMARK SMILES IDX 16 14 15 15 18 16 17 17 9 18 10 19 14 20 11 21 13 22 12 23
REMARK H PARENT 5 8
ROOT
ATOM      1  C   UNL     1       2.344  45.691  56.099  1.00  0.00     0.146 C 
ENDROOT
BRANCH   1   2
ATOM      2  C   UNL     1       1.036  44.901  56.326  1.00  0.00     0.136 C 
BRANCH   2   3
ATOM      3  C   UNL     1       0.003  45.099  55.199  1.00  0.00     0.030 C 
ATOM      4  C   UNL     1      -0.981  43.948  55.030  1.00  0.00     0.007 C 
ENDBRANCH   2   3
BRANCH   2   5
ATOM      5  O   UNL     1       0.401  45.298  57.555  1.00  0.00    -0.380 OA
ATOM      6  C   UNL     1       0.932  46.507  58.084  1.00  0.00     0.195 C 
ENDBRANCH   2   5
ENDBRANCH   1   2
BRANCH   1   7
ATOM      7  N   UNL     1       3.341  44.942  55.342  1.00  0.00    -0.367 N 
ATOM      8  H   UNL     1       3.706  44.126  55.823  1.00  0.00     0.162 HD
BRANCH   7   9
ATOM      9  C   UNL     1       4.069  45.353  54.220  1.00  0.00     0.132 A 
ATOM     10  C   UNL     1       5.372  45.677  54.340  1.00  0.00     0.075 A 
ATOM     11  N   UNL     1       3.489  45.434  52.918  1.00  0.00    -0.199 N 
ATOM     12  C   UNL     1       6.107  46.103  53.108  1.00  0.00     0.076 A 
ATOM     13  N   UNL     1       2.201  45.177  52.525  1.00  0.00    -0.173 NA
ATOM     14  C   UNL     1       4.266  45.827  51.814  1.00  0.00     0.157 A 
ATOM     15  N   UNL     1       5.584  46.157  51.917  1.00  0.00    -0.228 NA
ATOM     16  C   UNL     1       2.193  45.393  51.211  1.00  0.00     0.138 A 
ATOM     17  C   UNL     1       3.436  45.797  50.717  1.00  0.00     0.071 A 
BRANCH  12  18
ATOM     18  C   UNL     1       7.544  46.463  53.281  1.00  0.00     0.000 A 
ATOM     19  C   UNL     1       8.440  46.157  52.250  1.00  0.00     0.010 A 
ATOM     20  C   UNL     1       8.008  47.122  54.427  1.00  0.00     0.010 A 
ATOM     21  C   UNL     1       9.792  46.480  52.373  1.00  0.00     0.001 A 
ATOM     22  C   UNL     1       9.362  47.446  54.546  1.00  0.00     0.001 A 
ATOM     23  C   UNL     1      10.253  47.121  53.523  1.00  0.00     0.000 A 
ENDBRANCH  12  18
ENDBRANCH   7   9
ENDBRANCH   1   7
TORSDOF 6
ENDMDL
MODEL 18
REMARK VINA RESULT:    -7.242      2.711      5.851
REMARK INTER + INTRA:         -10.617
REMARK INTER:                  -9.810
REMARK INTRA:                  -0.807
REMARK UNBOUND:                -0.834
REMARK SMILES CC[C@@H](CNc1cc(-c2ccccc2)nc2ccnn12)OC
REMARK SMILES IDX 4 1 3 2 2 3 1 4 21 5 22 6 5 7 6 9 7 10 20 11 8 12 19 13
REMARK SMILES IDX 16 14 15 15 18 16 17 17 9 18 10 19 14 20 11 21 13 22 12 23
REMARK H PARENT 5 8
ROOT
ATOM      1  C   UNL     1       2.114  44.291  50.821  1.00  0.00     0.146 C 
ENDROOT
BRANCH   1   2
ATOM      2  C   UNL     1       2.611  43.043  51.583  1.00  0.00     0.136 C 
BRANCH   2   3
ATOM      3  C   UNL     1       3.076  41.906  50.651  1.00  0.00     0.030 C 
ATOM      4  C   UNL     1       4.560  41.574  50.745  1.00  0.00     0.007 C 
ENDBRANCH   2   3
BRANCH   2   5
ATOM      5  O   UNL     1       1.574  42.504  52.423  1.00  0.00    -0.380 OA
ATOM      6  C   UNL     1       0.286  43.019  52.106  1.00  0.00     0.195 C 
ENDBRANCH   2   5
ENDBRANCH   1   2
BRANCH   1   7
ATOM      7  N   UNL     1       2.813  45.512  51.203  1.00  0.00    -0.367 N 
ATOM      8  H   UNL     1       2.864  46.214  50.471  1.00  0.00     0.162 HD
BRANCH   7   9
ATOM      9  C   UNL     1       3.668  45.719  52.292  1.00  0.00     0.132 A 
ATOM     10  C   UNL     1       4.984  45.931  52.088  1.00  0.00     0.075 A 
ATOM     11  N   UNL     1       3.202  45.733  53.641  1.00  0.00    -0.199 N 
ATOM     12  C   UNL     1       5.854  46.154  53.286  1.00  0.00     0.076 A 
ATOM     13  N   UNL     1       1.933  45.536  54.121  1.00  0.00    -0.173 NA
ATOM     14  C   UNL     1       4.093  45.971  54.702  1.00  0.00     0.157 A 
ATOM     15  N   UNL     1       5.425  46.187  54.515  1.00  0.00    -0.228 NA
ATOM     16  C   UNL     1       2.042  45.663  55.442  1.00  0.00     0.138 A 
ATOM     17  C   UNL     1       3.349  45.931  55.858  1.00  0.00     0.071 A 
BRANCH  12  18
ATOM     18  C   UNL     1       7.305  46.374  53.022  1.00  0.00     0.000 A 
ATOM     19  C   UNL     1       7.780  46.211  51.714  1.00  0.00     0.010 A 
ATOM     20  C   UNL     1       8.190  46.768  54.034  1.00  0.00     0.010 A 
ATOM     21  C   UNL     1       9.131  46.411  51.426  1.00  0.00     0.001 A 
ATOM     22  C   UNL     1       9.541  46.969  53.741  1.00  0.00     0.001 A 
ATOM     23  C   UNL     1      10.011  46.787  52.441  1.00  0.00     0.000 A 
ENDBRANCH  12  18
ENDBRANCH   7   9
ENDBRANCH   1   7
TORSDOF 6
ENDMDL
MODEL 19
REMARK VINA RESULT:    -7.218      2.640      6.272
REMARK INTER + INTRA:         -10.584
REMARK INTER:                  -9.736
REMARK INTRA:                  -0.848
REMARK UNBOUND:                -0.834
REMARK SMILES CC[C@@H](CNc1cc(-c2ccccc2)nc2ccnn12)OC
REMARK SMILES IDX 4 1 3 2 2 3 1 4 21 5 22 6 5 7 6 9 7 10 20 11 8 12 19 13
REMARK SMILES IDX 16 14 15 15 18 16 17 17 9 18 10 19 14 20 11 21 13 22 12 23
REMARK H PARENT 5 8
ROOT
ATOM      1  C   UNL     1       1.398  45.439  53.032  1.00  0.00     0.146 C 
ENDROOT
BRANCH   1   2
ATOM      2  C   UNL     1       1.511  44.226  53.983  1.00  0.00     0.136 C 
BRANCH   2   3
ATOM      3  C   UNL     1       0.184  43.462  54.154  1.00  0.00     0.030 C 
ATOM      4  C   UNL     1      -0.081  42.402  53.091  1.00  0.00     0.007 C 
ENDBRANCH   2   3
BRANCH   2   5
ATOM      5  O   UNL     1       1.933  44.638  55.296  1.00  0.00    -0.380 OA
ATOM      6  C   UNL     1       2.964  45.619  55.261  1.00  0.00     0.195 C 
ENDBRANCH   2   5
ENDBRANCH   1   2
BRANCH   1   7
ATOM      7  N   UNL     1       2.056  45.222  51.748  1.00  0.00    -0.367 N 
ATOM      8  H   UNL     1       1.424  45.193  50.953  1.00  0.00     0.162 HD
BRANCH   7   9
ATOM      9  C   UNL     1       3.350  44.750  51.504  1.00  0.00     0.132 A 
ATOM     10  C   UNL     1       4.413  45.556  51.700  1.00  0.00     0.075 A 
ATOM     11  N   UNL     1       3.609  43.418  51.061  1.00  0.00    -0.199 N 
ATOM     12  C   UNL     1       5.777  45.000  51.432  1.00  0.00     0.076 A 
ATOM     13  N   UNL     1       2.723  42.412  50.776  1.00  0.00    -0.173 NA
ATOM     14  C   UNL     1       4.928  42.978  50.853  1.00  0.00     0.157 A 
ATOM     15  N   UNL     1       6.014  43.779  51.047  1.00  0.00    -0.228 NA
ATOM     16  C   UNL     1       3.480  41.377  50.417  1.00  0.00     0.138 A 
ATOM     17  C   UNL     1       4.848  41.668  50.444  1.00  0.00     0.071 A 
BRANCH  12  18
ATOM     18  C   UNL     1       6.927  45.924  51.650  1.00  0.00     0.000 A 
ATOM     19  C   UNL     1       8.181  45.563  51.141  1.00  0.00     0.010 A 
ATOM     20  C   UNL     1       6.777  47.146  52.318  1.00  0.00     0.010 A 
ATOM     21  C   UNL     1       9.281  46.403  51.323  1.00  0.00     0.001 A 
ATOM     22  C   UNL     1       7.881  47.984  52.496  1.00  0.00     0.001 A 
ATOM     23  C   UNL     1       9.131  47.611  52.003  1.00  0.00     0.000 A 
ENDBRANCH  12  18
ENDBRANCH   7   9
ENDBRANCH   1   7
TORSDOF 6
ENDMDL
MODEL 20
REMARK VINA RESULT:    -7.163      2.097      4.930
REMARK INTER + INTRA:         -10.510
REMARK INTER:                  -9.619
REMARK INTRA:                  -0.892
REMARK UNBOUND:                -0.834
REMARK SMILES CC[C@@H](CNc1cc(-c2ccccc2)nc2ccnn12)OC
REMARK SMILES IDX 4 1 3 2 2 3 1 4 21 5 22 6 5 7 6 9 7 10 20 11 8 12 19 13
REMARK SMILES IDX 16 14 15 15 18 16 17 17 9 18 10 19 14 20 11 21 13 22 12 23
REMARK H PARENT 5 8
ROOT
ATOM      1  C   UNL     1       6.604  46.678  51.996  1.00  0.00     0.146 C 
ENDROOT
BRANCH   1   2
ATOM      2  C   UNL     1       7.438  46.622  53.295  1.00  0.00     0.136 C 
BRANCH   2   3
ATOM      3  C   UNL     1       6.593  46.313  54.547  1.00  0.00     0.030 C 
ATOM      4  C   UNL     1       5.289  47.096  54.643  1.00  0.00     0.007 C 
ENDBRANCH   2   3
BRANCH   2   5
ATOM      5  O   UNL     1       8.105  47.875  53.535  1.00  0.00    -0.380 OA
ATOM      6  C   UNL     1       9.189  47.756  54.448  1.00  0.00     0.195 C 
ENDBRANCH   2   5
ENDBRANCH   1   2
BRANCH   1   7
ATOM      7  N   UNL     1       6.522  45.392  51.313  1.00  0.00    -0.367 N 
ATOM      8  H   UNL     1       7.146  45.299  50.517  1.00  0.00     0.162 HD
BRANCH   7   9
ATOM      9  C   UNL     1       5.516  44.424  51.402  1.00  0.00     0.132 A 
ATOM     10  C   UNL     1       4.439  44.637  52.185  1.00  0.00     0.075 A 
ATOM     11  N   UNL     1       5.566  43.196  50.675  1.00  0.00    -0.199 N 
ATOM     12  C   UNL     1       3.387  43.573  52.240  1.00  0.00     0.076 A 
ATOM     13  N   UNL     1       6.539  42.730  49.829  1.00  0.00    -0.173 NA
ATOM     14  C   UNL     1       4.519  42.264  50.775  1.00  0.00     0.157 A 
ATOM     15  N   UNL     1       3.423  42.463  51.561  1.00  0.00    -0.228 NA
ATOM     16  C   UNL     1       6.092  41.547  49.411  1.00  0.00     0.138 A 
ATOM     17  C   UNL     1       4.853  41.206  49.961  1.00  0.00     0.071 A 
BRANCH  12  18
ATOM     18  C   UNL     1       2.216  43.841  53.123  1.00  0.00     0.000 A 
ATOM     19  C   UNL     1       1.092  43.012  53.015  1.00  0.00     0.010 A 
ATOM     20  C   UNL     1       2.225  44.871  54.073  1.00  0.00     0.010 A 
ATOM     21  C   UNL     1      -0.022  43.228  53.827  1.00  0.00     0.001 A 
ATOM     22  C   UNL     1       1.108  45.082  54.884  1.00  0.00     0.001 A 
ATOM     23  C   UNL     1      -0.015  44.265  54.758  1.00  0.00     0.000 A 
ENDBRANCH  12  18
ENDBRANCH   7   9
ENDBRANCH   1   7
TORSDOF 6
ENDMDL
