MODEL 1
REMARK VINA RESULT:    -7.616      0.000      0.000
REMARK INTER + INTRA:         -12.151
REMARK INTER:                 -11.178
REMARK INTRA:                  -0.973
REMARK UNBOUND:                -0.973
REMARK SMILES COCCNc1nc(Nc2ccc(OC)cc2OC)c2cnn(C)c2n1
REMARK SMILES IDX 6 1 7 2 8 3 20 4 21 5 22 6 23 7 24 8 25 9 26 10 5 11 4 13
REMARK SMILES IDX 3 14 2 15 1 16 9 17 10 19 11 20 17 21 12 22 16 23 13 24
REMARK SMILES IDX 18 25 19 26 14 27 15 28
REMARK H PARENT 5 12 9 18
ROOT
ATOM      1  C   UNL     1       3.594  42.554  51.397  1.00  0.00     0.226 A 
ATOM      2  N   UNL     1       4.482  43.524  51.100  1.00  0.00    -0.195 NA
ATOM      3  C   UNL     1       4.367  44.767  51.637  1.00  0.00     0.147 A 
ATOM      4  C   UNL     1       3.291  44.978  52.509  1.00  0.00     0.082 A 
ATOM      5  C   UNL     1       2.756  46.025  53.287  1.00  0.00     0.149 A 
ATOM      6  N   UNL     1       1.660  45.664  53.965  1.00  0.00    -0.179 NA
ATOM      7  N   UNL     1       1.490  44.370  53.607  1.00  0.00    -0.250 N 
ATOM      8  C   UNL     1       0.377  43.626  54.141  1.00  0.00     0.176 C 
ATOM      9  C   UNL     1       2.446  43.912  52.743  1.00  0.00     0.165 A 
ATOM     10  N   UNL     1       2.548  42.681  52.222  1.00  0.00    -0.193 NA
ENDROOT
BRANCH   1  11
ATOM     11  N   UNL     1       3.745  41.300  50.829  1.00  0.00    -0.352 N 
ATOM     12  H   UNL     1       3.717  40.610  51.571  1.00  0.00     0.163 HD
BRANCH  11  13
ATOM     13  C   UNL     1       4.827  41.171  49.866  1.00  0.00     0.144 C 
BRANCH  13  14
ATOM     14  C   UNL     1       4.283  40.821  48.470  1.00  0.00     0.181 C 
BRANCH  14  15
ATOM     15  O   UNL     1       3.143  39.956  48.470  1.00  0.00    -0.383 OA
ATOM     16  C   UNL     1       3.099  39.077  47.355  1.00  0.00     0.194 C 
ENDBRANCH  14  15
ENDBRANCH  13  14
ENDBRANCH  11  13
ENDBRANCH   1  11
BRANCH   3  17
ATOM     17  N   UNL     1       5.281  45.785  51.356  1.00  0.00    -0.336 N 
ATOM     18  H   UNL     1       5.020  46.408  50.599  1.00  0.00     0.168 HD
BRANCH  17  19
ATOM     19  C   UNL     1       6.511  46.171  51.929  1.00  0.00     0.083 A 
ATOM     20  C   UNL     1       6.626  46.767  53.185  1.00  0.00     0.034 A 
ATOM     21  C   UNL     1       7.693  45.947  51.180  1.00  0.00     0.146 A 
ATOM     22  C   UNL     1       7.877  47.136  53.688  1.00  0.00     0.049 A 
ATOM     23  C   UNL     1       8.944  46.319  51.691  1.00  0.00     0.095 A 
ATOM     24  C   UNL     1       9.038  46.917  52.948  1.00  0.00     0.122 A 
BRANCH  21  25
ATOM     25  O   UNL     1       7.490  45.350  49.952  1.00  0.00    -0.494 OA
ATOM     26  C   UNL     1       8.377  44.302  49.585  1.00  0.00     0.278 C 
ENDBRANCH  21  25
BRANCH  24  27
ATOM     27  O   UNL     1      10.188  47.327  53.565  1.00  0.00    -0.497 OA
ATOM     28  C   UNL     1      10.187  47.357  54.986  1.00  0.00     0.278 C 
ENDBRANCH  24  27
ENDBRANCH  17  19
ENDBRANCH   3  17
TORSDOF 8
ENDMDL
MODEL 2
REMARK VINA RESULT:    -7.597      2.332      4.867
REMARK INTER + INTRA:         -12.123
REMARK INTER:                 -11.132
REMARK INTRA:                  -0.992
REMARK UNBOUND:                -0.973
REMARK SMILES COCCNc1nc(Nc2ccc(OC)cc2OC)c2cnn(C)c2n1
REMARK SMILES IDX 6 1 7 2 8 3 20 4 21 5 22 6 23 7 24 8 25 9 26 10 5 11 4 13
REMARK SMILES IDX 3 14 2 15 1 16 9 17 10 19 11 20 17 21 12 22 16 23 13 24
REMARK SMILES IDX 18 25 19 26 14 27 15 28
REMARK H PARENT 5 12 9 18
ROOT
ATOM      1  C   UNL     1       4.291  43.761  51.828  1.00  0.00     0.226 A 
ATOM      2  N   UNL     1       5.010  44.871  52.086  1.00  0.00    -0.195 NA
ATOM      3  C   UNL     1       6.130  45.161  51.372  1.00  0.00     0.147 A 
ATOM      4  C   UNL     1       6.485  44.257  50.364  1.00  0.00     0.082 A 
ATOM      5  C   UNL     1       7.496  44.105  49.393  1.00  0.00     0.149 A 
ATOM      6  N   UNL     1       7.347  43.000  48.652  1.00  0.00    -0.179 NA
ATOM      7  N   UNL     1       6.229  42.435  49.164  1.00  0.00    -0.250 N 
ATOM      8  C   UNL     1       5.747  41.193  48.616  1.00  0.00     0.176 C 
ATOM      9  C   UNL     1       5.673  43.154  50.186  1.00  0.00     0.165 A 
ATOM     10  N   UNL     1       4.565  42.857  50.881  1.00  0.00    -0.193 NA
ENDROOT
BRANCH   1  11
ATOM     11  N   UNL     1       3.156  43.499  52.578  1.00  0.00    -0.352 N 
ATOM     12  H   UNL     1       2.446  43.125  51.959  1.00  0.00     0.163 HD
BRANCH  11  13
ATOM     13  C   UNL     1       2.735  44.564  53.475  1.00  0.00     0.144 C 
BRANCH  13  14
ATOM     14  C   UNL     1       1.410  45.188  53.005  1.00  0.00     0.181 C 
BRANCH  14  15
ATOM     15  O   UNL     1       1.549  46.420  52.291  1.00  0.00    -0.383 OA
ATOM     16  C   UNL     1       2.748  47.119  52.592  1.00  0.00     0.194 C 
ENDBRANCH  14  15
ENDBRANCH  13  14
ENDBRANCH  11  13
ENDBRANCH   1  11
BRANCH   3  17
ATOM     17  N   UNL     1       6.886  46.311  51.611  1.00  0.00    -0.336 N 
ATOM     18  H   UNL     1       6.628  47.123  51.061  1.00  0.00     0.168 HD
BRANCH  17  19
ATOM     19  C   UNL     1       7.941  46.614  52.498  1.00  0.00     0.083 A 
ATOM     20  C   UNL     1       9.283  46.352  52.220  1.00  0.00     0.034 A 
ATOM     21  C   UNL     1       7.616  47.208  53.742  1.00  0.00     0.146 A 
ATOM     22  C   UNL     1      10.279  46.666  53.148  1.00  0.00     0.049 A 
ATOM     23  C   UNL     1       8.620  47.521  54.669  1.00  0.00     0.095 A 
ATOM     24  C   UNL     1       9.956  47.249  54.373  1.00  0.00     0.122 A 
BRANCH  21  25
ATOM     25  O   UNL     1       6.268  47.437  53.933  1.00  0.00    -0.494 OA
ATOM     26  C   UNL     1       5.631  46.723  54.985  1.00  0.00     0.278 C 
ENDBRANCH  21  25
BRANCH  24  27
ATOM     27  O   UNL     1      11.031  47.502  55.181  1.00  0.00    -0.497 OA
ATOM     28  C   UNL     1      10.757  47.865  56.528  1.00  0.00     0.278 C 
ENDBRANCH  24  27
ENDBRANCH  17  19
ENDBRANCH   3  17
TORSDOF 8
ENDMDL
MODEL 3
REMARK VINA RESULT:    -7.580      2.195      4.451
REMARK INTER + INTRA:         -12.099
REMARK INTER:                 -11.352
REMARK INTRA:                  -0.747
REMARK UNBOUND:                -0.973
REMARK SMILES COCCNc1nc(Nc2ccc(OC)cc2OC)c2cnn(C)c2n1
REMARK SMILES IDX 6 1 7 2 8 3 20 4 21 5 22 6 23 7 24 8 25 9 26 10 5 11 4 13
REMARK SMILES IDX 3 14 2 15 1 16 9 17 10 19 11 20 17 21 12 22 16 23 13 24
REMARK SMILES IDX 18 25 19 26 14 27 15 28
REMARK H PARENT 5 12 9 18
ROOT
ATOM      1  C   UNL     1       3.948  43.690  52.382  1.00  0.00     0.226 A 
ATOM      2  N   UNL     1       4.905  44.638  52.432  1.00  0.00    -0.195 NA
ATOM      3  C   UNL     1       5.920  44.658  51.529  1.00  0.00     0.147 A 
ATOM      4  C   UNL     1       5.912  43.655  50.553  1.00  0.00     0.082 A 
ATOM      5  C   UNL     1       6.692  43.254  49.448  1.00  0.00     0.149 A 
ATOM      6  N   UNL     1       6.205  42.171  48.831  1.00  0.00    -0.179 NA
ATOM      7  N   UNL     1       5.103  41.873  49.557  1.00  0.00    -0.250 N 
ATOM      8  C   UNL     1       4.300  40.733  49.194  1.00  0.00     0.176 C 
ATOM      9  C   UNL     1       4.882  42.737  50.595  1.00  0.00     0.165 A 
ATOM     10  N   UNL     1       3.874  42.706  51.478  1.00  0.00    -0.193 NA
ENDROOT
BRANCH   1  11
ATOM     11  N   UNL     1       2.930  43.703  53.321  1.00  0.00    -0.352 N 
ATOM     12  H   UNL     1       2.105  43.292  52.900  1.00  0.00     0.163 HD
BRANCH  11  13
ATOM     13  C   UNL     1       2.739  44.962  54.024  1.00  0.00     0.144 C 
BRANCH  13  14
ATOM     14  C   UNL     1       1.550  45.743  53.439  1.00  0.00     0.181 C 
BRANCH  14  15
ATOM     15  O   UNL     1       1.867  46.558  52.306  1.00  0.00    -0.383 OA
ATOM     16  C   UNL     1       2.993  47.399  52.510  1.00  0.00     0.194 C 
ENDBRANCH  14  15
ENDBRANCH  13  14
ENDBRANCH  11  13
ENDBRANCH   1  11
BRANCH   3  17
ATOM     17  N   UNL     1       6.916  45.638  51.553  1.00  0.00    -0.336 N 
ATOM     18  H   UNL     1       7.186  46.005  50.647  1.00  0.00     0.168 HD
BRANCH  17  19
ATOM     19  C   UNL     1       7.631  46.271  52.591  1.00  0.00     0.083 A 
ATOM     20  C   UNL     1       7.044  46.713  53.776  1.00  0.00     0.034 A 
ATOM     21  C   UNL     1       9.022  46.475  52.412  1.00  0.00     0.146 A 
ATOM     22  C   UNL     1       7.810  47.345  54.760  1.00  0.00     0.049 A 
ATOM     23  C   UNL     1       9.785  47.109  53.404  1.00  0.00     0.095 A 
ATOM     24  C   UNL     1       9.177  47.547  54.581  1.00  0.00     0.122 A 
BRANCH  21  25
ATOM     25  O   UNL     1       9.522  46.004  51.215  1.00  0.00    -0.494 OA
ATOM     26  C   UNL     1      10.547  45.021  51.282  1.00  0.00     0.278 C 
ENDBRANCH  21  25
BRANCH  24  27
ATOM     27  O   UNL     1       9.799  48.176  55.625  1.00  0.00    -0.497 OA
ATOM     28  C   UNL     1      10.975  47.567  56.142  1.00  0.00     0.278 C 
ENDBRANCH  24  27
ENDBRANCH  17  19
ENDBRANCH   3  17
TORSDOF 8
ENDMDL
MODEL 4
REMARK VINA RESULT:    -7.529      2.382      4.882
REMARK INTER + INTRA:         -12.023
REMARK INTER:                 -11.097
REMARK INTRA:                  -0.926
REMARK UNBOUND:                -0.973
REMARK SMILES COCCNc1nc(Nc2ccc(OC)cc2OC)c2cnn(C)c2n1
REMARK SMILES IDX 6 1 7 2 8 3 20 4 21 5 22 6 23 7 24 8 25 9 26 10 5 11 4 13
REMARK SMILES IDX 3 14 2 15 1 16 9 17 10 19 11 20 17 21 12 22 16 23 13 24
REMARK SMILES IDX 18 25 19 26 14 27 15 28
REMARK H PARENT 5 12 9 18
ROOT
ATOM      1  C   UNL     1       4.148  43.658  52.196  1.00  0.00     0.226 A 
ATOM      2  N   UNL     1       4.921  44.752  52.338  1.00  0.00    -0.195 NA
ATOM      3  C   UNL     1       5.958  44.992  51.493  1.00  0.00     0.147 A 
ATOM      4  C   UNL     1       6.168  44.054  50.475  1.00  0.00     0.082 A 
ATOM      5  C   UNL     1       7.056  43.850  49.397  1.00  0.00     0.149 A 
ATOM      6  N   UNL     1       6.792  42.733  48.709  1.00  0.00    -0.179 NA
ATOM      7  N   UNL     1       5.727  42.214  49.362  1.00  0.00    -0.250 N 
ATOM      8  C   UNL     1       5.152  40.973  48.907  1.00  0.00     0.176 C 
ATOM      9  C   UNL     1       5.312  42.972  50.422  1.00  0.00     0.165 A 
ATOM     10  N   UNL     1       4.286  42.724  51.248  1.00  0.00    -0.193 NA
ENDROOT
BRANCH   1  11
ATOM     11  N   UNL     1       3.101  43.447  53.079  1.00  0.00    -0.352 N 
ATOM     12  H   UNL     1       3.057  42.457  53.288  1.00  0.00     0.163 HD
BRANCH  11  13
ATOM     13  C   UNL     1       1.845  44.091  52.730  1.00  0.00     0.144 C 
BRANCH  13  14
ATOM     14  C   UNL     1       1.638  45.376  53.550  1.00  0.00     0.181 C 
BRANCH  14  15
ATOM     15  O   UNL     1       2.261  45.371  54.839  1.00  0.00    -0.383 OA
ATOM     16  C   UNL     1       1.350  45.159  55.908  1.00  0.00     0.194 C 
ENDBRANCH  14  15
ENDBRANCH  13  14
ENDBRANCH  11  13
ENDBRANCH   1  11
BRANCH   3  17
ATOM     17  N   UNL     1       6.766  46.126  51.611  1.00  0.00    -0.336 N 
ATOM     18  H   UNL     1       6.550  46.883  50.972  1.00  0.00     0.168 HD
BRANCH  17  19
ATOM     19  C   UNL     1       7.830  46.474  52.470  1.00  0.00     0.083 A 
ATOM     20  C   UNL     1       9.163  46.145  52.221  1.00  0.00     0.034 A 
ATOM     21  C   UNL     1       7.523  47.191  53.653  1.00  0.00     0.146 A 
ATOM     22  C   UNL     1      10.168  46.511  53.121  1.00  0.00     0.049 A 
ATOM     23  C   UNL     1       8.537  47.555  54.551  1.00  0.00     0.095 A 
ATOM     24  C   UNL     1       9.864  47.214  54.285  1.00  0.00     0.122 A 
BRANCH  21  25
ATOM     25  O   UNL     1       6.184  47.479  53.818  1.00  0.00    -0.494 OA
ATOM     26  C   UNL     1       5.517  46.865  54.913  1.00  0.00     0.278 C 
ENDBRANCH  21  25
BRANCH  24  27
ATOM     27  O   UNL     1      10.945  47.506  55.071  1.00  0.00    -0.497 OA
ATOM     28  C   UNL     1      10.686  47.901  56.412  1.00  0.00     0.278 C 
ENDBRANCH  24  27
ENDBRANCH  17  19
ENDBRANCH   3  17
TORSDOF 8
ENDMDL
MODEL 5
REMARK VINA RESULT:    -7.500      3.285      7.655
REMARK INTER + INTRA:         -11.981
REMARK INTER:                 -11.217
REMARK INTRA:                  -0.764
REMARK UNBOUND:                -0.973
REMARK SMILES COCCNc1nc(Nc2ccc(OC)cc2OC)c2cnn(C)c2n1
REMARK SMILES IDX 6 1 7 2 8 3 20 4 21 5 22 6 23 7 24 8 25 9 26 10 5 11 4 13
REMARK SMILES IDX 3 14 2 15 1 16 9 17 10 19 11 20 17 21 12 22 16 23 13 24
REMARK SMILES IDX 18 25 19 26 14 27 15 28
REMARK H PARENT 5 12 9 18
ROOT
ATOM      1  C   UNL     1       7.703  47.192  52.235  1.00  0.00     0.226 A 
ATOM      2  N   UNL     1       6.497  47.518  52.738  1.00  0.00    -0.195 NA
ATOM      3  C   UNL     1       5.384  46.814  52.403  1.00  0.00     0.147 A 
ATOM      4  C   UNL     1       5.561  45.741  51.522  1.00  0.00     0.082 A 
ATOM      5  C   UNL     1       4.775  44.749  50.897  1.00  0.00     0.149 A 
ATOM      6  N   UNL     1       5.490  43.935  50.113  1.00  0.00    -0.179 NA
ATOM      7  N   UNL     1       6.749  44.419  50.232  1.00  0.00    -0.250 N 
ATOM      8  C   UNL     1       7.823  43.790  49.505  1.00  0.00     0.176 C 
ATOM      9  C   UNL     1       6.843  45.495  51.071  1.00  0.00     0.165 A 
ATOM     10  N   UNL     1       7.949  46.180  51.394  1.00  0.00    -0.193 NA
ENDROOT
BRANCH   1  11
ATOM     11  N   UNL     1       8.814  47.934  52.600  1.00  0.00    -0.352 N 
ATOM     12  H   UNL     1       8.998  48.611  51.868  1.00  0.00     0.163 HD
BRANCH  11  13
ATOM     13  C   UNL     1       9.955  47.167  53.073  1.00  0.00     0.144 C 
BRANCH  13  14
ATOM     14  C   UNL     1       9.756  46.728  54.534  1.00  0.00     0.181 C 
BRANCH  14  15
ATOM     15  O   UNL     1       9.937  47.766  55.502  1.00  0.00    -0.383 OA
ATOM     16  C   UNL     1      11.067  47.570  56.339  1.00  0.00     0.194 C 
ENDBRANCH  14  15
ENDBRANCH  13  14
ENDBRANCH  11  13
ENDBRANCH   1  11
BRANCH   3  17
ATOM     17  N   UNL     1       4.124  47.124  52.922  1.00  0.00    -0.336 N 
ATOM     18  H   UNL     1       3.885  48.110  52.925  1.00  0.00     0.168 HD
BRANCH  17  19
ATOM     19  C   UNL     1       3.065  46.344  53.431  1.00  0.00     0.083 A 
ATOM     20  C   UNL     1       1.878  46.106  52.738  1.00  0.00     0.034 A 
ATOM     21  C   UNL     1       3.215  45.780  54.723  1.00  0.00     0.146 A 
ATOM     22  C   UNL     1       0.862  45.332  53.307  1.00  0.00     0.049 A 
ATOM     23  C   UNL     1       2.192  45.005  55.287  1.00  0.00     0.095 A 
ATOM     24  C   UNL     1       1.011  44.781  54.578  1.00  0.00     0.122 A 
BRANCH  21  25
ATOM     25  O   UNL     1       4.419  46.061  55.335  1.00  0.00    -0.494 OA
ATOM     26  C   UNL     1       5.329  44.982  55.505  1.00  0.00     0.278 C 
ENDBRANCH  21  25
BRANCH  24  27
ATOM     27  O   UNL     1      -0.062  44.048  55.007  1.00  0.00    -0.497 OA
ATOM     28  C   UNL     1      -1.355  44.584  54.759  1.00  0.00     0.278 C 
ENDBRANCH  24  27
ENDBRANCH  17  19
ENDBRANCH   3  17
TORSDOF 8
ENDMDL
MODEL 6
REMARK VINA RESULT:    -7.493      1.738      2.342
REMARK INTER + INTRA:         -11.971
REMARK INTER:                 -11.122
REMARK INTRA:                  -0.849
REMARK UNBOUND:                -0.973
REMARK SMILES COCCNc1nc(Nc2ccc(OC)cc2OC)c2cnn(C)c2n1
REMARK SMILES IDX 6 1 7 2 8 3 20 4 21 5 22 6 23 7 24 8 25 9 26 10 5 11 4 13
REMARK SMILES IDX 3 14 2 15 1 16 9 17 10 19 11 20 17 21 12 22 16 23 13 24
REMARK SMILES IDX 18 25 19 26 14 27 15 28
REMARK H PARENT 5 12 9 18
ROOT
ATOM      1  C   UNL     1       4.431  42.962  51.123  1.00  0.00     0.226 A 
ATOM      2  N   UNL     1       5.341  43.955  51.122  1.00  0.00    -0.195 NA
ATOM      3  C   UNL     1       4.987  45.231  51.431  1.00  0.00     0.147 A 
ATOM      4  C   UNL     1       3.642  45.449  51.752  1.00  0.00     0.082 A 
ATOM      5  C   UNL     1       2.809  46.525  52.125  1.00  0.00     0.149 A 
ATOM      6  N   UNL     1       1.538  46.157  52.321  1.00  0.00    -0.179 NA
ATOM      7  N   UNL     1       1.559  44.829  52.062  1.00  0.00    -0.250 N 
ATOM      8  C   UNL     1       0.339  44.067  52.161  1.00  0.00     0.176 C 
ATOM      9  C   UNL     1       2.798  44.358  51.724  1.00  0.00     0.165 A 
ATOM     10  N   UNL     1       3.133  43.095  51.423  1.00  0.00    -0.193 NA
ENDROOT
BRANCH   1  11
ATOM     11  N   UNL     1       4.830  41.675  50.803  1.00  0.00    -0.352 N 
ATOM     12  H   UNL     1       4.943  41.154  51.664  1.00  0.00     0.163 HD
BRANCH  11  13
ATOM     13  C   UNL     1       5.915  41.575  49.839  1.00  0.00     0.144 C 
BRANCH  13  14
ATOM     14  C   UNL     1       5.377  41.241  48.437  1.00  0.00     0.181 C 
BRANCH  14  15
ATOM     15  O   UNL     1       5.854  42.095  47.393  1.00  0.00    -0.383 OA
ATOM     16  C   UNL     1       5.453  41.682  46.095  1.00  0.00     0.194 C 
ENDBRANCH  14  15
ENDBRANCH  13  14
ENDBRANCH  11  13
ENDBRANCH   1  11
BRANCH   3  17
ATOM     17  N   UNL     1       5.915  46.275  51.449  1.00  0.00    -0.336 N 
ATOM     18  H   UNL     1       5.698  47.061  50.845  1.00  0.00     0.168 HD
BRANCH  17  19
ATOM     19  C   UNL     1       7.108  46.502  52.167  1.00  0.00     0.083 A 
ATOM     20  C   UNL     1       8.381  46.272  51.644  1.00  0.00     0.034 A 
ATOM     21  C   UNL     1       7.004  46.982  53.497  1.00  0.00     0.146 A 
ATOM     22  C   UNL     1       9.523  46.507  52.415  1.00  0.00     0.049 A 
ATOM     23  C   UNL     1       8.154  47.215  54.264  1.00  0.00     0.095 A 
ATOM     24  C   UNL     1       9.417  46.976  53.723  1.00  0.00     0.122 A 
BRANCH  21  25
ATOM     25  O   UNL     1       5.711  47.187  53.933  1.00  0.00    -0.494 OA
ATOM     26  C   UNL     1       5.236  46.345  54.975  1.00  0.00     0.278 C 
ENDBRANCH  21  25
BRANCH  24  27
ATOM     27  O   UNL     1      10.616  47.161  54.357  1.00  0.00    -0.497 OA
ATOM     28  C   UNL     1      10.573  47.562  55.720  1.00  0.00     0.278 C 
ENDBRANCH  24  27
ENDBRANCH  17  19
ENDBRANCH   3  17
TORSDOF 8
ENDMDL
MODEL 7
REMARK VINA RESULT:    -7.460      1.601      2.620
REMARK INTER + INTRA:         -11.921
REMARK INTER:                 -11.015
REMARK INTRA:                  -0.906
REMARK UNBOUND:                -0.973
REMARK SMILES COCCNc1nc(Nc2ccc(OC)cc2OC)c2cnn(C)c2n1
REMARK SMILES IDX 6 1 7 2 8 3 20 4 21 5 22 6 23 7 24 8 25 9 26 10 5 11 4 13
REMARK SMILES IDX 3 14 2 15 1 16 9 17 10 19 11 20 17 21 12 22 16 23 13 24
REMARK SMILES IDX 18 25 19 26 14 27 15 28
REMARK H PARENT 5 12 9 18
ROOT
ATOM      1  C   UNL     1       3.727  42.685  51.467  1.00  0.00     0.226 A 
ATOM      2  N   UNL     1       4.527  43.769  51.505  1.00  0.00    -0.195 NA
ATOM      3  C   UNL     1       4.025  45.002  51.779  1.00  0.00     0.147 A 
ATOM      4  C   UNL     1       2.649  45.080  52.023  1.00  0.00     0.082 A 
ATOM      5  C   UNL     1       1.689  46.064  52.338  1.00  0.00     0.149 A 
ATOM      6  N   UNL     1       0.454  45.566  52.468  1.00  0.00    -0.179 NA
ATOM      7  N   UNL     1       0.627  44.246  52.225  1.00  0.00    -0.250 N 
ATOM      8  C   UNL     1      -0.509  43.361  52.266  1.00  0.00     0.176 C 
ATOM      9  C   UNL     1       1.926  43.905  51.961  1.00  0.00     0.165 A 
ATOM     10  N   UNL     1       2.408  42.683  51.693  1.00  0.00    -0.193 NA
ENDROOT
BRANCH   1  11
ATOM     11  N   UNL     1       4.275  41.446  51.183  1.00  0.00    -0.352 N 
ATOM     12  H   UNL     1       4.979  41.242  51.883  1.00  0.00     0.163 HD
BRANCH  11  13
ATOM     13  C   UNL     1       4.659  41.230  49.797  1.00  0.00     0.144 C 
BRANCH  13  14
ATOM     14  C   UNL     1       6.154  41.528  49.588  1.00  0.00     0.181 C 
BRANCH  14  15
ATOM     15  O   UNL     1       6.429  42.711  48.830  1.00  0.00    -0.383 OA
ATOM     16  C   UNL     1       7.597  43.398  49.257  1.00  0.00     0.194 C 
ENDBRANCH  14  15
ENDBRANCH  13  14
ENDBRANCH  11  13
ENDBRANCH   1  11
BRANCH   3  17
ATOM     17  N   UNL     1       4.836  46.138  51.837  1.00  0.00    -0.336 N 
ATOM     18  H   UNL     1       4.406  46.996  51.511  1.00  0.00     0.168 HD
BRANCH  17  19
ATOM     19  C   UNL     1       6.152  46.370  52.291  1.00  0.00     0.083 A 
ATOM     20  C   UNL     1       7.261  46.433  51.448  1.00  0.00     0.034 A 
ATOM     21  C   UNL     1       6.355  46.540  53.683  1.00  0.00     0.146 A 
ATOM     22  C   UNL     1       8.540  46.654  51.965  1.00  0.00     0.049 A 
ATOM     23  C   UNL     1       7.641  46.762  54.196  1.00  0.00     0.095 A 
ATOM     24  C   UNL     1       8.738  46.819  53.335  1.00  0.00     0.122 A 
BRANCH  21  25
ATOM     25  O   UNL     1       5.205  46.468  54.444  1.00  0.00    -0.494 OA
ATOM     26  C   UNL     1       5.076  45.359  55.323  1.00  0.00     0.278 C 
ENDBRANCH  21  25
BRANCH  24  27
ATOM     27  O   UNL     1      10.040  47.029  53.699  1.00  0.00    -0.497 OA
ATOM     28  C   UNL     1      10.286  47.385  55.053  1.00  0.00     0.278 C 
ENDBRANCH  24  27
ENDBRANCH  17  19
ENDBRANCH   3  17
TORSDOF 8
ENDMDL
MODEL 8
REMARK VINA RESULT:    -7.412      1.838      5.588
REMARK INTER + INTRA:         -11.851
REMARK INTER:                 -11.397
REMARK INTRA:                  -0.454
REMARK UNBOUND:                -0.973
REMARK SMILES COCCNc1nc(Nc2ccc(OC)cc2OC)c2cnn(C)c2n1
REMARK SMILES IDX 6 1 7 2 8 3 20 4 21 5 22 6 23 7 24 8 25 9 26 10 5 11 4 13
REMARK SMILES IDX 3 14 2 15 1 16 9 17 10 19 11 20 17 21 12 22 16 23 13 24
REMARK SMILES IDX 18 25 19 26 14 27 15 28
REMARK H PARENT 5 12 9 18
ROOT
ATOM      1  C   UNL     1       2.981  45.282  54.710  1.00  0.00     0.226 A 
ATOM      2  N   UNL     1       3.534  44.623  53.673  1.00  0.00    -0.195 NA
ATOM      3  C   UNL     1       2.822  43.706  52.966  1.00  0.00     0.147 A 
ATOM      4  C   UNL     1       1.498  43.494  53.366  1.00  0.00     0.082 A 
ATOM      5  C   UNL     1       0.396  42.699  52.986  1.00  0.00     0.149 A 
ATOM      6  N   UNL     1      -0.684  42.904  53.749  1.00  0.00    -0.179 NA
ATOM      7  N   UNL     1      -0.262  43.837  54.634  1.00  0.00    -0.250 N 
ATOM      8  C   UNL     1      -1.169  44.315  55.647  1.00  0.00     0.176 C 
ATOM      9  C   UNL     1       1.035  44.227  54.440  1.00  0.00     0.165 A 
ATOM     10  N   UNL     1       1.725  45.135  55.146  1.00  0.00    -0.193 NA
ENDROOT
BRANCH   1  11
ATOM     11  N   UNL     1       3.739  46.208  55.407  1.00  0.00    -0.352 N 
ATOM     12  H   UNL     1       3.114  46.762  55.982  1.00  0.00     0.163 HD
BRANCH  11  13
ATOM     13  C   UNL     1       4.715  46.944  54.619  1.00  0.00     0.144 C 
BRANCH  13  14
ATOM     14  C   UNL     1       6.135  46.401  54.853  1.00  0.00     0.181 C 
BRANCH  14  15
ATOM     15  O   UNL     1       7.157  47.400  54.909  1.00  0.00    -0.383 OA
ATOM     16  C   UNL     1       8.293  47.095  54.112  1.00  0.00     0.194 C 
ENDBRANCH  14  15
ENDBRANCH  13  14
ENDBRANCH  11  13
ENDBRANCH   1  11
BRANCH   3  17
ATOM     17  N   UNL     1       3.369  43.019  51.879  1.00  0.00    -0.336 N 
ATOM     18  H   UNL     1       2.788  42.282  51.494  1.00  0.00     0.168 HD
BRANCH  17  19
ATOM     19  C   UNL     1       4.573  43.147  51.155  1.00  0.00     0.083 A 
ATOM     20  C   UNL     1       5.340  44.312  51.130  1.00  0.00     0.034 A 
ATOM     21  C   UNL     1       5.022  42.030  50.407  1.00  0.00     0.146 A 
ATOM     22  C   UNL     1       6.519  44.374  50.381  1.00  0.00     0.049 A 
ATOM     23  C   UNL     1       6.205  42.099  49.659  1.00  0.00     0.095 A 
ATOM     24  C   UNL     1       6.956  43.275  49.644  1.00  0.00     0.122 A 
BRANCH  21  25
ATOM     25  O   UNL     1       4.207  40.919  50.492  1.00  0.00    -0.494 OA
ATOM     26  C   UNL     1       3.570  40.488  49.297  1.00  0.00     0.278 C 
ENDBRANCH  21  25
BRANCH  24  27
ATOM     27  O   UNL     1       8.125  43.479  48.962  1.00  0.00    -0.497 OA
ATOM     28  C   UNL     1       9.026  44.442  49.492  1.00  0.00     0.278 C 
ENDBRANCH  24  27
ENDBRANCH  17  19
ENDBRANCH   3  17
TORSDOF 8
ENDMDL
MODEL 9
REMARK VINA RESULT:    -7.350      3.058      5.490
REMARK INTER + INTRA:         -11.761
REMARK INTER:                 -10.870
REMARK INTRA:                  -0.890
REMARK UNBOUND:                -0.973
REMARK SMILES COCCNc1nc(Nc2ccc(OC)cc2OC)c2cnn(C)c2n1
REMARK SMILES IDX 6 1 7 2 8 3 20 4 21 5 22 6 23 7 24 8 25 9 26 10 5 11 4 13
REMARK SMILES IDX 3 14 2 15 1 16 9 17 10 19 11 20 17 21 12 22 16 23 13 24
REMARK SMILES IDX 18 25 19 26 14 27 15 28
REMARK H PARENT 5 12 9 18
ROOT
ATOM      1  C   UNL     1       2.022  45.066  55.038  1.00  0.00     0.226 A 
ATOM      2  N   UNL     1       2.898  45.757  54.283  1.00  0.00    -0.195 NA
ATOM      3  C   UNL     1       3.052  45.484  52.961  1.00  0.00     0.147 A 
ATOM      4  C   UNL     1       2.254  44.461  52.434  1.00  0.00     0.082 A 
ATOM      5  C   UNL     1       2.040  43.826  51.193  1.00  0.00     0.149 A 
ATOM      6  N   UNL     1       1.115  42.860  51.254  1.00  0.00    -0.179 NA
ATOM      7  N   UNL     1       0.740  42.875  52.554  1.00  0.00    -0.250 N 
ATOM      8  C   UNL     1      -0.258  41.944  53.016  1.00  0.00     0.176 C 
ATOM      9  C   UNL     1       1.389  43.822  53.299  1.00  0.00     0.165 A 
ATOM     10  N   UNL     1       1.226  44.082  54.604  1.00  0.00    -0.193 NA
ENDROOT
BRANCH   1  11
ATOM     11  N   UNL     1       1.894  45.373  56.383  1.00  0.00    -0.352 N 
ATOM     12  H   UNL     1       2.659  44.934  56.883  1.00  0.00     0.163 HD
BRANCH  11  13
ATOM     13  C   UNL     1       0.565  45.194  56.946  1.00  0.00     0.144 C 
BRANCH  13  14
ATOM     14  C   UNL     1       0.087  46.476  57.648  1.00  0.00     0.181 C 
BRANCH  14  15
ATOM     15  O   UNL     1       0.875  46.873  58.774  1.00  0.00    -0.383 OA
ATOM     16  C   UNL     1       0.247  47.852  59.589  1.00  0.00     0.194 C 
ENDBRANCH  14  15
ENDBRANCH  13  14
ENDBRANCH  11  13
ENDBRANCH   1  11
BRANCH   3  17
ATOM     17  N   UNL     1       3.943  46.195  52.154  1.00  0.00    -0.336 N 
ATOM     18  H   UNL     1       3.519  46.736  51.408  1.00  0.00     0.168 HD
BRANCH  17  19
ATOM     19  C   UNL     1       5.345  46.357  52.164  1.00  0.00     0.083 A 
ATOM     20  C   UNL     1       6.020  47.195  53.052  1.00  0.00     0.034 A 
ATOM     21  C   UNL     1       6.105  45.633  51.212  1.00  0.00     0.146 A 
ATOM     22  C   UNL     1       7.411  47.319  52.999  1.00  0.00     0.049 A 
ATOM     23  C   UNL     1       7.500  45.762  51.165  1.00  0.00     0.095 A 
ATOM     24  C   UNL     1       8.156  46.608  52.060  1.00  0.00     0.122 A 
BRANCH  21  25
ATOM     25  O   UNL     1       5.360  44.826  50.377  1.00  0.00    -0.494 OA
ATOM     26  C   UNL     1       5.699  43.446  50.335  1.00  0.00     0.278 C 
ENDBRANCH  21  25
BRANCH  24  27
ATOM     27  O   UNL     1       9.506  46.825  52.125  1.00  0.00    -0.497 OA
ATOM     28  C   UNL     1      10.055  47.114  53.404  1.00  0.00     0.278 C 
ENDBRANCH  24  27
ENDBRANCH  17  19
ENDBRANCH   3  17
TORSDOF 8
ENDMDL
MODEL 10
REMARK VINA RESULT:    -7.329      2.959      5.905
REMARK INTER + INTRA:         -11.730
REMARK INTER:                 -10.608
REMARK INTRA:                  -1.122
REMARK UNBOUND:                -0.973
REMARK SMILES COCCNc1nc(Nc2ccc(OC)cc2OC)c2cnn(C)c2n1
REMARK SMILES IDX 6 1 7 2 8 3 20 4 21 5 22 6 23 7 24 8 25 9 26 10 5 11 4 13
REMARK SMILES IDX 3 14 2 15 1 16 9 17 10 19 11 20 17 21 12 22 16 23 13 24
REMARK SMILES IDX 18 25 19 26 14 27 15 28
REMARK H PARENT 5 12 9 18
ROOT
ATOM      1  C   UNL     1       6.616  44.479  50.161  1.00  0.00     0.226 A 
ATOM      2  N   UNL     1       5.457  44.948  50.665  1.00  0.00    -0.195 NA
ATOM      3  C   UNL     1       5.447  45.958  51.575  1.00  0.00     0.147 A 
ATOM      4  C   UNL     1       6.691  46.480  51.948  1.00  0.00     0.082 A 
ATOM      5  C   UNL     1       7.201  47.477  52.806  1.00  0.00     0.149 A 
ATOM      6  N   UNL     1       8.536  47.558  52.777  1.00  0.00    -0.179 NA
ATOM      7  N   UNL     1       8.883  46.592  51.895  1.00  0.00    -0.250 N 
ATOM      8  C   UNL     1      10.276  46.365  51.603  1.00  0.00     0.176 C 
ATOM      9  C   UNL     1       7.813  45.924  51.366  1.00  0.00     0.165 A 
ATOM     10  N   UNL     1       7.838  44.929  50.467  1.00  0.00    -0.193 NA
ENDROOT
BRANCH   1  11
ATOM     11  N   UNL     1       6.585  43.448  49.236  1.00  0.00    -0.352 N 
ATOM     12  H   UNL     1       5.851  43.644  48.566  1.00  0.00     0.163 HD
BRANCH  11  13
ATOM     13  C   UNL     1       6.612  42.104  49.792  1.00  0.00     0.144 C 
BRANCH  13  14
ATOM     14  C   UNL     1       5.251  41.409  49.617  1.00  0.00     0.181 C 
BRANCH  14  15
ATOM     15  O   UNL     1       4.605  41.040  50.840  1.00  0.00    -0.383 OA
ATOM     16  C   UNL     1       3.768  42.057  51.369  1.00  0.00     0.194 C 
ENDBRANCH  14  15
ENDBRANCH  13  14
ENDBRANCH  11  13
ENDBRANCH   1  11
BRANCH   3  17
ATOM     17  N   UNL     1       4.259  46.471  52.102  1.00  0.00    -0.336 N 
ATOM     18  H   UNL     1       3.861  47.254  51.595  1.00  0.00     0.168 HD
BRANCH  17  19
ATOM     19  C   UNL     1       3.448  46.111  53.199  1.00  0.00     0.083 A 
ATOM     20  C   UNL     1       3.821  46.298  54.530  1.00  0.00     0.034 A 
ATOM     21  C   UNL     1       2.189  45.520  52.930  1.00  0.00     0.146 A 
ATOM     22  C   UNL     1       2.974  45.908  55.570  1.00  0.00     0.049 A 
ATOM     23  C   UNL     1       1.343  45.131  53.978  1.00  0.00     0.095 A 
ATOM     24  C   UNL     1       1.737  45.324  55.303  1.00  0.00     0.122 A 
BRANCH  21  25
ATOM     25  O   UNL     1       1.897  45.376  51.588  1.00  0.00    -0.494 OA
ATOM     26  C   UNL     1       0.882  44.444  51.241  1.00  0.00     0.278 C 
ENDBRANCH  21  25
BRANCH  24  27
ATOM     27  O   UNL     1       1.014  44.993  56.417  1.00  0.00    -0.497 OA
ATOM     28  C   UNL     1       0.883  45.988  57.424  1.00  0.00     0.278 C 
ENDBRANCH  24  27
ENDBRANCH  17  19
ENDBRANCH   3  17
TORSDOF 8
ENDMDL
MODEL 11
REMARK VINA RESULT:    -7.315      2.792      6.190
REMARK INTER + INTRA:         -11.709
REMARK INTER:                 -10.608
REMARK INTRA:                  -1.101
REMARK UNBOUND:                -0.973
REMARK SMILES COCCNc1nc(Nc2ccc(OC)cc2OC)c2cnn(C)c2n1
REMARK SMILES IDX 6 1 7 2 8 3 20 4 21 5 22 6 23 7 24 8 25 9 26 10 5 11 4 13
REMARK SMILES IDX 3 14 2 15 1 16 9 17 10 19 11 20 17 21 12 22 16 23 13 24
REMARK SMILES IDX 18 25 19 26 14 27 15 28
REMARK H PARENT 5 12 9 18
ROOT
ATOM      1  C   UNL     1       6.508  44.529  50.283  1.00  0.00     0.226 A 
ATOM      2  N   UNL     1       5.373  45.052  50.786  1.00  0.00    -0.195 NA
ATOM      3  C   UNL     1       5.409  46.083  51.671  1.00  0.00     0.147 A 
ATOM      4  C   UNL     1       6.676  46.568  52.019  1.00  0.00     0.082 A 
ATOM      5  C   UNL     1       7.231  47.567  52.847  1.00  0.00     0.149 A 
ATOM      6  N   UNL     1       8.568  47.598  52.802  1.00  0.00    -0.179 NA
ATOM      7  N   UNL     1       8.870  46.599  51.940  1.00  0.00    -0.250 N 
ATOM      8  C   UNL     1      10.250  46.314  51.639  1.00  0.00     0.176 C 
ATOM      9  C   UNL     1       7.770  45.958  51.440  1.00  0.00     0.165 A 
ATOM     10  N   UNL     1       7.749  44.942  50.565  1.00  0.00    -0.193 NA
ENDROOT
BRANCH   1  11
ATOM     11  N   UNL     1       6.430  43.478  49.384  1.00  0.00    -0.352 N 
ATOM     12  H   UNL     1       5.690  43.681  48.721  1.00  0.00     0.163 HD
BRANCH  11  13
ATOM     13  C   UNL     1       6.425  42.147  49.971  1.00  0.00     0.144 C 
BRANCH  13  14
ATOM     14  C   UNL     1       5.029  41.509  49.876  1.00  0.00     0.181 C 
BRANCH  14  15
ATOM     15  O   UNL     1       4.422  41.205  51.136  1.00  0.00    -0.383 OA
ATOM     16  C   UNL     1       3.549  42.223  51.605  1.00  0.00     0.194 C 
ENDBRANCH  14  15
ENDBRANCH  13  14
ENDBRANCH  11  13
ENDBRANCH   1  11
BRANCH   3  17
ATOM     17  N   UNL     1       4.247  46.652  52.198  1.00  0.00    -0.336 N 
ATOM     18  H   UNL     1       4.157  47.654  52.072  1.00  0.00     0.168 HD
BRANCH  17  19
ATOM     19  C   UNL     1       3.120  46.121  52.861  1.00  0.00     0.083 A 
ATOM     20  C   UNL     1       1.913  45.834  52.224  1.00  0.00     0.034 A 
ATOM     21  C   UNL     1       3.222  45.874  54.252  1.00  0.00     0.146 A 
ATOM     22  C   UNL     1       0.830  45.320  52.943  1.00  0.00     0.049 A 
ATOM     23  C   UNL     1       2.132  45.357  54.968  1.00  0.00     0.095 A 
ATOM     24  C   UNL     1       0.932  45.080  54.312  1.00  0.00     0.122 A 
BRANCH  21  25
ATOM     25  O   UNL     1       4.451  46.180  54.801  1.00  0.00    -0.494 OA
ATOM     26  C   UNL     1       5.210  45.104  55.335  1.00  0.00     0.278 C 
ENDBRANCH  21  25
BRANCH  24  27
ATOM     27  O   UNL     1      -0.204  44.576  54.885  1.00  0.00    -0.497 OA
ATOM     28  C   UNL     1      -1.070  43.819  54.050  1.00  0.00     0.278 C 
ENDBRANCH  24  27
ENDBRANCH  17  19
ENDBRANCH   3  17
TORSDOF 8
ENDMDL
MODEL 12
REMARK VINA RESULT:    -7.312      2.509      6.745
REMARK INTER + INTRA:         -11.704
REMARK INTER:                 -11.141
REMARK INTRA:                  -0.563
REMARK UNBOUND:                -0.973
REMARK SMILES COCCNc1nc(Nc2ccc(OC)cc2OC)c2cnn(C)c2n1
REMARK SMILES IDX 6 1 7 2 8 3 20 4 21 5 22 6 23 7 24 8 25 9 26 10 5 11 4 13
REMARK SMILES IDX 3 14 2 15 1 16 9 17 10 19 11 20 17 21 12 22 16 23 13 24
REMARK SMILES IDX 18 25 19 26 14 27 15 28
REMARK H PARENT 5 12 9 18
ROOT
ATOM      1  C   UNL     1       5.548  46.699  54.267  1.00  0.00     0.226 A 
ATOM      2  N   UNL     1       5.465  45.973  53.136  1.00  0.00    -0.195 NA
ATOM      3  C   UNL     1       6.560  45.757  52.360  1.00  0.00     0.147 A 
ATOM      4  C   UNL     1       7.764  46.319  52.802  1.00  0.00     0.082 A 
ATOM      5  C   UNL     1       9.110  46.385  52.387  1.00  0.00     0.149 A 
ATOM      6  N   UNL     1       9.880  47.089  53.225  1.00  0.00    -0.179 NA
ATOM      7  N   UNL     1       9.010  47.484  54.183  1.00  0.00    -0.250 N 
ATOM      8  C   UNL     1       9.481  48.292  55.280  1.00  0.00     0.176 C 
ATOM      9  C   UNL     1       7.732  47.042  53.977  1.00  0.00     0.165 A 
ATOM     10  N   UNL     1       6.661  47.262  54.753  1.00  0.00    -0.193 NA
ENDROOT
BRANCH   1  11
ATOM     11  N   UNL     1       4.409  46.898  55.031  1.00  0.00    -0.352 N 
ATOM     12  H   UNL     1       4.635  47.550  55.774  1.00  0.00     0.163 HD
BRANCH  11  13
ATOM     13  C   UNL     1       3.696  45.692  55.423  1.00  0.00     0.144 C 
BRANCH  13  14
ATOM     14  C   UNL     1       2.315  45.627  54.750  1.00  0.00     0.181 C 
BRANCH  14  15
ATOM     15  O   UNL     1       2.160  46.481  53.612  1.00  0.00    -0.383 OA
ATOM     16  C   UNL     1       1.679  45.807  52.459  1.00  0.00     0.194 C 
ENDBRANCH  14  15
ENDBRANCH  13  14
ENDBRANCH  11  13
ENDBRANCH   1  11
BRANCH   3  17
ATOM     17  N   UNL     1       6.503  44.996  51.189  1.00  0.00    -0.336 N 
ATOM     18  H   UNL     1       7.110  45.306  50.439  1.00  0.00     0.168 HD
BRANCH  17  19
ATOM     19  C   UNL     1       5.787  43.838  50.817  1.00  0.00     0.083 A 
ATOM     20  C   UNL     1       4.451  43.615  51.149  1.00  0.00     0.034 A 
ATOM     21  C   UNL     1       6.470  42.845  50.072  1.00  0.00     0.146 A 
ATOM     22  C   UNL     1       3.805  42.439  50.758  1.00  0.00     0.049 A 
ATOM     23  C   UNL     1       5.816  41.668  49.683  1.00  0.00     0.095 A 
ATOM     24  C   UNL     1       4.480  41.463  50.027  1.00  0.00     0.122 A 
BRANCH  21  25
ATOM     25  O   UNL     1       7.785  43.148  49.783  1.00  0.00    -0.494 OA
ATOM     26  C   UNL     1       8.038  43.857  48.577  1.00  0.00     0.278 C 
ENDBRANCH  21  25
BRANCH  24  27
ATOM     27  O   UNL     1       3.724  40.366  49.714  1.00  0.00    -0.497 OA
ATOM     28  C   UNL     1       3.525  40.089  48.334  1.00  0.00     0.278 C 
ENDBRANCH  24  27
ENDBRANCH  17  19
ENDBRANCH   3  17
TORSDOF 8
ENDMDL
MODEL 13
REMARK VINA RESULT:    -7.265      3.182      5.828
REMARK INTER + INTRA:         -11.635
REMARK INTER:                 -10.771
REMARK INTRA:                  -0.864
REMARK UNBOUND:                -0.973
REMARK SMILES COCCNc1nc(Nc2ccc(OC)cc2OC)c2cnn(C)c2n1
REMARK SMILES IDX 6 1 7 2 8 3 20 4 21 5 22 6 23 7 24 8 25 9 26 10 5 11 4 13
REMARK SMILES IDX 3 14 2 15 1 16 9 17 10 19 11 20 17 21 12 22 16 23 13 24
REMARK SMILES IDX 18 25 19 26 14 27 15 28
REMARK H PARENT 5 12 9 18
ROOT
ATOM      1  C   UNL     1       1.877  45.140  54.962  1.00  0.00     0.226 A 
ATOM      2  N   UNL     1       2.760  45.860  54.243  1.00  0.00    -0.195 NA
ATOM      3  C   UNL     1       2.958  45.610  52.922  1.00  0.00     0.147 A 
ATOM      4  C   UNL     1       2.197  44.579  52.357  1.00  0.00     0.082 A 
ATOM      5  C   UNL     1       2.033  43.957  51.101  1.00  0.00     0.149 A 
ATOM      6  N   UNL     1       1.127  42.972  51.121  1.00  0.00    -0.179 NA
ATOM      7  N   UNL     1       0.714  42.960  52.410  1.00  0.00    -0.250 N 
ATOM      8  C   UNL     1      -0.277  42.002  52.828  1.00  0.00     0.176 C 
ATOM      9  C   UNL     1       1.321  43.909  53.187  1.00  0.00     0.165 A 
ATOM     10  N   UNL     1       1.115  44.146  54.490  1.00  0.00    -0.193 NA
ENDROOT
BRANCH   1  11
ATOM     11  N   UNL     1       1.703  45.425  56.306  1.00  0.00    -0.352 N 
ATOM     12  H   UNL     1       2.447  44.972  56.825  1.00  0.00     0.163 HD
BRANCH  11  13
ATOM     13  C   UNL     1       0.354  45.243  56.818  1.00  0.00     0.144 C 
BRANCH  13  14
ATOM     14  C   UNL     1      -0.100  46.474  57.621  1.00  0.00     0.181 C 
BRANCH  14  15
ATOM     15  O   UNL     1       0.746  46.816  58.724  1.00  0.00    -0.383 OA
ATOM     16  C   UNL     1       0.223  47.856  59.538  1.00  0.00     0.194 C 
ENDBRANCH  14  15
ENDBRANCH  13  14
ENDBRANCH  11  13
ENDBRANCH   1  11
BRANCH   3  17
ATOM     17  N   UNL     1       3.858  46.351  52.152  1.00  0.00    -0.336 N 
ATOM     18  H   UNL     1       3.495  47.219  51.774  1.00  0.00     0.168 HD
BRANCH  17  19
ATOM     19  C   UNL     1       5.211  46.169  51.796  1.00  0.00     0.083 A 
ATOM     20  C   UNL     1       5.630  45.380  50.725  1.00  0.00     0.034 A 
ATOM     21  C   UNL     1       6.198  46.821  52.578  1.00  0.00     0.146 A 
ATOM     22  C   UNL     1       6.989  45.233  50.435  1.00  0.00     0.049 A 
ATOM     23  C   UNL     1       7.559  46.669  52.281  1.00  0.00     0.095 A 
ATOM     24  C   UNL     1       7.958  45.872  51.207  1.00  0.00     0.122 A 
BRANCH  21  25
ATOM     25  O   UNL     1       5.697  47.584  53.613  1.00  0.00    -0.494 OA
ATOM     26  C   UNL     1       5.947  47.129  54.936  1.00  0.00     0.278 C 
ENDBRANCH  21  25
BRANCH  24  27
ATOM     27  O   UNL     1       9.245  45.639  50.807  1.00  0.00    -0.497 OA
ATOM     28  C   UNL     1      10.281  46.007  51.709  1.00  0.00     0.278 C 
ENDBRANCH  24  27
ENDBRANCH  17  19
ENDBRANCH   3  17
TORSDOF 8
ENDMDL
MODEL 14
REMARK VINA RESULT:    -7.208      3.003      7.566
REMARK INTER + INTRA:         -11.551
REMARK INTER:                 -10.642
REMARK INTRA:                  -0.910
REMARK UNBOUND:                -0.973
REMARK SMILES COCCNc1nc(Nc2ccc(OC)cc2OC)c2cnn(C)c2n1
REMARK SMILES IDX 6 1 7 2 8 3 20 4 21 5 22 6 23 7 24 8 25 9 26 10 5 11 4 13
REMARK SMILES IDX 3 14 2 15 1 16 9 17 10 19 11 20 17 21 12 22 16 23 13 24
REMARK SMILES IDX 18 25 19 26 14 27 15 28
REMARK H PARENT 5 12 9 18
ROOT
ATOM      1  C   UNL     1       7.673  47.030  52.111  1.00  0.00     0.226 A 
ATOM      2  N   UNL     1       6.393  47.221  52.488  1.00  0.00    -0.195 NA
ATOM      3  C   UNL     1       5.398  46.423  52.020  1.00  0.00     0.147 A 
ATOM      4  C   UNL     1       5.774  45.400  51.142  1.00  0.00     0.082 A 
ATOM      5  C   UNL     1       5.161  44.356  50.416  1.00  0.00     0.149 A 
ATOM      6  N   UNL     1       6.033  43.640  49.696  1.00  0.00    -0.179 NA
ATOM      7  N   UNL     1       7.217  44.240  49.961  1.00  0.00    -0.250 N 
ATOM      8  C   UNL     1       8.419  43.742  49.342  1.00  0.00     0.176 C 
ATOM      9  C   UNL     1       7.114  45.294  50.827  1.00  0.00     0.165 A 
ATOM     10  N   UNL     1       8.106  46.073  51.281  1.00  0.00    -0.193 NA
ENDROOT
BRANCH   1  11
ATOM     11  N   UNL     1       8.659  47.865  52.609  1.00  0.00    -0.352 N 
ATOM     12  H   UNL     1       8.749  48.658  51.984  1.00  0.00     0.163 HD
BRANCH  11  13
ATOM     13  C   UNL     1       9.896  47.211  53.006  1.00  0.00     0.144 C 
BRANCH  13  14
ATOM     14  C   UNL     1       9.828  46.749  54.472  1.00  0.00     0.181 C 
BRANCH  14  15
ATOM     15  O   UNL     1       9.962  47.797  55.437  1.00  0.00    -0.383 OA
ATOM     16  C   UNL     1      11.025  47.589  56.357  1.00  0.00     0.194 C 
ENDBRANCH  14  15
ENDBRANCH  13  14
ENDBRANCH  11  13
ENDBRANCH   1  11
BRANCH   3  17
ATOM     17  N   UNL     1       4.066  46.593  52.406  1.00  0.00    -0.336 N 
ATOM     18  H   UNL     1       3.503  47.165  51.787  1.00  0.00     0.168 HD
BRANCH  17  19
ATOM     19  C   UNL     1       3.297  46.105  53.484  1.00  0.00     0.083 A 
ATOM     20  C   UNL     1       3.616  46.326  54.824  1.00  0.00     0.034 A 
ATOM     21  C   UNL     1       2.141  45.341  53.185  1.00  0.00     0.146 A 
ATOM     22  C   UNL     1       2.817  45.803  55.844  1.00  0.00     0.049 A 
ATOM     23  C   UNL     1       1.343  44.820  54.213  1.00  0.00     0.095 A 
ATOM     24  C   UNL     1       1.682  45.050  55.547  1.00  0.00     0.122 A 
BRANCH  21  25
ATOM     25  O   UNL     1       1.896  45.175  51.837  1.00  0.00    -0.494 OA
ATOM     26  C   UNL     1       0.632  44.641  51.468  1.00  0.00     0.278 C 
ENDBRANCH  21  25
BRANCH  24  27
ATOM     27  O   UNL     1       0.996  44.603  56.644  1.00  0.00    -0.497 OA
ATOM     28  C   UNL     1      -0.091  45.399  57.097  1.00  0.00     0.278 C 
ENDBRANCH  24  27
ENDBRANCH  17  19
ENDBRANCH   3  17
TORSDOF 8
ENDMDL
MODEL 15
REMARK VINA RESULT:    -7.103      2.883      8.201
REMARK INTER + INTRA:         -11.397
REMARK INTER:                 -10.472
REMARK INTRA:                  -0.926
REMARK UNBOUND:                -0.973
REMARK SMILES COCCNc1nc(Nc2ccc(OC)cc2OC)c2cnn(C)c2n1
REMARK SMILES IDX 6 1 7 2 8 3 20 4 21 5 22 6 23 7 24 8 25 9 26 10 5 11 4 13
REMARK SMILES IDX 3 14 2 15 1 16 9 17 10 19 11 20 17 21 12 22 16 23 13 24
REMARK SMILES IDX 18 25 19 26 14 27 15 28
REMARK H PARENT 5 12 9 18
ROOT
ATOM      1  C   UNL     1       5.140  45.598  52.146  1.00  0.00     0.226 A 
ATOM      2  N   UNL     1       4.148  45.042  52.868  1.00  0.00    -0.195 NA
ATOM      3  C   UNL     1       3.743  43.765  52.636  1.00  0.00     0.147 A 
ATOM      4  C   UNL     1       4.412  43.068  51.623  1.00  0.00     0.082 A 
ATOM      5  C   UNL     1       4.378  41.792  51.023  1.00  0.00     0.149 A 
ATOM      6  N   UNL     1       5.283  41.650  50.047  1.00  0.00    -0.179 NA
ATOM      7  N   UNL     1       5.897  42.856  50.019  1.00  0.00    -0.250 N 
ATOM      8  C   UNL     1       6.950  43.094  49.065  1.00  0.00     0.176 C 
ATOM      9  C   UNL     1       5.415  43.736  50.949  1.00  0.00     0.165 A 
ATOM     10  N   UNL     1       5.825  44.994  51.168  1.00  0.00    -0.193 NA
ENDROOT
BRANCH   1  11
ATOM     11  N   UNL     1       5.524  46.902  52.411  1.00  0.00    -0.352 N 
ATOM     12  H   UNL     1       5.160  47.496  51.676  1.00  0.00     0.163 HD
BRANCH  11  13
ATOM     13  C   UNL     1       6.925  47.087  52.758  1.00  0.00     0.144 C 
BRANCH  13  14
ATOM     14  C   UNL     1       7.166  46.797  54.249  1.00  0.00     0.181 C 
BRANCH  14  15
ATOM     15  O   UNL     1       8.155  47.624  54.868  1.00  0.00    -0.383 OA
ATOM     16  C   UNL     1       9.409  47.605  54.200  1.00  0.00     0.194 C 
ENDBRANCH  14  15
ENDBRANCH  13  14
ENDBRANCH  11  13
ENDBRANCH   1  11
BRANCH   3  17
ATOM     17  N   UNL     1       2.726  43.162  53.380  1.00  0.00    -0.336 N 
ATOM     18  H   UNL     1       3.036  42.597  54.163  1.00  0.00     0.168 HD
BRANCH  17  19
ATOM     19  C   UNL     1       1.318  43.188  53.300  1.00  0.00     0.083 A 
ATOM     20  C   UNL     1       0.588  42.539  52.304  1.00  0.00     0.034 A 
ATOM     21  C   UNL     1       0.609  43.923  54.283  1.00  0.00     0.146 A 
ATOM     22  C   UNL     1      -0.807  42.615  52.276  1.00  0.00     0.049 A 
ATOM     23  C   UNL     1      -0.791  43.995  54.249  1.00  0.00     0.095 A 
ATOM     24  C   UNL     1      -1.502  43.341  53.242  1.00  0.00     0.122 A 
BRANCH  21  25
ATOM     25  O   UNL     1       1.406  44.529  55.232  1.00  0.00    -0.494 OA
ATOM     26  C   UNL     1       0.751  45.155  56.327  1.00  0.00     0.278 C 
ENDBRANCH  21  25
BRANCH  24  27
ATOM     27  O   UNL     1      -2.862  43.328  53.091  1.00  0.00    -0.497 OA
ATOM     28  C   UNL     1      -3.371  42.889  51.839  1.00  0.00     0.278 C 
ENDBRANCH  24  27
ENDBRANCH  17  19
ENDBRANCH   3  17
TORSDOF 8
ENDMDL
MODEL 16
REMARK VINA RESULT:    -7.032      3.121      7.686
REMARK INTER + INTRA:         -11.293
REMARK INTER:                 -10.622
REMARK INTRA:                  -0.671
REMARK UNBOUND:                -0.973
REMARK SMILES COCCNc1nc(Nc2ccc(OC)cc2OC)c2cnn(C)c2n1
REMARK SMILES IDX 6 1 7 2 8 3 20 4 21 5 22 6 23 7 24 8 25 9 26 10 5 11 4 13
REMARK SMILES IDX 3 14 2 15 1 16 9 17 10 19 11 20 17 21 12 22 16 23 13 24
REMARK SMILES IDX 18 25 19 26 14 27 15 28
REMARK H PARENT 5 12 9 18
ROOT
ATOM      1  C   UNL     1       5.155  45.759  52.227  1.00  0.00     0.226 A 
ATOM      2  N   UNL     1       4.103  45.301  52.932  1.00  0.00    -0.195 NA
ATOM      3  C   UNL     1       3.625  44.044  52.740  1.00  0.00     0.147 A 
ATOM      4  C   UNL     1       4.284  43.260  51.785  1.00  0.00     0.082 A 
ATOM      5  C   UNL     1       4.189  41.962  51.240  1.00  0.00     0.149 A 
ATOM      6  N   UNL     1       5.119  41.719  50.308  1.00  0.00    -0.179 NA
ATOM      7  N   UNL     1       5.810  42.881  50.253  1.00  0.00    -0.250 N 
ATOM      8  C   UNL     1       6.912  43.008  49.332  1.00  0.00     0.176 C 
ATOM      9  C   UNL     1       5.352  43.831  51.124  1.00  0.00     0.165 A 
ATOM     10  N   UNL     1       5.835  45.069  51.304  1.00  0.00    -0.193 NA
ENDROOT
BRANCH   1  11
ATOM     11  N   UNL     1       5.613  47.047  52.451  1.00  0.00    -0.352 N 
ATOM     12  H   UNL     1       5.282  47.638  51.697  1.00  0.00     0.163 HD
BRANCH  11  13
ATOM     13  C   UNL     1       7.022  47.163  52.792  1.00  0.00     0.144 C 
BRANCH  13  14
ATOM     14  C   UNL     1       7.263  46.799  54.267  1.00  0.00     0.181 C 
BRANCH  14  15
ATOM     15  O   UNL     1       8.241  47.604  54.932  1.00  0.00    -0.383 OA
ATOM     16  C   UNL     1       9.526  47.548  54.330  1.00  0.00     0.194 C 
ENDBRANCH  14  15
ENDBRANCH  13  14
ENDBRANCH  11  13
ENDBRANCH   1  11
BRANCH   3  17
ATOM     17  N   UNL     1       2.543  43.540  53.468  1.00  0.00    -0.336 N 
ATOM     18  H   UNL     1       2.404  42.538  53.403  1.00  0.00     0.168 HD
BRANCH  17  19
ATOM     19  C   UNL     1       1.590  44.131  54.324  1.00  0.00     0.083 A 
ATOM     20  C   UNL     1       1.924  44.934  55.415  1.00  0.00     0.034 A 
ATOM     21  C   UNL     1       0.219  43.886  54.064  1.00  0.00     0.146 A 
ATOM     22  C   UNL     1       0.929  45.479  56.232  1.00  0.00     0.049 A 
ATOM     23  C   UNL     1      -0.774  44.436  54.886  1.00  0.00     0.095 A 
ATOM     24  C   UNL     1      -0.419  45.234  55.975  1.00  0.00     0.122 A 
BRANCH  21  25
ATOM     25  O   UNL     1      -0.022  43.087  52.964  1.00  0.00    -0.494 OA
ATOM     26  C   UNL     1      -1.348  43.069  52.453  1.00  0.00     0.278 C 
ENDBRANCH  21  25
BRANCH  24  27
ATOM     27  O   UNL     1      -1.281  45.830  56.854  1.00  0.00    -0.497 OA
ATOM     28  C   UNL     1      -0.787  46.938  57.596  1.00  0.00     0.278 C 
ENDBRANCH  24  27
ENDBRANCH  17  19
ENDBRANCH   3  17
TORSDOF 8
ENDMDL
MODEL 17
REMARK VINA RESULT:    -7.005      2.814      6.739
REMARK INTER + INTRA:         -11.255
REMARK INTER:                 -10.561
REMARK INTRA:                  -0.694
REMARK UNBOUND:                -0.973
REMARK SMILES COCCNc1nc(Nc2ccc(OC)cc2OC)c2cnn(C)c2n1
REMARK SMILES IDX 6 1 7 2 8 3 20 4 21 5 22 6 23 7 24 8 25 9 26 10 5 11 4 13
REMARK SMILES IDX 3 14 2 15 1 16 9 17 10 19 11 20 17 21 12 22 16 23 13 24
REMARK SMILES IDX 18 25 19 26 14 27 15 28
REMARK H PARENT 5 12 9 18
ROOT
ATOM      1  C   UNL     1       6.073  44.524  51.013  1.00  0.00     0.226 A 
ATOM      2  N   UNL     1       5.037  44.131  51.780  1.00  0.00    -0.195 NA
ATOM      3  C   UNL     1       4.849  44.649  53.023  1.00  0.00     0.147 A 
ATOM      4  C   UNL     1       5.776  45.607  53.451  1.00  0.00     0.082 A 
ATOM      5  C   UNL     1       6.016  46.406  54.588  1.00  0.00     0.149 A 
ATOM      6  N   UNL     1       7.097  47.184  54.461  1.00  0.00    -0.179 NA
ATOM      7  N   UNL     1       7.558  46.871  53.227  1.00  0.00    -0.250 N 
ATOM      8  C   UNL     1       8.746  47.516  52.728  1.00  0.00     0.176 C 
ATOM      9  C   UNL     1       6.796  45.936  52.581  1.00  0.00     0.165 A 
ATOM     10  N   UNL     1       6.993  45.435  51.353  1.00  0.00    -0.193 NA
ENDROOT
BRANCH   1  11
ATOM     11  N   UNL     1       6.231  43.973  49.752  1.00  0.00    -0.352 N 
ATOM     12  H   UNL     1       5.369  44.106  49.237  1.00  0.00     0.163 HD
BRANCH  11  13
ATOM     13  C   UNL     1       6.806  42.637  49.718  1.00  0.00     0.144 C 
BRANCH  13  14
ATOM     14  C   UNL     1       5.773  41.605  49.235  1.00  0.00     0.181 C 
BRANCH  14  15
ATOM     15  O   UNL     1       4.845  41.172  50.235  1.00  0.00    -0.383 OA
ATOM     16  C   UNL     1       3.576  40.808  49.711  1.00  0.00     0.194 C 
ENDBRANCH  14  15
ENDBRANCH  13  14
ENDBRANCH  11  13
ENDBRANCH   1  11
BRANCH   3  17
ATOM     17  N   UNL     1       3.776  44.267  53.832  1.00  0.00    -0.336 N 
ATOM     18  H   UNL     1       3.938  44.338  54.831  1.00  0.00     0.168 HD
BRANCH  17  19
ATOM     19  C   UNL     1       2.466  43.820  53.561  1.00  0.00     0.083 A 
ATOM     20  C   UNL     1       2.127  43.046  52.451  1.00  0.00     0.034 A 
ATOM     21  C   UNL     1       1.437  44.187  54.464  1.00  0.00     0.146 A 
ATOM     22  C   UNL     1       0.806  42.646  52.235  1.00  0.00     0.049 A 
ATOM     23  C   UNL     1       0.114  43.782  54.242  1.00  0.00     0.095 A 
ATOM     24  C   UNL     1      -0.205  43.010  53.124  1.00  0.00     0.122 A 
BRANCH  21  25
ATOM     25  O   UNL     1       1.859  44.947  55.536  1.00  0.00    -0.494 OA
ATOM     26  C   UNL     1       0.882  45.303  56.504  1.00  0.00     0.278 C 
ENDBRANCH  21  25
BRANCH  24  27
ATOM     27  O   UNL     1      -1.448  42.549  52.788  1.00  0.00    -0.497 OA
ATOM     28  C   UNL     1      -2.246  43.381  51.955  1.00  0.00     0.278 C 
ENDBRANCH  24  27
ENDBRANCH  17  19
ENDBRANCH   3  17
TORSDOF 8
ENDMDL
MODEL 18
REMARK VINA RESULT:    -6.950      2.817      6.258
REMARK INTER + INTRA:         -11.174
REMARK INTER:                 -10.322
REMARK INTRA:                  -0.852
REMARK UNBOUND:                -0.973
REMARK SMILES COCCNc1nc(Nc2ccc(OC)cc2OC)c2cnn(C)c2n1
REMARK SMILES IDX 6 1 7 2 8 3 20 4 21 5 22 6 23 7 24 8 25 9 26 10 5 11 4 13
REMARK SMILES IDX 3 14 2 15 1 16 9 17 10 19 11 20 17 21 12 22 16 23 13 24
REMARK SMILES IDX 18 25 19 26 14 27 15 28
REMARK H PARENT 5 12 9 18
ROOT
ATOM      1  C   UNL     1       6.039  44.576  50.968  1.00  0.00     0.226 A 
ATOM      2  N   UNL     1       5.146  44.062  51.835  1.00  0.00    -0.195 NA
ATOM      3  C   UNL     1       5.011  44.573  53.087  1.00  0.00     0.147 A 
ATOM      4  C   UNL     1       5.837  45.654  53.417  1.00  0.00     0.082 A 
ATOM      5  C   UNL     1       6.075  46.500  54.521  1.00  0.00     0.149 A 
ATOM      6  N   UNL     1       7.023  47.414  54.283  1.00  0.00    -0.179 NA
ATOM      7  N   UNL     1       7.400  47.142  53.012  1.00  0.00    -0.250 N 
ATOM      8  C   UNL     1       8.436  47.931  52.394  1.00  0.00     0.176 C 
ATOM      9  C   UNL     1       6.713  46.101  52.449  1.00  0.00     0.165 A 
ATOM     10  N   UNL     1       6.856  45.608  51.210  1.00  0.00    -0.193 NA
ENDROOT
BRANCH   1  11
ATOM     11  N   UNL     1       6.148  44.027  49.701  1.00  0.00    -0.352 N 
ATOM     12  H   UNL     1       5.215  43.909  49.324  1.00  0.00     0.163 HD
BRANCH  11  13
ATOM     13  C   UNL     1       7.042  42.886  49.585  1.00  0.00     0.144 C 
BRANCH  13  14
ATOM     14  C   UNL     1       6.285  41.568  49.817  1.00  0.00     0.181 C 
BRANCH  14  15
ATOM     15  O   UNL     1       5.422  41.175  48.744  1.00  0.00    -0.383 OA
ATOM     16  C   UNL     1       4.116  40.815  49.170  1.00  0.00     0.194 C 
ENDBRANCH  14  15
ENDBRANCH  13  14
ENDBRANCH  11  13
ENDBRANCH   1  11
BRANCH   3  17
ATOM     17  N   UNL     1       4.083  44.066  54.001  1.00  0.00    -0.336 N 
ATOM     18  H   UNL     1       4.441  43.366  54.642  1.00  0.00     0.168 HD
BRANCH  17  19
ATOM     19  C   UNL     1       2.723  44.341  54.258  1.00  0.00     0.083 A 
ATOM     20  C   UNL     1       2.288  45.267  55.206  1.00  0.00     0.034 A 
ATOM     21  C   UNL     1       1.748  43.629  53.516  1.00  0.00     0.146 A 
ATOM     22  C   UNL     1       0.924  45.482  55.420  1.00  0.00     0.049 A 
ATOM     23  C   UNL     1       0.382  43.851  53.734  1.00  0.00     0.095 A 
ATOM     24  C   UNL     1      -0.033  44.779  54.690  1.00  0.00     0.122 A 
BRANCH  21  25
ATOM     25  O   UNL     1       2.265  42.738  52.597  1.00  0.00    -0.494 OA
ATOM     26  C   UNL     1       1.767  42.814  51.268  1.00  0.00     0.278 C 
ENDBRANCH  21  25
BRANCH  24  27
ATOM     27  O   UNL     1      -1.328  45.092  55.003  1.00  0.00    -0.497 OA
ATOM     28  C   UNL     1      -2.340  44.630  54.118  1.00  0.00     0.278 C 
ENDBRANCH  24  27
ENDBRANCH  17  19
ENDBRANCH   3  17
TORSDOF 8
ENDMDL
MODEL 19
REMARK VINA RESULT:    -6.948      2.796      7.062
REMARK INTER + INTRA:         -11.170
REMARK INTER:                 -10.431
REMARK INTRA:                  -0.739
REMARK UNBOUND:                -0.973
REMARK SMILES COCCNc1nc(Nc2ccc(OC)cc2OC)c2cnn(C)c2n1
REMARK SMILES IDX 6 1 7 2 8 3 20 4 21 5 22 6 23 7 24 8 25 9 26 10 5 11 4 13
REMARK SMILES IDX 3 14 2 15 1 16 9 17 10 19 11 20 17 21 12 22 16 23 13 24
REMARK SMILES IDX 18 25 19 26 14 27 15 28
REMARK H PARENT 5 12 9 18
ROOT
ATOM      1  C   UNL     1       6.524  45.443  50.963  1.00  0.00     0.226 A 
ATOM      2  N   UNL     1       5.448  46.050  51.502  1.00  0.00    -0.195 NA
ATOM      3  C   UNL     1       4.282  45.376  51.685  1.00  0.00     0.147 A 
ATOM      4  C   UNL     1       4.265  44.032  51.294  1.00  0.00     0.082 A 
ATOM      5  C   UNL     1       3.358  42.952  51.273  1.00  0.00     0.149 A 
ATOM      6  N   UNL     1       3.890  41.833  50.767  1.00  0.00    -0.179 NA
ATOM      7  N   UNL     1       5.152  42.207  50.453  1.00  0.00    -0.250 N 
ATOM      8  C   UNL     1       6.050  41.249  49.859  1.00  0.00     0.176 C 
ATOM      9  C   UNL     1       5.426  43.513  50.756  1.00  0.00     0.165 A 
ATOM     10  N   UNL     1       6.583  44.165  50.571  1.00  0.00    -0.193 NA
ENDROOT
BRANCH   1  11
ATOM     11  N   UNL     1       7.695  46.163  50.792  1.00  0.00    -0.352 N 
ATOM     12  H   UNL     1       8.226  45.733  50.043  1.00  0.00     0.163 HD
BRANCH  11  13
ATOM     13  C   UNL     1       8.427  46.472  52.010  1.00  0.00     0.144 C 
BRANCH  13  14
ATOM     14  C   UNL     1       8.242  47.948  52.404  1.00  0.00     0.181 C 
BRANCH  14  15
ATOM     15  O   UNL     1       8.815  48.308  53.665  1.00  0.00    -0.383 OA
ATOM     16  C   UNL     1       9.677  47.314  54.200  1.00  0.00     0.194 C 
ENDBRANCH  14  15
ENDBRANCH  13  14
ENDBRANCH  11  13
ENDBRANCH   1  11
BRANCH   3  17
ATOM     17  N   UNL     1       3.157  45.979  52.253  1.00  0.00    -0.336 N 
ATOM     18  H   UNL     1       2.846  46.832  51.801  1.00  0.00     0.168 HD
BRANCH  17  19
ATOM     19  C   UNL     1       2.313  45.638  53.331  1.00  0.00     0.083 A 
ATOM     20  C   UNL     1       0.984  45.243  53.178  1.00  0.00     0.034 A 
ATOM     21  C   UNL     1       2.846  45.711  54.642  1.00  0.00     0.146 A 
ATOM     22  C   UNL     1       0.199  44.930  54.291  1.00  0.00     0.049 A 
ATOM     23  C   UNL     1       2.053  45.396  55.754  1.00  0.00     0.095 A 
ATOM     24  C   UNL     1       0.725  45.005  55.579  1.00  0.00     0.122 A 
BRANCH  21  25
ATOM     25  O   UNL     1       4.167  46.105  54.703  1.00  0.00    -0.494 OA
ATOM     26  C   UNL     1       5.079  45.223  55.344  1.00  0.00     0.278 C 
ENDBRANCH  21  25
BRANCH  24  27
ATOM     27  O   UNL     1      -0.157  44.671  56.571  1.00  0.00    -0.497 OA
ATOM     28  C   UNL     1      -1.519  44.506  56.200  1.00  0.00     0.278 C 
ENDBRANCH  24  27
ENDBRANCH  17  19
ENDBRANCH   3  17
TORSDOF 8
ENDMDL
