REMARK SMILES c1ccc(Nc2nc(OCC3CCCCC3)c3[nH]cnc3n2)cc1
REMARK SMILES IDX 8 1 17 2 21 3 20 4 19 5 18 6 22 7 6 8 7 9 9 11 10 12 11 13
REMARK SMILES IDX 14 14 13 15 15 16 12 17 16 18 5 19 4 21 3 22 23 23 2 24
REMARK SMILES IDX 24 25 1 26
REMARK H PARENT 18 10 5 20
ROOT
ATOM      1  C   UNL     1      -0.058  -1.776  -0.869  1.00  0.00     0.245 A 
ATOM      2  C   UNL     1       0.765  -2.268  -1.845  1.00  0.00     0.148 A 
ATOM      3  C   UNL     1       2.120  -2.039  -1.767  1.00  0.00     0.186 A 
ATOM      4  N   UNL     1       2.771  -2.609  -2.830  1.00  0.00    -0.217 NA
ATOM      5  C   UNL     1       1.823  -3.176  -3.546  1.00  0.00     0.199 A 
ATOM      6  N   UNL     1       0.588  -2.994  -2.986  1.00  0.00    -0.339 N 
ATOM      7  N   UNL     1       2.693  -1.348  -0.773  1.00  0.00    -0.191 NA
ATOM      8  C   UNL     1       1.843  -0.890   0.150  1.00  0.00     0.232 A 
ATOM      9  N   UNL     1       0.503  -1.079   0.137  1.00  0.00    -0.175 NA
ATOM     10  H   UNL     1      -0.293  -3.333  -3.346  1.00  0.00     0.168 HD
ENDROOT
BRANCH   1  11
ATOM     11  O   UNL     1      -1.417  -1.990  -0.936  1.00  0.00    -0.476 OA
BRANCH  11  12
ATOM     12  C   UNL     1      -2.165  -1.412   0.139  1.00  0.00     0.235 C 
BRANCH  12  13
ATOM     13  C   UNL     1      -2.508   0.063  -0.130  1.00  0.00     0.027 C 
ATOM     14  C   UNL     1      -4.466   2.259  -0.485  1.00  0.00     0.000 C 
ATOM     15  C   UNL     1      -3.709   1.678  -1.674  1.00  0.00     0.000 C 
ATOM     16  C   UNL     1      -3.675   2.108   0.810  1.00  0.00     0.000 C 
ATOM     17  C   UNL     1      -3.308   0.225  -1.433  1.00  0.00     0.007 C 
ATOM     18  C   UNL     1      -3.276   0.656   1.060  1.00  0.00     0.007 C 
ENDBRANCH  12  13
ENDBRANCH  11  12
ENDBRANCH   1  11
BRANCH   8  19
ATOM     19  N   UNL     1       2.288  -0.150   1.246  1.00  0.00    -0.324 N 
ATOM     20  H   UNL     1       1.495   0.100   1.817  1.00  0.00     0.170 HD
BRANCH  19  21
ATOM     21  C   UNL     1       3.542   0.294   1.679  1.00  0.00     0.041 A 
ATOM     22  C   UNL     1       4.740   0.040   1.004  1.00  0.00     0.026 A 
ATOM     23  C   UNL     1       3.613   1.042   2.867  1.00  0.00     0.026 A 
ATOM     24  C   UNL     1       5.963   0.512   1.492  1.00  0.00     0.002 A 
ATOM     25  C   UNL     1       4.832   1.517   3.360  1.00  0.00     0.002 A 
ATOM     26  C   UNL     1       6.010   1.251   2.670  1.00  0.00     0.000 A 
ENDBRANCH  19  21
ENDBRANCH   8  19
TORSDOF 5
