_i0
     RDKit          3D

 45 48  0  0  0  0  0  0  0  0999 V2000
   -4.4665    2.2594   -0.4846 C   0  0  0  0  0  0  0  0  0  0  0  0
   -3.7094    1.6783   -1.6742 C   0  0  0  0  0  0  0  0  0  0  0  0
   -3.3077    0.2247   -1.4333 C   0  0  0  0  0  0  0  0  0  0  0  0
   -2.5077    0.0634   -0.1296 C   0  0  0  0  0  0  0  0  0  0  0  0
   -2.1651   -1.4124    0.1388 C   0  0  0  0  0  0  0  0  0  0  0  0
   -1.4172   -1.9895   -0.9362 O   0  0  0  0  0  0  0  0  0  0  0  0
   -0.0584   -1.7763   -0.8692 C   0  0  0  0  0  0  0  0  0  0  0  0
    0.7655   -2.2685   -1.8446 C   0  0  0  0  0  0  0  0  0  0  0  0
    2.1204   -2.0395   -1.7670 C   0  0  0  0  0  0  0  0  0  0  0  0
    2.7708   -2.6087   -2.8305 N   0  0  0  0  0  0  0  0  0  0  0  0
    1.8235   -3.1758   -3.5462 C   0  0  0  0  0  0  0  0  0  0  0  0
    0.5883   -2.9944   -2.9858 N   0  0  0  0  0  0  0  0  0  0  0  0
    2.6935   -1.3480   -0.7726 N   0  0  0  0  0  0  0  0  0  0  0  0
    1.8427   -0.8901    0.1505 C   0  0  0  0  0  0  0  0  0  0  0  0
    2.2878   -0.1497    1.2458 N   0  0  0  0  0  0  0  0  0  0  0  0
    3.5419    0.2940    1.6792 C   0  0  0  0  0  0  0  0  0  0  0  0
    4.7397    0.0395    1.0038 C   0  0  0  0  0  0  0  0  0  0  0  0
    5.9634    0.5125    1.4924 C   0  0  0  0  0  0  0  0  0  0  0  0
    6.0101    1.2514    2.6702 C   0  0  0  0  0  0  0  0  0  0  0  0
    4.8325    1.5171    3.3600 C   0  0  0  0  0  0  0  0  0  0  0  0
    3.6130    1.0420    2.8672 C   0  0  0  0  0  0  0  0  0  0  0  0
    0.5026   -1.0789    0.1365 N   0  0  0  0  0  0  0  0  0  0  0  0
   -3.2765    0.6557    1.0598 C   0  0  0  0  0  0  0  0  0  0  0  0
   -3.6752    2.1081    0.8104 C   0  0  0  0  0  0  0  0  0  0  0  0
   -5.4333    1.7511   -0.3834 H   0  0  0  0  0  0  0  0  0  0  0  0
   -4.6798    3.3190   -0.6649 H   0  0  0  0  0  0  0  0  0  0  0  0
   -2.8105    2.2780   -1.8631 H   0  0  0  0  0  0  0  0  0  0  0  0
   -4.3314    1.7438   -2.5741 H   0  0  0  0  0  0  0  0  0  0  0  0
   -4.2112   -0.3970   -1.3942 H   0  0  0  0  0  0  0  0  0  0  0  0
   -2.7169   -0.1265   -2.2874 H   0  0  0  0  0  0  0  0  0  0  0  0
   -1.5734    0.6270   -0.2504 H   0  0  0  0  0  0  0  0  0  0  0  0
   -3.0951   -1.9904    0.2070 H   0  0  0  0  0  0  0  0  0  0  0  0
   -1.6631   -1.5505    1.1052 H   0  0  0  0  0  0  0  0  0  0  0  0
    1.9691   -3.7244   -4.4679 H   0  0  0  0  0  0  0  0  0  0  0  0
   -0.2935   -3.3327   -3.3456 H   0  0  0  0  0  0  0  0  0  0  0  0
    1.4947    0.1000    1.8167 H   0  0  0  0  0  0  0  0  0  0  0  0
    4.7531   -0.5328    0.0808 H   0  0  0  0  0  0  0  0  0  0  0  0
    6.8779    0.2987    0.9451 H   0  0  0  0  0  0  0  0  0  0  0  0
    6.9609    1.6174    3.0473 H   0  0  0  0  0  0  0  0  0  0  0  0
    4.8589    2.0931    4.2809 H   0  0  0  0  0  0  0  0  0  0  0  0
    2.7082    1.2648    3.4274 H   0  0  0  0  0  0  0  0  0  0  0  0
   -2.6611    0.6018    1.9658 H   0  0  0  0  0  0  0  0  0  0  0  0
   -4.1795    0.0624    1.2529 H   0  0  0  0  0  0  0  0  0  0  0  0
   -2.7733    2.7308    0.7626 H   0  0  0  0  0  0  0  0  0  0  0  0
   -4.2725    2.4758    1.6523 H   0  0  0  0  0  0  0  0  0  0  0  0
  1  2  1  0
  2  3  1  0
  3  4  1  0
  4  5  1  0
  5  6  1  0
  6  7  1  0
  7  8  1  0
  8  9  2  0
  9 10  1  0
 10 11  2  0
 11 12  1  0
  9 13  1  0
 13 14  2  0
 14 15  1  0
 15 16  1  0
 16 17  2  0
 17 18  1  0
 18 19  2  0
 19 20  1  0
 20 21  2  0
 14 22  1  0
  4 23  1  0
 23 24  1  0
 24  1  1  0
 22  7  2  0
 12  8  1  0
 21 16  1  0
  1 25  1  0
  1 26  1  0
  2 27  1  0
  2 28  1  0
  3 29  1  0
  3 30  1  0
  4 31  1  0
  5 32  1  0
  5 33  1  0
 11 34  1  0
 12 35  1  0
 15 36  1  0
 17 37  1  0
 18 38  1  0
 19 39  1  0
 20 40  1  0
 21 41  1  0
 23 42  1  0
 23 43  1  0
 24 44  1  0
 24 45  1  0
M  END
>  <ScrubInfo>  (1) 
{"isomerGroup": 0, "isomerId": 0, "confId": 0, "nr_conformers:": 1, "nr_isomers:": 9}

$$$$
_i1
     RDKit          3D

 45 48  0  0  0  0  0  0  0  0999 V2000
    3.8334    2.3705    0.5448 N   0  0  0  0  0  0  0  0  0  0  0  0
    3.1729    1.7986   -0.5077 C   0  0  0  0  0  0  0  0  0  0  0  0
    1.8871    1.6634   -0.2622 N   0  0  0  0  0  0  0  0  0  0  0  0
    1.7100    2.1722    1.0086 C   0  0  0  0  0  0  0  0  0  0  0  0
    0.6122    2.3271    1.8521 C   0  0  0  0  0  0  0  0  0  0  0  0
   -0.6419    1.9188    1.4431 O   0  0  0  0  0  0  0  0  0  0  0  0
   -1.6613    2.1434    2.4158 C   0  0  0  0  0  0  0  0  0  0  0  0
   -3.0173    1.6598    1.8746 C   0  0  0  0  0  0  0  0  0  0  0  0
   -3.4290    2.4368    0.6134 C   0  0  0  0  0  0  0  0  0  0  0  0
   -4.7731    1.9551    0.0711 C   0  0  0  0  0  0  0  0  0  0  0  0
   -4.7673    0.4524   -0.1919 C   0  0  0  0  0  0  0  0  0  0  0  0
   -4.3465   -0.3327    1.0465 C   0  0  0  0  0  0  0  0  0  0  0  0
   -3.0024    0.1492    1.5887 C   0  0  0  0  0  0  0  0  0  0  0  0
    0.7898    2.8834    3.0794 N   0  0  0  0  0  0  0  0  0  0  0  0
    2.0212    3.2776    3.4653 C   0  0  0  0  0  0  0  0  0  0  0  0
    2.2367    3.8516    4.7175 N   0  0  0  0  0  0  0  0  0  0  0  0
    1.4192    4.1644    5.8087 C   0  0  0  0  0  0  0  0  0  0  0  0
    2.0095    4.7563    6.9388 C   0  0  0  0  0  0  0  0  0  0  0  0
    1.2537    5.0957    8.0654 C   0  0  0  0  0  0  0  0  0  0  0  0
   -0.1142    4.8481    8.0831 C   0  0  0  0  0  0  0  0  0  0  0  0
   -0.7198    4.2630    6.9758 C   0  0  0  0  0  0  0  0  0  0  0  0
    0.0426    3.9257    5.8511 C   0  0  0  0  0  0  0  0  0  0  0  0
    3.1407    3.1683    2.7192 N   0  0  0  0  0  0  0  0  0  0  0  0
    2.9131    2.6155    1.5221 C   0  0  0  0  0  0  0  0  0  0  0  0
    4.8185    2.5790    0.6029 H   0  0  0  0  0  0  0  0  0  0  0  0
    3.6776    1.5042   -1.4188 H   0  0  0  0  0  0  0  0  0  0  0  0
   -1.4302    1.5925    3.3367 H   0  0  0  0  0  0  0  0  0  0  0  0
   -1.7327    3.2146    2.6451 H   0  0  0  0  0  0  0  0  0  0  0  0
   -3.7675    1.8521    2.6539 H   0  0  0  0  0  0  0  0  0  0  0  0
   -2.6682    2.3239   -0.1690 H   0  0  0  0  0  0  0  0  0  0  0  0
   -3.4948    3.5075    0.8407 H   0  0  0  0  0  0  0  0  0  0  0  0
   -5.0096    2.4903   -0.8555 H   0  0  0  0  0  0  0  0  0  0  0  0
   -5.5649    2.1971    0.7908 H   0  0  0  0  0  0  0  0  0  0  0  0
   -5.7642    0.1298   -0.5125 H   0  0  0  0  0  0  0  0  0  0  0  0
   -4.0786    0.2294   -1.0162 H   0  0  0  0  0  0  0  0  0  0  0  0
   -5.1128   -0.2269    1.8242 H   0  0  0  0  0  0  0  0  0  0  0  0
   -4.2842   -1.3993    0.8028 H   0  0  0  0  0  0  0  0  0  0  0  0
   -2.2174   -0.0932    0.8615 H   0  0  0  0  0  0  0  0  0  0  0  0
   -2.7659   -0.4011    2.5071 H   0  0  0  0  0  0  0  0  0  0  0  0
    3.2169    4.0735    4.8091 H   0  0  0  0  0  0  0  0  0  0  0  0
    3.0772    4.9617    6.9534 H   0  0  0  0  0  0  0  0  0  0  0  0
    1.7359    5.5523    8.9255 H   0  0  0  0  0  0  0  0  0  0  0  0
   -0.7069    5.1094    8.9554 H   0  0  0  0  0  0  0  0  0  0  0  0
   -1.7886    4.0657    6.9804 H   0  0  0  0  0  0  0  0  0  0  0  0
   -0.4709    3.4717    5.0109 H   0  0  0  0  0  0  0  0  0  0  0  0
  1  2  1  0
  2  3  2  0
  3  4  1  0
  4  5  2  0
  5  6  1  0
  6  7  1  0
  7  8  1  0
  8  9  1  0
  9 10  1  0
 10 11  1  0
 11 12  1  0
 12 13  1  0
  5 14  1  0
 14 15  2  0
 15 16  1  0
 16 17  1  0
 17 18  2  0
 18 19  1  0
 19 20  2  0
 20 21  1  0
 21 22  2  0
 15 23  1  0
 23 24  2  0
 24  1  1  0
 24  4  1  0
 13  8  1  0
 22 17  1  0
  1 25  1  0
  2 26  1  0
  7 27  1  0
  7 28  1  0
  8 29  1  0
  9 30  1  0
  9 31  1  0
 10 32  1  0
 10 33  1  0
 11 34  1  0
 11 35  1  0
 12 36  1  0
 12 37  1  0
 13 38  1  0
 13 39  1  0
 16 40  1  0
 18 41  1  0
 19 42  1  0
 20 43  1  0
 21 44  1  0
 22 45  1  0
M  END
>  <ScrubInfo>  (2) 
{"isomerGroup": 0, "isomerId": 1, "confId": 0, "nr_conformers:": 1, "nr_isomers:": 9}

$$$$
_i2
     RDKit          3D

 45 48  0  0  0  0  0  0  0  0999 V2000
    1.7271   -2.5749    2.9802 N   0  0  0  0  0  0  0  0  0  0  0  0
    1.5978   -1.7278    1.8896 C   0  0  0  0  0  0  0  0  0  0  0  0
    2.4619   -1.6185    0.9239 N   0  0  0  0  0  0  0  0  0  0  0  0
    3.6242   -2.3969    0.9485 C   0  0  0  0  0  0  0  0  0  0  0  0
    4.7843   -1.9138    1.5593 C   0  0  0  0  0  0  0  0  0  0  0  0
    5.9428   -2.6921    1.5908 C   0  0  0  0  0  0  0  0  0  0  0  0
    5.9488   -3.9552    0.9999 C   0  0  0  0  0  0  0  0  0  0  0  0
    4.8006   -4.4361    0.3714 C   0  0  0  0  0  0  0  0  0  0  0  0
    3.6438   -3.6553    0.3417 C   0  0  0  0  0  0  0  0  0  0  0  0
    0.5053   -0.8850    1.7073 N   0  0  0  0  0  0  0  0  0  0  0  0
   -0.4152   -0.9152    2.6116 C   0  0  0  0  0  0  0  0  0  0  0  0
   -1.5477   -0.1721    2.6088 O   0  0  0  0  0  0  0  0  0  0  0  0
   -1.7028    0.7035    1.4791 C   0  0  0  0  0  0  0  0  0  0  0  0
   -3.0431    1.4443    1.6033 C   0  0  0  0  0  0  0  0  0  0  0  0
   -3.1335    2.5469    0.5328 C   0  0  0  0  0  0  0  0  0  0  0  0
   -4.5776    2.9384    0.2490 C   0  0  0  0  0  0  0  0  0  0  0  0
   -5.3831    1.7608   -0.3019 C   0  0  0  0  0  0  0  0  0  0  0  0
   -4.8731    0.3989    0.1724 C   0  0  0  0  0  0  0  0  0  0  0  0
   -4.2477    0.4791    1.5603 C   0  0  0  0  0  0  0  0  0  0  0  0
   -0.3248   -1.7613    3.7365 C   0  0  0  0  0  0  0  0  0  0  0  0
   -1.1146   -2.0017    4.8176 N   0  0  0  0  0  0  0  0  0  0  0  0
   -0.4631   -2.9527    5.5672 C   0  0  0  0  0  0  0  0  0  0  0  0
    0.6817   -3.3178    5.0188 N   0  0  0  0  0  0  0  0  0  0  0  0
    0.7539   -2.5741    3.8893 C   0  0  0  0  0  0  0  0  0  0  0  0
    2.5415   -3.1644    3.0602 H   0  0  0  0  0  0  0  0  0  0  0  0
    4.7815   -0.9243    2.0086 H   0  0  0  0  0  0  0  0  0  0  0  0
    6.8405   -2.3092    2.0690 H   0  0  0  0  0  0  0  0  0  0  0  0
    6.8518   -4.5601    1.0193 H   0  0  0  0  0  0  0  0  0  0  0  0
    4.8070   -5.4143   -0.1021 H   0  0  0  0  0  0  0  0  0  0  0  0
    2.7519   -4.0235   -0.1583 H   0  0  0  0  0  0  0  0  0  0  0  0
   -1.6778    0.1175    0.5522 H   0  0  0  0  0  0  0  0  0  0  0  0
   -0.8788    1.4271    1.4766 H   0  0  0  0  0  0  0  0  0  0  0  0
   -3.0628    1.9171    2.5952 H   0  0  0  0  0  0  0  0  0  0  0  0
   -2.5685    3.4250    0.8676 H   0  0  0  0  0  0  0  0  0  0  0  0
   -2.6651    2.2142   -0.4026 H   0  0  0  0  0  0  0  0  0  0  0  0
   -4.6137    3.7725   -0.4609 H   0  0  0  0  0  0  0  0  0  0  0  0
   -5.0429    3.2972    1.1758 H   0  0  0  0  0  0  0  0  0  0  0  0
   -6.4332    1.8868   -0.0113 H   0  0  0  0  0  0  0  0  0  0  0  0
   -5.3661    1.7791   -1.3984 H   0  0  0  0  0  0  0  0  0  0  0  0
   -5.6987   -0.3218    0.1698 H   0  0  0  0  0  0  0  0  0  0  0  0
   -4.1276    0.0203   -0.5381 H   0  0  0  0  0  0  0  0  0  0  0  0
   -3.9685   -0.5245    1.8995 H   0  0  0  0  0  0  0  0  0  0  0  0
   -5.0113    0.8360    2.2642 H   0  0  0  0  0  0  0  0  0  0  0  0
   -2.0035   -1.5664    5.0263 H   0  0  0  0  0  0  0  0  0  0  0  0
   -0.8713   -3.3346    6.4940 H   0  0  0  0  0  0  0  0  0  0  0  0
  1  2  1  0
  2  3  2  3
  3  4  1  0
  4  5  2  0
  5  6  1  0
  6  7  2  0
  7  8  1  0
  8  9  2  0
  2 10  1  0
 10 11  2  0
 11 12  1  0
 12 13  1  0
 13 14  1  0
 14 15  1  0
 15 16  1  0
 16 17  1  0
 17 18  1  0
 18 19  1  0
 11 20  1  0
 20 21  1  0
 21 22  1  0
 22 23  2  0
 23 24  1  0
 24  1  1  0
  9  4  1  0
 19 14  1  0
 24 20  2  0
  1 25  1  0
  5 26  1  0
  6 27  1  0
  7 28  1  0
  8 29  1  0
  9 30  1  0
 13 31  1  0
 13 32  1  0
 14 33  1  0
 15 34  1  0
 15 35  1  0
 16 36  1  0
 16 37  1  0
 17 38  1  0
 17 39  1  0
 18 40  1  0
 18 41  1  0
 19 42  1  0
 19 43  1  0
 21 44  1  0
 22 45  1  0
M  END
>  <ScrubInfo>  (3) 
{"isomerGroup": 0, "isomerId": 2, "confId": 0, "nr_conformers:": 1, "nr_isomers:": 9}

$$$$
_i3
     RDKit          3D

 45 48  0  0  0  0  0  0  0  0999 V2000
   -1.3450   -0.0223    0.2041 N   0  0  0  0  0  0  0  0  0  0  0  0
   -0.2891    0.8360    0.0299 C   0  0  0  0  0  0  0  0  0  0  0  0
    0.7995    0.7822    0.8730 O   0  0  0  0  0  0  0  0  0  0  0  0
    1.4482   -0.4952    0.8385 C   0  0  0  0  0  0  0  0  0  0  0  0
    2.8153   -0.3758    1.5278 C   0  0  0  0  0  0  0  0  0  0  0  0
    3.7285    0.6180    0.7893 C   0  0  0  0  0  0  0  0  0  0  0  0
    5.1130    0.6976    1.4290 C   0  0  0  0  0  0  0  0  0  0  0  0
    5.7646   -0.6768    1.5373 C   0  0  0  0  0  0  0  0  0  0  0  0
    4.8668   -1.6649    2.2744 C   0  0  0  0  0  0  0  0  0  0  0  0
    3.4835   -1.7535    1.6349 C   0  0  0  0  0  0  0  0  0  0  0  0
   -0.3561    1.7506   -0.9365 C   0  0  0  0  0  0  0  0  0  0  0  0
    0.3587    2.7634   -1.4700 N   0  0  0  0  0  0  0  0  0  0  0  0
   -0.3742    3.2752   -2.4903 C   0  0  0  0  0  0  0  0  0  0  0  0
   -1.5209    2.6918   -2.7033 N   0  0  0  0  0  0  0  0  0  0  0  0
   -1.6156    1.6922   -1.7410 C   0  0  0  0  0  0  0  0  0  0  0  0
   -2.6195    0.9028   -1.6028 N   0  0  0  0  0  0  0  0  0  0  0  0
   -2.4926    0.0155   -0.5538 C   0  0  0  0  0  0  0  0  0  0  0  0
   -3.4541   -0.8054   -0.2409 N   0  0  0  0  0  0  0  0  0  0  0  0
   -4.6388   -0.7874   -0.9914 C   0  0  0  0  0  0  0  0  0  0  0  0
   -5.7114    0.0182   -0.5993 C   0  0  0  0  0  0  0  0  0  0  0  0
   -6.9073    0.0065   -1.3205 C   0  0  0  0  0  0  0  0  0  0  0  0
   -7.0408   -0.8227   -2.4335 C   0  0  0  0  0  0  0  0  0  0  0  0
   -5.9813   -1.6414   -2.8226 C   0  0  0  0  0  0  0  0  0  0  0  0
   -4.7869   -1.6269   -2.0989 C   0  0  0  0  0  0  0  0  0  0  0  0
   -1.3693   -0.6100    1.0235 H   0  0  0  0  0  0  0  0  0  0  0  0
    1.5793   -0.8305   -0.1991 H   0  0  0  0  0  0  0  0  0  0  0  0
    0.8305   -1.2273    1.3725 H   0  0  0  0  0  0  0  0  0  0  0  0
    2.6527    0.0171    2.5410 H   0  0  0  0  0  0  0  0  0  0  0  0
    3.2801    1.6184    0.7879 H   0  0  0  0  0  0  0  0  0  0  0  0
    3.8333    0.3158   -0.2606 H   0  0  0  0  0  0  0  0  0  0  0  0
    5.0271    1.1409    2.4287 H   0  0  0  0  0  0  0  0  0  0  0  0
    5.7531    1.3632    0.8389 H   0  0  0  0  0  0  0  0  0  0  0  0
    6.7243   -0.5901    2.0591 H   0  0  0  0  0  0  0  0  0  0  0  0
    5.9804   -1.0590    0.5320 H   0  0  0  0  0  0  0  0  0  0  0  0
    4.7653   -1.3555    3.3220 H   0  0  0  0  0  0  0  0  0  0  0  0
    5.3347   -2.6558    2.2782 H   0  0  0  0  0  0  0  0  0  0  0  0
    3.5758   -2.2012    0.6370 H   0  0  0  0  0  0  0  0  0  0  0  0
    2.8552   -2.4282    2.2285 H   0  0  0  0  0  0  0  0  0  0  0  0
    1.2405    3.0806   -1.1027 H   0  0  0  0  0  0  0  0  0  0  0  0
    0.0452    4.1233   -3.0522 H   0  0  0  0  0  0  0  0  0  0  0  0
   -5.6078    0.6617    0.2689 H   0  0  0  0  0  0  0  0  0  0  0  0
   -7.7308    0.6449   -1.0136 H   0  0  0  0  0  0  0  0  0  0  0  0
   -7.9696   -0.8304   -2.9975 H   0  0  0  0  0  0  0  0  0  0  0  0
   -6.0819   -2.2896   -3.6884 H   0  0  0  0  0  0  0  0  0  0  0  0
   -3.9626   -2.2660   -2.3997 H   0  0  0  0  0  0  0  0  0  0  0  0
  1  2  1  0
  2  3  1  0
  3  4  1  0
  4  5  1  0
  5  6  1  0
  6  7  1  0
  7  8  1  0
  8  9  1  0
  9 10  1  0
  2 11  2  0
 11 12  1  0
 12 13  1  0
 13 14  2  0
 14 15  1  0
 15 16  2  0
 16 17  1  0
 17 18  2  3
 18 19  1  0
 19 20  2  0
 20 21  1  0
 21 22  2  0
 22 23  1  0
 23 24  2  0
 17  1  1  0
 24 19  1  0
 10  5  1  0
 15 11  1  0
  1 25  1  0
  4 26  1  0
  4 27  1  0
  5 28  1  0
  6 29  1  0
  6 30  1  0
  7 31  1  0
  7 32  1  0
  8 33  1  0
  8 34  1  0
  9 35  1  0
  9 36  1  0
 10 37  1  0
 10 38  1  0
 12 39  1  0
 13 40  1  0
 20 41  1  0
 21 42  1  0
 22 43  1  0
 23 44  1  0
 24 45  1  0
M  END
>  <ScrubInfo>  (4) 
{"isomerGroup": 0, "isomerId": 3, "confId": 0, "nr_conformers:": 1, "nr_isomers:": 9}

$$$$
_i4
     RDKit          3D

 45 48  0  0  0  0  0  0  0  0999 V2000
    2.7104   -0.2005   -0.7457 N   0  0  0  0  0  0  0  0  0  0  0  0
    2.5009   -0.3987    0.5879 C   0  0  0  0  0  0  0  0  0  0  0  0
    3.5275   -0.0776    1.4297 N   0  0  0  0  0  0  0  0  0  0  0  0
    4.3050    1.1013    1.4054 C   0  0  0  0  0  0  0  0  0  0  0  0
    3.9344    2.2561    0.7050 C   0  0  0  0  0  0  0  0  0  0  0  0
    4.7514    3.3906    0.7130 C   0  0  0  0  0  0  0  0  0  0  0  0
    5.9486    3.3854    1.4243 C   0  0  0  0  0  0  0  0  0  0  0  0
    6.3272    2.2486    2.1330 C   0  0  0  0  0  0  0  0  0  0  0  0
    5.5087    1.1166    2.1250 C   0  0  0  0  0  0  0  0  0  0  0  0
    1.4042   -0.9350    1.0583 N   0  0  0  0  0  0  0  0  0  0  0  0
    0.3842   -1.2864    0.1652 C   0  0  0  0  0  0  0  0  0  0  0  0
   -0.7143   -1.8042    0.8175 O   0  0  0  0  0  0  0  0  0  0  0  0
   -1.8516   -2.3191    0.1343 C   0  0  0  0  0  0  0  0  0  0  0  0
   -3.0603   -1.3824    0.2950 C   0  0  0  0  0  0  0  0  0  0  0  0
   -2.8365   -0.0074   -0.3534 C   0  0  0  0  0  0  0  0  0  0  0  0
   -4.0657    0.8897   -0.2174 C   0  0  0  0  0  0  0  0  0  0  0  0
   -5.3163    0.2197   -0.7760 C   0  0  0  0  0  0  0  0  0  0  0  0
   -5.5497   -1.1458   -0.1391 C   0  0  0  0  0  0  0  0  0  0  0  0
   -4.3243   -2.0466   -0.2722 C   0  0  0  0  0  0  0  0  0  0  0  0
    0.5009   -1.1191   -1.1719 C   0  0  0  0  0  0  0  0  0  0  0  0
   -0.2726   -1.3514   -2.2758 N   0  0  0  0  0  0  0  0  0  0  0  0
    0.4808   -0.9553   -3.2612 C   0  0  0  0  0  0  0  0  0  0  0  0
    1.7332   -0.4522   -2.9405 N   0  0  0  0  0  0  0  0  0  0  0  0
    1.7631   -0.5391   -1.6468 C   0  0  0  0  0  0  0  0  0  0  0  0
    3.6073    0.1288   -1.0672 H   0  0  0  0  0  0  0  0  0  0  0  0
    3.3082   -0.3408    2.3878 H   0  0  0  0  0  0  0  0  0  0  0  0
    2.9907    2.3071    0.1676 H   0  0  0  0  0  0  0  0  0  0  0  0
    4.4462    4.2820    0.1703 H   0  0  0  0  0  0  0  0  0  0  0  0
    6.5823    4.2686    1.4314 H   0  0  0  0  0  0  0  0  0  0  0  0
    7.2595    2.2408    2.6919 H   0  0  0  0  0  0  0  0  0  0  0  0
    5.8250    0.2344    2.6774 H   0  0  0  0  0  0  0  0  0  0  0  0
   -2.0890   -3.2652    0.6372 H   0  0  0  0  0  0  0  0  0  0  0  0
   -1.6691   -2.5961   -0.9050 H   0  0  0  0  0  0  0  0  0  0  0  0
   -3.2087   -1.2127    1.3707 H   0  0  0  0  0  0  0  0  0  0  0  0
   -1.9813    0.4983    0.1082 H   0  0  0  0  0  0  0  0  0  0  0  0
   -2.6050   -0.1307   -1.4179 H   0  0  0  0  0  0  0  0  0  0  0  0
   -3.8899    1.8360   -0.7413 H   0  0  0  0  0  0  0  0  0  0  0  0
   -4.2232    1.1346    0.8402 H   0  0  0  0  0  0  0  0  0  0  0  0
   -6.1875    0.8616   -0.6034 H   0  0  0  0  0  0  0  0  0  0  0  0
   -5.2145    0.1037   -1.8621 H   0  0  0  0  0  0  0  0  0  0  0  0
   -5.7937   -1.0169    0.9226 H   0  0  0  0  0  0  0  0  0  0  0  0
   -6.4143   -1.6284   -0.6087 H   0  0  0  0  0  0  0  0  0  0  0  0
   -4.1711   -2.2934   -1.3306 H   0  0  0  0  0  0  0  0  0  0  0  0
   -4.5165   -2.9917    0.2496 H   0  0  0  0  0  0  0  0  0  0  0  0
    0.1557   -1.0073   -4.3125 H   0  0  0  0  0  0  0  0  0  0  0  0
  1  2  1  0
  2  3  1  0
  3  4  1  0
  4  5  2  0
  5  6  1  0
  6  7  2  0
  7  8  1  0
  8  9  2  0
  2 10  2  0
 10 11  1  0
 11 12  1  0
 12 13  1  0
 13 14  1  0
 14 15  1  0
 15 16  1  0
 16 17  1  0
 17 18  1  0
 18 19  1  0
 11 20  2  0
 20 21  1  0
 21 22  2  0
 22 23  1  0
 23 24  2  0
 24  1  1  0
  9  4  1  0
 19 14  1  0
 24 20  1  0
  1 25  1  0
  3 26  1  0
  5 27  1  0
  6 28  1  0
  7 29  1  0
  8 30  1  0
  9 31  1  0
 13 32  1  0
 13 33  1  0
 14 34  1  0
 15 35  1  0
 15 36  1  0
 16 37  1  0
 16 38  1  0
 17 39  1  0
 17 40  1  0
 18 41  1  0
 18 42  1  0
 19 43  1  0
 19 44  1  0
 22 45  1  0
M  END
>  <ScrubInfo>  (5) 
{"isomerGroup": 0, "isomerId": 4, "confId": 0, "nr_conformers:": 1, "nr_isomers:": 9}

$$$$
_i5
     RDKit          3D

 45 48  0  0  0  0  0  0  0  0999 V2000
    1.2628    0.6016   -0.5146 N   0  0  0  0  0  0  0  0  0  0  0  0
    2.3804    0.1080    0.1188 C   0  0  0  0  0  0  0  0  0  0  0  0
    3.3165    1.0914    0.3215 N   0  0  0  0  0  0  0  0  0  0  0  0
    4.6091    0.9853    0.8756 C   0  0  0  0  0  0  0  0  0  0  0  0
    5.2840    2.1675    1.2299 C   0  0  0  0  0  0  0  0  0  0  0  0
    6.5801    2.1384    1.7545 C   0  0  0  0  0  0  0  0  0  0  0  0
    7.2336    0.9228    1.9230 C   0  0  0  0  0  0  0  0  0  0  0  0
    6.5924   -0.2573    1.5603 C   0  0  0  0  0  0  0  0  0  0  0  0
    5.2953   -0.2232    1.0351 C   0  0  0  0  0  0  0  0  0  0  0  0
    2.4852   -1.1384    0.4764 N   0  0  0  0  0  0  0  0  0  0  0  0
    1.4283   -1.9422    0.1823 C   0  0  0  0  0  0  0  0  0  0  0  0
    1.3197   -3.2056    0.4544 N   0  0  0  0  0  0  0  0  0  0  0  0
    0.0770   -3.5206   -0.0720 C   0  0  0  0  0  0  0  0  0  0  0  0
   -0.5973   -2.5646   -0.6513 N   0  0  0  0  0  0  0  0  0  0  0  0
    0.2280   -1.4818   -0.5214 C   0  0  0  0  0  0  0  0  0  0  0  0
    0.1891   -0.1874   -0.8715 C   0  0  0  0  0  0  0  0  0  0  0  0
   -0.7869    0.4921   -1.5494 O   0  0  0  0  0  0  0  0  0  0  0  0
   -1.9450   -0.1730   -2.0531 C   0  0  0  0  0  0  0  0  0  0  0  0
   -3.1929    0.2068   -1.2393 C   0  0  0  0  0  0  0  0  0  0  0  0
   -4.4553   -0.3478   -1.9171 C   0  0  0  0  0  0  0  0  0  0  0  0
   -5.7201   -0.0039   -1.1344 C   0  0  0  0  0  0  0  0  0  0  0  0
   -5.6287   -0.4691    0.3147 C   0  0  0  0  0  0  0  0  0  0  0  0
   -4.3813    0.0794    0.9989 C   0  0  0  0  0  0  0  0  0  0  0  0
   -3.1125   -0.2654    0.2208 C   0  0  0  0  0  0  0  0  0  0  0  0
    1.2750    1.5054   -0.9643 H   0  0  0  0  0  0  0  0  0  0  0  0
    2.9512    2.0314    0.3611 H   0  0  0  0  0  0  0  0  0  0  0  0
    4.8037    3.1347    1.1049 H   0  0  0  0  0  0  0  0  0  0  0  0
    7.0772    3.0652    2.0284 H   0  0  0  0  0  0  0  0  0  0  0  0
    8.2405    0.8932    2.3302 H   0  0  0  0  0  0  0  0  0  0  0  0
    7.0976   -1.2124    1.6801 H   0  0  0  0  0  0  0  0  0  0  0  0
    4.8421   -1.1683    0.7501 H   0  0  0  0  0  0  0  0  0  0  0  0
   -0.3106   -4.5492    0.0038 H   0  0  0  0  0  0  0  0  0  0  0  0
   -1.8306   -1.2529   -2.1637 H   0  0  0  0  0  0  0  0  0  0  0  0
   -2.0765    0.2044   -3.0750 H   0  0  0  0  0  0  0  0  0  0  0  0
   -3.2591    1.3038   -1.2225 H   0  0  0  0  0  0  0  0  0  0  0  0
   -4.5422    0.0556   -2.9330 H   0  0  0  0  0  0  0  0  0  0  0  0
   -4.3762   -1.4382   -2.0139 H   0  0  0  0  0  0  0  0  0  0  0  0
   -5.8815    1.0808   -1.1607 H   0  0  0  0  0  0  0  0  0  0  0  0
   -6.5885   -0.4675   -1.6160 H   0  0  0  0  0  0  0  0  0  0  0  0
   -5.6105   -1.5654    0.3462 H   0  0  0  0  0  0  0  0  0  0  0  0
   -6.5217   -0.1483    0.8626 H   0  0  0  0  0  0  0  0  0  0  0  0
   -4.3108   -0.3252    2.0149 H   0  0  0  0  0  0  0  0  0  0  0  0
   -4.4657    1.1690    1.0942 H   0  0  0  0  0  0  0  0  0  0  0  0
   -2.2568    0.1966    0.7253 H   0  0  0  0  0  0  0  0  0  0  0  0
   -2.9608   -1.3508    0.2532 H   0  0  0  0  0  0  0  0  0  0  0  0
  1  2  1  0
  2  3  1  0
  3  4  1  0
  4  5  2  0
  5  6  1  0
  6  7  2  0
  7  8  1  0
  8  9  2  0
  2 10  2  0
 10 11  1  0
 11 12  2  0
 12 13  1  0
 13 14  2  0
 14 15  1  0
 15 16  2  0
 16 17  1  0
 17 18  1  0
 18 19  1  0
 19 20  1  0
 20 21  1  0
 21 22  1  0
 22 23  1  0
 23 24  1  0
 16  1  1  0
 24 19  1  0
  9  4  1  0
 15 11  1  0
  1 25  1  0
  3 26  1  0
  5 27  1  0
  6 28  1  0
  7 29  1  0
  8 30  1  0
  9 31  1  0
 13 32  1  0
 18 33  1  0
 18 34  1  0
 19 35  1  0
 20 36  1  0
 20 37  1  0
 21 38  1  0
 21 39  1  0
 22 40  1  0
 22 41  1  0
 23 42  1  0
 23 43  1  0
 24 44  1  0
 24 45  1  0
M  END
>  <ScrubInfo>  (6) 
{"isomerGroup": 0, "isomerId": 5, "confId": 0, "nr_conformers:": 1, "nr_isomers:": 9}

$$$$
_i6
     RDKit          3D

 45 48  0  0  0  0  0  0  0  0999 V2000
   -0.9151    0.2463    0.4283 N   0  0  0  0  0  0  0  0  0  0  0  0
   -0.1369   -0.1992   -0.6144 C   0  0  0  0  0  0  0  0  0  0  0  0
    1.2144   -0.1398   -0.3816 O   0  0  0  0  0  0  0  0  0  0  0  0
    2.0893   -0.5857   -1.4191 C   0  0  0  0  0  0  0  0  0  0  0  0
    3.5522   -0.4394   -0.9661 C   0  0  0  0  0  0  0  0  0  0  0  0
    3.8485   -1.3066    0.2685 C   0  0  0  0  0  0  0  0  0  0  0  0
    5.2994   -1.1595    0.7227 C   0  0  0  0  0  0  0  0  0  0  0  0
    5.6623    0.2994    0.9815 C   0  0  0  0  0  0  0  0  0  0  0  0
    5.3606    1.1763   -0.2297 C   0  0  0  0  0  0  0  0  0  0  0  0
    3.9098    1.0291   -0.6839 C   0  0  0  0  0  0  0  0  0  0  0  0
   -0.7638   -0.6334   -1.7196 C   0  0  0  0  0  0  0  0  0  0  0  0
   -0.3675   -1.1471   -2.9540 N   0  0  0  0  0  0  0  0  0  0  0  0
   -1.5018   -1.3702   -3.5741 C   0  0  0  0  0  0  0  0  0  0  0  0
   -2.6260   -1.0543   -2.8718 N   0  0  0  0  0  0  0  0  0  0  0  0
   -2.2675   -0.5661   -1.6511 C   0  0  0  0  0  0  0  0  0  0  0  0
   -2.9971   -0.1508   -0.6795 N   0  0  0  0  0  0  0  0  0  0  0  0
   -2.2858    0.2809    0.4251 C   0  0  0  0  0  0  0  0  0  0  0  0
   -2.9016    0.7278    1.4814 N   0  0  0  0  0  0  0  0  0  0  0  0
   -4.3030    0.7687    1.4916 C   0  0  0  0  0  0  0  0  0  0  0  0
   -4.9797    1.9178    1.0732 C   0  0  0  0  0  0  0  0  0  0  0  0
   -6.3744    1.9751    1.1184 C   0  0  0  0  0  0  0  0  0  0  0  0
   -7.1006    0.8842    1.5949 C   0  0  0  0  0  0  0  0  0  0  0  0
   -6.4330   -0.2602    2.0298 C   0  0  0  0  0  0  0  0  0  0  0  0
   -5.0382   -0.3136    1.9830 C   0  0  0  0  0  0  0  0  0  0  0  0
   -0.4374    0.5710    1.2555 H   0  0  0  0  0  0  0  0  0  0  0  0
    1.9371    0.0193   -2.3210 H   0  0  0  0  0  0  0  0  0  0  0  0
    1.8935   -1.6411   -1.6440 H   0  0  0  0  0  0  0  0  0  0  0  0
    4.1863   -0.7923   -1.7909 H   0  0  0  0  0  0  0  0  0  0  0  0
    3.6472   -2.3600    0.0405 H   0  0  0  0  0  0  0  0  0  0  0  0
    3.1859   -1.0283    1.0975 H   0  0  0  0  0  0  0  0  0  0  0  0
    5.9657   -1.5713   -0.0453 H   0  0  0  0  0  0  0  0  0  0  0  0
    5.4613   -1.7466    1.6338 H   0  0  0  0  0  0  0  0  0  0  0  0
    6.7252    0.3757    1.2370 H   0  0  0  0  0  0  0  0  0  0  0  0
    5.0981    0.6672    1.8474 H   0  0  0  0  0  0  0  0  0  0  0  0
    6.0306    0.9037   -1.0544 H   0  0  0  0  0  0  0  0  0  0  0  0
    5.5655    2.2248    0.0145 H   0  0  0  0  0  0  0  0  0  0  0  0
    3.2506    1.4395    0.0913 H   0  0  0  0  0  0  0  0  0  0  0  0
    3.7519    1.6309   -1.5867 H   0  0  0  0  0  0  0  0  0  0  0  0
   -1.6259   -1.7802   -4.5876 H   0  0  0  0  0  0  0  0  0  0  0  0
   -3.5815   -1.1515   -3.1716 H   0  0  0  0  0  0  0  0  0  0  0  0
   -4.4120    2.7694    0.7103 H   0  0  0  0  0  0  0  0  0  0  0  0
   -6.8903    2.8716    0.7864 H   0  0  0  0  0  0  0  0  0  0  0  0
   -8.1857    0.9283    1.6332 H   0  0  0  0  0  0  0  0  0  0  0  0
   -6.9947   -1.1090    2.4094 H   0  0  0  0  0  0  0  0  0  0  0  0
   -4.5161   -1.2006    2.3290 H   0  0  0  0  0  0  0  0  0  0  0  0
  1  2  1  0
  2  3  1  0
  3  4  1  0
  4  5  1  0
  5  6  1  0
  6  7  1  0
  7  8  1  0
  8  9  1  0
  9 10  1  0
  2 11  2  0
 11 12  1  0
 12 13  2  0
 13 14  1  0
 14 15  1  0
 15 16  2  0
 16 17  1  0
 17 18  2  3
 18 19  1  0
 19 20  2  0
 20 21  1  0
 21 22  2  0
 22 23  1  0
 23 24  2  0
 17  1  1  0
 24 19  1  0
 10  5  1  0
 15 11  1  0
  1 25  1  0
  4 26  1  0
  4 27  1  0
  5 28  1  0
  6 29  1  0
  6 30  1  0
  7 31  1  0
  7 32  1  0
  8 33  1  0
  8 34  1  0
  9 35  1  0
  9 36  1  0
 10 37  1  0
 10 38  1  0
 13 39  1  0
 14 40  1  0
 20 41  1  0
 21 42  1  0
 22 43  1  0
 23 44  1  0
 24 45  1  0
M  END
>  <ScrubInfo>  (7) 
{"isomerGroup": 0, "isomerId": 6, "confId": 0, "nr_conformers:": 1, "nr_isomers:": 9}

$$$$
_i7
     RDKit          3D

 45 48  0  0  0  0  0  0  0  0999 V2000
   -0.9747   -4.2955    1.8115 N   0  0  0  0  0  0  0  0  0  0  0  0
   -1.3881   -3.1201    1.2062 C   0  0  0  0  0  0  0  0  0  0  0  0
   -2.6375   -3.0299    0.8456 N   0  0  0  0  0  0  0  0  0  0  0  0
   -3.0825   -1.8506    0.2299 C   0  0  0  0  0  0  0  0  0  0  0  0
   -3.6126   -0.8093    0.9969 C   0  0  0  0  0  0  0  0  0  0  0  0
   -4.0806    0.3550    0.3839 C   0  0  0  0  0  0  0  0  0  0  0  0
   -4.0314    0.4787   -1.0041 C   0  0  0  0  0  0  0  0  0  0  0  0
   -3.5194   -0.5619   -1.7782 C   0  0  0  0  0  0  0  0  0  0  0  0
   -3.0523   -1.7247   -1.1617 C   0  0  0  0  0  0  0  0  0  0  0  0
   -0.5135   -2.0630    0.9832 N   0  0  0  0  0  0  0  0  0  0  0  0
    0.7287   -2.1879    1.3552 C   0  0  0  0  0  0  0  0  0  0  0  0
    1.6606   -1.2142    1.1820 O   0  0  0  0  0  0  0  0  0  0  0  0
    1.1993   -0.0134    0.5450 C   0  0  0  0  0  0  0  0  0  0  0  0
    2.3765    0.9605    0.4023 C   0  0  0  0  0  0  0  0  0  0  0  0
    1.8916    2.3070   -0.1525 C   0  0  0  0  0  0  0  0  0  0  0  0
    3.0449    3.2874   -0.3507 C   0  0  0  0  0  0  0  0  0  0  0  0
    4.1411    2.6954   -1.2303 C   0  0  0  0  0  0  0  0  0  0  0  0
    4.6343    1.3590   -0.6858 C   0  0  0  0  0  0  0  0  0  0  0  0
    3.4863    0.3719   -0.4855 C   0  0  0  0  0  0  0  0  0  0  0  0
    1.2112   -3.3973    1.9919 C   0  0  0  0  0  0  0  0  0  0  0  0
    2.4432   -3.7687    2.4652 N   0  0  0  0  0  0  0  0  0  0  0  0
    2.2622   -4.9896    2.9363 C   0  0  0  0  0  0  0  0  0  0  0  0
    0.9630   -5.4207    2.7859 N   0  0  0  0  0  0  0  0  0  0  0  0
    0.3049   -4.4014    2.1850 C   0  0  0  0  0  0  0  0  0  0  0  0
   -1.6968   -4.9955    1.9220 H   0  0  0  0  0  0  0  0  0  0  0  0
   -3.6544   -0.9083    2.0774 H   0  0  0  0  0  0  0  0  0  0  0  0
   -4.4843    1.1613    0.9899 H   0  0  0  0  0  0  0  0  0  0  0  0
   -4.3960    1.3838   -1.4826 H   0  0  0  0  0  0  0  0  0  0  0  0
   -3.4850   -0.4714   -2.8603 H   0  0  0  0  0  0  0  0  0  0  0  0
   -2.6574   -2.5373   -1.7640 H   0  0  0  0  0  0  0  0  0  0  0  0
    0.7853   -0.2548   -0.4417 H   0  0  0  0  0  0  0  0  0  0  0  0
    0.4173    0.4409    1.1653 H   0  0  0  0  0  0  0  0  0  0  0  0
    2.8060    1.1240    1.4004 H   0  0  0  0  0  0  0  0  0  0  0  0
    1.3810    2.1525   -1.1117 H   0  0  0  0  0  0  0  0  0  0  0  0
    1.1566    2.7495    0.5304 H   0  0  0  0  0  0  0  0  0  0  0  0
    2.6686    4.2118   -0.8032 H   0  0  0  0  0  0  0  0  0  0  0  0
    3.4657    3.5579    0.6256 H   0  0  0  0  0  0  0  0  0  0  0  0
    4.9792    3.3980   -1.2985 H   0  0  0  0  0  0  0  0  0  0  0  0
    3.7570    2.5557   -2.2483 H   0  0  0  0  0  0  0  0  0  0  0  0
    5.1463    1.5210    0.2708 H   0  0  0  0  0  0  0  0  0  0  0  0
    5.3719    0.9307   -1.3738 H   0  0  0  0  0  0  0  0  0  0  0  0
    3.0721    0.0975   -1.4641 H   0  0  0  0  0  0  0  0  0  0  0  0
    3.8825   -0.5478   -0.0395 H   0  0  0  0  0  0  0  0  0  0  0  0
    3.0232   -5.6085    3.3938 H   0  0  0  0  0  0  0  0  0  0  0  0
    0.5933   -6.3165    3.0707 H   0  0  0  0  0  0  0  0  0  0  0  0
  1  2  1  0
  2  3  2  3
  3  4  1  0
  4  5  2  0
  5  6  1  0
  6  7  2  0
  7  8  1  0
  8  9  2  0
  2 10  1  0
 10 11  2  0
 11 12  1  0
 12 13  1  0
 13 14  1  0
 14 15  1  0
 15 16  1  0
 16 17  1  0
 17 18  1  0
 18 19  1  0
 11 20  1  0
 20 21  1  0
 21 22  2  0
 22 23  1  0
 23 24  1  0
 24  1  1  0
  9  4  1  0
 19 14  1  0
 24 20  2  0
  1 25  1  0
  5 26  1  0
  6 27  1  0
  7 28  1  0
  8 29  1  0
  9 30  1  0
 13 31  1  0
 13 32  1  0
 14 33  1  0
 15 34  1  0
 15 35  1  0
 16 36  1  0
 16 37  1  0
 17 38  1  0
 17 39  1  0
 18 40  1  0
 18 41  1  0
 19 42  1  0
 19 43  1  0
 22 44  1  0
 23 45  1  0
M  END
>  <ScrubInfo>  (8) 
{"isomerGroup": 0, "isomerId": 7, "confId": 0, "nr_conformers:": 1, "nr_isomers:": 9}

$$$$
_i8
     RDKit          3D

 45 48  0  0  0  0  0  0  0  0999 V2000
   -0.9512   -0.1475    0.3502 N   0  0  0  0  0  0  0  0  0  0  0  0
   -0.1435    0.3816   -0.6485 C   0  0  0  0  0  0  0  0  0  0  0  0
    1.2004    0.2766   -0.3756 O   0  0  0  0  0  0  0  0  0  0  0  0
    2.1234    0.7900   -1.3375 C   0  0  0  0  0  0  0  0  0  0  0  0
    3.5643    0.5747   -0.8435 C   0  0  0  0  0  0  0  0  0  0  0  0
    3.8271    1.3280    0.4709 C   0  0  0  0  0  0  0  0  0  0  0  0
    5.2559    1.1122    0.9658 C   0  0  0  0  0  0  0  0  0  0  0  0
    5.5819   -0.3708    1.1128 C   0  0  0  0  0  0  0  0  0  0  0  0
    5.3127   -1.1356   -0.1793 C   0  0  0  0  0  0  0  0  0  0  0  0
    3.8839   -0.9197   -0.6741 C   0  0  0  0  0  0  0  0  0  0  0  0
   -0.7063    0.9261   -1.7452 C   0  0  0  0  0  0  0  0  0  0  0  0
   -0.2694    1.5214   -2.8923 N   0  0  0  0  0  0  0  0  0  0  0  0
   -1.3795    1.8088   -3.5115 C   0  0  0  0  0  0  0  0  0  0  0  0
   -2.5694    1.4598   -2.8855 N   0  0  0  0  0  0  0  0  0  0  0  0
   -2.1784    0.9051   -1.7772 C   0  0  0  0  0  0  0  0  0  0  0  0
   -2.8920    0.3648   -0.7519 N   0  0  0  0  0  0  0  0  0  0  0  0
   -2.3298   -0.1952    0.3753 C   0  0  0  0  0  0  0  0  0  0  0  0
   -2.9380   -0.7286    1.3922 N   0  0  0  0  0  0  0  0  0  0  0  0
   -4.3379   -0.7640    1.3922 C   0  0  0  0  0  0  0  0  0  0  0  0
   -5.0157   -1.8605    0.8535 C   0  0  0  0  0  0  0  0  0  0  0  0
   -6.4113   -1.8929    0.8441 C   0  0  0  0  0  0  0  0  0  0  0  0
   -7.1357   -0.8308    1.3844 C   0  0  0  0  0  0  0  0  0  0  0  0
   -6.4657    0.2587    1.9402 C   0  0  0  0  0  0  0  0  0  0  0  0
   -5.0701    0.2881    1.9480 C   0  0  0  0  0  0  0  0  0  0  0  0
   -0.4592   -0.5389    1.1429 H   0  0  0  0  0  0  0  0  0  0  0  0
    1.9557    1.8644   -1.4788 H   0  0  0  0  0  0  0  0  0  0  0  0
    1.9962    0.2666   -2.2928 H   0  0  0  0  0  0  0  0  0  0  0  0
    4.2369    0.9825   -1.6105 H   0  0  0  0  0  0  0  0  0  0  0  0
    3.1271    0.9949    1.2474 H   0  0  0  0  0  0  0  0  0  0  0  0
    3.6539    2.4010    0.3261 H   0  0  0  0  0  0  0  0  0  0  0  0
    5.3921    1.6166    1.9290 H   0  0  0  0  0  0  0  0  0  0  0  0
    5.9594    1.5731    0.2615 H   0  0  0  0  0  0  0  0  0  0  0  0
    4.9772   -0.7983    1.9221 H   0  0  0  0  0  0  0  0  0  0  0  0
    6.6322   -0.4910    1.4011 H   0  0  0  0  0  0  0  0  0  0  0  0
    5.4888   -2.2051   -0.0178 H   0  0  0  0  0  0  0  0  0  0  0  0
    6.0197   -0.8086   -0.9517 H   0  0  0  0  0  0  0  0  0  0  0  0
    3.1872   -1.3799    0.0377 H   0  0  0  0  0  0  0  0  0  0  0  0
    3.7511   -1.4395   -1.6303 H   0  0  0  0  0  0  0  0  0  0  0  0
   -1.3959    2.3085   -4.4933 H   0  0  0  0  0  0  0  0  0  0  0  0
   -3.8984    0.3779   -0.8276 H   0  0  0  0  0  0  0  0  0  0  0  0
   -4.4505   -2.6932    0.4435 H   0  0  0  0  0  0  0  0  0  0  0  0
   -6.9315   -2.7495    0.4234 H   0  0  0  0  0  0  0  0  0  0  0  0
   -8.2226   -0.8576    1.3830 H   0  0  0  0  0  0  0  0  0  0  0  0
   -7.0284    1.0809    2.3746 H   0  0  0  0  0  0  0  0  0  0  0  0
   -4.5473    1.1312    2.3917 H   0  0  0  0  0  0  0  0  0  0  0  0
  1  2  1  0
  2  3  1  0
  3  4  1  0
  4  5  1  0
  5  6  1  0
  6  7  1  0
  7  8  1  0
  8  9  1  0
  9 10  1  0
  2 11  2  0
 11 12  1  0
 12 13  2  0
 13 14  1  0
 14 15  2  0
 15 16  1  0
 16 17  1  0
 17 18  2  3
 18 19  1  0
 19 20  2  0
 20 21  1  0
 21 22  2  0
 22 23  1  0
 23 24  2  0
 17  1  1  0
 24 19  1  0
 10  5  1  0
 15 11  1  0
  1 25  1  0
  4 26  1  0
  4 27  1  0
  5 28  1  0
  6 29  1  0
  6 30  1  0
  7 31  1  0
  7 32  1  0
  8 33  1  0
  8 34  1  0
  9 35  1  0
  9 36  1  0
 10 37  1  0
 10 38  1  0
 13 39  1  0
 16 40  1  0
 20 41  1  0
 21 42  1  0
 22 43  1  0
 23 44  1  0
 24 45  1  0
M  END
>  <ScrubInfo>  (9) 
{"isomerGroup": 0, "isomerId": 8, "confId": 0, "nr_conformers:": 1, "nr_isomers:": 9}

$$$$
