REMARK SMILES COc1ccc(Nc2nc(NC[C@@H]3CCCO3)c3ccccc3n2)cc1
REMARK SMILES IDX 8 1 9 2 10 3 18 4 19 5 20 6 21 7 22 8 23 9 24 10 7 11 6 13
REMARK SMILES IDX 3 14 4 15 26 16 5 17 25 18 2 19 1 20 11 21 12 23 13 24 14 25
REMARK SMILES IDX 17 26 15 27 16 28
REMARK H PARENT 7 12 11 22
ROOT
ATOM      1  C   UNL     1       0.237   0.557  -0.603  1.00  0.00     0.229 A 
ATOM      2  N   UNL     1      -1.026   0.280  -0.939  1.00  0.00    -0.195 NA
ATOM      3  C   UNL     1      -1.962   1.222  -0.775  1.00  0.00     0.139 A 
ATOM      4  C   UNL     1      -1.644   2.493  -0.276  1.00  0.00     0.043 A 
ATOM      5  C   UNL     1      -2.575   3.540  -0.047  1.00  0.00     0.014 A 
ATOM      6  C   UNL     1      -2.155   4.774   0.445  1.00  0.00     0.001 A 
ATOM      7  C   UNL     1      -0.809   4.974   0.717  1.00  0.00     0.002 A 
ATOM      8  C   UNL     1       0.103   3.937   0.502  1.00  0.00     0.029 A 
ATOM      9  C   UNL     1      -0.292   2.697   0.015  1.00  0.00     0.078 A 
ATOM     10  N   UNL     1       0.633   1.748  -0.147  1.00  0.00    -0.213 NA
ENDROOT
BRANCH   1  11
ATOM     11  N   UNL     1       1.115  -0.513  -0.757  1.00  0.00    -0.324 N 
ATOM     12  H   UNL     1       0.568  -1.325  -1.011  1.00  0.00     0.170 HD
BRANCH  11  13
ATOM     13  C   UNL     1       2.464  -0.717  -0.457  1.00  0.00     0.041 A 
ATOM     14  C   UNL     1       5.201  -1.258   0.059  1.00  0.00     0.119 A 
ATOM     15  C   UNL     1       4.369  -2.259  -0.432  1.00  0.00     0.048 A 
ATOM     16  C   UNL     1       4.667   0.010   0.283  1.00  0.00     0.048 A 
ATOM     17  C   UNL     1       3.018  -1.986  -0.690  1.00  0.00     0.030 A 
ATOM     18  C   UNL     1       3.317   0.278   0.024  1.00  0.00     0.030 A 
BRANCH  14  19
ATOM     19  O   UNL     1       6.530  -1.383   0.353  1.00  0.00    -0.497 OA
ATOM     20  C   UNL     1       7.116  -2.661   0.139  1.00  0.00     0.278 C 
ENDBRANCH  14  19
ENDBRANCH  11  13
ENDBRANCH   1  11
BRANCH   3  21
ATOM     21  N   UNL     1      -3.302   0.920  -1.103  1.00  0.00    -0.367 N 
ATOM     22  H   UNL     1      -3.607   1.611  -1.785  1.00  0.00     0.162 HD
BRANCH  21  23
ATOM     23  C   UNL     1      -3.582  -0.445  -1.579  1.00  0.00     0.146 C 
BRANCH  23  24
ATOM     24  C   UNL     1      -3.706  -1.509  -0.469  1.00  0.00     0.137 C 
ATOM     25  C   UNL     1      -4.387  -1.062   0.819  1.00  0.00     0.036 C 
ATOM     26  O   UNL     1      -2.436  -2.087  -0.096  1.00  0.00    -0.376 OA
ATOM     27  C   UNL     1      -3.804  -2.024   1.825  1.00  0.00     0.031 C 
ATOM     28  C   UNL     1      -2.379  -2.152   1.335  1.00  0.00     0.160 C 
ENDBRANCH  23  24
ENDBRANCH  21  23
ENDBRANCH   3  21
TORSDOF 6
