_i0
     RDKit          3D

 48 51  0  0  0  0  0  0  0  0999 V2000
    7.1162   -2.6608    0.1389 C   0  0  0  0  0  0  0  0  0  0  0  0
    6.5301   -1.3833    0.3527 O   0  0  0  0  0  0  0  0  0  0  0  0
    5.2012   -1.2577    0.0589 C   0  0  0  0  0  0  0  0  0  0  0  0
    4.3691   -2.2588   -0.4325 C   0  0  0  0  0  0  0  0  0  0  0  0
    3.0183   -1.9857   -0.6897 C   0  0  0  0  0  0  0  0  0  0  0  0
    2.4637   -0.7169   -0.4571 C   0  0  0  0  0  0  0  0  0  0  0  0
    1.1149   -0.5131   -0.7571 N   0  0  0  0  0  0  0  0  0  0  0  0
    0.2375    0.5566   -0.6031 C   0  0  0  0  0  0  0  0  0  0  0  0
   -1.0265    0.2800   -0.9390 N   0  0  0  0  0  0  0  0  0  0  0  0
   -1.9621    1.2218   -0.7753 C   0  0  0  0  0  0  0  0  0  0  0  0
   -3.3024    0.9198   -1.1030 N   0  0  0  0  0  0  0  0  0  0  0  0
   -3.5816   -0.4453   -1.5792 C   0  0  0  0  0  0  0  0  0  0  0  0
   -3.7056   -1.5091   -0.4690 C   0  0  0  0  0  0  0  0  0  0  0  0
   -4.3871   -1.0625    0.8188 C   0  0  0  0  0  0  0  0  0  0  0  0
   -3.8038   -2.0237    1.8255 C   0  0  0  0  0  0  0  0  0  0  0  0
   -2.3786   -2.1521    1.3352 C   0  0  0  0  0  0  0  0  0  0  0  0
   -2.4363   -2.0872   -0.0956 O   0  0  0  0  0  0  0  0  0  0  0  0
   -1.6443    2.4933   -0.2756 C   0  0  0  0  0  0  0  0  0  0  0  0
   -2.5747    3.5400   -0.0466 C   0  0  0  0  0  0  0  0  0  0  0  0
   -2.1551    4.7737    0.4452 C   0  0  0  0  0  0  0  0  0  0  0  0
   -0.8091    4.9741    0.7170 C   0  0  0  0  0  0  0  0  0  0  0  0
    0.1032    3.9371    0.5023 C   0  0  0  0  0  0  0  0  0  0  0  0
   -0.2924    2.6967    0.0149 C   0  0  0  0  0  0  0  0  0  0  0  0
    0.6327    1.7483   -0.1472 N   0  0  0  0  0  0  0  0  0  0  0  0
    3.3167    0.2777    0.0244 C   0  0  0  0  0  0  0  0  0  0  0  0
    4.6671    0.0101    0.2835 C   0  0  0  0  0  0  0  0  0  0  0  0
    8.1715   -2.5959    0.4209 H   0  0  0  0  0  0  0  0  0  0  0  0
    6.6485   -3.4212    0.7730 H   0  0  0  0  0  0  0  0  0  0  0  0
    7.0711   -2.9442   -0.9179 H   0  0  0  0  0  0  0  0  0  0  0  0
    4.7322   -3.2612   -0.6305 H   0  0  0  0  0  0  0  0  0  0  0  0
    2.3940   -2.7872   -1.0786 H   0  0  0  0  0  0  0  0  0  0  0  0
    0.5675   -1.3248   -1.0112 H   0  0  0  0  0  0  0  0  0  0  0  0
   -3.6068    1.6105   -1.7850 H   0  0  0  0  0  0  0  0  0  0  0  0
   -4.5566   -0.3912   -2.0796 H   0  0  0  0  0  0  0  0  0  0  0  0
   -2.8590   -0.7549   -2.3442 H   0  0  0  0  0  0  0  0  0  0  0  0
   -4.2734   -2.3487   -0.8917 H   0  0  0  0  0  0  0  0  0  0  0  0
   -4.1091   -0.0422    1.1030 H   0  0  0  0  0  0  0  0  0  0  0  0
   -5.4779   -1.1100    0.7563 H   0  0  0  0  0  0  0  0  0  0  0  0
   -4.3152   -2.9908    1.7540 H   0  0  0  0  0  0  0  0  0  0  0  0
   -3.8708   -1.6722    2.8582 H   0  0  0  0  0  0  0  0  0  0  0  0
   -1.9100   -3.0908    1.6429 H   0  0  0  0  0  0  0  0  0  0  0  0
   -1.7599   -1.3195    1.6869 H   0  0  0  0  0  0  0  0  0  0  0  0
   -3.6333    3.3842   -0.2410 H   0  0  0  0  0  0  0  0  0  0  0  0
   -2.8752    5.5690    0.6190 H   0  0  0  0  0  0  0  0  0  0  0  0
   -0.4627    5.9296    1.1026 H   0  0  0  0  0  0  0  0  0  0  0  0
    1.1553    4.0998    0.7271 H   0  0  0  0  0  0  0  0  0  0  0  0
    2.9542    1.2838    0.2097 H   0  0  0  0  0  0  0  0  0  0  0  0
    5.3048    0.8050    0.6620 H   0  0  0  0  0  0  0  0  0  0  0  0
  1  2  1  0
  2  3  1  0
  3  4  2  0
  4  5  1  0
  5  6  2  0
  6  7  1  0
  7  8  1  0
  8  9  2  0
  9 10  1  0
 10 11  1  0
 11 12  1  0
 12 13  1  0
 13 14  1  0
 14 15  1  0
 15 16  1  0
 16 17  1  0
 10 18  2  0
 18 19  1  0
 19 20  2  0
 20 21  1  0
 21 22  2  0
 22 23  1  0
 23 24  2  0
  6 25  1  0
 25 26  2  0
 26  3  1  0
 24  8  1  0
 17 13  1  0
 23 18  1  0
  1 27  1  0
  1 28  1  0
  1 29  1  0
  4 30  1  0
  5 31  1  0
  7 32  1  0
 11 33  1  0
 12 34  1  0
 12 35  1  0
 13 36  1  0
 14 37  1  0
 14 38  1  0
 15 39  1  0
 15 40  1  0
 16 41  1  0
 16 42  1  0
 19 43  1  0
 20 44  1  0
 21 45  1  0
 22 46  1  0
 25 47  1  0
 26 48  1  0
M  END
>  <ScrubInfo>  (1) 
{"isomerGroup": 0, "isomerId": 0, "confId": 0, "nr_conformers:": 1, "nr_isomers:": 6}

$$$$
_i1
     RDKit          3D

 48 51  0  0  0  0  0  0  0  0999 V2000
   -0.2384    0.5309    0.1836 N   0  0  0  0  0  0  0  0  0  0  0  0
   -1.2478   -0.3976    0.2564 C   0  0  0  0  0  0  0  0  0  0  0  0
   -2.5640    0.0115    0.4607 N   0  0  0  0  0  0  0  0  0  0  0  0
   -3.0582    1.3744    0.2782 C   0  0  0  0  0  0  0  0  0  0  0  0
   -4.5316    1.5071    0.6823 C   0  0  0  0  0  0  0  0  0  0  0  0
   -5.4945    0.7323   -0.2057 C   0  0  0  0  0  0  0  0  0  0  0  0
   -6.7743    1.5068   -0.0144 C   0  0  0  0  0  0  0  0  0  0  0  0
   -6.2723    2.9329    0.0508 C   0  0  0  0  0  0  0  0  0  0  0  0
   -4.9468    2.8855    0.5992 O   0  0  0  0  0  0  0  0  0  0  0  0
   -0.9011   -1.7046    0.1259 C   0  0  0  0  0  0  0  0  0  0  0  0
   -1.7848   -2.8557    0.2098 C   0  0  0  0  0  0  0  0  0  0  0  0
   -1.3205   -4.1009    0.0339 C   0  0  0  0  0  0  0  0  0  0  0  0
    0.0715   -4.3522   -0.2454 C   0  0  0  0  0  0  0  0  0  0  0  0
    0.9737   -3.3653   -0.3178 C   0  0  0  0  0  0  0  0  0  0  0  0
    0.5734   -1.9425   -0.1225 C   0  0  0  0  0  0  0  0  0  0  0  0
    1.4987   -1.0361   -0.1834 N   0  0  0  0  0  0  0  0  0  0  0  0
    1.0834    0.2557    0.0017 C   0  0  0  0  0  0  0  0  0  0  0  0
    1.9343    1.2418    0.0094 N   0  0  0  0  0  0  0  0  0  0  0  0
    3.2961    0.9683   -0.1781 C   0  0  0  0  0  0  0  0  0  0  0  0
    4.1282    0.7377    0.9197 C   0  0  0  0  0  0  0  0  0  0  0  0
    5.4966    0.5000    0.7434 C   0  0  0  0  0  0  0  0  0  0  0  0
    6.0469    0.5032   -0.5389 C   0  0  0  0  0  0  0  0  0  0  0  0
    7.3610    0.2867   -0.8514 O   0  0  0  0  0  0  0  0  0  0  0  0
    8.2433    0.0307    0.2335 C   0  0  0  0  0  0  0  0  0  0  0  0
    5.2181    0.7497   -1.6364 C   0  0  0  0  0  0  0  0  0  0  0  0
    3.8526    0.9868   -1.4573 C   0  0  0  0  0  0  0  0  0  0  0  0
   -0.4587    1.4939    0.3715 H   0  0  0  0  0  0  0  0  0  0  0  0
   -3.2379   -0.7005    0.1997 H   0  0  0  0  0  0  0  0  0  0  0  0
   -2.4730    2.0727    0.8886 H   0  0  0  0  0  0  0  0  0  0  0  0
   -2.9262    1.6859   -0.7653 H   0  0  0  0  0  0  0  0  0  0  0  0
   -4.6590    1.1975    1.7275 H   0  0  0  0  0  0  0  0  0  0  0  0
   -5.5839   -0.3205    0.0761 H   0  0  0  0  0  0  0  0  0  0  0  0
   -5.1865    0.7834   -1.2570 H   0  0  0  0  0  0  0  0  0  0  0  0
   -7.5079    1.3485   -0.8091 H   0  0  0  0  0  0  0  0  0  0  0  0
   -7.2375    1.2291    0.9398 H   0  0  0  0  0  0  0  0  0  0  0  0
   -6.2024    3.3744   -0.9489 H   0  0  0  0  0  0  0  0  0  0  0  0
   -6.9055    3.5730    0.6715 H   0  0  0  0  0  0  0  0  0  0  0  0
   -2.8336   -2.7121    0.4387 H   0  0  0  0  0  0  0  0  0  0  0  0
   -1.9846   -4.9574    0.1078 H   0  0  0  0  0  0  0  0  0  0  0  0
    0.3791   -5.3839   -0.3896 H   0  0  0  0  0  0  0  0  0  0  0  0
    2.0219   -3.5527   -0.5190 H   0  0  0  0  0  0  0  0  0  0  0  0
    3.7025    0.7394    1.9189 H   0  0  0  0  0  0  0  0  0  0  0  0
    6.0979    0.3192    1.6270 H   0  0  0  0  0  0  0  0  0  0  0  0
    9.2451   -0.1221   -0.1794 H   0  0  0  0  0  0  0  0  0  0  0  0
    7.9602   -0.8834    0.7660 H   0  0  0  0  0  0  0  0  0  0  0  0
    8.2913    0.8871    0.9143 H   0  0  0  0  0  0  0  0  0  0  0  0
    5.6374    0.7594   -2.6388 H   0  0  0  0  0  0  0  0  0  0  0  0
    3.2177    1.1819   -2.3160 H   0  0  0  0  0  0  0  0  0  0  0  0
  1  2  1  0
  2  3  1  0
  3  4  1  0
  4  5  1  0
  5  6  1  0
  6  7  1  0
  7  8  1  0
  8  9  1  0
  2 10  2  0
 10 11  1  0
 11 12  2  0
 12 13  1  0
 13 14  2  0
 14 15  1  0
 15 16  2  0
 16 17  1  0
 17 18  2  3
 18 19  1  0
 19 20  2  0
 20 21  1  0
 21 22  2  0
 22 23  1  0
 23 24  1  0
 22 25  1  0
 25 26  2  0
 17  1  1  0
 26 19  1  0
  9  5  1  0
 15 10  1  0
  1 27  1  0
  3 28  1  0
  4 29  1  0
  4 30  1  0
  5 31  1  0
  6 32  1  0
  6 33  1  0
  7 34  1  0
  7 35  1  0
  8 36  1  0
  8 37  1  0
 11 38  1  0
 12 39  1  0
 13 40  1  0
 14 41  1  0
 20 42  1  0
 21 43  1  0
 24 44  1  0
 24 45  1  0
 24 46  1  0
 25 47  1  0
 26 48  1  0
M  END
>  <ScrubInfo>  (2) 
{"isomerGroup": 0, "isomerId": 1, "confId": 0, "nr_conformers:": 1, "nr_isomers:": 6}

$$$$
_i2
     RDKit          3D

 48 51  0  0  0  0  0  0  0  0999 V2000
    0.2820    0.6835    0.2409 N   0  0  0  0  0  0  0  0  0  0  0  0
    0.9872    1.6752    0.8466 C   0  0  0  0  0  0  0  0  0  0  0  0
    2.1848    1.3392    1.4099 N   0  0  0  0  0  0  0  0  0  0  0  0
    3.2003    0.5280    0.8614 C   0  0  0  0  0  0  0  0  0  0  0  0
    3.2246    0.1075   -0.4714 C   0  0  0  0  0  0  0  0  0  0  0  0
    4.2502   -0.7210   -0.9407 C   0  0  0  0  0  0  0  0  0  0  0  0
    5.2698   -1.1495   -0.0904 C   0  0  0  0  0  0  0  0  0  0  0  0
    6.2053   -1.9545   -0.6771 O   0  0  0  0  0  0  0  0  0  0  0  0
    7.2661   -2.4169    0.1494 C   0  0  0  0  0  0  0  0  0  0  0  0
    5.2567   -0.7382    1.2399 C   0  0  0  0  0  0  0  0  0  0  0  0
    4.2301    0.0923    1.7079 C   0  0  0  0  0  0  0  0  0  0  0  0
    0.5209    2.8847    0.9718 N   0  0  0  0  0  0  0  0  0  0  0  0
   -0.7307    3.1539    0.3649 C   0  0  0  0  0  0  0  0  0  0  0  0
   -1.1666    4.4844    0.4004 C   0  0  0  0  0  0  0  0  0  0  0  0
   -2.3587    4.8641   -0.2123 C   0  0  0  0  0  0  0  0  0  0  0  0
   -3.1220    3.9134   -0.8812 C   0  0  0  0  0  0  0  0  0  0  0  0
   -2.7069    2.5781   -0.9252 C   0  0  0  0  0  0  0  0  0  0  0  0
   -1.5287    2.1780   -0.2857 C   0  0  0  0  0  0  0  0  0  0  0  0
   -0.9895    0.7764   -0.2582 C   0  0  0  0  0  0  0  0  0  0  0  0
   -1.5347   -0.3443   -0.5989 N   0  0  0  0  0  0  0  0  0  0  0  0
   -2.8982   -0.5192   -1.0589 C   0  0  0  0  0  0  0  0  0  0  0  0
   -3.2450   -2.0181   -1.0910 C   0  0  0  0  0  0  0  0  0  0  0  0
   -3.2966   -2.6641    0.2889 C   0  0  0  0  0  0  0  0  0  0  0  0
   -4.7520   -2.5390    0.6630 C   0  0  0  0  0  0  0  0  0  0  0  0
   -5.4319   -2.7356   -0.6718 C   0  0  0  0  0  0  0  0  0  0  0  0
   -4.5641   -2.1690   -1.6618 O   0  0  0  0  0  0  0  0  0  0  0  0
    0.6250   -0.2601    0.3479 H   0  0  0  0  0  0  0  0  0  0  0  0
    2.5782    2.1179    1.9304 H   0  0  0  0  0  0  0  0  0  0  0  0
    2.4696    0.4365   -1.1807 H   0  0  0  0  0  0  0  0  0  0  0  0
    4.2545   -1.0299   -1.9836 H   0  0  0  0  0  0  0  0  0  0  0  0
    7.9211   -3.0417   -0.4655 H   0  0  0  0  0  0  0  0  0  0  0  0
    6.8868   -3.0371    0.9683 H   0  0  0  0  0  0  0  0  0  0  0  0
    7.8633   -1.5814    0.5294 H   0  0  0  0  0  0  0  0  0  0  0  0
    6.0241   -1.0455    1.9423 H   0  0  0  0  0  0  0  0  0  0  0  0
    4.2344    0.3886    2.7549 H   0  0  0  0  0  0  0  0  0  0  0  0
   -0.5568    5.2302    0.9046 H   0  0  0  0  0  0  0  0  0  0  0  0
   -2.6802    5.9018   -0.1800 H   0  0  0  0  0  0  0  0  0  0  0  0
   -4.0423    4.2104   -1.3795 H   0  0  0  0  0  0  0  0  0  0  0  0
   -3.3229    1.8919   -1.4883 H   0  0  0  0  0  0  0  0  0  0  0  0
   -3.0092   -0.1320   -2.0780 H   0  0  0  0  0  0  0  0  0  0  0  0
   -3.6154   -0.0041   -0.4103 H   0  0  0  0  0  0  0  0  0  0  0  0
   -2.5297   -2.5439   -1.7339 H   0  0  0  0  0  0  0  0  0  0  0  0
   -2.6203   -2.2176    1.0228 H   0  0  0  0  0  0  0  0  0  0  0  0
   -3.0377   -3.7268    0.2022 H   0  0  0  0  0  0  0  0  0  0  0  0
   -4.9544   -1.5317    1.0446 H   0  0  0  0  0  0  0  0  0  0  0  0
   -5.0747   -3.2622    1.4164 H   0  0  0  0  0  0  0  0  0  0  0  0
   -5.5539   -3.7995   -0.9022 H   0  0  0  0  0  0  0  0  0  0  0  0
   -6.4119   -2.2531   -0.7208 H   0  0  0  0  0  0  0  0  0  0  0  0
  1  2  1  0
  2  3  1  0
  3  4  1  0
  4  5  2  0
  5  6  1  0
  6  7  2  0
  7  8  1  0
  8  9  1  0
  7 10  1  0
 10 11  2  0
  2 12  2  0
 12 13  1  0
 13 14  2  0
 14 15  1  0
 15 16  2  0
 16 17  1  0
 17 18  2  0
 18 19  1  0
 19 20  2  3
 20 21  1  0
 21 22  1  0
 22 23  1  0
 23 24  1  0
 24 25  1  0
 25 26  1  0
 19  1  1  0
 26 22  1  0
 11  4  1  0
 18 13  1  0
  1 27  1  0
  3 28  1  0
  5 29  1  0
  6 30  1  0
  9 31  1  0
  9 32  1  0
  9 33  1  0
 10 34  1  0
 11 35  1  0
 14 36  1  0
 15 37  1  0
 16 38  1  0
 17 39  1  0
 21 40  1  0
 21 41  1  0
 22 42  1  0
 23 43  1  0
 23 44  1  0
 24 45  1  0
 24 46  1  0
 25 47  1  0
 25 48  1  0
M  END
>  <ScrubInfo>  (3) 
{"isomerGroup": 0, "isomerId": 2, "confId": 0, "nr_conformers:": 1, "nr_isomers:": 6}

$$$$
_i3
     RDKit          3D

 48 51  0  0  0  0  0  0  0  0999 V2000
    1.5050    0.9848    0.3632 N   0  0  0  0  0  0  0  0  0  0  0  0
    0.8726   -0.0138   -0.3311 C   0  0  0  0  0  0  0  0  0  0  0  0
    1.4532   -1.0499   -0.8580 N   0  0  0  0  0  0  0  0  0  0  0  0
    2.8369   -1.2051   -0.7335 C   0  0  0  0  0  0  0  0  0  0  0  0
    3.3642   -1.9875    0.2955 C   0  0  0  0  0  0  0  0  0  0  0  0
    4.7477   -2.1455    0.4355 C   0  0  0  0  0  0  0  0  0  0  0  0
    5.6159   -1.5267   -0.4647 C   0  0  0  0  0  0  0  0  0  0  0  0
    6.9814   -1.5933   -0.4401 O   0  0  0  0  0  0  0  0  0  0  0  0
    7.5654   -2.4391    0.5428 C   0  0  0  0  0  0  0  0  0  0  0  0
    5.0873   -0.7568   -1.5042 C   0  0  0  0  0  0  0  0  0  0  0  0
    3.7059   -0.6032   -1.6437 C   0  0  0  0  0  0  0  0  0  0  0  0
   -0.4843    0.0104   -0.5349 N   0  0  0  0  0  0  0  0  0  0  0  0
   -1.2163    0.9351    0.0184 C   0  0  0  0  0  0  0  0  0  0  0  0
   -2.5810    0.9681   -0.2251 N   0  0  0  0  0  0  0  0  0  0  0  0
   -3.1869    0.0956   -1.2310 C   0  0  0  0  0  0  0  0  0  0  0  0
   -4.7077    0.0345   -1.0514 C   0  0  0  0  0  0  0  0  0  0  0  0
   -5.1446   -0.7007    0.2082 C   0  0  0  0  0  0  0  0  0  0  0  0
   -6.5176   -1.1869   -0.1815 C   0  0  0  0  0  0  0  0  0  0  0  0
   -6.3151   -1.5546   -1.6351 C   0  0  0  0  0  0  0  0  0  0  0  0
   -5.3265   -0.6546   -2.1564 O   0  0  0  0  0  0  0  0  0  0  0  0
   -0.6181    1.9761    0.9165 C   0  0  0  0  0  0  0  0  0  0  0  0
   -1.3802    2.9217    1.6116 C   0  0  0  0  0  0  0  0  0  0  0  0
   -0.7417    3.8701    2.4128 C   0  0  0  0  0  0  0  0  0  0  0  0
    0.6485    3.8717    2.5208 C   0  0  0  0  0  0  0  0  0  0  0  0
    1.4051    2.9147    1.8415 C   0  0  0  0  0  0  0  0  0  0  0  0
    0.7742    1.9485    1.0526 C   0  0  0  0  0  0  0  0  0  0  0  0
    2.4831    0.8697    0.5717 H   0  0  0  0  0  0  0  0  0  0  0  0
    2.6877   -2.4808    0.9890 H   0  0  0  0  0  0  0  0  0  0  0  0
    5.1091   -2.7611    1.2520 H   0  0  0  0  0  0  0  0  0  0  0  0
    8.6506   -2.4113    0.4054 H   0  0  0  0  0  0  0  0  0  0  0  0
    7.2401   -3.4771    0.4162 H   0  0  0  0  0  0  0  0  0  0  0  0
    7.3484   -2.0764    1.5529 H   0  0  0  0  0  0  0  0  0  0  0  0
    5.7555   -0.2818   -2.2182 H   0  0  0  0  0  0  0  0  0  0  0  0
    3.3031   -0.0168   -2.4652 H   0  0  0  0  0  0  0  0  0  0  0  0
   -2.9929    1.8935   -0.2198 H   0  0  0  0  0  0  0  0  0  0  0  0
   -2.9495    0.4749   -2.2321 H   0  0  0  0  0  0  0  0  0  0  0  0
   -2.7785   -0.9210   -1.1769 H   0  0  0  0  0  0  0  0  0  0  0  0
   -5.1225    1.0507   -1.0477 H   0  0  0  0  0  0  0  0  0  0  0  0
   -5.1477   -0.0606    1.0949 H   0  0  0  0  0  0  0  0  0  0  0  0
   -4.4939   -1.5606    0.4084 H   0  0  0  0  0  0  0  0  0  0  0  0
   -6.8773   -2.0223    0.4245 H   0  0  0  0  0  0  0  0  0  0  0  0
   -7.2393   -0.3656   -0.0995 H   0  0  0  0  0  0  0  0  0  0  0  0
   -7.2342   -1.4729   -2.2218 H   0  0  0  0  0  0  0  0  0  0  0  0
   -5.9249   -2.5731   -1.7358 H   0  0  0  0  0  0  0  0  0  0  0  0
   -2.4632    2.9285    1.5564 H   0  0  0  0  0  0  0  0  0  0  0  0
   -1.3286    4.6084    2.9546 H   0  0  0  0  0  0  0  0  0  0  0  0
    1.1444    4.6155    3.1402 H   0  0  0  0  0  0  0  0  0  0  0  0
    2.4876    2.9264    1.9391 H   0  0  0  0  0  0  0  0  0  0  0  0
  1  2  1  0
  2  3  2  3
  3  4  1  0
  4  5  2  0
  5  6  1  0
  6  7  2  0
  7  8  1  0
  8  9  1  0
  7 10  1  0
 10 11  2  0
  2 12  1  0
 12 13  2  0
 13 14  1  0
 14 15  1  0
 15 16  1  0
 16 17  1  0
 17 18  1  0
 18 19  1  0
 19 20  1  0
 13 21  1  0
 21 22  2  0
 22 23  1  0
 23 24  2  0
 24 25  1  0
 25 26  2  0
 26  1  1  0
 11  4  1  0
 20 16  1  0
 26 21  1  0
  1 27  1  0
  5 28  1  0
  6 29  1  0
  9 30  1  0
  9 31  1  0
  9 32  1  0
 10 33  1  0
 11 34  1  0
 14 35  1  0
 15 36  1  0
 15 37  1  0
 16 38  1  0
 17 39  1  0
 17 40  1  0
 18 41  1  0
 18 42  1  0
 19 43  1  0
 19 44  1  0
 22 45  1  0
 23 46  1  0
 24 47  1  0
 25 48  1  0
M  END
>  <ScrubInfo>  (4) 
{"isomerGroup": 0, "isomerId": 3, "confId": 0, "nr_conformers:": 1, "nr_isomers:": 6}

$$$$
_i4
     RDKit          3D

 48 51  0  0  0  0  0  0  0  0999 V2000
    1.1839    0.0576    1.1441 N   0  0  0  0  0  0  0  0  0  0  0  0
    0.9264   -1.0067    0.3175 C   0  0  0  0  0  0  0  0  0  0  0  0
    1.9732   -1.8662    0.1210 N   0  0  0  0  0  0  0  0  0  0  0  0
    3.3036   -1.5166   -0.2005 C   0  0  0  0  0  0  0  0  0  0  0  0
    4.2950   -2.4979   -0.0826 C   0  0  0  0  0  0  0  0  0  0  0  0
    5.6299   -2.2063   -0.3783 C   0  0  0  0  0  0  0  0  0  0  0  0
    6.0017   -0.9315   -0.8054 C   0  0  0  0  0  0  0  0  0  0  0  0
    7.3355   -0.7793   -1.0621 O   0  0  0  0  0  0  0  0  0  0  0  0
    7.7570    0.4912   -1.5425 C   0  0  0  0  0  0  0  0  0  0  0  0
    5.0222    0.0509   -0.9344 C   0  0  0  0  0  0  0  0  0  0  0  0
    3.6845   -0.2416   -0.6341 C   0  0  0  0  0  0  0  0  0  0  0  0
   -0.2338   -1.2879   -0.1965 N   0  0  0  0  0  0  0  0  0  0  0  0
   -1.2408   -0.3632   -0.0116 C   0  0  0  0  0  0  0  0  0  0  0  0
   -2.0637   -0.3108   -0.9922 N   0  0  0  0  0  0  0  0  0  0  0  0
   -3.1001    0.6786   -1.2101 C   0  0  0  0  0  0  0  0  0  0  0  0
   -4.4060   -0.0079   -1.6354 C   0  0  0  0  0  0  0  0  0  0  0  0
   -5.0408   -0.8667   -0.5461 C   0  0  0  0  0  0  0  0  0  0  0  0
   -6.0852    0.0457    0.0469 C   0  0  0  0  0  0  0  0  0  0  0  0
   -6.5401    0.8216   -1.1654 C   0  0  0  0  0  0  0  0  0  0  0  0
   -5.3743    1.0116   -1.9738 O   0  0  0  0  0  0  0  0  0  0  0  0
   -1.1990    0.4534    1.2349 C   0  0  0  0  0  0  0  0  0  0  0  0
   -2.3203    0.9395    1.9082 C   0  0  0  0  0  0  0  0  0  0  0  0
   -2.1584    1.7336    3.0457 C   0  0  0  0  0  0  0  0  0  0  0  0
   -0.8795    2.0259    3.5194 C   0  0  0  0  0  0  0  0  0  0  0  0
    0.2414    1.4888    2.8847 C   0  0  0  0  0  0  0  0  0  0  0  0
    0.0819    0.6607    1.7705 C   0  0  0  0  0  0  0  0  0  0  0  0
    2.0179   -0.0317    1.7101 H   0  0  0  0  0  0  0  0  0  0  0  0
    1.6739   -2.6643   -0.4349 H   0  0  0  0  0  0  0  0  0  0  0  0
    4.0372   -3.4996    0.2534 H   0  0  0  0  0  0  0  0  0  0  0  0
    6.3855   -2.9816   -0.2755 H   0  0  0  0  0  0  0  0  0  0  0  0
    7.5712    1.2746   -0.8003 H   0  0  0  0  0  0  0  0  0  0  0  0
    7.2800    0.7304   -2.4987 H   0  0  0  0  0  0  0  0  0  0  0  0
    8.8369    0.4429   -1.7121 H   0  0  0  0  0  0  0  0  0  0  0  0
    5.2583    1.0541   -1.2736 H   0  0  0  0  0  0  0  0  0  0  0  0
    2.9430    0.5415   -0.7761 H   0  0  0  0  0  0  0  0  0  0  0  0
   -3.2776    1.3727   -0.3891 H   0  0  0  0  0  0  0  0  0  0  0  0
   -2.7786    1.3255   -2.0369 H   0  0  0  0  0  0  0  0  0  0  0  0
   -4.2221   -0.6117   -2.5319 H   0  0  0  0  0  0  0  0  0  0  0  0
   -4.3358   -1.2567    0.1926 H   0  0  0  0  0  0  0  0  0  0  0  0
   -5.5379   -1.7280   -1.0098 H   0  0  0  0  0  0  0  0  0  0  0  0
   -5.6215    0.7232    0.7724 H   0  0  0  0  0  0  0  0  0  0  0  0
   -6.8999   -0.4866    0.5442 H   0  0  0  0  0  0  0  0  0  0  0  0
   -6.9735    1.7918   -0.9080 H   0  0  0  0  0  0  0  0  0  0  0  0
   -7.2712    0.2543   -1.7516 H   0  0  0  0  0  0  0  0  0  0  0  0
   -3.3224    0.6918    1.5791 H   0  0  0  0  0  0  0  0  0  0  0  0
   -3.0316    2.1246    3.5630 H   0  0  0  0  0  0  0  0  0  0  0  0
   -0.7570    2.6553    4.3979 H   0  0  0  0  0  0  0  0  0  0  0  0
    1.2308    1.7012    3.2806 H   0  0  0  0  0  0  0  0  0  0  0  0
  1  2  1  0
  2  3  1  0
  3  4  1  0
  4  5  2  0
  5  6  1  0
  6  7  2  0
  7  8  1  0
  8  9  1  0
  7 10  1  0
 10 11  2  0
  2 12  2  0
 12 13  1  0
 13 14  2  3
 14 15  1  0
 15 16  1  0
 16 17  1  0
 17 18  1  0
 18 19  1  0
 19 20  1  0
 13 21  1  0
 21 22  2  0
 22 23  1  0
 23 24  2  0
 24 25  1  0
 25 26  2  0
 26  1  1  0
 11  4  1  0
 20 16  1  0
 26 21  1  0
  1 27  1  0
  3 28  1  0
  5 29  1  0
  6 30  1  0
  9 31  1  0
  9 32  1  0
  9 33  1  0
 10 34  1  0
 11 35  1  0
 15 36  1  0
 15 37  1  0
 16 38  1  0
 17 39  1  0
 17 40  1  0
 18 41  1  0
 18 42  1  0
 19 43  1  0
 19 44  1  0
 22 45  1  0
 23 46  1  0
 24 47  1  0
 25 48  1  0
M  END
>  <ScrubInfo>  (5) 
{"isomerGroup": 0, "isomerId": 4, "confId": 0, "nr_conformers:": 1, "nr_isomers:": 6}

$$$$
_i5
     RDKit          3D

 48 51  0  0  0  0  0  0  0  0999 V2000
    1.5104    0.5988    0.4273 N   0  0  0  0  0  0  0  0  0  0  0  0
    0.8393   -0.3345   -0.3245 C   0  0  0  0  0  0  0  0  0  0  0  0
    1.3581   -1.2795   -1.0550 N   0  0  0  0  0  0  0  0  0  0  0  0
    2.7514   -1.3996   -1.1137 C   0  0  0  0  0  0  0  0  0  0  0  0
    3.4369   -2.1700   -0.1747 C   0  0  0  0  0  0  0  0  0  0  0  0
    4.8282   -2.2788   -0.2357 C   0  0  0  0  0  0  0  0  0  0  0  0
    5.5490   -1.6320   -1.2430 C   0  0  0  0  0  0  0  0  0  0  0  0
    6.9023   -1.8179   -1.1864 O   0  0  0  0  0  0  0  0  0  0  0  0
    7.6750   -1.2395   -2.2309 C   0  0  0  0  0  0  0  0  0  0  0  0
    4.8633   -0.8750   -2.1935 C   0  0  0  0  0  0  0  0  0  0  0  0
    3.4695   -0.7652   -2.1290 C   0  0  0  0  0  0  0  0  0  0  0  0
   -0.5231   -0.2204   -0.2709 N   0  0  0  0  0  0  0  0  0  0  0  0
   -1.2987    0.6812    0.4187 C   0  0  0  0  0  0  0  0  0  0  0  0
   -2.5884    0.7496    0.4395 N   0  0  0  0  0  0  0  0  0  0  0  0
   -3.3504   -0.2227   -0.3433 C   0  0  0  0  0  0  0  0  0  0  0  0
   -4.8476    0.0474   -0.1880 C   0  0  0  0  0  0  0  0  0  0  0  0
   -5.3636   -0.1294    1.2321 C   0  0  0  0  0  0  0  0  0  0  0  0
   -6.8191   -0.4369    0.9874 C   0  0  0  0  0  0  0  0  0  0  0  0
   -6.7526   -1.2989   -0.2549 C   0  0  0  0  0  0  0  0  0  0  0  0
   -5.6029   -0.8743   -1.0017 O   0  0  0  0  0  0  0  0  0  0  0  0
   -0.5305    1.6798    1.2259 C   0  0  0  0  0  0  0  0  0  0  0  0
   -1.1706    2.6646    1.9851 C   0  0  0  0  0  0  0  0  0  0  0  0
   -0.4077    3.5708    2.7204 C   0  0  0  0  0  0  0  0  0  0  0  0
    0.9851    3.4915    2.6957 C   0  0  0  0  0  0  0  0  0  0  0  0
    1.6228    2.5060    1.9356 C   0  0  0  0  0  0  0  0  0  0  0  0
    0.8726    1.5885    1.1919 C   0  0  0  0  0  0  0  0  0  0  0  0
    2.5195    0.5714    0.4369 H   0  0  0  0  0  0  0  0  0  0  0  0
    2.8856   -2.6883    0.6050 H   0  0  0  0  0  0  0  0  0  0  0  0
    5.3535   -2.8800    0.5025 H   0  0  0  0  0  0  0  0  0  0  0  0
    7.3878   -1.6449   -3.2068 H   0  0  0  0  0  0  0  0  0  0  0  0
    8.7228   -1.5026   -2.0564 H   0  0  0  0  0  0  0  0  0  0  0  0
    7.5995   -0.1473   -2.2179 H   0  0  0  0  0  0  0  0  0  0  0  0
    5.3774   -0.3617   -2.9989 H   0  0  0  0  0  0  0  0  0  0  0  0
    2.9370   -0.1827   -2.8766 H   0  0  0  0  0  0  0  0  0  0  0  0
   -0.9944   -0.9133   -0.8326 H   0  0  0  0  0  0  0  0  0  0  0  0
   -3.0912   -0.1538   -1.4072 H   0  0  0  0  0  0  0  0  0  0  0  0
   -3.1295   -1.2482   -0.0210 H   0  0  0  0  0  0  0  0  0  0  0  0
   -5.0825    1.0581   -0.5458 H   0  0  0  0  0  0  0  0  0  0  0  0
   -5.2077    0.7550    1.8561 H   0  0  0  0  0  0  0  0  0  0  0  0
   -4.8836   -0.9857    1.7212 H   0  0  0  0  0  0  0  0  0  0  0  0
   -7.3114   -0.9350    1.8267 H   0  0  0  0  0  0  0  0  0  0  0  0
   -7.3637    0.4899    0.7714 H   0  0  0  0  0  0  0  0  0  0  0  0
   -7.6486   -1.2099   -0.8756 H   0  0  0  0  0  0  0  0  0  0  0  0
   -6.6100   -2.3537    0.0026 H   0  0  0  0  0  0  0  0  0  0  0  0
   -2.2555    2.7264    2.0041 H   0  0  0  0  0  0  0  0  0  0  0  0
   -0.8999    4.3387    3.3124 H   0  0  0  0  0  0  0  0  0  0  0  0
    1.5772    4.2000    3.2704 H   0  0  0  0  0  0  0  0  0  0  0  0
    2.7089    2.4638    1.9318 H   0  0  0  0  0  0  0  0  0  0  0  0
  1  2  1  0
  2  3  2  3
  3  4  1  0
  4  5  2  0
  5  6  1  0
  6  7  2  0
  7  8  1  0
  8  9  1  0
  7 10  1  0
 10 11  2  0
  2 12  1  0
 12 13  1  0
 13 14  2  3
 14 15  1  0
 15 16  1  0
 16 17  1  0
 17 18  1  0
 18 19  1  0
 19 20  1  0
 13 21  1  0
 21 22  2  0
 22 23  1  0
 23 24  2  0
 24 25  1  0
 25 26  2  0
 26  1  1  0
 11  4  1  0
 20 16  1  0
 26 21  1  0
  1 27  1  0
  5 28  1  0
  6 29  1  0
  9 30  1  0
  9 31  1  0
  9 32  1  0
 10 33  1  0
 11 34  1  0
 12 35  1  0
 15 36  1  0
 15 37  1  0
 16 38  1  0
 17 39  1  0
 17 40  1  0
 18 41  1  0
 18 42  1  0
 19 43  1  0
 19 44  1  0
 22 45  1  0
 23 46  1  0
 24 47  1  0
 25 48  1  0
M  END
>  <ScrubInfo>  (6) 
{"isomerGroup": 0, "isomerId": 5, "confId": 0, "nr_conformers:": 1, "nr_isomers:": 6}

$$$$
