MODEL 1
REMARK VINA RESULT:    -9.139      0.000      0.000
REMARK INTER + INTRA:         -13.169
REMARK INTER:                 -12.344
REMARK INTRA:                  -0.825
REMARK UNBOUND:                -0.825
REMARK SMILES COc1ccc(Nc2nc(NC[C@@H]3CCCO3)c3ccccc3n2)cc1
REMARK SMILES IDX 8 1 9 2 10 3 18 4 19 5 20 6 21 7 22 8 23 9 24 10 7 11 6 13
REMARK SMILES IDX 3 14 4 15 26 16 5 17 25 18 2 19 1 20 11 21 12 23 13 24 14 25
REMARK SMILES IDX 17 26 15 27 16 28
REMARK H PARENT 7 12 11 22
ROOT
ATOM      1  C   UNL     1       5.435  46.962  53.137  1.00  0.00     0.229 A 
ATOM      2  N   UNL     1       5.672  46.463  51.920  1.00  0.00    -0.195 NA
ATOM      3  C   UNL     1       6.939  46.285  51.529  1.00  0.00     0.139 A 
ATOM      4  C   UNL     1       8.017  46.594  52.370  1.00  0.00     0.043 A 
ATOM      5  C   UNL     1       9.388  46.460  52.027  1.00  0.00     0.014 A 
ATOM      6  C   UNL     1      10.388  46.787  52.941  1.00  0.00     0.001 A 
ATOM      7  C   UNL     1      10.032  47.253  54.199  1.00  0.00     0.002 A 
ATOM      8  C   UNL     1       8.681  47.395  54.529  1.00  0.00     0.029 A 
ATOM      9  C   UNL     1       7.667  47.078  53.633  1.00  0.00     0.078 A 
ATOM     10  N   UNL     1       6.399  47.258  54.012  1.00  0.00    -0.213 NA
ENDROOT
BRANCH   1  11
ATOM     11  N   UNL     1       4.085  47.163  53.417  1.00  0.00    -0.324 N 
ATOM     12  H   UNL     1       3.968  48.130  53.687  1.00  0.00     0.170 HD
BRANCH  11  13
ATOM     13  C   UNL     1       2.988  46.314  53.581  1.00  0.00     0.041 A 
ATOM     14  C   UNL     1       0.731  44.603  53.760  1.00  0.00     0.119 A 
ATOM     15  C   UNL     1       0.881  45.455  52.670  1.00  0.00     0.048 A 
ATOM     16  C   UNL     1       1.711  44.603  54.752  1.00  0.00     0.048 A 
ATOM     17  C   UNL     1       2.000  46.295  52.583  1.00  0.00     0.030 A 
ATOM     18  C   UNL     1       2.827  45.444  54.661  1.00  0.00     0.030 A 
BRANCH  14  19
ATOM     19  O   UNL     1      -0.303  43.735  53.972  1.00  0.00    -0.497 OA
ATOM     20  C   UNL     1      -0.250  42.494  53.280  1.00  0.00     0.278 C 
ENDBRANCH  14  19
ENDBRANCH  11  13
ENDBRANCH   1  11
BRANCH   3  21
ATOM     21  N   UNL     1       7.191  45.785  50.232  1.00  0.00    -0.367 N 
ATOM     22  H   UNL     1       8.008  46.274  49.875  1.00  0.00     0.162 HD
BRANCH  21  23
ATOM     23  C   UNL     1       7.353  44.327  50.099  1.00  0.00     0.146 C 
BRANCH  23  24
ATOM     24  C   UNL     1       6.052  43.550  49.811  1.00  0.00     0.137 C 
ATOM     25  C   UNL     1       5.345  42.950  51.020  1.00  0.00     0.036 C 
ATOM     26  O   UNL     1       6.231  42.483  48.854  1.00  0.00    -0.376 OA
ATOM     27  C   UNL     1       4.571  41.817  50.392  1.00  0.00     0.031 C 
ATOM     28  C   UNL     1       5.545  41.324  49.346  1.00  0.00     0.160 C 
ENDBRANCH  23  24
ENDBRANCH  21  23
ENDBRANCH   3  21
TORSDOF 6
ENDMDL
MODEL 2
REMARK VINA RESULT:    -9.126      2.477      7.115
REMARK INTER + INTRA:         -13.152
REMARK INTER:                 -12.209
REMARK INTRA:                  -0.943
REMARK UNBOUND:                -0.825
REMARK SMILES COc1ccc(Nc2nc(NC[C@@H]3CCCO3)c3ccccc3n2)cc1
REMARK SMILES IDX 8 1 9 2 10 3 18 4 19 5 20 6 21 7 22 8 23 9 24 10 7 11 6 13
REMARK SMILES IDX 3 14 4 15 26 16 5 17 25 18 2 19 1 20 11 21 12 23 13 24 14 25
REMARK SMILES IDX 17 26 15 27 16 28
REMARK H PARENT 7 12 11 22
ROOT
ATOM      1  C   UNL     1       6.604  44.814  51.033  1.00  0.00     0.229 A 
ATOM      2  N   UNL     1       5.681  44.556  51.965  1.00  0.00    -0.195 NA
ATOM      3  C   UNL     1       4.860  43.514  51.793  1.00  0.00     0.139 A 
ATOM      4  C   UNL     1       4.958  42.681  50.669  1.00  0.00     0.043 A 
ATOM      5  C   UNL     1       4.114  41.572  50.395  1.00  0.00     0.014 A 
ATOM      6  C   UNL     1       4.300  40.799  49.251  1.00  0.00     0.001 A 
ATOM      7  C   UNL     1       5.321  41.125  48.370  1.00  0.00     0.002 A 
ATOM      8  C   UNL     1       6.142  42.224  48.637  1.00  0.00     0.029 A 
ATOM      9  C   UNL     1       5.975  43.012  49.769  1.00  0.00     0.078 A 
ATOM     10  N   UNL     1       6.785  44.058  49.947  1.00  0.00    -0.213 NA
ENDROOT
BRANCH   1  11
ATOM     11  N   UNL     1       7.362  45.955  51.283  1.00  0.00    -0.324 N 
ATOM     12  H   UNL     1       7.579  46.381  50.392  1.00  0.00     0.170 HD
BRANCH  11  13
ATOM     13  C   UNL     1       8.000  46.472  52.413  1.00  0.00     0.041 A 
ATOM     14  C   UNL     1       9.428  47.535  54.623  1.00  0.00     0.119 A 
ATOM     15  C   UNL     1      10.113  46.976  53.549  1.00  0.00     0.048 A 
ATOM     16  C   UNL     1       8.035  47.569  54.587  1.00  0.00     0.048 A 
ATOM     17  C   UNL     1       9.403  46.456  52.457  1.00  0.00     0.030 A 
ATOM     18  C   UNL     1       7.330  47.049  53.494  1.00  0.00     0.030 A 
BRANCH  14  19
ATOM     19  O   UNL     1       9.988  48.076  55.746  1.00  0.00    -0.497 OA
ATOM     20  C   UNL     1      11.129  47.413  56.276  1.00  0.00     0.278 C 
ENDBRANCH  14  19
ENDBRANCH  11  13
ENDBRANCH   1  11
BRANCH   3  21
ATOM     21  N   UNL     1       3.866  43.258  52.763  1.00  0.00    -0.367 N 
ATOM     22  H   UNL     1       4.328  43.246  53.669  1.00  0.00     0.162 HD
BRANCH  21  23
ATOM     23  C   UNL     1       2.702  44.159  52.779  1.00  0.00     0.146 C 
BRANCH  23  24
ATOM     24  C   UNL     1       2.776  45.301  53.814  1.00  0.00     0.137 C 
ATOM     25  C   UNL     1       3.403  46.604  53.334  1.00  0.00     0.036 C 
ATOM     26  O   UNL     1       3.466  44.921  55.025  1.00  0.00    -0.376 OA
ATOM     27  C   UNL     1       3.884  47.209  54.630  1.00  0.00     0.031 C 
ATOM     28  C   UNL     1       4.358  45.986  55.381  1.00  0.00     0.160 C 
ENDBRANCH  23  24
ENDBRANCH  21  23
ENDBRANCH   3  21
TORSDOF 6
ENDMDL
MODEL 3
REMARK VINA RESULT:    -9.078      2.322      4.963
REMARK INTER + INTRA:         -13.087
REMARK INTER:                 -12.387
REMARK INTRA:                  -0.699
REMARK UNBOUND:                -0.825
REMARK SMILES COc1ccc(Nc2nc(NC[C@@H]3CCCO3)c3ccccc3n2)cc1
REMARK SMILES IDX 8 1 9 2 10 3 18 4 19 5 20 6 21 7 22 8 23 9 24 10 7 11 6 13
REMARK SMILES IDX 3 14 4 15 26 16 5 17 25 18 2 19 1 20 11 21 12 23 13 24 14 25
REMARK SMILES IDX 17 26 15 27 16 28
REMARK H PARENT 7 12 11 22
ROOT
ATOM      1  C   UNL     1       3.689  44.097  53.018  1.00  0.00     0.229 A 
ATOM      2  N   UNL     1       4.340  45.239  52.781  1.00  0.00    -0.195 NA
ATOM      3  C   UNL     1       5.265  45.269  51.814  1.00  0.00     0.139 A 
ATOM      4  C   UNL     1       5.553  44.138  51.039  1.00  0.00     0.043 A 
ATOM      5  C   UNL     1       6.533  44.074  50.014  1.00  0.00     0.014 A 
ATOM      6  C   UNL     1       6.736  42.899  49.292  1.00  0.00     0.001 A 
ATOM      7  C   UNL     1       5.971  41.780  49.587  1.00  0.00     0.002 A 
ATOM      8  C   UNL     1       5.015  41.843  50.605  1.00  0.00     0.029 A 
ATOM      9  C   UNL     1       4.796  43.001  51.340  1.00  0.00     0.078 A 
ATOM     10  N   UNL     1       3.879  42.981  52.311  1.00  0.00    -0.213 NA
ENDROOT
BRANCH   1  11
ATOM     11  N   UNL     1       2.794  44.163  54.083  1.00  0.00    -0.324 N 
ATOM     12  H   UNL     1       3.335  44.193  54.937  1.00  0.00     0.170 HD
BRANCH  11  13
ATOM     13  C   UNL     1       1.412  44.003  54.205  1.00  0.00     0.041 A 
ATOM     14  C   UNL     1      -1.403  43.824  54.515  1.00  0.00     0.119 A 
ATOM     15  C   UNL     1      -0.675  44.755  55.249  1.00  0.00     0.048 A 
ATOM     16  C   UNL     1      -0.726  42.992  53.625  1.00  0.00     0.048 A 
ATOM     17  C   UNL     1       0.715  44.843  55.089  1.00  0.00     0.030 A 
ATOM     18  C   UNL     1       0.663  43.084  53.469  1.00  0.00     0.030 A 
BRANCH  14  19
ATOM     19  O   UNL     1      -2.755  43.629  54.570  1.00  0.00    -0.497 OA
ATOM     20  C   UNL     1      -3.476  43.802  53.356  1.00  0.00     0.278 C 
ENDBRANCH  14  19
ENDBRANCH  11  13
ENDBRANCH   1  11
BRANCH   3  21
ATOM     21  N   UNL     1       5.974  46.469  51.582  1.00  0.00    -0.367 N 
ATOM     22  H   UNL     1       5.385  47.057  50.998  1.00  0.00     0.162 HD
BRANCH  21  23
ATOM     23  C   UNL     1       6.442  47.208  52.767  1.00  0.00     0.146 C 
BRANCH  23  24
ATOM     24  C   UNL     1       7.943  47.564  52.761  1.00  0.00     0.137 C 
ATOM     25  C   UNL     1       8.890  46.482  52.254  1.00  0.00     0.036 C 
ATOM     26  O   UNL     1       8.430  47.978  54.056  1.00  0.00    -0.376 OA
ATOM     27  C   UNL     1      10.181  46.858  52.939  1.00  0.00     0.031 C 
ATOM     28  C   UNL     1       9.686  47.326  54.289  1.00  0.00     0.160 C 
ENDBRANCH  23  24
ENDBRANCH  21  23
ENDBRANCH   3  21
TORSDOF 6
ENDMDL
MODEL 4
REMARK VINA RESULT:    -9.034      2.352      4.988
REMARK INTER + INTRA:         -13.028
REMARK INTER:                 -12.435
REMARK INTRA:                  -0.592
REMARK UNBOUND:                -0.825
REMARK SMILES COc1ccc(Nc2nc(NC[C@@H]3CCCO3)c3ccccc3n2)cc1
REMARK SMILES IDX 8 1 9 2 10 3 18 4 19 5 20 6 21 7 22 8 23 9 24 10 7 11 6 13
REMARK SMILES IDX 3 14 4 15 26 16 5 17 25 18 2 19 1 20 11 21 12 23 13 24 14 25
REMARK SMILES IDX 17 26 15 27 16 28
REMARK H PARENT 7 12 11 22
ROOT
ATOM      1  C   UNL     1       3.826  44.103  53.041  1.00  0.00     0.229 A 
ATOM      2  N   UNL     1       4.531  45.204  52.768  1.00  0.00    -0.195 NA
ATOM      3  C   UNL     1       5.407  45.179  51.757  1.00  0.00     0.139 A 
ATOM      4  C   UNL     1       5.587  44.032  50.971  1.00  0.00     0.043 A 
ATOM      5  C   UNL     1       6.510  43.910  49.899  1.00  0.00     0.014 A 
ATOM      6  C   UNL     1       6.607  42.726  49.171  1.00  0.00     0.001 A 
ATOM      7  C   UNL     1       5.792  41.654  49.507  1.00  0.00     0.002 A 
ATOM      8  C   UNL     1       4.893  41.774  50.571  1.00  0.00     0.029 A 
ATOM      9  C   UNL     1       4.781  42.943  51.313  1.00  0.00     0.078 A 
ATOM     10  N   UNL     1       3.914  42.977  52.328  1.00  0.00    -0.213 NA
ENDROOT
BRANCH   1  11
ATOM     11  N   UNL     1       2.991  44.222  54.149  1.00  0.00    -0.324 N 
ATOM     12  H   UNL     1       3.577  44.261  54.972  1.00  0.00     0.170 HD
BRANCH  11  13
ATOM     13  C   UNL     1       1.613  44.102  54.348  1.00  0.00     0.041 A 
ATOM     14  C   UNL     1      -1.174  43.711  54.703  1.00  0.00     0.119 A 
ATOM     15  C   UNL     1      -0.447  42.861  53.876  1.00  0.00     0.048 A 
ATOM     16  C   UNL     1      -0.508  44.747  55.355  1.00  0.00     0.048 A 
ATOM     17  C   UNL     1       0.932  43.055  53.707  1.00  0.00     0.030 A 
ATOM     18  C   UNL     1       0.869  44.937  55.183  1.00  0.00     0.030 A 
BRANCH  14  19
ATOM     19  O   UNL     1      -2.515  43.639  54.958  1.00  0.00    -0.497 OA
ATOM     20  C   UNL     1      -2.907  43.609  56.324  1.00  0.00     0.278 C 
ENDBRANCH  14  19
ENDBRANCH  11  13
ENDBRANCH   1  11
BRANCH   3  21
ATOM     21  N   UNL     1       6.174  46.334  51.486  1.00  0.00    -0.367 N 
ATOM     22  H   UNL     1       5.684  46.856  50.763  1.00  0.00     0.162 HD
BRANCH  21  23
ATOM     23  C   UNL     1       6.500  47.202  52.629  1.00  0.00     0.146 C 
BRANCH  23  24
ATOM     24  C   UNL     1       7.994  47.558  52.771  1.00  0.00     0.137 C 
ATOM     25  C   UNL     1       8.986  46.475  52.364  1.00  0.00     0.036 C 
ATOM     26  O   UNL     1       8.351  47.977  54.107  1.00  0.00    -0.376 OA
ATOM     27  C   UNL     1      10.203  46.853  53.172  1.00  0.00     0.031 C 
ATOM     28  C   UNL     1       9.576  47.325  54.465  1.00  0.00     0.160 C 
ENDBRANCH  23  24
ENDBRANCH  21  23
ENDBRANCH   3  21
TORSDOF 6
ENDMDL
MODEL 5
REMARK VINA RESULT:    -9.021      2.678      5.159
REMARK INTER + INTRA:         -13.010
REMARK INTER:                 -12.441
REMARK INTRA:                  -0.569
REMARK UNBOUND:                -0.825
REMARK SMILES COc1ccc(Nc2nc(NC[C@@H]3CCCO3)c3ccccc3n2)cc1
REMARK SMILES IDX 8 1 9 2 10 3 18 4 19 5 20 6 21 7 22 8 23 9 24 10 7 11 6 13
REMARK SMILES IDX 3 14 4 15 26 16 5 17 25 18 2 19 1 20 11 21 12 23 13 24 14 25
REMARK SMILES IDX 17 26 15 27 16 28
REMARK H PARENT 7 12 11 22
ROOT
ATOM      1  C   UNL     1       2.949  43.496  52.566  1.00  0.00     0.229 A 
ATOM      2  N   UNL     1       3.475  44.720  52.464  1.00  0.00    -0.195 NA
ATOM      3  C   UNL     1       4.555  44.898  51.694  1.00  0.00     0.139 A 
ATOM      4  C   UNL     1       5.133  43.837  50.983  1.00  0.00     0.043 A 
ATOM      5  C   UNL     1       6.290  43.932  50.167  1.00  0.00     0.014 A 
ATOM      6  C   UNL     1       6.782  42.816  49.492  1.00  0.00     0.001 A 
ATOM      7  C   UNL     1       6.129  41.598  49.629  1.00  0.00     0.002 A 
ATOM      8  C   UNL     1       4.998  41.506  50.444  1.00  0.00     0.029 A 
ATOM      9  C   UNL     1       4.491  42.604  51.128  1.00  0.00     0.078 A 
ATOM     10  N   UNL     1       3.417  42.436  51.904  1.00  0.00    -0.213 NA
ENDROOT
BRANCH   1  11
ATOM     11  N   UNL     1       1.867  43.413  53.439  1.00  0.00    -0.324 N 
ATOM     12  H   UNL     1       1.236  42.709  53.080  1.00  0.00     0.170 HD
BRANCH  11  13
ATOM     13  C   UNL     1       1.419  44.188  54.512  1.00  0.00     0.041 A 
ATOM     14  C   UNL     1       0.376  45.680  56.688  1.00  0.00     0.119 A 
ATOM     15  C   UNL     1      -0.480  44.982  55.842  1.00  0.00     0.048 A 
ATOM     16  C   UNL     1       1.748  45.624  56.451  1.00  0.00     0.048 A 
ATOM     17  C   UNL     1       0.040  44.242  54.771  1.00  0.00     0.030 A 
ATOM     18  C   UNL     1       2.264  44.884  55.379  1.00  0.00     0.030 A 
BRANCH  14  19
ATOM     19  O   UNL     1       0.008  46.437  57.765  1.00  0.00    -0.497 OA
ATOM     20  C   UNL     1      -1.216  47.151  57.658  1.00  0.00     0.278 C 
ENDBRANCH  14  19
ENDBRANCH  11  13
ENDBRANCH   1  11
BRANCH   3  21
ATOM     21  N   UNL     1       5.130  46.186  51.609  1.00  0.00    -0.367 N 
ATOM     22  H   UNL     1       4.382  46.832  51.367  1.00  0.00     0.162 HD
BRANCH  21  23
ATOM     23  C   UNL     1       5.876  46.664  52.785  1.00  0.00     0.146 C 
BRANCH  23  24
ATOM     24  C   UNL     1       7.262  47.267  52.476  1.00  0.00     0.137 C 
ATOM     25  C   UNL     1       8.277  46.329  51.835  1.00  0.00     0.036 C 
ATOM     26  O   UNL     1       7.897  47.848  53.636  1.00  0.00    -0.376 OA
ATOM     27  C   UNL     1       9.583  46.965  52.243  1.00  0.00     0.031 C 
ATOM     28  C   UNL     1       9.270  47.436  53.645  1.00  0.00     0.160 C 
ENDBRANCH  23  24
ENDBRANCH  21  23
ENDBRANCH   3  21
TORSDOF 6
ENDMDL
MODEL 6
REMARK VINA RESULT:    -8.926      2.417      6.940
REMARK INTER + INTRA:         -12.881
REMARK INTER:                 -12.190
REMARK INTRA:                  -0.691
REMARK UNBOUND:                -0.825
REMARK SMILES COc1ccc(Nc2nc(NC[C@@H]3CCCO3)c3ccccc3n2)cc1
REMARK SMILES IDX 8 1 9 2 10 3 18 4 19 5 20 6 21 7 22 8 23 9 24 10 7 11 6 13
REMARK SMILES IDX 3 14 4 15 26 16 5 17 25 18 2 19 1 20 11 21 12 23 13 24 14 25
REMARK SMILES IDX 17 26 15 27 16 28
REMARK H PARENT 7 12 11 22
ROOT
ATOM      1  C   UNL     1       6.566  44.740  51.122  1.00  0.00     0.229 A 
ATOM      2  N   UNL     1       5.688  44.584  52.117  1.00  0.00    -0.195 NA
ATOM      3  C   UNL     1       4.793  43.592  52.043  1.00  0.00     0.139 A 
ATOM      4  C   UNL     1       4.768  42.707  50.956  1.00  0.00     0.043 A 
ATOM      5  C   UNL     1       3.840  41.646  50.785  1.00  0.00     0.014 A 
ATOM      6  C   UNL     1       3.906  40.814  49.669  1.00  0.00     0.001 A 
ATOM      7  C   UNL     1       4.890  41.033  48.715  1.00  0.00     0.002 A 
ATOM      8  C   UNL     1       5.794  42.086  48.881  1.00  0.00     0.029 A 
ATOM      9  C   UNL     1       5.747  42.931  49.983  1.00  0.00     0.078 A 
ATOM     10  N   UNL     1       6.631  43.927  50.065  1.00  0.00    -0.213 NA
ENDROOT
BRANCH   1  11
ATOM     11  N   UNL     1       7.409  45.838  51.273  1.00  0.00    -0.324 N 
ATOM     12  H   UNL     1       7.700  46.131  50.350  1.00  0.00     0.170 HD
BRANCH  11  13
ATOM     13  C   UNL     1       8.041  46.438  52.365  1.00  0.00     0.041 A 
ATOM     14  C   UNL     1       9.192  47.635  54.666  1.00  0.00     0.119 A 
ATOM     15  C   UNL     1       7.810  47.527  54.549  1.00  0.00     0.048 A 
ATOM     16  C   UNL     1       9.994  47.138  53.640  1.00  0.00     0.048 A 
ATOM     17  C   UNL     1       7.246  46.931  53.412  1.00  0.00     0.030 A 
ATOM     18  C   UNL     1       9.426  46.543  52.506  1.00  0.00     0.030 A 
BRANCH  14  19
ATOM     19  O   UNL     1       9.875  48.189  55.713  1.00  0.00    -0.497 OA
ATOM     20  C   UNL     1      11.027  47.491  56.167  1.00  0.00     0.278 C 
ENDBRANCH  14  19
ENDBRANCH  11  13
ENDBRANCH   1  11
BRANCH   3  21
ATOM     21  N   UNL     1       3.847  43.445  53.080  1.00  0.00    -0.367 N 
ATOM     22  H   UNL     1       4.367  43.288  53.941  1.00  0.00     0.162 HD
BRANCH  21  23
ATOM     23  C   UNL     1       2.868  44.532  53.251  1.00  0.00     0.146 C 
BRANCH  23  24
ATOM     24  C   UNL     1       1.412  44.157  52.907  1.00  0.00     0.137 C 
ATOM     25  C   UNL     1       0.975  42.745  53.277  1.00  0.00     0.036 C 
ATOM     26  O   UNL     1       1.095  44.345  51.511  1.00  0.00    -0.376 OA
ATOM     27  C   UNL     1      -0.154  42.507  52.305  1.00  0.00     0.031 C 
ATOM     28  C   UNL     1       0.363  43.196  51.062  1.00  0.00     0.160 C 
ENDBRANCH  23  24
ENDBRANCH  21  23
ENDBRANCH   3  21
TORSDOF 6
ENDMDL
MODEL 7
REMARK VINA RESULT:    -8.815      1.607      4.795
REMARK INTER + INTRA:         -12.732
REMARK INTER:                 -11.704
REMARK INTRA:                  -1.028
REMARK UNBOUND:                -0.825
REMARK SMILES COc1ccc(Nc2nc(NC[C@@H]3CCCO3)c3ccccc3n2)cc1
REMARK SMILES IDX 8 1 9 2 10 3 18 4 19 5 20 6 21 7 22 8 23 9 24 10 7 11 6 13
REMARK SMILES IDX 3 14 4 15 26 16 5 17 25 18 2 19 1 20 11 21 12 23 13 24 14 25
REMARK SMILES IDX 17 26 15 27 16 28
REMARK H PARENT 7 12 11 22
ROOT
ATOM      1  C   UNL     1       7.061  45.585  51.178  1.00  0.00     0.229 A 
ATOM      2  N   UNL     1       6.080  46.262  51.781  1.00  0.00    -0.195 NA
ATOM      3  C   UNL     1       6.370  47.008  52.854  1.00  0.00     0.139 A 
ATOM      4  C   UNL     1       7.678  47.106  53.347  1.00  0.00     0.043 A 
ATOM      5  C   UNL     1       8.070  47.851  54.490  1.00  0.00     0.014 A 
ATOM      6  C   UNL     1       9.403  47.891  54.894  1.00  0.00     0.001 A 
ATOM      7  C   UNL     1      10.354  47.188  54.168  1.00  0.00     0.002 A 
ATOM      8  C   UNL     1       9.963  46.446  53.050  1.00  0.00     0.029 A 
ATOM      9  C   UNL     1       8.640  46.388  52.629  1.00  0.00     0.078 A 
ATOM     10  N   UNL     1       8.339  45.643  51.563  1.00  0.00    -0.213 NA
ENDROOT
BRANCH   1  11
ATOM     11  N   UNL     1       6.638  44.796  50.112  1.00  0.00    -0.324 N 
ATOM     12  H   UNL     1       6.795  45.320  49.261  1.00  0.00     0.170 HD
BRANCH  11  13
ATOM     13  C   UNL     1       5.912  43.607  50.008  1.00  0.00     0.041 A 
ATOM     14  C   UNL     1       4.321  41.262  49.875  1.00  0.00     0.119 A 
ATOM     15  C   UNL     1       4.042  42.246  50.818  1.00  0.00     0.048 A 
ATOM     16  C   UNL     1       5.387  41.455  48.998  1.00  0.00     0.048 A 
ATOM     17  C   UNL     1       4.828  43.405  50.877  1.00  0.00     0.030 A 
ATOM     18  C   UNL     1       6.169  42.615  49.061  1.00  0.00     0.030 A 
BRANCH  14  19
ATOM     19  O   UNL     1       3.641  40.088  49.706  1.00  0.00    -0.497 OA
ATOM     20  C   UNL     1       3.403  39.674  48.366  1.00  0.00     0.278 C 
ENDBRANCH  14  19
ENDBRANCH  11  13
ENDBRANCH   1  11
BRANCH   3  21
ATOM     21  N   UNL     1       5.327  47.701  53.508  1.00  0.00    -0.367 N 
ATOM     22  H   UNL     1       4.686  48.027  52.788  1.00  0.00     0.162 HD
BRANCH  21  23
ATOM     23  C   UNL     1       4.603  46.975  54.565  1.00  0.00     0.146 C 
BRANCH  23  24
ATOM     24  C   UNL     1       3.244  46.385  54.135  1.00  0.00     0.137 C 
ATOM     25  C   UNL     1       3.225  44.892  53.829  1.00  0.00     0.036 C 
ATOM     26  O   UNL     1       2.672  47.057  52.992  1.00  0.00    -0.376 OA
ATOM     27  C   UNL     1       2.046  44.784  52.894  1.00  0.00     0.031 C 
ATOM     28  C   UNL     1       2.176  46.059  52.090  1.00  0.00     0.160 C 
ENDBRANCH  23  24
ENDBRANCH  21  23
ENDBRANCH   3  21
TORSDOF 6
ENDMDL
MODEL 8
REMARK VINA RESULT:    -8.604      2.453      5.719
REMARK INTER + INTRA:         -12.447
REMARK INTER:                 -11.380
REMARK INTRA:                  -1.067
REMARK UNBOUND:                -0.825
REMARK SMILES COc1ccc(Nc2nc(NC[C@@H]3CCCO3)c3ccccc3n2)cc1
REMARK SMILES IDX 8 1 9 2 10 3 18 4 19 5 20 6 21 7 22 8 23 9 24 10 7 11 6 13
REMARK SMILES IDX 3 14 4 15 26 16 5 17 25 18 2 19 1 20 11 21 12 23 13 24 14 25
REMARK SMILES IDX 17 26 15 27 16 28
REMARK H PARENT 7 12 11 22
ROOT
ATOM      1  C   UNL     1       7.031  43.834  49.697  1.00  0.00     0.229 A 
ATOM      2  N   UNL     1       5.852  44.366  50.030  1.00  0.00    -0.195 NA
ATOM      3  C   UNL     1       5.828  45.445  50.820  1.00  0.00     0.139 A 
ATOM      4  C   UNL     1       7.008  46.036  51.291  1.00  0.00     0.043 A 
ATOM      5  C   UNL     1       7.074  47.163  52.152  1.00  0.00     0.014 A 
ATOM      6  C   UNL     1       8.302  47.682  52.558  1.00  0.00     0.001 A 
ATOM      7  C   UNL     1       9.472  47.081  52.115  1.00  0.00     0.002 A 
ATOM      8  C   UNL     1       9.404  45.964  51.277  1.00  0.00     0.029 A 
ATOM      9  C   UNL     1       8.191  45.427  50.862  1.00  0.00     0.078 A 
ATOM     10  N   UNL     1       8.204  44.347  50.077  1.00  0.00    -0.213 NA
ENDROOT
BRANCH   1  11
ATOM     11  N   UNL     1       6.937  42.680  48.922  1.00  0.00    -0.324 N 
ATOM     12  H   UNL     1       7.866  42.458  48.588  1.00  0.00     0.170 HD
BRANCH  11  13
ATOM     13  C   UNL     1       5.873  41.947  48.393  1.00  0.00     0.041 A 
ATOM     14  C   UNL     1       3.784  40.459  47.179  1.00  0.00     0.119 A 
ATOM     15  C   UNL     1       4.662  41.202  46.397  1.00  0.00     0.048 A 
ATOM     16  C   UNL     1       3.957  40.454  48.562  1.00  0.00     0.048 A 
ATOM     17  C   UNL     1       5.695  41.933  47.000  1.00  0.00     0.030 A 
ATOM     18  C   UNL     1       4.990  41.185  49.161  1.00  0.00     0.030 A 
BRANCH  14  19
ATOM     19  O   UNL     1       2.738  39.704  46.727  1.00  0.00    -0.497 OA
ATOM     20  C   UNL     1       2.760  38.319  47.051  1.00  0.00     0.278 C 
ENDBRANCH  14  19
ENDBRANCH  11  13
ENDBRANCH   1  11
BRANCH   3  21
ATOM     21  N   UNL     1       4.580  45.991  51.196  1.00  0.00    -0.367 N 
ATOM     22  H   UNL     1       4.178  46.420  50.365  1.00  0.00     0.162 HD
BRANCH  21  23
ATOM     23  C   UNL     1       3.616  45.078  51.833  1.00  0.00     0.146 C 
BRANCH  23  24
ATOM     24  C   UNL     1       3.740  44.967  53.366  1.00  0.00     0.137 C 
ATOM     25  C   UNL     1       3.837  46.282  54.131  1.00  0.00     0.036 C 
ATOM     26  O   UNL     1       4.856  44.152  53.786  1.00  0.00    -0.376 OA
ATOM     27  C   UNL     1       4.548  45.853  55.391  1.00  0.00     0.031 C 
ATOM     28  C   UNL     1       5.525  44.830  54.857  1.00  0.00     0.160 C 
ENDBRANCH  23  24
ENDBRANCH  21  23
ENDBRANCH   3  21
TORSDOF 6
ENDMDL
MODEL 9
REMARK VINA RESULT:    -8.593      2.125      6.579
REMARK INTER + INTRA:         -12.431
REMARK INTER:                 -11.482
REMARK INTRA:                  -0.949
REMARK UNBOUND:                -0.825
REMARK SMILES COc1ccc(Nc2nc(NC[C@@H]3CCCO3)c3ccccc3n2)cc1
REMARK SMILES IDX 8 1 9 2 10 3 18 4 19 5 20 6 21 7 22 8 23 9 24 10 7 11 6 13
REMARK SMILES IDX 3 14 4 15 26 16 5 17 25 18 2 19 1 20 11 21 12 23 13 24 14 25
REMARK SMILES IDX 17 26 15 27 16 28
REMARK H PARENT 7 12 11 22
ROOT
ATOM      1  C   UNL     1       3.467  45.695  53.648  1.00  0.00     0.229 A 
ATOM      2  N   UNL     1       3.914  44.555  53.114  1.00  0.00    -0.195 NA
ATOM      3  C   UNL     1       3.078  43.515  53.013  1.00  0.00     0.139 A 
ATOM      4  C   UNL     1       1.744  43.602  53.437  1.00  0.00     0.043 A 
ATOM      5  C   UNL     1       0.799  42.544  53.391  1.00  0.00     0.014 A 
ATOM      6  C   UNL     1      -0.509  42.736  53.831  1.00  0.00     0.001 A 
ATOM      7  C   UNL     1      -0.885  43.978  54.324  1.00  0.00     0.002 A 
ATOM      8  C   UNL     1       0.052  45.013  54.380  1.00  0.00     0.029 A 
ATOM      9  C   UNL     1       1.363  44.845  53.950  1.00  0.00     0.078 A 
ATOM     10  N   UNL     1       2.207  45.875  54.052  1.00  0.00    -0.213 NA
ENDROOT
BRANCH   1  11
ATOM     11  N   UNL     1       4.436  46.689  53.760  1.00  0.00    -0.324 N 
ATOM     12  H   UNL     1       3.965  47.551  54.000  1.00  0.00     0.170 HD
BRANCH  11  13
ATOM     13  C   UNL     1       5.793  46.768  53.435  1.00  0.00     0.041 A 
ATOM     14  C   UNL     1       8.581  46.884  52.922  1.00  0.00     0.119 A 
ATOM     15  C   UNL     1       8.107  46.909  54.230  1.00  0.00     0.048 A 
ATOM     16  C   UNL     1       7.663  46.793  51.877  1.00  0.00     0.048 A 
ATOM     17  C   UNL     1       6.728  46.848  54.479  1.00  0.00     0.030 A 
ATOM     18  C   UNL     1       6.287  46.731  52.130  1.00  0.00     0.030 A 
BRANCH  14  19
ATOM     19  O   UNL     1       9.891  46.936  52.536  1.00  0.00    -0.497 OA
ATOM     20  C   UNL     1      10.331  45.935  51.627  1.00  0.00     0.278 C 
ENDBRANCH  14  19
ENDBRANCH  11  13
ENDBRANCH   1  11
BRANCH   3  21
ATOM     21  N   UNL     1       3.558  42.300  52.476  1.00  0.00    -0.367 N 
ATOM     22  H   UNL     1       2.940  41.562  52.806  1.00  0.00     0.162 HD
BRANCH  21  23
ATOM     23  C   UNL     1       3.719  42.234  51.014  1.00  0.00     0.146 C 
BRANCH  23  24
ATOM     24  C   UNL     1       5.179  42.156  50.523  1.00  0.00     0.137 C 
ATOM     25  C   UNL     1       5.893  43.488  50.320  1.00  0.00     0.036 C 
ATOM     26  O   UNL     1       5.324  41.409  49.295  1.00  0.00    -0.376 OA
ATOM     27  C   UNL     1       6.949  43.119  49.307  1.00  0.00     0.031 C 
ATOM     28  C   UNL     1       6.202  42.141  48.429  1.00  0.00     0.160 C 
ENDBRANCH  23  24
ENDBRANCH  21  23
ENDBRANCH   3  21
TORSDOF 6
ENDMDL
MODEL 10
REMARK VINA RESULT:    -8.535      2.197      5.293
REMARK INTER + INTRA:         -12.353
REMARK INTER:                 -11.510
REMARK INTRA:                  -0.843
REMARK UNBOUND:                -0.825
REMARK SMILES COc1ccc(Nc2nc(NC[C@@H]3CCCO3)c3ccccc3n2)cc1
REMARK SMILES IDX 8 1 9 2 10 3 18 4 19 5 20 6 21 7 22 8 23 9 24 10 7 11 6 13
REMARK SMILES IDX 3 14 4 15 26 16 5 17 25 18 2 19 1 20 11 21 12 23 13 24 14 25
REMARK SMILES IDX 17 26 15 27 16 28
REMARK H PARENT 7 12 11 22
ROOT
ATOM      1  C   UNL     1       7.349  44.138  49.830  1.00  0.00     0.229 A 
ATOM      2  N   UNL     1       6.196  44.687  50.222  1.00  0.00    -0.195 NA
ATOM      3  C   UNL     1       6.224  45.697  51.100  1.00  0.00     0.139 A 
ATOM      4  C   UNL     1       7.433  46.198  51.603  1.00  0.00     0.043 A 
ATOM      5  C   UNL     1       7.553  47.246  52.553  1.00  0.00     0.014 A 
ATOM      6  C   UNL     1       8.806  47.678  52.984  1.00  0.00     0.001 A 
ATOM      7  C   UNL     1       9.945  47.070  52.477  1.00  0.00     0.002 A 
ATOM      8  C   UNL     1       9.823  46.031  51.551  1.00  0.00     0.029 A 
ATOM      9  C   UNL     1       8.585  45.580  51.108  1.00  0.00     0.078 A 
ATOM     10  N   UNL     1       8.545  44.570  50.237  1.00  0.00    -0.213 NA
ENDROOT
BRANCH   1  11
ATOM     11  N   UNL     1       7.200  43.057  48.964  1.00  0.00    -0.324 N 
ATOM     12  H   UNL     1       8.030  43.008  48.389  1.00  0.00     0.170 HD
BRANCH  11  13
ATOM     13  C   UNL     1       6.133  42.223  48.623  1.00  0.00     0.041 A 
ATOM     14  C   UNL     1       3.907  40.551  48.074  1.00  0.00     0.119 A 
ATOM     15  C   UNL     1       4.257  40.843  49.388  1.00  0.00     0.048 A 
ATOM     16  C   UNL     1       4.663  41.100  47.039  1.00  0.00     0.048 A 
ATOM     17  C   UNL     1       5.355  41.673  49.655  1.00  0.00     0.030 A 
ATOM     18  C   UNL     1       5.759  41.929  47.311  1.00  0.00     0.030 A 
BRANCH  14  19
ATOM     19  O   UNL     1       2.866  39.762  47.670  1.00  0.00    -0.497 OA
ATOM     20  C   UNL     1       3.079  38.964  46.513  1.00  0.00     0.278 C 
ENDBRANCH  14  19
ENDBRANCH  11  13
ENDBRANCH   1  11
BRANCH   3  21
ATOM     21  N   UNL     1       5.004  46.259  51.535  1.00  0.00    -0.367 N 
ATOM     22  H   UNL     1       5.109  47.270  51.496  1.00  0.00     0.162 HD
BRANCH  21  23
ATOM     23  C   UNL     1       3.782  45.831  50.833  1.00  0.00     0.146 C 
BRANCH  23  24
ATOM     24  C   UNL     1       2.836  44.935  51.659  1.00  0.00     0.137 C 
ATOM     25  C   UNL     1       3.432  43.638  52.192  1.00  0.00     0.036 C 
ATOM     26  O   UNL     1       1.628  44.584  50.950  1.00  0.00    -0.376 OA
ATOM     27  C   UNL     1       2.202  42.779  52.356  1.00  0.00     0.031 C 
ATOM     28  C   UNL     1       1.383  43.186  51.151  1.00  0.00     0.160 C 
ENDBRANCH  23  24
ENDBRANCH  21  23
ENDBRANCH   3  21
TORSDOF 6
ENDMDL
MODEL 11
REMARK VINA RESULT:    -8.520      2.659      7.204
REMARK INTER + INTRA:         -12.333
REMARK INTER:                 -11.617
REMARK INTRA:                  -0.716
REMARK UNBOUND:                -0.825
REMARK SMILES COc1ccc(Nc2nc(NC[C@@H]3CCCO3)c3ccccc3n2)cc1
REMARK SMILES IDX 8 1 9 2 10 3 18 4 19 5 20 6 21 7 22 8 23 9 24 10 7 11 6 13
REMARK SMILES IDX 3 14 4 15 26 16 5 17 25 18 2 19 1 20 11 21 12 23 13 24 14 25
REMARK SMILES IDX 17 26 15 27 16 28
REMARK H PARENT 7 12 11 22
ROOT
ATOM      1  C   UNL     1       2.381  43.564  53.119  1.00  0.00     0.229 A 
ATOM      2  N   UNL     1       3.317  44.226  53.806  1.00  0.00    -0.195 NA
ATOM      3  C   UNL     1       2.956  44.916  54.894  1.00  0.00     0.139 A 
ATOM      4  C   UNL     1       1.626  44.945  55.336  1.00  0.00     0.043 A 
ATOM      5  C   UNL     1       1.152  45.670  56.461  1.00  0.00     0.014 A 
ATOM      6  C   UNL     1      -0.192  45.626  56.824  1.00  0.00     0.001 A 
ATOM      7  C   UNL     1      -1.075  44.866  56.069  1.00  0.00     0.002 A 
ATOM      8  C   UNL     1      -0.608  44.165  54.955  1.00  0.00     0.029 A 
ATOM      9  C   UNL     1       0.728  44.195  54.571  1.00  0.00     0.078 A 
ATOM     10  N   UNL     1       1.097  43.515  53.484  1.00  0.00    -0.213 NA
ENDROOT
BRANCH   1  11
ATOM     11  N   UNL     1       2.856  42.932  51.973  1.00  0.00    -0.324 N 
ATOM     12  H   UNL     1       2.182  42.225  51.710  1.00  0.00     0.170 HD
BRANCH  11  13
ATOM     13  C   UNL     1       4.074  42.942  51.289  1.00  0.00     0.041 A 
ATOM     14  C   UNL     1       6.508  42.824  49.836  1.00  0.00     0.119 A 
ATOM     15  C   UNL     1       5.765  41.668  50.053  1.00  0.00     0.048 A 
ATOM     16  C   UNL     1       6.032  44.034  50.337  1.00  0.00     0.048 A 
ATOM     17  C   UNL     1       4.560  41.732  50.767  1.00  0.00     0.030 A 
ATOM     18  C   UNL     1       4.828  44.092  51.051  1.00  0.00     0.030 A 
BRANCH  14  19
ATOM     19  O   UNL     1       7.693  42.908  49.160  1.00  0.00    -0.497 OA
ATOM     20  C   UNL     1       8.370  44.158  49.206  1.00  0.00     0.278 C 
ENDBRANCH  14  19
ENDBRANCH  11  13
ENDBRANCH   1  11
BRANCH   3  21
ATOM     21  N   UNL     1       3.939  45.640  55.603  1.00  0.00    -0.367 N 
ATOM     22  H   UNL     1       3.806  45.438  56.591  1.00  0.00     0.162 HD
BRANCH  21  23
ATOM     23  C   UNL     1       5.342  45.424  55.209  1.00  0.00     0.146 C 
BRANCH  23  24
ATOM     24  C   UNL     1       6.029  46.640  54.554  1.00  0.00     0.137 C 
ATOM     25  C   UNL     1       5.944  46.725  53.035  1.00  0.00     0.036 C 
ATOM     26  O   UNL     1       7.425  46.757  54.906  1.00  0.00    -0.376 OA
ATOM     27  C   UNL     1       7.154  47.564  52.706  1.00  0.00     0.031 C 
ATOM     28  C   UNL     1       8.162  47.056  53.713  1.00  0.00     0.160 C 
ENDBRANCH  23  24
ENDBRANCH  21  23
ENDBRANCH   3  21
TORSDOF 6
ENDMDL
MODEL 12
REMARK VINA RESULT:    -8.473      3.233      6.923
REMARK INTER + INTRA:         -12.270
REMARK INTER:                 -11.376
REMARK INTRA:                  -0.894
REMARK UNBOUND:                -0.825
REMARK SMILES COc1ccc(Nc2nc(NC[C@@H]3CCCO3)c3ccccc3n2)cc1
REMARK SMILES IDX 8 1 9 2 10 3 18 4 19 5 20 6 21 7 22 8 23 9 24 10 7 11 6 13
REMARK SMILES IDX 3 14 4 15 26 16 5 17 25 18 2 19 1 20 11 21 12 23 13 24 14 25
REMARK SMILES IDX 17 26 15 27 16 28
REMARK H PARENT 7 12 11 22
ROOT
ATOM      1  C   UNL     1       6.076  42.858  49.754  1.00  0.00     0.229 A 
ATOM      2  N   UNL     1       6.975  43.842  49.660  1.00  0.00    -0.195 NA
ATOM      3  C   UNL     1       6.934  44.844  50.545  1.00  0.00     0.139 A 
ATOM      4  C   UNL     1       5.983  44.875  51.575  1.00  0.00     0.043 A 
ATOM      5  C   UNL     1       5.853  45.909  52.539  1.00  0.00     0.014 A 
ATOM      6  C   UNL     1       4.877  45.841  53.531  1.00  0.00     0.001 A 
ATOM      7  C   UNL     1       4.022  44.749  53.569  1.00  0.00     0.002 A 
ATOM      8  C   UNL     1       4.145  43.739  52.611  1.00  0.00     0.029 A 
ATOM      9  C   UNL     1       5.108  43.786  51.610  1.00  0.00     0.078 A 
ATOM     10  N   UNL     1       5.154  42.793  50.718  1.00  0.00    -0.213 NA
ENDROOT
BRANCH   1  11
ATOM     11  N   UNL     1       6.171  41.901  48.747  1.00  0.00    -0.324 N 
ATOM     12  H   UNL     1       7.120  41.548  48.748  1.00  0.00     0.170 HD
BRANCH  11  13
ATOM     13  C   UNL     1       5.343  41.510  47.693  1.00  0.00     0.041 A 
ATOM     14  C   UNL     1       3.776  40.752  45.452  1.00  0.00     0.119 A 
ATOM     15  C   UNL     1       4.883  41.578  45.286  1.00  0.00     0.048 A 
ATOM     16  C   UNL     1       3.460  40.301  46.733  1.00  0.00     0.048 A 
ATOM     17  C   UNL     1       5.657  41.947  46.396  1.00  0.00     0.030 A 
ATOM     18  C   UNL     1       4.236  40.672  47.838  1.00  0.00     0.030 A 
BRANCH  14  19
ATOM     19  O   UNL     1       2.938  40.315  44.465  1.00  0.00    -0.497 OA
ATOM     20  C   UNL     1       3.328  39.140  43.766  1.00  0.00     0.278 C 
ENDBRANCH  14  19
ENDBRANCH  11  13
ENDBRANCH   1  11
BRANCH   3  21
ATOM     21  N   UNL     1       7.866  45.899  50.429  1.00  0.00    -0.367 N 
ATOM     22  H   UNL     1       7.444  46.721  50.855  1.00  0.00     0.162 HD
BRANCH  21  23
ATOM     23  C   UNL     1       9.215  45.662  50.970  1.00  0.00     0.146 C 
BRANCH  23  24
ATOM     24  C   UNL     1       9.689  46.697  52.011  1.00  0.00     0.137 C 
ATOM     25  C   UNL     1       9.913  46.175  53.426  1.00  0.00     0.036 C 
ATOM     26  O   UNL     1       8.808  47.837  52.117  1.00  0.00    -0.376 OA
ATOM     27  C   UNL     1       9.735  47.428  54.248  1.00  0.00     0.031 C 
ATOM     28  C   UNL     1       8.613  48.122  53.508  1.00  0.00     0.160 C 
ENDBRANCH  23  24
ENDBRANCH  21  23
ENDBRANCH   3  21
TORSDOF 6
ENDMDL
MODEL 13
REMARK VINA RESULT:    -8.311      2.529      5.110
REMARK INTER + INTRA:         -12.051
REMARK INTER:                 -11.268
REMARK INTRA:                  -0.783
REMARK UNBOUND:                -0.825
REMARK SMILES COc1ccc(Nc2nc(NC[C@@H]3CCCO3)c3ccccc3n2)cc1
REMARK SMILES IDX 8 1 9 2 10 3 18 4 19 5 20 6 21 7 22 8 23 9 24 10 7 11 6 13
REMARK SMILES IDX 3 14 4 15 26 16 5 17 25 18 2 19 1 20 11 21 12 23 13 24 14 25
REMARK SMILES IDX 17 26 15 27 16 28
REMARK H PARENT 7 12 11 22
ROOT
ATOM      1  C   UNL     1       2.957  42.909  52.334  1.00  0.00     0.229 A 
ATOM      2  N   UNL     1       3.118  44.222  52.150  1.00  0.00    -0.195 NA
ATOM      3  C   UNL     1       4.136  44.651  51.394  1.00  0.00     0.139 A 
ATOM      4  C   UNL     1       5.022  43.754  50.781  1.00  0.00     0.043 A 
ATOM      5  C   UNL     1       6.140  44.122  49.986  1.00  0.00     0.014 A 
ATOM      6  C   UNL     1       6.958  43.151  49.412  1.00  0.00     0.001 A 
ATOM      7  C   UNL     1       6.674  41.810  49.627  1.00  0.00     0.002 A 
ATOM      8  C   UNL     1       5.580  41.452  50.420  1.00  0.00     0.029 A 
ATOM      9  C   UNL     1       4.752  42.401  51.006  1.00  0.00     0.078 A 
ATOM     10  N   UNL     1       3.737  41.985  51.767  1.00  0.00    -0.213 NA
ENDROOT
BRANCH   1  11
ATOM     11  N   UNL     1       1.906  42.578  53.186  1.00  0.00    -0.324 N 
ATOM     12  H   UNL     1       1.719  41.590  53.073  1.00  0.00     0.170 HD
BRANCH  11  13
ATOM     13  C   UNL     1       1.001  43.319  53.949  1.00  0.00     0.041 A 
ATOM     14  C   UNL     1      -0.726  44.934  55.517  1.00  0.00     0.119 A 
ATOM     15  C   UNL     1       0.650  45.130  55.563  1.00  0.00     0.048 A 
ATOM     16  C   UNL     1      -1.236  43.940  54.684  1.00  0.00     0.048 A 
ATOM     17  C   UNL     1       1.500  44.332  54.783  1.00  0.00     0.030 A 
ATOM     18  C   UNL     1      -0.384  43.145  53.907  1.00  0.00     0.030 A 
BRANCH  14  19
ATOM     19  O   UNL     1      -1.666  45.635  56.219  1.00  0.00    -0.497 OA
ATOM     20  C   UNL     1      -1.186  46.584  57.163  1.00  0.00     0.278 C 
ENDBRANCH  14  19
ENDBRANCH  11  13
ENDBRANCH   1  11
BRANCH   3  21
ATOM     21  N   UNL     1       4.323  46.040  51.222  1.00  0.00    -0.367 N 
ATOM     22  H   UNL     1       3.876  46.297  50.345  1.00  0.00     0.162 HD
BRANCH  21  23
ATOM     23  C   UNL     1       3.871  46.915  52.317  1.00  0.00     0.146 C 
BRANCH  23  24
ATOM     24  C   UNL     1       4.880  47.087  53.471  1.00  0.00     0.137 C 
ATOM     25  C   UNL     1       6.354  46.963  53.102  1.00  0.00     0.036 C 
ATOM     26  O   UNL     1       4.642  46.180  54.569  1.00  0.00    -0.376 OA
ATOM     27  C   UNL     1       6.967  46.553  54.418  1.00  0.00     0.031 C 
ATOM     28  C   UNL     1       5.904  45.635  54.978  1.00  0.00     0.160 C 
ENDBRANCH  23  24
ENDBRANCH  21  23
ENDBRANCH   3  21
TORSDOF 6
ENDMDL
MODEL 14
REMARK VINA RESULT:    -8.282      2.768      6.566
REMARK INTER + INTRA:         -12.012
REMARK INTER:                 -11.214
REMARK INTRA:                  -0.798
REMARK UNBOUND:                -0.825
REMARK SMILES COc1ccc(Nc2nc(NC[C@@H]3CCCO3)c3ccccc3n2)cc1
REMARK SMILES IDX 8 1 9 2 10 3 18 4 19 5 20 6 21 7 22 8 23 9 24 10 7 11 6 13
REMARK SMILES IDX 3 14 4 15 26 16 5 17 25 18 2 19 1 20 11 21 12 23 13 24 14 25
REMARK SMILES IDX 17 26 15 27 16 28
REMARK H PARENT 7 12 11 22
ROOT
ATOM      1  C   UNL     1       5.799  45.027  51.145  1.00  0.00     0.229 A 
ATOM      2  N   UNL     1       6.025  43.744  50.850  1.00  0.00    -0.195 NA
ATOM      3  C   UNL     1       4.984  42.909  50.751  1.00  0.00     0.139 A 
ATOM      4  C   UNL     1       3.667  43.353  50.933  1.00  0.00     0.043 A 
ATOM      5  C   UNL     1       2.510  42.533  50.871  1.00  0.00     0.014 A 
ATOM      6  C   UNL     1       1.240  43.074  51.058  1.00  0.00     0.001 A 
ATOM      7  C   UNL     1       1.112  44.433  51.312  1.00  0.00     0.002 A 
ATOM      8  C   UNL     1       2.254  45.235  51.384  1.00  0.00     0.029 A 
ATOM      9  C   UNL     1       3.531  44.717  51.204  1.00  0.00     0.078 A 
ATOM     10  N   UNL     1       4.577  45.541  51.307  1.00  0.00    -0.213 NA
ENDROOT
BRANCH   1  11
ATOM     11  N   UNL     1       6.954  45.792  51.283  1.00  0.00    -0.324 N 
ATOM     12  H   UNL     1       7.427  45.798  50.389  1.00  0.00     0.170 HD
BRANCH  11  13
ATOM     13  C   UNL     1       7.636  46.338  52.373  1.00  0.00     0.041 A 
ATOM     14  C   UNL     1       9.143  47.477  54.491  1.00  0.00     0.119 A 
ATOM     15  C   UNL     1       9.780  47.037  53.335  1.00  0.00     0.048 A 
ATOM     16  C   UNL     1       7.757  47.354  54.583  1.00  0.00     0.048 A 
ATOM     17  C   UNL     1       9.031  46.480  52.289  1.00  0.00     0.030 A 
ATOM     18  C   UNL     1       7.013  46.796  53.536  1.00  0.00     0.030 A 
BRANCH  14  19
ATOM     19  O   UNL     1       9.745  48.038  55.582  1.00  0.00    -0.497 OA
ATOM     20  C   UNL     1      11.016  47.518  55.950  1.00  0.00     0.278 C 
ENDBRANCH  14  19
ENDBRANCH  11  13
ENDBRANCH   1  11
BRANCH   3  21
ATOM     21  N   UNL     1       5.225  41.546  50.468  1.00  0.00    -0.367 N 
ATOM     22  H   UNL     1       4.339  41.057  50.575  1.00  0.00     0.162 HD
BRANCH  21  23
ATOM     23  C   UNL     1       5.844  41.233  49.169  1.00  0.00     0.146 C 
BRANCH  23  24
ATOM     24  C   UNL     1       4.975  41.563  47.938  1.00  0.00     0.137 C 
ATOM     25  C   UNL     1       4.009  40.475  47.484  1.00  0.00     0.036 C 
ATOM     26  O   UNL     1       5.754  41.944  46.782  1.00  0.00    -0.376 OA
ATOM     27  C   UNL     1       3.826  40.816  46.025  1.00  0.00     0.031 C 
ATOM     28  C   UNL     1       5.217  41.266  45.639  1.00  0.00     0.160 C 
ENDBRANCH  23  24
ENDBRANCH  21  23
ENDBRANCH   3  21
TORSDOF 6
ENDMDL
MODEL 15
REMARK VINA RESULT:    -8.275      2.667      4.771
REMARK INTER + INTRA:         -12.002
REMARK INTER:                 -10.738
REMARK INTRA:                  -1.264
REMARK UNBOUND:                -0.825
REMARK SMILES COc1ccc(Nc2nc(NC[C@@H]3CCCO3)c3ccccc3n2)cc1
REMARK SMILES IDX 8 1 9 2 10 3 18 4 19 5 20 6 21 7 22 8 23 9 24 10 7 11 6 13
REMARK SMILES IDX 3 14 4 15 26 16 5 17 25 18 2 19 1 20 11 21 12 23 13 24 14 25
REMARK SMILES IDX 17 26 15 27 16 28
REMARK H PARENT 7 12 11 22
ROOT
ATOM      1  C   UNL     1       3.742  43.020  51.187  1.00  0.00     0.229 A 
ATOM      2  N   UNL     1       3.723  44.290  51.602  1.00  0.00    -0.195 NA
ATOM      3  C   UNL     1       4.787  45.066  51.364  1.00  0.00     0.139 A 
ATOM      4  C   UNL     1       5.908  44.582  50.677  1.00  0.00     0.043 A 
ATOM      5  C   UNL     1       7.086  45.326  50.404  1.00  0.00     0.014 A 
ATOM      6  C   UNL     1       8.146  44.754  49.703  1.00  0.00     0.001 A 
ATOM      7  C   UNL     1       8.044  43.438  49.273  1.00  0.00     0.002 A 
ATOM      8  C   UNL     1       6.887  42.705  49.554  1.00  0.00     0.029 A 
ATOM      9  C   UNL     1       5.819  43.253  50.253  1.00  0.00     0.078 A 
ATOM     10  N   UNL     1       4.755  42.485  50.501  1.00  0.00    -0.213 NA
ENDROOT
BRANCH   1  11
ATOM     11  N   UNL     1       2.611  42.289  51.541  1.00  0.00    -0.324 N 
ATOM     12  H   UNL     1       2.718  41.357  51.163  1.00  0.00     0.170 HD
BRANCH  11  13
ATOM     13  C   UNL     1       1.371  42.618  52.094  1.00  0.00     0.041 A 
ATOM     14  C   UNL     1      -1.206  43.291  53.071  1.00  0.00     0.119 A 
ATOM     15  C   UNL     1      -0.874  43.537  51.743  1.00  0.00     0.048 A 
ATOM     16  C   UNL     1      -0.255  42.704  53.904  1.00  0.00     0.048 A 
ATOM     17  C   UNL     1       0.399  43.199  51.263  1.00  0.00     0.030 A 
ATOM     18  C   UNL     1       1.015  42.367  53.420  1.00  0.00     0.030 A 
BRANCH  14  19
ATOM     19  O   UNL     1      -2.403  43.568  53.670  1.00  0.00    -0.497 OA
ATOM     20  C   UNL     1      -2.505  44.811  54.354  1.00  0.00     0.278 C 
ENDBRANCH  14  19
ENDBRANCH  11  13
ENDBRANCH   1  11
BRANCH   3  21
ATOM     21  N   UNL     1       4.779  46.400  51.829  1.00  0.00    -0.367 N 
ATOM     22  H   UNL     1       3.860  46.785  51.620  1.00  0.00     0.162 HD
BRANCH  21  23
ATOM     23  C   UNL     1       5.129  46.617  53.242  1.00  0.00     0.146 C 
BRANCH  23  24
ATOM     24  C   UNL     1       3.936  46.594  54.220  1.00  0.00     0.137 C 
ATOM     25  C   UNL     1       3.773  45.328  55.053  1.00  0.00     0.036 C 
ATOM     26  O   UNL     1       2.669  46.838  53.571  1.00  0.00    -0.376 OA
ATOM     27  C   UNL     1       2.297  45.356  55.368  1.00  0.00     0.031 C 
ATOM     28  C   UNL     1       1.719  45.892  54.078  1.00  0.00     0.160 C 
ENDBRANCH  23  24
ENDBRANCH  21  23
ENDBRANCH   3  21
TORSDOF 6
ENDMDL
MODEL 16
REMARK VINA RESULT:    -8.132      2.873      7.228
REMARK INTER + INTRA:         -11.810
REMARK INTER:                 -10.371
REMARK INTRA:                  -1.438
REMARK UNBOUND:                -0.825
REMARK SMILES COc1ccc(Nc2nc(NC[C@@H]3CCCO3)c3ccccc3n2)cc1
REMARK SMILES IDX 8 1 9 2 10 3 18 4 19 5 20 6 21 7 22 8 23 9 24 10 7 11 6 13
REMARK SMILES IDX 3 14 4 15 26 16 5 17 25 18 2 19 1 20 11 21 12 23 13 24 14 25
REMARK SMILES IDX 17 26 15 27 16 28
REMARK H PARENT 7 12 11 22
ROOT
ATOM      1  C   UNL     1       2.256  45.543  55.534  1.00  0.00     0.229 A 
ATOM      2  N   UNL     1       2.092  44.978  54.334  1.00  0.00    -0.195 NA
ATOM      3  C   UNL     1       0.915  44.413  54.039  1.00  0.00     0.139 A 
ATOM      4  C   UNL     1      -0.149  44.415  54.952  1.00  0.00     0.043 A 
ATOM      5  C   UNL     1      -1.418  43.818  54.732  1.00  0.00     0.014 A 
ATOM      6  C   UNL     1      -2.416  43.884  55.703  1.00  0.00     0.001 A 
ATOM      7  C   UNL     1      -2.157  44.538  56.899  1.00  0.00     0.002 A 
ATOM      8  C   UNL     1      -0.902  45.113  57.117  1.00  0.00     0.029 A 
ATOM      9  C   UNL     1       0.109  45.058  56.166  1.00  0.00     0.078 A 
ATOM     10  N   UNL     1       1.289  45.614  56.452  1.00  0.00    -0.213 NA
ENDROOT
BRANCH   1  11
ATOM     11  N   UNL     1       3.535  46.045  55.756  1.00  0.00    -0.324 N 
ATOM     12  H   UNL     1       3.550  46.449  56.684  1.00  0.00     0.170 HD
BRANCH  11  13
ATOM     13  C   UNL     1       4.651  46.265  54.944  1.00  0.00     0.041 A 
ATOM     14  C   UNL     1       6.948  46.558  53.305  1.00  0.00     0.119 A 
ATOM     15  C   UNL     1       6.811  45.445  54.128  1.00  0.00     0.048 A 
ATOM     16  C   UNL     1       5.935  47.516  53.296  1.00  0.00     0.048 A 
ATOM     17  C   UNL     1       5.672  45.302  54.933  1.00  0.00     0.030 A 
ATOM     18  C   UNL     1       4.799  47.369  54.102  1.00  0.00     0.030 A 
BRANCH  14  19
ATOM     19  O   UNL     1       7.998  46.824  52.472  1.00  0.00    -0.497 OA
ATOM     20  C   UNL     1       9.118  47.487  53.046  1.00  0.00     0.278 C 
ENDBRANCH  14  19
ENDBRANCH  11  13
ENDBRANCH   1  11
BRANCH   3  21
ATOM     21  N   UNL     1       0.751  43.790  52.782  1.00  0.00    -0.367 N 
ATOM     22  H   UNL     1       0.445  44.509  52.129  1.00  0.00     0.162 HD
BRANCH  21  23
ATOM     23  C   UNL     1       1.907  43.053  52.246  1.00  0.00     0.146 C 
BRANCH  23  24
ATOM     24  C   UNL     1       2.762  43.834  51.227  1.00  0.00     0.137 C 
ATOM     25  C   UNL     1       4.216  44.077  51.614  1.00  0.00     0.036 C 
ATOM     26  O   UNL     1       2.198  45.118  50.882  1.00  0.00    -0.376 OA
ATOM     27  C   UNL     1       4.548  45.308  50.807  1.00  0.00     0.031 C 
ATOM     28  C   UNL     1       3.254  46.087  50.892  1.00  0.00     0.160 C 
ENDBRANCH  23  24
ENDBRANCH  21  23
ENDBRANCH   3  21
TORSDOF 6
ENDMDL
MODEL 17
REMARK VINA RESULT:    -8.097      1.545      2.173
REMARK INTER + INTRA:         -11.762
REMARK INTER:                 -10.784
REMARK INTRA:                  -0.979
REMARK UNBOUND:                -0.825
REMARK SMILES COc1ccc(Nc2nc(NC[C@@H]3CCCO3)c3ccccc3n2)cc1
REMARK SMILES IDX 8 1 9 2 10 3 18 4 19 5 20 6 21 7 22 8 23 9 24 10 7 11 6 13
REMARK SMILES IDX 3 14 4 15 26 16 5 17 25 18 2 19 1 20 11 21 12 23 13 24 14 25
REMARK SMILES IDX 17 26 15 27 16 28
REMARK H PARENT 7 12 11 22
ROOT
ATOM      1  C   UNL     1       4.836  45.818  51.719  1.00  0.00     0.229 A 
ATOM      2  N   UNL     1       5.215  44.911  50.814  1.00  0.00    -0.195 NA
ATOM      3  C   UNL     1       6.514  44.797  50.516  1.00  0.00     0.139 A 
ATOM      4  C   UNL     1       7.483  45.593  51.142  1.00  0.00     0.043 A 
ATOM      5  C   UNL     1       8.876  45.556  50.868  1.00  0.00     0.014 A 
ATOM      6  C   UNL     1       9.760  46.386  51.554  1.00  0.00     0.001 A 
ATOM      7  C   UNL     1       9.267  47.261  52.512  1.00  0.00     0.002 A 
ATOM      8  C   UNL     1       7.894  47.303  52.770  1.00  0.00     0.029 A 
ATOM      9  C   UNL     1       6.992  46.488  52.097  1.00  0.00     0.078 A 
ATOM     10  N   UNL     1       5.692  46.598  52.383  1.00  0.00    -0.213 NA
ENDROOT
BRANCH   1  11
ATOM     11  N   UNL     1       3.458  45.893  51.906  1.00  0.00    -0.324 N 
ATOM     12  H   UNL     1       3.218  46.868  52.034  1.00  0.00     0.170 HD
BRANCH  11  13
ATOM     13  C   UNL     1       2.453  44.950  52.137  1.00  0.00     0.041 A 
ATOM     14  C   UNL     1       0.415  43.076  52.757  1.00  0.00     0.119 A 
ATOM     15  C   UNL     1       1.239  43.574  53.761  1.00  0.00     0.048 A 
ATOM     16  C   UNL     1       0.606  43.521  51.450  1.00  0.00     0.048 A 
ATOM     17  C   UNL     1       2.242  44.504  53.451  1.00  0.00     0.030 A 
ATOM     18  C   UNL     1       1.609  44.449  51.144  1.00  0.00     0.030 A 
BRANCH  14  19
ATOM     19  O   UNL     1      -0.597  42.171  52.916  1.00  0.00    -0.497 OA
ATOM     20  C   UNL     1      -1.652  42.217  51.963  1.00  0.00     0.278 C 
ENDBRANCH  14  19
ENDBRANCH  11  13
ENDBRANCH   1  11
BRANCH   3  21
ATOM     21  N   UNL     1       6.912  43.858  49.538  1.00  0.00    -0.367 N 
ATOM     22  H   UNL     1       7.665  44.284  49.002  1.00  0.00     0.162 HD
BRANCH  21  23
ATOM     23  C   UNL     1       7.301  42.521  50.016  1.00  0.00     0.146 C 
BRANCH  23  24
ATOM     24  C   UNL     1       6.225  41.429  49.843  1.00  0.00     0.137 C 
ATOM     25  C   UNL     1       5.474  41.429  48.517  1.00  0.00     0.036 C 
ATOM     26  O   UNL     1       5.232  41.444  50.891  1.00  0.00    -0.376 OA
ATOM     27  C   UNL     1       4.181  40.749  48.896  1.00  0.00     0.031 C 
ATOM     28  C   UNL     1       3.941  41.301  50.283  1.00  0.00     0.160 C 
ENDBRANCH  23  24
ENDBRANCH  21  23
ENDBRANCH   3  21
TORSDOF 6
ENDMDL
MODEL 18
REMARK VINA RESULT:    -8.091      3.060      7.291
REMARK INTER + INTRA:         -11.753
REMARK INTER:                 -11.100
REMARK INTRA:                  -0.653
REMARK UNBOUND:                -0.825
REMARK SMILES COc1ccc(Nc2nc(NC[C@@H]3CCCO3)c3ccccc3n2)cc1
REMARK SMILES IDX 8 1 9 2 10 3 18 4 19 5 20 6 21 7 22 8 23 9 24 10 7 11 6 13
REMARK SMILES IDX 3 14 4 15 26 16 5 17 25 18 2 19 1 20 11 21 12 23 13 24 14 25
REMARK SMILES IDX 17 26 15 27 16 28
REMARK H PARENT 7 12 11 22
ROOT
ATOM      1  C   UNL     1       4.789  42.259  50.684  1.00  0.00     0.229 A 
ATOM      2  N   UNL     1       5.578  43.293  50.990  1.00  0.00    -0.195 NA
ATOM      3  C   UNL     1       5.160  44.178  51.902  1.00  0.00     0.139 A 
ATOM      4  C   UNL     1       3.926  44.035  52.552  1.00  0.00     0.043 A 
ATOM      5  C   UNL     1       3.395  44.938  53.511  1.00  0.00     0.014 A 
ATOM      6  C   UNL     1       2.159  44.700  54.107  1.00  0.00     0.001 A 
ATOM      7  C   UNL     1       1.440  43.568  53.752  1.00  0.00     0.002 A 
ATOM      8  C   UNL     1       1.960  42.688  52.799  1.00  0.00     0.029 A 
ATOM      9  C   UNL     1       3.189  42.905  52.188  1.00  0.00     0.078 A 
ATOM     10  N   UNL     1       3.613  42.030  51.273  1.00  0.00    -0.213 NA
ENDROOT
BRANCH   1  11
ATOM     11  N   UNL     1       5.294  41.435  49.681  1.00  0.00    -0.324 N 
ATOM     12  H   UNL     1       6.156  41.029  50.021  1.00  0.00     0.170 HD
BRANCH  11  13
ATOM     13  C   UNL     1       4.980  41.235  48.334  1.00  0.00     0.041 A 
ATOM     14  C   UNL     1       4.195  40.789  45.645  1.00  0.00     0.119 A 
ATOM     15  C   UNL     1       3.465  40.231  46.689  1.00  0.00     0.048 A 
ATOM     16  C   UNL     1       5.308  41.573  45.945  1.00  0.00     0.048 A 
ATOM     17  C   UNL     1       3.854  40.458  48.017  1.00  0.00     0.030 A 
ATOM     18  C   UNL     1       5.692  41.797  47.273  1.00  0.00     0.030 A 
BRANCH  14  19
ATOM     19  O   UNL     1       3.931  40.651  44.310  1.00  0.00    -0.497 OA
ATOM     20  C   UNL     1       3.752  39.326  43.826  1.00  0.00     0.278 C 
ENDBRANCH  14  19
ENDBRANCH  11  13
ENDBRANCH   1  11
BRANCH   3  21
ATOM     21  N   UNL     1       5.980  45.287  52.205  1.00  0.00    -0.367 N 
ATOM     22  H   UNL     1       6.440  45.087  53.091  1.00  0.00     0.162 HD
BRANCH  21  23
ATOM     23  C   UNL     1       6.963  45.690  51.185  1.00  0.00     0.146 C 
BRANCH  23  24
ATOM     24  C   UNL     1       8.100  46.597  51.699  1.00  0.00     0.137 C 
ATOM     25  C   UNL     1       9.512  46.034  51.589  1.00  0.00     0.036 C 
ATOM     26  O   UNL     1       7.917  47.011  53.070  1.00  0.00    -0.376 OA
ATOM     27  C   UNL     1      10.232  46.796  52.674  1.00  0.00     0.031 C 
ATOM     28  C   UNL     1       9.172  46.872  53.749  1.00  0.00     0.160 C 
ENDBRANCH  23  24
ENDBRANCH  21  23
ENDBRANCH   3  21
TORSDOF 6
ENDMDL
MODEL 19
REMARK VINA RESULT:    -8.086      1.681      2.301
REMARK INTER + INTRA:         -11.746
REMARK INTER:                 -10.917
REMARK INTRA:                  -0.829
REMARK UNBOUND:                -0.825
REMARK SMILES COc1ccc(Nc2nc(NC[C@@H]3CCCO3)c3ccccc3n2)cc1
REMARK SMILES IDX 8 1 9 2 10 3 18 4 19 5 20 6 21 7 22 8 23 9 24 10 7 11 6 13
REMARK SMILES IDX 3 14 4 15 26 16 5 17 25 18 2 19 1 20 11 21 12 23 13 24 14 25
REMARK SMILES IDX 17 26 15 27 16 28
REMARK H PARENT 7 12 11 22
ROOT
ATOM      1  C   UNL     1       4.707  44.773  53.113  1.00  0.00     0.229 A 
ATOM      2  N   UNL     1       4.969  44.202  51.934  1.00  0.00    -0.195 NA
ATOM      3  C   UNL     1       6.021  44.630  51.226  1.00  0.00     0.139 A 
ATOM      4  C   UNL     1       6.858  45.650  51.699  1.00  0.00     0.043 A 
ATOM      5  C   UNL     1       7.976  46.181  51.004  1.00  0.00     0.014 A 
ATOM      6  C   UNL     1       8.753  47.191  51.568  1.00  0.00     0.001 A 
ATOM      7  C   UNL     1       8.421  47.683  52.822  1.00  0.00     0.002 A 
ATOM      8  C   UNL     1       7.312  47.166  53.498  1.00  0.00     0.029 A 
ATOM      9  C   UNL     1       6.521  46.161  52.956  1.00  0.00     0.078 A 
ATOM     10  N   UNL     1       5.466  45.730  53.652  1.00  0.00    -0.213 NA
ENDROOT
BRANCH   1  11
ATOM     11  N   UNL     1       3.557  44.294  53.735  1.00  0.00    -0.324 N 
ATOM     12  H   UNL     1       3.841  43.823  54.584  1.00  0.00     0.170 HD
BRANCH  11  13
ATOM     13  C   UNL     1       2.221  44.167  53.348  1.00  0.00     0.041 A 
ATOM     14  C   UNL     1      -0.500  43.777  52.645  1.00  0.00     0.119 A 
ATOM     15  C   UNL     1       0.267  42.708  53.097  1.00  0.00     0.048 A 
ATOM     16  C   UNL     1       0.090  45.037  52.553  1.00  0.00     0.048 A 
ATOM     17  C   UNL     1       1.610  42.907  53.448  1.00  0.00     0.030 A 
ATOM     18  C   UNL     1       1.432  45.230  52.904  1.00  0.00     0.030 A 
BRANCH  14  19
ATOM     19  O   UNL     1      -1.814  43.728  52.271  1.00  0.00    -0.497 OA
ATOM     20  C   UNL     1      -2.777  44.030  53.274  1.00  0.00     0.278 C 
ENDBRANCH  14  19
ENDBRANCH  11  13
ENDBRANCH   1  11
BRANCH   3  21
ATOM     21  N   UNL     1       6.282  44.046  49.967  1.00  0.00    -0.367 N 
ATOM     22  H   UNL     1       6.792  44.733  49.417  1.00  0.00     0.162 HD
BRANCH  21  23
ATOM     23  C   UNL     1       6.980  42.749  49.964  1.00  0.00     0.146 C 
BRANCH  23  24
ATOM     24  C   UNL     1       6.092  41.532  49.634  1.00  0.00     0.137 C 
ATOM     25  C   UNL     1       5.423  41.537  48.265  1.00  0.00     0.036 C 
ATOM     26  O   UNL     1       5.051  41.312  50.611  1.00  0.00    -0.376 OA
ATOM     27  C   UNL     1       4.229  40.646  48.502  1.00  0.00     0.031 C 
ATOM     28  C   UNL     1       3.832  41.035  49.909  1.00  0.00     0.160 C 
ENDBRANCH  23  24
ENDBRANCH  21  23
ENDBRANCH   3  21
TORSDOF 6
ENDMDL
