REMARK SMILES C[NH+](C)CCCNc1nc(Nc2ccc(F)cc2)c2nccnc2n1
REMARK SMILES IDX 6 1 5 2 4 3 2 4 1 5 3 6 7 8 8 10 9 11 25 12 10 13 24 14
REMARK SMILES IDX 19 15 23 16 20 17 22 18 21 19 11 20 12 22 13 23 18 24 14 25
REMARK SMILES IDX 17 26 15 27 16 28
REMARK H PARENT 2 7 7 9 11 21
ROOT
ATOM      1  C   UNL     1       1.920  -0.322   0.066  1.00  0.00     0.122 C 
ENDROOT
BRANCH   1   2
ATOM      2  C   UNL     1       2.950   0.749   0.432  1.00  0.00     0.083 C 
BRANCH   2   3
ATOM      3  C   UNL     1       4.357   0.270   0.101  1.00  0.00     0.263 C 
BRANCH   3   4
ATOM      4  N   UNL     1       5.398   1.250   0.612  1.00  0.00    -0.340 N 
ATOM      5  C   UNL     1       5.425   2.554  -0.140  1.00  0.00     0.332 C 
ATOM      6  C   UNL     1       6.769   0.622   0.647  1.00  0.00     0.332 C 
ATOM      7  H   UNL     1       5.160   1.470   1.590  1.00  0.00     0.347 HD
ENDBRANCH   3   4
ENDBRANCH   2   3
ENDBRANCH   1   2
BRANCH   1   8
ATOM      8  N   UNL     1       0.613   0.118   0.506  1.00  0.00    -0.354 N 
ATOM      9  H   UNL     1       0.248   0.977   0.102  1.00  0.00     0.163 HD
BRANCH   8  10
ATOM     10  C   UNL     1      -0.403  -0.817   0.343  1.00  0.00     0.226 A 
ATOM     11  N   UNL     1      -1.610  -0.311   0.117  1.00  0.00    -0.193 NA
ATOM     12  N   UNL     1      -0.139  -2.118   0.406  1.00  0.00    -0.191 NA
ATOM     13  C   UNL     1      -2.635  -1.174  -0.035  1.00  0.00     0.164 A 
ATOM     14  C   UNL     1      -1.149  -2.965   0.255  1.00  0.00     0.185 A 
ATOM     15  C   UNL     1      -2.468  -2.556   0.024  1.00  0.00     0.150 A 
ATOM     16  N   UNL     1      -0.864  -4.271   0.317  1.00  0.00    -0.233 NA
ATOM     17  N   UNL     1      -3.498  -3.440  -0.152  1.00  0.00    -0.247 NA
ATOM     18  C   UNL     1      -1.881  -5.151   0.160  1.00  0.00     0.133 A 
ATOM     19  C   UNL     1      -3.176  -4.745  -0.071  1.00  0.00     0.132 A 
BRANCH  13  20
ATOM     20  N   UNL     1      -3.958  -0.695  -0.240  1.00  0.00    -0.338 N 
ATOM     21  H   UNL     1      -4.541  -1.426  -0.645  1.00  0.00     0.168 HD
BRANCH  20  22
ATOM     22  C   UNL     1      -4.494   0.600  -0.297  1.00  0.00     0.040 A 
ATOM     23  C   UNL     1      -5.759   0.780  -0.884  1.00  0.00     0.029 A 
ATOM     24  C   UNL     1      -3.849   1.727   0.229  1.00  0.00     0.029 A 
ATOM     25  C   UNL     1      -6.348   2.046  -0.964  1.00  0.00     0.041 A 
ATOM     26  C   UNL     1      -4.434   2.995   0.154  1.00  0.00     0.041 A 
ATOM     27  C   UNL     1      -5.677   3.143  -0.446  1.00  0.00     0.123 A 
ATOM     28  F   UNL     1      -6.236   4.357  -0.519  1.00  0.00    -0.207 F 
ENDBRANCH  20  22
ENDBRANCH  13  20
ENDBRANCH   8  10
ENDBRANCH   1   8
TORSDOF 7
