_i0
     RDKit          3D

 46 48  0  0  0  0  0  0  0  0999 V2000
    5.4250    2.5535   -0.1404 C   0  0  0  0  0  0  0  0  0  0  0  0
    5.3982    1.2498    0.6121 N   0  0  0  0  0  4  0  0  0  0  0  0
    6.7686    0.6219    0.6471 C   0  0  0  0  0  0  0  0  0  0  0  0
    4.3575    0.2701    0.1009 C   0  0  0  0  0  0  0  0  0  0  0  0
    2.9496    0.7491    0.4321 C   0  0  0  0  0  0  0  0  0  0  0  0
    1.9196   -0.3215    0.0655 C   0  0  0  0  0  0  0  0  0  0  0  0
    0.6126    0.1182    0.5060 N   0  0  0  0  0  0  0  0  0  0  0  0
   -0.4033   -0.8173    0.3431 C   0  0  0  0  0  0  0  0  0  0  0  0
   -1.6103   -0.3115    0.1172 N   0  0  0  0  0  0  0  0  0  0  0  0
   -0.1385   -2.1177    0.4063 N   0  0  0  0  0  0  0  0  0  0  0  0
   -2.6348   -1.1743   -0.0355 C   0  0  0  0  0  0  0  0  0  0  0  0
   -1.1489   -2.9652    0.2546 C   0  0  0  0  0  0  0  0  0  0  0  0
   -3.9581   -0.6954   -0.2405 N   0  0  0  0  0  0  0  0  0  0  0  0
   -2.4680   -2.5556    0.0235 C   0  0  0  0  0  0  0  0  0  0  0  0
   -0.8640   -4.2712    0.3167 N   0  0  0  0  0  0  0  0  0  0  0  0
   -4.4938    0.6001   -0.2968 C   0  0  0  0  0  0  0  0  0  0  0  0
   -3.4980   -3.4403   -0.1521 N   0  0  0  0  0  0  0  0  0  0  0  0
   -1.8810   -5.1507    0.1596 C   0  0  0  0  0  0  0  0  0  0  0  0
   -5.7591    0.7802   -0.8842 C   0  0  0  0  0  0  0  0  0  0  0  0
   -3.8491    1.7269    0.2293 C   0  0  0  0  0  0  0  0  0  0  0  0
   -3.1761   -4.7452   -0.0712 C   0  0  0  0  0  0  0  0  0  0  0  0
   -6.3477    2.0456   -0.9638 C   0  0  0  0  0  0  0  0  0  0  0  0
   -4.4344    2.9952    0.1538 C   0  0  0  0  0  0  0  0  0  0  0  0
   -5.6767    3.1429   -0.4456 C   0  0  0  0  0  0  0  0  0  0  0  0
   -6.2355    4.3574   -0.5188 F   0  0  0  0  0  0  0  0  0  0  0  0
    4.4622    3.0510   -0.0093 H   0  0  0  0  0  0  0  0  0  0  0  0
    6.2145    3.1771    0.2879 H   0  0  0  0  0  0  0  0  0  0  0  0
    5.6227    2.3437   -1.1948 H   0  0  0  0  0  0  0  0  0  0  0  0
    5.1602    1.4701    1.5896 H   0  0  0  0  0  0  0  0  0  0  0  0
    7.4639    1.3462    1.0796 H   0  0  0  0  0  0  0  0  0  0  0  0
    6.7193   -0.2664    1.2823 H   0  0  0  0  0  0  0  0  0  0  0  0
    7.0569    0.3604   -0.3745 H   0  0  0  0  0  0  0  0  0  0  0  0
    4.5126    0.1515   -0.9771 H   0  0  0  0  0  0  0  0  0  0  0  0
    4.5554   -0.6858    0.5986 H   0  0  0  0  0  0  0  0  0  0  0  0
    2.7141    1.6727   -0.1087 H   0  0  0  0  0  0  0  0  0  0  0  0
    2.8758    0.9795    1.5026 H   0  0  0  0  0  0  0  0  0  0  0  0
    1.9247   -0.4896   -1.0185 H   0  0  0  0  0  0  0  0  0  0  0  0
    2.2046   -1.2584    0.5604 H   0  0  0  0  0  0  0  0  0  0  0  0
    0.2477    0.9770    0.1015 H   0  0  0  0  0  0  0  0  0  0  0  0
   -4.5412   -1.4258   -0.6449 H   0  0  0  0  0  0  0  0  0  0  0  0
   -1.6161   -6.2005    0.2252 H   0  0  0  0  0  0  0  0  0  0  0  0
   -6.3019   -0.0696   -1.2919 H   0  0  0  0  0  0  0  0  0  0  0  0
   -2.8895    1.6363    0.7277 H   0  0  0  0  0  0  0  0  0  0  0  0
   -3.9864   -5.4546   -0.1973 H   0  0  0  0  0  0  0  0  0  0  0  0
   -7.3224    2.1773   -1.4225 H   0  0  0  0  0  0  0  0  0  0  0  0
   -3.9310    3.8627    0.5671 H   0  0  0  0  0  0  0  0  0  0  0  0
  1  2  1  0
  2  3  1  0
  2  4  1  0
  4  5  1  0
  5  6  1  0
  6  7  1  0
  7  8  1  0
  8  9  2  0
 10  8  1  0
  9 11  1  0
 12 10  2  0
 11 13  1  0
 11 14  2  0
 15 12  1  0
 12 14  1  0
 13 16  1  0
 14 17  1  0
 18 15  2  0
 16 19  2  0
 20 16  1  0
 17 21  2  0
 21 18  1  0
 19 22  1  0
 23 20  2  0
 22 24  2  0
 24 23  1  0
 24 25  1  0
  1 26  1  0
  1 27  1  0
  1 28  1  0
  2 29  1  0
  3 30  1  0
  3 31  1  0
  3 32  1  0
  4 33  1  0
  4 34  1  0
  5 35  1  0
  5 36  1  0
  6 37  1  0
  6 38  1  0
  7 39  1  0
 13 40  1  0
 18 41  1  0
 19 42  1  0
 20 43  1  0
 21 44  1  0
 22 45  1  0
 23 46  1  0
M  CHG  1   2   1
M  END
>  <ScrubInfo>  (1) 
{"isomerGroup": 0, "isomerId": 0, "confId": 0, "nr_conformers:": 1, "nr_isomers:": 9}

$$$$
_i1
     RDKit          3D

 46 48  0  0  0  0  0  0  0  0999 V2000
    1.0997    0.0677    0.2292 N   0  0  0  0  0  0  0  0  0  0  0  0
    2.0676    0.6706   -0.5396 C   0  0  0  0  0  0  0  0  0  0  0  0
    3.1748   -0.0259   -1.0079 N   0  0  0  0  0  0  0  0  0  0  0  0
    3.9399   -0.9993   -0.3334 C   0  0  0  0  0  0  0  0  0  0  0  0
    4.8077   -1.7997   -1.0951 C   0  0  0  0  0  0  0  0  0  0  0  0
    5.5740   -2.8026   -0.4962 C   0  0  0  0  0  0  0  0  0  0  0  0
    5.4763   -3.0095    0.8722 C   0  0  0  0  0  0  0  0  0  0  0  0
    6.2078   -3.9702    1.4503 F   0  0  0  0  0  0  0  0  0  0  0  0
    4.6303   -2.2309    1.6501 C   0  0  0  0  0  0  0  0  0  0  0  0
    3.8628   -1.2292    1.0478 C   0  0  0  0  0  0  0  0  0  0  0  0
    1.8928    1.9691   -0.8890 C   0  0  0  0  0  0  0  0  0  0  0  0
    2.7884    2.6608   -1.6775 N   0  0  0  0  0  0  0  0  0  0  0  0
    2.4804    3.8959   -1.8983 C   0  0  0  0  0  0  0  0  0  0  0  0
    1.2384    4.5299   -1.3642 C   0  0  0  0  0  0  0  0  0  0  0  0
    0.3810    3.8957   -0.6383 N   0  0  0  0  0  0  0  0  0  0  0  0
    0.6317    2.5818   -0.3226 C   0  0  0  0  0  0  0  0  0  0  0  0
   -0.2480    2.0007    0.4243 N   0  0  0  0  0  0  0  0  0  0  0  0
    0.0044    0.6943    0.7336 C   0  0  0  0  0  0  0  0  0  0  0  0
   -0.8147    0.0348    1.4865 N   0  0  0  0  0  0  0  0  0  0  0  0
   -1.9366    0.7536    2.0909 C   0  0  0  0  0  0  0  0  0  0  0  0
   -3.1536    0.7052    1.1724 C   0  0  0  0  0  0  0  0  0  0  0  0
   -3.5574   -0.7345    0.8791 C   0  0  0  0  0  0  0  0  0  0  0  0
   -4.8544   -0.7798    0.0867 N   0  0  0  0  0  4  0  0  0  0  0  0
   -4.6972   -0.3004   -1.3308 C   0  0  0  0  0  0  0  0  0  0  0  0
   -5.4642   -2.1548    0.1279 C   0  0  0  0  0  0  0  0  0  0  0  0
    1.2389   -0.9072    0.4512 H   0  0  0  0  0  0  0  0  0  0  0  0
    3.7519    0.5550   -1.6220 H   0  0  0  0  0  0  0  0  0  0  0  0
    4.8833   -1.6528   -2.1704 H   0  0  0  0  0  0  0  0  0  0  0  0
    6.2417   -3.4207   -1.0879 H   0  0  0  0  0  0  0  0  0  0  0  0
    4.5802   -2.4005    2.7212 H   0  0  0  0  0  0  0  0  0  0  0  0
    3.2380   -0.6109    1.6861 H   0  0  0  0  0  0  0  0  0  0  0  0
    3.1217    4.5535   -2.5054 H   0  0  0  0  0  0  0  0  0  0  0  0
    1.0947    5.5862   -1.6386 H   0  0  0  0  0  0  0  0  0  0  0  0
   -1.6895    1.7897    2.3517 H   0  0  0  0  0  0  0  0  0  0  0  0
   -2.1760    0.2634    3.0422 H   0  0  0  0  0  0  0  0  0  0  0  0
   -2.9274    1.2362    0.2421 H   0  0  0  0  0  0  0  0  0  0  0  0
   -3.9824    1.2370    1.6546 H   0  0  0  0  0  0  0  0  0  0  0  0
   -3.7429   -1.2691    1.8176 H   0  0  0  0  0  0  0  0  0  0  0  0
   -2.8043   -1.2788    0.2993 H   0  0  0  0  0  0  0  0  0  0  0  0
   -5.5188   -0.1479    0.5519 H   0  0  0  0  0  0  0  0  0  0  0  0
   -4.4073    0.7519   -1.3145 H   0  0  0  0  0  0  0  0  0  0  0  0
   -5.6646   -0.3983   -1.8311 H   0  0  0  0  0  0  0  0  0  0  0  0
   -3.9399   -0.9134   -1.8263 H   0  0  0  0  0  0  0  0  0  0  0  0
   -5.6380   -2.4192    1.1743 H   0  0  0  0  0  0  0  0  0  0  0  0
   -4.7734   -2.8572   -0.3462 H   0  0  0  0  0  0  0  0  0  0  0  0
   -6.4176   -2.1204   -0.4061 H   0  0  0  0  0  0  0  0  0  0  0  0
  1  2  1  0
  2  3  1  0
  3  4  1  0
  4  5  2  0
  5  6  1  0
  6  7  2  0
  7  8  1  0
  7  9  1  0
  9 10  2  0
  2 11  2  0
 11 12  1  0
 12 13  2  0
 13 14  1  0
 14 15  2  0
 15 16  1  0
 16 17  2  0
 17 18  1  0
 18 19  2  3
 19 20  1  0
 20 21  1  0
 21 22  1  0
 22 23  1  0
 23 24  1  0
 23 25  1  0
 18  1  1  0
 10  4  1  0
 16 11  1  0
  1 26  1  0
  3 27  1  0
  5 28  1  0
  6 29  1  0
  9 30  1  0
 10 31  1  0
 13 32  1  0
 14 33  1  0
 20 34  1  0
 20 35  1  0
 21 36  1  0
 21 37  1  0
 22 38  1  0
 22 39  1  0
 23 40  1  0
 24 41  1  0
 24 42  1  0
 24 43  1  0
 25 44  1  0
 25 45  1  0
 25 46  1  0
M  CHG  1  23   1
M  END
>  <ScrubInfo>  (2) 
{"isomerGroup": 0, "isomerId": 1, "confId": 0, "nr_conformers:": 1, "nr_isomers:": 9}

$$$$
_i2
     RDKit          3D

 46 48  0  0  0  0  0  0  0  0999 V2000
    0.9471    1.6514   -0.2250 N   0  0  0  0  0  0  0  0  0  0  0  0
   -0.3812    1.4803   -0.4534 C   0  0  0  0  0  0  0  0  0  0  0  0
   -0.9787    2.4919   -1.1512 N   0  0  0  0  0  0  0  0  0  0  0  0
   -2.4226    2.6807   -1.1338 C   0  0  0  0  0  0  0  0  0  0  0  0
   -3.1001    2.0845   -2.3651 C   0  0  0  0  0  0  0  0  0  0  0  0
   -2.8983    0.5918   -2.6270 C   0  0  0  0  0  0  0  0  0  0  0  0
   -3.2572   -0.3062   -1.4732 N   0  0  0  0  0  4  0  0  0  0  0  0
   -2.9281   -1.7441   -1.7768 C   0  0  0  0  0  0  0  0  0  0  0  0
   -4.6506   -0.1719   -0.9519 C   0  0  0  0  0  0  0  0  0  0  0  0
   -1.0377    0.4244   -0.0656 N   0  0  0  0  0  0  0  0  0  0  0  0
   -0.2870   -0.5446    0.6404 C   0  0  0  0  0  0  0  0  0  0  0  0
   -1.0242   -1.6311    0.9789 N   0  0  0  0  0  0  0  0  0  0  0  0
   -0.3492   -2.5860    1.6704 C   0  0  0  0  0  0  0  0  0  0  0  0
    0.9986   -2.4786    1.9880 C   0  0  0  0  0  0  0  0  0  0  0  0
    1.7445   -1.4108    1.6288 N   0  0  0  0  0  0  0  0  0  0  0  0
    1.0785   -0.4455    0.9544 C   0  0  0  0  0  0  0  0  0  0  0  0
    1.7707    0.7857    0.4604 C   0  0  0  0  0  0  0  0  0  0  0  0
    3.0227    1.1410    0.5813 N   0  0  0  0  0  0  0  0  0  0  0  0
    3.9510    0.3442    1.2580 C   0  0  0  0  0  0  0  0  0  0  0  0
    4.7268   -0.5840    0.5541 C   0  0  0  0  0  0  0  0  0  0  0  0
    5.6792   -1.3564    1.2214 C   0  0  0  0  0  0  0  0  0  0  0  0
    5.8626   -1.1837    2.5885 C   0  0  0  0  0  0  0  0  0  0  0  0
    6.7734   -1.9267    3.2301 F   0  0  0  0  0  0  0  0  0  0  0  0
    5.1206   -0.2468    3.2984 C   0  0  0  0  0  0  0  0  0  0  0  0
    4.1690    0.5245    2.6288 C   0  0  0  0  0  0  0  0  0  0  0  0
    1.4294    2.4638   -0.5850 H   0  0  0  0  0  0  0  0  0  0  0  0
   -0.4735    3.3753   -1.1452 H   0  0  0  0  0  0  0  0  0  0  0  0
   -2.6237    3.7589   -1.1227 H   0  0  0  0  0  0  0  0  0  0  0  0
   -2.8625    2.2884   -0.2100 H   0  0  0  0  0  0  0  0  0  0  0  0
   -4.1742    2.2994   -2.3072 H   0  0  0  0  0  0  0  0  0  0  0  0
   -2.7399    2.6224   -3.2521 H   0  0  0  0  0  0  0  0  0  0  0  0
   -3.5134    0.2778   -3.4785 H   0  0  0  0  0  0  0  0  0  0  0  0
   -1.8502    0.3907   -2.8757 H   0  0  0  0  0  0  0  0  0  0  0  0
   -2.5953   -0.0656   -0.7022 H   0  0  0  0  0  0  0  0  0  0  0  0
   -3.1121   -2.3368   -0.8769 H   0  0  0  0  0  0  0  0  0  0  0  0
   -1.8723   -1.8049   -2.0541 H   0  0  0  0  0  0  0  0  0  0  0  0
   -3.5666   -2.0786   -2.5991 H   0  0  0  0  0  0  0  0  0  0  0  0
   -4.7921    0.8449   -0.5807 H   0  0  0  0  0  0  0  0  0  0  0  0
   -5.3489   -0.3930   -1.7634 H   0  0  0  0  0  0  0  0  0  0  0  0
   -4.7790   -0.8762   -0.1252 H   0  0  0  0  0  0  0  0  0  0  0  0
   -0.9253   -3.4556    1.9710 H   0  0  0  0  0  0  0  0  0  0  0  0
    1.5169   -3.2556    2.5416 H   0  0  0  0  0  0  0  0  0  0  0  0
    4.5872   -0.7038   -0.5158 H   0  0  0  0  0  0  0  0  0  0  0  0
    6.2804   -2.0833    0.6854 H   0  0  0  0  0  0  0  0  0  0  0  0
    5.2908   -0.1193    4.3623 H   0  0  0  0  0  0  0  0  0  0  0  0
    3.5945    1.2670    3.1744 H   0  0  0  0  0  0  0  0  0  0  0  0
  1  2  1  0
  2  3  1  0
  3  4  1  0
  4  5  1  0
  5  6  1  0
  6  7  1  0
  7  8  1  0
  7  9  1  0
  2 10  2  0
 10 11  1  0
 11 12  2  0
 12 13  1  0
 13 14  2  0
 14 15  1  0
 15 16  2  0
 16 17  1  0
 17 18  2  3
 18 19  1  0
 19 20  2  0
 20 21  1  0
 21 22  2  0
 22 23  1  0
 22 24  1  0
 24 25  2  0
 17  1  1  0
 25 19  1  0
 16 11  1  0
  1 26  1  0
  3 27  1  0
  4 28  1  0
  4 29  1  0
  5 30  1  0
  5 31  1  0
  6 32  1  0
  6 33  1  0
  7 34  1  0
  8 35  1  0
  8 36  1  0
  8 37  1  0
  9 38  1  0
  9 39  1  0
  9 40  1  0
 13 41  1  0
 14 42  1  0
 20 43  1  0
 21 44  1  0
 24 45  1  0
 25 46  1  0
M  CHG  1   7   1
M  END
>  <ScrubInfo>  (3) 
{"isomerGroup": 0, "isomerId": 2, "confId": 0, "nr_conformers:": 1, "nr_isomers:": 9}

$$$$
_i3
     RDKit          3D

 46 48  0  0  0  0  0  0  0  0999 V2000
   -0.4210   -2.8294    0.1067 N   0  0  0  0  0  0  0  0  0  0  0  0
   -0.1147   -1.5043    0.1516 C   0  0  0  0  0  0  0  0  0  0  0  0
    1.0600   -0.9889    0.0578 N   0  0  0  0  0  0  0  0  0  0  0  0
    2.2195   -1.8425   -0.1189 C   0  0  0  0  0  0  0  0  0  0  0  0
    3.4588   -0.9523   -0.0080 C   0  0  0  0  0  0  0  0  0  0  0  0
    3.4064    0.1928   -1.0183 C   0  0  0  0  0  0  0  0  0  0  0  0
    4.6637    1.0443   -0.9375 N   0  0  0  0  0  4  0  0  0  0  0  0
    4.7056    1.9056    0.2975 C   0  0  0  0  0  0  0  0  0  0  0  0
    4.8259    1.8822   -2.1778 C   0  0  0  0  0  0  0  0  0  0  0  0
   -1.0851   -0.5454    0.3004 N   0  0  0  0  0  0  0  0  0  0  0  0
   -2.3398   -0.8824    0.4154 C   0  0  0  0  0  0  0  0  0  0  0  0
   -3.3878    0.0099    0.5638 N   0  0  0  0  0  0  0  0  0  0  0  0
   -3.3892    1.4045    0.7320 C   0  0  0  0  0  0  0  0  0  0  0  0
   -4.6294    2.0716    0.7346 C   0  0  0  0  0  0  0  0  0  0  0  0
   -4.7089    3.4606    0.8727 C   0  0  0  0  0  0  0  0  0  0  0  0
   -3.5432    4.1988    1.0045 C   0  0  0  0  0  0  0  0  0  0  0  0
   -3.6110    5.5295    1.1359 F   0  0  0  0  0  0  0  0  0  0  0  0
   -2.3056    3.5732    0.9987 C   0  0  0  0  0  0  0  0  0  0  0  0
   -2.2317    2.1827    0.8585 C   0  0  0  0  0  0  0  0  0  0  0  0
   -2.7489   -2.3199    0.3806 C   0  0  0  0  0  0  0  0  0  0  0  0
   -4.0710   -2.6203    0.5014 N   0  0  0  0  0  0  0  0  0  0  0  0
   -4.3316   -3.9470    0.4593 C   0  0  0  0  0  0  0  0  0  0  0  0
   -3.3306   -4.8994    0.3043 C   0  0  0  0  0  0  0  0  0  0  0  0
   -2.0157   -4.5758    0.1827 N   0  0  0  0  0  0  0  0  0  0  0  0
   -1.7335   -3.2552    0.2243 C   0  0  0  0  0  0  0  0  0  0  0  0
    0.2652   -3.5556    0.0051 H   0  0  0  0  0  0  0  0  0  0  0  0
    2.1965   -2.3271   -1.1018 H   0  0  0  0  0  0  0  0  0  0  0  0
    2.2706   -2.6170    0.6550 H   0  0  0  0  0  0  0  0  0  0  0  0
    4.3560   -1.5608   -0.1703 H   0  0  0  0  0  0  0  0  0  0  0  0
    3.5139   -0.5579    1.0126 H   0  0  0  0  0  0  0  0  0  0  0  0
    2.5553    0.8652   -0.8675 H   0  0  0  0  0  0  0  0  0  0  0  0
    3.3630   -0.2151   -2.0345 H   0  0  0  0  0  0  0  0  0  0  0  0
    5.4706    0.4093   -0.8997 H   0  0  0  0  0  0  0  0  0  0  0  0
    4.7304    1.2576    1.1754 H   0  0  0  0  0  0  0  0  0  0  0  0
    3.8236    2.5514    0.3056 H   0  0  0  0  0  0  0  0  0  0  0  0
    5.6225    2.5005    0.2638 H   0  0  0  0  0  0  0  0  0  0  0  0
    4.8751    1.2097   -3.0383 H   0  0  0  0  0  0  0  0  0  0  0  0
    5.7630    2.4388   -2.0920 H   0  0  0  0  0  0  0  0  0  0  0  0
    3.9717    2.5601   -2.2559 H   0  0  0  0  0  0  0  0  0  0  0  0
   -4.3062   -0.4269    0.6273 H   0  0  0  0  0  0  0  0  0  0  0  0
   -5.5554    1.5111    0.6253 H   0  0  0  0  0  0  0  0  0  0  0  0
   -5.6699    3.9650    0.8756 H   0  0  0  0  0  0  0  0  0  0  0  0
   -1.4039    4.1668    1.1040 H   0  0  0  0  0  0  0  0  0  0  0  0
   -1.2473    1.7264    0.8627 H   0  0  0  0  0  0  0  0  0  0  0  0
   -5.3739   -4.2349    0.5539 H   0  0  0  0  0  0  0  0  0  0  0  0
   -3.5623   -5.9596    0.2733 H   0  0  0  0  0  0  0  0  0  0  0  0
  1  2  1  0
  2  3  2  3
  3  4  1  0
  4  5  1  0
  5  6  1  0
  6  7  1  0
  7  8  1  0
  7  9  1  0
  2 10  1  0
 10 11  2  0
 11 12  1  0
 12 13  1  0
 13 14  2  0
 14 15  1  0
 15 16  2  0
 16 17  1  0
 16 18  1  0
 18 19  2  0
 11 20  1  0
 20 21  2  0
 21 22  1  0
 22 23  2  0
 23 24  1  0
 24 25  2  0
 25  1  1  0
 19 13  1  0
 25 20  1  0
  1 26  1  0
  4 27  1  0
  4 28  1  0
  5 29  1  0
  5 30  1  0
  6 31  1  0
  6 32  1  0
  7 33  1  0
  8 34  1  0
  8 35  1  0
  8 36  1  0
  9 37  1  0
  9 38  1  0
  9 39  1  0
 12 40  1  0
 14 41  1  0
 15 42  1  0
 18 43  1  0
 19 44  1  0
 22 45  1  0
 23 46  1  0
M  CHG  1   7   1
M  END
>  <ScrubInfo>  (4) 
{"isomerGroup": 0, "isomerId": 3, "confId": 0, "nr_conformers:": 1, "nr_isomers:": 9}

$$$$
_i4
     RDKit          3D

 46 48  0  0  0  0  0  0  0  0999 V2000
   -0.5917   -2.3397    0.1346 N   0  0  0  0  0  0  0  0  0  0  0  0
   -0.6225   -0.9920    0.2195 C   0  0  0  0  0  0  0  0  0  0  0  0
    0.5550   -0.3447    0.4599 N   0  0  0  0  0  0  0  0  0  0  0  0
    1.5686   -0.8163    1.3830 C   0  0  0  0  0  0  0  0  0  0  0  0
    2.7872    0.1095    1.3214 C   0  0  0  0  0  0  0  0  0  0  0  0
    3.4572    0.0627   -0.0515 C   0  0  0  0  0  0  0  0  0  0  0  0
    4.5773    1.0849   -0.1478 N   0  0  0  0  0  4  0  0  0  0  0  0
    4.9739    1.3187   -1.5854 C   0  0  0  0  0  0  0  0  0  0  0  0
    5.7815    0.7519    0.6907 C   0  0  0  0  0  0  0  0  0  0  0  0
   -1.6755   -0.2498    0.0790 N   0  0  0  0  0  0  0  0  0  0  0  0
   -2.8981   -0.8616   -0.1662 C   0  0  0  0  0  0  0  0  0  0  0  0
   -3.9798   -0.1479   -0.2764 N   0  0  0  0  0  0  0  0  0  0  0  0
   -3.9009    1.2436   -0.1446 C   0  0  0  0  0  0  0  0  0  0  0  0
   -4.0564    1.8448    1.1097 C   0  0  0  0  0  0  0  0  0  0  0  0
   -3.9951    3.2333    1.2391 C   0  0  0  0  0  0  0  0  0  0  0  0
   -3.7914    4.0155    0.1080 C   0  0  0  0  0  0  0  0  0  0  0  0
   -3.7220    5.3474    0.2314 F   0  0  0  0  0  0  0  0  0  0  0  0
   -3.6585    3.4375   -1.1495 C   0  0  0  0  0  0  0  0  0  0  0  0
   -3.7199    2.0487   -1.2748 C   0  0  0  0  0  0  0  0  0  0  0  0
   -2.9618   -2.3464   -0.3062 C   0  0  0  0  0  0  0  0  0  0  0  0
   -4.1440   -2.9588   -0.5818 N   0  0  0  0  0  0  0  0  0  0  0  0
   -4.0708   -4.3013   -0.7021 C   0  0  0  0  0  0  0  0  0  0  0  0
   -2.8775   -4.9949   -0.5585 C   0  0  0  0  0  0  0  0  0  0  0  0
   -1.6971   -4.3808   -0.2851 N   0  0  0  0  0  0  0  0  0  0  0  0
   -1.7589   -3.0342   -0.1573 C   0  0  0  0  0  0  0  0  0  0  0  0
    0.2391   -2.9030    0.1603 H   0  0  0  0  0  0  0  0  0  0  0  0
    0.3039    0.6349    0.6121 H   0  0  0  0  0  0  0  0  0  0  0  0
    1.8783   -1.8386    1.1402 H   0  0  0  0  0  0  0  0  0  0  0  0
    1.1628   -0.8194    2.4008 H   0  0  0  0  0  0  0  0  0  0  0  0
    3.4933   -0.2049    2.0975 H   0  0  0  0  0  0  0  0  0  0  0  0
    2.4840    1.1377    1.5553 H   0  0  0  0  0  0  0  0  0  0  0  0
    2.7400    0.3178   -0.8386 H   0  0  0  0  0  0  0  0  0  0  0  0
    3.8876   -0.9216   -0.2665 H   0  0  0  0  0  0  0  0  0  0  0  0
    4.2075    1.9841    0.1906 H   0  0  0  0  0  0  0  0  0  0  0  0
    5.7364    2.1019   -1.6045 H   0  0  0  0  0  0  0  0  0  0  0  0
    4.0884    1.6530   -2.1322 H   0  0  0  0  0  0  0  0  0  0  0  0
    5.3607    0.3819   -1.9953 H   0  0  0  0  0  0  0  0  0  0  0  0
    6.1645   -0.2235    0.3797 H   0  0  0  0  0  0  0  0  0  0  0  0
    6.5308    1.5330    0.5357 H   0  0  0  0  0  0  0  0  0  0  0  0
    5.4822    0.7429    1.7406 H   0  0  0  0  0  0  0  0  0  0  0  0
   -4.2297    1.2226    1.9830 H   0  0  0  0  0  0  0  0  0  0  0  0
   -4.1146    3.7056    2.2083 H   0  0  0  0  0  0  0  0  0  0  0  0
   -3.5190    4.0674   -2.0214 H   0  0  0  0  0  0  0  0  0  0  0  0
   -3.6322    1.5845   -2.2528 H   0  0  0  0  0  0  0  0  0  0  0  0
   -5.0032   -4.8117   -0.9199 H   0  0  0  0  0  0  0  0  0  0  0  0
   -2.8397   -6.0747   -0.6600 H   0  0  0  0  0  0  0  0  0  0  0  0
  1  2  1  0
  2  3  1  0
  3  4  1  0
  4  5  1  0
  5  6  1  0
  6  7  1  0
  7  8  1  0
  7  9  1  0
  2 10  2  0
 10 11  1  0
 11 12  2  3
 12 13  1  0
 13 14  2  0
 14 15  1  0
 15 16  2  0
 16 17  1  0
 16 18  1  0
 18 19  2  0
 11 20  1  0
 20 21  2  0
 21 22  1  0
 22 23  2  0
 23 24  1  0
 24 25  2  0
 25  1  1  0
 19 13  1  0
 25 20  1  0
  1 26  1  0
  3 27  1  0
  4 28  1  0
  4 29  1  0
  5 30  1  0
  5 31  1  0
  6 32  1  0
  6 33  1  0
  7 34  1  0
  8 35  1  0
  8 36  1  0
  8 37  1  0
  9 38  1  0
  9 39  1  0
  9 40  1  0
 14 41  1  0
 15 42  1  0
 18 43  1  0
 19 44  1  0
 22 45  1  0
 23 46  1  0
M  CHG  1   7   1
M  END
>  <ScrubInfo>  (5) 
{"isomerGroup": 0, "isomerId": 4, "confId": 0, "nr_conformers:": 1, "nr_isomers:": 9}

$$$$
_i5
     RDKit          3D

 46 48  0  0  0  0  0  0  0  0999 V2000
   -0.5513   -4.6031   -0.9611 N   0  0  0  0  0  0  0  0  0  0  0  0
   -1.6985   -5.3051   -1.2175 C   0  0  0  0  0  0  0  0  0  0  0  0
   -2.8911   -4.6882   -1.2678 C   0  0  0  0  0  0  0  0  0  0  0  0
   -3.0643   -3.3303   -1.0716 N   0  0  0  0  0  0  0  0  0  0  0  0
   -1.9813   -2.6339   -0.8310 C   0  0  0  0  0  0  0  0  0  0  0  0
   -2.0965   -1.1479   -0.6055 C   0  0  0  0  0  0  0  0  0  0  0  0
   -3.3793   -0.6453   -0.6588 N   0  0  0  0  0  0  0  0  0  0  0  0
   -3.8481    0.6745   -0.5764 C   0  0  0  0  0  0  0  0  0  0  0  0
   -5.2396    0.8851   -0.5384 C   0  0  0  0  0  0  0  0  0  0  0  0
   -5.7782    2.1708   -0.4321 C   0  0  0  0  0  0  0  0  0  0  0  0
   -4.9262    3.2615   -0.3574 C   0  0  0  0  0  0  0  0  0  0  0  0
   -5.4345    4.4956   -0.2544 F   0  0  0  0  0  0  0  0  0  0  0  0
   -3.5505    3.0872   -0.3860 C   0  0  0  0  0  0  0  0  0  0  0  0
   -3.0164    1.7980   -0.4910 C   0  0  0  0  0  0  0  0  0  0  0  0
   -1.0029   -0.4955   -0.3755 N   0  0  0  0  0  0  0  0  0  0  0  0
    0.1959   -1.1538   -0.3524 C   0  0  0  0  0  0  0  0  0  0  0  0
    1.2764   -0.4857   -0.1398 N   0  0  0  0  0  0  0  0  0  0  0  0
    1.1616    0.9551    0.0486 C   0  0  0  0  0  0  0  0  0  0  0  0
    2.5749    1.5206    0.1847 C   0  0  0  0  0  0  0  0  0  0  0  0
    3.3031    0.8924    1.3690 C   0  0  0  0  0  0  0  0  0  0  0  0
    4.6722    1.5267    1.5583 N   0  0  0  0  0  4  0  0  0  0  0  0
    5.6574    1.1215    0.4947 C   0  0  0  0  0  0  0  0  0  0  0  0
    5.2154    1.2374    2.9317 C   0  0  0  0  0  0  0  0  0  0  0  0
    0.4138   -2.4925   -0.5217 N   0  0  0  0  0  0  0  0  0  0  0  0
   -0.6038   -3.2477   -0.7602 C   0  0  0  0  0  0  0  0  0  0  0  0
    0.3401   -5.0820   -0.9441 H   0  0  0  0  0  0  0  0  0  0  0  0
   -1.5810   -6.3725   -1.3755 H   0  0  0  0  0  0  0  0  0  0  0  0
   -3.7938   -5.2599   -1.4733 H   0  0  0  0  0  0  0  0  0  0  0  0
   -4.0950   -1.3469   -0.8470 H   0  0  0  0  0  0  0  0  0  0  0  0
   -5.9263    0.0425   -0.5893 H   0  0  0  0  0  0  0  0  0  0  0  0
   -6.8526    2.3235   -0.4057 H   0  0  0  0  0  0  0  0  0  0  0  0
   -2.9002    3.9539   -0.3280 H   0  0  0  0  0  0  0  0  0  0  0  0
   -1.9371    1.7008   -0.5168 H   0  0  0  0  0  0  0  0  0  0  0  0
    0.6801    1.4307   -0.8142 H   0  0  0  0  0  0  0  0  0  0  0  0
    0.5842    1.1885    0.9513 H   0  0  0  0  0  0  0  0  0  0  0  0
    3.1210    1.3306   -0.7458 H   0  0  0  0  0  0  0  0  0  0  0  0
    2.5150    2.6080    0.3115 H   0  0  0  0  0  0  0  0  0  0  0  0
    2.7388    1.0760    2.2904 H   0  0  0  0  0  0  0  0  0  0  0  0
    3.4602   -0.1854    1.2553 H   0  0  0  0  0  0  0  0  0  0  0  0
    4.5528    2.5457    1.4958 H   0  0  0  0  0  0  0  0  0  0  0  0
    5.7543    0.0327    0.5024 H   0  0  0  0  0  0  0  0  0  0  0  0
    6.6151    1.5984    0.7210 H   0  0  0  0  0  0  0  0  0  0  0  0
    5.2973    1.4806   -0.4711 H   0  0  0  0  0  0  0  0  0  0  0  0
    5.3388    0.1562    3.0379 H   0  0  0  0  0  0  0  0  0  0  0  0
    4.5064    1.6269    3.6671 H   0  0  0  0  0  0  0  0  0  0  0  0
    6.1732    1.7543    3.0347 H   0  0  0  0  0  0  0  0  0  0  0  0
  1  2  1  0
  2  3  2  0
  3  4  1  0
  4  5  2  0
  5  6  1  0
  6  7  1  0
  7  8  1  0
  8  9  2  0
  9 10  1  0
 10 11  2  0
 11 12  1  0
 11 13  1  0
 13 14  2  0
  6 15  2  0
 15 16  1  0
 16 17  2  3
 17 18  1  0
 18 19  1  0
 19 20  1  0
 20 21  1  0
 21 22  1  0
 21 23  1  0
 16 24  1  0
 24 25  2  0
 25  1  1  0
 25  5  1  0
 14  8  1  0
  1 26  1  0
  2 27  1  0
  3 28  1  0
  7 29  1  0
  9 30  1  0
 10 31  1  0
 13 32  1  0
 14 33  1  0
 18 34  1  0
 18 35  1  0
 19 36  1  0
 19 37  1  0
 20 38  1  0
 20 39  1  0
 21 40  1  0
 22 41  1  0
 22 42  1  0
 22 43  1  0
 23 44  1  0
 23 45  1  0
 23 46  1  0
M  CHG  1  21   1
M  END
>  <ScrubInfo>  (6) 
{"isomerGroup": 0, "isomerId": 5, "confId": 0, "nr_conformers:": 1, "nr_isomers:": 9}

$$$$
_i6
     RDKit          3D

 46 48  0  0  0  0  0  0  0  0999 V2000
   -1.4394    2.7392    0.9155 N   0  0  0  0  0  0  0  0  0  0  0  0
   -2.7352    3.1788    0.8314 C   0  0  0  0  0  0  0  0  0  0  0  0
   -3.7579    2.3106    0.7806 C   0  0  0  0  0  0  0  0  0  0  0  0
   -3.5998    0.9406    0.7899 N   0  0  0  0  0  0  0  0  0  0  0  0
   -2.3819    0.4785    0.8966 C   0  0  0  0  0  0  0  0  0  0  0  0
   -2.0143   -0.9783    0.8793 C   0  0  0  0  0  0  0  0  0  0  0  0
   -2.7260   -1.9571    0.4094 N   0  0  0  0  0  0  0  0  0  0  0  0
   -3.9855   -1.7410   -0.1535 C   0  0  0  0  0  0  0  0  0  0  0  0
   -4.1108   -1.4357   -1.5141 C   0  0  0  0  0  0  0  0  0  0  0  0
   -5.3732   -1.2547   -2.0819 C   0  0  0  0  0  0  0  0  0  0  0  0
   -6.5062   -1.3973   -1.2889 C   0  0  0  0  0  0  0  0  0  0  0  0
   -7.7172   -1.2229   -1.8339 F   0  0  0  0  0  0  0  0  0  0  0  0
   -6.4017   -1.7277    0.0570 C   0  0  0  0  0  0  0  0  0  0  0  0
   -5.1382   -1.9086    0.6223 C   0  0  0  0  0  0  0  0  0  0  0  0
   -0.7863   -1.3457    1.3626 N   0  0  0  0  0  0  0  0  0  0  0  0
    0.1158   -0.4403    1.5710 C   0  0  0  0  0  0  0  0  0  0  0  0
    1.3047   -0.8981    2.0535 N   0  0  0  0  0  0  0  0  0  0  0  0
    2.5637   -0.2086    1.9433 C   0  0  0  0  0  0  0  0  0  0  0  0
    3.1075   -0.3388    0.5196 C   0  0  0  0  0  0  0  0  0  0  0  0
    4.4420    0.3817    0.3818 C   0  0  0  0  0  0  0  0  0  0  0  0
    4.9246    0.3589   -1.0575 N   0  0  0  0  0  4  0  0  0  0  0  0
    6.0148    1.3753   -1.2859 C   0  0  0  0  0  0  0  0  0  0  0  0
    5.3588   -1.0045   -1.5304 C   0  0  0  0  0  0  0  0  0  0  0  0
   -0.0231    0.9015    1.3383 N   0  0  0  0  0  0  0  0  0  0  0  0
   -1.1878    1.3958    1.0622 C   0  0  0  0  0  0  0  0  0  0  0  0
   -0.7180    3.4055    1.1560 H   0  0  0  0  0  0  0  0  0  0  0  0
   -2.8787    4.2543    0.8247 H   0  0  0  0  0  0  0  0  0  0  0  0
   -4.7834    2.6686    0.7200 H   0  0  0  0  0  0  0  0  0  0  0  0
   -3.2232   -1.3435   -2.1319 H   0  0  0  0  0  0  0  0  0  0  0  0
   -5.4811   -1.0111   -3.1334 H   0  0  0  0  0  0  0  0  0  0  0  0
   -7.2990   -1.8453    0.6553 H   0  0  0  0  0  0  0  0  0  0  0  0
   -5.0478   -2.1759    1.6713 H   0  0  0  0  0  0  0  0  0  0  0  0
    1.3264   -1.9116    2.1191 H   0  0  0  0  0  0  0  0  0  0  0  0
    2.4573    0.8450    2.2257 H   0  0  0  0  0  0  0  0  0  0  0  0
    3.2712   -0.6552    2.6512 H   0  0  0  0  0  0  0  0  0  0  0  0
    2.3868    0.0759   -0.1961 H   0  0  0  0  0  0  0  0  0  0  0  0
    3.2152   -1.4024    0.2779 H   0  0  0  0  0  0  0  0  0  0  0  0
    5.2242   -0.0702    1.0014 H   0  0  0  0  0  0  0  0  0  0  0  0
    4.3279    1.4354    0.6601 H   0  0  0  0  0  0  0  0  0  0  0  0
    4.1359    0.6451   -1.6546 H   0  0  0  0  0  0  0  0  0  0  0  0
    6.8728    1.1102   -0.6625 H   0  0  0  0  0  0  0  0  0  0  0  0
    6.2783    1.3594   -2.3468 H   0  0  0  0  0  0  0  0  0  0  0  0
    5.6224    2.3599   -1.0182 H   0  0  0  0  0  0  0  0  0  0  0  0
    6.1590   -1.3616   -0.8769 H   0  0  0  0  0  0  0  0  0  0  0  0
    4.4966   -1.6734   -1.5035 H   0  0  0  0  0  0  0  0  0  0  0  0
    5.7099   -0.9106   -2.5617 H   0  0  0  0  0  0  0  0  0  0  0  0
  1  2  1  0
  2  3  2  0
  3  4  1  0
  4  5  2  0
  5  6  1  0
  6  7  2  3
  7  8  1  0
  8  9  2  0
  9 10  1  0
 10 11  2  0
 11 12  1  0
 11 13  1  0
 13 14  2  0
  6 15  1  0
 15 16  2  0
 16 17  1  0
 17 18  1  0
 18 19  1  0
 19 20  1  0
 20 21  1  0
 21 22  1  0
 21 23  1  0
 16 24  1  0
 24 25  2  0
 25  1  1  0
 25  5  1  0
 14  8  1  0
  1 26  1  0
  2 27  1  0
  3 28  1  0
  9 29  1  0
 10 30  1  0
 13 31  1  0
 14 32  1  0
 17 33  1  0
 18 34  1  0
 18 35  1  0
 19 36  1  0
 19 37  1  0
 20 38  1  0
 20 39  1  0
 21 40  1  0
 22 41  1  0
 22 42  1  0
 22 43  1  0
 23 44  1  0
 23 45  1  0
 23 46  1  0
M  CHG  1  21   1
M  END
>  <ScrubInfo>  (7) 
{"isomerGroup": 0, "isomerId": 6, "confId": 0, "nr_conformers:": 1, "nr_isomers:": 9}

$$$$
_i7
     RDKit          3D

 46 48  0  0  0  0  0  0  0  0999 V2000
   -0.5553   -1.8528   -0.1684 N   0  0  0  0  0  0  0  0  0  0  0  0
    0.1815   -0.7477    0.1503 C   0  0  0  0  0  0  0  0  0  0  0  0
    1.4626   -0.6665    0.3068 N   0  0  0  0  0  0  0  0  0  0  0  0
    2.2527   -1.8807    0.1434 C   0  0  0  0  0  0  0  0  0  0  0  0
    3.6929   -1.5634    0.5474 C   0  0  0  0  0  0  0  0  0  0  0  0
    4.2764   -0.4469   -0.3144 C   0  0  0  0  0  0  0  0  0  0  0  0
    5.7384   -0.2072    0.0263 N   0  0  0  0  0  4  0  0  0  0  0  0
    5.9311    0.4587    1.3633 C   0  0  0  0  0  0  0  0  0  0  0  0
    6.4264    0.5728   -1.0633 C   0  0  0  0  0  0  0  0  0  0  0  0
   -0.5731    0.3794    0.3049 N   0  0  0  0  0  0  0  0  0  0  0  0
   -1.9341    0.5586    0.1941 C   0  0  0  0  0  0  0  0  0  0  0  0
   -2.3724    1.7746    0.4025 N   0  0  0  0  0  0  0  0  0  0  0  0
   -3.7310    2.0937    0.3240 C   0  0  0  0  0  0  0  0  0  0  0  0
   -4.5331    2.0456    1.4700 C   0  0  0  0  0  0  0  0  0  0  0  0
   -5.8812    2.4015    1.4021 C   0  0  0  0  0  0  0  0  0  0  0  0
   -6.4164    2.8209    0.1897 C   0  0  0  0  0  0  0  0  0  0  0  0
   -7.7101    3.1610    0.1226 F   0  0  0  0  0  0  0  0  0  0  0  0
   -5.6283    2.9002   -0.9527 C   0  0  0  0  0  0  0  0  0  0  0  0
   -4.2805    2.5437   -0.8820 C   0  0  0  0  0  0  0  0  0  0  0  0
   -2.7055   -0.6802   -0.1512 C   0  0  0  0  0  0  0  0  0  0  0  0
   -4.0522   -0.6494   -0.2911 N   0  0  0  0  0  0  0  0  0  0  0  0
   -4.6251   -1.8318   -0.6013 C   0  0  0  0  0  0  0  0  0  0  0  0
   -3.8855   -2.9919   -0.7663 C   0  0  0  0  0  0  0  0  0  0  0  0
   -2.5359   -3.0265   -0.6292 N   0  0  0  0  0  0  0  0  0  0  0  0
   -1.9447   -1.8489   -0.3157 C   0  0  0  0  0  0  0  0  0  0  0  0
   -0.1476   -2.7636   -0.3088 H   0  0  0  0  0  0  0  0  0  0  0  0
    2.2247   -2.2220   -0.8980 H   0  0  0  0  0  0  0  0  0  0  0  0
    1.8790   -2.6850    0.7880 H   0  0  0  0  0  0  0  0  0  0  0  0
    4.2998   -2.4712    0.4491 H   0  0  0  0  0  0  0  0  0  0  0  0
    3.7056   -1.2762    1.6046 H   0  0  0  0  0  0  0  0  0  0  0  0
    3.7550    0.5080   -0.1892 H   0  0  0  0  0  0  0  0  0  0  0  0
    4.2409   -0.7377   -1.3704 H   0  0  0  0  0  0  0  0  0  0  0  0
    6.2034   -1.1231    0.0700 H   0  0  0  0  0  0  0  0  0  0  0  0
    5.5539   -0.2063    2.1423 H   0  0  0  0  0  0  0  0  0  0  0  0
    5.3952    1.4115    1.3609 H   0  0  0  0  0  0  0  0  0  0  0  0
    7.0030    0.6156    1.5123 H   0  0  0  0  0  0  0  0  0  0  0  0
    6.3348    0.0083   -1.9950 H   0  0  0  0  0  0  0  0  0  0  0  0
    7.4816    0.6728   -0.7957 H   0  0  0  0  0  0  0  0  0  0  0  0
    5.9472    1.5519   -1.1472 H   0  0  0  0  0  0  0  0  0  0  0  0
   -0.0697    1.2210    0.5520 H   0  0  0  0  0  0  0  0  0  0  0  0
   -4.1046    1.7260    2.4150 H   0  0  0  0  0  0  0  0  0  0  0  0
   -6.5123    2.3581    2.2834 H   0  0  0  0  0  0  0  0  0  0  0  0
   -6.0648    3.2410   -1.8856 H   0  0  0  0  0  0  0  0  0  0  0  0
   -3.6555    2.6116   -1.7671 H   0  0  0  0  0  0  0  0  0  0  0  0
   -5.7042   -1.8235   -0.7151 H   0  0  0  0  0  0  0  0  0  0  0  0
   -4.3631   -3.9340   -1.0155 H   0  0  0  0  0  0  0  0  0  0  0  0
  1  2  1  0
  2  3  2  3
  3  4  1  0
  4  5  1  0
  5  6  1  0
  6  7  1  0
  7  8  1  0
  7  9  1  0
  2 10  1  0
 10 11  1  0
 11 12  2  3
 12 13  1  0
 13 14  2  0
 14 15  1  0
 15 16  2  0
 16 17  1  0
 16 18  1  0
 18 19  2  0
 11 20  1  0
 20 21  2  0
 21 22  1  0
 22 23  2  0
 23 24  1  0
 24 25  2  0
 25  1  1  0
 19 13  1  0
 25 20  1  0
  1 26  1  0
  4 27  1  0
  4 28  1  0
  5 29  1  0
  5 30  1  0
  6 31  1  0
  6 32  1  0
  7 33  1  0
  8 34  1  0
  8 35  1  0
  8 36  1  0
  9 37  1  0
  9 38  1  0
  9 39  1  0
 10 40  1  0
 14 41  1  0
 15 42  1  0
 18 43  1  0
 19 44  1  0
 22 45  1  0
 23 46  1  0
M  CHG  1   7   1
M  END
>  <ScrubInfo>  (8) 
{"isomerGroup": 0, "isomerId": 7, "confId": 0, "nr_conformers:": 1, "nr_isomers:": 9}

$$$$
_i8
     RDKit          3D

 46 48  0  0  0  0  0  0  0  0999 V2000
    0.0334    3.7519    0.9512 N   0  0  0  0  0  0  0  0  0  0  0  0
   -0.7381    4.8723    0.8026 C   0  0  0  0  0  0  0  0  0  0  0  0
   -2.0418    4.7814    0.4980 C   0  0  0  0  0  0  0  0  0  0  0  0
   -2.7077    3.5881    0.3184 N   0  0  0  0  0  0  0  0  0  0  0  0
   -2.0215    2.4854    0.4673 C   0  0  0  0  0  0  0  0  0  0  0  0
   -2.6726    1.1280    0.3009 C   0  0  0  0  0  0  0  0  0  0  0  0
   -3.9306    1.0699   -0.0070 N   0  0  0  0  0  0  0  0  0  0  0  0
   -4.5339   -0.1823   -0.1579 C   0  0  0  0  0  0  0  0  0  0  0  0
   -4.6008   -0.7819   -1.4200 C   0  0  0  0  0  0  0  0  0  0  0  0
   -5.1983   -2.0340   -1.5735 C   0  0  0  0  0  0  0  0  0  0  0  0
   -5.7366   -2.6753   -0.4636 C   0  0  0  0  0  0  0  0  0  0  0  0
   -6.3050   -3.8787   -0.6092 F   0  0  0  0  0  0  0  0  0  0  0  0
   -5.6963   -2.0845    0.7942 C   0  0  0  0  0  0  0  0  0  0  0  0
   -5.0989   -0.8319    0.9451 C   0  0  0  0  0  0  0  0  0  0  0  0
   -1.7899    0.1072    0.5112 N   0  0  0  0  0  0  0  0  0  0  0  0
   -0.4739    0.1975    0.8366 C   0  0  0  0  0  0  0  0  0  0  0  0
    0.1866   -0.8987    1.0066 N   0  0  0  0  0  0  0  0  0  0  0  0
    1.5922   -0.8526    1.3901 C   0  0  0  0  0  0  0  0  0  0  0  0
    2.4481   -1.0520    0.1417 C   0  0  0  0  0  0  0  0  0  0  0  0
    3.9249   -1.1061    0.5060 C   0  0  0  0  0  0  0  0  0  0  0  0
    4.7671   -1.4660   -0.7043 N   0  0  0  0  0  4  0  0  0  0  0  0
    4.8279   -0.3768   -1.7413 C   0  0  0  0  0  0  0  0  0  0  0  0
    6.1506   -1.9016   -0.2979 C   0  0  0  0  0  0  0  0  0  0  0  0
    0.1640    1.4055    0.9706 N   0  0  0  0  0  0  0  0  0  0  0  0
   -0.5216    2.5022    0.8171 C   0  0  0  0  0  0  0  0  0  0  0  0
    0.9950    3.8487    1.2451 H   0  0  0  0  0  0  0  0  0  0  0  0
   -0.2373    5.8239    0.9476 H   0  0  0  0  0  0  0  0  0  0  0  0
   -2.6444    5.6797    0.3833 H   0  0  0  0  0  0  0  0  0  0  0  0
   -4.1990   -0.2630   -2.2863 H   0  0  0  0  0  0  0  0  0  0  0  0
   -5.2599   -2.5052   -2.5493 H   0  0  0  0  0  0  0  0  0  0  0  0
   -6.1406   -2.5945    1.6432 H   0  0  0  0  0  0  0  0  0  0  0  0
   -5.0849   -0.3527    1.9208 H   0  0  0  0  0  0  0  0  0  0  0  0
   -2.1435   -0.8373    0.4503 H   0  0  0  0  0  0  0  0  0  0  0  0
    1.8766    0.0627    1.9218 H   0  0  0  0  0  0  0  0  0  0  0  0
    1.7725   -1.6738    2.0940 H   0  0  0  0  0  0  0  0  0  0  0  0
    2.2523   -0.2336   -0.5601 H   0  0  0  0  0  0  0  0  0  0  0  0
    2.1497   -1.9798   -0.3624 H   0  0  0  0  0  0  0  0  0  0  0  0
    4.0980   -1.8881    1.2538 H   0  0  0  0  0  0  0  0  0  0  0  0
    4.2924   -0.1503    0.8954 H   0  0  0  0  0  0  0  0  0  0  0  0
    4.3264   -2.2825   -1.1503 H   0  0  0  0  0  0  0  0  0  0  0  0
    5.2340    0.5254   -1.2766 H   0  0  0  0  0  0  0  0  0  0  0  0
    5.4720   -0.7189   -2.5561 H   0  0  0  0  0  0  0  0  0  0  0  0
    3.8212   -0.2052   -2.1270 H   0  0  0  0  0  0  0  0  0  0  0  0
    6.6493   -1.0616    0.1929 H   0  0  0  0  0  0  0  0  0  0  0  0
    6.0536   -2.7532    0.3806 H   0  0  0  0  0  0  0  0  0  0  0  0
    6.6895   -2.2077   -1.1985 H   0  0  0  0  0  0  0  0  0  0  0  0
  1  2  1  0
  2  3  2  0
  3  4  1  0
  4  5  2  0
  5  6  1  0
  6  7  2  3
  7  8  1  0
  8  9  2  0
  9 10  1  0
 10 11  2  0
 11 12  1  0
 11 13  1  0
 13 14  2  0
  6 15  1  0
 15 16  1  0
 16 17  2  3
 17 18  1  0
 18 19  1  0
 19 20  1  0
 20 21  1  0
 21 22  1  0
 21 23  1  0
 16 24  1  0
 24 25  2  0
 25  1  1  0
 25  5  1  0
 14  8  1  0
  1 26  1  0
  2 27  1  0
  3 28  1  0
  9 29  1  0
 10 30  1  0
 13 31  1  0
 14 32  1  0
 15 33  1  0
 18 34  1  0
 18 35  1  0
 19 36  1  0
 19 37  1  0
 20 38  1  0
 20 39  1  0
 21 40  1  0
 22 41  1  0
 22 42  1  0
 22 43  1  0
 23 44  1  0
 23 45  1  0
 23 46  1  0
M  CHG  1  21   1
M  END
>  <ScrubInfo>  (9) 
{"isomerGroup": 0, "isomerId": 8, "confId": 0, "nr_conformers:": 1, "nr_isomers:": 9}

$$$$
