REMARK SMILES Cc1ccc(C)c(Nc2nc(NCC[NH+](C)C)nc3nccnc23)c1
REMARK SMILES IDX 12 1 13 3 14 4 15 5 16 6 17 7 11 9 10 10 18 11 9 12 19 13
REMARK SMILES IDX 24 14 20 15 23 16 21 17 22 18 8 19 7 21 5 22 25 23 4 24 2 25
REMARK SMILES IDX 3 26 6 27 1 28
REMARK H PARENT 12 2 15 8 8 20
ROOT
ATOM      1  N   UNL     1       2.749  -1.806  -0.964  1.00  0.00    -0.348 N 
ATOM      2  H   UNL     1       3.148  -2.697  -1.271  1.00  0.00     0.163 HD
ENDROOT
BRANCH   1   3
ATOM      3  C   UNL     1       3.172  -0.701  -1.828  1.00  0.00     0.177 C 
BRANCH   3   4
ATOM      4  C   UNL     1       3.310   0.630  -1.056  1.00  0.00     0.283 C 
BRANCH   4   5
ATOM      5  N   UNL     1       1.980   1.225  -0.652  1.00  0.00    -0.338 N 
ATOM      6  C   UNL     1       2.096   2.122   0.541  1.00  0.00     0.332 C 
ATOM      7  C   UNL     1       1.240   1.887  -1.774  1.00  0.00     0.332 C 
ATOM      8  H   UNL     1       1.379   0.425  -0.358  1.00  0.00     0.347 HD
ENDBRANCH   4   5
ENDBRANCH   3   4
ENDBRANCH   1   3
BRANCH   1   9
ATOM      9  C   UNL     1       1.384  -2.059  -0.979  1.00  0.00     0.227 A 
ATOM     10  N   UNL     1       0.549  -1.081  -0.634  1.00  0.00    -0.193 NA
ATOM     11  N   UNL     1       1.010  -3.278  -1.332  1.00  0.00    -0.191 NA
ATOM     12  C   UNL     1      -0.770  -1.382  -0.638  1.00  0.00     0.164 A 
ATOM     13  C   UNL     1      -0.292  -3.552  -1.366  1.00  0.00     0.185 A 
ATOM     14  C   UNL     1      -1.276  -2.616  -1.029  1.00  0.00     0.150 A 
ATOM     15  N   UNL     1      -0.660  -4.778  -1.747  1.00  0.00    -0.233 NA
ATOM     16  N   UNL     1      -2.614  -2.890  -1.059  1.00  0.00    -0.247 NA
ATOM     17  C   UNL     1      -1.984  -5.065  -1.781  1.00  0.00     0.133 A 
ATOM     18  C   UNL     1      -2.945  -4.139  -1.444  1.00  0.00     0.132 A 
BRANCH  12  19
ATOM     19  N   UNL     1      -1.695  -0.347  -0.309  1.00  0.00    -0.338 N 
ATOM     20  H   UNL     1      -2.615  -0.788  -0.186  1.00  0.00     0.168 HD
BRANCH  19  21
ATOM     21  C   UNL     1      -1.517   0.621   0.713  1.00  0.00     0.043 A 
ATOM     22  C   UNL     1      -2.213   1.843   0.633  1.00  0.00    -0.028 A 
ATOM     23  C   UNL     1      -0.771   0.337   1.870  1.00  0.00     0.029 A 
ATOM     24  C   UNL     1      -2.111   2.766   1.685  1.00  0.00     0.006 A 
ATOM     25  C   UNL     1      -0.661   1.266   2.914  1.00  0.00    -0.049 A 
ATOM     26  C   UNL     1      -1.341   2.481   2.813  1.00  0.00     0.004 A 
ATOM     27  C   UNL     1      -3.088   2.166  -0.549  1.00  0.00     0.046 C 
ATOM     28  C   UNL     1       0.100   0.922   4.161  1.00  0.00     0.044 C 
ENDBRANCH  19  21
ENDBRANCH  12  19
ENDBRANCH   1   9
TORSDOF 6
