_i0
     RDKit          3D

 49 51  0  0  0  0  0  0  0  0999 V2000
    3.3103    0.6299   -1.0560 C   0  0  0  0  0  0  0  0  0  0  0  0
    1.9797    1.2254   -0.6523 N   0  0  0  0  0  4  0  0  0  0  0  0
    2.0963    2.1224    0.5409 C   0  0  0  0  0  0  0  0  0  0  0  0
    1.2399    1.8875   -1.7737 C   0  0  0  0  0  0  0  0  0  0  0  0
    3.1718   -0.7011   -1.8279 C   0  0  0  0  0  0  0  0  0  0  0  0
    2.7492   -1.8059   -0.9644 N   0  0  0  0  0  0  0  0  0  0  0  0
    1.3842   -2.0586   -0.9790 C   0  0  0  0  0  0  0  0  0  0  0  0
    0.5490   -1.0808   -0.6336 N   0  0  0  0  0  0  0  0  0  0  0  0
    1.0102   -3.2782   -1.3324 N   0  0  0  0  0  0  0  0  0  0  0  0
   -0.7702   -1.3818   -0.6385 C   0  0  0  0  0  0  0  0  0  0  0  0
   -0.2919   -3.5518   -1.3661 C   0  0  0  0  0  0  0  0  0  0  0  0
   -1.6948   -0.3472   -0.3088 N   0  0  0  0  0  0  0  0  0  0  0  0
   -1.2760   -2.6158   -1.0287 C   0  0  0  0  0  0  0  0  0  0  0  0
   -0.6604   -4.7783   -1.7466 N   0  0  0  0  0  0  0  0  0  0  0  0
   -1.5174    0.6214    0.7125 C   0  0  0  0  0  0  0  0  0  0  0  0
   -2.6135   -2.8902   -1.0588 N   0  0  0  0  0  0  0  0  0  0  0  0
   -1.9835   -5.0651   -1.7813 C   0  0  0  0  0  0  0  0  0  0  0  0
   -2.2131    1.8433    0.6328 C   0  0  0  0  0  0  0  0  0  0  0  0
   -0.7714    0.3372    1.8699 C   0  0  0  0  0  0  0  0  0  0  0  0
   -2.9454   -4.1387   -1.4437 C   0  0  0  0  0  0  0  0  0  0  0  0
   -2.1107    2.7662    1.6846 C   0  0  0  0  0  0  0  0  0  0  0  0
   -3.0879    2.1663   -0.5488 C   0  0  0  0  0  0  0  0  0  0  0  0
   -0.6607    1.2659    2.9138 C   0  0  0  0  0  0  0  0  0  0  0  0
   -1.3411    2.4807    2.8131 C   0  0  0  0  0  0  0  0  0  0  0  0
    0.1002    0.9217    4.1609 C   0  0  0  0  0  0  0  0  0  0  0  0
    3.8818    0.4596   -0.1362 H   0  0  0  0  0  0  0  0  0  0  0  0
    3.8309    1.3819   -1.6589 H   0  0  0  0  0  0  0  0  0  0  0  0
    1.3792    0.4255   -0.3577 H   0  0  0  0  0  0  0  0  0  0  0  0
    2.4450    1.5221    1.3853 H   0  0  0  0  0  0  0  0  0  0  0  0
    1.1134    2.5434    0.7595 H   0  0  0  0  0  0  0  0  0  0  0  0
    2.8081    2.9186    0.3062 H   0  0  0  0  0  0  0  0  0  0  0  0
    0.2706    2.2235   -1.3974 H   0  0  0  0  0  0  0  0  0  0  0  0
    1.0893    1.1594   -2.5733 H   0  0  0  0  0  0  0  0  0  0  0  0
    1.8319    2.7360   -2.1270 H   0  0  0  0  0  0  0  0  0  0  0  0
    2.5299   -0.5984   -2.7109 H   0  0  0  0  0  0  0  0  0  0  0  0
    4.1692   -0.9552   -2.2074 H   0  0  0  0  0  0  0  0  0  0  0  0
    3.1485   -2.6975   -1.2710 H   0  0  0  0  0  0  0  0  0  0  0  0
   -2.6153   -0.7884   -0.1857 H   0  0  0  0  0  0  0  0  0  0  0  0
   -2.2436   -6.0719   -2.0916 H   0  0  0  0  0  0  0  0  0  0  0  0
   -0.2900   -0.6324    1.9827 H   0  0  0  0  0  0  0  0  0  0  0  0
   -4.0036   -4.3751   -1.4729 H   0  0  0  0  0  0  0  0  0  0  0  0
   -2.6542    3.7091    1.6446 H   0  0  0  0  0  0  0  0  0  0  0  0
   -3.4593    3.1955   -0.5038 H   0  0  0  0  0  0  0  0  0  0  0  0
   -2.5231    2.0647   -1.4813 H   0  0  0  0  0  0  0  0  0  0  0  0
   -3.9535    1.4967   -0.5716 H   0  0  0  0  0  0  0  0  0  0  0  0
   -1.3034    3.2036    3.6266 H   0  0  0  0  0  0  0  0  0  0  0  0
    0.5010    1.8236    4.6354 H   0  0  0  0  0  0  0  0  0  0  0  0
   -0.5562    0.4095    4.8710 H   0  0  0  0  0  0  0  0  0  0  0  0
    0.9507    0.2716    3.9300 H   0  0  0  0  0  0  0  0  0  0  0  0
  1  2  1  0
  2  3  1  0
  2  4  1  0
  5  1  1  0
  6  5  1  0
  7  6  1  0
  8  7  2  0
  7  9  1  0
 10  8  1  0
  9 11  2  0
 12 10  1  0
 13 10  2  0
 11 14  1  0
 13 11  1  0
 15 12  1  0
 16 13  1  0
 14 17  2  0
 18 15  2  0
 15 19  1  0
 20 16  2  0
 17 20  1  0
 21 18  1  0
 18 22  1  0
 19 23  2  0
 24 21  2  0
 25 23  1  0
 23 24  1  0
  1 26  1  0
  1 27  1  0
  2 28  1  0
  3 29  1  0
  3 30  1  0
  3 31  1  0
  4 32  1  0
  4 33  1  0
  4 34  1  0
  5 35  1  0
  5 36  1  0
  6 37  1  0
 12 38  1  0
 17 39  1  0
 19 40  1  0
 20 41  1  0
 21 42  1  0
 22 43  1  0
 22 44  1  0
 22 45  1  0
 24 46  1  0
 25 47  1  0
 25 48  1  0
 25 49  1  0
M  CHG  1   2   1
M  END
>  <ScrubInfo>  (1) 
{"isomerGroup": 0, "isomerId": 0, "confId": 0, "nr_conformers:": 1, "nr_isomers:": 9}

$$$$
_i1
     RDKit          3D

 49 51  0  0  0  0  0  0  0  0999 V2000
    0.0218   -0.4067   -0.4873 N   0  0  0  0  0  0  0  0  0  0  0  0
   -0.8267   -0.6126   -1.5517 C   0  0  0  0  0  0  0  0  0  0  0  0
   -1.6090    0.4163   -2.0609 N   0  0  0  0  0  0  0  0  0  0  0  0
   -2.2826    1.4200   -1.3255 C   0  0  0  0  0  0  0  0  0  0  0  0
   -2.6318    1.2465    0.0249 C   0  0  0  0  0  0  0  0  0  0  0  0
   -3.3054    2.2451    0.7422 C   0  0  0  0  0  0  0  0  0  0  0  0
   -3.7097    2.0167    2.1688 C   0  0  0  0  0  0  0  0  0  0  0  0
   -3.6623    3.4248    0.0876 C   0  0  0  0  0  0  0  0  0  0  0  0
   -3.3370    3.6100   -1.2558 C   0  0  0  0  0  0  0  0  0  0  0  0
   -2.6489    2.6183   -1.9718 C   0  0  0  0  0  0  0  0  0  0  0  0
   -2.3183    2.8570   -3.4208 C   0  0  0  0  0  0  0  0  0  0  0  0
   -0.8449   -1.8345   -2.1378 C   0  0  0  0  0  0  0  0  0  0  0  0
   -1.6398   -2.1361   -3.2229 N   0  0  0  0  0  0  0  0  0  0  0  0
   -1.5531   -3.3559   -3.6402 C   0  0  0  0  0  0  0  0  0  0  0  0
   -0.6584   -4.3688   -3.0045 C   0  0  0  0  0  0  0  0  0  0  0  0
    0.1005   -4.1022   -1.9958 N   0  0  0  0  0  0  0  0  0  0  0  0
    0.0824   -2.8297   -1.4786 C   0  0  0  0  0  0  0  0  0  0  0  0
    0.8691   -2.6134   -0.4761 N   0  0  0  0  0  0  0  0  0  0  0  0
    0.8530   -1.3468    0.0332 C   0  0  0  0  0  0  0  0  0  0  0  0
    1.6464   -1.0374    1.0134 N   0  0  0  0  0  0  0  0  0  0  0  0
    2.4849   -2.1498    1.5154 C   0  0  0  0  0  0  0  0  0  0  0  0
    3.3071   -1.6181    2.6961 C   0  0  0  0  0  0  0  0  0  0  0  0
    3.7592   -0.2043    2.3713 N   0  0  0  0  0  4  0  0  0  0  0  0
    4.9420   -0.1544    1.4568 C   0  0  0  0  0  0  0  0  0  0  0  0
    3.9266    0.6498    3.5834 C   0  0  0  0  0  0  0  0  0  0  0  0
    0.0497    0.5370   -0.1297 H   0  0  0  0  0  0  0  0  0  0  0  0
   -2.1692    0.1004   -2.8575 H   0  0  0  0  0  0  0  0  0  0  0  0
   -2.4131    0.3069    0.5264 H   0  0  0  0  0  0  0  0  0  0  0  0
   -3.7575    2.9629    2.7181 H   0  0  0  0  0  0  0  0  0  0  0  0
   -4.6916    1.5351    2.2071 H   0  0  0  0  0  0  0  0  0  0  0  0
   -2.9818    1.3800    2.6827 H   0  0  0  0  0  0  0  0  0  0  0  0
   -4.2084    4.2050    0.6141 H   0  0  0  0  0  0  0  0  0  0  0  0
   -3.6318    4.5368   -1.7446 H   0  0  0  0  0  0  0  0  0  0  0  0
   -2.6006    3.8669   -3.7370 H   0  0  0  0  0  0  0  0  0  0  0  0
   -1.2415    2.7514   -3.5890 H   0  0  0  0  0  0  0  0  0  0  0  0
   -2.8586    2.1461   -4.0541 H   0  0  0  0  0  0  0  0  0  0  0  0
   -2.1406   -3.7181   -4.4982 H   0  0  0  0  0  0  0  0  0  0  0  0
   -0.6863   -5.3713   -3.4583 H   0  0  0  0  0  0  0  0  0  0  0  0
    3.1668   -2.4968    0.7298 H   0  0  0  0  0  0  0  0  0  0  0  0
    1.8761   -2.9940    1.8598 H   0  0  0  0  0  0  0  0  0  0  0  0
    2.6665   -1.5519    3.5825 H   0  0  0  0  0  0  0  0  0  0  0  0
    4.1843   -2.2312    2.9244 H   0  0  0  0  0  0  0  0  0  0  0  0
    2.9490    0.1587    1.8324 H   0  0  0  0  0  0  0  0  0  0  0  0
    5.1266    0.8915    1.1972 H   0  0  0  0  0  0  0  0  0  0  0  0
    4.7120   -0.7209    0.5516 H   0  0  0  0  0  0  0  0  0  0  0  0
    5.8023   -0.5830    1.9775 H   0  0  0  0  0  0  0  0  0  0  0  0
    4.1719    1.6639    3.2569 H   0  0  0  0  0  0  0  0  0  0  0  0
    2.9807    0.6593    4.1314 H   0  0  0  0  0  0  0  0  0  0  0  0
    4.7298    0.2312    4.1955 H   0  0  0  0  0  0  0  0  0  0  0  0
  1  2  1  0
  2  3  1  0
  3  4  1  0
  4  5  2  0
  5  6  1  0
  6  7  1  0
  6  8  2  0
  8  9  1  0
  9 10  2  0
 10 11  1  0
  2 12  2  0
 12 13  1  0
 13 14  2  0
 14 15  1  0
 15 16  2  0
 16 17  1  0
 17 18  2  0
 18 19  1  0
 19 20  2  3
 20 21  1  0
 21 22  1  0
 22 23  1  0
 23 24  1  0
 23 25  1  0
 19  1  1  0
 10  4  1  0
 17 12  1  0
  1 26  1  0
  3 27  1  0
  5 28  1  0
  7 29  1  0
  7 30  1  0
  7 31  1  0
  8 32  1  0
  9 33  1  0
 11 34  1  0
 11 35  1  0
 11 36  1  0
 14 37  1  0
 15 38  1  0
 21 39  1  0
 21 40  1  0
 22 41  1  0
 22 42  1  0
 23 43  1  0
 24 44  1  0
 24 45  1  0
 24 46  1  0
 25 47  1  0
 25 48  1  0
 25 49  1  0
M  CHG  1  23   1
M  END
>  <ScrubInfo>  (2) 
{"isomerGroup": 0, "isomerId": 1, "confId": 0, "nr_conformers:": 1, "nr_isomers:": 9}

$$$$
_i2
     RDKit          3D

 49 51  0  0  0  0  0  0  0  0999 V2000
    0.0553   -1.0460   -1.4903 N   0  0  0  0  0  0  0  0  0  0  0  0
    1.3884   -0.9434   -1.2532 C   0  0  0  0  0  0  0  0  0  0  0  0
    2.1903   -1.4231   -2.2478 N   0  0  0  0  0  0  0  0  0  0  0  0
    3.6146   -1.7206   -2.0620 C   0  0  0  0  0  0  0  0  0  0  0  0
    4.5011   -0.4598   -1.9177 C   0  0  0  0  0  0  0  0  0  0  0  0
    4.3990    0.1884   -0.5540 N   0  0  0  0  0  4  0  0  0  0  0  0
    4.6672    1.6596   -0.5797 C   0  0  0  0  0  0  0  0  0  0  0  0
    5.1644   -0.5068    0.5270 C   0  0  0  0  0  0  0  0  0  0  0  0
    1.8743   -0.4011   -0.1763 N   0  0  0  0  0  0  0  0  0  0  0  0
    0.9299    0.0675    0.7659 C   0  0  0  0  0  0  0  0  0  0  0  0
    1.5133    0.6326    1.8502 N   0  0  0  0  0  0  0  0  0  0  0  0
    0.6458    1.0948    2.7873 C   0  0  0  0  0  0  0  0  0  0  0  0
   -0.7335    1.0099    2.6471 C   0  0  0  0  0  0  0  0  0  0  0  0
   -1.3190    0.4606    1.5605 N   0  0  0  0  0  0  0  0  0  0  0  0
   -0.4652   -0.0087    0.6235 C   0  0  0  0  0  0  0  0  0  0  0  0
   -0.9529   -0.6246   -0.6501 C   0  0  0  0  0  0  0  0  0  0  0  0
   -2.1753   -0.8099   -1.0727 N   0  0  0  0  0  0  0  0  0  0  0  0
   -3.2866   -0.4180   -0.3120 C   0  0  0  0  0  0  0  0  0  0  0  0
   -3.8194    0.8651   -0.4978 C   0  0  0  0  0  0  0  0  0  0  0  0
   -4.9551    1.2874    0.2047 C   0  0  0  0  0  0  0  0  0  0  0  0
   -5.4867    2.6777    0.0258 C   0  0  0  0  0  0  0  0  0  0  0  0
   -5.5528    0.4093    1.1125 C   0  0  0  0  0  0  0  0  0  0  0  0
   -5.0463   -0.8804    1.2868 C   0  0  0  0  0  0  0  0  0  0  0  0
   -3.9230   -1.3121    0.5660 C   0  0  0  0  0  0  0  0  0  0  0  0
   -3.4018   -2.7064    0.7617 C   0  0  0  0  0  0  0  0  0  0  0  0
   -0.2875   -1.4094   -2.3695 H   0  0  0  0  0  0  0  0  0  0  0  0
    1.7364   -2.1001   -2.8577 H   0  0  0  0  0  0  0  0  0  0  0  0
    3.9502   -2.2540   -2.9591 H   0  0  0  0  0  0  0  0  0  0  0  0
    3.7468   -2.4092   -1.2211 H   0  0  0  0  0  0  0  0  0  0  0  0
    5.5573   -0.7046   -2.0735 H   0  0  0  0  0  0  0  0  0  0  0  0
    4.1995    0.2870   -2.6610 H   0  0  0  0  0  0  0  0  0  0  0  0
    3.3976    0.1014   -0.2732 H   0  0  0  0  0  0  0  0  0  0  0  0
    4.4920    2.0595    0.4227 H   0  0  0  0  0  0  0  0  0  0  0  0
    3.9725    2.1224   -1.2858 H   0  0  0  0  0  0  0  0  0  0  0  0
    5.7038    1.8175   -0.8889 H   0  0  0  0  0  0  0  0  0  0  0  0
    4.9374   -0.0163    1.4775 H   0  0  0  0  0  0  0  0  0  0  0  0
    4.8441   -1.5500    0.5681 H   0  0  0  0  0  0  0  0  0  0  0  0
    6.2309   -0.4360    0.2977 H   0  0  0  0  0  0  0  0  0  0  0  0
    1.0911    1.5427    3.6701 H   0  0  0  0  0  0  0  0  0  0  0  0
   -1.4080    1.3861    3.4099 H   0  0  0  0  0  0  0  0  0  0  0  0
   -3.3373    1.5370   -1.2024 H   0  0  0  0  0  0  0  0  0  0  0  0
   -5.3122    3.0341   -0.9948 H   0  0  0  0  0  0  0  0  0  0  0  0
   -6.5674    2.7088    0.1998 H   0  0  0  0  0  0  0  0  0  0  0  0
   -4.9957    3.3589    0.7276 H   0  0  0  0  0  0  0  0  0  0  0  0
   -6.4256    0.7186    1.6835 H   0  0  0  0  0  0  0  0  0  0  0  0
   -5.5407   -1.5502    1.9868 H   0  0  0  0  0  0  0  0  0  0  0  0
   -4.0988   -3.3157    1.3467 H   0  0  0  0  0  0  0  0  0  0  0  0
   -2.4462   -2.6814    1.2947 H   0  0  0  0  0  0  0  0  0  0  0  0
   -3.2667   -3.2060   -0.2031 H   0  0  0  0  0  0  0  0  0  0  0  0
  1  2  1  0
  2  3  1  0
  3  4  1  0
  4  5  1  0
  5  6  1  0
  6  7  1  0
  6  8  1  0
  2  9  2  0
  9 10  1  0
 10 11  2  0
 11 12  1  0
 12 13  2  0
 13 14  1  0
 14 15  2  0
 15 16  1  0
 16 17  2  3
 17 18  1  0
 18 19  2  0
 19 20  1  0
 20 21  1  0
 20 22  2  0
 22 23  1  0
 23 24  2  0
 24 25  1  0
 16  1  1  0
 24 18  1  0
 15 10  1  0
  1 26  1  0
  3 27  1  0
  4 28  1  0
  4 29  1  0
  5 30  1  0
  5 31  1  0
  6 32  1  0
  7 33  1  0
  7 34  1  0
  7 35  1  0
  8 36  1  0
  8 37  1  0
  8 38  1  0
 12 39  1  0
 13 40  1  0
 19 41  1  0
 21 42  1  0
 21 43  1  0
 21 44  1  0
 22 45  1  0
 23 46  1  0
 25 47  1  0
 25 48  1  0
 25 49  1  0
M  CHG  1   6   1
M  END
>  <ScrubInfo>  (3) 
{"isomerGroup": 0, "isomerId": 2, "confId": 0, "nr_conformers:": 1, "nr_isomers:": 9}

$$$$
_i3
     RDKit          3D

 49 51  0  0  0  0  0  0  0  0999 V2000
   -0.9705   -2.3489   -0.0170 N   0  0  0  0  0  0  0  0  0  0  0  0
   -1.4504   -1.0966    0.1989 C   0  0  0  0  0  0  0  0  0  0  0  0
   -2.6610   -0.6956    0.0289 N   0  0  0  0  0  0  0  0  0  0  0  0
   -3.6809   -1.6361   -0.4405 C   0  0  0  0  0  0  0  0  0  0  0  0
   -5.0361   -0.9121   -0.3252 C   0  0  0  0  0  0  0  0  0  0  0  0
   -4.8147    0.5650   -0.6064 N   0  0  0  0  0  4  0  0  0  0  0  0
   -4.7617    0.8990   -2.0618 C   0  0  0  0  0  0  0  0  0  0  0  0
   -5.7245    1.4606    0.1657 C   0  0  0  0  0  0  0  0  0  0  0  0
   -0.6426   -0.0763    0.6313 N   0  0  0  0  0  0  0  0  0  0  0  0
    0.6248   -0.3106    0.8780 C   0  0  0  0  0  0  0  0  0  0  0  0
    1.3887    0.7554    1.3166 N   0  0  0  0  0  0  0  0  0  0  0  0
    2.6040    1.1724    0.7062 C   0  0  0  0  0  0  0  0  0  0  0  0
    2.8809    0.9099   -0.6465 C   0  0  0  0  0  0  0  0  0  0  0  0
    4.0474    1.3893   -1.2586 C   0  0  0  0  0  0  0  0  0  0  0  0
    4.3481    1.0552   -2.6897 C   0  0  0  0  0  0  0  0  0  0  0  0
    4.9520    2.1365   -0.5022 C   0  0  0  0  0  0  0  0  0  0  0  0
    4.6817    2.4262    0.8352 C   0  0  0  0  0  0  0  0  0  0  0  0
    3.5092    1.9590    1.4476 C   0  0  0  0  0  0  0  0  0  0  0  0
    3.2558    2.2824    2.8951 C   0  0  0  0  0  0  0  0  0  0  0  0
    1.2125   -1.6799    0.7425 C   0  0  0  0  0  0  0  0  0  0  0  0
    2.5024   -1.9122    1.0849 N   0  0  0  0  0  0  0  0  0  0  0  0
    2.9073   -3.1900    0.9204 C   0  0  0  0  0  0  0  0  0  0  0  0
    2.0591   -4.1803    0.4455 C   0  0  0  0  0  0  0  0  0  0  0  0
    0.7630   -3.9415    0.1154 N   0  0  0  0  0  0  0  0  0  0  0  0
    0.3471   -2.6654    0.2781 C   0  0  0  0  0  0  0  0  0  0  0  0
   -1.5310   -3.1273   -0.3167 H   0  0  0  0  0  0  0  0  0  0  0  0
   -3.4923   -1.8977   -1.4877 H   0  0  0  0  0  0  0  0  0  0  0  0
   -3.7083   -2.5551    0.1549 H   0  0  0  0  0  0  0  0  0  0  0  0
   -5.7959   -1.3006   -1.0101 H   0  0  0  0  0  0  0  0  0  0  0  0
   -5.3992   -0.9900    0.7056 H   0  0  0  0  0  0  0  0  0  0  0  0
   -3.8494    0.7093   -0.2375 H   0  0  0  0  0  0  0  0  0  0  0  0
   -4.4686    1.9476   -2.1604 H   0  0  0  0  0  0  0  0  0  0  0  0
   -4.0152    0.2613   -2.5411 H   0  0  0  0  0  0  0  0  0  0  0  0
   -5.7520    0.7297   -2.4928 H   0  0  0  0  0  0  0  0  0  0  0  0
   -5.4360    2.4963   -0.0324 H   0  0  0  0  0  0  0  0  0  0  0  0
   -6.7520    1.2724   -0.1566 H   0  0  0  0  0  0  0  0  0  0  0  0
   -5.6014    1.2419    1.2297 H   0  0  0  0  0  0  0  0  0  0  0  0
    0.8117    1.5822    1.4487 H   0  0  0  0  0  0  0  0  0  0  0  0
    2.1817    0.3325   -1.2446 H   0  0  0  0  0  0  0  0  0  0  0  0
    4.9625    1.8343   -3.1533 H   0  0  0  0  0  0  0  0  0  0  0  0
    4.8834    0.1024   -2.7466 H   0  0  0  0  0  0  0  0  0  0  0  0
    3.4254    0.9793   -3.2745 H   0  0  0  0  0  0  0  0  0  0  0  0
    5.8743    2.5024   -0.9487 H   0  0  0  0  0  0  0  0  0  0  0  0
    5.4002    3.0167    1.4002 H   0  0  0  0  0  0  0  0  0  0  0  0
    4.0730    2.8710    3.3253 H   0  0  0  0  0  0  0  0  0  0  0  0
    2.3368    2.8683    2.9981 H   0  0  0  0  0  0  0  0  0  0  0  0
    3.1693    1.3611    3.4803 H   0  0  0  0  0  0  0  0  0  0  0  0
    3.9391   -3.4011    1.1817 H   0  0  0  0  0  0  0  0  0  0  0  0
    2.4022   -5.2023    0.3189 H   0  0  0  0  0  0  0  0  0  0  0  0
  1  2  1  0
  2  3  2  3
  3  4  1  0
  4  5  1  0
  5  6  1  0
  6  7  1  0
  6  8  1  0
  2  9  1  0
  9 10  2  0
 10 11  1  0
 11 12  1  0
 12 13  2  0
 13 14  1  0
 14 15  1  0
 14 16  2  0
 16 17  1  0
 17 18  2  0
 18 19  1  0
 10 20  1  0
 20 21  2  0
 21 22  1  0
 22 23  2  0
 23 24  1  0
 24 25  2  0
 25  1  1  0
 18 12  1  0
 25 20  1  0
  1 26  1  0
  4 27  1  0
  4 28  1  0
  5 29  1  0
  5 30  1  0
  6 31  1  0
  7 32  1  0
  7 33  1  0
  7 34  1  0
  8 35  1  0
  8 36  1  0
  8 37  1  0
 11 38  1  0
 13 39  1  0
 15 40  1  0
 15 41  1  0
 15 42  1  0
 16 43  1  0
 17 44  1  0
 19 45  1  0
 19 46  1  0
 19 47  1  0
 22 48  1  0
 23 49  1  0
M  CHG  1   6   1
M  END
>  <ScrubInfo>  (4) 
{"isomerGroup": 0, "isomerId": 3, "confId": 0, "nr_conformers:": 1, "nr_isomers:": 9}

$$$$
_i4
     RDKit          3D

 49 51  0  0  0  0  0  0  0  0999 V2000
   -1.1510   -1.5164    0.3836 N   0  0  0  0  0  0  0  0  0  0  0  0
   -1.3993   -0.1938    0.3183 C   0  0  0  0  0  0  0  0  0  0  0  0
   -2.6992    0.2207    0.3494 N   0  0  0  0  0  0  0  0  0  0  0  0
   -3.7090   -0.3450    1.2447 C   0  0  0  0  0  0  0  0  0  0  0  0
   -5.0928    0.1912    0.8205 C   0  0  0  0  0  0  0  0  0  0  0  0
   -5.1959    0.1658   -0.7025 N   0  0  0  0  0  4  0  0  0  0  0  0
   -6.0683    1.2575   -1.2455 C   0  0  0  0  0  0  0  0  0  0  0  0
   -5.5677   -1.1786   -1.2529 C   0  0  0  0  0  0  0  0  0  0  0  0
   -0.5096    0.7376    0.2051 N   0  0  0  0  0  0  0  0  0  0  0  0
    0.8364    0.3951    0.1639 C   0  0  0  0  0  0  0  0  0  0  0  0
    1.6074    1.4385    0.0972 N   0  0  0  0  0  0  0  0  0  0  0  0
    3.0034    1.3345    0.0463 C   0  0  0  0  0  0  0  0  0  0  0  0
    3.6361    1.2733   -1.2031 C   0  0  0  0  0  0  0  0  0  0  0  0
    5.0308    1.1989   -1.3075 C   0  0  0  0  0  0  0  0  0  0  0  0
    5.6909    1.1577   -2.6528 C   0  0  0  0  0  0  0  0  0  0  0  0
    5.7976    1.2279   -0.1397 C   0  0  0  0  0  0  0  0  0  0  0  0
    5.1803    1.3165    1.1099 C   0  0  0  0  0  0  0  0  0  0  0  0
    3.7830    1.3832    1.2150 C   0  0  0  0  0  0  0  0  0  0  0  0
    3.1391    1.4949    2.5667 C   0  0  0  0  0  0  0  0  0  0  0  0
    1.2153   -1.0587    0.1996 C   0  0  0  0  0  0  0  0  0  0  0  0
    2.5093   -1.4567    0.1237 N   0  0  0  0  0  0  0  0  0  0  0  0
    2.7131   -2.7906    0.1544 C   0  0  0  0  0  0  0  0  0  0  0  0
    1.6681   -3.6943    0.2524 C   0  0  0  0  0  0  0  0  0  0  0  0
    0.3703   -3.3057    0.3259 N   0  0  0  0  0  0  0  0  0  0  0  0
    0.1602   -1.9673    0.3009 C   0  0  0  0  0  0  0  0  0  0  0  0
   -1.8395   -2.2472    0.4003 H   0  0  0  0  0  0  0  0  0  0  0  0
   -2.6379    1.2415    0.4371 H   0  0  0  0  0  0  0  0  0  0  0  0
   -3.4983   -0.0712    2.2837 H   0  0  0  0  0  0  0  0  0  0  0  0
   -3.7161   -1.4376    1.1773 H   0  0  0  0  0  0  0  0  0  0  0  0
   -5.9229   -0.3846    1.2413 H   0  0  0  0  0  0  0  0  0  0  0  0
   -5.1831    1.2391    1.1275 H   0  0  0  0  0  0  0  0  0  0  0  0
   -4.2287    0.3566   -1.0268 H   0  0  0  0  0  0  0  0  0  0  0  0
   -5.6666    2.2157   -0.9056 H   0  0  0  0  0  0  0  0  0  0  0  0
   -6.0355    1.2103   -2.3372 H   0  0  0  0  0  0  0  0  0  0  0  0
   -7.0855    1.1042   -0.8758 H   0  0  0  0  0  0  0  0  0  0  0  0
   -5.5188   -1.1249   -2.3437 H   0  0  0  0  0  0  0  0  0  0  0  0
   -6.5794   -1.4233   -0.9187 H   0  0  0  0  0  0  0  0  0  0  0  0
   -4.8471   -1.9138   -0.8874 H   0  0  0  0  0  0  0  0  0  0  0  0
    3.0234    1.2840   -2.1005 H   0  0  0  0  0  0  0  0  0  0  0  0
    5.8765    2.1752   -3.0101 H   0  0  0  0  0  0  0  0  0  0  0  0
    6.6437    0.6201   -2.6044 H   0  0  0  0  0  0  0  0  0  0  0  0
    5.0608    0.6357   -3.3807 H   0  0  0  0  0  0  0  0  0  0  0  0
    6.8835    1.1922   -0.1941 H   0  0  0  0  0  0  0  0  0  0  0  0
    5.8002    1.3457    2.0030 H   0  0  0  0  0  0  0  0  0  0  0  0
    3.8846    1.6486    3.3541 H   0  0  0  0  0  0  0  0  0  0  0  0
    2.4541    2.3485    2.5965 H   0  0  0  0  0  0  0  0  0  0  0  0
    2.5885    0.5784    2.8008 H   0  0  0  0  0  0  0  0  0  0  0  0
    3.7468   -3.1155    0.0968 H   0  0  0  0  0  0  0  0  0  0  0  0
    1.8488   -4.7640    0.2750 H   0  0  0  0  0  0  0  0  0  0  0  0
  1  2  1  0
  2  3  1  0
  3  4  1  0
  4  5  1  0
  5  6  1  0
  6  7  1  0
  6  8  1  0
  2  9  2  0
  9 10  1  0
 10 11  2  3
 11 12  1  0
 12 13  2  0
 13 14  1  0
 14 15  1  0
 14 16  2  0
 16 17  1  0
 17 18  2  0
 18 19  1  0
 10 20  1  0
 20 21  2  0
 21 22  1  0
 22 23  2  0
 23 24  1  0
 24 25  2  0
 25  1  1  0
 18 12  1  0
 25 20  1  0
  1 26  1  0
  3 27  1  0
  4 28  1  0
  4 29  1  0
  5 30  1  0
  5 31  1  0
  6 32  1  0
  7 33  1  0
  7 34  1  0
  7 35  1  0
  8 36  1  0
  8 37  1  0
  8 38  1  0
 13 39  1  0
 15 40  1  0
 15 41  1  0
 15 42  1  0
 16 43  1  0
 17 44  1  0
 19 45  1  0
 19 46  1  0
 19 47  1  0
 22 48  1  0
 23 49  1  0
M  CHG  1   6   1
M  END
>  <ScrubInfo>  (5) 
{"isomerGroup": 0, "isomerId": 4, "confId": 0, "nr_conformers:": 1, "nr_isomers:": 9}

$$$$
_i5
     RDKit          3D

 49 51  0  0  0  0  0  0  0  0999 V2000
    0.3490   -3.6042    0.8140 N   0  0  0  0  0  0  0  0  0  0  0  0
    1.6642   -3.9863    0.8108 C   0  0  0  0  0  0  0  0  0  0  0  0
    2.6468   -3.0771    0.7079 C   0  0  0  0  0  0  0  0  0  0  0  0
    2.4260   -1.7212    0.5801 N   0  0  0  0  0  0  0  0  0  0  0  0
    1.1851   -1.3137    0.5796 C   0  0  0  0  0  0  0  0  0  0  0  0
    0.8301    0.1430    0.3967 C   0  0  0  0  0  0  0  0  0  0  0  0
    1.7714    1.0933    0.0596 N   0  0  0  0  0  0  0  0  0  0  0  0
    2.7483    0.8851   -0.9457 C   0  0  0  0  0  0  0  0  0  0  0  0
    4.0784    1.2015   -0.6217 C   0  0  0  0  0  0  0  0  0  0  0  0
    5.1083    1.0839   -1.5624 C   0  0  0  0  0  0  0  0  0  0  0  0
    6.5203    1.4278   -1.1921 C   0  0  0  0  0  0  0  0  0  0  0  0
    4.7902    0.6920   -2.8629 C   0  0  0  0  0  0  0  0  0  0  0  0
    3.4674    0.4153   -3.2120 C   0  0  0  0  0  0  0  0  0  0  0  0
    2.4301    0.5302   -2.2714 C   0  0  0  0  0  0  0  0  0  0  0  0
    1.0238    0.2539   -2.7243 C   0  0  0  0  0  0  0  0  0  0  0  0
   -0.4075    0.4975    0.5841 N   0  0  0  0  0  0  0  0  0  0  0  0
   -1.3323   -0.4497    0.9103 C   0  0  0  0  0  0  0  0  0  0  0  0
   -2.4785    0.0537    1.2155 N   0  0  0  0  0  0  0  0  0  0  0  0
   -3.5561   -0.8790    1.5816 C   0  0  0  0  0  0  0  0  0  0  0  0
   -4.7251   -0.0322    2.1100 C   0  0  0  0  0  0  0  0  0  0  0  0
   -4.7816    1.2615    1.3144 N   0  0  0  0  0  4  0  0  0  0  0  0
   -5.2902    2.4198    2.1058 C   0  0  0  0  0  0  0  0  0  0  0  0
   -5.4576    1.1185   -0.0110 C   0  0  0  0  0  0  0  0  0  0  0  0
   -1.1727   -1.8052    0.9200 N   0  0  0  0  0  0  0  0  0  0  0  0
    0.0246   -2.2713    0.7778 C   0  0  0  0  0  0  0  0  0  0  0  0
   -0.3647   -4.2966    1.0000 H   0  0  0  0  0  0  0  0  0  0  0  0
    1.8565   -5.0502    0.9045 H   0  0  0  0  0  0  0  0  0  0  0  0
    3.6888   -3.3894    0.7090 H   0  0  0  0  0  0  0  0  0  0  0  0
    1.3530    2.0099   -0.0694 H   0  0  0  0  0  0  0  0  0  0  0  0
    4.3157    1.5182    0.3925 H   0  0  0  0  0  0  0  0  0  0  0  0
    6.7167    1.1907   -0.1412 H   0  0  0  0  0  0  0  0  0  0  0  0
    6.7004    2.4949   -1.3545 H   0  0  0  0  0  0  0  0  0  0  0  0
    7.2334    0.8533   -1.7927 H   0  0  0  0  0  0  0  0  0  0  0  0
    5.5696    0.6050   -3.6172 H   0  0  0  0  0  0  0  0  0  0  0  0
    3.2515    0.1204   -4.2373 H   0  0  0  0  0  0  0  0  0  0  0  0
    0.9474    0.2656   -3.8171 H   0  0  0  0  0  0  0  0  0  0  0  0
    0.6986   -0.7307   -2.3757 H   0  0  0  0  0  0  0  0  0  0  0  0
    0.3374    1.0220   -2.3542 H   0  0  0  0  0  0  0  0  0  0  0  0
   -3.8818   -1.4389    0.6973 H   0  0  0  0  0  0  0  0  0  0  0  0
   -3.2519   -1.5881    2.3601 H   0  0  0  0  0  0  0  0  0  0  0  0
   -5.6929   -0.5385    2.0432 H   0  0  0  0  0  0  0  0  0  0  0  0
   -4.5285    0.2432    3.1521 H   0  0  0  0  0  0  0  0  0  0  0  0
   -3.7740    1.4341    1.1161 H   0  0  0  0  0  0  0  0  0  0  0  0
   -4.6607    2.5341    2.9923 H   0  0  0  0  0  0  0  0  0  0  0  0
   -5.2179    3.3172    1.4857 H   0  0  0  0  0  0  0  0  0  0  0  0
   -6.3280    2.2203    2.3853 H   0  0  0  0  0  0  0  0  0  0  0  0
   -4.9750    0.3109   -0.5664 H   0  0  0  0  0  0  0  0  0  0  0  0
   -5.3417    2.0595   -0.5554 H   0  0  0  0  0  0  0  0  0  0  0  0
   -6.5142    0.8961    0.1602 H   0  0  0  0  0  0  0  0  0  0  0  0
  1  2  1  0
  2  3  2  0
  3  4  1  0
  4  5  2  0
  5  6  1  0
  6  7  1  0
  7  8  1  0
  8  9  2  0
  9 10  1  0
 10 11  1  0
 10 12  2  0
 12 13  1  0
 13 14  2  0
 14 15  1  0
  6 16  2  0
 16 17  1  0
 17 18  2  3
 18 19  1  0
 19 20  1  0
 20 21  1  0
 21 22  1  0
 21 23  1  0
 17 24  1  0
 24 25  2  0
 25  1  1  0
 25  5  1  0
 14  8  1  0
  1 26  1  0
  2 27  1  0
  3 28  1  0
  7 29  1  0
  9 30  1  0
 11 31  1  0
 11 32  1  0
 11 33  1  0
 12 34  1  0
 13 35  1  0
 15 36  1  0
 15 37  1  0
 15 38  1  0
 19 39  1  0
 19 40  1  0
 20 41  1  0
 20 42  1  0
 21 43  1  0
 22 44  1  0
 22 45  1  0
 22 46  1  0
 23 47  1  0
 23 48  1  0
 23 49  1  0
M  CHG  1  21   1
M  END
>  <ScrubInfo>  (6) 
{"isomerGroup": 0, "isomerId": 5, "confId": 0, "nr_conformers:": 1, "nr_isomers:": 9}

$$$$
_i6
     RDKit          3D

 49 51  0  0  0  0  0  0  0  0999 V2000
   -0.4530   -4.2225   -0.4704 N   0  0  0  0  0  0  0  0  0  0  0  0
    0.5530   -5.1325   -0.2776 C   0  0  0  0  0  0  0  0  0  0  0  0
    1.7525   -4.7488    0.1878 C   0  0  0  0  0  0  0  0  0  0  0  0
    2.0690   -3.4442    0.5061 N   0  0  0  0  0  0  0  0  0  0  0  0
    1.1283   -2.5495    0.3519 C   0  0  0  0  0  0  0  0  0  0  0  0
    1.3173   -1.0953    0.6521 C   0  0  0  0  0  0  0  0  0  0  0  0
    2.4896   -0.6785    1.0207 N   0  0  0  0  0  0  0  0  0  0  0  0
    2.6741    0.6860    1.2980 C   0  0  0  0  0  0  0  0  0  0  0  0
    2.3736    1.1757    2.5766 C   0  0  0  0  0  0  0  0  0  0  0  0
    2.5571    2.5265    2.8979 C   0  0  0  0  0  0  0  0  0  0  0  0
    2.2694    3.0234    4.2832 C   0  0  0  0  0  0  0  0  0  0  0  0
    3.0835    3.3855    1.9294 C   0  0  0  0  0  0  0  0  0  0  0  0
    3.4075    2.9051    0.6586 C   0  0  0  0  0  0  0  0  0  0  0  0
    3.2132    1.5546    0.3334 C   0  0  0  0  0  0  0  0  0  0  0  0
    3.5984    1.0464   -1.0263 C   0  0  0  0  0  0  0  0  0  0  0  0
    0.2546   -0.2395    0.5184 N   0  0  0  0  0  0  0  0  0  0  0  0
   -0.8811   -0.6904    0.0933 C   0  0  0  0  0  0  0  0  0  0  0  0
   -1.8645    0.2502   -0.0080 N   0  0  0  0  0  0  0  0  0  0  0  0
   -3.2799   -0.0551   -0.0039 C   0  0  0  0  0  0  0  0  0  0  0  0
   -4.0442    0.8242   -1.0136 C   0  0  0  0  0  0  0  0  0  0  0  0
   -3.6263    0.6535   -2.4704 N   0  0  0  0  0  4  0  0  0  0  0  0
   -3.7715   -0.7488   -2.9858 C   0  0  0  0  0  0  0  0  0  0  0  0
   -2.2748    1.2288   -2.8049 C   0  0  0  0  0  0  0  0  0  0  0  0
   -1.1573   -1.9786   -0.2702 N   0  0  0  0  0  0  0  0  0  0  0  0
   -0.2531   -2.9004   -0.1554 C   0  0  0  0  0  0  0  0  0  0  0  0
   -1.3653   -4.5514   -0.7530 H   0  0  0  0  0  0  0  0  0  0  0  0
    0.3215   -6.1654   -0.5171 H   0  0  0  0  0  0  0  0  0  0  0  0
    2.5454   -5.4782    0.3389 H   0  0  0  0  0  0  0  0  0  0  0  0
    2.0018    0.4834    3.3279 H   0  0  0  0  0  0  0  0  0  0  0  0
    3.1576    2.9128    4.9128 H   0  0  0  0  0  0  0  0  0  0  0  0
    1.4430    2.4642    4.7343 H   0  0  0  0  0  0  0  0  0  0  0  0
    1.9762    4.0784    4.2666 H   0  0  0  0  0  0  0  0  0  0  0  0
    3.2650    4.4323    2.1639 H   0  0  0  0  0  0  0  0  0  0  0  0
    3.8347    3.5901   -0.0705 H   0  0  0  0  0  0  0  0  0  0  0  0
    4.3412    0.2469   -0.9380 H   0  0  0  0  0  0  0  0  0  0  0  0
    4.0382    1.8388   -1.6411 H   0  0  0  0  0  0  0  0  0  0  0  0
    2.7172    0.6681   -1.5542 H   0  0  0  0  0  0  0  0  0  0  0  0
   -1.5892    1.0861    0.5064 H   0  0  0  0  0  0  0  0  0  0  0  0
   -3.4774   -1.1098   -0.2217 H   0  0  0  0  0  0  0  0  0  0  0  0
   -3.6757    0.1330    1.0006 H   0  0  0  0  0  0  0  0  0  0  0  0
   -5.1143    0.5914   -0.9766 H   0  0  0  0  0  0  0  0  0  0  0  0
   -3.9225    1.8880   -0.7800 H   0  0  0  0  0  0  0  0  0  0  0  0
   -4.2957    1.2223   -3.0041 H   0  0  0  0  0  0  0  0  0  0  0  0
   -4.7783   -1.0981   -2.7427 H   0  0  0  0  0  0  0  0  0  0  0  0
   -3.6392   -0.7222   -4.0709 H   0  0  0  0  0  0  0  0  0  0  0  0
   -3.0118   -1.3825   -2.5231 H   0  0  0  0  0  0  0  0  0  0  0  0
   -2.1740    2.1960   -2.3065 H   0  0  0  0  0  0  0  0  0  0  0  0
   -2.2410    1.3689   -3.8893 H   0  0  0  0  0  0  0  0  0  0  0  0
   -1.4929    0.5311   -2.5010 H   0  0  0  0  0  0  0  0  0  0  0  0
  1  2  1  0
  2  3  2  0
  3  4  1  0
  4  5  2  0
  5  6  1  0
  6  7  2  3
  7  8  1  0
  8  9  2  0
  9 10  1  0
 10 11  1  0
 10 12  2  0
 12 13  1  0
 13 14  2  0
 14 15  1  0
  6 16  1  0
 16 17  2  0
 17 18  1  0
 18 19  1  0
 19 20  1  0
 20 21  1  0
 21 22  1  0
 21 23  1  0
 17 24  1  0
 24 25  2  0
 25  1  1  0
 25  5  1  0
 14  8  1  0
  1 26  1  0
  2 27  1  0
  3 28  1  0
  9 29  1  0
 11 30  1  0
 11 31  1  0
 11 32  1  0
 12 33  1  0
 13 34  1  0
 15 35  1  0
 15 36  1  0
 15 37  1  0
 18 38  1  0
 19 39  1  0
 19 40  1  0
 20 41  1  0
 20 42  1  0
 21 43  1  0
 22 44  1  0
 22 45  1  0
 22 46  1  0
 23 47  1  0
 23 48  1  0
 23 49  1  0
M  CHG  1  21   1
M  END
>  <ScrubInfo>  (7) 
{"isomerGroup": 0, "isomerId": 6, "confId": 0, "nr_conformers:": 1, "nr_isomers:": 9}

$$$$
_i7
     RDKit          3D

 49 51  0  0  0  0  0  0  0  0999 V2000
   -1.0256   -1.9538    0.3782 N   0  0  0  0  0  0  0  0  0  0  0  0
   -1.4924   -0.6775    0.5152 C   0  0  0  0  0  0  0  0  0  0  0  0
   -2.6982   -0.2983    0.7989 N   0  0  0  0  0  0  0  0  0  0  0  0
   -3.7033   -1.3520    1.0224 C   0  0  0  0  0  0  0  0  0  0  0  0
   -4.9981   -0.6686    1.4970 C   0  0  0  0  0  0  0  0  0  0  0  0
   -5.1667    0.6348    0.7365 N   0  0  0  0  0  4  0  0  0  0  0  0
   -5.7282    0.4578   -0.6392 C   0  0  0  0  0  0  0  0  0  0  0  0
   -5.8868    1.6830    1.5215 C   0  0  0  0  0  0  0  0  0  0  0  0
   -0.5335    0.2725    0.3118 N   0  0  0  0  0  0  0  0  0  0  0  0
    0.8011    0.1338   -0.0013 C   0  0  0  0  0  0  0  0  0  0  0  0
    1.4699    1.2506   -0.1349 N   0  0  0  0  0  0  0  0  0  0  0  0
    2.8352    1.2629   -0.4553 C   0  0  0  0  0  0  0  0  0  0  0  0
    3.2176    1.3108   -1.8030 C   0  0  0  0  0  0  0  0  0  0  0  0
    4.5677    1.3585   -2.1725 C   0  0  0  0  0  0  0  0  0  0  0  0
    4.9583    1.4308   -3.6181 C   0  0  0  0  0  0  0  0  0  0  0  0
    5.5409    1.3992   -1.1707 C   0  0  0  0  0  0  0  0  0  0  0  0
    5.1712    1.3772    0.1758 C   0  0  0  0  0  0  0  0  0  0  0  0
    3.8194    1.3212    0.5464 C   0  0  0  0  0  0  0  0  0  0  0  0
    3.4435    1.3073    1.9998 C   0  0  0  0  0  0  0  0  0  0  0  0
    1.2739   -1.2809   -0.1376 C   0  0  0  0  0  0  0  0  0  0  0  0
    2.5618   -1.5650   -0.4376 N   0  0  0  0  0  0  0  0  0  0  0  0
    2.8570   -2.8787   -0.5280 C   0  0  0  0  0  0  0  0  0  0  0  0
    1.9049   -3.8654   -0.3283 C   0  0  0  0  0  0  0  0  0  0  0  0
    0.6110   -3.5858   -0.0282 N   0  0  0  0  0  0  0  0  0  0  0  0
    0.3007   -2.2713    0.0680 C   0  0  0  0  0  0  0  0  0  0  0  0
   -1.5964   -2.7757    0.4987 H   0  0  0  0  0  0  0  0  0  0  0  0
   -3.8940   -1.8891    0.0863 H   0  0  0  0  0  0  0  0  0  0  0  0
   -3.3791   -2.0711    1.7830 H   0  0  0  0  0  0  0  0  0  0  0  0
   -5.8901   -1.2862    1.3535 H   0  0  0  0  0  0  0  0  0  0  0  0
   -4.8999   -0.4091    2.5569 H   0  0  0  0  0  0  0  0  0  0  0  0
   -4.1833    0.9486    0.6200 H   0  0  0  0  0  0  0  0  0  0  0  0
   -5.7065    1.4280   -1.1427 H   0  0  0  0  0  0  0  0  0  0  0  0
   -5.1028   -0.2529   -1.1844 H   0  0  0  0  0  0  0  0  0  0  0  0
   -6.7531    0.0878   -0.5511 H   0  0  0  0  0  0  0  0  0  0  0  0
   -5.8929    2.6060    0.9357 H   0  0  0  0  0  0  0  0  0  0  0  0
   -6.9049    1.3344    1.7136 H   0  0  0  0  0  0  0  0  0  0  0  0
   -5.3446    1.8448    2.4569 H   0  0  0  0  0  0  0  0  0  0  0  0
   -0.8153    1.2382    0.4151 H   0  0  0  0  0  0  0  0  0  0  0  0
    2.4461    1.3069   -2.5679 H   0  0  0  0  0  0  0  0  0  0  0  0
    4.9978    2.4749   -3.9436 H   0  0  0  0  0  0  0  0  0  0  0  0
    5.9390    0.9718   -3.7816 H   0  0  0  0  0  0  0  0  0  0  0  0
    4.2396    0.8914   -4.2440 H   0  0  0  0  0  0  0  0  0  0  0  0
    6.5957    1.4555   -1.4308 H   0  0  0  0  0  0  0  0  0  0  0  0
    5.9483    1.4138    0.9359 H   0  0  0  0  0  0  0  0  0  0  0  0
    4.3127    1.4908    2.6404 H   0  0  0  0  0  0  0  0  0  0  0  0
    2.7104    2.0916    2.2146 H   0  0  0  0  0  0  0  0  0  0  0  0
    3.0247    0.3337    2.2731 H   0  0  0  0  0  0  0  0  0  0  0  0
    3.8875   -3.1197   -0.7671 H   0  0  0  0  0  0  0  0  0  0  0  0
    2.1599   -4.9176   -0.4050 H   0  0  0  0  0  0  0  0  0  0  0  0
  1  2  1  0
  2  3  2  3
  3  4  1  0
  4  5  1  0
  5  6  1  0
  6  7  1  0
  6  8  1  0
  2  9  1  0
  9 10  1  0
 10 11  2  3
 11 12  1  0
 12 13  2  0
 13 14  1  0
 14 15  1  0
 14 16  2  0
 16 17  1  0
 17 18  2  0
 18 19  1  0
 10 20  1  0
 20 21  2  0
 21 22  1  0
 22 23  2  0
 23 24  1  0
 24 25  2  0
 25  1  1  0
 18 12  1  0
 25 20  1  0
  1 26  1  0
  4 27  1  0
  4 28  1  0
  5 29  1  0
  5 30  1  0
  6 31  1  0
  7 32  1  0
  7 33  1  0
  7 34  1  0
  8 35  1  0
  8 36  1  0
  8 37  1  0
  9 38  1  0
 13 39  1  0
 15 40  1  0
 15 41  1  0
 15 42  1  0
 16 43  1  0
 17 44  1  0
 19 45  1  0
 19 46  1  0
 19 47  1  0
 22 48  1  0
 23 49  1  0
M  CHG  1   6   1
M  END
>  <ScrubInfo>  (8) 
{"isomerGroup": 0, "isomerId": 7, "confId": 0, "nr_conformers:": 1, "nr_isomers:": 9}

$$$$
_i8
     RDKit          3D

 49 51  0  0  0  0  0  0  0  0999 V2000
   -1.0236   -4.2001    0.9424 N   0  0  0  0  0  0  0  0  0  0  0  0
   -0.2078   -5.0114    1.6841 C   0  0  0  0  0  0  0  0  0  0  0  0
    1.0203   -4.6133    2.0502 C   0  0  0  0  0  0  0  0  0  0  0  0
    1.5618   -3.3896    1.7197 N   0  0  0  0  0  0  0  0  0  0  0  0
    0.8322   -2.5828    0.9961 C   0  0  0  0  0  0  0  0  0  0  0  0
    1.3461   -1.2213    0.5785 C   0  0  0  0  0  0  0  0  0  0  0  0
    2.5316   -0.8531    0.9513 N   0  0  0  0  0  0  0  0  0  0  0  0
    2.9965    0.4106    0.5578 C   0  0  0  0  0  0  0  0  0  0  0  0
    2.7734    1.5071    1.4007 C   0  0  0  0  0  0  0  0  0  0  0  0
    3.1839    2.7949    1.0361 C   0  0  0  0  0  0  0  0  0  0  0  0
    2.9850    3.9510    1.9708 C   0  0  0  0  0  0  0  0  0  0  0  0
    3.8527    2.9715   -0.1782 C   0  0  0  0  0  0  0  0  0  0  0  0
    4.1011    1.8814   -1.0152 C   0  0  0  0  0  0  0  0  0  0  0  0
    3.6884    0.5918   -0.6515 C   0  0  0  0  0  0  0  0  0  0  0  0
    3.9901   -0.5723   -1.5528 C   0  0  0  0  0  0  0  0  0  0  0  0
    0.4360   -0.5354   -0.1770 N   0  0  0  0  0  0  0  0  0  0  0  0
   -0.7935   -0.9512   -0.5743 C   0  0  0  0  0  0  0  0  0  0  0  0
   -1.5043   -0.1640   -1.3155 N   0  0  0  0  0  0  0  0  0  0  0  0
   -2.8011   -0.6481   -1.8068 C   0  0  0  0  0  0  0  0  0  0  0  0
   -3.9312   -0.4000   -0.7982 C   0  0  0  0  0  0  0  0  0  0  0  0
   -4.2632    1.0692   -0.5730 N   0  0  0  0  0  4  0  0  0  0  0  0
   -4.8055    1.7621   -1.7884 C   0  0  0  0  0  0  0  0  0  0  0  0
   -3.1591    1.8574    0.0725 C   0  0  0  0  0  0  0  0  0  0  0  0
   -1.3149   -2.1605   -0.1911 N   0  0  0  0  0  0  0  0  0  0  0  0
   -0.5870   -2.9639    0.5327 C   0  0  0  0  0  0  0  0  0  0  0  0
   -1.9172   -4.5556    0.6311 H   0  0  0  0  0  0  0  0  0  0  0  0
   -0.6099   -5.9836    1.9506 H   0  0  0  0  0  0  0  0  0  0  0  0
    1.6587   -5.2685    2.6389 H   0  0  0  0  0  0  0  0  0  0  0  0
    2.2881    1.3415    2.3601 H   0  0  0  0  0  0  0  0  0  0  0  0
    3.8433    4.0405    2.6436 H   0  0  0  0  0  0  0  0  0  0  0  0
    2.0778    3.8168    2.5693 H   0  0  0  0  0  0  0  0  0  0  0  0
    2.8712    4.8875    1.4147 H   0  0  0  0  0  0  0  0  0  0  0  0
    4.2097    3.9572   -0.4715 H   0  0  0  0  0  0  0  0  0  0  0  0
    4.6436    2.0436   -1.9448 H   0  0  0  0  0  0  0  0  0  0  0  0
    4.4677   -1.3808   -0.9898 H   0  0  0  0  0  0  0  0  0  0  0  0
    4.6765   -0.2876   -2.3573 H   0  0  0  0  0  0  0  0  0  0  0  0
    3.0685   -0.9437   -2.0118 H   0  0  0  0  0  0  0  0  0  0  0  0
    0.7367    0.3534   -0.5535 H   0  0  0  0  0  0  0  0  0  0  0  0
   -3.0145   -0.1394   -2.7527 H   0  0  0  0  0  0  0  0  0  0  0  0
   -2.7641   -1.7137   -2.0655 H   0  0  0  0  0  0  0  0  0  0  0  0
   -4.8578   -0.8677   -1.1491 H   0  0  0  0  0  0  0  0  0  0  0  0
   -3.6976   -0.8159    0.1876 H   0  0  0  0  0  0  0  0  0  0  0  0
   -5.0280    1.0596    0.1127 H   0  0  0  0  0  0  0  0  0  0  0  0
   -5.6161    1.1530   -2.1966 H   0  0  0  0  0  0  0  0  0  0  0  0
   -5.1946    2.7342   -1.4733 H   0  0  0  0  0  0  0  0  0  0  0  0
   -4.0022    1.8907   -2.5175 H   0  0  0  0  0  0  0  0  0  0  0  0
   -2.7511    1.2719    0.9003 H   0  0  0  0  0  0  0  0  0  0  0  0
   -3.5992    2.7811    0.4591 H   0  0  0  0  0  0  0  0  0  0  0  0
   -2.3974    2.0952   -0.6729 H   0  0  0  0  0  0  0  0  0  0  0  0
  1  2  1  0
  2  3  2  0
  3  4  1  0
  4  5  2  0
  5  6  1  0
  6  7  2  3
  7  8  1  0
  8  9  2  0
  9 10  1  0
 10 11  1  0
 10 12  2  0
 12 13  1  0
 13 14  2  0
 14 15  1  0
  6 16  1  0
 16 17  1  0
 17 18  2  3
 18 19  1  0
 19 20  1  0
 20 21  1  0
 21 22  1  0
 21 23  1  0
 17 24  1  0
 24 25  2  0
 25  1  1  0
 25  5  1  0
 14  8  1  0
  1 26  1  0
  2 27  1  0
  3 28  1  0
  9 29  1  0
 11 30  1  0
 11 31  1  0
 11 32  1  0
 12 33  1  0
 13 34  1  0
 15 35  1  0
 15 36  1  0
 15 37  1  0
 16 38  1  0
 19 39  1  0
 19 40  1  0
 20 41  1  0
 20 42  1  0
 21 43  1  0
 22 44  1  0
 22 45  1  0
 22 46  1  0
 23 47  1  0
 23 48  1  0
 23 49  1  0
M  CHG  1  21   1
M  END
>  <ScrubInfo>  (9) 
{"isomerGroup": 0, "isomerId": 8, "confId": 0, "nr_conformers:": 1, "nr_isomers:": 9}

$$$$
