_i0
     RDKit          3D

 45 47  0  0  0  0  0  0  0  0999 V2000
    4.3459    1.0551   -2.2272 C   0  0  0  0  0  0  0  0  0  0  0  0
    2.8809    1.4488   -2.0378 C   0  0  0  0  0  0  0  0  0  0  0  0
    2.7140    2.2858   -0.7698 C   0  0  0  0  0  0  0  0  0  0  0  0
    1.9385    0.2305   -2.0690 C   0  0  0  0  0  0  0  0  0  0  0  0
    2.1430   -0.7846   -0.9412 C   0  0  0  0  0  0  0  0  0  0  0  0
    1.2307   -1.9060   -1.1126 N   0  0  0  0  0  0  0  0  0  0  0  0
    0.1395   -1.9262   -0.2499 C   0  0  0  0  0  0  0  0  0  0  0  0
   -0.4964   -0.7802    0.0623 N   0  0  0  0  0  0  0  0  0  0  0  0
   -1.5555   -0.7811    0.9163 C   0  0  0  0  0  0  0  0  0  0  0  0
   -2.2209    0.3958    1.2807 N   0  0  0  0  0  0  0  0  0  0  0  0
   -2.1493    1.7221    0.8095 C   0  0  0  0  0  0  0  0  0  0  0  0
   -1.4877    2.0758   -0.3711 C   0  0  0  0  0  0  0  0  0  0  0  0
   -1.4209    3.4076   -0.7975 C   0  0  0  0  0  0  0  0  0  0  0  0
   -2.0138    4.4173   -0.0452 C   0  0  0  0  0  0  0  0  0  0  0  0
   -2.6793    4.0957    1.1343 C   0  0  0  0  0  0  0  0  0  0  0  0
   -2.7446    2.7634    1.5541 C   0  0  0  0  0  0  0  0  0  0  0  0
   -3.5897    2.4161    3.0277 Cl  0  0  0  0  0  0  0  0  0  0  0  0
   -1.9349   -2.0191    1.4501 C   0  0  0  0  0  0  0  0  0  0  0  0
   -2.9074   -2.5320    2.3345 C   0  0  0  0  0  0  0  0  0  0  0  0
   -2.8187   -3.8571    2.4954 N   0  0  0  0  0  0  0  0  0  0  0  0
   -1.7811   -4.1958    1.6948 N   0  0  0  0  0  0  0  0  0  0  0  0
   -1.3835   -5.5775    1.5962 C   0  0  0  0  0  0  0  0  0  0  0  0
   -1.2155   -3.1280    1.0531 C   0  0  0  0  0  0  0  0  0  0  0  0
   -0.1738   -3.1440    0.2103 N   0  0  0  0  0  0  0  0  0  0  0  0
    4.9710    1.9476   -2.3395 H   0  0  0  0  0  0  0  0  0  0  0  0
    4.4726    0.4447   -3.1273 H   0  0  0  0  0  0  0  0  0  0  0  0
    4.7296    0.4893   -1.3723 H   0  0  0  0  0  0  0  0  0  0  0  0
    2.6023    2.0854   -2.8882 H   0  0  0  0  0  0  0  0  0  0  0  0
    1.6655    2.5575   -0.6163 H   0  0  0  0  0  0  0  0  0  0  0  0
    3.2904    3.2144   -0.8455 H   0  0  0  0  0  0  0  0  0  0  0  0
    3.0638    1.7532    0.1201 H   0  0  0  0  0  0  0  0  0  0  0  0
    0.9029    0.5889   -2.0542 H   0  0  0  0  0  0  0  0  0  0  0  0
    2.0581   -0.2807   -3.0338 H   0  0  0  0  0  0  0  0  0  0  0  0
    3.1626   -1.1822   -0.9975 H   0  0  0  0  0  0  0  0  0  0  0  0
    2.0501   -0.3202    0.0474 H   0  0  0  0  0  0  0  0  0  0  0  0
    1.6649   -2.8171   -1.0064 H   0  0  0  0  0  0  0  0  0  0  0  0
   -2.8706    0.2901    2.0513 H   0  0  0  0  0  0  0  0  0  0  0  0
   -1.0280    1.3158   -0.9947 H   0  0  0  0  0  0  0  0  0  0  0  0
   -0.9029    3.6489   -1.7229 H   0  0  0  0  0  0  0  0  0  0  0  0
   -1.9592    5.4503   -0.3787 H   0  0  0  0  0  0  0  0  0  0  0  0
   -3.1443    4.8825    1.7220 H   0  0  0  0  0  0  0  0  0  0  0  0
   -3.6807   -1.9966    2.8699 H   0  0  0  0  0  0  0  0  0  0  0  0
   -0.5481   -5.6786    0.8999 H   0  0  0  0  0  0  0  0  0  0  0  0
   -1.0819   -5.9197    2.5894 H   0  0  0  0  0  0  0  0  0  0  0  0
   -2.2376   -6.1563    1.2356 H   0  0  0  0  0  0  0  0  0  0  0  0
  1  2  1  0
  2  3  1  0
  2  4  1  0
  4  5  1  0
  5  6  1  0
  6  7  1  0
  7  8  2  0
  8  9  1  0
  9 10  1  0
 10 11  1  0
 11 12  2  0
 12 13  1  0
 13 14  2  0
 14 15  1  0
 15 16  2  0
 16 17  1  0
  9 18  2  0
 18 19  1  0
 19 20  2  0
 20 21  1  0
 21 22  1  0
 21 23  1  0
 23 24  2  0
 24  7  1  0
 16 11  1  0
 23 18  1  0
  1 25  1  0
  1 26  1  0
  1 27  1  0
  2 28  1  0
  3 29  1  0
  3 30  1  0
  3 31  1  0
  4 32  1  0
  4 33  1  0
  5 34  1  0
  5 35  1  0
  6 36  1  0
 10 37  1  0
 12 38  1  0
 13 39  1  0
 14 40  1  0
 15 41  1  0
 19 42  1  0
 22 43  1  0
 22 44  1  0
 22 45  1  0
M  END
>  <ScrubInfo>  (1) 
{"isomerGroup": 0, "isomerId": 0, "confId": 0, "nr_conformers:": 1, "nr_isomers:": 9}

$$$$
_i1
     RDKit          3D

 45 47  0  0  0  0  0  0  0  0999 V2000
    0.0823    0.3545    1.1351 N   0  0  0  0  0  0  0  0  0  0  0  0
    1.3991    0.5457    0.7598 C   0  0  0  0  0  0  0  0  0  0  0  0
    2.3739   -0.3621    1.1170 N   0  0  0  0  0  0  0  0  0  0  0  0
    3.2144   -1.1137    0.2539 C   0  0  0  0  0  0  0  0  0  0  0  0
    3.1974   -0.9688   -1.1413 C   0  0  0  0  0  0  0  0  0  0  0  0
    4.0874   -1.6820   -1.9525 C   0  0  0  0  0  0  0  0  0  0  0  0
    5.0191   -2.5468   -1.3845 C   0  0  0  0  0  0  0  0  0  0  0  0
    5.0627   -2.7035   -0.0018 C   0  0  0  0  0  0  0  0  0  0  0  0
    4.1729   -1.9912    0.8072 C   0  0  0  0  0  0  0  0  0  0  0  0
    4.2633   -2.2290    2.5206 Cl  0  0  0  0  0  0  0  0  0  0  0  0
    1.6527    1.6883    0.1123 C   0  0  0  0  0  0  0  0  0  0  0  0
    2.8198    2.4091   -0.4062 C   0  0  0  0  0  0  0  0  0  0  0  0
    2.5082    3.5544   -0.9599 N   0  0  0  0  0  0  0  0  0  0  0  0
    1.1072    3.6401   -0.8767 N   0  0  0  0  0  0  0  0  0  0  0  0
    0.4714    4.9173   -1.0944 C   0  0  0  0  0  0  0  0  0  0  0  0
    0.5227    2.5871   -0.1910 C   0  0  0  0  0  0  0  0  0  0  0  0
   -0.7044    2.3837    0.1437 N   0  0  0  0  0  0  0  0  0  0  0  0
   -0.9525    1.2112    0.8243 C   0  0  0  0  0  0  0  0  0  0  0  0
   -2.1953    1.0414    1.0964 N   0  0  0  0  0  0  0  0  0  0  0  0
   -2.6607   -0.1279    1.8270 C   0  0  0  0  0  0  0  0  0  0  0  0
   -2.9373   -1.2949    0.8766 C   0  0  0  0  0  0  0  0  0  0  0  0
   -3.9706   -1.0042   -0.2302 C   0  0  0  0  0  0  0  0  0  0  0  0
   -4.0916   -2.2186   -1.1549 C   0  0  0  0  0  0  0  0  0  0  0  0
   -5.3460   -0.6458    0.3336 C   0  0  0  0  0  0  0  0  0  0  0  0
   -0.1443   -0.5398    1.5355 H   0  0  0  0  0  0  0  0  0  0  0  0
    2.1629   -0.8905    1.9616 H   0  0  0  0  0  0  0  0  0  0  0  0
    2.4787   -0.3188   -1.6328 H   0  0  0  0  0  0  0  0  0  0  0  0
    4.0493   -1.5598   -3.0331 H   0  0  0  0  0  0  0  0  0  0  0  0
    5.7093   -3.0981   -2.0186 H   0  0  0  0  0  0  0  0  0  0  0  0
    5.7911   -3.3784    0.4404 H   0  0  0  0  0  0  0  0  0  0  0  0
    3.8339    2.0038   -0.2976 H   0  0  0  0  0  0  0  0  0  0  0  0
    0.4925    5.5147   -0.1776 H   0  0  0  0  0  0  0  0  0  0  0  0
   -0.5710    4.7870   -1.4022 H   0  0  0  0  0  0  0  0  0  0  0  0
    0.9848    5.4757   -1.8838 H   0  0  0  0  0  0  0  0  0  0  0  0
   -1.9506   -0.4351    2.6038 H   0  0  0  0  0  0  0  0  0  0  0  0
   -3.5729    0.1430    2.3694 H   0  0  0  0  0  0  0  0  0  0  0  0
   -3.2748   -2.1522    1.4730 H   0  0  0  0  0  0  0  0  0  0  0  0
   -1.9946   -1.5996    0.4047 H   0  0  0  0  0  0  0  0  0  0  0  0
   -3.6186   -0.1612   -0.8375 H   0  0  0  0  0  0  0  0  0  0  0  0
   -4.7923   -2.0173   -1.9722 H   0  0  0  0  0  0  0  0  0  0  0  0
   -4.4497   -3.0991   -0.6105 H   0  0  0  0  0  0  0  0  0  0  0  0
   -3.1227   -2.4660   -1.6013 H   0  0  0  0  0  0  0  0  0  0  0  0
   -5.3149    0.2942    0.8926 H   0  0  0  0  0  0  0  0  0  0  0  0
   -5.7176   -1.4296    1.0022 H   0  0  0  0  0  0  0  0  0  0  0  0
   -6.0751   -0.5173   -0.4738 H   0  0  0  0  0  0  0  0  0  0  0  0
  1  2  1  0
  2  3  1  0
  3  4  1  0
  4  5  2  0
  5  6  1  0
  6  7  2  0
  7  8  1  0
  8  9  2  0
  9 10  1  0
  2 11  2  0
 11 12  1  0
 12 13  2  0
 13 14  1  0
 14 15  1  0
 14 16  1  0
 16 17  2  0
 17 18  1  0
 18 19  2  3
 19 20  1  0
 20 21  1  0
 21 22  1  0
 22 23  1  0
 22 24  1  0
 18  1  1  0
  9  4  1  0
 16 11  1  0
  1 25  1  0
  3 26  1  0
  5 27  1  0
  6 28  1  0
  7 29  1  0
  8 30  1  0
 12 31  1  0
 15 32  1  0
 15 33  1  0
 15 34  1  0
 20 35  1  0
 20 36  1  0
 21 37  1  0
 21 38  1  0
 22 39  1  0
 23 40  1  0
 23 41  1  0
 23 42  1  0
 24 43  1  0
 24 44  1  0
 24 45  1  0
M  END
>  <ScrubInfo>  (2) 
{"isomerGroup": 0, "isomerId": 1, "confId": 0, "nr_conformers:": 1, "nr_isomers:": 9}

$$$$
_i2
     RDKit          3D

 45 47  0  0  0  0  0  0  0  0999 V2000
    0.9311    0.6607    0.1284 N   0  0  0  0  0  0  0  0  0  0  0  0
   -0.0497    1.5845    0.4068 C   0  0  0  0  0  0  0  0  0  0  0  0
   -1.1956    1.0881    0.9637 N   0  0  0  0  0  0  0  0  0  0  0  0
   -1.9170   -0.0350    0.3750 C   0  0  0  0  0  0  0  0  0  0  0  0
   -3.1418   -0.3572    1.2348 C   0  0  0  0  0  0  0  0  0  0  0  0
   -3.9943   -1.5438    0.7476 C   0  0  0  0  0  0  0  0  0  0  0  0
   -4.5947   -1.2992   -0.6367 C   0  0  0  0  0  0  0  0  0  0  0  0
   -3.2225   -2.8633    0.7697 C   0  0  0  0  0  0  0  0  0  0  0  0
    0.0573    2.8716    0.1858 N   0  0  0  0  0  0  0  0  0  0  0  0
    1.2639    3.1798   -0.3693 C   0  0  0  0  0  0  0  0  0  0  0  0
    2.3029    2.3236   -0.6789 C   0  0  0  0  0  0  0  0  0  0  0  0
    3.3060    3.1382   -1.2210 C   0  0  0  0  0  0  0  0  0  0  0  0
    2.9418    4.4268   -1.2685 N   0  0  0  0  0  0  0  0  0  0  0  0
    1.6948    4.4253   -0.7336 N   0  0  0  0  0  0  0  0  0  0  0  0
    0.9798    5.6699   -0.6077 C   0  0  0  0  0  0  0  0  0  0  0  0
    2.1761    0.9144   -0.4066 C   0  0  0  0  0  0  0  0  0  0  0  0
    3.1718    0.1385   -0.6775 N   0  0  0  0  0  0  0  0  0  0  0  0
    3.0354   -1.2359   -0.4126 C   0  0  0  0  0  0  0  0  0  0  0  0
    2.7264   -2.0875   -1.4803 C   0  0  0  0  0  0  0  0  0  0  0  0
    2.5846   -3.4627   -1.2818 C   0  0  0  0  0  0  0  0  0  0  0  0
    2.7609   -4.0052   -0.0105 C   0  0  0  0  0  0  0  0  0  0  0  0
    3.0843   -3.1738    1.0619 C   0  0  0  0  0  0  0  0  0  0  0  0
    3.2268   -1.7972    0.8622 C   0  0  0  0  0  0  0  0  0  0  0  0
    3.6154   -0.8135    2.2286 Cl  0  0  0  0  0  0  0  0  0  0  0  0
    0.7958   -0.2555    0.5193 H   0  0  0  0  0  0  0  0  0  0  0  0
   -1.8214    1.8730    1.1400 H   0  0  0  0  0  0  0  0  0  0  0  0
   -1.2627   -0.9098    0.3181 H   0  0  0  0  0  0  0  0  0  0  0  0
   -2.2200    0.2313   -0.6429 H   0  0  0  0  0  0  0  0  0  0  0  0
   -3.7817    0.5335    1.2947 H   0  0  0  0  0  0  0  0  0  0  0  0
   -2.8134   -0.5577    2.2635 H   0  0  0  0  0  0  0  0  0  0  0  0
   -4.8301   -1.6435    1.4530 H   0  0  0  0  0  0  0  0  0  0  0  0
   -5.3026   -2.0948   -0.8934 H   0  0  0  0  0  0  0  0  0  0  0  0
   -3.8263   -1.2775   -1.4160 H   0  0  0  0  0  0  0  0  0  0  0  0
   -5.1378   -0.3488   -0.6638 H   0  0  0  0  0  0  0  0  0  0  0  0
   -3.8932   -3.7028    0.5564 H   0  0  0  0  0  0  0  0  0  0  0  0
   -2.4239   -2.8817    0.0213 H   0  0  0  0  0  0  0  0  0  0  0  0
   -2.7746   -3.0369    1.7537 H   0  0  0  0  0  0  0  0  0  0  0  0
    4.2840    2.8495   -1.5835 H   0  0  0  0  0  0  0  0  0  0  0  0
    0.0040    5.4984   -0.1482 H   0  0  0  0  0  0  0  0  0  0  0  0
    0.8494    6.0936   -1.6067 H   0  0  0  0  0  0  0  0  0  0  0  0
    1.5699    6.3437    0.0187 H   0  0  0  0  0  0  0  0  0  0  0  0
    2.6033   -1.6709   -2.4776 H   0  0  0  0  0  0  0  0  0  0  0  0
    2.3478   -4.1099   -2.1232 H   0  0  0  0  0  0  0  0  0  0  0  0
    2.6585   -5.0770    0.1435 H   0  0  0  0  0  0  0  0  0  0  0  0
    3.2317   -3.6036    2.0496 H   0  0  0  0  0  0  0  0  0  0  0  0
  1  2  1  0
  2  3  1  0
  3  4  1  0
  4  5  1  0
  5  6  1  0
  6  7  1  0
  6  8  1  0
  2  9  2  0
  9 10  1  0
 10 11  2  0
 11 12  1  0
 12 13  2  0
 13 14  1  0
 14 15  1  0
 11 16  1  0
 16 17  2  3
 17 18  1  0
 18 19  2  0
 19 20  1  0
 20 21  2  0
 21 22  1  0
 22 23  2  0
 23 24  1  0
 16  1  1  0
 23 18  1  0
 14 10  1  0
  1 25  1  0
  3 26  1  0
  4 27  1  0
  4 28  1  0
  5 29  1  0
  5 30  1  0
  6 31  1  0
  7 32  1  0
  7 33  1  0
  7 34  1  0
  8 35  1  0
  8 36  1  0
  8 37  1  0
 12 38  1  0
 15 39  1  0
 15 40  1  0
 15 41  1  0
 19 42  1  0
 20 43  1  0
 21 44  1  0
 22 45  1  0
M  END
>  <ScrubInfo>  (3) 
{"isomerGroup": 0, "isomerId": 2, "confId": 0, "nr_conformers:": 1, "nr_isomers:": 9}

$$$$
_i3
     RDKit          3D

 45 47  0  0  0  0  0  0  0  0999 V2000
    0.3717   -1.8538   -0.0522 N   0  0  0  0  0  0  0  0  0  0  0  0
    0.6854   -0.7259    0.6914 C   0  0  0  0  0  0  0  0  0  0  0  0
    1.8679   -0.2876    0.9416 N   0  0  0  0  0  0  0  0  0  0  0  0
    3.0254   -0.9944    0.4143 C   0  0  0  0  0  0  0  0  0  0  0  0
    4.3030   -0.2462    0.8051 C   0  0  0  0  0  0  0  0  0  0  0  0
    4.6563    0.9454   -0.1087 C   0  0  0  0  0  0  0  0  0  0  0  0
    3.6054    2.0551   -0.0890 C   0  0  0  0  0  0  0  0  0  0  0  0
    6.0163    1.5195    0.2997 C   0  0  0  0  0  0  0  0  0  0  0  0
   -0.3087    0.0619    1.2551 N   0  0  0  0  0  0  0  0  0  0  0  0
   -1.5599   -0.2426    1.0666 C   0  0  0  0  0  0  0  0  0  0  0  0
   -2.5986    0.4652    1.6083 N   0  0  0  0  0  0  0  0  0  0  0  0
   -3.5005    1.2834    0.8643 C   0  0  0  0  0  0  0  0  0  0  0  0
   -3.5186    1.3154   -0.5384 C   0  0  0  0  0  0  0  0  0  0  0  0
   -4.4559    2.0911   -1.2297 C   0  0  0  0  0  0  0  0  0  0  0  0
   -5.3982    2.8429   -0.5329 C   0  0  0  0  0  0  0  0  0  0  0  0
   -5.4058    2.8227    0.8593 C   0  0  0  0  0  0  0  0  0  0  0  0
   -4.4692    2.0479    1.5496 C   0  0  0  0  0  0  0  0  0  0  0  0
   -4.5217    2.0630    3.2801 Cl  0  0  0  0  0  0  0  0  0  0  0  0
   -1.9262   -1.4290    0.3306 C   0  0  0  0  0  0  0  0  0  0  0  0
   -3.0993   -2.1175   -0.0111 C   0  0  0  0  0  0  0  0  0  0  0  0
   -2.8486   -3.2178   -0.7387 N   0  0  0  0  0  0  0  0  0  0  0  0
   -1.4963   -3.2407   -0.8386 N   0  0  0  0  0  0  0  0  0  0  0  0
   -0.8656   -4.3205   -1.5541 C   0  0  0  0  0  0  0  0  0  0  0  0
   -0.9217   -2.1853   -0.2048 C   0  0  0  0  0  0  0  0  0  0  0  0
    1.1395   -2.4014   -0.4089 H   0  0  0  0  0  0  0  0  0  0  0  0
    2.9730   -1.0978   -0.6758 H   0  0  0  0  0  0  0  0  0  0  0  0
    3.0688   -1.9976    0.8555 H   0  0  0  0  0  0  0  0  0  0  0  0
    5.1324   -0.9640    0.7552 H   0  0  0  0  0  0  0  0  0  0  0  0
    4.2395    0.0867    1.8491 H   0  0  0  0  0  0  0  0  0  0  0  0
    4.7458    0.5798   -1.1397 H   0  0  0  0  0  0  0  0  0  0  0  0
    3.9460    2.9235   -0.6635 H   0  0  0  0  0  0  0  0  0  0  0  0
    2.6675    1.7221   -0.5430 H   0  0  0  0  0  0  0  0  0  0  0  0
    3.3971    2.3882    0.9332 H   0  0  0  0  0  0  0  0  0  0  0  0
    6.7953    0.7513    0.2486 H   0  0  0  0  0  0  0  0  0  0  0  0
    6.3115    2.3357   -0.3683 H   0  0  0  0  0  0  0  0  0  0  0  0
    5.9914    1.9105    1.3226 H   0  0  0  0  0  0  0  0  0  0  0  0
   -2.2684    1.0272    2.3930 H   0  0  0  0  0  0  0  0  0  0  0  0
   -2.7952    0.7560   -1.1259 H   0  0  0  0  0  0  0  0  0  0  0  0
   -4.4462    2.1064   -2.3175 H   0  0  0  0  0  0  0  0  0  0  0  0
   -6.1248    3.4441   -1.0741 H   0  0  0  0  0  0  0  0  0  0  0  0
   -6.1423    3.4097    1.4018 H   0  0  0  0  0  0  0  0  0  0  0  0
   -4.1251   -1.8705    0.2313 H   0  0  0  0  0  0  0  0  0  0  0  0
   -1.0802   -5.2533   -1.0268 H   0  0  0  0  0  0  0  0  0  0  0  0
   -1.2758   -4.3502   -2.5667 H   0  0  0  0  0  0  0  0  0  0  0  0
    0.2132   -4.1580   -1.5985 H   0  0  0  0  0  0  0  0  0  0  0  0
  1  2  1  0
  2  3  2  3
  3  4  1  0
  4  5  1  0
  5  6  1  0
  6  7  1  0
  6  8  1  0
  2  9  1  0
  9 10  2  0
 10 11  1  0
 11 12  1  0
 12 13  2  0
 13 14  1  0
 14 15  2  0
 15 16  1  0
 16 17  2  0
 17 18  1  0
 10 19  1  0
 19 20  1  0
 20 21  2  0
 21 22  1  0
 22 23  1  0
 22 24  1  0
 24  1  1  0
 17 12  1  0
 24 19  2  0
  1 25  1  0
  4 26  1  0
  4 27  1  0
  5 28  1  0
  5 29  1  0
  6 30  1  0
  7 31  1  0
  7 32  1  0
  7 33  1  0
  8 34  1  0
  8 35  1  0
  8 36  1  0
 11 37  1  0
 13 38  1  0
 14 39  1  0
 15 40  1  0
 16 41  1  0
 20 42  1  0
 23 43  1  0
 23 44  1  0
 23 45  1  0
M  END
>  <ScrubInfo>  (4) 
{"isomerGroup": 0, "isomerId": 3, "confId": 0, "nr_conformers:": 1, "nr_isomers:": 9}

$$$$
_i4
     RDKit          3D

 45 47  0  0  0  0  0  0  0  0999 V2000
    2.9330   -3.2945   -0.1850 N   0  0  0  0  0  0  0  0  0  0  0  0
    3.0849   -1.9114   -0.2014 C   0  0  0  0  0  0  0  0  0  0  0  0
    1.9351   -1.2434   -0.0204 C   0  0  0  0  0  0  0  0  0  0  0  0
    1.4498    0.1297    0.0284 C   0  0  0  0  0  0  0  0  0  0  0  0
    2.0863    1.2519   -0.0315 N   0  0  0  0  0  0  0  0  0  0  0  0
    3.4842    1.2850   -0.1337 C   0  0  0  0  0  0  0  0  0  0  0  0
    4.0528    1.4738   -1.3997 C   0  0  0  0  0  0  0  0  0  0  0  0
    5.4386    1.5426   -1.5600 C   0  0  0  0  0  0  0  0  0  0  0  0
    6.2743    1.4378   -0.4500 C   0  0  0  0  0  0  0  0  0  0  0  0
    5.7246    1.2708    0.8214 C   0  0  0  0  0  0  0  0  0  0  0  0
    4.3368    1.2017    0.9812 C   0  0  0  0  0  0  0  0  0  0  0  0
    3.7133    0.9860    2.5788 Cl  0  0  0  0  0  0  0  0  0  0  0  0
    0.0895    0.2312    0.1424 N   0  0  0  0  0  0  0  0  0  0  0  0
   -0.6979   -0.7921    0.2674 C   0  0  0  0  0  0  0  0  0  0  0  0
   -2.0474   -0.6241    0.3877 N   0  0  0  0  0  0  0  0  0  0  0  0
   -2.7143    0.6028    0.0029 C   0  0  0  0  0  0  0  0  0  0  0  0
   -4.1972    0.5189    0.3717 C   0  0  0  0  0  0  0  0  0  0  0  0
   -5.0193    1.7280   -0.1105 C   0  0  0  0  0  0  0  0  0  0  0  0
   -4.5736    3.0364    0.5440 C   0  0  0  0  0  0  0  0  0  0  0  0
   -6.5052    1.4905    0.1705 C   0  0  0  0  0  0  0  0  0  0  0  0
   -0.2985   -2.1012    0.2856 N   0  0  0  0  0  0  0  0  0  0  0  0
    0.9615   -2.3356    0.1663 C   0  0  0  0  0  0  0  0  0  0  0  0
    1.6186   -3.5668    0.1652 N   0  0  0  0  0  0  0  0  0  0  0  0
    0.9788   -4.7576   -0.3585 C   0  0  0  0  0  0  0  0  0  0  0  0
    3.6503   -3.7698    0.3683 H   0  0  0  0  0  0  0  0  0  0  0  0
    4.0762   -1.5113   -0.3522 H   0  0  0  0  0  0  0  0  0  0  0  0
    3.4028    1.5756   -2.2658 H   0  0  0  0  0  0  0  0  0  0  0  0
    5.8622    1.6900   -2.5507 H   0  0  0  0  0  0  0  0  0  0  0  0
    7.3531    1.4993   -0.5726 H   0  0  0  0  0  0  0  0  0  0  0  0
    6.3802    1.2027    1.6858 H   0  0  0  0  0  0  0  0  0  0  0  0
   -2.5532   -1.4852    0.2272 H   0  0  0  0  0  0  0  0  0  0  0  0
   -2.6058    0.7552   -1.0770 H   0  0  0  0  0  0  0  0  0  0  0  0
   -2.2496    1.4505    0.5169 H   0  0  0  0  0  0  0  0  0  0  0  0
   -4.6203   -0.3943   -0.0680 H   0  0  0  0  0  0  0  0  0  0  0  0
   -4.2966    0.4081    1.4597 H   0  0  0  0  0  0  0  0  0  0  0  0
   -4.8949    1.8274   -1.1963 H   0  0  0  0  0  0  0  0  0  0  0  0
   -4.6122    2.9673    1.6363 H   0  0  0  0  0  0  0  0  0  0  0  0
   -5.2203    3.8649    0.2351 H   0  0  0  0  0  0  0  0  0  0  0  0
   -3.5520    3.2996    0.2540 H   0  0  0  0  0  0  0  0  0  0  0  0
   -6.6951    1.3862    1.2443 H   0  0  0  0  0  0  0  0  0  0  0  0
   -7.1101    2.3243   -0.2014 H   0  0  0  0  0  0  0  0  0  0  0  0
   -6.8547    0.5792   -0.3261 H   0  0  0  0  0  0  0  0  0  0  0  0
    1.6110   -5.6354   -0.1895 H   0  0  0  0  0  0  0  0  0  0  0  0
    0.7980   -4.6612   -1.4342 H   0  0  0  0  0  0  0  0  0  0  0  0
    0.0221   -4.9338    0.1434 H   0  0  0  0  0  0  0  0  0  0  0  0
  1  2  1  0
  2  3  2  0
  3  4  1  0
  4  5  2  3
  5  6  1  0
  6  7  2  0
  7  8  1  0
  8  9  2  0
  9 10  1  0
 10 11  2  0
 11 12  1  0
  4 13  1  0
 13 14  2  0
 14 15  1  0
 15 16  1  0
 16 17  1  0
 17 18  1  0
 18 19  1  0
 18 20  1  0
 14 21  1  0
 21 22  2  0
 22 23  1  0
 23 24  1  0
 23  1  1  0
 22  3  1  0
 11  6  1  0
  1 25  1  0
  2 26  1  0
  7 27  1  0
  8 28  1  0
  9 29  1  0
 10 30  1  0
 15 31  1  0
 16 32  1  0
 16 33  1  0
 17 34  1  0
 17 35  1  0
 18 36  1  0
 19 37  1  0
 19 38  1  0
 19 39  1  0
 20 40  1  0
 20 41  1  0
 20 42  1  0
 24 43  1  0
 24 44  1  0
 24 45  1  0
M  END
>  <ScrubInfo>  (5) 
{"isomerGroup": 0, "isomerId": 4, "confId": 0, "nr_conformers:": 1, "nr_isomers:": 9}

$$$$
_i5
     RDKit          3D

 45 47  0  0  0  0  0  0  0  0999 V2000
   -0.0913   -1.8022   -1.1366 N   0  0  0  0  0  0  0  0  0  0  0  0
    0.3464   -0.4979   -1.1592 C   0  0  0  0  0  0  0  0  0  0  0  0
   -0.3660    0.3402   -1.9696 N   0  0  0  0  0  0  0  0  0  0  0  0
   -1.8128    0.4912   -1.8439 C   0  0  0  0  0  0  0  0  0  0  0  0
   -2.1778    1.1342   -0.5027 C   0  0  0  0  0  0  0  0  0  0  0  0
   -3.6714    1.4842   -0.3774 C   0  0  0  0  0  0  0  0  0  0  0  0
   -4.5653    0.2440   -0.4204 C   0  0  0  0  0  0  0  0  0  0  0  0
   -3.9163    2.2524    0.9237 C   0  0  0  0  0  0  0  0  0  0  0  0
    1.3624   -0.0218   -0.4932 N   0  0  0  0  0  0  0  0  0  0  0  0
    2.0689   -0.8691    0.3514 C   0  0  0  0  0  0  0  0  0  0  0  0
    3.0492   -0.4903    1.1078 N   0  0  0  0  0  0  0  0  0  0  0  0
    3.3976    0.8736    1.0962 C   0  0  0  0  0  0  0  0  0  0  0  0
    4.5237    1.2654    0.3611 C   0  0  0  0  0  0  0  0  0  0  0  0
    4.9318    2.6012    0.3310 C   0  0  0  0  0  0  0  0  0  0  0  0
    4.2220    3.5629    1.0471 C   0  0  0  0  0  0  0  0  0  0  0  0
    3.1070    3.1886    1.7975 C   0  0  0  0  0  0  0  0  0  0  0  0
    2.6987    1.8508    1.8273 C   0  0  0  0  0  0  0  0  0  0  0  0
    1.3215    1.4449    2.7939 Cl  0  0  0  0  0  0  0  0  0  0  0  0
    1.6756   -2.2545    0.3716 C   0  0  0  0  0  0  0  0  0  0  0  0
    2.1233   -3.4200    1.0069 C   0  0  0  0  0  0  0  0  0  0  0  0
    1.3959   -4.4970    0.6644 N   0  0  0  0  0  0  0  0  0  0  0  0
    0.4683   -4.0016   -0.1931 N   0  0  0  0  0  0  0  0  0  0  0  0
   -0.5077   -4.8951   -0.7617 C   0  0  0  0  0  0  0  0  0  0  0  0
    0.6097   -2.6639   -0.3803 C   0  0  0  0  0  0  0  0  0  0  0  0
   -0.7530   -2.0795   -1.8480 H   0  0  0  0  0  0  0  0  0  0  0  0
    0.0872    1.2531   -1.9474 H   0  0  0  0  0  0  0  0  0  0  0  0
   -2.3047   -0.4788   -1.9655 H   0  0  0  0  0  0  0  0  0  0  0  0
   -2.1584    1.1289   -2.6652 H   0  0  0  0  0  0  0  0  0  0  0  0
   -1.8847    0.4678    0.3190 H   0  0  0  0  0  0  0  0  0  0  0  0
   -1.5861    2.0510   -0.3779 H   0  0  0  0  0  0  0  0  0  0  0  0
   -3.9514    2.1392   -1.2120 H   0  0  0  0  0  0  0  0  0  0  0  0
   -5.6144    0.5160   -0.2611 H   0  0  0  0  0  0  0  0  0  0  0  0
   -4.5055   -0.2570   -1.3912 H   0  0  0  0  0  0  0  0  0  0  0  0
   -4.2820   -0.4767    0.3541 H   0  0  0  0  0  0  0  0  0  0  0  0
   -3.6570    1.6461    1.7984 H   0  0  0  0  0  0  0  0  0  0  0  0
   -4.9686    2.5430    1.0123 H   0  0  0  0  0  0  0  0  0  0  0  0
   -3.3152    3.1673    0.9549 H   0  0  0  0  0  0  0  0  0  0  0  0
    5.0833    0.5172   -0.1944 H   0  0  0  0  0  0  0  0  0  0  0  0
    5.8053    2.8867   -0.2495 H   0  0  0  0  0  0  0  0  0  0  0  0
    4.5400    4.6023    1.0263 H   0  0  0  0  0  0  0  0  0  0  0  0
    2.5618    3.9402    2.3619 H   0  0  0  0  0  0  0  0  0  0  0  0
    2.9482   -3.5346    1.6984 H   0  0  0  0  0  0  0  0  0  0  0  0
   -1.0322   -5.3994    0.0540 H   0  0  0  0  0  0  0  0  0  0  0  0
    0.0158   -5.6223   -1.3873 H   0  0  0  0  0  0  0  0  0  0  0  0
   -1.2219   -4.3310   -1.3652 H   0  0  0  0  0  0  0  0  0  0  0  0
  1  2  1  0
  2  3  1  0
  3  4  1  0
  4  5  1  0
  5  6  1  0
  6  7  1  0
  6  8  1  0
  2  9  2  0
  9 10  1  0
 10 11  2  3
 11 12  1  0
 12 13  2  0
 13 14  1  0
 14 15  2  0
 15 16  1  0
 16 17  2  0
 17 18  1  0
 10 19  1  0
 19 20  1  0
 20 21  2  0
 21 22  1  0
 22 23  1  0
 22 24  1  0
 24  1  1  0
 17 12  1  0
 24 19  2  0
  1 25  1  0
  3 26  1  0
  4 27  1  0
  4 28  1  0
  5 29  1  0
  5 30  1  0
  6 31  1  0
  7 32  1  0
  7 33  1  0
  7 34  1  0
  8 35  1  0
  8 36  1  0
  8 37  1  0
 13 38  1  0
 14 39  1  0
 15 40  1  0
 16 41  1  0
 20 42  1  0
 23 43  1  0
 23 44  1  0
 23 45  1  0
M  END
>  <ScrubInfo>  (6) 
{"isomerGroup": 0, "isomerId": 5, "confId": 0, "nr_conformers:": 1, "nr_isomers:": 9}

$$$$
_i6
     RDKit          3D

 45 47  0  0  0  0  0  0  0  0999 V2000
    1.2647   -4.4020   -0.7247 N   0  0  0  0  0  0  0  0  0  0  0  0
    2.2057   -3.4228   -0.4246 C   0  0  0  0  0  0  0  0  0  0  0  0
    1.6539   -2.2270   -0.1752 C   0  0  0  0  0  0  0  0  0  0  0  0
    2.0900   -0.8661    0.1534 C   0  0  0  0  0  0  0  0  0  0  0  0
    3.4380   -0.6159    0.3142 N   0  0  0  0  0  0  0  0  0  0  0  0
    4.1261    0.5802    0.6208 C   0  0  0  0  0  0  0  0  0  0  0  0
    3.4964    1.8125    0.8296 C   0  0  0  0  0  0  0  0  0  0  0  0
    4.2338    2.9645    1.1330 C   0  0  0  0  0  0  0  0  0  0  0  0
    5.6206    2.9092    1.2352 C   0  0  0  0  0  0  0  0  0  0  0  0
    6.2759    1.6988    1.0339 C   0  0  0  0  0  0  0  0  0  0  0  0
    5.5356    0.5518    0.7313 C   0  0  0  0  0  0  0  0  0  0  0  0
    6.4021   -0.9321    0.4904 Cl  0  0  0  0  0  0  0  0  0  0  0  0
    1.1586    0.0340    0.2724 N   0  0  0  0  0  0  0  0  0  0  0  0
   -0.1623   -0.3010    0.0840 C   0  0  0  0  0  0  0  0  0  0  0  0
   -0.9646    0.7018    0.1628 N   0  0  0  0  0  0  0  0  0  0  0  0
   -2.3917    0.4443   -0.0192 C   0  0  0  0  0  0  0  0  0  0  0  0
   -3.1338    1.7751    0.1274 C   0  0  0  0  0  0  0  0  0  0  0  0
   -4.6661    1.6317    0.0981 C   0  0  0  0  0  0  0  0  0  0  0  0
   -5.3196    2.9846    0.3906 C   0  0  0  0  0  0  0  0  0  0  0  0
   -5.1766    1.0900   -1.2378 C   0  0  0  0  0  0  0  0  0  0  0  0
   -0.6662   -1.5576   -0.1647 N   0  0  0  0  0  0  0  0  0  0  0  0
    0.2042   -2.4983   -0.2792 C   0  0  0  0  0  0  0  0  0  0  0  0
    0.0016   -3.8579   -0.5180 N   0  0  0  0  0  0  0  0  0  0  0  0
   -1.1085   -4.3147   -1.3326 C   0  0  0  0  0  0  0  0  0  0  0  0
    1.4457   -5.3002   -0.2697 H   0  0  0  0  0  0  0  0  0  0  0  0
    3.2514   -3.6934   -0.4176 H   0  0  0  0  0  0  0  0  0  0  0  0
    4.0762   -1.3948    0.1913 H   0  0  0  0  0  0  0  0  0  0  0  0
    2.4170    1.9164    0.7626 H   0  0  0  0  0  0  0  0  0  0  0  0
    3.7123    3.9067    1.2888 H   0  0  0  0  0  0  0  0  0  0  0  0
    6.1862    3.8070    1.4709 H   0  0  0  0  0  0  0  0  0  0  0  0
    7.3586    1.6532    1.1134 H   0  0  0  0  0  0  0  0  0  0  0  0
   -2.7573   -0.2579    0.7398 H   0  0  0  0  0  0  0  0  0  0  0  0
   -2.5759    0.0262   -1.0150 H   0  0  0  0  0  0  0  0  0  0  0  0
   -2.8375    2.2393    1.0776 H   0  0  0  0  0  0  0  0  0  0  0  0
   -2.8057    2.4629   -0.6631 H   0  0  0  0  0  0  0  0  0  0  0  0
   -4.9693    0.9346    0.8895 H   0  0  0  0  0  0  0  0  0  0  0  0
   -4.9987    3.3698    1.3642 H   0  0  0  0  0  0  0  0  0  0  0  0
   -6.4108    2.8935    0.4127 H   0  0  0  0  0  0  0  0  0  0  0  0
   -5.0566    3.7263   -0.3714 H   0  0  0  0  0  0  0  0  0  0  0  0
   -4.8266    0.0683   -1.4134 H   0  0  0  0  0  0  0  0  0  0  0  0
   -6.2716    1.0634   -1.2530 H   0  0  0  0  0  0  0  0  0  0  0  0
   -4.8425    1.7144   -2.0733 H   0  0  0  0  0  0  0  0  0  0  0  0
   -1.1586   -5.4084   -1.3288 H   0  0  0  0  0  0  0  0  0  0  0  0
   -0.9973   -3.9748   -2.3675 H   0  0  0  0  0  0  0  0  0  0  0  0
   -2.0570   -3.9354   -0.9388 H   0  0  0  0  0  0  0  0  0  0  0  0
  1  2  1  0
  2  3  2  0
  3  4  1  0
  4  5  1  0
  5  6  1  0
  6  7  2  0
  7  8  1  0
  8  9  2  0
  9 10  1  0
 10 11  2  0
 11 12  1  0
  4 13  2  0
 13 14  1  0
 14 15  2  3
 15 16  1  0
 16 17  1  0
 17 18  1  0
 18 19  1  0
 18 20  1  0
 14 21  1  0
 21 22  2  0
 22 23  1  0
 23 24  1  0
 23  1  1  0
 22  3  1  0
 11  6  1  0
  1 25  1  0
  2 26  1  0
  5 27  1  0
  7 28  1  0
  8 29  1  0
  9 30  1  0
 10 31  1  0
 16 32  1  0
 16 33  1  0
 17 34  1  0
 17 35  1  0
 18 36  1  0
 19 37  1  0
 19 38  1  0
 19 39  1  0
 20 40  1  0
 20 41  1  0
 20 42  1  0
 24 43  1  0
 24 44  1  0
 24 45  1  0
M  END
>  <ScrubInfo>  (7) 
{"isomerGroup": 0, "isomerId": 6, "confId": 0, "nr_conformers:": 1, "nr_isomers:": 9}

$$$$
_i7
     RDKit          3D

 45 47  0  0  0  0  0  0  0  0999 V2000
    3.0237   -3.1620   -0.1858 N   0  0  0  0  0  0  0  0  0  0  0  0
    3.1346   -1.7770   -0.2440 C   0  0  0  0  0  0  0  0  0  0  0  0
    1.9627   -1.1390   -0.1121 C   0  0  0  0  0  0  0  0  0  0  0  0
    1.4056    0.2257   -0.1230 C   0  0  0  0  0  0  0  0  0  0  0  0
    2.0179    1.3681   -0.2349 N   0  0  0  0  0  0  0  0  0  0  0  0
    3.4169    1.4294   -0.3346 C   0  0  0  0  0  0  0  0  0  0  0  0
    3.9930    1.5256   -1.6073 C   0  0  0  0  0  0  0  0  0  0  0  0
    5.3785    1.6174   -1.7599 C   0  0  0  0  0  0  0  0  0  0  0  0
    6.2045    1.6289   -0.6374 C   0  0  0  0  0  0  0  0  0  0  0  0
    5.6459    1.5552    0.6389 C   0  0  0  0  0  0  0  0  0  0  0  0
    4.2591    1.4630    0.7910 C   0  0  0  0  0  0  0  0  0  0  0  0
    3.6186    1.3716    2.3939 Cl  0  0  0  0  0  0  0  0  0  0  0  0
    0.0409    0.2381   -0.0024 N   0  0  0  0  0  0  0  0  0  0  0  0
   -0.7922   -0.8435    0.1359 C   0  0  0  0  0  0  0  0  0  0  0  0
   -2.0749   -0.8121    0.2268 N   0  0  0  0  0  0  0  0  0  0  0  0
   -2.7642    0.4719    0.1834 C   0  0  0  0  0  0  0  0  0  0  0  0
   -4.2678    0.2084    0.2886 C   0  0  0  0  0  0  0  0  0  0  0  0
   -5.1277    1.4732    0.1153 C   0  0  0  0  0  0  0  0  0  0  0  0
   -4.8746    2.5064    1.2140 C   0  0  0  0  0  0  0  0  0  0  0  0
   -6.6104    1.0939    0.0944 C   0  0  0  0  0  0  0  0  0  0  0  0
   -0.2827   -2.1237    0.1945 N   0  0  0  0  0  0  0  0  0  0  0  0
    0.9998   -2.2750    0.0971 C   0  0  0  0  0  0  0  0  0  0  0  0
    1.7140   -3.4740    0.1483 N   0  0  0  0  0  0  0  0  0  0  0  0
    1.1311   -4.7111   -0.3348 C   0  0  0  0  0  0  0  0  0  0  0  0
    3.7474   -3.6022    0.3871 H   0  0  0  0  0  0  0  0  0  0  0  0
    4.1170   -1.3534   -0.3884 H   0  0  0  0  0  0  0  0  0  0  0  0
    3.3525    1.5328   -2.4860 H   0  0  0  0  0  0  0  0  0  0  0  0
    5.8102    1.6895   -2.7555 H   0  0  0  0  0  0  0  0  0  0  0  0
    7.2828    1.7069   -0.7557 H   0  0  0  0  0  0  0  0  0  0  0  0
    6.2938    1.5767    1.5115 H   0  0  0  0  0  0  0  0  0  0  0  0
   -0.3722    1.1559   -0.0041 H   0  0  0  0  0  0  0  0  0  0  0  0
   -2.5511    0.9897   -0.7592 H   0  0  0  0  0  0  0  0  0  0  0  0
   -2.4368    1.1005    1.0185 H   0  0  0  0  0  0  0  0  0  0  0  0
   -4.5506   -0.5229   -0.4804 H   0  0  0  0  0  0  0  0  0  0  0  0
   -4.4869   -0.2653    1.2546 H   0  0  0  0  0  0  0  0  0  0  0  0
   -4.8855    1.9335   -0.8510 H   0  0  0  0  0  0  0  0  0  0  0  0
   -5.5474    3.3638    1.1030 H   0  0  0  0  0  0  0  0  0  0  0  0
   -3.8513    2.8915    1.1709 H   0  0  0  0  0  0  0  0  0  0  0  0
   -5.0368    2.0766    2.2082 H   0  0  0  0  0  0  0  0  0  0  0  0
   -7.2363    1.9779   -0.0676 H   0  0  0  0  0  0  0  0  0  0  0  0
   -6.8200    0.3858   -0.7143 H   0  0  0  0  0  0  0  0  0  0  0  0
   -6.9157    0.6307    1.0389 H   0  0  0  0  0  0  0  0  0  0  0  0
    1.8002   -5.5530   -0.1291 H   0  0  0  0  0  0  0  0  0  0  0  0
    0.9555   -4.6625   -1.4145 H   0  0  0  0  0  0  0  0  0  0  0  0
    0.1792   -4.9117    0.1672 H   0  0  0  0  0  0  0  0  0  0  0  0
  1  2  1  0
  2  3  2  0
  3  4  1  0
  4  5  2  3
  5  6  1  0
  6  7  2  0
  7  8  1  0
  8  9  2  0
  9 10  1  0
 10 11  2  0
 11 12  1  0
  4 13  1  0
 13 14  1  0
 14 15  2  3
 15 16  1  0
 16 17  1  0
 17 18  1  0
 18 19  1  0
 18 20  1  0
 14 21  1  0
 21 22  2  0
 22 23  1  0
 23 24  1  0
 23  1  1  0
 22  3  1  0
 11  6  1  0
  1 25  1  0
  2 26  1  0
  7 27  1  0
  8 28  1  0
  9 29  1  0
 10 30  1  0
 13 31  1  0
 16 32  1  0
 16 33  1  0
 17 34  1  0
 17 35  1  0
 18 36  1  0
 19 37  1  0
 19 38  1  0
 19 39  1  0
 20 40  1  0
 20 41  1  0
 20 42  1  0
 24 43  1  0
 24 44  1  0
 24 45  1  0
M  END
>  <ScrubInfo>  (8) 
{"isomerGroup": 0, "isomerId": 7, "confId": 0, "nr_conformers:": 1, "nr_isomers:": 9}

$$$$
_i8
     RDKit          3D

 45 47  0  0  0  0  0  0  0  0999 V2000
   -0.0324    2.1268   -0.2928 N   0  0  0  0  0  0  0  0  0  0  0  0
   -0.7250    0.9683   -0.0072 C   0  0  0  0  0  0  0  0  0  0  0  0
   -2.0094    1.0358    0.1003 N   0  0  0  0  0  0  0  0  0  0  0  0
   -2.7412   -0.1930    0.4017 C   0  0  0  0  0  0  0  0  0  0  0  0
   -4.2296    0.1500    0.4906 C   0  0  0  0  0  0  0  0  0  0  0  0
   -5.1071   -1.0313    0.9418 C   0  0  0  0  0  0  0  0  0  0  0  0
   -5.0735   -2.1955   -0.0493 C   0  0  0  0  0  0  0  0  0  0  0  0
   -6.5505   -0.5608    1.1372 C   0  0  0  0  0  0  0  0  0  0  0  0
    0.0922   -0.1374    0.1275 N   0  0  0  0  0  0  0  0  0  0  0  0
    1.4621   -0.2742    0.0158 C   0  0  0  0  0  0  0  0  0  0  0  0
    2.0239   -1.4353    0.1753 N   0  0  0  0  0  0  0  0  0  0  0  0
    3.4055   -1.6239    0.0314 C   0  0  0  0  0  0  0  0  0  0  0  0
    4.2103   -1.5948    1.1772 C   0  0  0  0  0  0  0  0  0  0  0  0
    5.5877   -1.8093    1.0882 C   0  0  0  0  0  0  0  0  0  0  0  0
    6.1742   -2.0722   -0.1486 C   0  0  0  0  0  0  0  0  0  0  0  0
    5.3834   -2.1291   -1.2966 C   0  0  0  0  0  0  0  0  0  0  0  0
    4.0049   -1.9145   -1.2071 C   0  0  0  0  0  0  0  0  0  0  0  0
    3.0684   -2.0013   -2.6576 Cl  0  0  0  0  0  0  0  0  0  0  0  0
    2.0965    0.9999   -0.2778 C   0  0  0  0  0  0  0  0  0  0  0  0
    3.4018    1.4899   -0.4698 C   0  0  0  0  0  0  0  0  0  0  0  0
    3.4349    2.8088   -0.7130 N   0  0  0  0  0  0  0  0  0  0  0  0
    2.1336    3.1727   -0.6904 N   0  0  0  0  0  0  0  0  0  0  0  0
    1.7828    4.5515   -0.9201 C   0  0  0  0  0  0  0  0  0  0  0  0
    1.3111    2.1238   -0.4186 C   0  0  0  0  0  0  0  0  0  0  0  0
   -0.6191    2.9466   -0.3947 H   0  0  0  0  0  0  0  0  0  0  0  0
   -2.4061   -0.6123    1.3577 H   0  0  0  0  0  0  0  0  0  0  0  0
   -2.5744   -0.9304   -0.3908 H   0  0  0  0  0  0  0  0  0  0  0  0
   -4.3569    0.9795    1.1990 H   0  0  0  0  0  0  0  0  0  0  0  0
   -4.5748    0.5244   -0.4820 H   0  0  0  0  0  0  0  0  0  0  0  0
   -4.7384   -1.3939    1.9097 H   0  0  0  0  0  0  0  0  0  0  0  0
   -5.3690   -1.8714   -1.0528 H   0  0  0  0  0  0  0  0  0  0  0  0
   -5.7579   -2.9916    0.2636 H   0  0  0  0  0  0  0  0  0  0  0  0
   -4.0739   -2.6360   -0.1129 H   0  0  0  0  0  0  0  0  0  0  0  0
   -7.1820   -1.3803    1.4964 H   0  0  0  0  0  0  0  0  0  0  0  0
   -6.9779   -0.1890    0.1998 H   0  0  0  0  0  0  0  0  0  0  0  0
   -6.6005    0.2456    1.8765 H   0  0  0  0  0  0  0  0  0  0  0  0
   -0.3639   -1.0151    0.3193 H   0  0  0  0  0  0  0  0  0  0  0  0
    3.7567   -1.4031    2.1466 H   0  0  0  0  0  0  0  0  0  0  0  0
    6.2005   -1.7765    1.9860 H   0  0  0  0  0  0  0  0  0  0  0  0
    7.2463   -2.2413   -0.2179 H   0  0  0  0  0  0  0  0  0  0  0  0
    5.8444   -2.3443   -2.2572 H   0  0  0  0  0  0  0  0  0  0  0  0
    4.3448    0.9625   -0.4417 H   0  0  0  0  0  0  0  0  0  0  0  0
    2.4675    4.9737   -1.6604 H   0  0  0  0  0  0  0  0  0  0  0  0
    0.7599    4.6110   -1.2986 H   0  0  0  0  0  0  0  0  0  0  0  0
    1.8699    5.0869    0.0283 H   0  0  0  0  0  0  0  0  0  0  0  0
  1  2  1  0
  2  3  2  3
  3  4  1  0
  4  5  1  0
  5  6  1  0
  6  7  1  0
  6  8  1  0
  2  9  1  0
  9 10  1  0
 10 11  2  3
 11 12  1  0
 12 13  2  0
 13 14  1  0
 14 15  2  0
 15 16  1  0
 16 17  2  0
 17 18  1  0
 10 19  1  0
 19 20  1  0
 20 21  2  0
 21 22  1  0
 22 23  1  0
 22 24  1  0
 24  1  1  0
 17 12  1  0
 24 19  2  0
  1 25  1  0
  4 26  1  0
  4 27  1  0
  5 28  1  0
  5 29  1  0
  6 30  1  0
  7 31  1  0
  7 32  1  0
  7 33  1  0
  8 34  1  0
  8 35  1  0
  8 36  1  0
  9 37  1  0
 13 38  1  0
 14 39  1  0
 15 40  1  0
 16 41  1  0
 20 42  1  0
 23 43  1  0
 23 44  1  0
 23 45  1  0
M  END
>  <ScrubInfo>  (9) 
{"isomerGroup": 0, "isomerId": 8, "confId": 0, "nr_conformers:": 1, "nr_isomers:": 9}

$$$$
