REMARK SMILES CC(C)CCNc1nc(Nc2ccccc2Cl)c2cnn(C)c2n1
REMARK SMILES IDX 6 1 5 3 4 4 2 5 1 6 3 7 7 8 8 9 24 10 9 11 23 12 18 13 21 14
REMARK SMILES IDX 19 15 20 16 22 17 10 18 11 20 12 21 16 22 13 23 15 24 14 25
REMARK SMILES IDX 17 26
REMARK H PARENT 6 2 10 19
ROOT
ATOM      1  N   UNL     1       1.231  -1.906  -1.113  1.00  0.00    -0.354 N 
ATOM      2  H   UNL     1       1.665  -2.817  -1.006  1.00  0.00     0.163 HD
ENDROOT
BRANCH   1   3
ATOM      3  C   UNL     1       2.143  -0.785  -0.941  1.00  0.00     0.116 C 
BRANCH   3   4
ATOM      4  C   UNL     1       1.938   0.231  -2.069  1.00  0.00     0.024 C 
BRANCH   4   5
ATOM      5  C   UNL     1       2.881   1.449  -2.038  1.00  0.00    -0.016 C 
ATOM      6  C   UNL     1       4.346   1.055  -2.227  1.00  0.00     0.007 C 
ATOM      7  C   UNL     1       2.714   2.286  -0.770  1.00  0.00     0.007 C 
ENDBRANCH   4   5
ENDBRANCH   3   4
ENDBRANCH   1   3
BRANCH   1   8
ATOM      8  C   UNL     1       0.140  -1.926  -0.250  1.00  0.00     0.226 A 
ATOM      9  N   UNL     1      -0.496  -0.780   0.062  1.00  0.00    -0.195 NA
ATOM     10  N   UNL     1      -0.174  -3.144   0.210  1.00  0.00    -0.193 NA
ATOM     11  C   UNL     1      -1.556  -0.781   0.916  1.00  0.00     0.147 A 
ATOM     12  C   UNL     1      -1.216  -3.128   1.053  1.00  0.00     0.165 A 
ATOM     13  C   UNL     1      -1.935  -2.019   1.450  1.00  0.00     0.082 A 
ATOM     14  N   UNL     1      -1.781  -4.196   1.695  1.00  0.00    -0.250 N 
ATOM     15  C   UNL     1      -2.907  -2.532   2.334  1.00  0.00     0.149 A 
ATOM     16  N   UNL     1      -2.819  -3.857   2.495  1.00  0.00    -0.179 NA
ATOM     17  C   UNL     1      -1.383  -5.577   1.596  1.00  0.00     0.176 C 
BRANCH  11  18
ATOM     18  N   UNL     1      -2.221   0.396   1.281  1.00  0.00    -0.338 N 
ATOM     19  H   UNL     1      -2.871   0.290   2.051  1.00  0.00     0.168 HD
BRANCH  18  20
ATOM     20  C   UNL     1      -2.149   1.722   0.809  1.00  0.00     0.058 A 
ATOM     21  C   UNL     1      -1.488   2.076  -0.371  1.00  0.00     0.027 A 
ATOM     22  C   UNL     1      -2.745   2.763   1.554  1.00  0.00     0.064 A 
ATOM     23  C   UNL     1      -1.421   3.408  -0.797  1.00  0.00     0.002 A 
ATOM     24  C   UNL     1      -2.679   4.096   1.134  1.00  0.00     0.023 A 
ATOM     25  C   UNL     1      -2.014   4.417  -0.045  1.00  0.00     0.002 A 
ATOM     26  Cl  UNL     1      -3.590   2.416   3.028  1.00  0.00    -0.082 Cl
ENDBRANCH  18  20
ENDBRANCH  11  18
ENDBRANCH   1   8
TORSDOF 6
