_i0
     RDKit          3D

 47 49  0  0  0  0  0  0  0  0999 V2000
    7.3751    1.0063    0.1969 C   0  0  0  0  0  0  0  0  0  0  0  0
    6.2327    0.2134    0.8010 C   0  0  0  0  0  0  0  0  0  0  0  0
    5.5459   -0.4557   -0.2545 O   0  0  0  0  0  0  0  0  0  0  0  0
    4.4560   -1.2555    0.1987 C   0  0  0  0  0  0  0  0  0  0  0  0
    3.1945   -0.4303    0.4356 C   0  0  0  0  0  0  0  0  0  0  0  0
    2.7655    0.3198   -0.8277 C   0  0  0  0  0  0  0  0  0  0  0  0
    1.5533    1.0930   -0.6033 N   0  0  0  0  0  0  0  0  0  0  0  0
    0.3611    0.4008   -0.4814 C   0  0  0  0  0  0  0  0  0  0  0  0
   -0.5556    1.0025    0.3016 N   0  0  0  0  0  0  0  0  0  0  0  0
   -1.7658    0.4254    0.4970 C   0  0  0  0  0  0  0  0  0  0  0  0
   -2.6710    1.1189    1.3169 N   0  0  0  0  0  0  0  0  0  0  0  0
   -4.0535    1.2586    1.0696 C   0  0  0  0  0  0  0  0  0  0  0  0
   -4.9467    0.9644    2.1073 C   0  0  0  0  0  0  0  0  0  0  0  0
   -6.3237    1.1244    1.9321 C   0  0  0  0  0  0  0  0  0  0  0  0
   -6.8216    1.6078    0.7234 C   0  0  0  0  0  0  0  0  0  0  0  0
   -5.9429    1.9473   -0.3036 C   0  0  0  0  0  0  0  0  0  0  0  0
   -4.5709    1.7896   -0.1221 C   0  0  0  0  0  0  0  0  0  0  0  0
   -3.7689    2.2008   -1.1512 O   0  0  0  0  0  0  0  0  0  0  0  0
   -2.0227   -0.7922   -0.1337 C   0  0  0  0  0  0  0  0  0  0  0  0
   -3.0651   -1.7357   -0.2362 C   0  0  0  0  0  0  0  0  0  0  0  0
   -2.7460   -2.7798   -1.0112 N   0  0  0  0  0  0  0  0  0  0  0  0
   -1.4895   -2.4879   -1.4203 N   0  0  0  0  0  0  0  0  0  0  0  0
   -0.8045   -3.3935   -2.3075 C   0  0  0  0  0  0  0  0  0  0  0  0
   -1.0083   -1.3130   -0.9110 C   0  0  0  0  0  0  0  0  0  0  0  0
    0.1984   -0.7662   -1.1181 N   0  0  0  0  0  0  0  0  0  0  0  0
    6.9971    1.7353   -0.5276 H   0  0  0  0  0  0  0  0  0  0  0  0
    8.0599    0.3449   -0.3441 H   0  0  0  0  0  0  0  0  0  0  0  0
    7.9350    1.5366    0.9722 H   0  0  0  0  0  0  0  0  0  0  0  0
    6.6269   -0.5220    1.5106 H   0  0  0  0  0  0  0  0  0  0  0  0
    5.5531    0.8916    1.3260 H   0  0  0  0  0  0  0  0  0  0  0  0
    4.7366   -1.8079    1.1031 H   0  0  0  0  0  0  0  0  0  0  0  0
    4.2593   -1.9991   -0.5816 H   0  0  0  0  0  0  0  0  0  0  0  0
    2.3970   -1.1015    0.7747 H   0  0  0  0  0  0  0  0  0  0  0  0
    3.3597    0.2938    1.2416 H   0  0  0  0  0  0  0  0  0  0  0  0
    2.6489   -0.3670   -1.6750 H   0  0  0  0  0  0  0  0  0  0  0  0
    3.5528    1.0262   -1.1154 H   0  0  0  0  0  0  0  0  0  0  0  0
    1.5942    1.7780    0.1417 H   0  0  0  0  0  0  0  0  0  0  0  0
   -2.2467    2.0149    1.5486 H   0  0  0  0  0  0  0  0  0  0  0  0
   -4.5702    0.5893    3.0563 H   0  0  0  0  0  0  0  0  0  0  0  0
   -7.0065    0.8737    2.7400 H   0  0  0  0  0  0  0  0  0  0  0  0
   -7.8924    1.7333    0.5848 H   0  0  0  0  0  0  0  0  0  0  0  0
   -6.3232    2.3470   -1.2396 H   0  0  0  0  0  0  0  0  0  0  0  0
   -2.8432    2.1325   -0.8619 H   0  0  0  0  0  0  0  0  0  0  0  0
   -4.0445   -1.7061    0.2243 H   0  0  0  0  0  0  0  0  0  0  0  0
    0.1905   -3.0083   -2.5414 H   0  0  0  0  0  0  0  0  0  0  0  0
   -0.7188   -4.3629   -1.8101 H   0  0  0  0  0  0  0  0  0  0  0  0
   -1.3910   -3.4853   -3.2252 H   0  0  0  0  0  0  0  0  0  0  0  0
  1  2  1  0
  2  3  1  0
  3  4  1  0
  4  5  1  0
  5  6  1  0
  6  7  1  0
  7  8  1  0
  8  9  2  0
  9 10  1  0
 10 11  1  0
 11 12  1  0
 12 13  2  0
 13 14  1  0
 14 15  2  0
 15 16  1  0
 16 17  2  0
 17 18  1  0
 10 19  2  0
 19 20  1  0
 20 21  2  0
 21 22  1  0
 22 23  1  0
 22 24  1  0
 24 25  2  0
 25  8  1  0
 17 12  1  0
 24 19  1  0
  1 26  1  0
  1 27  1  0
  1 28  1  0
  2 29  1  0
  2 30  1  0
  4 31  1  0
  4 32  1  0
  5 33  1  0
  5 34  1  0
  6 35  1  0
  6 36  1  0
  7 37  1  0
 11 38  1  0
 13 39  1  0
 14 40  1  0
 15 41  1  0
 16 42  1  0
 18 43  1  0
 20 44  1  0
 23 45  1  0
 23 46  1  0
 23 47  1  0
M  END
>  <ScrubInfo>  (1) 
{"isomerGroup": 0, "isomerId": 0, "confId": 0, "nr_conformers:": 1, "nr_isomers:": 9}

$$$$
_i1
     RDKit          3D

 47 49  0  0  0  0  0  0  0  0999 V2000
   -0.4381    0.2403   -0.3877 N   0  0  0  0  0  0  0  0  0  0  0  0
   -1.8147    0.1810   -0.2595 C   0  0  0  0  0  0  0  0  0  0  0  0
   -2.4736    1.3039    0.2029 N   0  0  0  0  0  0  0  0  0  0  0  0
   -3.7121    1.3643    0.8784 C   0  0  0  0  0  0  0  0  0  0  0  0
   -4.0620    0.4589    1.8859 C   0  0  0  0  0  0  0  0  0  0  0  0
   -5.2948    0.5643    2.5358 C   0  0  0  0  0  0  0  0  0  0  0  0
   -6.1846    1.5831    2.1932 C   0  0  0  0  0  0  0  0  0  0  0  0
   -5.8442    2.5073    1.2058 C   0  0  0  0  0  0  0  0  0  0  0  0
   -4.6133    2.3947    0.5634 C   0  0  0  0  0  0  0  0  0  0  0  0
   -4.2460    3.2878   -0.4114 O   0  0  0  0  0  0  0  0  0  0  0  0
   -2.3777   -0.9765   -0.6308 C   0  0  0  0  0  0  0  0  0  0  0  0
   -3.7158   -1.5732   -0.7482 C   0  0  0  0  0  0  0  0  0  0  0  0
   -3.6958   -2.8099   -1.1800 N   0  0  0  0  0  0  0  0  0  0  0  0
   -2.3464   -3.0918   -1.4305 N   0  0  0  0  0  0  0  0  0  0  0  0
   -1.9409   -4.4555   -1.6658 C   0  0  0  0  0  0  0  0  0  0  0  0
   -1.4837   -2.0614   -1.0963 C   0  0  0  0  0  0  0  0  0  0  0  0
   -0.1976   -2.0080   -1.1510 N   0  0  0  0  0  0  0  0  0  0  0  0
    0.3645   -0.8150   -0.7575 C   0  0  0  0  0  0  0  0  0  0  0  0
    1.6498   -0.8268   -0.7790 N   0  0  0  0  0  0  0  0  0  0  0  0
    2.3812    0.3715   -0.3920 C   0  0  0  0  0  0  0  0  0  0  0  0
    3.8701    0.1145   -0.6080 C   0  0  0  0  0  0  0  0  0  0  0  0
    4.7086    1.3026   -0.1472 C   0  0  0  0  0  0  0  0  0  0  0  0
    6.0841    1.1669   -0.5030 O   0  0  0  0  0  0  0  0  0  0  0  0
    6.7878    0.2155    0.2916 C   0  0  0  0  0  0  0  0  0  0  0  0
    8.2553    0.2744   -0.0864 C   0  0  0  0  0  0  0  0  0  0  0  0
   -0.0093    1.0622    0.0055 H   0  0  0  0  0  0  0  0  0  0  0  0
   -2.3886    2.0971   -0.4369 H   0  0  0  0  0  0  0  0  0  0  0  0
   -3.3715   -0.3248    2.1875 H   0  0  0  0  0  0  0  0  0  0  0  0
   -5.5568   -0.1458    3.3170 H   0  0  0  0  0  0  0  0  0  0  0  0
   -7.1413    1.6603    2.7044 H   0  0  0  0  0  0  0  0  0  0  0  0
   -6.5430    3.2992    0.9560 H   0  0  0  0  0  0  0  0  0  0  0  0
   -4.9613    3.9388   -0.5128 H   0  0  0  0  0  0  0  0  0  0  0  0
   -4.6208   -1.0123   -0.4880 H   0  0  0  0  0  0  0  0  0  0  0  0
   -1.7478   -4.9641   -0.7162 H   0  0  0  0  0  0  0  0  0  0  0  0
   -2.7216   -5.0062   -2.2006 H   0  0  0  0  0  0  0  0  0  0  0  0
   -1.0310   -4.4938   -2.2731 H   0  0  0  0  0  0  0  0  0  0  0  0
    2.0706    1.2306   -0.9985 H   0  0  0  0  0  0  0  0  0  0  0  0
    2.1992    0.6010    0.6647 H   0  0  0  0  0  0  0  0  0  0  0  0
    4.1687   -0.7909   -0.0667 H   0  0  0  0  0  0  0  0  0  0  0  0
    4.0709   -0.0933   -1.6665 H   0  0  0  0  0  0  0  0  0  0  0  0
    4.6143    1.4642    0.9331 H   0  0  0  0  0  0  0  0  0  0  0  0
    4.3507    2.2129   -0.6408 H   0  0  0  0  0  0  0  0  0  0  0  0
    6.4048   -0.7918    0.1027 H   0  0  0  0  0  0  0  0  0  0  0  0
    6.6699    0.4543    1.3541 H   0  0  0  0  0  0  0  0  0  0  0  0
    8.3887    0.0517   -1.1502 H   0  0  0  0  0  0  0  0  0  0  0  0
    8.8382   -0.4413    0.5000 H   0  0  0  0  0  0  0  0  0  0  0  0
    8.6567    1.2792    0.0817 H   0  0  0  0  0  0  0  0  0  0  0  0
  1  2  1  0
  2  3  1  0
  3  4  1  0
  4  5  2  0
  5  6  1  0
  6  7  2  0
  7  8  1  0
  8  9  2  0
  9 10  1  0
  2 11  2  0
 11 12  1  0
 12 13  2  0
 13 14  1  0
 14 15  1  0
 14 16  1  0
 16 17  2  0
 17 18  1  0
 18 19  2  3
 19 20  1  0
 20 21  1  0
 21 22  1  0
 22 23  1  0
 23 24  1  0
 24 25  1  0
 18  1  1  0
  9  4  1  0
 16 11  1  0
  1 26  1  0
  3 27  1  0
  5 28  1  0
  6 29  1  0
  7 30  1  0
  8 31  1  0
 10 32  1  0
 12 33  1  0
 15 34  1  0
 15 35  1  0
 15 36  1  0
 20 37  1  0
 20 38  1  0
 21 39  1  0
 21 40  1  0
 22 41  1  0
 22 42  1  0
 24 43  1  0
 24 44  1  0
 25 45  1  0
 25 46  1  0
 25 47  1  0
M  END
>  <ScrubInfo>  (2) 
{"isomerGroup": 0, "isomerId": 1, "confId": 0, "nr_conformers:": 1, "nr_isomers:": 9}

$$$$
_i2
     RDKit          3D

 47 49  0  0  0  0  0  0  0  0999 V2000
   -0.9656    0.7907    0.2097 N   0  0  0  0  0  0  0  0  0  0  0  0
    0.2223    1.4555    0.4057 C   0  0  0  0  0  0  0  0  0  0  0  0
    1.3441    0.8331   -0.0676 N   0  0  0  0  0  0  0  0  0  0  0  0
    1.4362    0.3431   -1.4382 C   0  0  0  0  0  0  0  0  0  0  0  0
    2.7933   -0.3046   -1.6861 C   0  0  0  0  0  0  0  0  0  0  0  0
    2.9863   -1.5850   -0.8806 C   0  0  0  0  0  0  0  0  0  0  0  0
    4.2445   -2.1487   -1.2508 O   0  0  0  0  0  0  0  0  0  0  0  0
    4.5353   -3.3731   -0.5792 C   0  0  0  0  0  0  0  0  0  0  0  0
    5.0674   -3.1263    0.8211 C   0  0  0  0  0  0  0  0  0  0  0  0
    0.3331    2.6082    1.0191 N   0  0  0  0  0  0  0  0  0  0  0  0
   -0.8833    3.0800    1.4147 C   0  0  0  0  0  0  0  0  0  0  0  0
   -2.1209    2.4881    1.2512 C   0  0  0  0  0  0  0  0  0  0  0  0
   -3.0366    3.3758    1.8315 C   0  0  0  0  0  0  0  0  0  0  0  0
   -2.4386    4.4669    2.3277 N   0  0  0  0  0  0  0  0  0  0  0  0
   -1.1238    4.2590    2.0644 N   0  0  0  0  0  0  0  0  0  0  0  0
   -0.1574    5.2475    2.4712 C   0  0  0  0  0  0  0  0  0  0  0  0
   -2.2200    1.2082    0.5982 C   0  0  0  0  0  0  0  0  0  0  0  0
   -3.3842    0.6610    0.4702 N   0  0  0  0  0  0  0  0  0  0  0  0
   -3.4359   -0.6005   -0.1470 C   0  0  0  0  0  0  0  0  0  0  0  0
   -3.3147   -1.7698    0.6054 C   0  0  0  0  0  0  0  0  0  0  0  0
   -3.3339   -3.0160   -0.0269 C   0  0  0  0  0  0  0  0  0  0  0  0
   -3.4817   -3.0975   -1.4140 C   0  0  0  0  0  0  0  0  0  0  0  0
   -3.6216   -1.9355   -2.1725 C   0  0  0  0  0  0  0  0  0  0  0  0
   -3.6080   -0.7026   -1.5331 C   0  0  0  0  0  0  0  0  0  0  0  0
   -3.7624    0.4288   -2.2867 O   0  0  0  0  0  0  0  0  0  0  0  0
   -0.9048   -0.1394   -0.1687 H   0  0  0  0  0  0  0  0  0  0  0  0
    2.1437    1.4249    0.1593 H   0  0  0  0  0  0  0  0  0  0  0  0
    1.3087    1.1858   -2.1275 H   0  0  0  0  0  0  0  0  0  0  0  0
    0.6416   -0.3807   -1.6496 H   0  0  0  0  0  0  0  0  0  0  0  0
    2.8928   -0.5367   -2.7539 H   0  0  0  0  0  0  0  0  0  0  0  0
    3.6051    0.3970   -1.4560 H   0  0  0  0  0  0  0  0  0  0  0  0
    2.1869   -2.2994   -1.1080 H   0  0  0  0  0  0  0  0  0  0  0  0
    2.9763   -1.3654    0.1914 H   0  0  0  0  0  0  0  0  0  0  0  0
    3.6551   -4.0256   -0.5631 H   0  0  0  0  0  0  0  0  0  0  0  0
    5.3079   -3.8808   -1.1660 H   0  0  0  0  0  0  0  0  0  0  0  0
    5.9106   -2.4285    0.7958 H   0  0  0  0  0  0  0  0  0  0  0  0
    5.3973   -4.0637    1.2784 H   0  0  0  0  0  0  0  0  0  0  0  0
    4.3028   -2.6832    1.4659 H   0  0  0  0  0  0  0  0  0  0  0  0
   -4.1111    3.2769    1.9155 H   0  0  0  0  0  0  0  0  0  0  0  0
    0.8490    4.9250    2.1958 H   0  0  0  0  0  0  0  0  0  0  0  0
   -0.3956    6.1880    1.9680 H   0  0  0  0  0  0  0  0  0  0  0  0
   -0.2236    5.3671    3.5556 H   0  0  0  0  0  0  0  0  0  0  0  0
   -3.2078   -1.7097    1.6853 H   0  0  0  0  0  0  0  0  0  0  0  0
   -3.2423   -3.9247    0.5635 H   0  0  0  0  0  0  0  0  0  0  0  0
   -3.5031   -4.0688   -1.9025 H   0  0  0  0  0  0  0  0  0  0  0  0
   -3.7542   -1.9904   -3.2490 H   0  0  0  0  0  0  0  0  0  0  0  0
   -3.9091    1.1461   -1.6374 H   0  0  0  0  0  0  0  0  0  0  0  0
  1  2  1  0
  2  3  1  0
  3  4  1  0
  4  5  1  0
  5  6  1  0
  6  7  1  0
  7  8  1  0
  8  9  1  0
  2 10  2  0
 10 11  1  0
 11 12  2  0
 12 13  1  0
 13 14  2  0
 14 15  1  0
 15 16  1  0
 12 17  1  0
 17 18  2  3
 18 19  1  0
 19 20  2  0
 20 21  1  0
 21 22  2  0
 22 23  1  0
 23 24  2  0
 24 25  1  0
 17  1  1  0
 24 19  1  0
 15 11  1  0
  1 26  1  0
  3 27  1  0
  4 28  1  0
  4 29  1  0
  5 30  1  0
  5 31  1  0
  6 32  1  0
  6 33  1  0
  8 34  1  0
  8 35  1  0
  9 36  1  0
  9 37  1  0
  9 38  1  0
 13 39  1  0
 16 40  1  0
 16 41  1  0
 16 42  1  0
 20 43  1  0
 21 44  1  0
 22 45  1  0
 23 46  1  0
 25 47  1  0
M  END
>  <ScrubInfo>  (3) 
{"isomerGroup": 0, "isomerId": 2, "confId": 0, "nr_conformers:": 1, "nr_isomers:": 9}

$$$$
_i3
     RDKit          3D

 47 49  0  0  0  0  0  0  0  0999 V2000
   -0.1761   -2.1625   -0.3459 N   0  0  0  0  0  0  0  0  0  0  0  0
   -0.1458   -0.8036   -0.0921 C   0  0  0  0  0  0  0  0  0  0  0  0
    0.8747   -0.1162    0.2757 N   0  0  0  0  0  0  0  0  0  0  0  0
    2.1600   -0.7735    0.4611 C   0  0  0  0  0  0  0  0  0  0  0  0
    3.1587    0.2629    0.9691 C   0  0  0  0  0  0  0  0  0  0  0  0
    4.5570   -0.3331    1.0983 C   0  0  0  0  0  0  0  0  0  0  0  0
    5.4664    0.5476    1.7562 O   0  0  0  0  0  0  0  0  0  0  0  0
    5.8675    1.6573    0.9564 C   0  0  0  0  0  0  0  0  0  0  0  0
    6.9427    2.4193    1.7069 C   0  0  0  0  0  0  0  0  0  0  0  0
   -1.2853   -0.0232   -0.2223 N   0  0  0  0  0  0  0  0  0  0  0  0
   -2.4180   -0.5539   -0.5776 C   0  0  0  0  0  0  0  0  0  0  0  0
   -3.6146    0.0868   -0.7544 N   0  0  0  0  0  0  0  0  0  0  0  0
   -3.9884    1.4386   -0.5775 C   0  0  0  0  0  0  0  0  0  0  0  0
   -5.2737    1.7922   -1.0527 C   0  0  0  0  0  0  0  0  0  0  0  0
   -5.7775    3.0931   -0.9492 C   0  0  0  0  0  0  0  0  0  0  0  0
   -5.0054    4.0861   -0.3651 C   0  0  0  0  0  0  0  0  0  0  0  0
   -3.7356    3.7719    0.1068 C   0  0  0  0  0  0  0  0  0  0  0  0
   -3.2294    2.4696   -0.0030 C   0  0  0  0  0  0  0  0  0  0  0  0
   -1.9757    2.3330    0.5191 O   0  0  0  0  0  0  0  0  0  0  0  0
   -2.4870   -1.9795   -0.8411 C   0  0  0  0  0  0  0  0  0  0  0  0
   -3.4557   -2.9236   -1.2218 C   0  0  0  0  0  0  0  0  0  0  0  0
   -2.9522   -4.1623   -1.3254 N   0  0  0  0  0  0  0  0  0  0  0  0
   -1.6452   -4.0107   -1.0019 N   0  0  0  0  0  0  0  0  0  0  0  0
   -0.7848   -5.1665   -1.0043 C   0  0  0  0  0  0  0  0  0  0  0  0
   -1.3427   -2.7188   -0.7098 C   0  0  0  0  0  0  0  0  0  0  0  0
    0.6834   -2.6769   -0.2287 H   0  0  0  0  0  0  0  0  0  0  0  0
    2.5138   -1.1885   -0.4901 H   0  0  0  0  0  0  0  0  0  0  0  0
    2.0794   -1.5863    1.1926 H   0  0  0  0  0  0  0  0  0  0  0  0
    2.8333    0.6615    1.9382 H   0  0  0  0  0  0  0  0  0  0  0  0
    3.1768    1.1208    0.2866 H   0  0  0  0  0  0  0  0  0  0  0  0
    4.9588   -0.6250    0.1208 H   0  0  0  0  0  0  0  0  0  0  0  0
    4.5100   -1.2408    1.7102 H   0  0  0  0  0  0  0  0  0  0  0  0
    5.0151    2.3185    0.7738 H   0  0  0  0  0  0  0  0  0  0  0  0
    6.2644    1.3049   -0.0018 H   0  0  0  0  0  0  0  0  0  0  0  0
    7.2832    3.2837    1.1300 H   0  0  0  0  0  0  0  0  0  0  0  0
    6.5652    2.7664    2.6745 H   0  0  0  0  0  0  0  0  0  0  0  0
    7.8012    1.7717    1.9135 H   0  0  0  0  0  0  0  0  0  0  0  0
   -4.3862   -0.4777   -1.0798 H   0  0  0  0  0  0  0  0  0  0  0  0
   -5.9114    1.0452   -1.5209 H   0  0  0  0  0  0  0  0  0  0  0  0
   -6.7704    3.3255   -1.3252 H   0  0  0  0  0  0  0  0  0  0  0  0
   -5.3842    5.1003   -0.2760 H   0  0  0  0  0  0  0  0  0  0  0  0
   -3.1226    4.5438    0.5666 H   0  0  0  0  0  0  0  0  0  0  0  0
   -1.6063    1.4625    0.2594 H   0  0  0  0  0  0  0  0  0  0  0  0
   -4.5076   -2.7824   -1.4313 H   0  0  0  0  0  0  0  0  0  0  0  0
    0.2332   -4.8745   -0.7387 H   0  0  0  0  0  0  0  0  0  0  0  0
   -1.1680   -5.8822   -0.2726 H   0  0  0  0  0  0  0  0  0  0  0  0
   -0.7951   -5.6016   -2.0068 H   0  0  0  0  0  0  0  0  0  0  0  0
  1  2  1  0
  2  3  2  3
  3  4  1  0
  4  5  1  0
  5  6  1  0
  6  7  1  0
  7  8  1  0
  8  9  1  0
  2 10  1  0
 10 11  2  0
 11 12  1  0
 12 13  1  0
 13 14  2  0
 14 15  1  0
 15 16  2  0
 16 17  1  0
 17 18  2  0
 18 19  1  0
 11 20  1  0
 20 21  1  0
 21 22  2  0
 22 23  1  0
 23 24  1  0
 23 25  1  0
 25  1  1  0
 18 13  1  0
 25 20  2  0
  1 26  1  0
  4 27  1  0
  4 28  1  0
  5 29  1  0
  5 30  1  0
  6 31  1  0
  6 32  1  0
  8 33  1  0
  8 34  1  0
  9 35  1  0
  9 36  1  0
  9 37  1  0
 12 38  1  0
 14 39  1  0
 15 40  1  0
 16 41  1  0
 17 42  1  0
 19 43  1  0
 21 44  1  0
 24 45  1  0
 24 46  1  0
 24 47  1  0
M  END
>  <ScrubInfo>  (4) 
{"isomerGroup": 0, "isomerId": 3, "confId": 0, "nr_conformers:": 1, "nr_isomers:": 9}

$$$$
_i4
     RDKit          3D

 47 49  0  0  0  0  0  0  0  0999 V2000
   -3.3300   -4.1194   -0.6340 N   0  0  0  0  0  0  0  0  0  0  0  0
   -3.7004   -2.7833   -0.5206 C   0  0  0  0  0  0  0  0  0  0  0  0
   -2.6824   -1.9924   -0.1581 C   0  0  0  0  0  0  0  0  0  0  0  0
   -2.4575   -0.5856    0.0790 C   0  0  0  0  0  0  0  0  0  0  0  0
   -3.4157    0.2885    0.0303 N   0  0  0  0  0  0  0  0  0  0  0  0
   -3.1003    1.6445    0.2523 C   0  0  0  0  0  0  0  0  0  0  0  0
   -2.4193    2.4112   -0.6966 C   0  0  0  0  0  0  0  0  0  0  0  0
   -2.1438    3.7595   -0.4480 C   0  0  0  0  0  0  0  0  0  0  0  0
   -2.5608    4.3531    0.7461 C   0  0  0  0  0  0  0  0  0  0  0  0
   -3.2606    3.6043    1.6917 C   0  0  0  0  0  0  0  0  0  0  0  0
   -3.5292    2.2659    1.4324 C   0  0  0  0  0  0  0  0  0  0  0  0
   -4.2415    1.5472    2.3559 O   0  0  0  0  0  0  0  0  0  0  0  0
   -1.1598   -0.2648    0.3652 N   0  0  0  0  0  0  0  0  0  0  0  0
   -0.2193   -1.1557    0.4626 C   0  0  0  0  0  0  0  0  0  0  0  0
    1.0632   -0.7807    0.7460 N   0  0  0  0  0  0  0  0  0  0  0  0
    1.3681    0.4761    1.4026 C   0  0  0  0  0  0  0  0  0  0  0  0
    2.8680    0.7424    1.3764 C   0  0  0  0  0  0  0  0  0  0  0  0
    3.3807    1.0235   -0.0319 C   0  0  0  0  0  0  0  0  0  0  0  0
    4.7767    1.3141    0.0587 O   0  0  0  0  0  0  0  0  0  0  0  0
    5.3654    1.6463   -1.1972 C   0  0  0  0  0  0  0  0  0  0  0  0
    5.6738    0.4042   -2.0140 C   0  0  0  0  0  0  0  0  0  0  0  0
   -0.3853   -2.5082    0.3095 N   0  0  0  0  0  0  0  0  0  0  0  0
   -1.5670   -2.9305    0.0201 C   0  0  0  0  0  0  0  0  0  0  0  0
   -2.0174   -4.2367   -0.1809 N   0  0  0  0  0  0  0  0  0  0  0  0
   -1.1547   -5.2381   -0.7780 C   0  0  0  0  0  0  0  0  0  0  0  0
   -4.0083   -4.7649   -0.2225 H   0  0  0  0  0  0  0  0  0  0  0  0
   -4.7223   -2.4916   -0.7188 H   0  0  0  0  0  0  0  0  0  0  0  0
   -2.0949    1.9538   -1.6264 H   0  0  0  0  0  0  0  0  0  0  0  0
   -1.6056    4.3463   -1.1876 H   0  0  0  0  0  0  0  0  0  0  0  0
   -2.3470    5.4016    0.9362 H   0  0  0  0  0  0  0  0  0  0  0  0
   -3.6002    4.0584    2.6171 H   0  0  0  0  0  0  0  0  0  0  0  0
   -4.3595    0.6755    1.9291 H   0  0  0  0  0  0  0  0  0  0  0  0
    1.6186   -1.5738    1.0456 H   0  0  0  0  0  0  0  0  0  0  0  0
    1.0285    0.4261    2.4434 H   0  0  0  0  0  0  0  0  0  0  0  0
    0.8413    1.3083    0.9210 H   0  0  0  0  0  0  0  0  0  0  0  0
    3.0942    1.6050    2.0157 H   0  0  0  0  0  0  0  0  0  0  0  0
    3.4206   -0.1025    1.8064 H   0  0  0  0  0  0  0  0  0  0  0  0
    2.8559    1.8852   -0.4601 H   0  0  0  0  0  0  0  0  0  0  0  0
    3.2240    0.1523   -0.6753 H   0  0  0  0  0  0  0  0  0  0  0  0
    6.3037    2.1670   -0.9793 H   0  0  0  0  0  0  0  0  0  0  0  0
    4.7273    2.3421   -1.7534 H   0  0  0  0  0  0  0  0  0  0  0  0
    6.2337    0.6662   -2.9165 H   0  0  0  0  0  0  0  0  0  0  0  0
    4.7577   -0.1102   -2.3189 H   0  0  0  0  0  0  0  0  0  0  0  0
    6.2623   -0.3078   -1.4262 H   0  0  0  0  0  0  0  0  0  0  0  0
   -0.9127   -4.9763   -1.8133 H   0  0  0  0  0  0  0  0  0  0  0  0
   -1.6464   -6.2163   -0.7722 H   0  0  0  0  0  0  0  0  0  0  0  0
   -0.2220   -5.3297   -0.2122 H   0  0  0  0  0  0  0  0  0  0  0  0
  1  2  1  0
  2  3  2  0
  3  4  1  0
  4  5  2  3
  5  6  1  0
  6  7  2  0
  7  8  1  0
  8  9  2  0
  9 10  1  0
 10 11  2  0
 11 12  1  0
  4 13  1  0
 13 14  2  0
 14 15  1  0
 15 16  1  0
 16 17  1  0
 17 18  1  0
 18 19  1  0
 19 20  1  0
 20 21  1  0
 14 22  1  0
 22 23  2  0
 23 24  1  0
 24 25  1  0
 24  1  1  0
 23  3  1  0
 11  6  1  0
  1 26  1  0
  2 27  1  0
  7 28  1  0
  8 29  1  0
  9 30  1  0
 10 31  1  0
 12 32  1  0
 15 33  1  0
 16 34  1  0
 16 35  1  0
 17 36  1  0
 17 37  1  0
 18 38  1  0
 18 39  1  0
 20 40  1  0
 20 41  1  0
 21 42  1  0
 21 43  1  0
 21 44  1  0
 25 45  1  0
 25 46  1  0
 25 47  1  0
M  END
>  <ScrubInfo>  (5) 
{"isomerGroup": 0, "isomerId": 4, "confId": 0, "nr_conformers:": 1, "nr_isomers:": 9}

$$$$
_i5
     RDKit          3D

 47 49  0  0  0  0  0  0  0  0999 V2000
   -0.7036   -2.4586    0.2753 N   0  0  0  0  0  0  0  0  0  0  0  0
    0.2364   -1.6181   -0.2733 C   0  0  0  0  0  0  0  0  0  0  0  0
    1.4727   -2.2077   -0.3186 N   0  0  0  0  0  0  0  0  0  0  0  0
    2.6183   -1.5110   -0.8948 C   0  0  0  0  0  0  0  0  0  0  0  0
    3.2146   -0.5307    0.1109 C   0  0  0  0  0  0  0  0  0  0  0  0
    4.4505    0.1548   -0.4635 C   0  0  0  0  0  0  0  0  0  0  0  0
    4.9784    1.1351    0.4288 O   0  0  0  0  0  0  0  0  0  0  0  0
    5.7544    0.5848    1.4894 C   0  0  0  0  0  0  0  0  0  0  0  0
    6.3206    1.7292    2.3075 C   0  0  0  0  0  0  0  0  0  0  0  0
   -0.0004   -0.4131   -0.7024 N   0  0  0  0  0  0  0  0  0  0  0  0
   -1.2780    0.1229   -0.6192 C   0  0  0  0  0  0  0  0  0  0  0  0
   -1.4108    1.3246   -1.0866 N   0  0  0  0  0  0  0  0  0  0  0  0
   -2.6303    2.0082   -1.0550 C   0  0  0  0  0  0  0  0  0  0  0  0
   -3.0204    2.7446    0.0651 C   0  0  0  0  0  0  0  0  0  0  0  0
   -4.2391    3.4293    0.0635 C   0  0  0  0  0  0  0  0  0  0  0  0
   -5.0634    3.3942   -1.0648 C   0  0  0  0  0  0  0  0  0  0  0  0
   -4.6663    2.6890   -2.2009 C   0  0  0  0  0  0  0  0  0  0  0  0
   -3.4506    2.0178   -2.1901 C   0  0  0  0  0  0  0  0  0  0  0  0
   -3.0478    1.3614   -3.3220 O   0  0  0  0  0  0  0  0  0  0  0  0
   -2.3024   -0.7251   -0.0338 C   0  0  0  0  0  0  0  0  0  0  0  0
   -3.6770   -0.6541    0.2575 C   0  0  0  0  0  0  0  0  0  0  0  0
   -4.1427   -1.7658    0.8500 N   0  0  0  0  0  0  0  0  0  0  0  0
   -3.0584   -2.5687    0.9242 N   0  0  0  0  0  0  0  0  0  0  0  0
   -3.1988   -3.8798    1.5043 C   0  0  0  0  0  0  0  0  0  0  0  0
   -1.9540   -1.9810    0.3961 C   0  0  0  0  0  0  0  0  0  0  0  0
   -0.3668   -3.2762    0.7649 H   0  0  0  0  0  0  0  0  0  0  0  0
    1.4372   -3.1810   -0.5975 H   0  0  0  0  0  0  0  0  0  0  0  0
    2.3391   -1.0076   -1.8279 H   0  0  0  0  0  0  0  0  0  0  0  0
    3.3747   -2.2608   -1.1554 H   0  0  0  0  0  0  0  0  0  0  0  0
    2.4812    0.2304    0.4030 H   0  0  0  0  0  0  0  0  0  0  0  0
    3.4687   -1.0622    1.0352 H   0  0  0  0  0  0  0  0  0  0  0  0
    5.2274   -0.5716   -0.7298 H   0  0  0  0  0  0  0  0  0  0  0  0
    4.1754    0.6846   -1.3823 H   0  0  0  0  0  0  0  0  0  0  0  0
    5.1306   -0.0467    2.1289 H   0  0  0  0  0  0  0  0  0  0  0  0
    6.5731   -0.0159    1.0786 H   0  0  0  0  0  0  0  0  0  0  0  0
    6.9283    1.3537    3.1356 H   0  0  0  0  0  0  0  0  0  0  0  0
    5.5141    2.3488    2.7135 H   0  0  0  0  0  0  0  0  0  0  0  0
    6.9394    2.3812    1.6822 H   0  0  0  0  0  0  0  0  0  0  0  0
   -2.3754    2.7832    0.9385 H   0  0  0  0  0  0  0  0  0  0  0  0
   -4.5433    3.9950    0.9407 H   0  0  0  0  0  0  0  0  0  0  0  0
   -6.0096    3.9296   -1.0635 H   0  0  0  0  0  0  0  0  0  0  0  0
   -5.2897    2.6738   -3.0895 H   0  0  0  0  0  0  0  0  0  0  0  0
   -2.1175    1.1145   -3.1412 H   0  0  0  0  0  0  0  0  0  0  0  0
   -4.3773    0.1498    0.0764 H   0  0  0  0  0  0  0  0  0  0  0  0
   -4.0094   -4.4021    0.9896 H   0  0  0  0  0  0  0  0  0  0  0  0
   -2.2692   -4.4408    1.3883 H   0  0  0  0  0  0  0  0  0  0  0  0
   -3.4330   -3.7617    2.5652 H   0  0  0  0  0  0  0  0  0  0  0  0
  1  2  1  0
  2  3  1  0
  3  4  1  0
  4  5  1  0
  5  6  1  0
  6  7  1  0
  7  8  1  0
  8  9  1  0
  2 10  2  0
 10 11  1  0
 11 12  2  3
 12 13  1  0
 13 14  2  0
 14 15  1  0
 15 16  2  0
 16 17  1  0
 17 18  2  0
 18 19  1  0
 11 20  1  0
 20 21  1  0
 21 22  2  0
 22 23  1  0
 23 24  1  0
 23 25  1  0
 25  1  1  0
 18 13  1  0
 25 20  2  0
  1 26  1  0
  3 27  1  0
  4 28  1  0
  4 29  1  0
  5 30  1  0
  5 31  1  0
  6 32  1  0
  6 33  1  0
  8 34  1  0
  8 35  1  0
  9 36  1  0
  9 37  1  0
  9 38  1  0
 14 39  1  0
 15 40  1  0
 16 41  1  0
 17 42  1  0
 19 43  1  0
 21 44  1  0
 24 45  1  0
 24 46  1  0
 24 47  1  0
M  END
>  <ScrubInfo>  (6) 
{"isomerGroup": 0, "isomerId": 5, "confId": 0, "nr_conformers:": 1, "nr_isomers:": 9}

$$$$
_i6
     RDKit          3D

 47 49  0  0  0  0  0  0  0  0999 V2000
   -3.4904   -4.2758   -0.3564 N   0  0  0  0  0  0  0  0  0  0  0  0
   -3.6960   -2.9492    0.0080 C   0  0  0  0  0  0  0  0  0  0  0  0
   -2.5812   -2.2083   -0.0644 C   0  0  0  0  0  0  0  0  0  0  0  0
   -2.1658   -0.8268    0.1982 C   0  0  0  0  0  0  0  0  0  0  0  0
   -3.1134    0.0831    0.6129 N   0  0  0  0  0  0  0  0  0  0  0  0
   -3.0100    1.4493    0.9398 C   0  0  0  0  0  0  0  0  0  0  0  0
   -1.8387    2.2039    0.8716 C   0  0  0  0  0  0  0  0  0  0  0  0
   -1.8373    3.5604    1.2192 C   0  0  0  0  0  0  0  0  0  0  0  0
   -3.0112    4.1835    1.6401 C   0  0  0  0  0  0  0  0  0  0  0  0
   -4.1945    3.4542    1.7158 C   0  0  0  0  0  0  0  0  0  0  0  0
   -4.1828    2.1042    1.3672 C   0  0  0  0  0  0  0  0  0  0  0  0
   -5.3379    1.3594    1.4328 O   0  0  0  0  0  0  0  0  0  0  0  0
   -0.9059   -0.5461    0.0208 N   0  0  0  0  0  0  0  0  0  0  0  0
   -0.0297   -1.5326   -0.3818 C   0  0  0  0  0  0  0  0  0  0  0  0
    1.2263   -1.2667   -0.4715 N   0  0  0  0  0  0  0  0  0  0  0  0
    1.6611    0.0850   -0.1337 C   0  0  0  0  0  0  0  0  0  0  0  0
    3.1786    0.1506   -0.2829 C   0  0  0  0  0  0  0  0  0  0  0  0
    3.6973    1.5577   -0.0043 C   0  0  0  0  0  0  0  0  0  0  0  0
    5.1241    1.6156    0.0145 O   0  0  0  0  0  0  0  0  0  0  0  0
    5.7130    1.5459   -1.2815 C   0  0  0  0  0  0  0  0  0  0  0  0
    7.2075    1.7584   -1.1356 C   0  0  0  0  0  0  0  0  0  0  0  0
   -0.3445   -2.8262   -0.7201 N   0  0  0  0  0  0  0  0  0  0  0  0
   -1.5776   -3.1621   -0.5797 C   0  0  0  0  0  0  0  0  0  0  0  0
   -2.1916   -4.3873   -0.8419 N   0  0  0  0  0  0  0  0  0  0  0  0
   -1.4695   -5.6326   -0.6616 C   0  0  0  0  0  0  0  0  0  0  0  0
   -4.2255   -4.6553   -0.9577 H   0  0  0  0  0  0  0  0  0  0  0  0
   -4.6876   -2.6386    0.3028 H   0  0  0  0  0  0  0  0  0  0  0  0
   -4.0695   -0.2353    0.7454 H   0  0  0  0  0  0  0  0  0  0  0  0
   -0.9034    1.7611    0.5481 H   0  0  0  0  0  0  0  0  0  0  0  0
   -0.9116    4.1282    1.1591 H   0  0  0  0  0  0  0  0  0  0  0  0
   -2.9993    5.2369    1.9080 H   0  0  0  0  0  0  0  0  0  0  0  0
   -5.1030    3.9480    2.0441 H   0  0  0  0  0  0  0  0  0  0  0  0
   -6.0498    1.9420    1.7491 H   0  0  0  0  0  0  0  0  0  0  0  0
    1.2005    0.8160   -0.8095 H   0  0  0  0  0  0  0  0  0  0  0  0
    1.3906    0.3346    0.8996 H   0  0  0  0  0  0  0  0  0  0  0  0
    3.6604   -0.5636    0.3966 H   0  0  0  0  0  0  0  0  0  0  0  0
    3.4617   -0.1652   -1.2937 H   0  0  0  0  0  0  0  0  0  0  0  0
    3.3618    1.8783    0.9882 H   0  0  0  0  0  0  0  0  0  0  0  0
    3.3017    2.2814   -0.7269 H   0  0  0  0  0  0  0  0  0  0  0  0
    5.2907    2.3234   -1.9273 H   0  0  0  0  0  0  0  0  0  0  0  0
    5.5283    0.5648   -1.7289 H   0  0  0  0  0  0  0  0  0  0  0  0
    7.6432    0.9966   -0.4806 H   0  0  0  0  0  0  0  0  0  0  0  0
    7.4157    2.7305   -0.6765 H   0  0  0  0  0  0  0  0  0  0  0  0
    7.7047    1.7137   -2.1086 H   0  0  0  0  0  0  0  0  0  0  0  0
   -1.2170   -5.7868    0.3926 H   0  0  0  0  0  0  0  0  0  0  0  0
   -2.0779   -6.4774   -1.0008 H   0  0  0  0  0  0  0  0  0  0  0  0
   -0.5448   -5.6305   -1.2475 H   0  0  0  0  0  0  0  0  0  0  0  0
  1  2  1  0
  2  3  2  0
  3  4  1  0
  4  5  1  0
  5  6  1  0
  6  7  2  0
  7  8  1  0
  8  9  2  0
  9 10  1  0
 10 11  2  0
 11 12  1  0
  4 13  2  0
 13 14  1  0
 14 15  2  3
 15 16  1  0
 16 17  1  0
 17 18  1  0
 18 19  1  0
 19 20  1  0
 20 21  1  0
 14 22  1  0
 22 23  2  0
 23 24  1  0
 24 25  1  0
 24  1  1  0
 23  3  1  0
 11  6  1  0
  1 26  1  0
  2 27  1  0
  5 28  1  0
  7 29  1  0
  8 30  1  0
  9 31  1  0
 10 32  1  0
 12 33  1  0
 16 34  1  0
 16 35  1  0
 17 36  1  0
 17 37  1  0
 18 38  1  0
 18 39  1  0
 20 40  1  0
 20 41  1  0
 21 42  1  0
 21 43  1  0
 21 44  1  0
 25 45  1  0
 25 46  1  0
 25 47  1  0
M  END
>  <ScrubInfo>  (7) 
{"isomerGroup": 0, "isomerId": 6, "confId": 0, "nr_conformers:": 1, "nr_isomers:": 9}

$$$$
_i7
     RDKit          3D

 47 49  0  0  0  0  0  0  0  0999 V2000
   -4.2708   -3.4499   -1.3464 N   0  0  0  0  0  0  0  0  0  0  0  0
   -4.3872   -2.0996   -1.0362 C   0  0  0  0  0  0  0  0  0  0  0  0
   -3.2068   -1.5204   -0.7873 C   0  0  0  0  0  0  0  0  0  0  0  0
   -2.6997   -0.2056   -0.3940 C   0  0  0  0  0  0  0  0  0  0  0  0
   -3.5352    0.7808   -0.2386 N   0  0  0  0  0  0  0  0  0  0  0  0
   -3.0186    2.0420    0.1078 C   0  0  0  0  0  0  0  0  0  0  0  0
   -2.5386    2.9165   -0.8686 C   0  0  0  0  0  0  0  0  0  0  0  0
   -1.9985    4.1515   -0.4994 C   0  0  0  0  0  0  0  0  0  0  0  0
   -1.9442    4.5196    0.8475 C   0  0  0  0  0  0  0  0  0  0  0  0
   -2.4392    3.6609    1.8287 C   0  0  0  0  0  0  0  0  0  0  0  0
   -2.9792    2.4388    1.4498 C   0  0  0  0  0  0  0  0  0  0  0  0
   -3.4759    1.6104    2.4185 O   0  0  0  0  0  0  0  0  0  0  0  0
   -1.3359   -0.1964   -0.2225 N   0  0  0  0  0  0  0  0  0  0  0  0
   -0.4832   -1.2646   -0.3868 C   0  0  0  0  0  0  0  0  0  0  0  0
    0.7865   -1.2594   -0.1822 N   0  0  0  0  0  0  0  0  0  0  0  0
    1.4421   -0.0404    0.2722 C   0  0  0  0  0  0  0  0  0  0  0  0
    2.9254   -0.3392    0.4709 C   0  0  0  0  0  0  0  0  0  0  0  0
    3.6915    0.9139    0.8831 C   0  0  0  0  0  0  0  0  0  0  0  0
    5.0427    0.6279    1.2421 O   0  0  0  0  0  0  0  0  0  0  0  0
    5.8853    0.3577    0.1247 C   0  0  0  0  0  0  0  0  0  0  0  0
    7.3081    0.2090    0.6281 C   0  0  0  0  0  0  0  0  0  0  0  0
   -0.9518   -2.4922   -0.8121 N   0  0  0  0  0  0  0  0  0  0  0  0
   -2.2240   -2.6226   -1.0150 C   0  0  0  0  0  0  0  0  0  0  0  0
   -2.9155   -3.7546   -1.4536 N   0  0  0  0  0  0  0  0  0  0  0  0
   -2.4589   -5.0867   -1.1051 C   0  0  0  0  0  0  0  0  0  0  0  0
   -4.8590   -3.7392   -2.1314 H   0  0  0  0  0  0  0  0  0  0  0  0
   -5.3639   -1.6368   -1.0206 H   0  0  0  0  0  0  0  0  0  0  0  0
   -2.5867    2.6369   -1.9175 H   0  0  0  0  0  0  0  0  0  0  0  0
   -1.6263    4.8309   -1.2626 H   0  0  0  0  0  0  0  0  0  0  0  0
   -1.5278    5.4832    1.1319 H   0  0  0  0  0  0  0  0  0  0  0  0
   -2.4148    3.9454    2.8764 H   0  0  0  0  0  0  0  0  0  0  0  0
   -3.9369    0.9012    1.9273 H   0  0  0  0  0  0  0  0  0  0  0  0
   -0.9243    0.6639    0.0992 H   0  0  0  0  0  0  0  0  0  0  0  0
    1.3262    0.7546   -0.4742 H   0  0  0  0  0  0  0  0  0  0  0  0
    1.0107    0.3001    1.2211 H   0  0  0  0  0  0  0  0  0  0  0  0
    3.0581   -1.1211    1.2292 H   0  0  0  0  0  0  0  0  0  0  0  0
    3.3440   -0.7509   -0.4549 H   0  0  0  0  0  0  0  0  0  0  0  0
    3.2216    1.3508    1.7712 H   0  0  0  0  0  0  0  0  0  0  0  0
    3.6645    1.6771    0.0964 H   0  0  0  0  0  0  0  0  0  0  0  0
    5.8316    1.1835   -0.5930 H   0  0  0  0  0  0  0  0  0  0  0  0
    5.5756   -0.5691   -0.3672 H   0  0  0  0  0  0  0  0  0  0  0  0
    7.9942    0.0003   -0.1975 H   0  0  0  0  0  0  0  0  0  0  0  0
    7.3757   -0.6043    1.3582 H   0  0  0  0  0  0  0  0  0  0  0  0
    7.6345    1.1221    1.1369 H   0  0  0  0  0  0  0  0  0  0  0  0
   -2.5277   -5.2510   -0.0247 H   0  0  0  0  0  0  0  0  0  0  0  0
   -3.0684   -5.8423   -1.6113 H   0  0  0  0  0  0  0  0  0  0  0  0
   -1.4198   -5.2325   -1.4170 H   0  0  0  0  0  0  0  0  0  0  0  0
  1  2  1  0
  2  3  2  0
  3  4  1  0
  4  5  2  3
  5  6  1  0
  6  7  2  0
  7  8  1  0
  8  9  2  0
  9 10  1  0
 10 11  2  0
 11 12  1  0
  4 13  1  0
 13 14  1  0
 14 15  2  3
 15 16  1  0
 16 17  1  0
 17 18  1  0
 18 19  1  0
 19 20  1  0
 20 21  1  0
 14 22  1  0
 22 23  2  0
 23 24  1  0
 24 25  1  0
 24  1  1  0
 23  3  1  0
 11  6  1  0
  1 26  1  0
  2 27  1  0
  7 28  1  0
  8 29  1  0
  9 30  1  0
 10 31  1  0
 12 32  1  0
 13 33  1  0
 16 34  1  0
 16 35  1  0
 17 36  1  0
 17 37  1  0
 18 38  1  0
 18 39  1  0
 20 40  1  0
 20 41  1  0
 21 42  1  0
 21 43  1  0
 21 44  1  0
 25 45  1  0
 25 46  1  0
 25 47  1  0
M  END
>  <ScrubInfo>  (8) 
{"isomerGroup": 0, "isomerId": 7, "confId": 0, "nr_conformers:": 1, "nr_isomers:": 9}

$$$$
_i8
     RDKit          3D

 47 49  0  0  0  0  0  0  0  0999 V2000
   -0.6939   -1.6587   -0.3106 N   0  0  0  0  0  0  0  0  0  0  0  0
   -0.3758   -0.3744    0.1096 C   0  0  0  0  0  0  0  0  0  0  0  0
    0.6830    0.0102    0.7426 N   0  0  0  0  0  0  0  0  0  0  0  0
    1.6887   -0.9992    1.0714 C   0  0  0  0  0  0  0  0  0  0  0  0
    2.8775   -0.2969    1.7238 C   0  0  0  0  0  0  0  0  0  0  0  0
    3.9168   -1.2879    2.2373 C   0  0  0  0  0  0  0  0  0  0  0  0
    4.3473   -2.1527    1.1870 O   0  0  0  0  0  0  0  0  0  0  0  0
    5.7157   -1.9920    0.8198 C   0  0  0  0  0  0  0  0  0  0  0  0
    5.9472   -0.7142    0.0336 C   0  0  0  0  0  0  0  0  0  0  0  0
   -1.3360    0.5661   -0.2064 N   0  0  0  0  0  0  0  0  0  0  0  0
   -2.5582    0.4447   -0.8369 C   0  0  0  0  0  0  0  0  0  0  0  0
   -3.4645    1.3120   -1.1421 N   0  0  0  0  0  0  0  0  0  0  0  0
   -3.2671    2.6647   -0.8137 C   0  0  0  0  0  0  0  0  0  0  0  0
   -3.2414    3.5953   -1.8567 C   0  0  0  0  0  0  0  0  0  0  0  0
   -3.0880    4.9594   -1.5970 C   0  0  0  0  0  0  0  0  0  0  0  0
   -2.9693    5.4101   -0.2832 C   0  0  0  0  0  0  0  0  0  0  0  0
   -3.0072    4.5000    0.7730 C   0  0  0  0  0  0  0  0  0  0  0  0
   -3.1604    3.1386    0.5051 C   0  0  0  0  0  0  0  0  0  0  0  0
   -3.1821    2.2449    1.5431 O   0  0  0  0  0  0  0  0  0  0  0  0
   -2.7985   -0.9295   -1.2143 C   0  0  0  0  0  0  0  0  0  0  0  0
   -3.8416   -1.6149   -1.8541 C   0  0  0  0  0  0  0  0  0  0  0  0
   -3.5877   -2.9269   -1.9806 N   0  0  0  0  0  0  0  0  0  0  0  0
   -2.3646   -3.0755   -1.4151 N   0  0  0  0  0  0  0  0  0  0  0  0
   -1.7707   -4.3876   -1.3728 C   0  0  0  0  0  0  0  0  0  0  0  0
   -1.8660   -1.9002   -0.9411 C   0  0  0  0  0  0  0  0  0  0  0  0
   -0.0257   -2.3888   -0.1059 H   0  0  0  0  0  0  0  0  0  0  0  0
    2.0228   -1.5181    0.1652 H   0  0  0  0  0  0  0  0  0  0  0  0
    1.2684   -1.7343    1.7681 H   0  0  0  0  0  0  0  0  0  0  0  0
    2.5351    0.3290    2.5566 H   0  0  0  0  0  0  0  0  0  0  0  0
    3.3339    0.3745    0.9869 H   0  0  0  0  0  0  0  0  0  0  0  0
    3.4679   -1.9201    3.0114 H   0  0  0  0  0  0  0  0  0  0  0  0
    4.7551   -0.7555    2.7017 H   0  0  0  0  0  0  0  0  0  0  0  0
    6.3564   -2.0385    1.7076 H   0  0  0  0  0  0  0  0  0  0  0  0
    5.9758   -2.8476    0.1878 H   0  0  0  0  0  0  0  0  0  0  0  0
    6.9738   -0.6736   -0.3419 H   0  0  0  0  0  0  0  0  0  0  0  0
    5.2568   -0.6515   -0.8137 H   0  0  0  0  0  0  0  0  0  0  0  0
    5.7769    0.1701    0.6551 H   0  0  0  0  0  0  0  0  0  0  0  0
   -1.1240    1.4852    0.1510 H   0  0  0  0  0  0  0  0  0  0  0  0
   -3.3477    3.2489   -2.8818 H   0  0  0  0  0  0  0  0  0  0  0  0
   -3.0679    5.6676   -2.4216 H   0  0  0  0  0  0  0  0  0  0  0  0
   -2.8509    6.4723   -0.0833 H   0  0  0  0  0  0  0  0  0  0  0  0
   -2.9108    4.8652    1.7908 H   0  0  0  0  0  0  0  0  0  0  0  0
   -3.3421    2.7295    2.3691 H   0  0  0  0  0  0  0  0  0  0  0  0
   -4.7739   -1.2150   -2.2318 H   0  0  0  0  0  0  0  0  0  0  0  0
   -0.7062   -4.3064   -1.1435 H   0  0  0  0  0  0  0  0  0  0  0  0
   -2.2800   -4.9673   -0.5991 H   0  0  0  0  0  0  0  0  0  0  0  0
   -1.8968   -4.8611   -2.3500 H   0  0  0  0  0  0  0  0  0  0  0  0
  1  2  1  0
  2  3  2  3
  3  4  1  0
  4  5  1  0
  5  6  1  0
  6  7  1  0
  7  8  1  0
  8  9  1  0
  2 10  1  0
 10 11  1  0
 11 12  2  3
 12 13  1  0
 13 14  2  0
 14 15  1  0
 15 16  2  0
 16 17  1  0
 17 18  2  0
 18 19  1  0
 11 20  1  0
 20 21  1  0
 21 22  2  0
 22 23  1  0
 23 24  1  0
 23 25  1  0
 25  1  1  0
 18 13  1  0
 25 20  2  0
  1 26  1  0
  4 27  1  0
  4 28  1  0
  5 29  1  0
  5 30  1  0
  6 31  1  0
  6 32  1  0
  8 33  1  0
  8 34  1  0
  9 35  1  0
  9 36  1  0
  9 37  1  0
 10 38  1  0
 14 39  1  0
 15 40  1  0
 16 41  1  0
 17 42  1  0
 19 43  1  0
 21 44  1  0
 24 45  1  0
 24 46  1  0
 24 47  1  0
M  END
>  <ScrubInfo>  (9) 
{"isomerGroup": 0, "isomerId": 8, "confId": 0, "nr_conformers:": 1, "nr_isomers:": 9}

$$$$
