REMARK SMILES OCCNc1nc(NC[C@H]2CCCO2)c2ccccc2n1
REMARK SMILES IDX 4 1 3 3 2 4 1 5 5 7 6 8 21 9 7 10 20 11 15 12 19 13 16 14
REMARK SMILES IDX 18 15 17 16 8 17 9 19 10 20 11 21 14 22 12 23 13 24
REMARK H PARENT 4 2 1 6 8 18
ROOT
ATOM      1  N   UNL     1      -2.429   1.096   1.005  1.00  0.00    -0.352 N 
ATOM      2  H   UNL     1      -1.963   1.887   0.569  1.00  0.00     0.163 HD
ENDROOT
BRANCH   1   3
ATOM      3  C   UNL     1      -3.878   1.104   0.826  1.00  0.00     0.144 C 
BRANCH   3   4
ATOM      4  C   UNL     1      -4.492   2.240   1.650  1.00  0.00     0.177 C 
BRANCH   4   5
ATOM      5  O   UNL     1      -3.914   3.497   1.298  1.00  0.00    -0.395 OA
ATOM      6  H   UNL     1      -3.005   3.473   1.646  1.00  0.00     0.210 HD
ENDBRANCH   4   5
ENDBRANCH   3   4
ENDBRANCH   1   3
BRANCH   1   7
ATOM      7  C   UNL     1      -1.802  -0.009   0.436  1.00  0.00     0.225 A 
ATOM      8  N   UNL     1      -0.637   0.248  -0.161  1.00  0.00    -0.195 NA
ATOM      9  N   UNL     1      -2.361  -1.219   0.507  1.00  0.00    -0.213 NA
ATOM     10  C   UNL     1       0.028  -0.775  -0.719  1.00  0.00     0.139 A 
ATOM     11  C   UNL     1      -1.694  -2.244  -0.029  1.00  0.00     0.078 A 
ATOM     12  C   UNL     1      -0.460  -2.091  -0.668  1.00  0.00     0.043 A 
ATOM     13  C   UNL     1      -2.248  -3.516   0.052  1.00  0.00     0.029 A 
ATOM     14  C   UNL     1       0.200  -3.232  -1.196  1.00  0.00     0.014 A 
ATOM     15  C   UNL     1      -1.606  -4.639  -0.476  1.00  0.00     0.002 A 
ATOM     16  C   UNL     1      -0.374  -4.497  -1.100  1.00  0.00     0.001 A 
BRANCH  10  17
ATOM     17  N   UNL     1       1.262  -0.522  -1.362  1.00  0.00    -0.367 N 
ATOM     18  H   UNL     1       1.195  -0.884  -2.310  1.00  0.00     0.162 HD
BRANCH  17  19
ATOM     19  C   UNL     1       1.714   0.875  -1.370  1.00  0.00     0.146 C 
BRANCH  19  20
ATOM     20  C   UNL     1       2.294   1.344  -0.021  1.00  0.00     0.137 C 
ATOM     21  C   UNL     1       3.490   0.525   0.456  1.00  0.00     0.036 C 
ATOM     22  O   UNL     1       2.773   2.702  -0.182  1.00  0.00    -0.376 OA
ATOM     23  C   UNL     1       4.667   1.300  -0.080  1.00  0.00     0.031 C 
ATOM     24  C   UNL     1       4.185   2.725   0.060  1.00  0.00     0.160 C 
ENDBRANCH  19  20
ENDBRANCH  17  19
ENDBRANCH  10  17
ENDBRANCH   1   7
TORSDOF 7
