_i0
     RDKit          3D

 41 43  0  0  0  0  0  0  0  0999 V2000
   -3.9141    3.4968    1.2975 O   0  0  0  0  0  0  0  0  0  0  0  0
   -4.4921    2.2404    1.6497 C   0  0  0  0  0  0  0  0  0  0  0  0
   -3.8783    1.1039    0.8258 C   0  0  0  0  0  0  0  0  0  0  0  0
   -2.4291    1.0959    1.0052 N   0  0  0  0  0  0  0  0  0  0  0  0
   -1.8019   -0.0088    0.4359 C   0  0  0  0  0  0  0  0  0  0  0  0
   -0.6369    0.2483   -0.1611 N   0  0  0  0  0  0  0  0  0  0  0  0
    0.0280   -0.7754   -0.7194 C   0  0  0  0  0  0  0  0  0  0  0  0
    1.2622   -0.5216   -1.3618 N   0  0  0  0  0  0  0  0  0  0  0  0
    1.7143    0.8747   -1.3699 C   0  0  0  0  0  0  0  0  0  0  0  0
    2.2937    1.3442   -0.0210 C   0  0  0  0  0  0  0  0  0  0  0  0
    3.4896    0.5253    0.4563 C   0  0  0  0  0  0  0  0  0  0  0  0
    4.6665    1.2999   -0.0803 C   0  0  0  0  0  0  0  0  0  0  0  0
    4.1854    2.7247    0.0596 C   0  0  0  0  0  0  0  0  0  0  0  0
    2.7733    2.7023   -0.1824 O   0  0  0  0  0  0  0  0  0  0  0  0
   -0.4601   -2.0914   -0.6680 C   0  0  0  0  0  0  0  0  0  0  0  0
    0.1995   -3.2320   -1.1955 C   0  0  0  0  0  0  0  0  0  0  0  0
   -0.3745   -4.4975   -1.1000 C   0  0  0  0  0  0  0  0  0  0  0  0
   -1.6060   -4.6393   -0.4761 C   0  0  0  0  0  0  0  0  0  0  0  0
   -2.2485   -3.5160    0.0522 C   0  0  0  0  0  0  0  0  0  0  0  0
   -1.6941   -2.2436   -0.0292 C   0  0  0  0  0  0  0  0  0  0  0  0
   -2.3605   -1.2187    0.5074 N   0  0  0  0  0  0  0  0  0  0  0  0
   -3.0045    3.4727    1.6461 H   0  0  0  0  0  0  0  0  0  0  0  0
   -4.3363    2.0804    2.7221 H   0  0  0  0  0  0  0  0  0  0  0  0
   -5.5690    2.2991    1.4654 H   0  0  0  0  0  0  0  0  0  0  0  0
   -4.1085    1.2585   -0.2354 H   0  0  0  0  0  0  0  0  0  0  0  0
   -4.3387    0.1644    1.1529 H   0  0  0  0  0  0  0  0  0  0  0  0
   -1.9633    1.8871    0.5685 H   0  0  0  0  0  0  0  0  0  0  0  0
    1.1948   -0.8837   -2.3101 H   0  0  0  0  0  0  0  0  0  0  0  0
    2.4961    0.9650   -2.1352 H   0  0  0  0  0  0  0  0  0  0  0  0
    0.9216    1.5550   -1.7085 H   0  0  0  0  0  0  0  0  0  0  0  0
    1.5155    1.3557    0.7483 H   0  0  0  0  0  0  0  0  0  0  0  0
    3.4797   -0.5213    0.1411 H   0  0  0  0  0  0  0  0  0  0  0  0
    3.5216    0.5380    1.5531 H   0  0  0  0  0  0  0  0  0  0  0  0
    5.5986    1.1097    0.4579 H   0  0  0  0  0  0  0  0  0  0  0  0
    4.8228    1.0561   -1.1374 H   0  0  0  0  0  0  0  0  0  0  0  0
    4.3468    3.1010    1.0755 H   0  0  0  0  0  0  0  0  0  0  0  0
    4.6699    3.4047   -0.6464 H   0  0  0  0  0  0  0  0  0  0  0  0
    1.1736   -3.1320   -1.6688 H   0  0  0  0  0  0  0  0  0  0  0  0
    0.1400   -5.3653   -1.5042 H   0  0  0  0  0  0  0  0  0  0  0  0
   -2.0681   -5.6193   -0.3897 H   0  0  0  0  0  0  0  0  0  0  0  0
   -3.2092   -3.6382    0.5482 H   0  0  0  0  0  0  0  0  0  0  0  0
  1  2  1  0
  2  3  1  0
  3  4  1  0
  4  5  1  0
  5  6  2  0
  6  7  1  0
  7  8  1  0
  8  9  1  0
  9 10  1  0
 10 11  1  0
 11 12  1  0
 12 13  1  0
 13 14  1  0
  7 15  2  0
 15 16  1  0
 16 17  2  0
 17 18  1  0
 18 19  2  0
 19 20  1  0
 20 21  2  0
 21  5  1  0
 14 10  1  0
 20 15  1  0
  1 22  1  0
  2 23  1  0
  2 24  1  0
  3 25  1  0
  3 26  1  0
  4 27  1  0
  8 28  1  0
  9 29  1  0
  9 30  1  0
 10 31  1  0
 11 32  1  0
 11 33  1  0
 12 34  1  0
 12 35  1  0
 13 36  1  0
 13 37  1  0
 16 38  1  0
 17 39  1  0
 18 40  1  0
 19 41  1  0
M  END
>  <ScrubInfo>  (1) 
{"isomerGroup": 0, "isomerId": 0, "confId": 0, "nr_conformers:": 1, "nr_isomers:": 6}

$$$$
_i1
     RDKit          3D

 41 43  0  0  0  0  0  0  0  0999 V2000
    1.0100   -0.6751    0.0178 N   0  0  0  0  0  0  0  0  0  0  0  0
    0.3549    0.5322    0.0031 C   0  0  0  0  0  0  0  0  0  0  0  0
   -0.9620    0.6105    0.4421 N   0  0  0  0  0  0  0  0  0  0  0  0
   -1.9142   -0.4990    0.4496 C   0  0  0  0  0  0  0  0  0  0  0  0
   -3.2739   -0.0016    0.9570 C   0  0  0  0  0  0  0  0  0  0  0  0
   -4.3431   -1.0800    0.9720 C   0  0  0  0  0  0  0  0  0  0  0  0
   -5.6026   -0.2573    0.8661 C   0  0  0  0  0  0  0  0  0  0  0  0
   -5.1849    0.8376   -0.0927 C   0  0  0  0  0  0  0  0  0  0  0  0
   -3.7766    1.0462    0.0956 O   0  0  0  0  0  0  0  0  0  0  0  0
    1.0486    1.6127   -0.4384 C   0  0  0  0  0  0  0  0  0  0  0  0
    0.5751    2.9846   -0.5111 C   0  0  0  0  0  0  0  0  0  0  0  0
    1.3535    3.9616   -0.9974 C   0  0  0  0  0  0  0  0  0  0  0  0
    2.6899    3.6948   -1.4680 C   0  0  0  0  0  0  0  0  0  0  0  0
    3.2299    2.4700   -1.4258 C   0  0  0  0  0  0  0  0  0  0  0  0
    2.4615    1.3094   -0.8905 C   0  0  0  0  0  0  0  0  0  0  0  0
    3.0488    0.1520   -0.8557 N   0  0  0  0  0  0  0  0  0  0  0  0
    2.3038   -0.8770   -0.3496 C   0  0  0  0  0  0  0  0  0  0  0  0
    2.8191   -2.0558   -0.2082 N   0  0  0  0  0  0  0  0  0  0  0  0
    4.2223   -2.2078   -0.6280 C   0  0  0  0  0  0  0  0  0  0  0  0
    4.6051   -3.6777   -0.4542 C   0  0  0  0  0  0  0  0  0  0  0  0
    4.3880   -4.0749    0.8995 O   0  0  0  0  0  0  0  0  0  0  0  0
    0.5500   -1.4517    0.4589 H   0  0  0  0  0  0  0  0  0  0  0  0
   -1.4319    1.4692    0.1541 H   0  0  0  0  0  0  0  0  0  0  0  0
   -2.0146   -0.8802   -0.5734 H   0  0  0  0  0  0  0  0  0  0  0  0
   -1.5548   -1.3072    1.0954 H   0  0  0  0  0  0  0  0  0  0  0  0
   -3.1644    0.4391    1.9563 H   0  0  0  0  0  0  0  0  0  0  0  0
   -4.3053   -1.7032    1.8697 H   0  0  0  0  0  0  0  0  0  0  0  0
   -4.2556   -1.7333    0.0954 H   0  0  0  0  0  0  0  0  0  0  0  0
   -5.8473    0.1749    1.8436 H   0  0  0  0  0  0  0  0  0  0  0  0
   -6.4699   -0.8229    0.5158 H   0  0  0  0  0  0  0  0  0  0  0  0
   -5.3387    0.5328   -1.1332 H   0  0  0  0  0  0  0  0  0  0  0  0
   -5.7222    1.7743    0.0798 H   0  0  0  0  0  0  0  0  0  0  0  0
   -0.4188    3.2289   -0.1552 H   0  0  0  0  0  0  0  0  0  0  0  0
    0.9941    4.9858   -1.0428 H   0  0  0  0  0  0  0  0  0  0  0  0
    3.2622    4.5310   -1.8590 H   0  0  0  0  0  0  0  0  0  0  0  0
    4.2370    2.2714   -1.7724 H   0  0  0  0  0  0  0  0  0  0  0  0
    4.3617   -1.9238   -1.6771 H   0  0  0  0  0  0  0  0  0  0  0  0
    4.8666   -1.5942    0.0130 H   0  0  0  0  0  0  0  0  0  0  0  0
    3.9931   -4.3198   -1.0958 H   0  0  0  0  0  0  0  0  0  0  0  0
    5.6588   -3.8388   -0.6988 H   0  0  0  0  0  0  0  0  0  0  0  0
    3.5467   -3.6377    1.1407 H   0  0  0  0  0  0  0  0  0  0  0  0
  1  2  1  0
  2  3  1  0
  3  4  1  0
  4  5  1  0
  5  6  1  0
  6  7  1  0
  7  8  1  0
  8  9  1  0
  2 10  2  0
 10 11  1  0
 11 12  2  0
 12 13  1  0
 13 14  2  0
 14 15  1  0
 15 16  2  0
 16 17  1  0
 17 18  2  3
 18 19  1  0
 19 20  1  0
 20 21  1  0
 17  1  1  0
  9  5  1  0
 15 10  1  0
  1 22  1  0
  3 23  1  0
  4 24  1  0
  4 25  1  0
  5 26  1  0
  6 27  1  0
  6 28  1  0
  7 29  1  0
  7 30  1  0
  8 31  1  0
  8 32  1  0
 11 33  1  0
 12 34  1  0
 13 35  1  0
 14 36  1  0
 19 37  1  0
 19 38  1  0
 20 39  1  0
 20 40  1  0
 21 41  1  0
M  END
>  <ScrubInfo>  (2) 
{"isomerGroup": 0, "isomerId": 1, "confId": 0, "nr_conformers:": 1, "nr_isomers:": 6}

$$$$
_i2
     RDKit          3D

 41 43  0  0  0  0  0  0  0  0999 V2000
   -0.7768    0.1095   -0.4926 N   0  0  0  0  0  0  0  0  0  0  0  0
   -2.0832   -0.2636   -0.6087 C   0  0  0  0  0  0  0  0  0  0  0  0
   -2.6323    0.0937   -1.8110 N   0  0  0  0  0  0  0  0  0  0  0  0
   -4.0649   -0.0861   -2.0484 C   0  0  0  0  0  0  0  0  0  0  0  0
   -4.8402    1.1162   -1.5034 C   0  0  0  0  0  0  0  0  0  0  0  0
   -4.4270    2.3074   -2.1826 O   0  0  0  0  0  0  0  0  0  0  0  0
   -2.7274   -0.9037    0.3209 N   0  0  0  0  0  0  0  0  0  0  0  0
   -2.0136   -1.1929    1.5083 C   0  0  0  0  0  0  0  0  0  0  0  0
   -2.6867   -1.8597    2.5354 C   0  0  0  0  0  0  0  0  0  0  0  0
   -2.0357   -2.1711    3.7331 C   0  0  0  0  0  0  0  0  0  0  0  0
   -0.6984   -1.8182    3.9178 C   0  0  0  0  0  0  0  0  0  0  0  0
   -0.0070   -1.1531    2.9056 C   0  0  0  0  0  0  0  0  0  0  0  0
   -0.6642   -0.8433    1.7097 C   0  0  0  0  0  0  0  0  0  0  0  0
    0.0301   -0.1385    0.5911 C   0  0  0  0  0  0  0  0  0  0  0  0
    1.2794    0.1580    0.7278 N   0  0  0  0  0  0  0  0  0  0  0  0
    1.9557    0.8452   -0.3716 C   0  0  0  0  0  0  0  0  0  0  0  0
    3.3951    1.1937    0.0340 C   0  0  0  0  0  0  0  0  0  0  0  0
    4.2840   -0.0260    0.2494 C   0  0  0  0  0  0  0  0  0  0  0  0
    4.9305   -0.2123   -1.1000 C   0  0  0  0  0  0  0  0  0  0  0  0
    5.1114    1.2169   -1.5549 C   0  0  0  0  0  0  0  0  0  0  0  0
    3.9962    1.9543   -1.0380 O   0  0  0  0  0  0  0  0  0  0  0  0
   -0.3425    0.4771   -1.3214 H   0  0  0  0  0  0  0  0  0  0  0  0
   -2.3506    1.0233   -2.1145 H   0  0  0  0  0  0  0  0  0  0  0  0
   -4.2111   -0.1481   -3.1325 H   0  0  0  0  0  0  0  0  0  0  0  0
   -4.4320   -1.0216   -1.6132 H   0  0  0  0  0  0  0  0  0  0  0  0
   -5.9168    0.9876   -1.6520 H   0  0  0  0  0  0  0  0  0  0  0  0
   -4.6532    1.2598   -0.4348 H   0  0  0  0  0  0  0  0  0  0  0  0
   -4.8277    2.2878   -3.0692 H   0  0  0  0  0  0  0  0  0  0  0  0
   -3.7282   -2.1373    2.3967 H   0  0  0  0  0  0  0  0  0  0  0  0
   -2.5750   -2.6901    4.5216 H   0  0  0  0  0  0  0  0  0  0  0  0
   -0.1944   -2.0616    4.8498 H   0  0  0  0  0  0  0  0  0  0  0  0
    1.0347   -0.8788    3.0482 H   0  0  0  0  0  0  0  0  0  0  0  0
    1.9646    0.2217   -1.2742 H   0  0  0  0  0  0  0  0  0  0  0  0
    1.4333    1.7761   -0.6269 H   0  0  0  0  0  0  0  0  0  0  0  0
    3.3787    1.8197    0.9336 H   0  0  0  0  0  0  0  0  0  0  0  0
    3.7546   -0.9148    0.6030 H   0  0  0  0  0  0  0  0  0  0  0  0
    5.0580    0.2151    0.9888 H   0  0  0  0  0  0  0  0  0  0  0  0
    5.8697   -0.7702   -1.0629 H   0  0  0  0  0  0  0  0  0  0  0  0
    4.2440   -0.7384   -1.7733 H   0  0  0  0  0  0  0  0  0  0  0  0
    5.1436    1.3121   -2.6437 H   0  0  0  0  0  0  0  0  0  0  0  0
    6.0252    1.6539   -1.1380 H   0  0  0  0  0  0  0  0  0  0  0  0
  1  2  1  0
  2  3  1  0
  3  4  1  0
  4  5  1  0
  5  6  1  0
  2  7  2  0
  7  8  1  0
  8  9  2  0
  9 10  1  0
 10 11  2  0
 11 12  1  0
 12 13  2  0
 13 14  1  0
 14 15  2  3
 15 16  1  0
 16 17  1  0
 17 18  1  0
 18 19  1  0
 19 20  1  0
 20 21  1  0
 14  1  1  0
 21 17  1  0
 13  8  1  0
  1 22  1  0
  3 23  1  0
  4 24  1  0
  4 25  1  0
  5 26  1  0
  5 27  1  0
  6 28  1  0
  9 29  1  0
 10 30  1  0
 11 31  1  0
 12 32  1  0
 16 33  1  0
 16 34  1  0
 17 35  1  0
 18 36  1  0
 18 37  1  0
 19 38  1  0
 19 39  1  0
 20 40  1  0
 20 41  1  0
M  END
>  <ScrubInfo>  (3) 
{"isomerGroup": 0, "isomerId": 2, "confId": 0, "nr_conformers:": 1, "nr_isomers:": 6}

$$$$
_i3
     RDKit          3D

 41 43  0  0  0  0  0  0  0  0999 V2000
   -2.5515    1.0624    0.1496 N   0  0  0  0  0  0  0  0  0  0  0  0
   -1.9827   -0.1355    0.4823 C   0  0  0  0  0  0  0  0  0  0  0  0
   -2.5921   -1.2661    0.5685 N   0  0  0  0  0  0  0  0  0  0  0  0
   -4.0269   -1.3271    0.2932 C   0  0  0  0  0  0  0  0  0  0  0  0
   -4.4574   -2.7899    0.4028 C   0  0  0  0  0  0  0  0  0  0  0  0
   -3.6860   -3.5773   -0.5024 O   0  0  0  0  0  0  0  0  0  0  0  0
   -0.6443   -0.2402    0.7557 N   0  0  0  0  0  0  0  0  0  0  0  0
    0.1125    0.8216    0.7594 C   0  0  0  0  0  0  0  0  0  0  0  0
    1.4710    0.6937    1.0043 N   0  0  0  0  0  0  0  0  0  0  0  0
    2.1098   -0.6236    1.0419 C   0  0  0  0  0  0  0  0  0  0  0  0
    2.3971   -1.1144   -0.3875 C   0  0  0  0  0  0  0  0  0  0  0  0
    3.0318   -2.4980   -0.4168 C   0  0  0  0  0  0  0  0  0  0  0  0
    4.5081   -2.1923   -0.4510 C   0  0  0  0  0  0  0  0  0  0  0  0
    4.5463   -0.9442   -1.3018 C   0  0  0  0  0  0  0  0  0  0  0  0
    3.3535   -0.2091   -0.9978 O   0  0  0  0  0  0  0  0  0  0  0  0
   -0.4489    2.1853    0.4992 C   0  0  0  0  0  0  0  0  0  0  0  0
    0.3139    3.3558    0.5715 C   0  0  0  0  0  0  0  0  0  0  0  0
   -0.2842    4.5878    0.3016 C   0  0  0  0  0  0  0  0  0  0  0  0
   -1.6362    4.6495   -0.0342 C   0  0  0  0  0  0  0  0  0  0  0  0
   -2.3992    3.4810   -0.0890 C   0  0  0  0  0  0  0  0  0  0  0  0
   -1.8128    2.2433    0.1921 C   0  0  0  0  0  0  0  0  0  0  0  0
   -3.5453    1.1191    0.0166 H   0  0  0  0  0  0  0  0  0  0  0  0
   -4.2271   -0.9734   -0.7250 H   0  0  0  0  0  0  0  0  0  0  0  0
   -4.5940   -0.7244    1.0107 H   0  0  0  0  0  0  0  0  0  0  0  0
   -4.2921   -3.1751    1.4141 H   0  0  0  0  0  0  0  0  0  0  0  0
   -5.5153   -2.9056    0.1508 H   0  0  0  0  0  0  0  0  0  0  0  0
   -2.7693   -3.2554   -0.3701 H   0  0  0  0  0  0  0  0  0  0  0  0
    2.0586    1.3461    0.4912 H   0  0  0  0  0  0  0  0  0  0  0  0
    1.4965   -1.3429    1.5959 H   0  0  0  0  0  0  0  0  0  0  0  0
    3.0506   -0.5083    1.5923 H   0  0  0  0  0  0  0  0  0  0  0  0
    1.4822   -1.0971   -0.9898 H   0  0  0  0  0  0  0  0  0  0  0  0
    2.7373   -3.1397    0.4184 H   0  0  0  0  0  0  0  0  0  0  0  0
    2.7479   -3.0091   -1.3452 H   0  0  0  0  0  0  0  0  0  0  0  0
    5.1145   -3.0052   -0.8587 H   0  0  0  0  0  0  0  0  0  0  0  0
    4.8661   -1.9697    0.5608 H   0  0  0  0  0  0  0  0  0  0  0  0
    5.4233   -0.3231   -1.1008 H   0  0  0  0  0  0  0  0  0  0  0  0
    4.5272   -1.1897   -2.3692 H   0  0  0  0  0  0  0  0  0  0  0  0
    1.3630    3.3309    0.8466 H   0  0  0  0  0  0  0  0  0  0  0  0
    0.3048    5.5006    0.3548 H   0  0  0  0  0  0  0  0  0  0  0  0
   -2.0984    5.6105   -0.2481 H   0  0  0  0  0  0  0  0  0  0  0  0
   -3.4525    3.5488   -0.3474 H   0  0  0  0  0  0  0  0  0  0  0  0
  1  2  1  0
  2  3  2  3
  3  4  1  0
  4  5  1  0
  5  6  1  0
  2  7  1  0
  7  8  2  0
  8  9  1  0
  9 10  1  0
 10 11  1  0
 11 12  1  0
 12 13  1  0
 13 14  1  0
 14 15  1  0
  8 16  1  0
 16 17  2  0
 17 18  1  0
 18 19  2  0
 19 20  1  0
 20 21  2  0
 21  1  1  0
 15 11  1  0
 21 16  1  0
  1 22  1  0
  4 23  1  0
  4 24  1  0
  5 25  1  0
  5 26  1  0
  6 27  1  0
  9 28  1  0
 10 29  1  0
 10 30  1  0
 11 31  1  0
 12 32  1  0
 12 33  1  0
 13 34  1  0
 13 35  1  0
 14 36  1  0
 14 37  1  0
 17 38  1  0
 18 39  1  0
 19 40  1  0
 20 41  1  0
M  END
>  <ScrubInfo>  (4) 
{"isomerGroup": 0, "isomerId": 3, "confId": 0, "nr_conformers:": 1, "nr_isomers:": 6}

$$$$
_i4
     RDKit          3D

 41 43  0  0  0  0  0  0  0  0999 V2000
   -2.6507   -1.3662   -0.7033 N   0  0  0  0  0  0  0  0  0  0  0  0
   -2.6061   -0.0222   -0.5009 C   0  0  0  0  0  0  0  0  0  0  0  0
   -3.8327    0.5549   -0.6961 N   0  0  0  0  0  0  0  0  0  0  0  0
   -3.9607    2.0084   -0.6821 C   0  0  0  0  0  0  0  0  0  0  0  0
   -5.4323    2.4183   -0.5965 C   0  0  0  0  0  0  0  0  0  0  0  0
   -5.5797    3.8341   -0.6232 O   0  0  0  0  0  0  0  0  0  0  0  0
   -1.5492    0.6519   -0.1867 N   0  0  0  0  0  0  0  0  0  0  0  0
   -0.3776   -0.0319    0.0717 C   0  0  0  0  0  0  0  0  0  0  0  0
    0.4315    0.6570    0.7871 N   0  0  0  0  0  0  0  0  0  0  0  0
    1.6683    0.2316    1.4134 C   0  0  0  0  0  0  0  0  0  0  0  0
    2.8587    0.9723    0.7939 C   0  0  0  0  0  0  0  0  0  0  0  0
    4.0786    0.9885    1.7022 C   0  0  0  0  0  0  0  0  0  0  0  0
    5.1877    1.2384    0.7121 C   0  0  0  0  0  0  0  0  0  0  0  0
    4.7376    0.4210   -0.4798 C   0  0  0  0  0  0  0  0  0  0  0  0
    3.3065    0.3378   -0.4222 O   0  0  0  0  0  0  0  0  0  0  0  0
   -0.2508   -1.4373   -0.4306 C   0  0  0  0  0  0  0  0  0  0  0  0
    0.9559   -2.1012   -0.6596 C   0  0  0  0  0  0  0  0  0  0  0  0
    0.9618   -3.4349   -1.0774 C   0  0  0  0  0  0  0  0  0  0  0  0
   -0.2390   -4.1057   -1.2939 C   0  0  0  0  0  0  0  0  0  0  0  0
   -1.4488   -3.4338   -1.1247 C   0  0  0  0  0  0  0  0  0  0  0  0
   -1.4608   -2.0993   -0.7012 C   0  0  0  0  0  0  0  0  0  0  0  0
   -3.5254   -1.8555   -0.6089 H   0  0  0  0  0  0  0  0  0  0  0  0
   -4.3443    0.1314   -1.4613 H   0  0  0  0  0  0  0  0  0  0  0  0
   -3.5077    2.4355   -1.5846 H   0  0  0  0  0  0  0  0  0  0  0  0
   -3.4294    2.4397    0.1752 H   0  0  0  0  0  0  0  0  0  0  0  0
   -5.8925    2.0382    0.3220 H   0  0  0  0  0  0  0  0  0  0  0  0
   -5.9944    2.0078   -1.4419 H   0  0  0  0  0  0  0  0  0  0  0  0
   -5.1024    4.1916    0.1466 H   0  0  0  0  0  0  0  0  0  0  0  0
    1.5919    0.5215    2.4688 H   0  0  0  0  0  0  0  0  0  0  0  0
    1.8143   -0.8497    1.4198 H   0  0  0  0  0  0  0  0  0  0  0  0
    2.5769    2.0012    0.5348 H   0  0  0  0  0  0  0  0  0  0  0  0
    4.2240    0.0117    2.1797 H   0  0  0  0  0  0  0  0  0  0  0  0
    4.0169    1.7503    2.4843 H   0  0  0  0  0  0  0  0  0  0  0  0
    6.1774    0.9514    1.0768 H   0  0  0  0  0  0  0  0  0  0  0  0
    5.2178    2.3018    0.4463 H   0  0  0  0  0  0  0  0  0  0  0  0
    5.0427    0.8660   -1.4311 H   0  0  0  0  0  0  0  0  0  0  0  0
    5.1305   -0.5999   -0.4313 H   0  0  0  0  0  0  0  0  0  0  0  0
    1.9057   -1.5933   -0.5533 H   0  0  0  0  0  0  0  0  0  0  0  0
    1.9086   -3.9424   -1.2477 H   0  0  0  0  0  0  0  0  0  0  0  0
   -0.2312   -5.1399   -1.6290 H   0  0  0  0  0  0  0  0  0  0  0  0
   -2.3776   -3.9486   -1.3549 H   0  0  0  0  0  0  0  0  0  0  0  0
  1  2  1  0
  2  3  1  0
  3  4  1  0
  4  5  1  0
  5  6  1  0
  2  7  2  0
  7  8  1  0
  8  9  2  3
  9 10  1  0
 10 11  1  0
 11 12  1  0
 12 13  1  0
 13 14  1  0
 14 15  1  0
  8 16  1  0
 16 17  2  0
 17 18  1  0
 18 19  2  0
 19 20  1  0
 20 21  2  0
 21  1  1  0
 15 11  1  0
 21 16  1  0
  1 22  1  0
  3 23  1  0
  4 24  1  0
  4 25  1  0
  5 26  1  0
  5 27  1  0
  6 28  1  0
 10 29  1  0
 10 30  1  0
 11 31  1  0
 12 32  1  0
 12 33  1  0
 13 34  1  0
 13 35  1  0
 14 36  1  0
 14 37  1  0
 17 38  1  0
 18 39  1  0
 19 40  1  0
 20 41  1  0
M  END
>  <ScrubInfo>  (5) 
{"isomerGroup": 0, "isomerId": 4, "confId": 0, "nr_conformers:": 1, "nr_isomers:": 6}

$$$$
_i5
     RDKit          3D

 41 43  0  0  0  0  0  0  0  0999 V2000
   -2.6179   -0.8693   -0.2662 N   0  0  0  0  0  0  0  0  0  0  0  0
   -2.1484    0.3026   -0.7953 C   0  0  0  0  0  0  0  0  0  0  0  0
   -2.8251    1.2822   -1.2918 N   0  0  0  0  0  0  0  0  0  0  0  0
   -4.2874    1.2041   -1.3677 C   0  0  0  0  0  0  0  0  0  0  0  0
   -4.8934    1.8058   -0.1005 C   0  0  0  0  0  0  0  0  0  0  0  0
   -4.4299    3.1423    0.0692 O   0  0  0  0  0  0  0  0  0  0  0  0
   -0.7917    0.4050   -0.7526 N   0  0  0  0  0  0  0  0  0  0  0  0
    0.1558   -0.4417   -0.2378 C   0  0  0  0  0  0  0  0  0  0  0  0
    1.3606    0.0227   -0.2465 N   0  0  0  0  0  0  0  0  0  0  0  0
    2.5415   -0.6107    0.3127 C   0  0  0  0  0  0  0  0  0  0  0  0
    3.7131    0.3829    0.3664 C   0  0  0  0  0  0  0  0  0  0  0  0
    4.0485    1.0677   -0.9522 C   0  0  0  0  0  0  0  0  0  0  0  0
    4.6549    2.3655   -0.4793 C   0  0  0  0  0  0  0  0  0  0  0  0
    3.7993    2.6824    0.7274 C   0  0  0  0  0  0  0  0  0  0  0  0
    3.4688    1.4265    1.3337 O   0  0  0  0  0  0  0  0  0  0  0  0
   -0.3772   -1.7570    0.2584 C   0  0  0  0  0  0  0  0  0  0  0  0
    0.3994   -2.8349    0.6943 C   0  0  0  0  0  0  0  0  0  0  0  0
   -0.2047   -4.0149    1.1410 C   0  0  0  0  0  0  0  0  0  0  0  0
   -1.5897   -4.1370    1.1446 C   0  0  0  0  0  0  0  0  0  0  0  0
   -2.3777   -3.0834    0.6872 C   0  0  0  0  0  0  0  0  0  0  0  0
   -1.7869   -1.8931    0.2342 C   0  0  0  0  0  0  0  0  0  0  0  0
   -3.6101   -1.0343   -0.2293 H   0  0  0  0  0  0  0  0  0  0  0  0
   -4.6552    0.1879   -1.5415 H   0  0  0  0  0  0  0  0  0  0  0  0
   -4.5967    1.8014   -2.2331 H   0  0  0  0  0  0  0  0  0  0  0  0
   -5.9851    1.8245   -0.1641 H   0  0  0  0  0  0  0  0  0  0  0  0
   -4.6057    1.2326    0.7864 H   0  0  0  0  0  0  0  0  0  0  0  0
   -3.4911    3.1199   -0.2065 H   0  0  0  0  0  0  0  0  0  0  0  0
   -0.4208    1.2829   -1.0884 H   0  0  0  0  0  0  0  0  0  0  0  0
    2.8412   -1.4576   -0.3131 H   0  0  0  0  0  0  0  0  0  0  0  0
    2.3435   -0.9396    1.3382 H   0  0  0  0  0  0  0  0  0  0  0  0
    4.5992   -0.1545    0.7278 H   0  0  0  0  0  0  0  0  0  0  0  0
    4.7257    0.4747   -1.5734 H   0  0  0  0  0  0  0  0  0  0  0  0
    3.1514    1.2825   -1.5433 H   0  0  0  0  0  0  0  0  0  0  0  0
    4.6416    3.1570   -1.2329 H   0  0  0  0  0  0  0  0  0  0  0  0
    5.6935    2.1983   -0.1703 H   0  0  0  0  0  0  0  0  0  0  0  0
    4.3136    3.3184    1.4530 H   0  0  0  0  0  0  0  0  0  0  0  0
    2.8637    3.1707    0.4340 H   0  0  0  0  0  0  0  0  0  0  0  0
    1.4791   -2.8104    0.6911 H   0  0  0  0  0  0  0  0  0  0  0  0
    0.4134   -4.8424    1.4829 H   0  0  0  0  0  0  0  0  0  0  0  0
   -2.0548   -5.0563    1.4922 H   0  0  0  0  0  0  0  0  0  0  0  0
   -3.4581   -3.2031    0.6798 H   0  0  0  0  0  0  0  0  0  0  0  0
  1  2  1  0
  2  3  2  3
  3  4  1  0
  4  5  1  0
  5  6  1  0
  2  7  1  0
  7  8  1  0
  8  9  2  3
  9 10  1  0
 10 11  1  0
 11 12  1  0
 12 13  1  0
 13 14  1  0
 14 15  1  0
  8 16  1  0
 16 17  2  0
 17 18  1  0
 18 19  2  0
 19 20  1  0
 20 21  2  0
 21  1  1  0
 15 11  1  0
 21 16  1  0
  1 22  1  0
  4 23  1  0
  4 24  1  0
  5 25  1  0
  5 26  1  0
  6 27  1  0
  7 28  1  0
 10 29  1  0
 10 30  1  0
 11 31  1  0
 12 32  1  0
 12 33  1  0
 13 34  1  0
 13 35  1  0
 14 36  1  0
 14 37  1  0
 17 38  1  0
 18 39  1  0
 19 40  1  0
 20 41  1  0
M  END
>  <ScrubInfo>  (6) 
{"isomerGroup": 0, "isomerId": 5, "confId": 0, "nr_conformers:": 1, "nr_isomers:": 6}

$$$$
