REMARK SMILES CCCCNc1nc(Nc2ccccc2OC)c2cnn(C)c2n1
REMARK SMILES IDX 6 1 7 2 8 3 18 4 19 5 20 6 21 7 22 8 23 9 24 10 5 11 4 13
REMARK SMILES IDX 3 14 2 15 1 16 9 17 10 19 11 20 15 21 12 22 14 23 13 24
REMARK SMILES IDX 16 25 17 26
REMARK H PARENT 5 12 9 18
ROOT
ATOM      1  C   UNL     1       1.514   0.848  -0.061  1.00  0.00     0.226 A 
ATOM      2  N   UNL     1       0.262   0.462   0.243  1.00  0.00    -0.195 NA
ATOM      3  C   UNL     1      -0.803   0.924  -0.464  1.00  0.00     0.147 A 
ATOM      4  C   UNL     1      -0.525   1.808  -1.515  1.00  0.00     0.082 A 
ATOM      5  C   UNL     1      -1.233   2.531  -2.498  1.00  0.00     0.149 A 
ATOM      6  N   UNL     1      -0.433   3.257  -3.288  1.00  0.00    -0.179 NA
ATOM      7  N   UNL     1       0.801   2.999  -2.796  1.00  0.00    -0.250 N 
ATOM      8  C   UNL     1       1.950   3.627  -3.397  1.00  0.00     0.176 C 
ATOM      9  C   UNL     1       0.798   2.131  -1.738  1.00  0.00     0.165 A 
ATOM     10  N   UNL     1       1.857   1.682  -1.052  1.00  0.00    -0.193 NA
ENDROOT
BRANCH   1  11
ATOM     11  N   UNL     1       2.498   0.293   0.753  1.00  0.00    -0.354 N 
ATOM     12  H   UNL     1       2.032  -0.478   1.220  1.00  0.00     0.163 HD
BRANCH  11  13
ATOM     13  C   UNL     1       3.724  -0.051   0.055  1.00  0.00     0.116 C 
BRANCH  13  14
ATOM     14  C   UNL     1       4.719  -0.713   1.013  1.00  0.00     0.021 C 
BRANCH  14  15
ATOM     15  C   UNL     1       4.277  -2.058   1.599  1.00  0.00    -0.002 C 
ATOM     16  C   UNL     1       4.004  -3.122   0.547  1.00  0.00     0.004 C 
ENDBRANCH  14  15
ENDBRANCH  13  14
ENDBRANCH  11  13
ENDBRANCH   1  11
BRANCH   3  17
ATOM     17  N   UNL     1      -2.114   0.534  -0.176  1.00  0.00    -0.336 N 
ATOM     18  H   UNL     1      -2.824   0.901  -0.799  1.00  0.00     0.168 HD
BRANCH  17  19
ATOM     19  C   UNL     1      -2.688  -0.296   0.810  1.00  0.00     0.082 A 
ATOM     20  C   UNL     1      -1.958  -0.899   1.838  1.00  0.00     0.030 A 
ATOM     21  C   UNL     1      -4.085  -0.530   0.747  1.00  0.00     0.142 A 
ATOM     22  C   UNL     1      -2.586  -1.716   2.782  1.00  0.00     0.002 A 
ATOM     23  C   UNL     1      -4.709  -1.349   1.694  1.00  0.00     0.048 A 
ATOM     24  C   UNL     1      -3.957  -1.941   2.709  1.00  0.00     0.004 A 
BRANCH  21  25
ATOM     25  O   UNL     1      -4.731   0.103  -0.293  1.00  0.00    -0.495 OA
ATOM     26  C   UNL     1      -6.134  -0.104  -0.402  1.00  0.00     0.278 C 
ENDBRANCH  21  25
ENDBRANCH  17  19
ENDBRANCH   3  17
TORSDOF 7
