_i0
     RDKit          3D

 46 48  0  0  0  0  0  0  0  0999 V2000
    4.0036   -3.1224    0.5473 C   0  0  0  0  0  0  0  0  0  0  0  0
    4.2770   -2.0584    1.5985 C   0  0  0  0  0  0  0  0  0  0  0  0
    4.7192   -0.7129    1.0133 C   0  0  0  0  0  0  0  0  0  0  0  0
    3.7241   -0.0513    0.0547 C   0  0  0  0  0  0  0  0  0  0  0  0
    2.4984    0.2933    0.7530 N   0  0  0  0  0  0  0  0  0  0  0  0
    1.5145    0.8480   -0.0615 C   0  0  0  0  0  0  0  0  0  0  0  0
    0.2624    0.4620    0.2430 N   0  0  0  0  0  0  0  0  0  0  0  0
   -0.8031    0.9239   -0.4643 C   0  0  0  0  0  0  0  0  0  0  0  0
   -2.1135    0.5336   -0.1756 N   0  0  0  0  0  0  0  0  0  0  0  0
   -2.6885   -0.2956    0.8105 C   0  0  0  0  0  0  0  0  0  0  0  0
   -1.9579   -0.8993    1.8383 C   0  0  0  0  0  0  0  0  0  0  0  0
   -2.5862   -1.7161    2.7819 C   0  0  0  0  0  0  0  0  0  0  0  0
   -3.9573   -1.9411    2.7093 C   0  0  0  0  0  0  0  0  0  0  0  0
   -4.7091   -1.3495    1.6940 C   0  0  0  0  0  0  0  0  0  0  0  0
   -4.0853   -0.5304    0.7471 C   0  0  0  0  0  0  0  0  0  0  0  0
   -4.7315    0.1033   -0.2934 O   0  0  0  0  0  0  0  0  0  0  0  0
   -6.1343   -0.1045   -0.4019 C   0  0  0  0  0  0  0  0  0  0  0  0
   -0.5254    1.8075   -1.5148 C   0  0  0  0  0  0  0  0  0  0  0  0
   -1.2327    2.5308   -2.4983 C   0  0  0  0  0  0  0  0  0  0  0  0
   -0.4333    3.2572   -3.2879 N   0  0  0  0  0  0  0  0  0  0  0  0
    0.8014    2.9990   -2.7959 N   0  0  0  0  0  0  0  0  0  0  0  0
    1.9504    3.6275   -3.3972 C   0  0  0  0  0  0  0  0  0  0  0  0
    0.7978    2.1313   -1.7383 C   0  0  0  0  0  0  0  0  0  0  0  0
    1.8575    1.6818   -1.0521 N   0  0  0  0  0  0  0  0  0  0  0  0
    3.8060   -4.0849    1.0302 H   0  0  0  0  0  0  0  0  0  0  0  0
    3.1276   -2.8716   -0.0581 H   0  0  0  0  0  0  0  0  0  0  0  0
    4.8630   -3.2478   -0.1188 H   0  0  0  0  0  0  0  0  0  0  0  0
    3.3880   -1.9291    2.2256 H   0  0  0  0  0  0  0  0  0  0  0  0
    5.0717   -2.4208    2.2619 H   0  0  0  0  0  0  0  0  0  0  0  0
    5.6682   -0.8563    0.4817 H   0  0  0  0  0  0  0  0  0  0  0  0
    4.9279   -0.0278    1.8448 H   0  0  0  0  0  0  0  0  0  0  0  0
    3.5203   -0.7112   -0.7969 H   0  0  0  0  0  0  0  0  0  0  0  0
    4.1996    0.8561   -0.3389 H   0  0  0  0  0  0  0  0  0  0  0  0
    2.0324   -0.4780    1.2197 H   0  0  0  0  0  0  0  0  0  0  0  0
   -2.8243    0.9011   -0.7987 H   0  0  0  0  0  0  0  0  0  0  0  0
   -0.8892   -0.7398    1.9309 H   0  0  0  0  0  0  0  0  0  0  0  0
   -1.9991   -2.1730    3.5744 H   0  0  0  0  0  0  0  0  0  0  0  0
   -4.4420   -2.5768    3.4459 H   0  0  0  0  0  0  0  0  0  0  0  0
   -5.7749   -1.5472    1.6714 H   0  0  0  0  0  0  0  0  0  0  0  0
   -6.6596    0.2784    0.4792 H   0  0  0  0  0  0  0  0  0  0  0  0
   -6.4884    0.4595   -1.2702 H   0  0  0  0  0  0  0  0  0  0  0  0
   -6.3650   -1.1607   -0.5755 H   0  0  0  0  0  0  0  0  0  0  0  0
   -2.3001    2.5595   -2.6741 H   0  0  0  0  0  0  0  0  0  0  0  0
    2.8612    3.3174   -2.8802 H   0  0  0  0  0  0  0  0  0  0  0  0
    1.9983    3.3241   -4.4461 H   0  0  0  0  0  0  0  0  0  0  0  0
    1.8304    4.7109   -3.3179 H   0  0  0  0  0  0  0  0  0  0  0  0
  1  2  1  0
  2  3  1  0
  3  4  1  0
  4  5  1  0
  5  6  1  0
  6  7  2  0
  7  8  1  0
  8  9  1  0
  9 10  1  0
 10 11  2  0
 11 12  1  0
 12 13  2  0
 13 14  1  0
 14 15  2  0
 15 16  1  0
 16 17  1  0
  8 18  2  0
 18 19  1  0
 19 20  2  0
 20 21  1  0
 21 22  1  0
 21 23  1  0
 23 24  2  0
 24  6  1  0
 15 10  1  0
 23 18  1  0
  1 25  1  0
  1 26  1  0
  1 27  1  0
  2 28  1  0
  2 29  1  0
  3 30  1  0
  3 31  1  0
  4 32  1  0
  4 33  1  0
  5 34  1  0
  9 35  1  0
 11 36  1  0
 12 37  1  0
 13 38  1  0
 14 39  1  0
 17 40  1  0
 17 41  1  0
 17 42  1  0
 19 43  1  0
 22 44  1  0
 22 45  1  0
 22 46  1  0
M  END
>  <ScrubInfo>  (1) 
{"isomerGroup": 0, "isomerId": 0, "confId": 0, "nr_conformers:": 1, "nr_isomers:": 9}

$$$$
_i1
     RDKit          3D

 46 48  0  0  0  0  0  0  0  0999 V2000
   -0.1247    0.0880   -0.1716 N   0  0  0  0  0  0  0  0  0  0  0  0
   -1.3363   -0.3153    0.3552 C   0  0  0  0  0  0  0  0  0  0  0  0
   -2.5443   -0.1561   -0.2905 N   0  0  0  0  0  0  0  0  0  0  0  0
   -2.9065    0.6568   -1.3869 C   0  0  0  0  0  0  0  0  0  0  0  0
   -2.2204    1.8301   -1.7245 C   0  0  0  0  0  0  0  0  0  0  0  0
   -2.5950    2.5809   -2.8402 C   0  0  0  0  0  0  0  0  0  0  0  0
   -3.6632    2.1688   -3.6313 C   0  0  0  0  0  0  0  0  0  0  0  0
   -4.3691    1.0091   -3.3070 C   0  0  0  0  0  0  0  0  0  0  0  0
   -3.9992    0.2519   -2.1910 C   0  0  0  0  0  0  0  0  0  0  0  0
   -4.6304   -0.8997   -1.7751 O   0  0  0  0  0  0  0  0  0  0  0  0
   -5.6817   -1.3907   -2.5982 C   0  0  0  0  0  0  0  0  0  0  0  0
   -1.2499   -0.9176    1.5479 C   0  0  0  0  0  0  0  0  0  0  0  0
   -2.1644   -1.4867    2.5433 C   0  0  0  0  0  0  0  0  0  0  0  0
   -1.5512   -1.9235    3.6144 N   0  0  0  0  0  0  0  0  0  0  0  0
   -0.1835   -1.7123    3.3727 N   0  0  0  0  0  0  0  0  0  0  0  0
    0.7450   -1.8056    4.4726 C   0  0  0  0  0  0  0  0  0  0  0  0
    0.0822   -1.0713    2.1731 C   0  0  0  0  0  0  0  0  0  0  0  0
    1.2005   -0.6745    1.6678 N   0  0  0  0  0  0  0  0  0  0  0  0
    1.0972   -0.0981    0.4202 C   0  0  0  0  0  0  0  0  0  0  0  0
    2.1573    0.2668   -0.2235 N   0  0  0  0  0  0  0  0  0  0  0  0
    3.4443    0.0457    0.4395 C   0  0  0  0  0  0  0  0  0  0  0  0
    4.5475    0.5442   -0.4950 C   0  0  0  0  0  0  0  0  0  0  0  0
    5.9582    0.2636    0.0251 C   0  0  0  0  0  0  0  0  0  0  0  0
    6.2935    1.0139    1.3048 C   0  0  0  0  0  0  0  0  0  0  0  0
   -0.1099    0.3808   -1.1367 H   0  0  0  0  0  0  0  0  0  0  0  0
   -3.2865   -0.8087   -0.0467 H   0  0  0  0  0  0  0  0  0  0  0  0
   -1.4105    2.2013   -1.1025 H   0  0  0  0  0  0  0  0  0  0  0  0
   -2.0564    3.4934   -3.0845 H   0  0  0  0  0  0  0  0  0  0  0  0
   -3.9537    2.7569   -4.4985 H   0  0  0  0  0  0  0  0  0  0  0  0
   -5.2015    0.7278   -3.9428 H   0  0  0  0  0  0  0  0  0  0  0  0
   -5.3211   -1.6220   -3.6059 H   0  0  0  0  0  0  0  0  0  0  0  0
   -6.0455   -2.3221   -2.1536 H   0  0  0  0  0  0  0  0  0  0  0  0
   -6.5200   -0.6870   -2.6271 H   0  0  0  0  0  0  0  0  0  0  0  0
   -3.2490   -1.5004    2.3763 H   0  0  0  0  0  0  0  0  0  0  0  0
    0.4424   -2.5935    5.1700 H   0  0  0  0  0  0  0  0  0  0  0  0
    1.7514   -2.0456    4.1150 H   0  0  0  0  0  0  0  0  0  0  0  0
    0.7857   -0.8575    5.0178 H   0  0  0  0  0  0  0  0  0  0  0  0
    3.4832    0.5986    1.3848 H   0  0  0  0  0  0  0  0  0  0  0  0
    3.5960   -1.0218    0.6403 H   0  0  0  0  0  0  0  0  0  0  0  0
    4.4359    0.0577   -1.4725 H   0  0  0  0  0  0  0  0  0  0  0  0
    4.4236    1.6200   -0.6719 H   0  0  0  0  0  0  0  0  0  0  0  0
    6.0885   -0.8125    0.1886 H   0  0  0  0  0  0  0  0  0  0  0  0
    6.6781    0.5557   -0.7488 H   0  0  0  0  0  0  0  0  0  0  0  0
    7.3420    0.8488    1.5728 H   0  0  0  0  0  0  0  0  0  0  0  0
    5.6802    0.6711    2.1432 H   0  0  0  0  0  0  0  0  0  0  0  0
    6.1411    2.0906    1.1807 H   0  0  0  0  0  0  0  0  0  0  0  0
  1  2  1  0
  2  3  1  0
  3  4  1  0
  4  5  2  0
  5  6  1  0
  6  7  2  0
  7  8  1  0
  8  9  2  0
  9 10  1  0
 10 11  1  0
  2 12  2  0
 12 13  1  0
 13 14  2  0
 14 15  1  0
 15 16  1  0
 15 17  1  0
 17 18  2  0
 18 19  1  0
 19 20  2  3
 20 21  1  0
 21 22  1  0
 22 23  1  0
 23 24  1  0
 19  1  1  0
  9  4  1  0
 17 12  1  0
  1 25  1  0
  3 26  1  0
  5 27  1  0
  6 28  1  0
  7 29  1  0
  8 30  1  0
 11 31  1  0
 11 32  1  0
 11 33  1  0
 13 34  1  0
 16 35  1  0
 16 36  1  0
 16 37  1  0
 21 38  1  0
 21 39  1  0
 22 40  1  0
 22 41  1  0
 23 42  1  0
 23 43  1  0
 24 44  1  0
 24 45  1  0
 24 46  1  0
M  END
>  <ScrubInfo>  (2) 
{"isomerGroup": 0, "isomerId": 1, "confId": 0, "nr_conformers:": 1, "nr_isomers:": 9}

$$$$
_i2
     RDKit          3D

 46 48  0  0  0  0  0  0  0  0999 V2000
    0.4687   -0.8473   -0.0092 N   0  0  0  0  0  0  0  0  0  0  0  0
    1.4609    0.0829    0.1856 C   0  0  0  0  0  0  0  0  0  0  0  0
    2.6912   -0.3625   -0.2238 N   0  0  0  0  0  0  0  0  0  0  0  0
    3.8428    0.5297   -0.1957 C   0  0  0  0  0  0  0  0  0  0  0  0
    5.1312   -0.2336   -0.5069 C   0  0  0  0  0  0  0  0  0  0  0  0
    5.2466   -0.6370   -1.9792 C   0  0  0  0  0  0  0  0  0  0  0  0
    6.5732   -1.3252   -2.2625 C   0  0  0  0  0  0  0  0  0  0  0  0
    1.2557    1.2622    0.7126 N   0  0  0  0  0  0  0  0  0  0  0  0
   -0.0571    1.4541    1.0252 C   0  0  0  0  0  0  0  0  0  0  0  0
   -1.1220    0.5809    0.8614 C   0  0  0  0  0  0  0  0  0  0  0  0
   -2.2283    1.2852    1.3678 C   0  0  0  0  0  0  0  0  0  0  0  0
   -1.9092    2.5097    1.8080 N   0  0  0  0  0  0  0  0  0  0  0  0
   -0.5773    2.5865    1.5854 N   0  0  0  0  0  0  0  0  0  0  0  0
    0.1318    3.7860    1.9526 C   0  0  0  0  0  0  0  0  0  0  0  0
   -0.8690   -0.7275    0.2902 C   0  0  0  0  0  0  0  0  0  0  0  0
   -1.6975   -1.7037    0.0765 N   0  0  0  0  0  0  0  0  0  0  0  0
   -3.0712   -1.5757    0.3279 C   0  0  0  0  0  0  0  0  0  0  0  0
   -3.5884   -2.1273    1.5059 C   0  0  0  0  0  0  0  0  0  0  0  0
   -4.9521   -2.0538    1.7850 C   0  0  0  0  0  0  0  0  0  0  0  0
   -5.8116   -1.4407    0.8771 C   0  0  0  0  0  0  0  0  0  0  0  0
   -5.3129   -0.9030   -0.3133 C   0  0  0  0  0  0  0  0  0  0  0  0
   -3.9448   -0.9682   -0.6001 C   0  0  0  0  0  0  0  0  0  0  0  0
   -3.3596   -0.4683   -1.7373 O   0  0  0  0  0  0  0  0  0  0  0  0
   -4.1863    0.2684   -2.6266 C   0  0  0  0  0  0  0  0  0  0  0  0
    0.7334   -1.7679   -0.3160 H   0  0  0  0  0  0  0  0  0  0  0  0
    2.6566   -0.9407   -1.0537 H   0  0  0  0  0  0  0  0  0  0  0  0
    3.7020    1.3499   -0.9089 H   0  0  0  0  0  0  0  0  0  0  0  0
    3.9377    0.9673    0.8052 H   0  0  0  0  0  0  0  0  0  0  0  0
    5.2009   -1.1254    0.1283 H   0  0  0  0  0  0  0  0  0  0  0  0
    5.9820    0.4100   -0.2509 H   0  0  0  0  0  0  0  0  0  0  0  0
    5.1605    0.2511   -2.6159 H   0  0  0  0  0  0  0  0  0  0  0  0
    4.4325   -1.3152   -2.2560 H   0  0  0  0  0  0  0  0  0  0  0  0
    7.4153   -0.6636   -2.0357 H   0  0  0  0  0  0  0  0  0  0  0  0
    6.6367   -1.6053   -3.3187 H   0  0  0  0  0  0  0  0  0  0  0  0
    6.6789   -2.2348   -1.6627 H   0  0  0  0  0  0  0  0  0  0  0  0
   -3.2602    0.9745    1.4478 H   0  0  0  0  0  0  0  0  0  0  0  0
   -0.3690    4.6396    1.4884 H   0  0  0  0  0  0  0  0  0  0  0  0
    1.1656    3.7345    1.6042 H   0  0  0  0  0  0  0  0  0  0  0  0
    0.1093    3.8766    3.0415 H   0  0  0  0  0  0  0  0  0  0  0  0
   -2.9178   -2.6165    2.2072 H   0  0  0  0  0  0  0  0  0  0  0  0
   -5.3420   -2.4798    2.7057 H   0  0  0  0  0  0  0  0  0  0  0  0
   -6.8763   -1.3859    1.0917 H   0  0  0  0  0  0  0  0  0  0  0  0
   -6.0193   -0.4443   -0.9968 H   0  0  0  0  0  0  0  0  0  0  0  0
   -4.6306    1.1367   -2.1286 H   0  0  0  0  0  0  0  0  0  0  0  0
   -3.5550    0.6395   -3.4398 H   0  0  0  0  0  0  0  0  0  0  0  0
   -4.9560   -0.3718   -3.0696 H   0  0  0  0  0  0  0  0  0  0  0  0
  1  2  1  0
  2  3  1  0
  3  4  1  0
  4  5  1  0
  5  6  1  0
  6  7  1  0
  2  8  2  0
  8  9  1  0
  9 10  2  0
 10 11  1  0
 11 12  2  0
 12 13  1  0
 13 14  1  0
 10 15  1  0
 15 16  2  3
 16 17  1  0
 17 18  2  0
 18 19  1  0
 19 20  2  0
 20 21  1  0
 21 22  2  0
 22 23  1  0
 23 24  1  0
 15  1  1  0
 22 17  1  0
 13  9  1  0
  1 25  1  0
  3 26  1  0
  4 27  1  0
  4 28  1  0
  5 29  1  0
  5 30  1  0
  6 31  1  0
  6 32  1  0
  7 33  1  0
  7 34  1  0
  7 35  1  0
 11 36  1  0
 14 37  1  0
 14 38  1  0
 14 39  1  0
 18 40  1  0
 19 41  1  0
 20 42  1  0
 21 43  1  0
 24 44  1  0
 24 45  1  0
 24 46  1  0
M  END
>  <ScrubInfo>  (3) 
{"isomerGroup": 0, "isomerId": 2, "confId": 0, "nr_conformers:": 1, "nr_isomers:": 9}

$$$$
_i3
     RDKit          3D

 46 48  0  0  0  0  0  0  0  0999 V2000
    1.2143   -0.2825   -0.8846 N   0  0  0  0  0  0  0  0  0  0  0  0
    1.1957    0.6506    0.1407 C   0  0  0  0  0  0  0  0  0  0  0  0
    2.1731    0.9256    0.9313 N   0  0  0  0  0  0  0  0  0  0  0  0
    3.4375    0.2185    0.7820 C   0  0  0  0  0  0  0  0  0  0  0  0
    4.3992    0.7320    1.8539 C   0  0  0  0  0  0  0  0  0  0  0  0
    5.7324   -0.0169    1.8842 C   0  0  0  0  0  0  0  0  0  0  0  0
    6.5641    0.1737    0.6253 C   0  0  0  0  0  0  0  0  0  0  0  0
    0.0623    1.4042    0.4059 N   0  0  0  0  0  0  0  0  0  0  0  0
   -1.0202    1.2176   -0.2980 C   0  0  0  0  0  0  0  0  0  0  0  0
   -2.1639    1.9503   -0.0890 N   0  0  0  0  0  0  0  0  0  0  0  0
   -3.4576    1.3766    0.0796 C   0  0  0  0  0  0  0  0  0  0  0  0
   -4.5496    2.1292   -0.3832 C   0  0  0  0  0  0  0  0  0  0  0  0
   -5.8557    1.6743   -0.2124 C   0  0  0  0  0  0  0  0  0  0  0  0
   -6.0869    0.4742    0.4513 C   0  0  0  0  0  0  0  0  0  0  0  0
   -5.0157   -0.2654    0.9590 C   0  0  0  0  0  0  0  0  0  0  0  0
   -3.6994    0.1821    0.7932 C   0  0  0  0  0  0  0  0  0  0  0  0
   -2.6014   -0.4535    1.3109 O   0  0  0  0  0  0  0  0  0  0  0  0
   -2.7897   -1.7361    1.8911 C   0  0  0  0  0  0  0  0  0  0  0  0
   -1.0331    0.2728   -1.3921 C   0  0  0  0  0  0  0  0  0  0  0  0
   -1.9248   -0.1648   -2.3830 C   0  0  0  0  0  0  0  0  0  0  0  0
   -1.3848   -1.1015   -3.1804 N   0  0  0  0  0  0  0  0  0  0  0  0
   -0.1302   -1.2564   -2.6912 N   0  0  0  0  0  0  0  0  0  0  0  0
    0.7547   -2.2004   -3.3240 C   0  0  0  0  0  0  0  0  0  0  0  0
    0.1072   -0.4435   -1.6292 C   0  0  0  0  0  0  0  0  0  0  0  0
    2.0731   -0.7871   -1.0365 H   0  0  0  0  0  0  0  0  0  0  0  0
    3.8574    0.4037   -0.2127 H   0  0  0  0  0  0  0  0  0  0  0  0
    3.2918   -0.8604    0.9121 H   0  0  0  0  0  0  0  0  0  0  0  0
    3.9243    0.6331    2.8385 H   0  0  0  0  0  0  0  0  0  0  0  0
    4.5786    1.8044    1.7063 H   0  0  0  0  0  0  0  0  0  0  0  0
    5.5559   -1.0866    2.0461 H   0  0  0  0  0  0  0  0  0  0  0  0
    6.3128    0.3417    2.7427 H   0  0  0  0  0  0  0  0  0  0  0  0
    7.5417   -0.3042    0.7454 H   0  0  0  0  0  0  0  0  0  0  0  0
    6.7294    1.2361    0.4204 H   0  0  0  0  0  0  0  0  0  0  0  0
    6.0810   -0.2767   -0.2467 H   0  0  0  0  0  0  0  0  0  0  0  0
   -1.9938    2.5481    0.7180 H   0  0  0  0  0  0  0  0  0  0  0  0
   -4.3771    3.0713   -0.8993 H   0  0  0  0  0  0  0  0  0  0  0  0
   -6.6898    2.2579   -0.5935 H   0  0  0  0  0  0  0  0  0  0  0  0
   -7.1050    0.1177    0.5889 H   0  0  0  0  0  0  0  0  0  0  0  0
   -5.2445   -1.1807    1.4949 H   0  0  0  0  0  0  0  0  0  0  0  0
   -3.3909   -1.6696    2.8035 H   0  0  0  0  0  0  0  0  0  0  0  0
   -3.2321   -2.4357    1.1741 H   0  0  0  0  0  0  0  0  0  0  0  0
   -1.8052   -2.1243    2.1695 H   0  0  0  0  0  0  0  0  0  0  0  0
   -2.9432    0.1514   -2.5667 H   0  0  0  0  0  0  0  0  0  0  0  0
    1.6978   -2.2530   -2.7763 H   0  0  0  0  0  0  0  0  0  0  0  0
    0.9376   -1.8665   -4.3484 H   0  0  0  0  0  0  0  0  0  0  0  0
    0.2725   -3.1813   -3.3218 H   0  0  0  0  0  0  0  0  0  0  0  0
  1  2  1  0
  2  3  2  3
  3  4  1  0
  4  5  1  0
  5  6  1  0
  6  7  1  0
  2  8  1  0
  8  9  2  0
  9 10  1  0
 10 11  1  0
 11 12  2  0
 12 13  1  0
 13 14  2  0
 14 15  1  0
 15 16  2  0
 16 17  1  0
 17 18  1  0
  9 19  1  0
 19 20  1  0
 20 21  2  0
 21 22  1  0
 22 23  1  0
 22 24  1  0
 24  1  1  0
 16 11  1  0
 24 19  2  0
  1 25  1  0
  4 26  1  0
  4 27  1  0
  5 28  1  0
  5 29  1  0
  6 30  1  0
  6 31  1  0
  7 32  1  0
  7 33  1  0
  7 34  1  0
 10 35  1  0
 12 36  1  0
 13 37  1  0
 14 38  1  0
 15 39  1  0
 18 40  1  0
 18 41  1  0
 18 42  1  0
 20 43  1  0
 23 44  1  0
 23 45  1  0
 23 46  1  0
M  END
>  <ScrubInfo>  (4) 
{"isomerGroup": 0, "isomerId": 3, "confId": 0, "nr_conformers:": 1, "nr_isomers:": 9}

$$$$
_i4
     RDKit          3D

 46 48  0  0  0  0  0  0  0  0999 V2000
   -0.8664   -3.9157   -2.4341 N   0  0  0  0  0  0  0  0  0  0  0  0
   -1.6911   -2.8719   -2.0253 C   0  0  0  0  0  0  0  0  0  0  0  0
   -1.0053   -1.7962   -1.6185 C   0  0  0  0  0  0  0  0  0  0  0  0
   -1.2998   -0.4717   -1.1240 C   0  0  0  0  0  0  0  0  0  0  0  0
   -2.5139   -0.0707   -0.9104 N   0  0  0  0  0  0  0  0  0  0  0  0
   -2.7002    1.2203   -0.3789 C   0  0  0  0  0  0  0  0  0  0  0  0
   -3.0681    2.2534   -1.2497 C   0  0  0  0  0  0  0  0  0  0  0  0
   -3.2873    3.5440   -0.7707 C   0  0  0  0  0  0  0  0  0  0  0  0
   -3.1499    3.8087    0.5891 C   0  0  0  0  0  0  0  0  0  0  0  0
   -2.7980    2.7848    1.4739 C   0  0  0  0  0  0  0  0  0  0  0  0
   -2.5753    1.4853    1.0023 C   0  0  0  0  0  0  0  0  0  0  0  0
   -2.2390    0.4143    1.7952 O   0  0  0  0  0  0  0  0  0  0  0  0
   -2.0719    0.6561    3.1835 C   0  0  0  0  0  0  0  0  0  0  0  0
   -0.1939    0.3113   -0.9207 N   0  0  0  0  0  0  0  0  0  0  0  0
    1.0179   -0.1344   -1.0873 C   0  0  0  0  0  0  0  0  0  0  0  0
    2.0143    0.7605   -0.8311 N   0  0  0  0  0  0  0  0  0  0  0  0
    3.3637    0.3942   -0.4752 C   0  0  0  0  0  0  0  0  0  0  0  0
    3.4608   -0.2796    0.8959 C   0  0  0  0  0  0  0  0  0  0  0  0
    3.2274    0.6452    2.0954 C   0  0  0  0  0  0  0  0  0  0  0  0
    1.7621    0.9048    2.4102 C   0  0  0  0  0  0  0  0  0  0  0  0
    1.3581   -1.4032   -1.4838 N   0  0  0  0  0  0  0  0  0  0  0  0
    0.3946   -2.2191   -1.7355 C   0  0  0  0  0  0  0  0  0  0  0  0
    0.4491   -3.5535   -2.1454 N   0  0  0  0  0  0  0  0  0  0  0  0
    1.5120   -4.0182   -3.0154 C   0  0  0  0  0  0  0  0  0  0  0  0
   -1.1683   -4.8252   -2.0771 H   0  0  0  0  0  0  0  0  0  0  0  0
   -2.7651   -2.9918   -2.0507 H   0  0  0  0  0  0  0  0  0  0  0  0
   -3.1779    2.0413   -2.3093 H   0  0  0  0  0  0  0  0  0  0  0  0
   -3.5661    4.3375   -1.4584 H   0  0  0  0  0  0  0  0  0  0  0  0
   -3.3219    4.8141    0.9651 H   0  0  0  0  0  0  0  0  0  0  0  0
   -2.7104    3.0332    2.5257 H   0  0  0  0  0  0  0  0  0  0  0  0
   -3.0105    0.9831    3.6427 H   0  0  0  0  0  0  0  0  0  0  0  0
   -1.7829   -0.2881    3.6550 H   0  0  0  0  0  0  0  0  0  0  0  0
   -1.2687    1.3772    3.3674 H   0  0  0  0  0  0  0  0  0  0  0  0
    1.6576    1.6160   -0.4250 H   0  0  0  0  0  0  0  0  0  0  0  0
    3.9900    1.2933   -0.4914 H   0  0  0  0  0  0  0  0  0  0  0  0
    3.7745   -0.2775   -1.2384 H   0  0  0  0  0  0  0  0  0  0  0  0
    4.4820   -0.6729    0.9851 H   0  0  0  0  0  0  0  0  0  0  0  0
    2.7932   -1.1469    0.9561 H   0  0  0  0  0  0  0  0  0  0  0  0
    3.6741    0.1686    2.9771 H   0  0  0  0  0  0  0  0  0  0  0  0
    3.7531    1.5964    1.9549 H   0  0  0  0  0  0  0  0  0  0  0  0
    1.2909    1.5482    1.6646 H   0  0  0  0  0  0  0  0  0  0  0  0
    1.6735    1.4135    3.3760 H   0  0  0  0  0  0  0  0  0  0  0  0
    1.1975   -0.0309    2.4707 H   0  0  0  0  0  0  0  0  0  0  0  0
    1.4410   -5.1014   -3.1577 H   0  0  0  0  0  0  0  0  0  0  0  0
    1.4531   -3.5338   -3.9956 H   0  0  0  0  0  0  0  0  0  0  0  0
    2.4913   -3.8026   -2.5760 H   0  0  0  0  0  0  0  0  0  0  0  0
  1  2  1  0
  2  3  2  0
  3  4  1  0
  4  5  2  3
  5  6  1  0
  6  7  2  0
  7  8  1  0
  8  9  2  0
  9 10  1  0
 10 11  2  0
 11 12  1  0
 12 13  1  0
  4 14  1  0
 14 15  2  0
 15 16  1  0
 16 17  1  0
 17 18  1  0
 18 19  1  0
 19 20  1  0
 15 21  1  0
 21 22  2  0
 22 23  1  0
 23 24  1  0
 23  1  1  0
 22  3  1  0
 11  6  1  0
  1 25  1  0
  2 26  1  0
  7 27  1  0
  8 28  1  0
  9 29  1  0
 10 30  1  0
 13 31  1  0
 13 32  1  0
 13 33  1  0
 16 34  1  0
 17 35  1  0
 17 36  1  0
 18 37  1  0
 18 38  1  0
 19 39  1  0
 19 40  1  0
 20 41  1  0
 20 42  1  0
 20 43  1  0
 24 44  1  0
 24 45  1  0
 24 46  1  0
M  END
>  <ScrubInfo>  (5) 
{"isomerGroup": 0, "isomerId": 4, "confId": 0, "nr_conformers:": 1, "nr_isomers:": 9}

$$$$
_i5
     RDKit          3D

 46 48  0  0  0  0  0  0  0  0999 V2000
    1.0796   -1.5690    0.2392 N   0  0  0  0  0  0  0  0  0  0  0  0
    1.3624   -0.3373   -0.3055 C   0  0  0  0  0  0  0  0  0  0  0  0
    2.7136   -0.1119   -0.3597 N   0  0  0  0  0  0  0  0  0  0  0  0
    3.2145    1.1734   -0.8361 C   0  0  0  0  0  0  0  0  0  0  0  0
    4.7363    1.1409   -0.9873 C   0  0  0  0  0  0  0  0  0  0  0  0
    5.4712    1.1353    0.3556 C   0  0  0  0  0  0  0  0  0  0  0  0
    6.9792    1.1824    0.1619 C   0  0  0  0  0  0  0  0  0  0  0  0
    0.4769    0.5153   -0.7308 N   0  0  0  0  0  0  0  0  0  0  0  0
   -0.8793    0.2277   -0.6265 C   0  0  0  0  0  0  0  0  0  0  0  0
   -1.6875    1.1716   -0.9901 N   0  0  0  0  0  0  0  0  0  0  0  0
   -3.0794    1.0475   -0.8934 C   0  0  0  0  0  0  0  0  0  0  0  0
   -3.8064    0.8282   -2.0697 C   0  0  0  0  0  0  0  0  0  0  0  0
   -5.1966    0.7323   -2.0399 C   0  0  0  0  0  0  0  0  0  0  0  0
   -5.8726    0.8705   -0.8308 C   0  0  0  0  0  0  0  0  0  0  0  0
   -5.1632    1.1114    0.3497 C   0  0  0  0  0  0  0  0  0  0  0  0
   -3.7671    1.2103    0.3290 C   0  0  0  0  0  0  0  0  0  0  0  0
   -2.9843    1.4329    1.4347 O   0  0  0  0  0  0  0  0  0  0  0  0
   -3.6458    1.6871    2.6648 C   0  0  0  0  0  0  0  0  0  0  0  0
   -1.2211   -1.1008   -0.1445 C   0  0  0  0  0  0  0  0  0  0  0  0
   -2.3773   -1.8858    0.0161 C   0  0  0  0  0  0  0  0  0  0  0  0
   -2.1147   -3.1119    0.4985 N   0  0  0  0  0  0  0  0  0  0  0  0
   -0.7710   -3.1142    0.6480 N   0  0  0  0  0  0  0  0  0  0  0  0
   -0.1250   -4.2963    1.1579 C   0  0  0  0  0  0  0  0  0  0  0  0
   -0.2137   -1.9356    0.2686 C   0  0  0  0  0  0  0  0  0  0  0  0
    1.8431   -2.2286    0.2968 H   0  0  0  0  0  0  0  0  0  0  0  0
    3.1924   -0.4296    0.4732 H   0  0  0  0  0  0  0  0  0  0  0  0
    2.9153    1.9737   -0.1494 H   0  0  0  0  0  0  0  0  0  0  0  0
    2.7780    1.3910   -1.8182 H   0  0  0  0  0  0  0  0  0  0  0  0
    5.0352    0.2652   -1.5767 H   0  0  0  0  0  0  0  0  0  0  0  0
    5.0441    2.0289   -1.5533 H   0  0  0  0  0  0  0  0  0  0  0  0
    5.2182    0.2360    0.9272 H   0  0  0  0  0  0  0  0  0  0  0  0
    5.1595    1.9994    0.9538 H   0  0  0  0  0  0  0  0  0  0  0  0
    7.2784    2.0896   -0.3727 H   0  0  0  0  0  0  0  0  0  0  0  0
    7.4861    1.1776    1.1320 H   0  0  0  0  0  0  0  0  0  0  0  0
    7.3284    0.3157   -0.4084 H   0  0  0  0  0  0  0  0  0  0  0  0
   -3.2759    0.7374   -3.0142 H   0  0  0  0  0  0  0  0  0  0  0  0
   -5.7486    0.5579   -2.9596 H   0  0  0  0  0  0  0  0  0  0  0  0
   -6.9573    0.7978   -0.8054 H   0  0  0  0  0  0  0  0  0  0  0  0
   -5.7299    1.2161    1.2685 H   0  0  0  0  0  0  0  0  0  0  0  0
   -4.2117    0.8101    2.9955 H   0  0  0  0  0  0  0  0  0  0  0  0
   -4.2887    2.5708    2.5953 H   0  0  0  0  0  0  0  0  0  0  0  0
   -2.8807    1.8917    3.4199 H   0  0  0  0  0  0  0  0  0  0  0  0
   -3.4069   -1.6393   -0.2028 H   0  0  0  0  0  0  0  0  0  0  0  0
   -0.6590   -4.6281    2.0522 H   0  0  0  0  0  0  0  0  0  0  0  0
    0.9121   -4.0710    1.4154 H   0  0  0  0  0  0  0  0  0  0  0  0
   -0.1611   -5.0664    0.3836 H   0  0  0  0  0  0  0  0  0  0  0  0
  1  2  1  0
  2  3  1  0
  3  4  1  0
  4  5  1  0
  5  6  1  0
  6  7  1  0
  2  8  2  0
  8  9  1  0
  9 10  2  3
 10 11  1  0
 11 12  2  0
 12 13  1  0
 13 14  2  0
 14 15  1  0
 15 16  2  0
 16 17  1  0
 17 18  1  0
  9 19  1  0
 19 20  1  0
 20 21  2  0
 21 22  1  0
 22 23  1  0
 22 24  1  0
 24  1  1  0
 16 11  1  0
 24 19  2  0
  1 25  1  0
  3 26  1  0
  4 27  1  0
  4 28  1  0
  5 29  1  0
  5 30  1  0
  6 31  1  0
  6 32  1  0
  7 33  1  0
  7 34  1  0
  7 35  1  0
 12 36  1  0
 13 37  1  0
 14 38  1  0
 15 39  1  0
 18 40  1  0
 18 41  1  0
 18 42  1  0
 20 43  1  0
 23 44  1  0
 23 45  1  0
 23 46  1  0
M  END
>  <ScrubInfo>  (6) 
{"isomerGroup": 0, "isomerId": 5, "confId": 0, "nr_conformers:": 1, "nr_isomers:": 9}

$$$$
_i6
     RDKit          3D

 46 48  0  0  0  0  0  0  0  0999 V2000
   -0.9842   -3.7841   -3.1310 N   0  0  0  0  0  0  0  0  0  0  0  0
   -1.4593   -2.5957   -2.5860 C   0  0  0  0  0  0  0  0  0  0  0  0
   -0.5962   -2.0312   -1.7297 C   0  0  0  0  0  0  0  0  0  0  0  0
   -0.5258   -0.8488   -0.8656 C   0  0  0  0  0  0  0  0  0  0  0  0
   -1.5819    0.0369   -0.8666 N   0  0  0  0  0  0  0  0  0  0  0  0
   -1.7688    1.2657   -0.1944 C   0  0  0  0  0  0  0  0  0  0  0  0
   -0.7820    1.9017    0.5638 C   0  0  0  0  0  0  0  0  0  0  0  0
   -1.0397    3.1152    1.2065 C   0  0  0  0  0  0  0  0  0  0  0  0
   -2.2916    3.7119    1.0982 C   0  0  0  0  0  0  0  0  0  0  0  0
   -3.2934    3.1000    0.3449 C   0  0  0  0  0  0  0  0  0  0  0  0
   -3.0403    1.8848   -0.2999 C   0  0  0  0  0  0  0  0  0  0  0  0
   -3.9540    1.1969   -1.0712 O   0  0  0  0  0  0  0  0  0  0  0  0
   -5.2581    1.7571   -1.1733 C   0  0  0  0  0  0  0  0  0  0  0  0
    0.5453   -0.7153   -0.1364 N   0  0  0  0  0  0  0  0  0  0  0  0
    1.5425   -1.6659   -0.1912 C   0  0  0  0  0  0  0  0  0  0  0  0
    2.5579   -1.5727    0.5916 N   0  0  0  0  0  0  0  0  0  0  0  0
    2.6298   -0.4771    1.5543 C   0  0  0  0  0  0  0  0  0  0  0  0
    3.3461    0.7181    0.9257 C   0  0  0  0  0  0  0  0  0  0  0  0
    3.3946    1.9444    1.8387 C   0  0  0  0  0  0  0  0  0  0  0  0
    4.2195    1.7310    3.0983 C   0  0  0  0  0  0  0  0  0  0  0  0
    1.5948   -2.7543   -1.0287 N   0  0  0  0  0  0  0  0  0  0  0  0
    0.5698   -2.9366   -1.7830 C   0  0  0  0  0  0  0  0  0  0  0  0
    0.3370   -3.9398   -2.7244 N   0  0  0  0  0  0  0  0  0  0  0  0
    0.8703   -5.2753   -2.5333 C   0  0  0  0  0  0  0  0  0  0  0  0
   -1.1537   -3.8712   -4.1359 H   0  0  0  0  0  0  0  0  0  0  0  0
   -2.4338   -2.2394   -2.8857 H   0  0  0  0  0  0  0  0  0  0  0  0
   -2.4152   -0.2061   -1.3937 H   0  0  0  0  0  0  0  0  0  0  0  0
    0.2098    1.4757    0.6651 H   0  0  0  0  0  0  0  0  0  0  0  0
   -0.2558    3.5916    1.7903 H   0  0  0  0  0  0  0  0  0  0  0  0
   -2.4869    4.6563    1.6000 H   0  0  0  0  0  0  0  0  0  0  0  0
   -4.2548    3.5973    0.2817 H   0  0  0  0  0  0  0  0  0  0  0  0
   -5.7395    1.8204   -0.1919 H   0  0  0  0  0  0  0  0  0  0  0  0
   -5.8599    1.0877   -1.7956 H   0  0  0  0  0  0  0  0  0  0  0  0
   -5.2300    2.7337   -1.6675 H   0  0  0  0  0  0  0  0  0  0  0  0
    1.6480   -0.1929    1.9505 H   0  0  0  0  0  0  0  0  0  0  0  0
    3.2018   -0.8396    2.4155 H   0  0  0  0  0  0  0  0  0  0  0  0
    4.3647    0.4278    0.6393 H   0  0  0  0  0  0  0  0  0  0  0  0
    2.8374    1.0029   -0.0036 H   0  0  0  0  0  0  0  0  0  0  0  0
    2.3774    2.2439    2.1162 H   0  0  0  0  0  0  0  0  0  0  0  0
    3.8278    2.7796    1.2756 H   0  0  0  0  0  0  0  0  0  0  0  0
    4.2951    2.6674    3.6605 H   0  0  0  0  0  0  0  0  0  0  0  0
    3.7618    0.9865    3.7561 H   0  0  0  0  0  0  0  0  0  0  0  0
    5.2337    1.4007    2.8528 H   0  0  0  0  0  0  0  0  0  0  0  0
    0.4195   -5.7525   -1.6570 H   0  0  0  0  0  0  0  0  0  0  0  0
    0.6650   -5.8959   -3.4116 H   0  0  0  0  0  0  0  0  0  0  0  0
    1.9557   -5.2410   -2.3950 H   0  0  0  0  0  0  0  0  0  0  0  0
  1  2  1  0
  2  3  2  0
  3  4  1  0
  4  5  1  0
  5  6  1  0
  6  7  2  0
  7  8  1  0
  8  9  2  0
  9 10  1  0
 10 11  2  0
 11 12  1  0
 12 13  1  0
  4 14  2  0
 14 15  1  0
 15 16  2  3
 16 17  1  0
 17 18  1  0
 18 19  1  0
 19 20  1  0
 15 21  1  0
 21 22  2  0
 22 23  1  0
 23 24  1  0
 23  1  1  0
 22  3  1  0
 11  6  1  0
  1 25  1  0
  2 26  1  0
  5 27  1  0
  7 28  1  0
  8 29  1  0
  9 30  1  0
 10 31  1  0
 13 32  1  0
 13 33  1  0
 13 34  1  0
 17 35  1  0
 17 36  1  0
 18 37  1  0
 18 38  1  0
 19 39  1  0
 19 40  1  0
 20 41  1  0
 20 42  1  0
 20 43  1  0
 24 44  1  0
 24 45  1  0
 24 46  1  0
M  END
>  <ScrubInfo>  (7) 
{"isomerGroup": 0, "isomerId": 6, "confId": 0, "nr_conformers:": 1, "nr_isomers:": 9}

$$$$
_i7
     RDKit          3D

 46 48  0  0  0  0  0  0  0  0999 V2000
   -2.0519   -4.4780    1.0905 N   0  0  0  0  0  0  0  0  0  0  0  0
   -2.3675   -3.1285    1.2059 C   0  0  0  0  0  0  0  0  0  0  0  0
   -1.4098   -2.3273    0.7246 C   0  0  0  0  0  0  0  0  0  0  0  0
   -1.1766   -0.8942    0.5458 C   0  0  0  0  0  0  0  0  0  0  0  0
   -2.0623   -0.0448    0.9785 N   0  0  0  0  0  0  0  0  0  0  0  0
   -1.8104    1.3312    0.8273 C   0  0  0  0  0  0  0  0  0  0  0  0
   -1.4750    2.0656    1.9702 C   0  0  0  0  0  0  0  0  0  0  0  0
   -1.1531    3.4219    1.8818 C   0  0  0  0  0  0  0  0  0  0  0  0
   -1.1630    4.0608    0.6438 C   0  0  0  0  0  0  0  0  0  0  0  0
   -1.5111    3.3482   -0.5028 C   0  0  0  0  0  0  0  0  0  0  0  0
   -1.8610    1.9987   -0.4103 C   0  0  0  0  0  0  0  0  0  0  0  0
   -2.1542    1.3766   -1.5977 O   0  0  0  0  0  0  0  0  0  0  0  0
   -3.4499    0.7749   -1.5863 C   0  0  0  0  0  0  0  0  0  0  0  0
    0.0132   -0.6340   -0.0889 N   0  0  0  0  0  0  0  0  0  0  0  0
    0.9325   -1.5585   -0.5272 C   0  0  0  0  0  0  0  0  0  0  0  0
    2.0211   -1.3067   -1.1635 N   0  0  0  0  0  0  0  0  0  0  0  0
    2.3760    0.0584   -1.5323 C   0  0  0  0  0  0  0  0  0  0  0  0
    3.0798    0.7560   -0.3698 C   0  0  0  0  0  0  0  0  0  0  0  0
    3.4508    2.1940   -0.7290 C   0  0  0  0  0  0  0  0  0  0  0  0
    4.1429    2.8963    0.4282 C   0  0  0  0  0  0  0  0  0  0  0  0
    0.7477   -2.9087   -0.2970 N   0  0  0  0  0  0  0  0  0  0  0  0
   -0.3419   -3.2806    0.2962 C   0  0  0  0  0  0  0  0  0  0  0  0
   -0.7383   -4.5774    0.6350 N   0  0  0  0  0  0  0  0  0  0  0  0
   -0.3577   -5.7091   -0.1884 C   0  0  0  0  0  0  0  0  0  0  0  0
   -2.2759   -5.0184    1.9290 H   0  0  0  0  0  0  0  0  0  0  0  0
   -3.3057   -2.8335    1.6540 H   0  0  0  0  0  0  0  0  0  0  0  0
   -1.4529    1.5688    2.9371 H   0  0  0  0  0  0  0  0  0  0  0  0
   -0.8892    3.9759    2.7794 H   0  0  0  0  0  0  0  0  0  0  0  0
   -0.9042    5.1143    0.5717 H   0  0  0  0  0  0  0  0  0  0  0  0
   -1.5214    3.8452   -1.4694 H   0  0  0  0  0  0  0  0  0  0  0  0
   -3.8424    0.8173   -2.6071 H   0  0  0  0  0  0  0  0  0  0  0  0
   -4.1581    1.3004   -0.9348 H   0  0  0  0  0  0  0  0  0  0  0  0
   -3.3772   -0.2792   -1.3050 H   0  0  0  0  0  0  0  0  0  0  0  0
    0.2108    0.3309   -0.2915 H   0  0  0  0  0  0  0  0  0  0  0  0
    1.5069    0.6299   -1.8789 H   0  0  0  0  0  0  0  0  0  0  0  0
    3.0572    0.0079   -2.3900 H   0  0  0  0  0  0  0  0  0  0  0  0
    3.9826    0.1943   -0.0995 H   0  0  0  0  0  0  0  0  0  0  0  0
    2.4360    0.7565    0.5177 H   0  0  0  0  0  0  0  0  0  0  0  0
    4.1126    2.2012   -1.6028 H   0  0  0  0  0  0  0  0  0  0  0  0
    2.5482    2.7543   -1.0000 H   0  0  0  0  0  0  0  0  0  0  0  0
    4.4002    3.9229    0.1492 H   0  0  0  0  0  0  0  0  0  0  0  0
    5.0661    2.3780    0.7061 H   0  0  0  0  0  0  0  0  0  0  0  0
    3.4926    2.9364    1.3079 H   0  0  0  0  0  0  0  0  0  0  0  0
   -0.6786   -6.6453    0.2799 H   0  0  0  0  0  0  0  0  0  0  0  0
   -0.8174   -5.6407   -1.1798 H   0  0  0  0  0  0  0  0  0  0  0  0
    0.7296   -5.7514   -0.3076 H   0  0  0  0  0  0  0  0  0  0  0  0
  1  2  1  0
  2  3  2  0
  3  4  1  0
  4  5  2  3
  5  6  1  0
  6  7  2  0
  7  8  1  0
  8  9  2  0
  9 10  1  0
 10 11  2  0
 11 12  1  0
 12 13  1  0
  4 14  1  0
 14 15  1  0
 15 16  2  3
 16 17  1  0
 17 18  1  0
 18 19  1  0
 19 20  1  0
 15 21  1  0
 21 22  2  0
 22 23  1  0
 23 24  1  0
 23  1  1  0
 22  3  1  0
 11  6  1  0
  1 25  1  0
  2 26  1  0
  7 27  1  0
  8 28  1  0
  9 29  1  0
 10 30  1  0
 13 31  1  0
 13 32  1  0
 13 33  1  0
 14 34  1  0
 17 35  1  0
 17 36  1  0
 18 37  1  0
 18 38  1  0
 19 39  1  0
 19 40  1  0
 20 41  1  0
 20 42  1  0
 20 43  1  0
 24 44  1  0
 24 45  1  0
 24 46  1  0
M  END
>  <ScrubInfo>  (8) 
{"isomerGroup": 0, "isomerId": 7, "confId": 0, "nr_conformers:": 1, "nr_isomers:": 9}

$$$$
_i8
     RDKit          3D

 46 48  0  0  0  0  0  0  0  0999 V2000
    0.7165   -0.9265   -1.4307 N   0  0  0  0  0  0  0  0  0  0  0  0
    0.6568   -0.0673   -0.3423 C   0  0  0  0  0  0  0  0  0  0  0  0
    1.6426    0.4439    0.3156 N   0  0  0  0  0  0  0  0  0  0  0  0
    3.0030    0.1067   -0.0938 C   0  0  0  0  0  0  0  0  0  0  0  0
    3.9732    0.8263    0.8430 C   0  0  0  0  0  0  0  0  0  0  0  0
    5.4384    0.4631    0.5969 C   0  0  0  0  0  0  0  0  0  0  0  0
    5.9540    0.9095   -0.7625 C   0  0  0  0  0  0  0  0  0  0  0  0
   -0.6302    0.2501    0.0456 N   0  0  0  0  0  0  0  0  0  0  0  0
   -1.8538   -0.1442   -0.4580 C   0  0  0  0  0  0  0  0  0  0  0  0
   -3.0632    0.1442   -0.1052 N   0  0  0  0  0  0  0  0  0  0  0  0
   -3.2402    1.0180    0.9811 C   0  0  0  0  0  0  0  0  0  0  0  0
   -3.6295    2.3349    0.7107 C   0  0  0  0  0  0  0  0  0  0  0  0
   -3.7741    3.2653    1.7423 C   0  0  0  0  0  0  0  0  0  0  0  0
   -3.5289    2.8864    3.0604 C   0  0  0  0  0  0  0  0  0  0  0  0
   -3.1567    1.5738    3.3483 C   0  0  0  0  0  0  0  0  0  0  0  0
   -3.0407    0.6348    2.3198 C   0  0  0  0  0  0  0  0  0  0  0  0
   -2.6516   -0.6230    2.7065 O   0  0  0  0  0  0  0  0  0  0  0  0
   -3.5504   -1.6374    2.2562 C   0  0  0  0  0  0  0  0  0  0  0  0
   -1.6797   -1.0364   -1.5803 C   0  0  0  0  0  0  0  0  0  0  0  0
   -2.5441   -1.7194   -2.4477 C   0  0  0  0  0  0  0  0  0  0  0  0
   -1.8802   -2.4473   -3.3588 N   0  0  0  0  0  0  0  0  0  0  0  0
   -0.5758   -2.2241   -3.0648 N   0  0  0  0  0  0  0  0  0  0  0  0
    0.4357   -2.8647   -3.8665 C   0  0  0  0  0  0  0  0  0  0  0  0
   -0.4202   -1.3810   -2.0063 C   0  0  0  0  0  0  0  0  0  0  0  0
    1.6353   -1.1924   -1.7558 H   0  0  0  0  0  0  0  0  0  0  0  0
    3.1748    0.4286   -1.1268 H   0  0  0  0  0  0  0  0  0  0  0  0
    3.1658   -0.9754   -0.0255 H   0  0  0  0  0  0  0  0  0  0  0  0
    3.7234    0.5726    1.8813 H   0  0  0  0  0  0  0  0  0  0  0  0
    3.8388    1.9114    0.7516 H   0  0  0  0  0  0  0  0  0  0  0  0
    5.5773   -0.6192    0.7021 H   0  0  0  0  0  0  0  0  0  0  0  0
    6.0491    0.9377    1.3742 H   0  0  0  0  0  0  0  0  0  0  0  0
    5.7988    1.9830   -0.9087 H   0  0  0  0  0  0  0  0  0  0  0  0
    7.0273    0.7085   -0.8413 H   0  0  0  0  0  0  0  0  0  0  0  0
    5.4567    0.3732   -1.5760 H   0  0  0  0  0  0  0  0  0  0  0  0
   -0.6584    0.8508    0.8571 H   0  0  0  0  0  0  0  0  0  0  0  0
   -3.8109    2.6381   -0.3175 H   0  0  0  0  0  0  0  0  0  0  0  0
   -4.0715    4.2857    1.5144 H   0  0  0  0  0  0  0  0  0  0  0  0
   -3.6309    3.6109    3.8643 H   0  0  0  0  0  0  0  0  0  0  0  0
   -2.9674    1.2756    4.3761 H   0  0  0  0  0  0  0  0  0  0  0  0
   -3.1922   -2.0733    1.3197 H   0  0  0  0  0  0  0  0  0  0  0  0
   -3.5541   -2.4323    3.0086 H   0  0  0  0  0  0  0  0  0  0  0  0
   -4.5804   -1.2782    2.1472 H   0  0  0  0  0  0  0  0  0  0  0  0
   -3.6266   -1.7180   -2.4560 H   0  0  0  0  0  0  0  0  0  0  0  0
    1.4220   -2.6957   -3.4300 H   0  0  0  0  0  0  0  0  0  0  0  0
    0.3948   -2.4399   -4.8725 H   0  0  0  0  0  0  0  0  0  0  0  0
    0.2273   -3.9374   -3.8958 H   0  0  0  0  0  0  0  0  0  0  0  0
  1  2  1  0
  2  3  2  3
  3  4  1  0
  4  5  1  0
  5  6  1  0
  6  7  1  0
  2  8  1  0
  8  9  1  0
  9 10  2  3
 10 11  1  0
 11 12  2  0
 12 13  1  0
 13 14  2  0
 14 15  1  0
 15 16  2  0
 16 17  1  0
 17 18  1  0
  9 19  1  0
 19 20  1  0
 20 21  2  0
 21 22  1  0
 22 23  1  0
 22 24  1  0
 24  1  1  0
 16 11  1  0
 24 19  2  0
  1 25  1  0
  4 26  1  0
  4 27  1  0
  5 28  1  0
  5 29  1  0
  6 30  1  0
  6 31  1  0
  7 32  1  0
  7 33  1  0
  7 34  1  0
  8 35  1  0
 12 36  1  0
 13 37  1  0
 14 38  1  0
 15 39  1  0
 18 40  1  0
 18 41  1  0
 18 42  1  0
 20 43  1  0
 23 44  1  0
 23 45  1  0
 23 46  1  0
M  END
>  <ScrubInfo>  (9) 
{"isomerGroup": 0, "isomerId": 8, "confId": 0, "nr_conformers:": 1, "nr_isomers:": 9}

$$$$
