_i0
     RDKit          3D

 42 44  0  0  0  0  0  0  0  0999 V2000
    5.2826   -1.3758   -0.4516 C   0  0  0  0  0  0  0  0  0  0  0  0
    4.8271   -0.0311   -0.9957 C   0  0  0  0  0  0  0  0  0  0  0  0
    3.3456   -0.0517   -1.3709 C   0  0  0  0  0  0  0  0  0  0  0  0
    2.8924    1.3048   -1.9171 C   0  0  0  0  0  0  0  0  0  0  0  0
    1.5051    1.2718   -2.3463 N   0  0  0  0  0  0  0  0  0  0  0  0
    0.5393    1.2293   -1.3527 C   0  0  0  0  0  0  0  0  0  0  0  0
   -0.5599    0.5225   -1.6732 N   0  0  0  0  0  0  0  0  0  0  0  0
   -1.5793    0.3980   -0.7854 C   0  0  0  0  0  0  0  0  0  0  0  0
   -2.6823   -0.3725   -1.2199 N   0  0  0  0  0  0  0  0  0  0  0  0
   -3.4135   -1.2475   -0.3809 C   0  0  0  0  0  0  0  0  0  0  0  0
   -4.6568   -0.8191    0.1087 C   0  0  0  0  0  0  0  0  0  0  0  0
   -5.3966   -1.6304    0.9698 C   0  0  0  0  0  0  0  0  0  0  0  0
   -4.8923   -2.8698    1.3460 C   0  0  0  0  0  0  0  0  0  0  0  0
   -5.6050   -3.6458    2.1724 F   0  0  0  0  0  0  0  0  0  0  0  0
   -3.6639   -3.3185    0.8789 C   0  0  0  0  0  0  0  0  0  0  0  0
   -2.9248   -2.5078    0.0175 C   0  0  0  0  0  0  0  0  0  0  0  0
   -1.4082   -3.1012   -0.5615 Cl  0  0  0  0  0  0  0  0  0  0  0  0
   -1.4456    1.0299    0.4533 C   0  0  0  0  0  0  0  0  0  0  0  0
   -2.1735    1.2054    1.6482 C   0  0  0  0  0  0  0  0  0  0  0  0
   -1.5240    1.9458    2.5546 N   0  0  0  0  0  0  0  0  0  0  0  0
   -0.3660    2.2527    1.9268 N   0  0  0  0  0  0  0  0  0  0  0  0
    0.6131    3.0664    2.6021 C   0  0  0  0  0  0  0  0  0  0  0  0
   -0.2713    1.7256    0.6683 C   0  0  0  0  0  0  0  0  0  0  0  0
    0.7512    1.8552   -0.1887 N   0  0  0  0  0  0  0  0  0  0  0  0
    5.1431   -2.1673   -1.1948 H   0  0  0  0  0  0  0  0  0  0  0  0
    4.7203   -1.6458    0.4480 H   0  0  0  0  0  0  0  0  0  0  0  0
    6.3447   -1.3387   -0.1899 H   0  0  0  0  0  0  0  0  0  0  0  0
    5.0089    0.7425   -0.2406 H   0  0  0  0  0  0  0  0  0  0  0  0
    5.4308    0.2242   -1.8743 H   0  0  0  0  0  0  0  0  0  0  0  0
    2.7512   -0.3230   -0.4899 H   0  0  0  0  0  0  0  0  0  0  0  0
    3.1658   -0.8301   -2.1232 H   0  0  0  0  0  0  0  0  0  0  0  0
    3.0708    2.1041   -1.1873 H   0  0  0  0  0  0  0  0  0  0  0  0
    3.5014    1.5549   -2.7940 H   0  0  0  0  0  0  0  0  0  0  0  0
    1.2691    0.5491   -3.0169 H   0  0  0  0  0  0  0  0  0  0  0  0
   -2.2899   -0.8888   -2.0107 H   0  0  0  0  0  0  0  0  0  0  0  0
   -5.0505    0.1513   -0.1871 H   0  0  0  0  0  0  0  0  0  0  0  0
   -6.3605   -1.3038    1.3485 H   0  0  0  0  0  0  0  0  0  0  0  0
   -3.2985   -4.2918    1.1894 H   0  0  0  0  0  0  0  0  0  0  0  0
   -3.1530    0.8267    1.9045 H   0  0  0  0  0  0  0  0  0  0  0  0
    0.9025    2.5602    3.5265 H   0  0  0  0  0  0  0  0  0  0  0  0
    0.1600    4.0362    2.8232 H   0  0  0  0  0  0  0  0  0  0  0  0
    1.4903    3.2038    1.9659 H   0  0  0  0  0  0  0  0  0  0  0  0
  1  2  1  0
  2  3  1  0
  3  4  1  0
  4  5  1  0
  5  6  1  0
  6  7  2  0
  7  8  1  0
  8  9  1  0
  9 10  1  0
 10 11  2  0
 11 12  1  0
 12 13  2  0
 13 14  1  0
 13 15  1  0
 15 16  2  0
 16 17  1  0
  8 18  2  0
 18 19  1  0
 19 20  2  0
 20 21  1  0
 21 22  1  0
 21 23  1  0
 23 24  2  0
 24  6  1  0
 16 10  1  0
 23 18  1  0
  1 25  1  0
  1 26  1  0
  1 27  1  0
  2 28  1  0
  2 29  1  0
  3 30  1  0
  3 31  1  0
  4 32  1  0
  4 33  1  0
  5 34  1  0
  9 35  1  0
 11 36  1  0
 12 37  1  0
 15 38  1  0
 19 39  1  0
 22 40  1  0
 22 41  1  0
 22 42  1  0
M  END
>  <ScrubInfo>  (1) 
{"isomerGroup": 0, "isomerId": 0, "confId": 0, "nr_conformers:": 1, "nr_isomers:": 9}

$$$$
_i1
     RDKit          3D

 42 44  0  0  0  0  0  0  0  0999 V2000
   -0.7670   -0.5409    0.1276 N   0  0  0  0  0  0  0  0  0  0  0  0
   -1.6930    0.3936    0.5508 C   0  0  0  0  0  0  0  0  0  0  0  0
   -3.0580    0.2013    0.4670 N   0  0  0  0  0  0  0  0  0  0  0  0
   -3.8185   -0.6186   -0.3953 C   0  0  0  0  0  0  0  0  0  0  0  0
   -3.3038   -1.1471   -1.5890 C   0  0  0  0  0  0  0  0  0  0  0  0
   -4.0746   -1.9951   -2.3906 C   0  0  0  0  0  0  0  0  0  0  0  0
   -5.3667   -2.3248   -2.0035 C   0  0  0  0  0  0  0  0  0  0  0  0
   -6.0995   -3.1361   -2.7762 F   0  0  0  0  0  0  0  0  0  0  0  0
   -5.9116   -1.8206   -0.8329 C   0  0  0  0  0  0  0  0  0  0  0  0
   -5.1399   -0.9742   -0.0364 C   0  0  0  0  0  0  0  0  0  0  0  0
   -5.8503   -0.3541    1.4172 Cl  0  0  0  0  0  0  0  0  0  0  0  0
   -1.1624    1.4889    1.1101 C   0  0  0  0  0  0  0  0  0  0  0  0
   -1.6334    2.7319    1.7315 C   0  0  0  0  0  0  0  0  0  0  0  0
   -0.6590    3.5097    2.1297 N   0  0  0  0  0  0  0  0  0  0  0  0
    0.5224    2.8517    1.7503 N   0  0  0  0  0  0  0  0  0  0  0  0
    1.7775    3.2907    2.3109 C   0  0  0  0  0  0  0  0  0  0  0  0
    0.3117    1.6049    1.1838 C   0  0  0  0  0  0  0  0  0  0  0  0
    1.1558    0.7070    0.8047 N   0  0  0  0  0  0  0  0  0  0  0  0
    0.5906   -0.4368    0.2882 C   0  0  0  0  0  0  0  0  0  0  0  0
    1.3256   -1.4423   -0.0528 N   0  0  0  0  0  0  0  0  0  0  0  0
    2.7750   -1.3464    0.1270 C   0  0  0  0  0  0  0  0  0  0  0  0
    3.4162   -0.7805   -1.1388 C   0  0  0  0  0  0  0  0  0  0  0  0
    4.9371   -0.7130   -1.0098 C   0  0  0  0  0  0  0  0  0  0  0  0
    5.5785   -0.1510   -2.2684 C   0  0  0  0  0  0  0  0  0  0  0  0
   -1.1063   -1.4619   -0.1063 H   0  0  0  0  0  0  0  0  0  0  0  0
   -3.6358    0.7877    1.0652 H   0  0  0  0  0  0  0  0  0  0  0  0
   -2.3106   -0.8784   -1.9400 H   0  0  0  0  0  0  0  0  0  0  0  0
   -3.6738   -2.3932   -3.3185 H   0  0  0  0  0  0  0  0  0  0  0  0
   -6.9248   -2.0910   -0.5548 H   0  0  0  0  0  0  0  0  0  0  0  0
   -2.7047    2.9401    1.8460 H   0  0  0  0  0  0  0  0  0  0  0  0
    2.6138    3.0110    1.6622 H   0  0  0  0  0  0  0  0  0  0  0  0
    1.7922    4.3797    2.4229 H   0  0  0  0  0  0  0  0  0  0  0  0
    1.9336    2.8390    3.2954 H   0  0  0  0  0  0  0  0  0  0  0  0
    3.1543   -2.3598    0.3049 H   0  0  0  0  0  0  0  0  0  0  0  0
    3.0580   -0.7651    1.0127 H   0  0  0  0  0  0  0  0  0  0  0  0
    3.1438   -1.4060   -1.9981 H   0  0  0  0  0  0  0  0  0  0  0  0
    3.0193    0.2214   -1.3429 H   0  0  0  0  0  0  0  0  0  0  0  0
    5.3396   -1.7143   -0.8174 H   0  0  0  0  0  0  0  0  0  0  0  0
    5.2105   -0.0833   -0.1552 H   0  0  0  0  0  0  0  0  0  0  0  0
    5.3504   -0.7761   -3.1377 H   0  0  0  0  0  0  0  0  0  0  0  0
    6.6663   -0.1116   -2.1544 H   0  0  0  0  0  0  0  0  0  0  0  0
    5.2212    0.8637   -2.4713 H   0  0  0  0  0  0  0  0  0  0  0  0
  1  2  1  0
  2  3  1  0
  3  4  1  0
  4  5  2  0
  5  6  1  0
  6  7  2  0
  7  8  1  0
  7  9  1  0
  9 10  2  0
 10 11  1  0
  2 12  2  0
 12 13  1  0
 13 14  2  0
 14 15  1  0
 15 16  1  0
 15 17  1  0
 17 18  2  0
 18 19  1  0
 19 20  2  3
 20 21  1  0
 21 22  1  0
 22 23  1  0
 23 24  1  0
 19  1  1  0
 10  4  1  0
 17 12  1  0
  1 25  1  0
  3 26  1  0
  5 27  1  0
  6 28  1  0
  9 29  1  0
 13 30  1  0
 16 31  1  0
 16 32  1  0
 16 33  1  0
 21 34  1  0
 21 35  1  0
 22 36  1  0
 22 37  1  0
 23 38  1  0
 23 39  1  0
 24 40  1  0
 24 41  1  0
 24 42  1  0
M  END
>  <ScrubInfo>  (2) 
{"isomerGroup": 0, "isomerId": 1, "confId": 0, "nr_conformers:": 1, "nr_isomers:": 9}

$$$$
_i2
     RDKit          3D

 42 44  0  0  0  0  0  0  0  0999 V2000
   -0.1922   -0.4573   -0.2587 N   0  0  0  0  0  0  0  0  0  0  0  0
   -0.9752   -0.2776    0.8522 C   0  0  0  0  0  0  0  0  0  0  0  0
   -2.3175   -0.4744    0.6880 N   0  0  0  0  0  0  0  0  0  0  0  0
   -3.0661    0.1507   -0.3945 C   0  0  0  0  0  0  0  0  0  0  0  0
   -4.5417   -0.2318   -0.2842 C   0  0  0  0  0  0  0  0  0  0  0  0
   -5.3651    0.3954   -1.4082 C   0  0  0  0  0  0  0  0  0  0  0  0
   -6.8338    0.0176   -1.3007 C   0  0  0  0  0  0  0  0  0  0  0  0
   -0.5098    0.0475    2.0318 N   0  0  0  0  0  0  0  0  0  0  0  0
    0.8438    0.2101    2.0073 C   0  0  0  0  0  0  0  0  0  0  0  0
    1.7141    0.0567    0.9375 C   0  0  0  0  0  0  0  0  0  0  0  0
    2.9797    0.3431    1.4782 C   0  0  0  0  0  0  0  0  0  0  0  0
    2.9316    0.6538    2.7795 N   0  0  0  0  0  0  0  0  0  0  0  0
    1.6152    0.5680    3.0771 N   0  0  0  0  0  0  0  0  0  0  0  0
    1.1764    0.8425    4.4221 C   0  0  0  0  0  0  0  0  0  0  0  0
    1.1743   -0.3363   -0.3501 C   0  0  0  0  0  0  0  0  0  0  0  0
    1.8044   -0.5745   -1.4603 N   0  0  0  0  0  0  0  0  0  0  0  0
    3.1926   -0.4303   -1.5785 C   0  0  0  0  0  0  0  0  0  0  0  0
    4.0040   -1.5573   -1.3883 C   0  0  0  0  0  0  0  0  0  0  0  0
    5.3886   -1.4674   -1.5397 C   0  0  0  0  0  0  0  0  0  0  0  0
    5.9611   -0.2524   -1.8980 C   0  0  0  0  0  0  0  0  0  0  0  0
    7.2895   -0.1699   -2.0446 F   0  0  0  0  0  0  0  0  0  0  0  0
    5.1796    0.8756   -2.1125 C   0  0  0  0  0  0  0  0  0  0  0  0
    3.7955    0.7842   -1.9608 C   0  0  0  0  0  0  0  0  0  0  0  0
    2.8478    2.2021   -2.2436 Cl  0  0  0  0  0  0  0  0  0  0  0  0
   -0.6309   -0.8342   -1.0818 H   0  0  0  0  0  0  0  0  0  0  0  0
   -2.7697   -0.3172    1.5874 H   0  0  0  0  0  0  0  0  0  0  0  0
   -2.9548    1.2396   -0.3352 H   0  0  0  0  0  0  0  0  0  0  0  0
   -2.6785   -0.1768   -1.3652 H   0  0  0  0  0  0  0  0  0  0  0  0
   -4.6420   -1.3241   -0.3159 H   0  0  0  0  0  0  0  0  0  0  0  0
   -4.9362    0.0921    0.6873 H   0  0  0  0  0  0  0  0  0  0  0  0
   -4.9797    0.0667   -2.3804 H   0  0  0  0  0  0  0  0  0  0  0  0
   -5.2711    1.4871   -1.3740 H   0  0  0  0  0  0  0  0  0  0  0  0
   -6.9655   -1.0673   -1.3638 H   0  0  0  0  0  0  0  0  0  0  0  0
   -7.4039    0.4768   -2.1144 H   0  0  0  0  0  0  0  0  0  0  0  0
   -7.2589    0.3611   -0.3522 H   0  0  0  0  0  0  0  0  0  0  0  0
    3.9488    0.3424    1.0009 H   0  0  0  0  0  0  0  0  0  0  0  0
    1.4944    1.8539    4.6882 H   0  0  0  0  0  0  0  0  0  0  0  0
    1.6371    0.1097    5.0893 H   0  0  0  0  0  0  0  0  0  0  0  0
    0.0887    0.7698    4.4864 H   0  0  0  0  0  0  0  0  0  0  0  0
    3.5501   -2.5089   -1.1223 H   0  0  0  0  0  0  0  0  0  0  0  0
    6.0207   -2.3368   -1.3867 H   0  0  0  0  0  0  0  0  0  0  0  0
    5.6545    1.8083   -2.3985 H   0  0  0  0  0  0  0  0  0  0  0  0
  1  2  1  0
  2  3  1  0
  3  4  1  0
  4  5  1  0
  5  6  1  0
  6  7  1  0
  2  8  2  0
  8  9  1  0
  9 10  2  0
 10 11  1  0
 11 12  2  0
 12 13  1  0
 13 14  1  0
 10 15  1  0
 15 16  2  3
 16 17  1  0
 17 18  2  0
 18 19  1  0
 19 20  2  0
 20 21  1  0
 20 22  1  0
 22 23  2  0
 23 24  1  0
 15  1  1  0
 23 17  1  0
 13  9  1  0
  1 25  1  0
  3 26  1  0
  4 27  1  0
  4 28  1  0
  5 29  1  0
  5 30  1  0
  6 31  1  0
  6 32  1  0
  7 33  1  0
  7 34  1  0
  7 35  1  0
 11 36  1  0
 14 37  1  0
 14 38  1  0
 14 39  1  0
 18 40  1  0
 19 41  1  0
 22 42  1  0
M  END
>  <ScrubInfo>  (3) 
{"isomerGroup": 0, "isomerId": 2, "confId": 0, "nr_conformers:": 1, "nr_isomers:": 9}

$$$$
_i3
     RDKit          3D

 42 44  0  0  0  0  0  0  0  0999 V2000
    1.0678   -1.5337    0.2861 N   0  0  0  0  0  0  0  0  0  0  0  0
    1.0536   -0.3912    1.0717 C   0  0  0  0  0  0  0  0  0  0  0  0
    2.0773    0.2277    1.5386 N   0  0  0  0  0  0  0  0  0  0  0  0
    3.4319   -0.2448    1.2960 C   0  0  0  0  0  0  0  0  0  0  0  0
    3.9683    0.2828   -0.0350 C   0  0  0  0  0  0  0  0  0  0  0  0
    3.9952    1.8094   -0.1595 C   0  0  0  0  0  0  0  0  0  0  0  0
    4.8977    2.4875    0.8593 C   0  0  0  0  0  0  0  0  0  0  0  0
   -0.1429    0.2143    1.4324 N   0  0  0  0  0  0  0  0  0  0  0  0
   -1.2708   -0.2776    1.0099 C   0  0  0  0  0  0  0  0  0  0  0  0
   -2.4930    0.2437    1.3395 N   0  0  0  0  0  0  0  0  0  0  0  0
   -3.3353    0.9611    0.4378 C   0  0  0  0  0  0  0  0  0  0  0  0
   -3.0860    1.0303   -0.9427 C   0  0  0  0  0  0  0  0  0  0  0  0
   -3.9700    1.6968   -1.7968 C   0  0  0  0  0  0  0  0  0  0  0  0
   -5.1140    2.2908   -1.2805 C   0  0  0  0  0  0  0  0  0  0  0  0
   -5.9559    2.9264   -2.1050 F   0  0  0  0  0  0  0  0  0  0  0  0
   -5.3976    2.2354    0.0754 C   0  0  0  0  0  0  0  0  0  0  0  0
   -4.5146    1.5701    0.9266 C   0  0  0  0  0  0  0  0  0  0  0  0
   -4.8973    1.5225    2.6143 Cl  0  0  0  0  0  0  0  0  0  0  0  0
   -1.2985   -1.4838    0.2187 C   0  0  0  0  0  0  0  0  0  0  0  0
   -2.2610   -2.3347   -0.3436 C   0  0  0  0  0  0  0  0  0  0  0  0
   -1.7051   -3.3570   -1.0130 N   0  0  0  0  0  0  0  0  0  0  0  0
   -0.3721   -3.1672   -0.8498 N   0  0  0  0  0  0  0  0  0  0  0  0
    0.5462   -4.1124   -1.4319 C   0  0  0  0  0  0  0  0  0  0  0  0
   -0.1036   -2.0572   -0.1136 C   0  0  0  0  0  0  0  0  0  0  0  0
    1.9666   -1.9260    0.0527 H   0  0  0  0  0  0  0  0  0  0  0  0
    3.4953   -1.3388    1.3230 H   0  0  0  0  0  0  0  0  0  0  0  0
    4.0684    0.0961    2.1196 H   0  0  0  0  0  0  0  0  0  0  0  0
    4.9832   -0.1065   -0.1826 H   0  0  0  0  0  0  0  0  0  0  0  0
    3.3607   -0.1154   -0.8566 H   0  0  0  0  0  0  0  0  0  0  0  0
    2.9808    2.2155   -0.0754 H   0  0  0  0  0  0  0  0  0  0  0  0
    4.3511    2.0663   -1.1646 H   0  0  0  0  0  0  0  0  0  0  0  0
    5.9124    2.0790    0.8196 H   0  0  0  0  0  0  0  0  0  0  0  0
    4.9566    3.5610    0.6527 H   0  0  0  0  0  0  0  0  0  0  0  0
    4.5146    2.3678    1.8769 H   0  0  0  0  0  0  0  0  0  0  0  0
   -2.4119    0.8117    2.1837 H   0  0  0  0  0  0  0  0  0  0  0  0
   -2.1956    0.5873   -1.3813 H   0  0  0  0  0  0  0  0  0  0  0  0
   -3.7695    1.7549   -2.8628 H   0  0  0  0  0  0  0  0  0  0  0  0
   -6.2990    2.7067    0.4527 H   0  0  0  0  0  0  0  0  0  0  0  0
   -3.3400   -2.2590   -0.3029 H   0  0  0  0  0  0  0  0  0  0  0  0
    0.3758   -5.0872   -0.9682 H   0  0  0  0  0  0  0  0  0  0  0  0
    0.3558   -4.1615   -2.5070 H   0  0  0  0  0  0  0  0  0  0  0  0
    1.5744   -3.7910   -1.2540 H   0  0  0  0  0  0  0  0  0  0  0  0
  1  2  1  0
  2  3  2  3
  3  4  1  0
  4  5  1  0
  5  6  1  0
  6  7  1  0
  2  8  1  0
  8  9  2  0
  9 10  1  0
 10 11  1  0
 11 12  2  0
 12 13  1  0
 13 14  2  0
 14 15  1  0
 14 16  1  0
 16 17  2  0
 17 18  1  0
  9 19  1  0
 19 20  1  0
 20 21  2  0
 21 22  1  0
 22 23  1  0
 22 24  1  0
 24  1  1  0
 17 11  1  0
 24 19  2  0
  1 25  1  0
  4 26  1  0
  4 27  1  0
  5 28  1  0
  5 29  1  0
  6 30  1  0
  6 31  1  0
  7 32  1  0
  7 33  1  0
  7 34  1  0
 10 35  1  0
 12 36  1  0
 13 37  1  0
 16 38  1  0
 20 39  1  0
 23 40  1  0
 23 41  1  0
 23 42  1  0
M  END
>  <ScrubInfo>  (4) 
{"isomerGroup": 0, "isomerId": 3, "confId": 0, "nr_conformers:": 1, "nr_isomers:": 9}

$$$$
_i4
     RDKit          3D

 42 44  0  0  0  0  0  0  0  0999 V2000
   -2.1569   -2.5797   -0.6274 N   0  0  0  0  0  0  0  0  0  0  0  0
   -2.4107   -1.2537   -0.2928 C   0  0  0  0  0  0  0  0  0  0  0  0
   -1.3440   -0.6148    0.2125 C   0  0  0  0  0  0  0  0  0  0  0  0
   -0.9717    0.7106    0.6913 C   0  0  0  0  0  0  0  0  0  0  0  0
   -1.6679    1.7920    0.8093 N   0  0  0  0  0  0  0  0  0  0  0  0
   -3.0166    1.8325    0.4347 C   0  0  0  0  0  0  0  0  0  0  0  0
   -3.9883    1.6595    1.4301 C   0  0  0  0  0  0  0  0  0  0  0  0
   -5.3464    1.7268    1.1166 C   0  0  0  0  0  0  0  0  0  0  0  0
   -5.7339    1.9829   -0.1933 C   0  0  0  0  0  0  0  0  0  0  0  0
   -7.0376    2.0440   -0.4928 F   0  0  0  0  0  0  0  0  0  0  0  0
   -4.7934    2.1780   -1.1964 C   0  0  0  0  0  0  0  0  0  0  0  0
   -3.4353    2.1106   -0.8810 C   0  0  0  0  0  0  0  0  0  0  0  0
   -2.2926    2.3531   -2.1548 Cl  0  0  0  0  0  0  0  0  0  0  0  0
    0.3382    0.8150    1.0754 N   0  0  0  0  0  0  0  0  0  0  0  0
    1.1772   -0.1772    1.0342 C   0  0  0  0  0  0  0  0  0  0  0  0
    2.4492    0.1011    1.4391 N   0  0  0  0  0  0  0  0  0  0  0  0
    3.6090   -0.6773    1.0691 C   0  0  0  0  0  0  0  0  0  0  0  0
    3.9981   -0.4652   -0.3955 C   0  0  0  0  0  0  0  0  0  0  0  0
    4.3391    0.9787   -0.7779 C   0  0  0  0  0  0  0  0  0  0  0  0
    5.5225    1.5485   -0.0119 C   0  0  0  0  0  0  0  0  0  0  0  0
    0.8814   -1.4493    0.6258 N   0  0  0  0  0  0  0  0  0  0  0  0
   -0.3260   -1.6825    0.2480 C   0  0  0  0  0  0  0  0  0  0  0  0
   -0.8810   -2.8887   -0.1819 N   0  0  0  0  0  0  0  0  0  0  0  0
   -0.0879   -3.8515   -0.9217 C   0  0  0  0  0  0  0  0  0  0  0  0
   -2.9009   -3.2217   -0.3442 H   0  0  0  0  0  0  0  0  0  0  0  0
   -3.4049   -0.8706   -0.4641 H   0  0  0  0  0  0  0  0  0  0  0  0
   -3.6766    1.4816    2.4570 H   0  0  0  0  0  0  0  0  0  0  0  0
   -6.1002    1.5926    1.8864 H   0  0  0  0  0  0  0  0  0  0  0  0
   -5.1261    2.3853   -2.2081 H   0  0  0  0  0  0  0  0  0  0  0  0
    2.5976    1.0961    1.5587 H   0  0  0  0  0  0  0  0  0  0  0  0
    3.4235   -1.7430    1.2479 H   0  0  0  0  0  0  0  0  0  0  0  0
    4.4415   -0.4041    1.7259 H   0  0  0  0  0  0  0  0  0  0  0  0
    3.1817   -0.8069   -1.0438 H   0  0  0  0  0  0  0  0  0  0  0  0
    4.8598   -1.1054   -0.6218 H   0  0  0  0  0  0  0  0  0  0  0  0
    3.4667    1.6264   -0.6363 H   0  0  0  0  0  0  0  0  0  0  0  0
    4.5734    1.0040   -1.8491 H   0  0  0  0  0  0  0  0  0  0  0  0
    5.7816    2.5376   -0.4030 H   0  0  0  0  0  0  0  0  0  0  0  0
    5.2938    1.6636    1.0516 H   0  0  0  0  0  0  0  0  0  0  0  0
    6.4020    0.9044   -0.1105 H   0  0  0  0  0  0  0  0  0  0  0  0
    0.2156   -3.4430   -1.8913 H   0  0  0  0  0  0  0  0  0  0  0  0
   -0.6637   -4.7666   -1.0945 H   0  0  0  0  0  0  0  0  0  0  0  0
    0.8110   -4.1239   -0.3593 H   0  0  0  0  0  0  0  0  0  0  0  0
  1  2  1  0
  2  3  2  0
  3  4  1  0
  4  5  2  3
  5  6  1  0
  6  7  2  0
  7  8  1  0
  8  9  2  0
  9 10  1  0
  9 11  1  0
 11 12  2  0
 12 13  1  0
  4 14  1  0
 14 15  2  0
 15 16  1  0
 16 17  1  0
 17 18  1  0
 18 19  1  0
 19 20  1  0
 15 21  1  0
 21 22  2  0
 22 23  1  0
 23 24  1  0
 23  1  1  0
 22  3  1  0
 12  6  1  0
  1 25  1  0
  2 26  1  0
  7 27  1  0
  8 28  1  0
 11 29  1  0
 16 30  1  0
 17 31  1  0
 17 32  1  0
 18 33  1  0
 18 34  1  0
 19 35  1  0
 19 36  1  0
 20 37  1  0
 20 38  1  0
 20 39  1  0
 24 40  1  0
 24 41  1  0
 24 42  1  0
M  END
>  <ScrubInfo>  (5) 
{"isomerGroup": 0, "isomerId": 4, "confId": 0, "nr_conformers:": 1, "nr_isomers:": 9}

$$$$
_i5
     RDKit          3D

 42 44  0  0  0  0  0  0  0  0999 V2000
    0.8951    1.8889    0.2828 N   0  0  0  0  0  0  0  0  0  0  0  0
    1.1514    0.7143    0.9517 C   0  0  0  0  0  0  0  0  0  0  0  0
    2.4032    0.7079    1.5053 N   0  0  0  0  0  0  0  0  0  0  0  0
    2.9366   -0.4689    2.1789 C   0  0  0  0  0  0  0  0  0  0  0  0
    3.4120   -1.5347    1.1896 C   0  0  0  0  0  0  0  0  0  0  0  0
    4.6185   -1.0853    0.3618 C   0  0  0  0  0  0  0  0  0  0  0  0
    5.1122   -2.1995   -0.5484 C   0  0  0  0  0  0  0  0  0  0  0  0
    0.3170   -0.2783    1.0595 N   0  0  0  0  0  0  0  0  0  0  0  0
   -0.9418   -0.2052    0.4805 C   0  0  0  0  0  0  0  0  0  0  0  0
   -1.6944   -1.2484    0.6324 N   0  0  0  0  0  0  0  0  0  0  0  0
   -2.9989   -1.3245    0.1344 C   0  0  0  0  0  0  0  0  0  0  0  0
   -3.2053   -1.9530   -1.1015 C   0  0  0  0  0  0  0  0  0  0  0  0
   -4.4934   -2.0955   -1.6194 C   0  0  0  0  0  0  0  0  0  0  0  0
   -5.5795   -1.6235   -0.8917 C   0  0  0  0  0  0  0  0  0  0  0  0
   -6.8145   -1.7620   -1.3902 F   0  0  0  0  0  0  0  0  0  0  0  0
   -5.4068   -1.0155    0.3450 C   0  0  0  0  0  0  0  0  0  0  0  0
   -4.1180   -0.8738    0.8617 C   0  0  0  0  0  0  0  0  0  0  0  0
   -3.9393   -0.1143    2.4040 Cl  0  0  0  0  0  0  0  0  0  0  0  0
   -1.2603    1.0227   -0.2287 C   0  0  0  0  0  0  0  0  0  0  0  0
   -2.3420    1.5645   -0.9457 C   0  0  0  0  0  0  0  0  0  0  0  0
   -2.0999    2.8043   -1.4000 N   0  0  0  0  0  0  0  0  0  0  0  0
   -0.8465    3.0655   -0.9663 N   0  0  0  0  0  0  0  0  0  0  0  0
   -0.2503    4.3394   -1.2781 C   0  0  0  0  0  0  0  0  0  0  0  0
   -0.3174    2.0184   -0.2824 C   0  0  0  0  0  0  0  0  0  0  0  0
    1.5202    2.6654    0.4468 H   0  0  0  0  0  0  0  0  0  0  0  0
    3.1039    1.2233    0.9899 H   0  0  0  0  0  0  0  0  0  0  0  0
    2.1814   -0.8937    2.8506 H   0  0  0  0  0  0  0  0  0  0  0  0
    3.7730   -0.1550    2.8138 H   0  0  0  0  0  0  0  0  0  0  0  0
    2.5952   -1.8236    0.5177 H   0  0  0  0  0  0  0  0  0  0  0  0
    3.6857   -2.4318    1.7587 H   0  0  0  0  0  0  0  0  0  0  0  0
    4.3557   -0.2184   -0.2543 H   0  0  0  0  0  0  0  0  0  0  0  0
    5.4334   -0.7777    1.0272 H   0  0  0  0  0  0  0  0  0  0  0  0
    5.9731   -1.8585   -1.1319 H   0  0  0  0  0  0  0  0  0  0  0  0
    4.3293   -2.5104   -1.2475 H   0  0  0  0  0  0  0  0  0  0  0  0
    5.4212   -3.0738    0.0333 H   0  0  0  0  0  0  0  0  0  0  0  0
   -2.3527   -2.3385   -1.6558 H   0  0  0  0  0  0  0  0  0  0  0  0
   -4.6551   -2.5784   -2.5782 H   0  0  0  0  0  0  0  0  0  0  0  0
   -6.2744   -0.6642    0.8937 H   0  0  0  0  0  0  0  0  0  0  0  0
   -3.3061    1.1305   -1.1688 H   0  0  0  0  0  0  0  0  0  0  0  0
   -0.8110    5.1174   -0.7540 H   0  0  0  0  0  0  0  0  0  0  0  0
   -0.3036    4.4921   -2.3591 H   0  0  0  0  0  0  0  0  0  0  0  0
    0.7932    4.3520   -0.9569 H   0  0  0  0  0  0  0  0  0  0  0  0
  1  2  1  0
  2  3  1  0
  3  4  1  0
  4  5  1  0
  5  6  1  0
  6  7  1  0
  2  8  2  0
  8  9  1  0
  9 10  2  3
 10 11  1  0
 11 12  2  0
 12 13  1  0
 13 14  2  0
 14 15  1  0
 14 16  1  0
 16 17  2  0
 17 18  1  0
  9 19  1  0
 19 20  1  0
 20 21  2  0
 21 22  1  0
 22 23  1  0
 22 24  1  0
 24  1  1  0
 17 11  1  0
 24 19  2  0
  1 25  1  0
  3 26  1  0
  4 27  1  0
  4 28  1  0
  5 29  1  0
  5 30  1  0
  6 31  1  0
  6 32  1  0
  7 33  1  0
  7 34  1  0
  7 35  1  0
 12 36  1  0
 13 37  1  0
 16 38  1  0
 20 39  1  0
 23 40  1  0
 23 41  1  0
 23 42  1  0
M  END
>  <ScrubInfo>  (6) 
{"isomerGroup": 0, "isomerId": 5, "confId": 0, "nr_conformers:": 1, "nr_isomers:": 9}

$$$$
_i6
     RDKit          3D

 42 44  0  0  0  0  0  0  0  0999 V2000
   -1.4940    4.1564    1.1246 N   0  0  0  0  0  0  0  0  0  0  0  0
   -2.1956    2.9598    1.0250 C   0  0  0  0  0  0  0  0  0  0  0  0
   -1.4056    1.9129    0.7482 C   0  0  0  0  0  0  0  0  0  0  0  0
   -1.5393    0.4734    0.5036 C   0  0  0  0  0  0  0  0  0  0  0  0
   -2.7888   -0.1085    0.5848 N   0  0  0  0  0  0  0  0  0  0  0  0
   -3.1975   -1.4477    0.3909 C   0  0  0  0  0  0  0  0  0  0  0  0
   -2.3234   -2.4901    0.0549 C   0  0  0  0  0  0  0  0  0  0  0  0
   -2.7908   -3.7979   -0.1214 C   0  0  0  0  0  0  0  0  0  0  0  0
   -4.1404   -4.0776    0.0375 C   0  0  0  0  0  0  0  0  0  0  0  0
   -4.5811   -5.3305   -0.1324 F   0  0  0  0  0  0  0  0  0  0  0  0
   -5.0390   -3.0772    0.3700 C   0  0  0  0  0  0  0  0  0  0  0  0
   -4.5670   -1.7756    0.5444 C   0  0  0  0  0  0  0  0  0  0  0  0
   -5.7176   -0.5457    0.9609 Cl  0  0  0  0  0  0  0  0  0  0  0  0
   -0.4492   -0.1759    0.2184 N   0  0  0  0  0  0  0  0  0  0  0  0
    0.7559    0.4839    0.1464 C   0  0  0  0  0  0  0  0  0  0  0  0
    1.7338   -0.2702   -0.2137 N   0  0  0  0  0  0  0  0  0  0  0  0
    3.0572    0.3379   -0.3184 C   0  0  0  0  0  0  0  0  0  0  0  0
    4.0581   -0.7241   -0.7773 C   0  0  0  0  0  0  0  0  0  0  0  0
    3.8032   -1.1872   -2.2136 C   0  0  0  0  0  0  0  0  0  0  0  0
    4.8367   -2.2102   -2.6586 C   0  0  0  0  0  0  0  0  0  0  0  0
    0.9847    1.8134    0.4187 N   0  0  0  0  0  0  0  0  0  0  0  0
   -0.0531    2.5104    0.7233 C   0  0  0  0  0  0  0  0  0  0  0  0
   -0.1365    3.8628    1.0555 N   0  0  0  0  0  0  0  0  0  0  0  0
    0.7695    4.8326    0.4696 C   0  0  0  0  0  0  0  0  0  0  0  0
   -1.7868    4.7422    1.9106 H   0  0  0  0  0  0  0  0  0  0  0  0
   -3.2657    2.9729    1.1714 H   0  0  0  0  0  0  0  0  0  0  0  0
   -3.5710    0.4973    0.8105 H   0  0  0  0  0  0  0  0  0  0  0  0
   -1.2589   -2.3195   -0.0802 H   0  0  0  0  0  0  0  0  0  0  0  0
   -2.1007   -4.5953   -0.3822 H   0  0  0  0  0  0  0  0  0  0  0  0
   -6.0894   -3.3200    0.4891 H   0  0  0  0  0  0  0  0  0  0  0  0
    3.3800    0.7137    0.6602 H   0  0  0  0  0  0  0  0  0  0  0  0
    3.0574    1.1708   -1.0321 H   0  0  0  0  0  0  0  0  0  0  0  0
    4.0199   -1.5861   -0.0999 H   0  0  0  0  0  0  0  0  0  0  0  0
    5.0690   -0.3041   -0.7089 H   0  0  0  0  0  0  0  0  0  0  0  0
    2.8049   -1.6314   -2.2977 H   0  0  0  0  0  0  0  0  0  0  0  0
    3.8340   -0.3272   -2.8926 H   0  0  0  0  0  0  0  0  0  0  0  0
    5.8465   -1.7890   -2.6228 H   0  0  0  0  0  0  0  0  0  0  0  0
    4.6375   -2.5275   -3.6869 H   0  0  0  0  0  0  0  0  0  0  0  0
    4.8111   -3.0976   -2.0181 H   0  0  0  0  0  0  0  0  0  0  0  0
    1.8104    4.5442    0.6479 H   0  0  0  0  0  0  0  0  0  0  0  0
    0.6077    4.9130   -0.6104 H   0  0  0  0  0  0  0  0  0  0  0  0
    0.6141    5.8186    0.9192 H   0  0  0  0  0  0  0  0  0  0  0  0
  1  2  1  0
  2  3  2  0
  3  4  1  0
  4  5  1  0
  5  6  1  0
  6  7  2  0
  7  8  1  0
  8  9  2  0
  9 10  1  0
  9 11  1  0
 11 12  2  0
 12 13  1  0
  4 14  2  0
 14 15  1  0
 15 16  2  3
 16 17  1  0
 17 18  1  0
 18 19  1  0
 19 20  1  0
 15 21  1  0
 21 22  2  0
 22 23  1  0
 23 24  1  0
 23  1  1  0
 22  3  1  0
 12  6  1  0
  1 25  1  0
  2 26  1  0
  5 27  1  0
  7 28  1  0
  8 29  1  0
 11 30  1  0
 17 31  1  0
 17 32  1  0
 18 33  1  0
 18 34  1  0
 19 35  1  0
 19 36  1  0
 20 37  1  0
 20 38  1  0
 20 39  1  0
 24 40  1  0
 24 41  1  0
 24 42  1  0
M  END
>  <ScrubInfo>  (7) 
{"isomerGroup": 0, "isomerId": 6, "confId": 0, "nr_conformers:": 1, "nr_isomers:": 9}

$$$$
_i7
     RDKit          3D

 42 44  0  0  0  0  0  0  0  0999 V2000
   -2.0651   -2.5155   -0.6833 N   0  0  0  0  0  0  0  0  0  0  0  0
   -2.3966   -1.2326   -0.2621 C   0  0  0  0  0  0  0  0  0  0  0  0
   -1.3369   -0.4964    0.1021 C   0  0  0  0  0  0  0  0  0  0  0  0
   -1.0130    0.8364    0.6483 C   0  0  0  0  0  0  0  0  0  0  0  0
   -1.8057    1.8318    0.9175 N   0  0  0  0  0  0  0  0  0  0  0  0
   -3.1831    1.7535    0.6666 C   0  0  0  0  0  0  0  0  0  0  0  0
   -4.0350    1.4187    1.7278 C   0  0  0  0  0  0  0  0  0  0  0  0
   -5.4166    1.3632    1.5386 C   0  0  0  0  0  0  0  0  0  0  0  0
   -5.9486    1.6584    0.2889 C   0  0  0  0  0  0  0  0  0  0  0  0
   -7.2742    1.6020    0.1090 F   0  0  0  0  0  0  0  0  0  0  0  0
   -5.1301    2.0120   -0.7758 C   0  0  0  0  0  0  0  0  0  0  0  0
   -3.7486    2.0666   -0.5850 C   0  0  0  0  0  0  0  0  0  0  0  0
   -2.7581    2.5076   -1.9310 Cl  0  0  0  0  0  0  0  0  0  0  0  0
    0.3253    0.9822    0.8916 N   0  0  0  0  0  0  0  0  0  0  0  0
    1.3175    0.0714    0.6648 C   0  0  0  0  0  0  0  0  0  0  0  0
    2.5289    0.3995    0.9704 N   0  0  0  0  0  0  0  0  0  0  0  0
    3.6067   -0.5620    0.7376 C   0  0  0  0  0  0  0  0  0  0  0  0
    4.1788   -0.4094   -0.6725 C   0  0  0  0  0  0  0  0  0  0  0  0
    4.7322    0.9817   -0.9970 C   0  0  0  0  0  0  0  0  0  0  0  0
    5.9007    1.3930   -0.1151 C   0  0  0  0  0  0  0  0  0  0  0  0
    1.0477   -1.1632    0.1157 N   0  0  0  0  0  0  0  0  0  0  0  0
   -0.1882   -1.4334   -0.1677 C   0  0  0  0  0  0  0  0  0  0  0  0
   -0.6824   -2.6064   -0.7422 N   0  0  0  0  0  0  0  0  0  0  0  0
   -0.0448   -3.8863   -0.4994 C   0  0  0  0  0  0  0  0  0  0  0  0
   -2.5699   -2.8108   -1.5227 H   0  0  0  0  0  0  0  0  0  0  0  0
   -3.4396   -0.9554   -0.2616 H   0  0  0  0  0  0  0  0  0  0  0  0
   -3.6140    1.2067    2.7079 H   0  0  0  0  0  0  0  0  0  0  0  0
   -6.0784    1.1015    2.3587 H   0  0  0  0  0  0  0  0  0  0  0  0
   -5.5752    2.2460   -1.7373 H   0  0  0  0  0  0  0  0  0  0  0  0
    0.6310    1.8680    1.2656 H   0  0  0  0  0  0  0  0  0  0  0  0
    3.2881   -1.5981    0.9050 H   0  0  0  0  0  0  0  0  0  0  0  0
    4.3894   -0.3830    1.4829 H   0  0  0  0  0  0  0  0  0  0  0  0
    3.4008   -0.6472   -1.4081 H   0  0  0  0  0  0  0  0  0  0  0  0
    4.9741   -1.1522   -0.8102 H   0  0  0  0  0  0  0  0  0  0  0  0
    3.9380    1.7333   -0.9240 H   0  0  0  0  0  0  0  0  0  0  0  0
    5.0675    0.9834   -2.0413 H   0  0  0  0  0  0  0  0  0  0  0  0
    6.3170    2.3439   -0.4631 H   0  0  0  0  0  0  0  0  0  0  0  0
    5.5898    1.5297    0.9247 H   0  0  0  0  0  0  0  0  0  0  0  0
    6.6981    0.6437   -0.1438 H   0  0  0  0  0  0  0  0  0  0  0  0
    1.0151   -3.8471   -0.7703 H   0  0  0  0  0  0  0  0  0  0  0  0
   -0.5152   -4.6673   -1.1057 H   0  0  0  0  0  0  0  0  0  0  0  0
   -0.1274   -4.1678    0.5555 H   0  0  0  0  0  0  0  0  0  0  0  0
  1  2  1  0
  2  3  2  0
  3  4  1  0
  4  5  2  3
  5  6  1  0
  6  7  2  0
  7  8  1  0
  8  9  2  0
  9 10  1  0
  9 11  1  0
 11 12  2  0
 12 13  1  0
  4 14  1  0
 14 15  1  0
 15 16  2  3
 16 17  1  0
 17 18  1  0
 18 19  1  0
 19 20  1  0
 15 21  1  0
 21 22  2  0
 22 23  1  0
 23 24  1  0
 23  1  1  0
 22  3  1  0
 12  6  1  0
  1 25  1  0
  2 26  1  0
  7 27  1  0
  8 28  1  0
 11 29  1  0
 14 30  1  0
 17 31  1  0
 17 32  1  0
 18 33  1  0
 18 34  1  0
 19 35  1  0
 19 36  1  0
 20 37  1  0
 20 38  1  0
 20 39  1  0
 24 40  1  0
 24 41  1  0
 24 42  1  0
M  END
>  <ScrubInfo>  (8) 
{"isomerGroup": 0, "isomerId": 7, "confId": 0, "nr_conformers:": 1, "nr_isomers:": 9}

$$$$
_i8
     RDKit          3D

 42 44  0  0  0  0  0  0  0  0999 V2000
    0.8110   -1.7496    0.3681 N   0  0  0  0  0  0  0  0  0  0  0  0
    0.5213   -0.4143    0.6054 C   0  0  0  0  0  0  0  0  0  0  0  0
    1.2848    0.4921    1.1126 N   0  0  0  0  0  0  0  0  0  0  0  0
    2.6386    0.1607    1.5440 C   0  0  0  0  0  0  0  0  0  0  0  0
    3.6249    0.2611    0.3802 C   0  0  0  0  0  0  0  0  0  0  0  0
    3.6896    1.6357   -0.2928 C   0  0  0  0  0  0  0  0  0  0  0  0
    4.1509    2.7475    0.6365 C   0  0  0  0  0  0  0  0  0  0  0  0
   -0.7556   -0.0467    0.2269 N   0  0  0  0  0  0  0  0  0  0  0  0
   -1.7810   -0.7782   -0.3386 C   0  0  0  0  0  0  0  0  0  0  0  0
   -2.9761   -0.4439   -0.6979 N   0  0  0  0  0  0  0  0  0  0  0  0
   -3.3912    0.8830   -0.4958 C   0  0  0  0  0  0  0  0  0  0  0  0
   -3.3487    1.7637   -1.5847 C   0  0  0  0  0  0  0  0  0  0  0  0
   -3.7674    3.0876   -1.4442 C   0  0  0  0  0  0  0  0  0  0  0  0
   -4.2402    3.5290   -0.2140 C   0  0  0  0  0  0  0  0  0  0  0  0
   -4.6409    4.7997   -0.0814 F   0  0  0  0  0  0  0  0  0  0  0  0
   -4.3063    2.6749    0.8790 C   0  0  0  0  0  0  0  0  0  0  0  0
   -3.8877    1.3513    0.7365 C   0  0  0  0  0  0  0  0  0  0  0  0
   -3.9826    0.3153    2.1167 Cl  0  0  0  0  0  0  0  0  0  0  0  0
   -1.3766   -2.1485   -0.5451 C   0  0  0  0  0  0  0  0  0  0  0  0
   -1.9878   -3.2953   -1.0722 C   0  0  0  0  0  0  0  0  0  0  0  0
   -1.1714   -4.3602   -1.0550 N   0  0  0  0  0  0  0  0  0  0  0  0
   -0.0310   -3.8864   -0.4966 N   0  0  0  0  0  0  0  0  0  0  0  0
    1.0808   -4.7852   -0.3163 C   0  0  0  0  0  0  0  0  0  0  0  0
   -0.1175   -2.5631   -0.1857 C   0  0  0  0  0  0  0  0  0  0  0  0
    1.7380   -2.0714    0.6081 H   0  0  0  0  0  0  0  0  0  0  0  0
    2.6901   -0.8351    1.9994 H   0  0  0  0  0  0  0  0  0  0  0  0
    2.9245    0.8542    2.3423 H   0  0  0  0  0  0  0  0  0  0  0  0
    4.6243   -0.0072    0.7438 H   0  0  0  0  0  0  0  0  0  0  0  0
    3.3630   -0.4807   -0.3840 H   0  0  0  0  0  0  0  0  0  0  0  0
    2.7139    1.8972   -0.7178 H   0  0  0  0  0  0  0  0  0  0  0  0
    4.3896    1.5737   -1.1349 H   0  0  0  0  0  0  0  0  0  0  0  0
    5.1104    2.4993    1.1009 H   0  0  0  0  0  0  0  0  0  0  0  0
    4.2775    3.6782    0.0742 H   0  0  0  0  0  0  0  0  0  0  0  0
    3.4205    2.9371    1.4284 H   0  0  0  0  0  0  0  0  0  0  0  0
   -0.9458    0.9255    0.4148 H   0  0  0  0  0  0  0  0  0  0  0  0
   -2.9921    1.4087   -2.5490 H   0  0  0  0  0  0  0  0  0  0  0  0
   -3.7345    3.7721   -2.2864 H   0  0  0  0  0  0  0  0  0  0  0  0
   -4.6862    3.0467    1.8251 H   0  0  0  0  0  0  0  0  0  0  0  0
   -2.9892   -3.4008   -1.4699 H   0  0  0  0  0  0  0  0  0  0  0  0
    0.7135   -5.7080    0.1405 H   0  0  0  0  0  0  0  0  0  0  0  0
    1.5155   -4.9913   -1.2974 H   0  0  0  0  0  0  0  0  0  0  0  0
    1.8270   -4.3282    0.3368 H   0  0  0  0  0  0  0  0  0  0  0  0
  1  2  1  0
  2  3  2  3
  3  4  1  0
  4  5  1  0
  5  6  1  0
  6  7  1  0
  2  8  1  0
  8  9  1  0
  9 10  2  3
 10 11  1  0
 11 12  2  0
 12 13  1  0
 13 14  2  0
 14 15  1  0
 14 16  1  0
 16 17  2  0
 17 18  1  0
  9 19  1  0
 19 20  1  0
 20 21  2  0
 21 22  1  0
 22 23  1  0
 22 24  1  0
 24  1  1  0
 17 11  1  0
 24 19  2  0
  1 25  1  0
  4 26  1  0
  4 27  1  0
  5 28  1  0
  5 29  1  0
  6 30  1  0
  6 31  1  0
  7 32  1  0
  7 33  1  0
  7 34  1  0
  8 35  1  0
 12 36  1  0
 13 37  1  0
 16 38  1  0
 20 39  1  0
 23 40  1  0
 23 41  1  0
 23 42  1  0
M  END
>  <ScrubInfo>  (9) 
{"isomerGroup": 0, "isomerId": 8, "confId": 0, "nr_conformers:": 1, "nr_isomers:": 9}

$$$$
