REMARK SMILES CCCCNc1nc(Nc2ccc(F)cc2Cl)c2cnn(C)c2n1
REMARK SMILES IDX 5 1 4 3 3 4 2 5 1 6 6 7 7 8 24 9 8 10 23 11 18 12 21 13
REMARK SMILES IDX 19 14 20 15 22 16 9 17 10 19 11 20 16 21 12 22 15 23 13 24
REMARK SMILES IDX 17 25 14 26
REMARK H PARENT 5 2 9 18
ROOT
ATOM      1  N   UNL     1       1.505   1.272  -2.346  1.00  0.00    -0.354 N 
ATOM      2  H   UNL     1       1.269   0.549  -3.017  1.00  0.00     0.163 HD
ENDROOT
BRANCH   1   3
ATOM      3  C   UNL     1       2.892   1.305  -1.917  1.00  0.00     0.116 C 
BRANCH   3   4
ATOM      4  C   UNL     1       3.346  -0.052  -1.371  1.00  0.00     0.021 C 
BRANCH   4   5
ATOM      5  C   UNL     1       4.827  -0.031  -0.996  1.00  0.00    -0.002 C 
ATOM      6  C   UNL     1       5.283  -1.376  -0.452  1.00  0.00     0.004 C 
ENDBRANCH   4   5
ENDBRANCH   3   4
ENDBRANCH   1   3
BRANCH   1   7
ATOM      7  C   UNL     1       0.539   1.229  -1.353  1.00  0.00     0.226 A 
ATOM      8  N   UNL     1      -0.560   0.522  -1.673  1.00  0.00    -0.195 NA
ATOM      9  N   UNL     1       0.751   1.855  -0.189  1.00  0.00    -0.193 NA
ATOM     10  C   UNL     1      -1.579   0.398  -0.785  1.00  0.00     0.147 A 
ATOM     11  C   UNL     1      -0.271   1.726   0.668  1.00  0.00     0.165 A 
ATOM     12  C   UNL     1      -1.446   1.030   0.453  1.00  0.00     0.082 A 
ATOM     13  N   UNL     1      -0.366   2.253   1.927  1.00  0.00    -0.250 N 
ATOM     14  C   UNL     1      -2.174   1.205   1.648  1.00  0.00     0.149 A 
ATOM     15  N   UNL     1      -1.524   1.946   2.555  1.00  0.00    -0.179 NA
ATOM     16  C   UNL     1       0.613   3.066   2.602  1.00  0.00     0.176 C 
BRANCH  10  17
ATOM     17  N   UNL     1      -2.682  -0.372  -1.220  1.00  0.00    -0.338 N 
ATOM     18  H   UNL     1      -2.290  -0.889  -2.011  1.00  0.00     0.168 HD
BRANCH  17  19
ATOM     19  C   UNL     1      -3.413  -1.248  -0.381  1.00  0.00     0.059 A 
ATOM     20  C   UNL     1      -4.657  -0.819   0.109  1.00  0.00     0.031 A 
ATOM     21  C   UNL     1      -2.925  -2.508   0.018  1.00  0.00     0.067 A 
ATOM     22  C   UNL     1      -5.397  -1.630   0.970  1.00  0.00     0.041 A 
ATOM     23  C   UNL     1      -3.664  -3.318   0.879  1.00  0.00     0.062 A 
ATOM     24  C   UNL     1      -4.892  -2.870   1.346  1.00  0.00     0.124 A 
ATOM     25  Cl  UNL     1      -1.408  -3.101  -0.561  1.00  0.00    -0.082 Cl
ATOM     26  F   UNL     1      -5.605  -3.646   2.172  1.00  0.00    -0.207 F 
ENDBRANCH  17  19
ENDBRANCH  10  17
ENDBRANCH   1   7
TORSDOF 6
