_i0
     RDKit          3D

 45 47  0  0  0  0  0  0  0  0999 V2000
   -6.0306   -1.0314   -1.3094 C   0  0  0  0  0  0  0  0  0  0  0  0
   -4.9203   -0.2455   -0.6276 C   0  0  0  0  0  0  0  0  0  0  0  0
   -4.8724   -0.5367    0.8718 C   0  0  0  0  0  0  0  0  0  0  0  0
   -3.8982    0.3503    1.6573 C   0  0  0  0  0  0  0  0  0  0  0  0
   -2.4190    0.1251    1.3289 C   0  0  0  0  0  0  0  0  0  0  0  0
   -2.0542    0.8338    0.1153 N   0  0  0  0  0  0  0  0  0  0  0  0
   -0.7092    0.7531   -0.2259 C   0  0  0  0  0  0  0  0  0  0  0  0
   -0.0233   -0.3761    0.0333 N   0  0  0  0  0  0  0  0  0  0  0  0
    1.2895   -0.4730   -0.2933 C   0  0  0  0  0  0  0  0  0  0  0  0
    1.9138   -1.7001    0.0290 N   0  0  0  0  0  0  0  0  0  0  0  0
    3.2315   -1.8029    0.5361 C   0  0  0  0  0  0  0  0  0  0  0  0
    4.2565   -2.1861   -0.3401 C   0  0  0  0  0  0  0  0  0  0  0  0
    5.5790   -2.2625    0.1023 C   0  0  0  0  0  0  0  0  0  0  0  0
    5.8851   -1.9514    1.4256 C   0  0  0  0  0  0  0  0  0  0  0  0
    7.5151   -2.0459    1.9674 Cl  0  0  0  0  0  0  0  0  0  0  0  0
    4.8837   -1.5667    2.3134 C   0  0  0  0  0  0  0  0  0  0  0  0
    3.5622   -1.4918    1.8688 C   0  0  0  0  0  0  0  0  0  0  0  0
    2.3445   -1.0290    3.0055 Cl  0  0  0  0  0  0  0  0  0  0  0  0
    1.8916    0.6287   -0.9051 C   0  0  0  0  0  0  0  0  0  0  0  0
    3.1477    1.0118   -1.4183 C   0  0  0  0  0  0  0  0  0  0  0  0
    3.1545    2.2545   -1.9151 N   0  0  0  0  0  0  0  0  0  0  0  0
    1.8816    2.6690   -1.7228 N   0  0  0  0  0  0  0  0  0  0  0  0
    1.4943    3.9896   -2.1504 C   0  0  0  0  0  0  0  0  0  0  0  0
    1.0880    1.7327   -1.1188 C   0  0  0  0  0  0  0  0  0  0  0  0
   -0.2087    1.8542   -0.7979 N   0  0  0  0  0  0  0  0  0  0  0  0
   -6.0425   -0.8167   -2.3826 H   0  0  0  0  0  0  0  0  0  0  0  0
   -5.8850   -2.1086   -1.1797 H   0  0  0  0  0  0  0  0  0  0  0  0
   -7.0098   -0.7645   -0.8993 H   0  0  0  0  0  0  0  0  0  0  0  0
   -3.9693   -0.5157   -1.0976 H   0  0  0  0  0  0  0  0  0  0  0  0
   -5.0822    0.8251   -0.7972 H   0  0  0  0  0  0  0  0  0  0  0  0
   -5.8743   -0.3891    1.2947 H   0  0  0  0  0  0  0  0  0  0  0  0
   -4.6189   -1.5917    1.0335 H   0  0  0  0  0  0  0  0  0  0  0  0
   -4.0414    0.1220    2.7213 H   0  0  0  0  0  0  0  0  0  0  0  0
   -4.1671    1.4056    1.5256 H   0  0  0  0  0  0  0  0  0  0  0  0
   -2.2251   -0.9508    1.2397 H   0  0  0  0  0  0  0  0  0  0  0  0
   -1.8204    0.5074    2.1658 H   0  0  0  0  0  0  0  0  0  0  0  0
   -2.2854    1.8212    0.1012 H   0  0  0  0  0  0  0  0  0  0  0  0
    1.2498   -2.1114    0.6897 H   0  0  0  0  0  0  0  0  0  0  0  0
    4.0213   -2.4306   -1.3743 H   0  0  0  0  0  0  0  0  0  0  0  0
    6.3621   -2.5642   -0.5892 H   0  0  0  0  0  0  0  0  0  0  0  0
    5.1300   -1.3278    3.3443 H   0  0  0  0  0  0  0  0  0  0  0  0
    4.0652    0.4413   -1.4545 H   0  0  0  0  0  0  0  0  0  0  0  0
    1.6587    4.0639   -3.2283 H   0  0  0  0  0  0  0  0  0  0  0  0
    0.4399    4.1631   -1.9242 H   0  0  0  0  0  0  0  0  0  0  0  0
    2.1118    4.7179   -1.6185 H   0  0  0  0  0  0  0  0  0  0  0  0
  1  2  1  0
  2  3  1  0
  3  4  1  0
  4  5  1  0
  5  6  1  0
  6  7  1  0
  7  8  2  0
  8  9  1  0
  9 10  1  0
 10 11  1  0
 11 12  2  0
 12 13  1  0
 13 14  2  0
 14 15  1  0
 14 16  1  0
 16 17  2  0
 17 18  1  0
  9 19  2  0
 19 20  1  0
 20 21  2  0
 21 22  1  0
 22 23  1  0
 22 24  1  0
 24 25  2  0
 25  7  1  0
 17 11  1  0
 24 19  1  0
  1 26  1  0
  1 27  1  0
  1 28  1  0
  2 29  1  0
  2 30  1  0
  3 31  1  0
  3 32  1  0
  4 33  1  0
  4 34  1  0
  5 35  1  0
  5 36  1  0
  6 37  1  0
 10 38  1  0
 12 39  1  0
 13 40  1  0
 16 41  1  0
 20 42  1  0
 23 43  1  0
 23 44  1  0
 23 45  1  0
M  END
>  <ScrubInfo>  (1) 
{"isomerGroup": 0, "isomerId": 0, "confId": 0, "nr_conformers:": 1, "nr_isomers:": 9}

$$$$
_i1
     RDKit          3D

 45 47  0  0  0  0  0  0  0  0999 V2000
   -0.4260   -0.5658   -0.6087 N   0  0  0  0  0  0  0  0  0  0  0  0
   -1.7079   -0.1561   -0.9082 C   0  0  0  0  0  0  0  0  0  0  0  0
   -2.6107   -1.0188   -1.4943 N   0  0  0  0  0  0  0  0  0  0  0  0
   -3.8749   -1.4233   -0.9918 C   0  0  0  0  0  0  0  0  0  0  0  0
   -4.4121   -0.9263    0.2050 C   0  0  0  0  0  0  0  0  0  0  0  0
   -5.6906   -1.3034    0.6322 C   0  0  0  0  0  0  0  0  0  0  0  0
   -6.4544   -2.1762   -0.1378 C   0  0  0  0  0  0  0  0  0  0  0  0
   -8.0244   -2.6337    0.3940 Cl  0  0  0  0  0  0  0  0  0  0  0  0
   -5.9546   -2.6808   -1.3323 C   0  0  0  0  0  0  0  0  0  0  0  0
   -4.6780   -2.3023   -1.7541 C   0  0  0  0  0  0  0  0  0  0  0  0
   -4.0898   -2.9584   -3.2456 Cl  0  0  0  0  0  0  0  0  0  0  0  0
   -1.9604    1.1359   -0.6654 C   0  0  0  0  0  0  0  0  0  0  0  0
   -3.0593    2.0853   -0.8698 C   0  0  0  0  0  0  0  0  0  0  0  0
   -2.7739    3.2944   -0.4557 N   0  0  0  0  0  0  0  0  0  0  0  0
   -1.4788    3.2102    0.0852 N   0  0  0  0  0  0  0  0  0  0  0  0
   -0.7430    4.4299    0.3181 C   0  0  0  0  0  0  0  0  0  0  0  0
   -0.8939    1.9620   -0.0595 C   0  0  0  0  0  0  0  0  0  0  0  0
    0.2948    1.5557    0.2336 N   0  0  0  0  0  0  0  0  0  0  0  0
    0.5391    0.2285   -0.0436 C   0  0  0  0  0  0  0  0  0  0  0  0
    1.6856   -0.3015    0.2293 N   0  0  0  0  0  0  0  0  0  0  0  0
    2.6936    0.5728    0.8315 C   0  0  0  0  0  0  0  0  0  0  0  0
    3.9789   -0.2277    1.0546 C   0  0  0  0  0  0  0  0  0  0  0  0
    4.6600   -0.6168   -0.2618 C   0  0  0  0  0  0  0  0  0  0  0  0
    5.9106   -1.4770   -0.0646 C   0  0  0  0  0  0  0  0  0  0  0  0
    7.0456   -0.7487    0.6385 C   0  0  0  0  0  0  0  0  0  0  0  0
   -0.1794   -1.5363   -0.7258 H   0  0  0  0  0  0  0  0  0  0  0  0
   -2.1723   -1.7764   -2.0166 H   0  0  0  0  0  0  0  0  0  0  0  0
   -3.8429   -0.2576    0.8454 H   0  0  0  0  0  0  0  0  0  0  0  0
   -6.0807   -0.9117    1.5692 H   0  0  0  0  0  0  0  0  0  0  0  0
   -6.5526   -3.3615   -1.9320 H   0  0  0  0  0  0  0  0  0  0  0  0
   -3.9980    1.7759   -1.3468 H   0  0  0  0  0  0  0  0  0  0  0  0
   -0.2687    4.7715   -0.6071 H   0  0  0  0  0  0  0  0  0  0  0  0
    0.0346    4.2781    1.0735 H   0  0  0  0  0  0  0  0  0  0  0  0
   -1.4086    5.2207    0.6790 H   0  0  0  0  0  0  0  0  0  0  0  0
    2.3425    0.9376    1.8046 H   0  0  0  0  0  0  0  0  0  0  0  0
    2.9077    1.4349    0.1881 H   0  0  0  0  0  0  0  0  0  0  0  0
    3.7561   -1.1306    1.6361 H   0  0  0  0  0  0  0  0  0  0  0  0
    4.6609    0.3856    1.6538 H   0  0  0  0  0  0  0  0  0  0  0  0
    3.9565   -1.1822   -0.8847 H   0  0  0  0  0  0  0  0  0  0  0  0
    4.9218    0.2880   -0.8238 H   0  0  0  0  0  0  0  0  0  0  0  0
    5.6555   -2.3835    0.4966 H   0  0  0  0  0  0  0  0  0  0  0  0
    6.2652   -1.8036   -1.0495 H   0  0  0  0  0  0  0  0  0  0  0  0
    7.9401   -1.3796    0.6596 H   0  0  0  0  0  0  0  0  0  0  0  0
    6.7877   -0.5071    1.6737 H   0  0  0  0  0  0  0  0  0  0  0  0
    7.2989    0.1803    0.1180 H   0  0  0  0  0  0  0  0  0  0  0  0
  1  2  1  0
  2  3  1  0
  3  4  1  0
  4  5  2  0
  5  6  1  0
  6  7  2  0
  7  8  1  0
  7  9  1  0
  9 10  2  0
 10 11  1  0
  2 12  2  0
 12 13  1  0
 13 14  2  0
 14 15  1  0
 15 16  1  0
 15 17  1  0
 17 18  2  0
 18 19  1  0
 19 20  2  3
 20 21  1  0
 21 22  1  0
 22 23  1  0
 23 24  1  0
 24 25  1  0
 19  1  1  0
 10  4  1  0
 17 12  1  0
  1 26  1  0
  3 27  1  0
  5 28  1  0
  6 29  1  0
  9 30  1  0
 13 31  1  0
 16 32  1  0
 16 33  1  0
 16 34  1  0
 21 35  1  0
 21 36  1  0
 22 37  1  0
 22 38  1  0
 23 39  1  0
 23 40  1  0
 24 41  1  0
 24 42  1  0
 25 43  1  0
 25 44  1  0
 25 45  1  0
M  END
>  <ScrubInfo>  (2) 
{"isomerGroup": 0, "isomerId": 1, "confId": 0, "nr_conformers:": 1, "nr_isomers:": 9}

$$$$
_i2
     RDKit          3D

 45 47  0  0  0  0  0  0  0  0999 V2000
   -1.0802   -0.3029   -0.2575 N   0  0  0  0  0  0  0  0  0  0  0  0
    0.0375   -0.9476   -0.7483 C   0  0  0  0  0  0  0  0  0  0  0  0
    0.8447   -0.1145   -1.4772 N   0  0  0  0  0  0  0  0  0  0  0  0
    2.1293   -0.5543   -2.0028 C   0  0  0  0  0  0  0  0  0  0  0  0
    3.2112   -0.5992   -0.9215 C   0  0  0  0  0  0  0  0  0  0  0  0
    3.4870    0.7302   -0.2092 C   0  0  0  0  0  0  0  0  0  0  0  0
    3.9600    1.8399   -1.1483 C   0  0  0  0  0  0  0  0  0  0  0  0
    4.3352    3.0961   -0.3769 C   0  0  0  0  0  0  0  0  0  0  0  0
    0.2975   -2.2151   -0.5503 N   0  0  0  0  0  0  0  0  0  0  0  0
   -0.6618   -2.8152    0.2071 C   0  0  0  0  0  0  0  0  0  0  0  0
   -1.8070   -2.2519    0.7325 C   0  0  0  0  0  0  0  0  0  0  0  0
   -2.4482   -3.2898    1.4222 C   0  0  0  0  0  0  0  0  0  0  0  0
   -1.7640   -4.4400    1.3567 N   0  0  0  0  0  0  0  0  0  0  0  0
   -0.6814   -4.1238    0.6022 N   0  0  0  0  0  0  0  0  0  0  0  0
    0.2938   -5.1418    0.3044 C   0  0  0  0  0  0  0  0  0  0  0  0
   -2.0963   -0.8623    0.4900 C   0  0  0  0  0  0  0  0  0  0  0  0
   -3.1888   -0.3682    0.9687 N   0  0  0  0  0  0  0  0  0  0  0  0
   -3.4759    0.9876    0.7416 C   0  0  0  0  0  0  0  0  0  0  0  0
   -3.2330    1.8948    1.7799 C   0  0  0  0  0  0  0  0  0  0  0  0
   -3.5194    3.2530    1.6232 C   0  0  0  0  0  0  0  0  0  0  0  0
   -4.0631    3.7106    0.4250 C   0  0  0  0  0  0  0  0  0  0  0  0
   -4.4099    5.3839    0.2308 Cl  0  0  0  0  0  0  0  0  0  0  0  0
   -4.3265    2.8250   -0.6167 C   0  0  0  0  0  0  0  0  0  0  0  0
   -4.0391    1.4671   -0.4556 C   0  0  0  0  0  0  0  0  0  0  0  0
   -4.3730    0.4053   -1.7775 Cl  0  0  0  0  0  0  0  0  0  0  0  0
   -1.2589    0.6157   -0.6225 H   0  0  0  0  0  0  0  0  0  0  0  0
    0.8439    0.8574   -1.1964 H   0  0  0  0  0  0  0  0  0  0  0  0
    2.0291   -1.5433   -2.4659 H   0  0  0  0  0  0  0  0  0  0  0  0
    2.4269    0.1251   -2.8084 H   0  0  0  0  0  0  0  0  0  0  0  0
    4.1426   -0.9557   -1.3788 H   0  0  0  0  0  0  0  0  0  0  0  0
    2.9389   -1.3418   -0.1616 H   0  0  0  0  0  0  0  0  0  0  0  0
    4.2579    0.5522    0.5513 H   0  0  0  0  0  0  0  0  0  0  0  0
    2.5918    1.0586    0.3320 H   0  0  0  0  0  0  0  0  0  0  0  0
    4.8285    1.4978   -1.7227 H   0  0  0  0  0  0  0  0  0  0  0  0
    3.1722    2.0935   -1.8656 H   0  0  0  0  0  0  0  0  0  0  0  0
    5.1494    2.8964    0.3269 H   0  0  0  0  0  0  0  0  0  0  0  0
    3.4791    3.4800    0.1871 H   0  0  0  0  0  0  0  0  0  0  0  0
    4.6668    3.8791   -1.0661 H   0  0  0  0  0  0  0  0  0  0  0  0
   -3.3814   -3.2586    1.9692 H   0  0  0  0  0  0  0  0  0  0  0  0
    0.6947   -5.5205    1.2480 H   0  0  0  0  0  0  0  0  0  0  0  0
    1.1024   -4.7233   -0.2989 H   0  0  0  0  0  0  0  0  0  0  0  0
   -0.2037   -5.9429   -0.2481 H   0  0  0  0  0  0  0  0  0  0  0  0
   -2.8255    1.5340    2.7221 H   0  0  0  0  0  0  0  0  0  0  0  0
   -3.3250    3.9422    2.4415 H   0  0  0  0  0  0  0  0  0  0  0  0
   -4.7585    3.1870   -1.5459 H   0  0  0  0  0  0  0  0  0  0  0  0
  1  2  1  0
  2  3  1  0
  3  4  1  0
  4  5  1  0
  5  6  1  0
  6  7  1  0
  7  8  1  0
  2  9  2  0
  9 10  1  0
 10 11  2  0
 11 12  1  0
 12 13  2  0
 13 14  1  0
 14 15  1  0
 11 16  1  0
 16 17  2  3
 17 18  1  0
 18 19  2  0
 19 20  1  0
 20 21  2  0
 21 22  1  0
 21 23  1  0
 23 24  2  0
 24 25  1  0
 16  1  1  0
 24 18  1  0
 14 10  1  0
  1 26  1  0
  3 27  1  0
  4 28  1  0
  4 29  1  0
  5 30  1  0
  5 31  1  0
  6 32  1  0
  6 33  1  0
  7 34  1  0
  7 35  1  0
  8 36  1  0
  8 37  1  0
  8 38  1  0
 12 39  1  0
 15 40  1  0
 15 41  1  0
 15 42  1  0
 19 43  1  0
 20 44  1  0
 23 45  1  0
M  END
>  <ScrubInfo>  (3) 
{"isomerGroup": 0, "isomerId": 2, "confId": 0, "nr_conformers:": 1, "nr_isomers:": 9}

$$$$
_i3
     RDKit          3D

 45 47  0  0  0  0  0  0  0  0999 V2000
    0.9130    2.2521   -0.4373 N   0  0  0  0  0  0  0  0  0  0  0  0
    0.8294    1.0769    0.2740 C   0  0  0  0  0  0  0  0  0  0  0  0
    1.9301    0.5523    0.7016 N   0  0  0  0  0  0  0  0  0  0  0  0
    1.8737   -0.6893    1.4713 C   0  0  0  0  0  0  0  0  0  0  0  0
    1.8610   -1.9156    0.5571 C   0  0  0  0  0  0  0  0  0  0  0  0
    3.2230   -2.2832   -0.0438 C   0  0  0  0  0  0  0  0  0  0  0  0
    3.7516   -1.2749   -1.0634 C   0  0  0  0  0  0  0  0  0  0  0  0
    5.0028   -1.7928   -1.7574 C   0  0  0  0  0  0  0  0  0  0  0  0
   -0.3869    0.4631    0.5225 N   0  0  0  0  0  0  0  0  0  0  0  0
   -1.4908    0.9926    0.0787 C   0  0  0  0  0  0  0  0  0  0  0  0
   -2.7705    0.5222    0.2327 N   0  0  0  0  0  0  0  0  0  0  0  0
   -3.2328   -0.6579    0.8568 C   0  0  0  0  0  0  0  0  0  0  0  0
   -2.3848   -1.6472    1.3687 C   0  0  0  0  0  0  0  0  0  0  0  0
   -2.8982   -2.7970    1.9823 C   0  0  0  0  0  0  0  0  0  0  0  0
   -4.2736   -2.9743    2.0927 C   0  0  0  0  0  0  0  0  0  0  0  0
   -4.8966   -4.3885    2.8470 Cl  0  0  0  0  0  0  0  0  0  0  0  0
   -5.1457   -2.0148    1.5946 C   0  0  0  0  0  0  0  0  0  0  0  0
   -4.6253   -0.8712    0.9839 C   0  0  0  0  0  0  0  0  0  0  0  0
   -5.7463    0.3025    0.3728 Cl  0  0  0  0  0  0  0  0  0  0  0  0
   -1.4385    2.2337   -0.6761 C   0  0  0  0  0  0  0  0  0  0  0  0
   -2.3373    3.1069   -1.3131 C   0  0  0  0  0  0  0  0  0  0  0  0
   -1.7200    4.1510   -1.8868 N   0  0  0  0  0  0  0  0  0  0  0  0
   -0.4080    3.9420   -1.6160 N   0  0  0  0  0  0  0  0  0  0  0  0
    0.5684    4.8880   -2.0928 C   0  0  0  0  0  0  0  0  0  0  0  0
   -0.2158    2.8068   -0.8972 C   0  0  0  0  0  0  0  0  0  0  0  0
    1.8525    2.6049   -0.5609 H   0  0  0  0  0  0  0  0  0  0  0  0
    2.7493   -0.7257    2.1300 H   0  0  0  0  0  0  0  0  0  0  0  0
    1.0066   -0.7094    2.1426 H   0  0  0  0  0  0  0  0  0  0  0  0
    1.5301   -2.7725    1.1577 H   0  0  0  0  0  0  0  0  0  0  0  0
    1.1246   -1.7963   -0.2462 H   0  0  0  0  0  0  0  0  0  0  0  0
    3.9571   -2.4144    0.7605 H   0  0  0  0  0  0  0  0  0  0  0  0
    3.1191   -3.2602   -0.5329 H   0  0  0  0  0  0  0  0  0  0  0  0
    2.9841   -1.0649   -1.8170 H   0  0  0  0  0  0  0  0  0  0  0  0
    3.9990   -0.3296   -0.5703 H   0  0  0  0  0  0  0  0  0  0  0  0
    5.7996   -1.9900   -1.0332 H   0  0  0  0  0  0  0  0  0  0  0  0
    5.3712   -1.0534   -2.4755 H   0  0  0  0  0  0  0  0  0  0  0  0
    4.7950   -2.7197   -2.3016 H   0  0  0  0  0  0  0  0  0  0  0  0
   -3.5349    1.0940   -0.1084 H   0  0  0  0  0  0  0  0  0  0  0  0
   -1.3052   -1.5568    1.2994 H   0  0  0  0  0  0  0  0  0  0  0  0
   -2.2120   -3.5470    2.3691 H   0  0  0  0  0  0  0  0  0  0  0  0
   -6.2196   -2.1536    1.6798 H   0  0  0  0  0  0  0  0  0  0  0  0
   -3.4143    3.0437   -1.3948 H   0  0  0  0  0  0  0  0  0  0  0  0
    1.5691    4.5787   -1.7842 H   0  0  0  0  0  0  0  0  0  0  0  0
    0.3358    5.8673   -1.6670 H   0  0  0  0  0  0  0  0  0  0  0  0
    0.5108    4.9216   -3.1837 H   0  0  0  0  0  0  0  0  0  0  0  0
  1  2  1  0
  2  3  2  3
  3  4  1  0
  4  5  1  0
  5  6  1  0
  6  7  1  0
  7  8  1  0
  2  9  1  0
  9 10  2  0
 10 11  1  0
 11 12  1  0
 12 13  2  0
 13 14  1  0
 14 15  2  0
 15 16  1  0
 15 17  1  0
 17 18  2  0
 18 19  1  0
 10 20  1  0
 20 21  1  0
 21 22  2  0
 22 23  1  0
 23 24  1  0
 23 25  1  0
 25  1  1  0
 18 12  1  0
 25 20  2  0
  1 26  1  0
  4 27  1  0
  4 28  1  0
  5 29  1  0
  5 30  1  0
  6 31  1  0
  6 32  1  0
  7 33  1  0
  7 34  1  0
  8 35  1  0
  8 36  1  0
  8 37  1  0
 11 38  1  0
 13 39  1  0
 14 40  1  0
 17 41  1  0
 21 42  1  0
 24 43  1  0
 24 44  1  0
 24 45  1  0
M  END
>  <ScrubInfo>  (4) 
{"isomerGroup": 0, "isomerId": 3, "confId": 0, "nr_conformers:": 1, "nr_isomers:": 9}

$$$$
_i4
     RDKit          3D

 45 47  0  0  0  0  0  0  0  0999 V2000
   -3.0313   -4.5172   -1.2654 N   0  0  0  0  0  0  0  0  0  0  0  0
   -3.5147   -3.2785   -0.8552 C   0  0  0  0  0  0  0  0  0  0  0  0
   -2.5380   -2.3970   -0.6067 C   0  0  0  0  0  0  0  0  0  0  0  0
   -2.4257   -1.0317   -0.1519 C   0  0  0  0  0  0  0  0  0  0  0  0
   -3.4611   -0.2882    0.0878 N   0  0  0  0  0  0  0  0  0  0  0  0
   -3.2353    1.0369    0.5054 C   0  0  0  0  0  0  0  0  0  0  0  0
   -3.3032    1.3256    1.8742 C   0  0  0  0  0  0  0  0  0  0  0  0
   -3.0940    2.6255    2.3406 C   0  0  0  0  0  0  0  0  0  0  0  0
   -2.8256    3.6490    1.4343 C   0  0  0  0  0  0  0  0  0  0  0  0
   -2.5639    5.2494    2.0098 Cl  0  0  0  0  0  0  0  0  0  0  0  0
   -2.7708    3.3897    0.0673 C   0  0  0  0  0  0  0  0  0  0  0  0
   -2.9802    2.0878   -0.3951 C   0  0  0  0  0  0  0  0  0  0  0  0
   -2.9191    1.8143   -2.1027 Cl  0  0  0  0  0  0  0  0  0  0  0  0
   -1.1389   -0.5948    0.0120 N   0  0  0  0  0  0  0  0  0  0  0  0
   -0.1072   -1.3336   -0.2690 C   0  0  0  0  0  0  0  0  0  0  0  0
    1.1581   -0.8508   -0.0916 N   0  0  0  0  0  0  0  0  0  0  0  0
    1.4348    0.5703   -0.0364 C   0  0  0  0  0  0  0  0  0  0  0  0
    2.9148    0.7960    0.2727 C   0  0  0  0  0  0  0  0  0  0  0  0
    3.2430    2.2884    0.3487 C   0  0  0  0  0  0  0  0  0  0  0  0
    4.6897    2.5712    0.7588 C   0  0  0  0  0  0  0  0  0  0  0  0
    5.7135    2.1047   -0.2646 C   0  0  0  0  0  0  0  0  0  0  0  0
   -0.1527   -2.6129   -0.7615 N   0  0  0  0  0  0  0  0  0  0  0  0
   -1.3154   -3.1372   -0.9406 C   0  0  0  0  0  0  0  0  0  0  0  0
   -1.6521   -4.4001   -1.4322 N   0  0  0  0  0  0  0  0  0  0  0  0
   -0.8119   -5.5513   -1.1642 C   0  0  0  0  0  0  0  0  0  0  0  0
   -3.5471   -4.9065   -2.0582 H   0  0  0  0  0  0  0  0  0  0  0  0
   -4.5806   -3.1170   -0.7757 H   0  0  0  0  0  0  0  0  0  0  0  0
   -3.5122    0.5246    2.5788 H   0  0  0  0  0  0  0  0  0  0  0  0
   -3.1416    2.8284    3.4072 H   0  0  0  0  0  0  0  0  0  0  0  0
   -2.5694    4.1933   -0.6348 H   0  0  0  0  0  0  0  0  0  0  0  0
    1.8397   -1.4149   -0.5842 H   0  0  0  0  0  0  0  0  0  0  0  0
    0.8240    1.0436    0.7414 H   0  0  0  0  0  0  0  0  0  0  0  0
    1.1783    1.0327   -0.9967 H   0  0  0  0  0  0  0  0  0  0  0  0
    3.1701    0.3110    1.2232 H   0  0  0  0  0  0  0  0  0  0  0  0
    3.5224    0.3145   -0.5025 H   0  0  0  0  0  0  0  0  0  0  0  0
    2.5804    2.7643    1.0823 H   0  0  0  0  0  0  0  0  0  0  0  0
    3.0355    2.7628   -0.6183 H   0  0  0  0  0  0  0  0  0  0  0  0
    4.8056    3.6526    0.8984 H   0  0  0  0  0  0  0  0  0  0  0  0
    4.9018    2.1025    1.7268 H   0  0  0  0  0  0  0  0  0  0  0  0
    6.7171    2.4208    0.0377 H   0  0  0  0  0  0  0  0  0  0  0  0
    5.7236    1.0146   -0.3543 H   0  0  0  0  0  0  0  0  0  0  0  0
    5.5066    2.5322   -1.2508 H   0  0  0  0  0  0  0  0  0  0  0  0
   -0.7950   -5.7802   -0.0935 H   0  0  0  0  0  0  0  0  0  0  0  0
    0.2136   -5.3660   -1.4993 H   0  0  0  0  0  0  0  0  0  0  0  0
   -1.1857   -6.4287   -1.7019 H   0  0  0  0  0  0  0  0  0  0  0  0
  1  2  1  0
  2  3  2  0
  3  4  1  0
  4  5  2  3
  5  6  1  0
  6  7  2  0
  7  8  1  0
  8  9  2  0
  9 10  1  0
  9 11  1  0
 11 12  2  0
 12 13  1  0
  4 14  1  0
 14 15  2  0
 15 16  1  0
 16 17  1  0
 17 18  1  0
 18 19  1  0
 19 20  1  0
 20 21  1  0
 15 22  1  0
 22 23  2  0
 23 24  1  0
 24 25  1  0
 24  1  1  0
 23  3  1  0
 12  6  1  0
  1 26  1  0
  2 27  1  0
  7 28  1  0
  8 29  1  0
 11 30  1  0
 16 31  1  0
 17 32  1  0
 17 33  1  0
 18 34  1  0
 18 35  1  0
 19 36  1  0
 19 37  1  0
 20 38  1  0
 20 39  1  0
 21 40  1  0
 21 41  1  0
 21 42  1  0
 25 43  1  0
 25 44  1  0
 25 45  1  0
M  END
>  <ScrubInfo>  (5) 
{"isomerGroup": 0, "isomerId": 4, "confId": 0, "nr_conformers:": 1, "nr_isomers:": 9}

$$$$
_i5
     RDKit          3D

 45 47  0  0  0  0  0  0  0  0999 V2000
    0.1759   -2.0798   -0.2399 N   0  0  0  0  0  0  0  0  0  0  0  0
   -0.3881   -0.8250   -0.2134 C   0  0  0  0  0  0  0  0  0  0  0  0
   -1.7467   -0.8801   -0.3816 N   0  0  0  0  0  0  0  0  0  0  0  0
   -2.5194    0.3545   -0.4686 C   0  0  0  0  0  0  0  0  0  0  0  0
   -4.0103    0.0219   -0.5134 C   0  0  0  0  0  0  0  0  0  0  0  0
   -4.8618    1.2895   -0.5918 C   0  0  0  0  0  0  0  0  0  0  0  0
   -6.3527    0.9560   -0.6373 C   0  0  0  0  0  0  0  0  0  0  0  0
   -7.2028    2.2141   -0.7152 C   0  0  0  0  0  0  0  0  0  0  0  0
    0.2669    0.2857   -0.0396 N   0  0  0  0  0  0  0  0  0  0  0  0
    1.6470    0.2679    0.1064 C   0  0  0  0  0  0  0  0  0  0  0  0
    2.2244    1.4255    0.1732 N   0  0  0  0  0  0  0  0  0  0  0  0
    3.6108    1.5771    0.2781 C   0  0  0  0  0  0  0  0  0  0  0  0
    4.1576    1.8286    1.5427 C   0  0  0  0  0  0  0  0  0  0  0  0
    5.5308    2.0309    1.6987 C   0  0  0  0  0  0  0  0  0  0  0  0
    6.3648    1.9992    0.5829 C   0  0  0  0  0  0  0  0  0  0  0  0
    8.0560    2.2477    0.7766 Cl  0  0  0  0  0  0  0  0  0  0  0  0
    5.8409    1.7730   -0.6873 C   0  0  0  0  0  0  0  0  0  0  0  0
    4.4666    1.5717   -0.8395 C   0  0  0  0  0  0  0  0  0  0  0  0
    3.8574    1.3012   -2.4349 Cl  0  0  0  0  0  0  0  0  0  0  0  0
    2.2750   -1.0407    0.1746 C   0  0  0  0  0  0  0  0  0  0  0  0
    3.5535   -1.5737    0.4174 C   0  0  0  0  0  0  0  0  0  0  0  0
    3.5748   -2.9157    0.3874 N   0  0  0  0  0  0  0  0  0  0  0  0
    2.2927   -3.2505    0.1185 N   0  0  0  0  0  0  0  0  0  0  0  0
    1.9409   -4.6428    0.0043 C   0  0  0  0  0  0  0  0  0  0  0  0
    1.4976   -2.1568   -0.0065 C   0  0  0  0  0  0  0  0  0  0  0  0
   -0.4515   -2.8667   -0.1451 H   0  0  0  0  0  0  0  0  0  0  0  0
   -2.0322   -1.5595   -1.0765 H   0  0  0  0  0  0  0  0  0  0  0  0
   -2.3123    0.9873    0.4024 H   0  0  0  0  0  0  0  0  0  0  0  0
   -2.2309    0.9068   -1.3705 H   0  0  0  0  0  0  0  0  0  0  0  0
   -4.2202   -0.6183   -1.3796 H   0  0  0  0  0  0  0  0  0  0  0  0
   -4.2854   -0.5552    0.3785 H   0  0  0  0  0  0  0  0  0  0  0  0
   -4.6542    1.9260    0.2770 H   0  0  0  0  0  0  0  0  0  0  0  0
   -4.5860    1.8626   -1.4854 H   0  0  0  0  0  0  0  0  0  0  0  0
   -6.5665    0.3232   -1.5066 H   0  0  0  0  0  0  0  0  0  0  0  0
   -6.6345    0.3864    0.2559 H   0  0  0  0  0  0  0  0  0  0  0  0
   -8.2651    1.9523   -0.7468 H   0  0  0  0  0  0  0  0  0  0  0  0
   -7.0365    2.8546    0.1568 H   0  0  0  0  0  0  0  0  0  0  0  0
   -6.9682    2.7910   -1.6154 H   0  0  0  0  0  0  0  0  0  0  0  0
    3.5022    1.8723    2.4100 H   0  0  0  0  0  0  0  0  0  0  0  0
    5.9382    2.2203    2.6887 H   0  0  0  0  0  0  0  0  0  0  0  0
    6.4953    1.7584   -1.5545 H   0  0  0  0  0  0  0  0  0  0  0  0
    4.4825   -1.0634    0.6283 H   0  0  0  0  0  0  0  0  0  0  0  0
    2.6559   -5.1298   -0.6639 H   0  0  0  0  0  0  0  0  0  0  0  0
    0.9337   -4.7390   -0.4067 H   0  0  0  0  0  0  0  0  0  0  0  0
    1.9840   -5.0889    1.0009 H   0  0  0  0  0  0  0  0  0  0  0  0
  1  2  1  0
  2  3  1  0
  3  4  1  0
  4  5  1  0
  5  6  1  0
  6  7  1  0
  7  8  1  0
  2  9  2  0
  9 10  1  0
 10 11  2  3
 11 12  1  0
 12 13  2  0
 13 14  1  0
 14 15  2  0
 15 16  1  0
 15 17  1  0
 17 18  2  0
 18 19  1  0
 10 20  1  0
 20 21  1  0
 21 22  2  0
 22 23  1  0
 23 24  1  0
 23 25  1  0
 25  1  1  0
 18 12  1  0
 25 20  2  0
  1 26  1  0
  3 27  1  0
  4 28  1  0
  4 29  1  0
  5 30  1  0
  5 31  1  0
  6 32  1  0
  6 33  1  0
  7 34  1  0
  7 35  1  0
  8 36  1  0
  8 37  1  0
  8 38  1  0
 13 39  1  0
 14 40  1  0
 17 41  1  0
 21 42  1  0
 24 43  1  0
 24 44  1  0
 24 45  1  0
M  END
>  <ScrubInfo>  (6) 
{"isomerGroup": 0, "isomerId": 5, "confId": 0, "nr_conformers:": 1, "nr_isomers:": 9}

$$$$
_i6
     RDKit          3D

 45 47  0  0  0  0  0  0  0  0999 V2000
   -2.9526    4.5297   -1.0402 N   0  0  0  0  0  0  0  0  0  0  0  0
   -3.3528    3.2822   -0.5745 C   0  0  0  0  0  0  0  0  0  0  0  0
   -2.3392    2.4098   -0.4891 C   0  0  0  0  0  0  0  0  0  0  0  0
   -2.1167    1.0273   -0.0671 C   0  0  0  0  0  0  0  0  0  0  0  0
   -3.1911    0.2424    0.3280 N   0  0  0  0  0  0  0  0  0  0  0  0
   -3.0489   -1.1192    0.6819 C   0  0  0  0  0  0  0  0  0  0  0  0
   -3.5926   -2.0947   -0.1699 C   0  0  0  0  0  0  0  0  0  0  0  0
   -3.4066   -3.4552    0.0905 C   0  0  0  0  0  0  0  0  0  0  0  0
   -2.6689   -3.8539    1.2025 C   0  0  0  0  0  0  0  0  0  0  0  0
   -2.4435   -5.5299    1.5183 Cl  0  0  0  0  0  0  0  0  0  0  0  0
   -2.1192   -2.9082    2.0619 C   0  0  0  0  0  0  0  0  0  0  0  0
   -2.3056   -1.5475    1.8019 C   0  0  0  0  0  0  0  0  0  0  0  0
   -1.6779   -0.4234    2.9604 Cl  0  0  0  0  0  0  0  0  0  0  0  0
   -0.8933    0.5794   -0.1010 N   0  0  0  0  0  0  0  0  0  0  0  0
    0.1302    1.4121   -0.5013 C   0  0  0  0  0  0  0  0  0  0  0  0
    1.3463    0.9968   -0.4361 N   0  0  0  0  0  0  0  0  0  0  0  0
    1.5689   -0.3508    0.0832 C   0  0  0  0  0  0  0  0  0  0  0  0
    3.0729   -0.6267    0.0631 C   0  0  0  0  0  0  0  0  0  0  0  0
    3.3871   -2.0261    0.5950 C   0  0  0  0  0  0  0  0  0  0  0  0
    4.8864   -2.3145    0.6944 C   0  0  0  0  0  0  0  0  0  0  0  0
    5.5875   -2.3566   -0.6545 C   0  0  0  0  0  0  0  0  0  0  0  0
    0.0033    2.6888   -0.9954 N   0  0  0  0  0  0  0  0  0  0  0  0
   -1.1851    3.1804   -0.9982 C   0  0  0  0  0  0  0  0  0  0  0  0
   -1.6193    4.4356   -1.4263 N   0  0  0  0  0  0  0  0  0  0  0  0
   -0.7597    5.5980   -1.2977 C   0  0  0  0  0  0  0  0  0  0  0  0
   -3.5901    4.9457   -1.7229 H   0  0  0  0  0  0  0  0  0  0  0  0
   -4.3923    3.1279   -0.3260 H   0  0  0  0  0  0  0  0  0  0  0  0
   -4.0701    0.4518   -0.1281 H   0  0  0  0  0  0  0  0  0  0  0  0
   -4.1446   -1.8038   -1.0604 H   0  0  0  0  0  0  0  0  0  0  0  0
   -3.8284   -4.1964   -0.5839 H   0  0  0  0  0  0  0  0  0  0  0  0
   -1.5532   -3.2253    2.9335 H   0  0  0  0  0  0  0  0  0  0  0  0
    1.2019   -0.4336    1.1134 H   0  0  0  0  0  0  0  0  0  0  0  0
    1.0582   -1.0964   -0.5386 H   0  0  0  0  0  0  0  0  0  0  0  0
    3.5918    0.1267    0.6687 H   0  0  0  0  0  0  0  0  0  0  0  0
    3.4429   -0.5180   -0.9631 H   0  0  0  0  0  0  0  0  0  0  0  0
    2.9505   -2.1357    1.5955 H   0  0  0  0  0  0  0  0  0  0  0  0
    2.9091   -2.7803   -0.0420 H   0  0  0  0  0  0  0  0  0  0  0  0
    5.0210   -3.2851    1.1867 H   0  0  0  0  0  0  0  0  0  0  0  0
    5.3691   -1.5659    1.3334 H   0  0  0  0  0  0  0  0  0  0  0  0
    6.6311   -2.6616   -0.5257 H   0  0  0  0  0  0  0  0  0  0  0  0
    5.5876   -1.3753   -1.1378 H   0  0  0  0  0  0  0  0  0  0  0  0
    5.1056   -3.0741   -1.3260 H   0  0  0  0  0  0  0  0  0  0  0  0
   -0.5679    5.8255   -0.2439 H   0  0  0  0  0  0  0  0  0  0  0  0
    0.1977    5.4269   -1.8001 H   0  0  0  0  0  0  0  0  0  0  0  0
   -1.2294    6.4711   -1.7623 H   0  0  0  0  0  0  0  0  0  0  0  0
  1  2  1  0
  2  3  2  0
  3  4  1  0
  4  5  1  0
  5  6  1  0
  6  7  2  0
  7  8  1  0
  8  9  2  0
  9 10  1  0
  9 11  1  0
 11 12  2  0
 12 13  1  0
  4 14  2  0
 14 15  1  0
 15 16  2  3
 16 17  1  0
 17 18  1  0
 18 19  1  0
 19 20  1  0
 20 21  1  0
 15 22  1  0
 22 23  2  0
 23 24  1  0
 24 25  1  0
 24  1  1  0
 23  3  1  0
 12  6  1  0
  1 26  1  0
  2 27  1  0
  5 28  1  0
  7 29  1  0
  8 30  1  0
 11 31  1  0
 17 32  1  0
 17 33  1  0
 18 34  1  0
 18 35  1  0
 19 36  1  0
 19 37  1  0
 20 38  1  0
 20 39  1  0
 21 40  1  0
 21 41  1  0
 21 42  1  0
 25 43  1  0
 25 44  1  0
 25 45  1  0
M  END
>  <ScrubInfo>  (7) 
{"isomerGroup": 0, "isomerId": 6, "confId": 0, "nr_conformers:": 1, "nr_isomers:": 9}

$$$$
_i7
     RDKit          3D

 45 47  0  0  0  0  0  0  0  0999 V2000
   -3.2057   -4.5906   -0.5505 N   0  0  0  0  0  0  0  0  0  0  0  0
   -3.6080   -3.2770   -0.3345 C   0  0  0  0  0  0  0  0  0  0  0  0
   -2.5829   -2.4172   -0.3038 C   0  0  0  0  0  0  0  0  0  0  0  0
   -2.3692   -0.9860   -0.0874 C   0  0  0  0  0  0  0  0  0  0  0  0
   -3.3969   -0.2150    0.1137 N   0  0  0  0  0  0  0  0  0  0  0  0
   -3.1992    1.1617    0.3136 C   0  0  0  0  0  0  0  0  0  0  0  0
   -3.1999    1.6475    1.6264 C   0  0  0  0  0  0  0  0  0  0  0  0
   -3.0236    3.0093    1.8826 C   0  0  0  0  0  0  0  0  0  0  0  0
   -2.8559    3.8965    0.8214 C   0  0  0  0  0  0  0  0  0  0  0  0
   -2.6347    5.5722    1.1389 Cl  0  0  0  0  0  0  0  0  0  0  0  0
   -2.8656    3.4379   -0.4934 C   0  0  0  0  0  0  0  0  0  0  0  0
   -3.0428    2.0753   -0.7454 C   0  0  0  0  0  0  0  0  0  0  0  0
   -3.0404    1.5458   -2.3907 Cl  0  0  0  0  0  0  0  0  0  0  0  0
   -1.0387   -0.6426   -0.1194 N   0  0  0  0  0  0  0  0  0  0  0  0
    0.0218   -1.4952   -0.3317 C   0  0  0  0  0  0  0  0  0  0  0  0
    1.2656   -1.1677   -0.3356 N   0  0  0  0  0  0  0  0  0  0  0  0
    1.6502    0.2174   -0.1030 C   0  0  0  0  0  0  0  0  0  0  0  0
    3.1742    0.3080   -0.1624 C   0  0  0  0  0  0  0  0  0  0  0  0
    3.6578    1.7391    0.0729 C   0  0  0  0  0  0  0  0  0  0  0  0
    5.1825    1.8278    0.0129 C   0  0  0  0  0  0  0  0  0  0  0  0
    5.6673    3.2497    0.2464 C   0  0  0  0  0  0  0  0  0  0  0  0
   -0.1793   -2.8399   -0.5726 N   0  0  0  0  0  0  0  0  0  0  0  0
   -1.3966   -3.2816   -0.5809 C   0  0  0  0  0  0  0  0  0  0  0  0
   -1.8391   -4.5844   -0.8230 N   0  0  0  0  0  0  0  0  0  0  0  0
   -1.0340   -5.7287   -0.4422 C   0  0  0  0  0  0  0  0  0  0  0  0
   -3.7932   -5.0860   -1.2252 H   0  0  0  0  0  0  0  0  0  0  0  0
   -4.6581   -3.0511   -0.2143 H   0  0  0  0  0  0  0  0  0  0  0  0
   -3.3470    0.9570    2.4542 H   0  0  0  0  0  0  0  0  0  0  0  0
   -3.0267    3.3693    2.9087 H   0  0  0  0  0  0  0  0  0  0  0  0
   -2.7412    4.1359   -1.3170 H   0  0  0  0  0  0  0  0  0  0  0  0
   -0.8104    0.3245    0.0259 H   0  0  0  0  0  0  0  0  0  0  0  0
    1.3044    0.5522    0.8823 H   0  0  0  0  0  0  0  0  0  0  0  0
    1.2173    0.8704   -0.8702 H   0  0  0  0  0  0  0  0  0  0  0  0
    3.6111   -0.3605    0.5901 H   0  0  0  0  0  0  0  0  0  0  0  0
    3.5250   -0.0469   -1.1397 H   0  0  0  0  0  0  0  0  0  0  0  0
    3.3076    2.0891    1.0516 H   0  0  0  0  0  0  0  0  0  0  0  0
    3.2212    2.4035   -0.6828 H   0  0  0  0  0  0  0  0  0  0  0  0
    5.6240    1.1686    0.7694 H   0  0  0  0  0  0  0  0  0  0  0  0
    5.5375    1.4829   -0.9652 H   0  0  0  0  0  0  0  0  0  0  0  0
    5.3561    3.6137    1.2308 H   0  0  0  0  0  0  0  0  0  0  0  0
    6.7600    3.2901    0.1993 H   0  0  0  0  0  0  0  0  0  0  0  0
    5.2691    3.9298   -0.5133 H   0  0  0  0  0  0  0  0  0  0  0  0
   -0.9297   -5.7856    0.6464 H   0  0  0  0  0  0  0  0  0  0  0  0
   -0.0360   -5.6641   -0.8875 H   0  0  0  0  0  0  0  0  0  0  0  0
   -1.4978   -6.6552   -0.7959 H   0  0  0  0  0  0  0  0  0  0  0  0
  1  2  1  0
  2  3  2  0
  3  4  1  0
  4  5  2  3
  5  6  1  0
  6  7  2  0
  7  8  1  0
  8  9  2  0
  9 10  1  0
  9 11  1  0
 11 12  2  0
 12 13  1  0
  4 14  1  0
 14 15  1  0
 15 16  2  3
 16 17  1  0
 17 18  1  0
 18 19  1  0
 19 20  1  0
 20 21  1  0
 15 22  1  0
 22 23  2  0
 23 24  1  0
 24 25  1  0
 24  1  1  0
 23  3  1  0
 12  6  1  0
  1 26  1  0
  2 27  1  0
  7 28  1  0
  8 29  1  0
 11 30  1  0
 14 31  1  0
 17 32  1  0
 17 33  1  0
 18 34  1  0
 18 35  1  0
 19 36  1  0
 19 37  1  0
 20 38  1  0
 20 39  1  0
 21 40  1  0
 21 41  1  0
 21 42  1  0
 25 43  1  0
 25 44  1  0
 25 45  1  0
M  END
>  <ScrubInfo>  (8) 
{"isomerGroup": 0, "isomerId": 7, "confId": 0, "nr_conformers:": 1, "nr_isomers:": 9}

$$$$
_i8
     RDKit          3D

 45 47  0  0  0  0  0  0  0  0999 V2000
    0.5984    1.7056   -1.2151 N   0  0  0  0  0  0  0  0  0  0  0  0
    0.4416    0.4376   -0.6894 C   0  0  0  0  0  0  0  0  0  0  0  0
    1.4918   -0.2995   -0.5542 N   0  0  0  0  0  0  0  0  0  0  0  0
    1.3443   -1.6353    0.0124 C   0  0  0  0  0  0  0  0  0  0  0  0
    2.7198   -2.2924    0.1403 C   0  0  0  0  0  0  0  0  0  0  0  0
    3.5198   -1.8572    1.3748 C   0  0  0  0  0  0  0  0  0  0  0  0
    3.9501   -0.3903    1.4276 C   0  0  0  0  0  0  0  0  0  0  0  0
    4.8632    0.0175    0.2820 C   0  0  0  0  0  0  0  0  0  0  0  0
   -0.8702    0.1235   -0.3702 N   0  0  0  0  0  0  0  0  0  0  0  0
   -2.0254    0.8792   -0.4814 C   0  0  0  0  0  0  0  0  0  0  0  0
   -3.2539    0.6043   -0.1893 N   0  0  0  0  0  0  0  0  0  0  0  0
   -3.5589   -0.6568    0.3488 C   0  0  0  0  0  0  0  0  0  0  0  0
   -4.1114   -1.6204   -0.5032 C   0  0  0  0  0  0  0  0  0  0  0  0
   -4.4530   -2.8867   -0.0223 C   0  0  0  0  0  0  0  0  0  0  0  0
   -4.2526   -3.1927    1.3220 C   0  0  0  0  0  0  0  0  0  0  0  0
   -4.6690   -4.7536    1.9118 Cl  0  0  0  0  0  0  0  0  0  0  0  0
   -3.7175   -2.2458    2.1914 C   0  0  0  0  0  0  0  0  0  0  0  0
   -3.3777   -0.9803    1.7066 C   0  0  0  0  0  0  0  0  0  0  0  0
   -2.7085    0.1613    2.8184 Cl  0  0  0  0  0  0  0  0  0  0  0  0
   -1.7425    2.1841   -1.0302 C   0  0  0  0  0  0  0  0  0  0  0  0
   -2.5055    3.3179   -1.3455 C   0  0  0  0  0  0  0  0  0  0  0  0
   -1.7573    4.3105   -1.8516 N   0  0  0  0  0  0  0  0  0  0  0  0
   -0.4997    3.8027   -1.8500 N   0  0  0  0  0  0  0  0  0  0  0  0
    0.5829    4.6221   -2.3323 C   0  0  0  0  0  0  0  0  0  0  0  0
   -0.4579    2.5306   -1.3675 C   0  0  0  0  0  0  0  0  0  0  0  0
    1.5555    1.9468   -1.4444 H   0  0  0  0  0  0  0  0  0  0  0  0
    0.8546   -1.6030    0.9928 H   0  0  0  0  0  0  0  0  0  0  0  0
    0.7318   -2.2478   -0.6603 H   0  0  0  0  0  0  0  0  0  0  0  0
    2.5636   -3.3755    0.2256 H   0  0  0  0  0  0  0  0  0  0  0  0
    3.3071   -2.1374   -0.7719 H   0  0  0  0  0  0  0  0  0  0  0  0
    2.9308   -2.0780    2.2738 H   0  0  0  0  0  0  0  0  0  0  0  0
    4.4173   -2.4858    1.4380 H   0  0  0  0  0  0  0  0  0  0  0  0
    3.0756    0.2676    1.4591 H   0  0  0  0  0  0  0  0  0  0  0  0
    4.4872   -0.2263    2.3700 H   0  0  0  0  0  0  0  0  0  0  0  0
    5.7445   -0.6298    0.2338 H   0  0  0  0  0  0  0  0  0  0  0  0
    5.2075    1.0468    0.4251 H   0  0  0  0  0  0  0  0  0  0  0  0
    4.3489   -0.0280   -0.6820 H   0  0  0  0  0  0  0  0  0  0  0  0
   -1.0065   -0.7944    0.0162 H   0  0  0  0  0  0  0  0  0  0  0  0
   -4.2838   -1.3760   -1.5494 H   0  0  0  0  0  0  0  0  0  0  0  0
   -4.8813   -3.6224   -0.6990 H   0  0  0  0  0  0  0  0  0  0  0  0
   -3.5708   -2.4883    3.2406 H   0  0  0  0  0  0  0  0  0  0  0  0
   -3.5718    3.4644   -1.2299 H   0  0  0  0  0  0  0  0  0  0  0  0
    0.6339    5.5229   -1.7156 H   0  0  0  0  0  0  0  0  0  0  0  0
    0.3794    4.8829   -3.3740 H   0  0  0  0  0  0  0  0  0  0  0  0
    1.5255    4.0751   -2.2659 H   0  0  0  0  0  0  0  0  0  0  0  0
  1  2  1  0
  2  3  2  3
  3  4  1  0
  4  5  1  0
  5  6  1  0
  6  7  1  0
  7  8  1  0
  2  9  1  0
  9 10  1  0
 10 11  2  3
 11 12  1  0
 12 13  2  0
 13 14  1  0
 14 15  2  0
 15 16  1  0
 15 17  1  0
 17 18  2  0
 18 19  1  0
 10 20  1  0
 20 21  1  0
 21 22  2  0
 22 23  1  0
 23 24  1  0
 23 25  1  0
 25  1  1  0
 18 12  1  0
 25 20  2  0
  1 26  1  0
  4 27  1  0
  4 28  1  0
  5 29  1  0
  5 30  1  0
  6 31  1  0
  6 32  1  0
  7 33  1  0
  7 34  1  0
  8 35  1  0
  8 36  1  0
  8 37  1  0
  9 38  1  0
 13 39  1  0
 14 40  1  0
 17 41  1  0
 21 42  1  0
 24 43  1  0
 24 44  1  0
 24 45  1  0
M  END
>  <ScrubInfo>  (9) 
{"isomerGroup": 0, "isomerId": 8, "confId": 0, "nr_conformers:": 1, "nr_isomers:": 9}

$$$$
