_i0
     RDKit          3D

 51 53  0  0  0  0  0  0  0  0999 V2000
    7.1152    1.3456   -0.3690 C   0  0  0  0  0  0  0  0  0  0  0  0
    6.3374    0.3253   -1.1851 C   0  0  0  0  0  0  0  0  0  0  0  0
    5.5073   -0.6361   -0.3313 C   0  0  0  0  0  0  0  0  0  0  0  0
    4.4416    0.0135    0.5567 C   0  0  0  0  0  0  0  0  0  0  0  0
    3.3951    0.8044   -0.2319 C   0  0  0  0  0  0  0  0  0  0  0  0
    2.3602    1.3083    0.6555 N   0  0  0  0  0  0  0  0  0  0  0  0
    1.2198    0.5233    0.7749 C   0  0  0  0  0  0  0  0  0  0  0  0
    0.0805    1.2221    0.9389 N   0  0  0  0  0  0  0  0  0  0  0  0
   -1.1039    0.5732    1.0771 C   0  0  0  0  0  0  0  0  0  0  0  0
   -2.2495    1.3693    1.2563 N   0  0  0  0  0  0  0  0  0  0  0  0
   -3.5293    1.0867    0.7324 C   0  0  0  0  0  0  0  0  0  0  0  0
   -4.5950    1.0070    1.6399 C   0  0  0  0  0  0  0  0  0  0  0  0
   -5.8951    0.7497    1.2037 C   0  0  0  0  0  0  0  0  0  0  0  0
   -6.1607    0.5942   -0.1574 C   0  0  0  0  0  0  0  0  0  0  0  0
   -7.5473    0.2734   -0.6314 C   0  0  0  0  0  0  0  0  0  0  0  0
   -5.1035    0.6926   -1.0709 C   0  0  0  0  0  0  0  0  0  0  0  0
   -3.7907    0.9670   -0.6453 C   0  0  0  0  0  0  0  0  0  0  0  0
   -2.7092    1.0859   -1.6842 C   0  0  0  0  0  0  0  0  0  0  0  0
   -1.0915   -0.8225    1.0458 C   0  0  0  0  0  0  0  0  0  0  0  0
   -2.0008   -1.8953    1.1494 C   0  0  0  0  0  0  0  0  0  0  0  0
   -1.4092   -3.0917    1.0391 N   0  0  0  0  0  0  0  0  0  0  0  0
   -0.1041   -2.7748    0.8731 N   0  0  0  0  0  0  0  0  0  0  0  0
    0.8687   -3.8282    0.7308 C   0  0  0  0  0  0  0  0  0  0  0  0
    0.1351   -1.4282    0.8642 C   0  0  0  0  0  0  0  0  0  0  0  0
    1.3160   -0.8114    0.7149 N   0  0  0  0  0  0  0  0  0  0  0  0
    6.4461    2.0408    0.1465 H   0  0  0  0  0  0  0  0  0  0  0  0
    7.7464    0.8533    0.3775 H   0  0  0  0  0  0  0  0  0  0  0  0
    7.7636    1.9354   -1.0249 H   0  0  0  0  0  0  0  0  0  0  0  0
    5.6981    0.8441   -1.9076 H   0  0  0  0  0  0  0  0  0  0  0  0
    7.0500   -0.2657   -1.7734 H   0  0  0  0  0  0  0  0  0  0  0  0
    5.0204   -1.3596   -0.9972 H   0  0  0  0  0  0  0  0  0  0  0  0
    6.1843   -1.2154    0.3090 H   0  0  0  0  0  0  0  0  0  0  0  0
    4.9150    0.6659    1.3004 H   0  0  0  0  0  0  0  0  0  0  0  0
    3.9539   -0.7832    1.1313 H   0  0  0  0  0  0  0  0  0  0  0  0
    2.9800    0.2099   -1.0558 H   0  0  0  0  0  0  0  0  0  0  0  0
    3.8794    1.6722   -0.6939 H   0  0  0  0  0  0  0  0  0  0  0  0
    2.0269    2.2430    0.4453 H   0  0  0  0  0  0  0  0  0  0  0  0
   -1.9675    2.3242    1.0460 H   0  0  0  0  0  0  0  0  0  0  0  0
   -4.4053    1.1280    2.7043 H   0  0  0  0  0  0  0  0  0  0  0  0
   -6.6956    0.6708    1.9355 H   0  0  0  0  0  0  0  0  0  0  0  0
   -7.6845   -0.8112   -0.6791 H   0  0  0  0  0  0  0  0  0  0  0  0
   -8.2993    0.6956    0.0435 H   0  0  0  0  0  0  0  0  0  0  0  0
   -7.7281    0.6981   -1.6244 H   0  0  0  0  0  0  0  0  0  0  0  0
   -5.3066    0.5625   -2.1330 H   0  0  0  0  0  0  0  0  0  0  0  0
   -2.1404    0.1537   -1.7488 H   0  0  0  0  0  0  0  0  0  0  0  0
   -2.0325    1.9148   -1.4540 H   0  0  0  0  0  0  0  0  0  0  0  0
   -3.1328    1.2941   -2.6729 H   0  0  0  0  0  0  0  0  0  0  0  0
   -3.0723   -1.8535    1.2983 H   0  0  0  0  0  0  0  0  0  0  0  0
    1.8671   -3.4027    0.6065 H   0  0  0  0  0  0  0  0  0  0  0  0
    0.8395   -4.4471    1.6311 H   0  0  0  0  0  0  0  0  0  0  0  0
    0.6070   -4.4212   -0.1493 H   0  0  0  0  0  0  0  0  0  0  0  0
  1  2  1  0
  2  3  1  0
  3  4  1  0
  4  5  1  0
  5  6  1  0
  6  7  1  0
  7  8  2  0
  8  9  1  0
  9 10  1  0
 10 11  1  0
 11 12  2  0
 12 13  1  0
 13 14  2  0
 14 15  1  0
 14 16  1  0
 16 17  2  0
 17 18  1  0
  9 19  2  0
 19 20  1  0
 20 21  2  0
 21 22  1  0
 22 23  1  0
 22 24  1  0
 24 25  2  0
 25  7  1  0
 17 11  1  0
 24 19  1  0
  1 26  1  0
  1 27  1  0
  1 28  1  0
  2 29  1  0
  2 30  1  0
  3 31  1  0
  3 32  1  0
  4 33  1  0
  4 34  1  0
  5 35  1  0
  5 36  1  0
  6 37  1  0
 10 38  1  0
 12 39  1  0
 13 40  1  0
 15 41  1  0
 15 42  1  0
 15 43  1  0
 16 44  1  0
 18 45  1  0
 18 46  1  0
 18 47  1  0
 20 48  1  0
 23 49  1  0
 23 50  1  0
 23 51  1  0
M  END
>  <ScrubInfo>  (1) 
{"isomerGroup": 0, "isomerId": 0, "confId": 0, "nr_conformers:": 1, "nr_isomers:": 9}

$$$$
_i1
     RDKit          3D

 51 53  0  0  0  0  0  0  0  0999 V2000
   -0.0168   -0.3863   -0.1555 N   0  0  0  0  0  0  0  0  0  0  0  0
   -1.0001   -1.3519   -0.0590 C   0  0  0  0  0  0  0  0  0  0  0  0
   -2.2926   -1.0661    0.3402 N   0  0  0  0  0  0  0  0  0  0  0  0
   -3.0300    0.1255    0.1586 C   0  0  0  0  0  0  0  0  0  0  0  0
   -2.6958    1.0662   -0.8269 C   0  0  0  0  0  0  0  0  0  0  0  0
   -3.4176    2.2539   -0.9744 C   0  0  0  0  0  0  0  0  0  0  0  0
   -4.5000    2.5307   -0.1398 C   0  0  0  0  0  0  0  0  0  0  0  0
   -5.2563    3.8189   -0.2736 C   0  0  0  0  0  0  0  0  0  0  0  0
   -4.8313    1.6126    0.8618 C   0  0  0  0  0  0  0  0  0  0  0  0
   -4.1084    0.4160    1.0225 C   0  0  0  0  0  0  0  0  0  0  0  0
   -4.5051   -0.5250    2.1290 C   0  0  0  0  0  0  0  0  0  0  0  0
   -0.5891   -2.5950   -0.3385 C   0  0  0  0  0  0  0  0  0  0  0  0
   -1.1670   -3.9406   -0.4217 C   0  0  0  0  0  0  0  0  0  0  0  0
   -0.3047   -4.8493   -0.8009 N   0  0  0  0  0  0  0  0  0  0  0  0
    0.9140   -4.1673   -0.9466 N   0  0  0  0  0  0  0  0  0  0  0  0
    2.0045   -4.8167   -1.6322 C   0  0  0  0  0  0  0  0  0  0  0  0
    0.8233   -2.8015   -0.7314 C   0  0  0  0  0  0  0  0  0  0  0  0
    1.7185   -1.8794   -0.8365 N   0  0  0  0  0  0  0  0  0  0  0  0
    1.2869   -0.6130   -0.5095 C   0  0  0  0  0  0  0  0  0  0  0  0
    2.1059    0.3847   -0.5148 N   0  0  0  0  0  0  0  0  0  0  0  0
    3.5001    0.1565   -0.8916 C   0  0  0  0  0  0  0  0  0  0  0  0
    4.3411   -0.2117    0.3285 C   0  0  0  0  0  0  0  0  0  0  0  0
    4.3276    0.8015    1.4804 C   0  0  0  0  0  0  0  0  0  0  0  0
    4.9362    2.1660    1.1442 C   0  0  0  0  0  0  0  0  0  0  0  0
    3.9022    3.2088    0.7455 C   0  0  0  0  0  0  0  0  0  0  0  0
   -0.2433    0.5426    0.1691 H   0  0  0  0  0  0  0  0  0  0  0  0
   -2.8858   -1.8646    0.5362 H   0  0  0  0  0  0  0  0  0  0  0  0
   -1.8848    0.8763   -1.5257 H   0  0  0  0  0  0  0  0  0  0  0  0
   -3.1286    2.9564   -1.7532 H   0  0  0  0  0  0  0  0  0  0  0  0
   -6.3042    3.6881    0.0161 H   0  0  0  0  0  0  0  0  0  0  0  0
   -5.2483    4.1715   -1.3104 H   0  0  0  0  0  0  0  0  0  0  0  0
   -4.8054    4.5855    0.3640 H   0  0  0  0  0  0  0  0  0  0  0  0
   -5.6603    1.8353    1.5319 H   0  0  0  0  0  0  0  0  0  0  0  0
   -3.6471   -0.7395    2.7744 H   0  0  0  0  0  0  0  0  0  0  0  0
   -4.8905   -1.4597    1.7096 H   0  0  0  0  0  0  0  0  0  0  0  0
   -5.2889   -0.0959    2.7624 H   0  0  0  0  0  0  0  0  0  0  0  0
   -2.2275   -4.1185   -0.2032 H   0  0  0  0  0  0  0  0  0  0  0  0
    1.9087   -4.6808   -2.7139 H   0  0  0  0  0  0  0  0  0  0  0  0
    2.9672   -4.4046   -1.3130 H   0  0  0  0  0  0  0  0  0  0  0  0
    2.0137   -5.8902   -1.4174 H   0  0  0  0  0  0  0  0  0  0  0  0
    3.8889    1.0701   -1.3530 H   0  0  0  0  0  0  0  0  0  0  0  0
    3.6038   -0.6136   -1.6658 H   0  0  0  0  0  0  0  0  0  0  0  0
    5.3773   -0.3689    0.0041 H   0  0  0  0  0  0  0  0  0  0  0  0
    3.9952   -1.1746    0.7246 H   0  0  0  0  0  0  0  0  0  0  0  0
    3.3140    0.9142    1.8824 H   0  0  0  0  0  0  0  0  0  0  0  0
    4.9256    0.3631    2.2903 H   0  0  0  0  0  0  0  0  0  0  0  0
    5.6976    2.0726    0.3617 H   0  0  0  0  0  0  0  0  0  0  0  0
    5.4507    2.5416    2.0376 H   0  0  0  0  0  0  0  0  0  0  0  0
    3.3811    2.9400   -0.1756 H   0  0  0  0  0  0  0  0  0  0  0  0
    4.3899    4.1751    0.5810 H   0  0  0  0  0  0  0  0  0  0  0  0
    3.1555    3.3409    1.5353 H   0  0  0  0  0  0  0  0  0  0  0  0
  1  2  1  0
  2  3  1  0
  3  4  1  0
  4  5  2  0
  5  6  1  0
  6  7  2  0
  7  8  1  0
  7  9  1  0
  9 10  2  0
 10 11  1  0
  2 12  2  0
 12 13  1  0
 13 14  2  0
 14 15  1  0
 15 16  1  0
 15 17  1  0
 17 18  2  0
 18 19  1  0
 19 20  2  3
 20 21  1  0
 21 22  1  0
 22 23  1  0
 23 24  1  0
 24 25  1  0
 19  1  1  0
 10  4  1  0
 17 12  1  0
  1 26  1  0
  3 27  1  0
  5 28  1  0
  6 29  1  0
  8 30  1  0
  8 31  1  0
  8 32  1  0
  9 33  1  0
 11 34  1  0
 11 35  1  0
 11 36  1  0
 13 37  1  0
 16 38  1  0
 16 39  1  0
 16 40  1  0
 21 41  1  0
 21 42  1  0
 22 43  1  0
 22 44  1  0
 23 45  1  0
 23 46  1  0
 24 47  1  0
 24 48  1  0
 25 49  1  0
 25 50  1  0
 25 51  1  0
M  END
>  <ScrubInfo>  (2) 
{"isomerGroup": 0, "isomerId": 1, "confId": 0, "nr_conformers:": 1, "nr_isomers:": 9}

$$$$
_i2
     RDKit          3D

 51 53  0  0  0  0  0  0  0  0999 V2000
    0.5961   -0.8976    1.0298 N   0  0  0  0  0  0  0  0  0  0  0  0
    1.2975   -1.9089    0.4254 C   0  0  0  0  0  0  0  0  0  0  0  0
    2.4720   -2.2796    1.0166 N   0  0  0  0  0  0  0  0  0  0  0  0
    3.4656   -1.3424    1.5183 C   0  0  0  0  0  0  0  0  0  0  0  0
    4.1048   -0.5596    0.3704 C   0  0  0  0  0  0  0  0  0  0  0  0
    5.1861    0.3928    0.8846 C   0  0  0  0  0  0  0  0  0  0  0  0
    5.9261    1.1298   -0.2336 C   0  0  0  0  0  0  0  0  0  0  0  0
    5.0440    2.0916   -1.0147 C   0  0  0  0  0  0  0  0  0  0  0  0
    0.9025   -2.5272   -0.6594 N   0  0  0  0  0  0  0  0  0  0  0  0
   -0.2783   -2.0242   -1.1198 C   0  0  0  0  0  0  0  0  0  0  0  0
   -1.0543   -1.0088   -0.5803 C   0  0  0  0  0  0  0  0  0  0  0  0
   -2.1477   -0.9036   -1.4582 C   0  0  0  0  0  0  0  0  0  0  0  0
   -2.0820   -1.7726   -2.4755 N   0  0  0  0  0  0  0  0  0  0  0  0
   -0.9335   -2.4470   -2.2419 N   0  0  0  0  0  0  0  0  0  0  0  0
   -0.5304   -3.4892   -3.1518 C   0  0  0  0  0  0  0  0  0  0  0  0
   -0.6101   -0.3640    0.6402 C   0  0  0  0  0  0  0  0  0  0  0  0
   -1.1947    0.5659    1.3325 N   0  0  0  0  0  0  0  0  0  0  0  0
   -2.4242    1.1114    0.9485 C   0  0  0  0  0  0  0  0  0  0  0  0
   -2.4368    2.2518    0.1381 C   0  0  0  0  0  0  0  0  0  0  0  0
   -3.6421    2.8356   -0.2550 C   0  0  0  0  0  0  0  0  0  0  0  0
   -4.8581    2.2872    0.1613 C   0  0  0  0  0  0  0  0  0  0  0  0
   -6.1560    2.9255   -0.2367 C   0  0  0  0  0  0  0  0  0  0  0  0
   -4.8477    1.1705    1.0078 C   0  0  0  0  0  0  0  0  0  0  0  0
   -3.6391    0.5823    1.4167 C   0  0  0  0  0  0  0  0  0  0  0  0
   -3.6617   -0.6187    2.3194 C   0  0  0  0  0  0  0  0  0  0  0  0
    0.9056   -0.5885    1.9353 H   0  0  0  0  0  0  0  0  0  0  0  0
    2.8977   -3.0239    0.4676 H   0  0  0  0  0  0  0  0  0  0  0  0
    4.2356   -1.9158    2.0471 H   0  0  0  0  0  0  0  0  0  0  0  0
    3.0237   -0.6611    2.2532 H   0  0  0  0  0  0  0  0  0  0  0  0
    4.5408   -1.2587   -0.3542 H   0  0  0  0  0  0  0  0  0  0  0  0
    3.3306    0.0056   -0.1608 H   0  0  0  0  0  0  0  0  0  0  0  0
    4.7405    1.1214    1.5728 H   0  0  0  0  0  0  0  0  0  0  0  0
    5.9221   -0.1792    1.4631 H   0  0  0  0  0  0  0  0  0  0  0  0
    6.7507    1.6986    0.2126 H   0  0  0  0  0  0  0  0  0  0  0  0
    6.3770    0.4066   -0.9230 H   0  0  0  0  0  0  0  0  0  0  0  0
    4.2739    1.5603   -1.5814 H   0  0  0  0  0  0  0  0  0  0  0  0
    4.5526    2.8056   -0.3464 H   0  0  0  0  0  0  0  0  0  0  0  0
    5.6487    2.6584   -1.7301 H   0  0  0  0  0  0  0  0  0  0  0  0
   -2.9989   -0.2381   -1.4171 H   0  0  0  0  0  0  0  0  0  0  0  0
   -0.3730   -3.0425   -4.1368 H   0  0  0  0  0  0  0  0  0  0  0  0
    0.3938   -3.9563   -2.8052 H   0  0  0  0  0  0  0  0  0  0  0  0
   -1.3273   -4.2361   -3.1945 H   0  0  0  0  0  0  0  0  0  0  0  0
   -1.4965    2.6860   -0.1911 H   0  0  0  0  0  0  0  0  0  0  0  0
   -3.6231    3.7197   -0.8879 H   0  0  0  0  0  0  0  0  0  0  0  0
   -6.9508    2.1765   -0.3163 H   0  0  0  0  0  0  0  0  0  0  0  0
   -6.0692    3.4113   -1.2143 H   0  0  0  0  0  0  0  0  0  0  0  0
   -6.4478    3.6746    0.5058 H   0  0  0  0  0  0  0  0  0  0  0  0
   -5.7920    0.7557    1.3563 H   0  0  0  0  0  0  0  0  0  0  0  0
   -4.6586   -0.7809    2.7430 H   0  0  0  0  0  0  0  0  0  0  0  0
   -3.3811   -1.5168    1.7606 H   0  0  0  0  0  0  0  0  0  0  0  0
   -2.9729   -0.4832    3.1595 H   0  0  0  0  0  0  0  0  0  0  0  0
  1  2  1  0
  2  3  1  0
  3  4  1  0
  4  5  1  0
  5  6  1  0
  6  7  1  0
  7  8  1  0
  2  9  2  0
  9 10  1  0
 10 11  2  0
 11 12  1  0
 12 13  2  0
 13 14  1  0
 14 15  1  0
 11 16  1  0
 16 17  2  3
 17 18  1  0
 18 19  2  0
 19 20  1  0
 20 21  2  0
 21 22  1  0
 21 23  1  0
 23 24  2  0
 24 25  1  0
 16  1  1  0
 24 18  1  0
 14 10  1  0
  1 26  1  0
  3 27  1  0
  4 28  1  0
  4 29  1  0
  5 30  1  0
  5 31  1  0
  6 32  1  0
  6 33  1  0
  7 34  1  0
  7 35  1  0
  8 36  1  0
  8 37  1  0
  8 38  1  0
 12 39  1  0
 15 40  1  0
 15 41  1  0
 15 42  1  0
 19 43  1  0
 20 44  1  0
 22 45  1  0
 22 46  1  0
 22 47  1  0
 23 48  1  0
 25 49  1  0
 25 50  1  0
 25 51  1  0
M  END
>  <ScrubInfo>  (3) 
{"isomerGroup": 0, "isomerId": 2, "confId": 0, "nr_conformers:": 1, "nr_isomers:": 9}

$$$$
_i3
     RDKit          3D

 51 53  0  0  0  0  0  0  0  0999 V2000
    1.1072   -0.2600   -3.3570 N   0  0  0  0  0  0  0  0  0  0  0  0
    1.1060   -0.0947   -1.9894 C   0  0  0  0  0  0  0  0  0  0  0  0
    2.2477    0.0168   -1.3895 N   0  0  0  0  0  0  0  0  0  0  0  0
    2.2057    0.2009    0.0640 C   0  0  0  0  0  0  0  0  0  0  0  0
    3.6429    0.3325    0.5683 C   0  0  0  0  0  0  0  0  0  0  0  0
    3.7360    0.6669    2.0594 C   0  0  0  0  0  0  0  0  0  0  0  0
    3.1861   -0.4355    2.9656 C   0  0  0  0  0  0  0  0  0  0  0  0
    3.4043   -0.1058    4.4344 C   0  0  0  0  0  0  0  0  0  0  0  0
   -0.0729   -0.0435   -1.2649 N   0  0  0  0  0  0  0  0  0  0  0  0
   -1.2184   -0.1512   -1.8754 C   0  0  0  0  0  0  0  0  0  0  0  0
   -2.4758   -0.1002   -1.3128 N   0  0  0  0  0  0  0  0  0  0  0  0
   -2.6953    0.1910    0.0535 C   0  0  0  0  0  0  0  0  0  0  0  0
   -3.3447    1.3927    0.3828 C   0  0  0  0  0  0  0  0  0  0  0  0
   -3.5318    1.7733    1.7136 C   0  0  0  0  0  0  0  0  0  0  0  0
   -3.0720    0.9595    2.7492 C   0  0  0  0  0  0  0  0  0  0  0  0
   -3.2246    1.3843    4.1794 C   0  0  0  0  0  0  0  0  0  0  0  0
   -2.4089   -0.2310    2.4302 C   0  0  0  0  0  0  0  0  0  0  0  0
   -2.2291   -0.6353    1.0937 C   0  0  0  0  0  0  0  0  0  0  0  0
   -1.5310   -1.9441    0.8401 C   0  0  0  0  0  0  0  0  0  0  0  0
   -1.2548   -0.3397   -3.3131 C   0  0  0  0  0  0  0  0  0  0  0  0
   -2.2221   -0.5300   -4.3131 C   0  0  0  0  0  0  0  0  0  0  0  0
   -1.6790   -0.6556   -5.5339 N   0  0  0  0  0  0  0  0  0  0  0  0
   -0.3443   -0.5664   -5.3066 N   0  0  0  0  0  0  0  0  0  0  0  0
    0.5679   -0.6766   -6.4162 C   0  0  0  0  0  0  0  0  0  0  0  0
   -0.0671   -0.3819   -3.9907 C   0  0  0  0  0  0  0  0  0  0  0  0
    2.0262   -0.2879   -3.7773 H   0  0  0  0  0  0  0  0  0  0  0  0
    1.6478    1.1091    0.3226 H   0  0  0  0  0  0  0  0  0  0  0  0
    1.7289   -0.6632    0.5388 H   0  0  0  0  0  0  0  0  0  0  0  0
    4.1938   -0.5932    0.3598 H   0  0  0  0  0  0  0  0  0  0  0  0
    4.1502    1.1255    0.0039 H   0  0  0  0  0  0  0  0  0  0  0  0
    3.2067    1.6069    2.2581 H   0  0  0  0  0  0  0  0  0  0  0  0
    4.7908    0.8413    2.3055 H   0  0  0  0  0  0  0  0  0  0  0  0
    2.1127   -0.5700    2.7941 H   0  0  0  0  0  0  0  0  0  0  0  0
    3.6766   -1.3879    2.7341 H   0  0  0  0  0  0  0  0  0  0  0  0
    3.0011   -0.9038    5.0657 H   0  0  0  0  0  0  0  0  0  0  0  0
    2.9019    0.8284    4.7053 H   0  0  0  0  0  0  0  0  0  0  0  0
    4.4704   -0.0011    4.6594 H   0  0  0  0  0  0  0  0  0  0  0  0
   -3.1923    0.3001   -1.9044 H   0  0  0  0  0  0  0  0  0  0  0  0
   -3.6913    2.0626   -0.4001 H   0  0  0  0  0  0  0  0  0  0  0  0
   -4.0259    2.7167    1.9334 H   0  0  0  0  0  0  0  0  0  0  0  0
   -3.3321    0.5141    4.8355 H   0  0  0  0  0  0  0  0  0  0  0  0
   -2.3487    1.9597    4.4944 H   0  0  0  0  0  0  0  0  0  0  0  0
   -4.1195    2.0017    4.3108 H   0  0  0  0  0  0  0  0  0  0  0  0
   -2.0271   -0.8605    3.2327 H   0  0  0  0  0  0  0  0  0  0  0  0
   -0.4469   -1.8033    0.8396 H   0  0  0  0  0  0  0  0  0  0  0  0
   -1.7841   -2.6706    1.6205 H   0  0  0  0  0  0  0  0  0  0  0  0
   -1.8389   -2.3919   -0.1096 H   0  0  0  0  0  0  0  0  0  0  0  0
   -3.2985   -0.5868   -4.2207 H   0  0  0  0  0  0  0  0  0  0  0  0
    0.4464   -1.6661   -6.8641 H   0  0  0  0  0  0  0  0  0  0  0  0
    1.5952   -0.5502   -6.0683 H   0  0  0  0  0  0  0  0  0  0  0  0
    0.3246    0.1041   -7.1414 H   0  0  0  0  0  0  0  0  0  0  0  0
  1  2  1  0
  2  3  2  3
  3  4  1  0
  4  5  1  0
  5  6  1  0
  6  7  1  0
  7  8  1  0
  2  9  1  0
  9 10  2  0
 10 11  1  0
 11 12  1  0
 12 13  2  0
 13 14  1  0
 14 15  2  0
 15 16  1  0
 15 17  1  0
 17 18  2  0
 18 19  1  0
 10 20  1  0
 20 21  1  0
 21 22  2  0
 22 23  1  0
 23 24  1  0
 23 25  1  0
 25  1  1  0
 18 12  1  0
 25 20  2  0
  1 26  1  0
  4 27  1  0
  4 28  1  0
  5 29  1  0
  5 30  1  0
  6 31  1  0
  6 32  1  0
  7 33  1  0
  7 34  1  0
  8 35  1  0
  8 36  1  0
  8 37  1  0
 11 38  1  0
 13 39  1  0
 14 40  1  0
 16 41  1  0
 16 42  1  0
 16 43  1  0
 17 44  1  0
 19 45  1  0
 19 46  1  0
 19 47  1  0
 21 48  1  0
 24 49  1  0
 24 50  1  0
 24 51  1  0
M  END
>  <ScrubInfo>  (4) 
{"isomerGroup": 0, "isomerId": 3, "confId": 0, "nr_conformers:": 1, "nr_isomers:": 9}

$$$$
_i4
     RDKit          3D

 51 53  0  0  0  0  0  0  0  0999 V2000
   -2.2634   -2.7173    1.0181 N   0  0  0  0  0  0  0  0  0  0  0  0
   -2.5116   -1.3846    0.7052 C   0  0  0  0  0  0  0  0  0  0  0  0
   -1.3967   -0.6602    0.5228 C   0  0  0  0  0  0  0  0  0  0  0  0
   -1.0078    0.7127    0.2253 C   0  0  0  0  0  0  0  0  0  0  0  0
   -1.7262    1.7544   -0.0336 N   0  0  0  0  0  0  0  0  0  0  0  0
   -3.1222    1.6661   -0.0678 C   0  0  0  0  0  0  0  0  0  0  0  0
   -3.8481    1.9217    1.1005 C   0  0  0  0  0  0  0  0  0  0  0  0
   -5.2417    1.8452    1.1071 C   0  0  0  0  0  0  0  0  0  0  0  0
   -5.9337    1.5138   -0.0611 C   0  0  0  0  0  0  0  0  0  0  0  0
   -7.4331    1.4654   -0.0683 C   0  0  0  0  0  0  0  0  0  0  0  0
   -5.2119    1.2993   -1.2430 C   0  0  0  0  0  0  0  0  0  0  0  0
   -3.8097    1.3835   -1.2606 C   0  0  0  0  0  0  0  0  0  0  0  0
   -3.0615    1.1563   -2.5441 C   0  0  0  0  0  0  0  0  0  0  0  0
    0.3468    0.9181    0.2286 N   0  0  0  0  0  0  0  0  0  0  0  0
    1.2126   -0.0306    0.4297 C   0  0  0  0  0  0  0  0  0  0  0  0
    2.5244    0.3428    0.3980 N   0  0  0  0  0  0  0  0  0  0  0  0
    3.5733   -0.4119    1.0462 C   0  0  0  0  0  0  0  0  0  0  0  0
    4.9433    0.2002    0.7467 C   0  0  0  0  0  0  0  0  0  0  0  0
    5.3450    0.0464   -0.7244 C   0  0  0  0  0  0  0  0  0  0  0  0
    6.6846    0.7077   -1.0579 C   0  0  0  0  0  0  0  0  0  0  0  0
    7.8736    0.0554   -0.3696 C   0  0  0  0  0  0  0  0  0  0  0  0
    0.9112   -1.3445    0.6675 N   0  0  0  0  0  0  0  0  0  0  0  0
   -0.3340   -1.6679    0.6965 C   0  0  0  0  0  0  0  0  0  0  0  0
   -0.8980   -2.9290    0.8969 N   0  0  0  0  0  0  0  0  0  0  0  0
   -0.2556   -3.9073    1.7524 C   0  0  0  0  0  0  0  0  0  0  0  0
   -2.8670   -3.3679    0.5099 H   0  0  0  0  0  0  0  0  0  0  0  0
   -3.5392   -1.0588    0.6358 H   0  0  0  0  0  0  0  0  0  0  0  0
   -3.3172    2.1870    2.0113 H   0  0  0  0  0  0  0  0  0  0  0  0
   -5.7804    2.0530    2.0286 H   0  0  0  0  0  0  0  0  0  0  0  0
   -7.8383    2.4511   -0.3170 H   0  0  0  0  0  0  0  0  0  0  0  0
   -7.7963    0.7372   -0.8011 H   0  0  0  0  0  0  0  0  0  0  0  0
   -7.8189    1.1606    0.9103 H   0  0  0  0  0  0  0  0  0  0  0  0
   -5.7479    1.0763   -2.1639 H   0  0  0  0  0  0  0  0  0  0  0  0
   -3.7414    1.1237   -3.4021 H   0  0  0  0  0  0  0  0  0  0  0  0
   -2.3512    1.9695   -2.7253 H   0  0  0  0  0  0  0  0  0  0  0  0
   -2.5227    0.2045   -2.5045 H   0  0  0  0  0  0  0  0  0  0  0  0
    2.6180    1.3516    0.4179 H   0  0  0  0  0  0  0  0  0  0  0  0
    3.4073   -0.3998    2.1296 H   0  0  0  0  0  0  0  0  0  0  0  0
    3.5595   -1.4577    0.7180 H   0  0  0  0  0  0  0  0  0  0  0  0
    5.6826   -0.3000    1.3823 H   0  0  0  0  0  0  0  0  0  0  0  0
    4.9463    1.2621    1.0217 H   0  0  0  0  0  0  0  0  0  0  0  0
    4.5773    0.4998   -1.3628 H   0  0  0  0  0  0  0  0  0  0  0  0
    5.3855   -1.0178   -0.9869 H   0  0  0  0  0  0  0  0  0  0  0  0
    6.8378    0.6520   -2.1423 H   0  0  0  0  0  0  0  0  0  0  0  0
    6.6506    1.7719   -0.7974 H   0  0  0  0  0  0  0  0  0  0  0  0
    7.9126   -1.0172   -0.5845 H   0  0  0  0  0  0  0  0  0  0  0  0
    8.8061    0.5059   -0.7247 H   0  0  0  0  0  0  0  0  0  0  0  0
    7.8338    0.1907    0.7150 H   0  0  0  0  0  0  0  0  0  0  0  0
   -0.7948   -4.8595    1.7139 H   0  0  0  0  0  0  0  0  0  0  0  0
    0.7719   -4.0922    1.4229 H   0  0  0  0  0  0  0  0  0  0  0  0
   -0.2339   -3.5617    2.7912 H   0  0  0  0  0  0  0  0  0  0  0  0
  1  2  1  0
  2  3  2  0
  3  4  1  0
  4  5  2  3
  5  6  1  0
  6  7  2  0
  7  8  1  0
  8  9  2  0
  9 10  1  0
  9 11  1  0
 11 12  2  0
 12 13  1  0
  4 14  1  0
 14 15  2  0
 15 16  1  0
 16 17  1  0
 17 18  1  0
 18 19  1  0
 19 20  1  0
 20 21  1  0
 15 22  1  0
 22 23  2  0
 23 24  1  0
 24 25  1  0
 24  1  1  0
 23  3  1  0
 12  6  1  0
  1 26  1  0
  2 27  1  0
  7 28  1  0
  8 29  1  0
 10 30  1  0
 10 31  1  0
 10 32  1  0
 11 33  1  0
 13 34  1  0
 13 35  1  0
 13 36  1  0
 16 37  1  0
 17 38  1  0
 17 39  1  0
 18 40  1  0
 18 41  1  0
 19 42  1  0
 19 43  1  0
 20 44  1  0
 20 45  1  0
 21 46  1  0
 21 47  1  0
 21 48  1  0
 25 49  1  0
 25 50  1  0
 25 51  1  0
M  END
>  <ScrubInfo>  (5) 
{"isomerGroup": 0, "isomerId": 4, "confId": 0, "nr_conformers:": 1, "nr_isomers:": 9}

$$$$
_i5
     RDKit          3D

 51 53  0  0  0  0  0  0  0  0999 V2000
    0.1442   -1.4698   -2.1710 N   0  0  0  0  0  0  0  0  0  0  0  0
    0.1864   -0.3549   -1.3654 C   0  0  0  0  0  0  0  0  0  0  0  0
    1.4255    0.1951   -1.1982 N   0  0  0  0  0  0  0  0  0  0  0  0
    2.5480   -0.6008   -0.7152 C   0  0  0  0  0  0  0  0  0  0  0  0
    3.7880    0.2859   -0.6016 C   0  0  0  0  0  0  0  0  0  0  0  0
    5.0556   -0.4848   -0.2223 C   0  0  0  0  0  0  0  0  0  0  0  0
    5.0066   -1.2230    1.1175 C   0  0  0  0  0  0  0  0  0  0  0  0
    4.7579   -0.3086    2.3068 C   0  0  0  0  0  0  0  0  0  0  0  0
   -0.8379    0.2047   -0.7827 N   0  0  0  0  0  0  0  0  0  0  0  0
   -2.0996   -0.3505   -0.9552 C   0  0  0  0  0  0  0  0  0  0  0  0
   -3.1794    0.0937   -0.3960 N   0  0  0  0  0  0  0  0  0  0  0  0
   -3.0769    1.2119    0.4477 C   0  0  0  0  0  0  0  0  0  0  0  0
   -3.1762    2.4954   -0.1003 C   0  0  0  0  0  0  0  0  0  0  0  0
   -3.1056    3.6285    0.7124 C   0  0  0  0  0  0  0  0  0  0  0  0
   -2.9338    3.4951    2.0929 C   0  0  0  0  0  0  0  0  0  0  0  0
   -2.8897    4.7078    2.9742 C   0  0  0  0  0  0  0  0  0  0  0  0
   -2.8662    2.2108    2.6493 C   0  0  0  0  0  0  0  0  0  0  0  0
   -2.9427    1.0652    1.8390 C   0  0  0  0  0  0  0  0  0  0  0  0
   -2.8614   -0.2997    2.4609 C   0  0  0  0  0  0  0  0  0  0  0  0
   -2.1965   -1.4995   -1.8192 C   0  0  0  0  0  0  0  0  0  0  0  0
   -3.2296   -2.3198   -2.2910 C   0  0  0  0  0  0  0  0  0  0  0  0
   -2.7800   -3.2773   -3.1200 N   0  0  0  0  0  0  0  0  0  0  0  0
   -1.4421   -3.0576   -3.1729 N   0  0  0  0  0  0  0  0  0  0  0  0
   -0.6226   -3.9182   -3.9865 C   0  0  0  0  0  0  0  0  0  0  0  0
   -1.0665   -2.0079   -2.3971 C   0  0  0  0  0  0  0  0  0  0  0  0
    0.9639   -1.6660   -2.7285 H   0  0  0  0  0  0  0  0  0  0  0  0
    1.3079    1.0304   -0.6244 H   0  0  0  0  0  0  0  0  0  0  0  0
    2.2901   -1.0274    0.2601 H   0  0  0  0  0  0  0  0  0  0  0  0
    2.7528   -1.4270   -1.4047 H   0  0  0  0  0  0  0  0  0  0  0  0
    3.9646    0.7807   -1.5658 H   0  0  0  0  0  0  0  0  0  0  0  0
    3.6065    1.0925    0.1188 H   0  0  0  0  0  0  0  0  0  0  0  0
    5.8971    0.2193   -0.2085 H   0  0  0  0  0  0  0  0  0  0  0  0
    5.2779   -1.2134   -1.0119 H   0  0  0  0  0  0  0  0  0  0  0  0
    4.2430   -2.0081    1.0932 H   0  0  0  0  0  0  0  0  0  0  0  0
    5.9669   -1.7321    1.2647 H   0  0  0  0  0  0  0  0  0  0  0  0
    4.8348   -0.8765    3.2395 H   0  0  0  0  0  0  0  0  0  0  0  0
    5.4942    0.5005    2.3412 H   0  0  0  0  0  0  0  0  0  0  0  0
    3.7579    0.1334    2.2704 H   0  0  0  0  0  0  0  0  0  0  0  0
   -3.3081    2.6083   -1.1726 H   0  0  0  0  0  0  0  0  0  0  0  0
   -3.1868    4.6126    0.2579 H   0  0  0  0  0  0  0  0  0  0  0  0
   -2.4606    5.5629    2.4414 H   0  0  0  0  0  0  0  0  0  0  0  0
   -3.9002    4.9675    3.3043 H   0  0  0  0  0  0  0  0  0  0  0  0
   -2.2643    4.5277    3.8549 H   0  0  0  0  0  0  0  0  0  0  0  0
   -2.7570    2.0997    3.7262 H   0  0  0  0  0  0  0  0  0  0  0  0
   -1.9271   -0.7916    2.1724 H   0  0  0  0  0  0  0  0  0  0  0  0
   -2.8881   -0.2439    3.5543 H   0  0  0  0  0  0  0  0  0  0  0  0
   -3.7097   -0.9164    2.1463 H   0  0  0  0  0  0  0  0  0  0  0  0
   -4.2884   -2.2599   -2.0730 H   0  0  0  0  0  0  0  0  0  0  0  0
   -0.9074   -3.7753   -5.0319 H   0  0  0  0  0  0  0  0  0  0  0  0
   -0.7965   -4.9530   -3.6806 H   0  0  0  0  0  0  0  0  0  0  0  0
    0.4312   -3.6666   -3.8500 H   0  0  0  0  0  0  0  0  0  0  0  0
  1  2  1  0
  2  3  1  0
  3  4  1  0
  4  5  1  0
  5  6  1  0
  6  7  1  0
  7  8  1  0
  2  9  2  0
  9 10  1  0
 10 11  2  3
 11 12  1  0
 12 13  2  0
 13 14  1  0
 14 15  2  0
 15 16  1  0
 15 17  1  0
 17 18  2  0
 18 19  1  0
 10 20  1  0
 20 21  1  0
 21 22  2  0
 22 23  1  0
 23 24  1  0
 23 25  1  0
 25  1  1  0
 18 12  1  0
 25 20  2  0
  1 26  1  0
  3 27  1  0
  4 28  1  0
  4 29  1  0
  5 30  1  0
  5 31  1  0
  6 32  1  0
  6 33  1  0
  7 34  1  0
  7 35  1  0
  8 36  1  0
  8 37  1  0
  8 38  1  0
 13 39  1  0
 14 40  1  0
 16 41  1  0
 16 42  1  0
 16 43  1  0
 17 44  1  0
 19 45  1  0
 19 46  1  0
 19 47  1  0
 21 48  1  0
 24 49  1  0
 24 50  1  0
 24 51  1  0
M  END
>  <ScrubInfo>  (6) 
{"isomerGroup": 0, "isomerId": 5, "confId": 0, "nr_conformers:": 1, "nr_isomers:": 9}

$$$$
_i6
     RDKit          3D

 51 53  0  0  0  0  0  0  0  0999 V2000
   -1.1519    4.8738   -1.2308 N   0  0  0  0  0  0  0  0  0  0  0  0
   -1.8863    3.6980   -1.3400 C   0  0  0  0  0  0  0  0  0  0  0  0
   -1.2207    2.6243   -0.8928 C   0  0  0  0  0  0  0  0  0  0  0  0
   -1.4242    1.1802   -0.7729 C   0  0  0  0  0  0  0  0  0  0  0  0
   -2.6227    0.6165   -1.1733 N   0  0  0  0  0  0  0  0  0  0  0  0
   -3.1025   -0.6372   -0.7324 C   0  0  0  0  0  0  0  0  0  0  0  0
   -3.5531   -1.5314   -1.7165 C   0  0  0  0  0  0  0  0  0  0  0  0
   -4.1184   -2.7614   -1.3759 C   0  0  0  0  0  0  0  0  0  0  0  0
   -4.2793   -3.1114   -0.0356 C   0  0  0  0  0  0  0  0  0  0  0  0
   -4.8361   -4.4518    0.3419 C   0  0  0  0  0  0  0  0  0  0  0  0
   -3.8589   -2.2135    0.9530 C   0  0  0  0  0  0  0  0  0  0  0  0
   -3.3033   -0.9622    0.6224 C   0  0  0  0  0  0  0  0  0  0  0  0
   -2.9073   -0.0457    1.7475 C   0  0  0  0  0  0  0  0  0  0  0  0
   -0.4341    0.4749   -0.3039 N   0  0  0  0  0  0  0  0  0  0  0  0
    0.7373    1.0943    0.0671 C   0  0  0  0  0  0  0  0  0  0  0  0
    1.6487    0.2833    0.4747 N   0  0  0  0  0  0  0  0  0  0  0  0
    2.9277    0.8486    0.8929 C   0  0  0  0  0  0  0  0  0  0  0  0
    3.8613   -0.2882    1.3127 C   0  0  0  0  0  0  0  0  0  0  0  0
    4.2731   -1.1744    0.1333 C   0  0  0  0  0  0  0  0  0  0  0  0
    5.2381   -2.2740    0.5771 C   0  0  0  0  0  0  0  0  0  0  0  0
    5.6511   -3.1570   -0.5897 C   0  0  0  0  0  0  0  0  0  0  0  0
    0.9955    2.4476    0.0482 N   0  0  0  0  0  0  0  0  0  0  0  0
    0.0512    3.1958   -0.4032 C   0  0  0  0  0  0  0  0  0  0  0  0
    0.0168    4.5848   -0.5340 N   0  0  0  0  0  0  0  0  0  0  0  0
    1.2230    5.3336   -0.8333 C   0  0  0  0  0  0  0  0  0  0  0  0
   -1.6941    5.6700   -0.8868 H   0  0  0  0  0  0  0  0  0  0  0  0
   -2.8811    3.7437   -1.7578 H   0  0  0  0  0  0  0  0  0  0  0  0
   -3.3892    1.2489   -1.3652 H   0  0  0  0  0  0  0  0  0  0  0  0
   -3.4319   -1.2812   -2.7680 H   0  0  0  0  0  0  0  0  0  0  0  0
   -4.4224   -3.4444   -2.1653 H   0  0  0  0  0  0  0  0  0  0  0  0
   -5.5359   -4.8133   -0.4189 H   0  0  0  0  0  0  0  0  0  0  0  0
   -4.0241   -5.1776    0.4485 H   0  0  0  0  0  0  0  0  0  0  0  0
   -5.3863   -4.3936    1.2869 H   0  0  0  0  0  0  0  0  0  0  0  0
   -3.9685   -2.4888    2.0010 H   0  0  0  0  0  0  0  0  0  0  0  0
   -3.1096    1.0005    1.4985 H   0  0  0  0  0  0  0  0  0  0  0  0
   -3.4860   -0.2641    2.6520 H   0  0  0  0  0  0  0  0  0  0  0  0
   -1.8470   -0.1701    1.9850 H   0  0  0  0  0  0  0  0  0  0  0  0
    2.7852    1.5116    1.7550 H   0  0  0  0  0  0  0  0  0  0  0  0
    3.3941    1.4219    0.0823 H   0  0  0  0  0  0  0  0  0  0  0  0
    3.3754   -0.9011    2.0820 H   0  0  0  0  0  0  0  0  0  0  0  0
    4.7599    0.1473    1.7662 H   0  0  0  0  0  0  0  0  0  0  0  0
    4.7491   -0.5586   -0.6395 H   0  0  0  0  0  0  0  0  0  0  0  0
    3.3853   -1.6315   -0.3196 H   0  0  0  0  0  0  0  0  0  0  0  0
    4.7665   -2.8943    1.3481 H   0  0  0  0  0  0  0  0  0  0  0  0
    6.1336   -1.8262    1.0234 H   0  0  0  0  0  0  0  0  0  0  0  0
    4.7808   -3.6463   -1.0387 H   0  0  0  0  0  0  0  0  0  0  0  0
    6.1549   -2.5716   -1.3656 H   0  0  0  0  0  0  0  0  0  0  0  0
    6.3410   -3.9358   -0.2500 H   0  0  0  0  0  0  0  0  0  0  0  0
    1.6045    5.0758   -1.8268 H   0  0  0  0  0  0  0  0  0  0  0  0
    1.0195    6.4090   -0.8067 H   0  0  0  0  0  0  0  0  0  0  0  0
    2.0013    5.1224   -0.0929 H   0  0  0  0  0  0  0  0  0  0  0  0
  1  2  1  0
  2  3  2  0
  3  4  1  0
  4  5  1  0
  5  6  1  0
  6  7  2  0
  7  8  1  0
  8  9  2  0
  9 10  1  0
  9 11  1  0
 11 12  2  0
 12 13  1  0
  4 14  2  0
 14 15  1  0
 15 16  2  3
 16 17  1  0
 17 18  1  0
 18 19  1  0
 19 20  1  0
 20 21  1  0
 15 22  1  0
 22 23  2  0
 23 24  1  0
 24 25  1  0
 24  1  1  0
 23  3  1  0
 12  6  1  0
  1 26  1  0
  2 27  1  0
  5 28  1  0
  7 29  1  0
  8 30  1  0
 10 31  1  0
 10 32  1  0
 10 33  1  0
 11 34  1  0
 13 35  1  0
 13 36  1  0
 13 37  1  0
 17 38  1  0
 17 39  1  0
 18 40  1  0
 18 41  1  0
 19 42  1  0
 19 43  1  0
 20 44  1  0
 20 45  1  0
 21 46  1  0
 21 47  1  0
 21 48  1  0
 25 49  1  0
 25 50  1  0
 25 51  1  0
M  END
>  <ScrubInfo>  (7) 
{"isomerGroup": 0, "isomerId": 6, "confId": 0, "nr_conformers:": 1, "nr_isomers:": 9}

$$$$
_i7
     RDKit          3D

 51 53  0  0  0  0  0  0  0  0999 V2000
   -1.4723   -3.3646    3.8316 N   0  0  0  0  0  0  0  0  0  0  0  0
   -2.2918   -2.6891    2.9340 C   0  0  0  0  0  0  0  0  0  0  0  0
   -1.6331   -1.7711    2.2172 C   0  0  0  0  0  0  0  0  0  0  0  0
   -1.9206   -0.8170    1.1443 C   0  0  0  0  0  0  0  0  0  0  0  0
   -3.1350   -0.7104    0.6932 N   0  0  0  0  0  0  0  0  0  0  0  0
   -3.3830    0.2085   -0.3387 C   0  0  0  0  0  0  0  0  0  0  0  0
   -3.7270    1.5236   -0.0101 C   0  0  0  0  0  0  0  0  0  0  0  0
   -3.9584    2.4714   -1.0079 C   0  0  0  0  0  0  0  0  0  0  0  0
   -3.8464    2.1165   -2.3550 C   0  0  0  0  0  0  0  0  0  0  0  0
   -4.1236    3.1235   -3.4320 C   0  0  0  0  0  0  0  0  0  0  0  0
   -3.5356    0.7911   -2.6869 C   0  0  0  0  0  0  0  0  0  0  0  0
   -3.3105   -0.1716   -1.6892 C   0  0  0  0  0  0  0  0  0  0  0  0
   -2.9708   -1.5835   -2.0755 C   0  0  0  0  0  0  0  0  0  0  0  0
   -0.7979   -0.1390    0.7420 N   0  0  0  0  0  0  0  0  0  0  0  0
    0.4690   -0.2855    1.2406 C   0  0  0  0  0  0  0  0  0  0  0  0
    1.4161    0.4185    0.7114 N   0  0  0  0  0  0  0  0  0  0  0  0
    2.7621    0.2466    1.2599 C   0  0  0  0  0  0  0  0  0  0  0  0
    3.7334    1.1413    0.4861 C   0  0  0  0  0  0  0  0  0  0  0  0
    3.9297    0.6755   -0.9606 C   0  0  0  0  0  0  0  0  0  0  0  0
    4.8435    1.5957   -1.7736 C   0  0  0  0  0  0  0  0  0  0  0  0
    6.2828    1.6128   -1.2824 C   0  0  0  0  0  0  0  0  0  0  0  0
    0.7478   -1.1511    2.2807 N   0  0  0  0  0  0  0  0  0  0  0  0
   -0.2397   -1.8434    2.7577 C   0  0  0  0  0  0  0  0  0  0  0  0
   -0.2156   -2.7620    3.8111 N   0  0  0  0  0  0  0  0  0  0  0  0
    0.9588   -3.5738    4.0659 C   0  0  0  0  0  0  0  0  0  0  0  0
   -1.8979   -3.4852    4.7535 H   0  0  0  0  0  0  0  0  0  0  0  0
   -3.3433   -2.9335    2.8772 H   0  0  0  0  0  0  0  0  0  0  0  0
   -3.8156    1.8092    1.0348 H   0  0  0  0  0  0  0  0  0  0  0  0
   -4.2277    3.4863   -0.7251 H   0  0  0  0  0  0  0  0  0  0  0  0
   -3.8639    4.1338   -3.0988 H   0  0  0  0  0  0  0  0  0  0  0  0
   -3.5266    2.9133   -4.3256 H   0  0  0  0  0  0  0  0  0  0  0  0
   -5.1842    3.1014   -3.7008 H   0  0  0  0  0  0  0  0  0  0  0  0
   -3.4737    0.5035   -3.7351 H   0  0  0  0  0  0  0  0  0  0  0  0
   -3.1412   -1.7573   -3.1433 H   0  0  0  0  0  0  0  0  0  0  0  0
   -1.9172   -1.7898   -1.8628 H   0  0  0  0  0  0  0  0  0  0  0  0
   -3.5984   -2.2947   -1.5285 H   0  0  0  0  0  0  0  0  0  0  0  0
   -0.8759    0.5283   -0.0112 H   0  0  0  0  0  0  0  0  0  0  0  0
    2.7808    0.5496    2.3139 H   0  0  0  0  0  0  0  0  0  0  0  0
    3.0910   -0.7972    1.1870 H   0  0  0  0  0  0  0  0  0  0  0  0
    4.6958    1.1299    1.0096 H   0  0  0  0  0  0  0  0  0  0  0  0
    3.3698    2.1761    0.4946 H   0  0  0  0  0  0  0  0  0  0  0  0
    2.9577    0.6328   -1.4665 H   0  0  0  0  0  0  0  0  0  0  0  0
    4.3343   -0.3440   -0.9686 H   0  0  0  0  0  0  0  0  0  0  0  0
    4.8367    1.2571   -2.8166 H   0  0  0  0  0  0  0  0  0  0  0  0
    4.4442    2.6166   -1.7697 H   0  0  0  0  0  0  0  0  0  0  0  0
    6.6970    0.6004   -1.2431 H   0  0  0  0  0  0  0  0  0  0  0  0
    6.9036    2.2066   -1.9610 H   0  0  0  0  0  0  0  0  0  0  0  0
    6.3622    2.0590   -0.2869 H   0  0  0  0  0  0  0  0  0  0  0  0
    0.8248   -4.1607    4.9804 H   0  0  0  0  0  0  0  0  0  0  0  0
    1.1436   -4.2621    3.2346 H   0  0  0  0  0  0  0  0  0  0  0  0
    1.8425   -2.9421    4.2014 H   0  0  0  0  0  0  0  0  0  0  0  0
  1  2  1  0
  2  3  2  0
  3  4  1  0
  4  5  2  3
  5  6  1  0
  6  7  2  0
  7  8  1  0
  8  9  2  0
  9 10  1  0
  9 11  1  0
 11 12  2  0
 12 13  1  0
  4 14  1  0
 14 15  1  0
 15 16  2  3
 16 17  1  0
 17 18  1  0
 18 19  1  0
 19 20  1  0
 20 21  1  0
 15 22  1  0
 22 23  2  0
 23 24  1  0
 24 25  1  0
 24  1  1  0
 23  3  1  0
 12  6  1  0
  1 26  1  0
  2 27  1  0
  7 28  1  0
  8 29  1  0
 10 30  1  0
 10 31  1  0
 10 32  1  0
 11 33  1  0
 13 34  1  0
 13 35  1  0
 13 36  1  0
 14 37  1  0
 17 38  1  0
 17 39  1  0
 18 40  1  0
 18 41  1  0
 19 42  1  0
 19 43  1  0
 20 44  1  0
 20 45  1  0
 21 46  1  0
 21 47  1  0
 21 48  1  0
 25 49  1  0
 25 50  1  0
 25 51  1  0
M  END
>  <ScrubInfo>  (8) 
{"isomerGroup": 0, "isomerId": 7, "confId": 0, "nr_conformers:": 1, "nr_isomers:": 9}

$$$$
_i8
     RDKit          3D

 51 53  0  0  0  0  0  0  0  0999 V2000
    0.9421    0.5502   -1.6807 N   0  0  0  0  0  0  0  0  0  0  0  0
    0.4681    0.5197   -0.3767 C   0  0  0  0  0  0  0  0  0  0  0  0
    1.1466    0.5693    0.7187 N   0  0  0  0  0  0  0  0  0  0  0  0
    2.6003    0.7009    0.6797 C   0  0  0  0  0  0  0  0  0  0  0  0
    3.2439   -0.6825    0.6012 C   0  0  0  0  0  0  0  0  0  0  0  0
    4.7672   -0.6374    0.4577 C   0  0  0  0  0  0  0  0  0  0  0  0
    5.4755   -0.0506    1.6791 C   0  0  0  0  0  0  0  0  0  0  0  0
    6.9877   -0.1305    1.5343 C   0  0  0  0  0  0  0  0  0  0  0  0
   -0.9066    0.4144   -0.2895 N   0  0  0  0  0  0  0  0  0  0  0  0
   -1.8758    0.3330   -1.2698 C   0  0  0  0  0  0  0  0  0  0  0  0
   -3.1614    0.2309   -1.1925 N   0  0  0  0  0  0  0  0  0  0  0  0
   -3.7355    0.1929    0.0873 C   0  0  0  0  0  0  0  0  0  0  0  0
   -4.1097    1.3929    0.7005 C   0  0  0  0  0  0  0  0  0  0  0  0
   -4.6637    1.3975    1.9813 C   0  0  0  0  0  0  0  0  0  0  0  0
   -4.8501    0.1967    2.6716 C   0  0  0  0  0  0  0  0  0  0  0  0
   -5.4743    0.1932    4.0359 C   0  0  0  0  0  0  0  0  0  0  0  0
   -4.5079   -1.0093    2.0456 C   0  0  0  0  0  0  0  0  0  0  0  0
   -3.9587   -1.0239    0.7529 C   0  0  0  0  0  0  0  0  0  0  0  0
   -3.5956   -2.3325    0.1093 C   0  0  0  0  0  0  0  0  0  0  0  0
   -1.2788    0.3694   -2.5831 C   0  0  0  0  0  0  0  0  0  0  0  0
   -1.7656    0.3144   -3.8970 C   0  0  0  0  0  0  0  0  0  0  0  0
   -0.7813    0.3792   -4.8070 N   0  0  0  0  0  0  0  0  0  0  0  0
    0.3451    0.4824   -4.0603 N   0  0  0  0  0  0  0  0  0  0  0  0
    1.6177    0.5733   -4.7302 C   0  0  0  0  0  0  0  0  0  0  0  0
    0.0833    0.4754   -2.7237 C   0  0  0  0  0  0  0  0  0  0  0  0
    1.9431    0.5967   -1.8069 H   0  0  0  0  0  0  0  0  0  0  0  0
    2.9366    1.3474   -0.1387 H   0  0  0  0  0  0  0  0  0  0  0  0
    2.9071    1.2031    1.6035 H   0  0  0  0  0  0  0  0  0  0  0  0
    2.9714   -1.2667    1.4890 H   0  0  0  0  0  0  0  0  0  0  0  0
    2.8364   -1.2275   -0.2592 H   0  0  0  0  0  0  0  0  0  0  0  0
    5.0346   -0.0629   -0.4376 H   0  0  0  0  0  0  0  0  0  0  0  0
    5.1254   -1.6613    0.2935 H   0  0  0  0  0  0  0  0  0  0  0  0
    5.1720   -0.5923    2.5823 H   0  0  0  0  0  0  0  0  0  0  0  0
    5.1924    0.9984    1.8163 H   0  0  0  0  0  0  0  0  0  0  0  0
    7.3272    0.4252    0.6544 H   0  0  0  0  0  0  0  0  0  0  0  0
    7.3182   -1.1693    1.4340 H   0  0  0  0  0  0  0  0  0  0  0  0
    7.4758    0.2971    2.4157 H   0  0  0  0  0  0  0  0  0  0  0  0
   -1.2408    0.3889    0.6634 H   0  0  0  0  0  0  0  0  0  0  0  0
   -3.9691    2.3319    0.1711 H   0  0  0  0  0  0  0  0  0  0  0  0
   -4.9500    2.3443    2.4333 H   0  0  0  0  0  0  0  0  0  0  0  0
   -6.5615    0.1042    3.9497 H   0  0  0  0  0  0  0  0  0  0  0  0
   -5.2363    1.1150    4.5770 H   0  0  0  0  0  0  0  0  0  0  0  0
   -5.0963   -0.6415    4.6355 H   0  0  0  0  0  0  0  0  0  0  0  0
   -4.6773   -1.9493    2.5682 H   0  0  0  0  0  0  0  0  0  0  0  0
   -2.5076   -2.4443    0.0693 H   0  0  0  0  0  0  0  0  0  0  0  0
   -4.0028   -3.1802    0.6707 H   0  0  0  0  0  0  0  0  0  0  0  0
   -4.0048   -2.3903   -0.9046 H   0  0  0  0  0  0  0  0  0  0  0  0
   -2.7922    0.2275   -4.2297 H   0  0  0  0  0  0  0  0  0  0  0  0
    1.8513   -0.4067   -5.1533 H   0  0  0  0  0  0  0  0  0  0  0  0
    2.3921    0.8700   -4.0199 H   0  0  0  0  0  0  0  0  0  0  0  0
    1.5429    1.3235   -5.5218 H   0  0  0  0  0  0  0  0  0  0  0  0
  1  2  1  0
  2  3  2  3
  3  4  1  0
  4  5  1  0
  5  6  1  0
  6  7  1  0
  7  8  1  0
  2  9  1  0
  9 10  1  0
 10 11  2  3
 11 12  1  0
 12 13  2  0
 13 14  1  0
 14 15  2  0
 15 16  1  0
 15 17  1  0
 17 18  2  0
 18 19  1  0
 10 20  1  0
 20 21  1  0
 21 22  2  0
 22 23  1  0
 23 24  1  0
 23 25  1  0
 25  1  1  0
 18 12  1  0
 25 20  2  0
  1 26  1  0
  4 27  1  0
  4 28  1  0
  5 29  1  0
  5 30  1  0
  6 31  1  0
  6 32  1  0
  7 33  1  0
  7 34  1  0
  8 35  1  0
  8 36  1  0
  8 37  1  0
  9 38  1  0
 13 39  1  0
 14 40  1  0
 16 41  1  0
 16 42  1  0
 16 43  1  0
 17 44  1  0
 19 45  1  0
 19 46  1  0
 19 47  1  0
 21 48  1  0
 24 49  1  0
 24 50  1  0
 24 51  1  0
M  END
>  <ScrubInfo>  (9) 
{"isomerGroup": 0, "isomerId": 8, "confId": 0, "nr_conformers:": 1, "nr_isomers:": 9}

$$$$
