_i0
     RDKit          3D

 48 50  0  0  0  0  0  0  0  0999 V2000
    5.2554    2.6611    2.0637 C   0  0  0  0  0  0  0  0  0  0  0  0
    5.3329    1.6592    0.9227 C   0  0  0  0  0  0  0  0  0  0  0  0
    4.0465    0.8403    0.8079 C   0  0  0  0  0  0  0  0  0  0  0  0
    4.1315   -0.1664   -0.3439 C   0  0  0  0  0  0  0  0  0  0  0  0
    2.8930   -1.0612   -0.4481 C   0  0  0  0  0  0  0  0  0  0  0  0
    1.7548   -0.2962   -0.9266 N   0  0  0  0  0  0  0  0  0  0  0  0
    0.5652   -1.0152   -0.9932 C   0  0  0  0  0  0  0  0  0  0  0  0
   -0.5301   -0.3025   -0.6755 N   0  0  0  0  0  0  0  0  0  0  0  0
   -1.7666   -0.8667   -0.7053 C   0  0  0  0  0  0  0  0  0  0  0  0
   -2.9181   -0.1449   -0.3541 N   0  0  0  0  0  0  0  0  0  0  0  0
   -3.1382    1.2280   -0.1235 C   0  0  0  0  0  0  0  0  0  0  0  0
   -2.1962    2.2062   -0.4791 C   0  0  0  0  0  0  0  0  0  0  0  0
   -2.4101    3.5625   -0.2142 C   0  0  0  0  0  0  0  0  0  0  0  0
   -3.5738    3.9630    0.4260 C   0  0  0  0  0  0  0  0  0  0  0  0
   -3.8441    5.6297    0.7535 Cl  0  0  0  0  0  0  0  0  0  0  0  0
   -4.5219    3.0181    0.8060 C   0  0  0  0  0  0  0  0  0  0  0  0
   -4.3128    1.6499    0.5467 C   0  0  0  0  0  0  0  0  0  0  0  0
   -5.3637    0.6701    0.9989 C   0  0  0  0  0  0  0  0  0  0  0  0
   -1.8325   -2.2188   -1.0649 C   0  0  0  0  0  0  0  0  0  0  0  0
   -2.8124   -3.2201   -1.2311 C   0  0  0  0  0  0  0  0  0  0  0  0
   -2.2984   -4.3967   -1.6056 N   0  0  0  0  0  0  0  0  0  0  0  0
   -0.9713   -4.1409   -1.6882 N   0  0  0  0  0  0  0  0  0  0  0  0
   -0.0689   -5.1923   -2.0850 C   0  0  0  0  0  0  0  0  0  0  0  0
   -0.6432   -2.8523   -1.3666 C   0  0  0  0  0  0  0  0  0  0  0  0
    0.5806   -2.3069   -1.3457 N   0  0  0  0  0  0  0  0  0  0  0  0
    5.1026    2.1537    3.0216 H   0  0  0  0  0  0  0  0  0  0  0  0
    6.1851    3.2351    2.1279 H   0  0  0  0  0  0  0  0  0  0  0  0
    4.4311    3.3654    1.9122 H   0  0  0  0  0  0  0  0  0  0  0  0
    6.1864    0.9916    1.0883 H   0  0  0  0  0  0  0  0  0  0  0  0
    5.5174    2.1959   -0.0152 H   0  0  0  0  0  0  0  0  0  0  0  0
    3.8666    0.3068    1.7491 H   0  0  0  0  0  0  0  0  0  0  0  0
    3.2003    1.5194    0.6542 H   0  0  0  0  0  0  0  0  0  0  0  0
    4.2886    0.3663   -1.2901 H   0  0  0  0  0  0  0  0  0  0  0  0
    5.0072   -0.8085   -0.1877 H   0  0  0  0  0  0  0  0  0  0  0  0
    3.1237   -1.8693   -1.1535 H   0  0  0  0  0  0  0  0  0  0  0  0
    2.6793   -1.5146    0.5281 H   0  0  0  0  0  0  0  0  0  0  0  0
    1.5245    0.5307   -0.3850 H   0  0  0  0  0  0  0  0  0  0  0  0
   -3.7575   -0.7050   -0.3494 H   0  0  0  0  0  0  0  0  0  0  0  0
   -1.2808    1.9328   -0.9961 H   0  0  0  0  0  0  0  0  0  0  0  0
   -1.6628    4.2916   -0.5144 H   0  0  0  0  0  0  0  0  0  0  0  0
   -5.4263    3.3462    1.3133 H   0  0  0  0  0  0  0  0  0  0  0  0
   -6.1554    1.1626    1.5736 H   0  0  0  0  0  0  0  0  0  0  0  0
   -4.9204   -0.0936    1.6462 H   0  0  0  0  0  0  0  0  0  0  0  0
   -5.8313    0.1914    0.1326 H   0  0  0  0  0  0  0  0  0  0  0  0
   -3.8833   -3.1448   -1.0961 H   0  0  0  0  0  0  0  0  0  0  0  0
    0.9566   -4.8172   -2.1090 H   0  0  0  0  0  0  0  0  0  0  0  0
   -0.1492   -6.0057   -1.3595 H   0  0  0  0  0  0  0  0  0  0  0  0
   -0.3601   -5.5377   -3.0802 H   0  0  0  0  0  0  0  0  0  0  0  0
  1  2  1  0
  2  3  1  0
  3  4  1  0
  4  5  1  0
  5  6  1  0
  6  7  1  0
  7  8  2  0
  8  9  1  0
  9 10  1  0
 10 11  1  0
 11 12  2  0
 12 13  1  0
 13 14  2  0
 14 15  1  0
 14 16  1  0
 16 17  2  0
 17 18  1  0
  9 19  2  0
 19 20  1  0
 20 21  2  0
 21 22  1  0
 22 23  1  0
 22 24  1  0
 24 25  2  0
 25  7  1  0
 17 11  1  0
 24 19  1  0
  1 26  1  0
  1 27  1  0
  1 28  1  0
  2 29  1  0
  2 30  1  0
  3 31  1  0
  3 32  1  0
  4 33  1  0
  4 34  1  0
  5 35  1  0
  5 36  1  0
  6 37  1  0
 10 38  1  0
 12 39  1  0
 13 40  1  0
 16 41  1  0
 18 42  1  0
 18 43  1  0
 18 44  1  0
 20 45  1  0
 23 46  1  0
 23 47  1  0
 23 48  1  0
M  END
>  <ScrubInfo>  (1) 
{"isomerGroup": 0, "isomerId": 0, "confId": 0, "nr_conformers:": 1, "nr_isomers:": 9}

$$$$
_i1
     RDKit          3D

 48 50  0  0  0  0  0  0  0  0999 V2000
   -0.5081    0.6052    0.1735 N   0  0  0  0  0  0  0  0  0  0  0  0
   -1.7607    1.1638   -0.0179 C   0  0  0  0  0  0  0  0  0  0  0  0
   -2.9243    0.4298    0.1297 N   0  0  0  0  0  0  0  0  0  0  0  0
   -3.1363   -0.9394   -0.1496 C   0  0  0  0  0  0  0  0  0  0  0  0
   -2.2932   -1.6629   -1.0101 C   0  0  0  0  0  0  0  0  0  0  0  0
   -2.5000   -3.0232   -1.2540 C   0  0  0  0  0  0  0  0  0  0  0  0
   -3.5542   -3.6813   -0.6338 C   0  0  0  0  0  0  0  0  0  0  0  0
   -3.8140   -5.3548   -0.9326 Cl  0  0  0  0  0  0  0  0  0  0  0  0
   -4.4023   -2.9904    0.2277 C   0  0  0  0  0  0  0  0  0  0  0  0
   -4.2002   -1.6219    0.4832 C   0  0  0  0  0  0  0  0  0  0  0  0
   -5.1291   -0.9184    1.4371 C   0  0  0  0  0  0  0  0  0  0  0  0
   -1.7610    2.4741   -0.2898 C   0  0  0  0  0  0  0  0  0  0  0  0
   -2.7393    3.5396   -0.5343 C   0  0  0  0  0  0  0  0  0  0  0  0
   -2.1875    4.7047   -0.7579 N   0  0  0  0  0  0  0  0  0  0  0  0
   -0.8029    4.4714   -0.7254 N   0  0  0  0  0  0  0  0  0  0  0  0
    0.0967    5.5962   -0.6324 C   0  0  0  0  0  0  0  0  0  0  0  0
   -0.4607    3.1699   -0.3943 C   0  0  0  0  0  0  0  0  0  0  0  0
    0.6941    2.6352   -0.1960 N   0  0  0  0  0  0  0  0  0  0  0  0
    0.6814    1.2969    0.1299 C   0  0  0  0  0  0  0  0  0  0  0  0
    1.8497    0.8206    0.3751 N   0  0  0  0  0  0  0  0  0  0  0  0
    1.9828   -0.5879    0.7225 C   0  0  0  0  0  0  0  0  0  0  0  0
    3.4657   -0.9279    0.8848 C   0  0  0  0  0  0  0  0  0  0  0  0
    4.2256   -0.8724   -0.4448 C   0  0  0  0  0  0  0  0  0  0  0  0
    5.7248   -1.1428   -0.2964 C   0  0  0  0  0  0  0  0  0  0  0  0
    6.0460   -2.5590    0.1555 C   0  0  0  0  0  0  0  0  0  0  0  0
   -0.5093   -0.3330    0.5414 H   0  0  0  0  0  0  0  0  0  0  0  0
   -3.7874    0.9642    0.1209 H   0  0  0  0  0  0  0  0  0  0  0  0
   -1.4809   -1.1691   -1.5390 H   0  0  0  0  0  0  0  0  0  0  0  0
   -1.8403   -3.5555   -1.9343 H   0  0  0  0  0  0  0  0  0  0  0  0
   -5.2215   -3.5210    0.7082 H   0  0  0  0  0  0  0  0  0  0  0  0
   -4.5601   -0.4355    2.2382 H   0  0  0  0  0  0  0  0  0  0  0  0
   -5.8270   -1.6178    1.9097 H   0  0  0  0  0  0  0  0  0  0  0  0
   -5.7199   -0.1672    0.9036 H   0  0  0  0  0  0  0  0  0  0  0  0
   -3.8177    3.3392   -0.5049 H   0  0  0  0  0  0  0  0  0  0  0  0
   -0.2849    6.4460   -1.2077 H   0  0  0  0  0  0  0  0  0  0  0  0
    1.0839    5.3406   -1.0305 H   0  0  0  0  0  0  0  0  0  0  0  0
    0.2108    5.9073    0.4106 H   0  0  0  0  0  0  0  0  0  0  0  0
    1.5418   -1.2311   -0.0484 H   0  0  0  0  0  0  0  0  0  0  0  0
    1.4759   -0.7869    1.6743 H   0  0  0  0  0  0  0  0  0  0  0  0
    3.9271   -0.2392    1.6029 H   0  0  0  0  0  0  0  0  0  0  0  0
    3.5384   -1.9361    1.3076 H   0  0  0  0  0  0  0  0  0  0  0  0
    3.7907   -1.5921   -1.1491 H   0  0  0  0  0  0  0  0  0  0  0  0
    4.1047    0.1207   -0.8941 H   0  0  0  0  0  0  0  0  0  0  0  0
    6.1655   -0.4264    0.4066 H   0  0  0  0  0  0  0  0  0  0  0  0
    6.2055   -0.9706   -1.2668 H   0  0  0  0  0  0  0  0  0  0  0  0
    7.1290   -2.7193    0.1457 H   0  0  0  0  0  0  0  0  0  0  0  0
    5.5885   -3.2975   -0.5102 H   0  0  0  0  0  0  0  0  0  0  0  0
    5.6940   -2.7451    1.1743 H   0  0  0  0  0  0  0  0  0  0  0  0
  1  2  1  0
  2  3  1  0
  3  4  1  0
  4  5  2  0
  5  6  1  0
  6  7  2  0
  7  8  1  0
  7  9  1  0
  9 10  2  0
 10 11  1  0
  2 12  2  0
 12 13  1  0
 13 14  2  0
 14 15  1  0
 15 16  1  0
 15 17  1  0
 17 18  2  0
 18 19  1  0
 19 20  2  3
 20 21  1  0
 21 22  1  0
 22 23  1  0
 23 24  1  0
 24 25  1  0
 19  1  1  0
 10  4  1  0
 17 12  1  0
  1 26  1  0
  3 27  1  0
  5 28  1  0
  6 29  1  0
  9 30  1  0
 11 31  1  0
 11 32  1  0
 11 33  1  0
 13 34  1  0
 16 35  1  0
 16 36  1  0
 16 37  1  0
 21 38  1  0
 21 39  1  0
 22 40  1  0
 22 41  1  0
 23 42  1  0
 23 43  1  0
 24 44  1  0
 24 45  1  0
 25 46  1  0
 25 47  1  0
 25 48  1  0
M  END
>  <ScrubInfo>  (2) 
{"isomerGroup": 0, "isomerId": 1, "confId": 0, "nr_conformers:": 1, "nr_isomers:": 9}

$$$$
_i2
     RDKit          3D

 48 50  0  0  0  0  0  0  0  0999 V2000
   -1.0457   -0.8533   -0.2484 N   0  0  0  0  0  0  0  0  0  0  0  0
   -0.4222   -1.4588   -1.3142 C   0  0  0  0  0  0  0  0  0  0  0  0
    0.0288   -0.6341   -2.3056 N   0  0  0  0  0  0  0  0  0  0  0  0
    0.6730    0.6525   -2.0898 C   0  0  0  0  0  0  0  0  0  0  0  0
    2.0197    0.4783   -1.3866 C   0  0  0  0  0  0  0  0  0  0  0  0
    2.6934    1.8060   -1.0295 C   0  0  0  0  0  0  0  0  0  0  0  0
    3.1008    2.6294   -2.2516 C   0  0  0  0  0  0  0  0  0  0  0  0
    3.8634    3.8817   -1.8465 C   0  0  0  0  0  0  0  0  0  0  0  0
   -0.2423   -2.7529   -1.4260 N   0  0  0  0  0  0  0  0  0  0  0  0
   -0.7356   -3.4203   -0.3442 C   0  0  0  0  0  0  0  0  0  0  0  0
   -1.3627   -2.8939    0.7683 C   0  0  0  0  0  0  0  0  0  0  0  0
   -1.6663   -3.9948    1.5798 C   0  0  0  0  0  0  0  0  0  0  0  0
   -1.2644   -5.1511    1.0352 N   0  0  0  0  0  0  0  0  0  0  0  0
   -0.7034   -4.7721   -0.1409 N   0  0  0  0  0  0  0  0  0  0  0  0
   -0.1539   -5.7757   -1.0165 C   0  0  0  0  0  0  0  0  0  0  0  0
   -1.5659   -1.4721    0.8676 C   0  0  0  0  0  0  0  0  0  0  0  0
   -2.1654   -0.9952    1.9076 N   0  0  0  0  0  0  0  0  0  0  0  0
   -2.3372    0.3942    1.9803 C   0  0  0  0  0  0  0  0  0  0  0  0
   -3.5349    0.9517    1.5162 C   0  0  0  0  0  0  0  0  0  0  0  0
   -3.7384    2.3319    1.5499 C   0  0  0  0  0  0  0  0  0  0  0  0
   -2.7421    3.1604    2.0571 C   0  0  0  0  0  0  0  0  0  0  0  0
   -2.9808    4.8637    2.0875 Cl  0  0  0  0  0  0  0  0  0  0  0  0
   -1.5504    2.6197    2.5401 C   0  0  0  0  0  0  0  0  0  0  0  0
   -1.3426    1.2309    2.5205 C   0  0  0  0  0  0  0  0  0  0  0  0
   -0.0542    0.6626    3.0468 C   0  0  0  0  0  0  0  0  0  0  0  0
   -1.2539    0.1253   -0.3411 H   0  0  0  0  0  0  0  0  0  0  0  0
    0.5056   -1.1899   -3.0133 H   0  0  0  0  0  0  0  0  0  0  0  0
    0.8182    1.1189   -3.0698 H   0  0  0  0  0  0  0  0  0  0  0  0
    0.0205    1.3217   -1.5189 H   0  0  0  0  0  0  0  0  0  0  0  0
    2.6903   -0.1223   -2.0138 H   0  0  0  0  0  0  0  0  0  0  0  0
    1.8793   -0.0882   -0.4575 H   0  0  0  0  0  0  0  0  0  0  0  0
    3.5867    1.5857   -0.4318 H   0  0  0  0  0  0  0  0  0  0  0  0
    2.0250    2.3961   -0.3905 H   0  0  0  0  0  0  0  0  0  0  0  0
    3.7291    2.0252   -2.9160 H   0  0  0  0  0  0  0  0  0  0  0  0
    2.2151    2.9289   -2.8220 H   0  0  0  0  0  0  0  0  0  0  0  0
    4.1426    4.4588   -2.7336 H   0  0  0  0  0  0  0  0  0  0  0  0
    3.2519    4.5221   -1.2029 H   0  0  0  0  0  0  0  0  0  0  0  0
    4.7802    3.6256   -1.3060 H   0  0  0  0  0  0  0  0  0  0  0  0
   -2.1615   -4.0055    2.5421 H   0  0  0  0  0  0  0  0  0  0  0  0
    0.2379   -5.3101   -1.9234 H   0  0  0  0  0  0  0  0  0  0  0  0
    0.6517   -6.2900   -0.4864 H   0  0  0  0  0  0  0  0  0  0  0  0
   -0.9496   -6.4786   -1.2763 H   0  0  0  0  0  0  0  0  0  0  0  0
   -4.3145    0.3000    1.1281 H   0  0  0  0  0  0  0  0  0  0  0  0
   -4.6731    2.7487    1.1849 H   0  0  0  0  0  0  0  0  0  0  0  0
   -0.7857    3.2801    2.9430 H   0  0  0  0  0  0  0  0  0  0  0  0
   -0.2463   -0.1964    3.6979 H   0  0  0  0  0  0  0  0  0  0  0  0
    0.4919    1.4017    3.6427 H   0  0  0  0  0  0  0  0  0  0  0  0
    0.5881    0.3533    2.2164 H   0  0  0  0  0  0  0  0  0  0  0  0
  1  2  1  0
  2  3  1  0
  3  4  1  0
  4  5  1  0
  5  6  1  0
  6  7  1  0
  7  8  1  0
  2  9  2  0
  9 10  1  0
 10 11  2  0
 11 12  1  0
 12 13  2  0
 13 14  1  0
 14 15  1  0
 11 16  1  0
 16 17  2  3
 17 18  1  0
 18 19  2  0
 19 20  1  0
 20 21  2  0
 21 22  1  0
 21 23  1  0
 23 24  2  0
 24 25  1  0
 16  1  1  0
 24 18  1  0
 14 10  1  0
  1 26  1  0
  3 27  1  0
  4 28  1  0
  4 29  1  0
  5 30  1  0
  5 31  1  0
  6 32  1  0
  6 33  1  0
  7 34  1  0
  7 35  1  0
  8 36  1  0
  8 37  1  0
  8 38  1  0
 12 39  1  0
 15 40  1  0
 15 41  1  0
 15 42  1  0
 19 43  1  0
 20 44  1  0
 23 45  1  0
 25 46  1  0
 25 47  1  0
 25 48  1  0
M  END
>  <ScrubInfo>  (3) 
{"isomerGroup": 0, "isomerId": 2, "confId": 0, "nr_conformers:": 1, "nr_isomers:": 9}

$$$$
_i3
     RDKit          3D

 48 50  0  0  0  0  0  0  0  0999 V2000
    0.8926   -0.9164    0.7283 N   0  0  0  0  0  0  0  0  0  0  0  0
    0.4970    0.3906    0.5023 C   0  0  0  0  0  0  0  0  0  0  0  0
    1.2654    1.4169    0.4153 N   0  0  0  0  0  0  0  0  0  0  0  0
    2.7073    1.2985    0.5837 C   0  0  0  0  0  0  0  0  0  0  0  0
    3.3591    0.9502   -0.7538 C   0  0  0  0  0  0  0  0  0  0  0  0
    4.8882    0.9211   -0.6955 C   0  0  0  0  0  0  0  0  0  0  0  0
    5.4376   -0.2175    0.1653 C   0  0  0  0  0  0  0  0  0  0  0  0
    6.9562   -0.2769    0.1020 C   0  0  0  0  0  0  0  0  0  0  0  0
   -0.8400    0.7095    0.3360 N   0  0  0  0  0  0  0  0  0  0  0  0
   -1.7613   -0.2066    0.3728 C   0  0  0  0  0  0  0  0  0  0  0  0
   -3.1206   -0.0512    0.2310 N   0  0  0  0  0  0  0  0  0  0  0  0
   -3.8641    1.1127   -0.0690 C   0  0  0  0  0  0  0  0  0  0  0  0
   -3.2566    2.3337   -0.4043 C   0  0  0  0  0  0  0  0  0  0  0  0
   -4.0095    3.4805   -0.6796 C   0  0  0  0  0  0  0  0  0  0  0  0
   -5.3935    3.4278   -0.6177 C   0  0  0  0  0  0  0  0  0  0  0  0
   -6.3247    4.8332   -0.9570 Cl  0  0  0  0  0  0  0  0  0  0  0  0
   -6.0300    2.2382   -0.2790 C   0  0  0  0  0  0  0  0  0  0  0  0
   -5.2809    1.0788    0.0031 C   0  0  0  0  0  0  0  0  0  0  0  0
   -6.0328   -0.1728    0.3762 C   0  0  0  0  0  0  0  0  0  0  0  0
   -1.3760   -1.5894    0.5976 C   0  0  0  0  0  0  0  0  0  0  0  0
   -2.0030   -2.8428    0.7017 C   0  0  0  0  0  0  0  0  0  0  0  0
   -1.1302   -3.8378    0.9196 N   0  0  0  0  0  0  0  0  0  0  0  0
    0.0719   -3.2130    0.9544 N   0  0  0  0  0  0  0  0  0  0  0  0
    1.2620   -3.9949    1.1747 C   0  0  0  0  0  0  0  0  0  0  0  0
   -0.0481   -1.8732    0.7656 C   0  0  0  0  0  0  0  0  0  0  0  0
    1.8812   -1.0945    0.8101 H   0  0  0  0  0  0  0  0  0  0  0  0
    2.9675    0.5820    1.3694 H   0  0  0  0  0  0  0  0  0  0  0  0
    3.0849    2.2681    0.9291 H   0  0  0  0  0  0  0  0  0  0  0  0
    2.9874   -0.0152   -1.1178 H   0  0  0  0  0  0  0  0  0  0  0  0
    3.0552    1.6950   -1.5005 H   0  0  0  0  0  0  0  0  0  0  0  0
    5.2622    1.8827   -0.3237 H   0  0  0  0  0  0  0  0  0  0  0  0
    5.2670    0.8098   -1.7191 H   0  0  0  0  0  0  0  0  0  0  0  0
    5.1361   -0.0862    1.2098 H   0  0  0  0  0  0  0  0  0  0  0  0
    5.0261   -1.1746   -0.1754 H   0  0  0  0  0  0  0  0  0  0  0  0
    7.3297   -1.0948    0.7261 H   0  0  0  0  0  0  0  0  0  0  0  0
    7.3002   -0.4481   -0.9230 H   0  0  0  0  0  0  0  0  0  0  0  0
    7.4004    0.6563    0.4628 H   0  0  0  0  0  0  0  0  0  0  0  0
   -3.6874   -0.8802    0.3080 H   0  0  0  0  0  0  0  0  0  0  0  0
   -2.1759    2.4273   -0.4711 H   0  0  0  0  0  0  0  0  0  0  0  0
   -3.4994    4.4043   -0.9390 H   0  0  0  0  0  0  0  0  0  0  0  0
   -7.1163    2.2134   -0.2295 H   0  0  0  0  0  0  0  0  0  0  0  0
   -7.1125    0.0033    0.4296 H   0  0  0  0  0  0  0  0  0  0  0  0
   -5.7128   -0.5298    1.3605 H   0  0  0  0  0  0  0  0  0  0  0  0
   -5.8629   -0.9534   -0.3723 H   0  0  0  0  0  0  0  0  0  0  0  0
   -3.0528   -3.0933    0.6298 H   0  0  0  0  0  0  0  0  0  0  0  0
    2.1391   -3.3447    1.1873 H   0  0  0  0  0  0  0  0  0  0  0  0
    1.3512   -4.7216    0.3633 H   0  0  0  0  0  0  0  0  0  0  0  0
    1.1658   -4.5050    2.1365 H   0  0  0  0  0  0  0  0  0  0  0  0
  1  2  1  0
  2  3  2  3
  3  4  1  0
  4  5  1  0
  5  6  1  0
  6  7  1  0
  7  8  1  0
  2  9  1  0
  9 10  2  0
 10 11  1  0
 11 12  1  0
 12 13  2  0
 13 14  1  0
 14 15  2  0
 15 16  1  0
 15 17  1  0
 17 18  2  0
 18 19  1  0
 10 20  1  0
 20 21  1  0
 21 22  2  0
 22 23  1  0
 23 24  1  0
 23 25  1  0
 25  1  1  0
 18 12  1  0
 25 20  2  0
  1 26  1  0
  4 27  1  0
  4 28  1  0
  5 29  1  0
  5 30  1  0
  6 31  1  0
  6 32  1  0
  7 33  1  0
  7 34  1  0
  8 35  1  0
  8 36  1  0
  8 37  1  0
 11 38  1  0
 13 39  1  0
 14 40  1  0
 17 41  1  0
 19 42  1  0
 19 43  1  0
 19 44  1  0
 21 45  1  0
 24 46  1  0
 24 47  1  0
 24 48  1  0
M  END
>  <ScrubInfo>  (4) 
{"isomerGroup": 0, "isomerId": 3, "confId": 0, "nr_conformers:": 1, "nr_isomers:": 9}

$$$$
_i4
     RDKit          3D

 48 50  0  0  0  0  0  0  0  0999 V2000
   -1.7381   -4.3177   -1.4191 N   0  0  0  0  0  0  0  0  0  0  0  0
   -2.4824   -3.1471   -1.5291 C   0  0  0  0  0  0  0  0  0  0  0  0
   -1.8763   -2.0922   -0.9695 C   0  0  0  0  0  0  0  0  0  0  0  0
   -2.1319   -0.6801   -0.8101 C   0  0  0  0  0  0  0  0  0  0  0  0
   -3.2275   -0.1253   -1.2273 N   0  0  0  0  0  0  0  0  0  0  0  0
   -3.3938    1.2554   -1.0351 C   0  0  0  0  0  0  0  0  0  0  0  0
   -2.9737    2.1364   -2.0403 C   0  0  0  0  0  0  0  0  0  0  0  0
   -3.1380    3.5147   -1.8964 C   0  0  0  0  0  0  0  0  0  0  0  0
   -3.7343    4.0172   -0.7441 C   0  0  0  0  0  0  0  0  0  0  0  0
   -3.9327    5.7166   -0.5573 Cl  0  0  0  0  0  0  0  0  0  0  0  0
   -4.1749    3.1543    0.2591 C   0  0  0  0  0  0  0  0  0  0  0  0
   -4.0215    1.7653    0.1169 C   0  0  0  0  0  0  0  0  0  0  0  0
   -4.4931    0.8457    1.2071 C   0  0  0  0  0  0  0  0  0  0  0  0
   -1.1236    0.0108   -0.1921 N   0  0  0  0  0  0  0  0  0  0  0  0
   -0.0450   -0.5717    0.2482 C   0  0  0  0  0  0  0  0  0  0  0  0
    0.8701    0.2460    0.8444 N   0  0  0  0  0  0  0  0  0  0  0  0
    2.2704   -0.0979    0.9636 C   0  0  0  0  0  0  0  0  0  0  0  0
    2.9979    0.9851    1.7602 C   0  0  0  0  0  0  0  0  0  0  0  0
    4.4619    0.6460    2.0543 C   0  0  0  0  0  0  0  0  0  0  0  0
    5.3520    0.4309    0.8279 C   0  0  0  0  0  0  0  0  0  0  0  0
    5.4296    1.6430   -0.0869 C   0  0  0  0  0  0  0  0  0  0  0  0
    0.2337   -1.9123    0.1572 N   0  0  0  0  0  0  0  0  0  0  0  0
   -0.6465   -2.6624   -0.4080 C   0  0  0  0  0  0  0  0  0  0  0  0
   -0.6348   -4.0434   -0.6130 N   0  0  0  0  0  0  0  0  0  0  0  0
    0.6069   -4.7523   -0.8521 C   0  0  0  0  0  0  0  0  0  0  0  0
   -2.3012   -5.1276   -1.1487 H   0  0  0  0  0  0  0  0  0  0  0  0
   -3.4420   -3.1649   -2.0266 H   0  0  0  0  0  0  0  0  0  0  0  0
   -2.5097    1.7380   -2.9383 H   0  0  0  0  0  0  0  0  0  0  0  0
   -2.7996    4.1831   -2.6825 H   0  0  0  0  0  0  0  0  0  0  0  0
   -4.6411    3.5618    1.1526 H   0  0  0  0  0  0  0  0  0  0  0  0
   -5.1179    1.3760    1.9337 H   0  0  0  0  0  0  0  0  0  0  0  0
   -5.0993    0.0338    0.7923 H   0  0  0  0  0  0  0  0  0  0  0  0
   -3.6365    0.4233    1.7417 H   0  0  0  0  0  0  0  0  0  0  0  0
    0.6605    1.2224    0.6729 H   0  0  0  0  0  0  0  0  0  0  0  0
    2.3803   -1.0611    1.4748 H   0  0  0  0  0  0  0  0  0  0  0  0
    2.7037   -0.1914   -0.0378 H   0  0  0  0  0  0  0  0  0  0  0  0
    2.4827    1.1330    2.7186 H   0  0  0  0  0  0  0  0  0  0  0  0
    2.9306    1.9450    1.2342 H   0  0  0  0  0  0  0  0  0  0  0  0
    4.4993   -0.2593    2.6730 H   0  0  0  0  0  0  0  0  0  0  0  0
    4.8878    1.4525    2.6643 H   0  0  0  0  0  0  0  0  0  0  0  0
    6.3644    0.1920    1.1758 H   0  0  0  0  0  0  0  0  0  0  0  0
    5.0103   -0.4385    0.2558 H   0  0  0  0  0  0  0  0  0  0  0  0
    6.1559    1.4642   -0.8862 H   0  0  0  0  0  0  0  0  0  0  0  0
    4.4646    1.8524   -0.5577 H   0  0  0  0  0  0  0  0  0  0  0  0
    5.7466    2.5330    0.4658 H   0  0  0  0  0  0  0  0  0  0  0  0
    1.0594   -4.4367   -1.7979 H   0  0  0  0  0  0  0  0  0  0  0  0
    0.4271   -5.8314   -0.8953 H   0  0  0  0  0  0  0  0  0  0  0  0
    1.3197   -4.5646   -0.0428 H   0  0  0  0  0  0  0  0  0  0  0  0
  1  2  1  0
  2  3  2  0
  3  4  1  0
  4  5  2  3
  5  6  1  0
  6  7  2  0
  7  8  1  0
  8  9  2  0
  9 10  1  0
  9 11  1  0
 11 12  2  0
 12 13  1  0
  4 14  1  0
 14 15  2  0
 15 16  1  0
 16 17  1  0
 17 18  1  0
 18 19  1  0
 19 20  1  0
 20 21  1  0
 15 22  1  0
 22 23  2  0
 23 24  1  0
 24 25  1  0
 24  1  1  0
 23  3  1  0
 12  6  1  0
  1 26  1  0
  2 27  1  0
  7 28  1  0
  8 29  1  0
 11 30  1  0
 13 31  1  0
 13 32  1  0
 13 33  1  0
 16 34  1  0
 17 35  1  0
 17 36  1  0
 18 37  1  0
 18 38  1  0
 19 39  1  0
 19 40  1  0
 20 41  1  0
 20 42  1  0
 21 43  1  0
 21 44  1  0
 21 45  1  0
 25 46  1  0
 25 47  1  0
 25 48  1  0
M  END
>  <ScrubInfo>  (5) 
{"isomerGroup": 0, "isomerId": 4, "confId": 0, "nr_conformers:": 1, "nr_isomers:": 9}

$$$$
_i5
     RDKit          3D

 48 50  0  0  0  0  0  0  0  0999 V2000
   -0.4002   -1.4599   -1.6537 N   0  0  0  0  0  0  0  0  0  0  0  0
   -0.1380   -0.4973   -0.7059 C   0  0  0  0  0  0  0  0  0  0  0  0
   -1.2387    0.0359   -0.0983 N   0  0  0  0  0  0  0  0  0  0  0  0
   -2.3337    0.6109   -0.8694 C   0  0  0  0  0  0  0  0  0  0  0  0
   -3.4292    1.1302    0.0639 C   0  0  0  0  0  0  0  0  0  0  0  0
   -4.1357    0.0006    0.8211 C   0  0  0  0  0  0  0  0  0  0  0  0
   -5.3327    0.4819    1.6445 C   0  0  0  0  0  0  0  0  0  0  0  0
   -4.9485    1.4029    2.7921 C   0  0  0  0  0  0  0  0  0  0  0  0
    1.0463   -0.0847   -0.3452 N   0  0  0  0  0  0  0  0  0  0  0  0
    2.1670   -0.6340   -0.9558 C   0  0  0  0  0  0  0  0  0  0  0  0
    3.3862   -0.2827   -0.6970 N   0  0  0  0  0  0  0  0  0  0  0  0
    3.5959    0.7208    0.2608 C   0  0  0  0  0  0  0  0  0  0  0  0
    3.6423    2.0586   -0.1534 C   0  0  0  0  0  0  0  0  0  0  0  0
    3.8674    3.0835    0.7667 C   0  0  0  0  0  0  0  0  0  0  0  0
    4.0572    2.7701    2.1090 C   0  0  0  0  0  0  0  0  0  0  0  0
    4.3269    4.0303    3.2498 Cl  0  0  0  0  0  0  0  0  0  0  0  0
    4.0334    1.4427    2.5364 C   0  0  0  0  0  0  0  0  0  0  0  0
    3.8162    0.4054    1.6147 C   0  0  0  0  0  0  0  0  0  0  0  0
    3.7887   -1.0209    2.0859 C   0  0  0  0  0  0  0  0  0  0  0  0
    1.9411   -1.6677   -1.9332 C   0  0  0  0  0  0  0  0  0  0  0  0
    2.7451   -2.4913   -2.7319 C   0  0  0  0  0  0  0  0  0  0  0  0
    2.0186   -3.3359   -3.4833 N   0  0  0  0  0  0  0  0  0  0  0  0
    0.7358   -3.0417   -3.1533 N   0  0  0  0  0  0  0  0  0  0  0  0
   -0.3345   -3.7702   -3.7844 C   0  0  0  0  0  0  0  0  0  0  0  0
    0.6617   -2.0424   -2.2364 C   0  0  0  0  0  0  0  0  0  0  0  0
   -1.3372   -1.8378   -1.6799 H   0  0  0  0  0  0  0  0  0  0  0  0
   -0.9098    0.6970    0.6050 H   0  0  0  0  0  0  0  0  0  0  0  0
   -2.7578   -0.1277   -1.5584 H   0  0  0  0  0  0  0  0  0  0  0  0
   -1.9500    1.4437   -1.4702 H   0  0  0  0  0  0  0  0  0  0  0  0
   -2.9954    1.8453    0.7723 H   0  0  0  0  0  0  0  0  0  0  0  0
   -4.1666    1.6768   -0.5364 H   0  0  0  0  0  0  0  0  0  0  0  0
   -3.4257   -0.5135    1.4797 H   0  0  0  0  0  0  0  0  0  0  0  0
   -4.4942   -0.7443    0.0998 H   0  0  0  0  0  0  0  0  0  0  0  0
   -6.0536    0.9905    0.9939 H   0  0  0  0  0  0  0  0  0  0  0  0
   -5.8441   -0.3953    2.0586 H   0  0  0  0  0  0  0  0  0  0  0  0
   -5.8298    1.6340    3.3991 H   0  0  0  0  0  0  0  0  0  0  0  0
   -4.2040    0.9321    3.4418 H   0  0  0  0  0  0  0  0  0  0  0  0
   -4.5409    2.3502    2.4274 H   0  0  0  0  0  0  0  0  0  0  0  0
    3.4959    2.2972   -1.2033 H   0  0  0  0  0  0  0  0  0  0  0  0
    3.8931    4.1152    0.4291 H   0  0  0  0  0  0  0  0  0  0  0  0
    4.1876    1.2133    3.5878 H   0  0  0  0  0  0  0  0  0  0  0  0
    2.7672   -1.4122    2.0465 H   0  0  0  0  0  0  0  0  0  0  0  0
    4.1443   -1.1071    3.1182 H   0  0  0  0  0  0  0  0  0  0  0  0
    4.4413   -1.6444    1.4662 H   0  0  0  0  0  0  0  0  0  0  0  0
    3.8254   -2.5186   -2.7964 H   0  0  0  0  0  0  0  0  0  0  0  0
   -0.2300   -3.6697   -4.8678 H   0  0  0  0  0  0  0  0  0  0  0  0
   -0.2570   -4.8193   -3.4883 H   0  0  0  0  0  0  0  0  0  0  0  0
   -1.2978   -3.3646   -3.4683 H   0  0  0  0  0  0  0  0  0  0  0  0
  1  2  1  0
  2  3  1  0
  3  4  1  0
  4  5  1  0
  5  6  1  0
  6  7  1  0
  7  8  1  0
  2  9  2  0
  9 10  1  0
 10 11  2  3
 11 12  1  0
 12 13  2  0
 13 14  1  0
 14 15  2  0
 15 16  1  0
 15 17  1  0
 17 18  2  0
 18 19  1  0
 10 20  1  0
 20 21  1  0
 21 22  2  0
 22 23  1  0
 23 24  1  0
 23 25  1  0
 25  1  1  0
 18 12  1  0
 25 20  2  0
  1 26  1  0
  3 27  1  0
  4 28  1  0
  4 29  1  0
  5 30  1  0
  5 31  1  0
  6 32  1  0
  6 33  1  0
  7 34  1  0
  7 35  1  0
  8 36  1  0
  8 37  1  0
  8 38  1  0
 13 39  1  0
 14 40  1  0
 17 41  1  0
 19 42  1  0
 19 43  1  0
 19 44  1  0
 21 45  1  0
 24 46  1  0
 24 47  1  0
 24 48  1  0
M  END
>  <ScrubInfo>  (6) 
{"isomerGroup": 0, "isomerId": 5, "confId": 0, "nr_conformers:": 1, "nr_isomers:": 9}

$$$$
_i6
     RDKit          3D

 48 50  0  0  0  0  0  0  0  0999 V2000
   -3.0913    3.4566   -0.7249 N   0  0  0  0  0  0  0  0  0  0  0  0
   -3.0666    2.0696   -0.8248 C   0  0  0  0  0  0  0  0  0  0  0  0
   -1.8353    1.5582   -0.6929 C   0  0  0  0  0  0  0  0  0  0  0  0
   -1.1794    0.2523   -0.6801 C   0  0  0  0  0  0  0  0  0  0  0  0
   -1.8439   -0.9414   -0.8698 N   0  0  0  0  0  0  0  0  0  0  0  0
   -3.0212   -1.3135   -0.1733 C   0  0  0  0  0  0  0  0  0  0  0  0
   -3.2758   -0.8627    1.1325 C   0  0  0  0  0  0  0  0  0  0  0  0
   -4.4104   -1.2853    1.8292 C   0  0  0  0  0  0  0  0  0  0  0  0
   -5.2899   -2.1826    1.2344 C   0  0  0  0  0  0  0  0  0  0  0  0
   -6.6873   -2.7054    2.0902 Cl  0  0  0  0  0  0  0  0  0  0  0  0
   -5.0397   -2.6683   -0.0473 C   0  0  0  0  0  0  0  0  0  0  0  0
   -3.9022   -2.2484   -0.7574 C   0  0  0  0  0  0  0  0  0  0  0  0
   -3.6527   -2.7925   -2.1385 C   0  0  0  0  0  0  0  0  0  0  0  0
    0.1141    0.2094   -0.5122 N   0  0  0  0  0  0  0  0  0  0  0  0
    0.8007    1.3917   -0.3122 C   0  0  0  0  0  0  0  0  0  0  0  0
    2.0588    1.3538   -0.0476 N   0  0  0  0  0  0  0  0  0  0  0  0
    2.7023    0.0456    0.0248 C   0  0  0  0  0  0  0  0  0  0  0  0
    4.1807    0.2612    0.3484 C   0  0  0  0  0  0  0  0  0  0  0  0
    4.9319   -1.0671    0.4430 C   0  0  0  0  0  0  0  0  0  0  0  0
    6.4095   -0.8484    0.7666 C   0  0  0  0  0  0  0  0  0  0  0  0
    7.1601   -2.1672    0.8615 C   0  0  0  0  0  0  0  0  0  0  0  0
    0.2830    2.6640   -0.3628 N   0  0  0  0  0  0  0  0  0  0  0  0
   -0.9846    2.7593   -0.5620 C   0  0  0  0  0  0  0  0  0  0  0  0
   -1.7744    3.9029   -0.6799 N   0  0  0  0  0  0  0  0  0  0  0  0
   -1.4555    5.1098    0.0581 C   0  0  0  0  0  0  0  0  0  0  0  0
   -3.6916    3.9040   -1.4218 H   0  0  0  0  0  0  0  0  0  0  0  0
   -3.9915    1.5370   -0.9953 H   0  0  0  0  0  0  0  0  0  0  0  0
   -1.1815   -1.7147   -0.8409 H   0  0  0  0  0  0  0  0  0  0  0  0
   -2.5865   -0.1859    1.6330 H   0  0  0  0  0  0  0  0  0  0  0  0
   -4.5927   -0.9184    2.8359 H   0  0  0  0  0  0  0  0  0  0  0  0
   -5.7315   -3.3789   -0.4943 H   0  0  0  0  0  0  0  0  0  0  0  0
   -2.7113   -3.3508   -2.1618 H   0  0  0  0  0  0  0  0  0  0  0  0
   -4.4503   -3.4741   -2.4525 H   0  0  0  0  0  0  0  0  0  0  0  0
   -3.6115   -1.9758   -2.8665 H   0  0  0  0  0  0  0  0  0  0  0  0
    2.6160   -0.4824   -0.9327 H   0  0  0  0  0  0  0  0  0  0  0  0
    2.2467   -0.5675    0.8120 H   0  0  0  0  0  0  0  0  0  0  0  0
    4.6371    0.8919   -0.4249 H   0  0  0  0  0  0  0  0  0  0  0  0
    4.2729    0.8083    1.2951 H   0  0  0  0  0  0  0  0  0  0  0  0
    4.4746   -1.6934    1.2187 H   0  0  0  0  0  0  0  0  0  0  0  0
    4.8400   -1.6096   -0.5059 H   0  0  0  0  0  0  0  0  0  0  0  0
    6.5071   -0.3100    1.7165 H   0  0  0  0  0  0  0  0  0  0  0  0
    6.8725   -0.2262   -0.0082 H   0  0  0  0  0  0  0  0  0  0  0  0
    7.1093   -2.7165   -0.0840 H   0  0  0  0  0  0  0  0  0  0  0  0
    6.7419   -2.8007    1.6503 H   0  0  0  0  0  0  0  0  0  0  0  0
    8.2145   -1.9873    1.0936 H   0  0  0  0  0  0  0  0  0  0  0  0
   -0.4299    5.4303   -0.1512 H   0  0  0  0  0  0  0  0  0  0  0  0
   -1.5589    4.9453    1.1357 H   0  0  0  0  0  0  0  0  0  0  0  0
   -2.1263    5.9238   -0.2354 H   0  0  0  0  0  0  0  0  0  0  0  0
  1  2  1  0
  2  3  2  0
  3  4  1  0
  4  5  1  0
  5  6  1  0
  6  7  2  0
  7  8  1  0
  8  9  2  0
  9 10  1  0
  9 11  1  0
 11 12  2  0
 12 13  1  0
  4 14  2  0
 14 15  1  0
 15 16  2  3
 16 17  1  0
 17 18  1  0
 18 19  1  0
 19 20  1  0
 20 21  1  0
 15 22  1  0
 22 23  2  0
 23 24  1  0
 24 25  1  0
 24  1  1  0
 23  3  1  0
 12  6  1  0
  1 26  1  0
  2 27  1  0
  5 28  1  0
  7 29  1  0
  8 30  1  0
 11 31  1  0
 13 32  1  0
 13 33  1  0
 13 34  1  0
 17 35  1  0
 17 36  1  0
 18 37  1  0
 18 38  1  0
 19 39  1  0
 19 40  1  0
 20 41  1  0
 20 42  1  0
 21 43  1  0
 21 44  1  0
 21 45  1  0
 25 46  1  0
 25 47  1  0
 25 48  1  0
M  END
>  <ScrubInfo>  (7) 
{"isomerGroup": 0, "isomerId": 6, "confId": 0, "nr_conformers:": 1, "nr_isomers:": 9}

$$$$
_i7
     RDKit          3D

 48 50  0  0  0  0  0  0  0  0999 V2000
   -1.6268   -4.0840    1.1284 N   0  0  0  0  0  0  0  0  0  0  0  0
   -2.4705   -2.9797    1.0811 C   0  0  0  0  0  0  0  0  0  0  0  0
   -1.8576   -1.8755    0.6390 C   0  0  0  0  0  0  0  0  0  0  0  0
   -2.1832   -0.4654    0.4142 C   0  0  0  0  0  0  0  0  0  0  0  0
   -3.3948   -0.0483    0.6326 N   0  0  0  0  0  0  0  0  0  0  0  0
   -3.6898    1.3054    0.4160 C   0  0  0  0  0  0  0  0  0  0  0  0
   -3.5447    2.2095    1.4756 C   0  0  0  0  0  0  0  0  0  0  0  0
   -3.8239    3.5653    1.2988 C   0  0  0  0  0  0  0  0  0  0  0  0
   -4.2591    4.0202    0.0578 C   0  0  0  0  0  0  0  0  0  0  0  0
   -4.5994    5.6914   -0.1678 Cl  0  0  0  0  0  0  0  0  0  0  0  0
   -4.4242    3.1301   -1.0034 C   0  0  0  0  0  0  0  0  0  0  0  0
   -4.1540    1.7627   -0.8308 C   0  0  0  0  0  0  0  0  0  0  0  0
   -4.3405    0.8131   -1.9806 C   0  0  0  0  0  0  0  0  0  0  0  0
   -1.0971    0.2528   -0.0172 N   0  0  0  0  0  0  0  0  0  0  0  0
    0.1659   -0.2278   -0.2407 C   0  0  0  0  0  0  0  0  0  0  0  0
    1.0742    0.6122   -0.6145 N   0  0  0  0  0  0  0  0  0  0  0  0
    2.4288    0.1188   -0.8733 C   0  0  0  0  0  0  0  0  0  0  0  0
    3.2590    0.1997    0.4071 C   0  0  0  0  0  0  0  0  0  0  0  0
    4.6672   -0.3825    0.2573 C   0  0  0  0  0  0  0  0  0  0  0  0
    5.5528    0.2858   -0.7969 C   0  0  0  0  0  0  0  0  0  0  0  0
    5.7944    1.7646   -0.5384 C   0  0  0  0  0  0  0  0  0  0  0  0
    0.4762   -1.5625   -0.0741 N   0  0  0  0  0  0  0  0  0  0  0  0
   -0.4736   -2.3494    0.3255 C   0  0  0  0  0  0  0  0  0  0  0  0
   -0.4111   -3.7279    0.5473 N   0  0  0  0  0  0  0  0  0  0  0  0
    0.8080   -4.3510    1.0262 C   0  0  0  0  0  0  0  0  0  0  0  0
   -2.0609   -4.9399    0.7750 H   0  0  0  0  0  0  0  0  0  0  0  0
   -3.5028   -3.0791    1.3862 H   0  0  0  0  0  0  0  0  0  0  0  0
   -3.2131    1.8492    2.4465 H   0  0  0  0  0  0  0  0  0  0  0  0
   -3.7038    4.2545    2.1301 H   0  0  0  0  0  0  0  0  0  0  0  0
   -4.7714    3.5005   -1.9653 H   0  0  0  0  0  0  0  0  0  0  0  0
   -4.8731    1.2903   -2.8100 H   0  0  0  0  0  0  0  0  0  0  0  0
   -3.3682    0.4753   -2.3525 H   0  0  0  0  0  0  0  0  0  0  0  0
   -4.9333   -0.0541   -1.6719 H   0  0  0  0  0  0  0  0  0  0  0  0
   -1.1988    1.2421   -0.1855 H   0  0  0  0  0  0  0  0  0  0  0  0
    2.4407   -0.8935   -1.2941 H   0  0  0  0  0  0  0  0  0  0  0  0
    2.8665    0.7657   -1.6415 H   0  0  0  0  0  0  0  0  0  0  0  0
    2.7492   -0.3504    1.2082 H   0  0  0  0  0  0  0  0  0  0  0  0
    3.3120    1.2401    0.7491 H   0  0  0  0  0  0  0  0  0  0  0  0
    4.5856   -1.4497    0.0161 H   0  0  0  0  0  0  0  0  0  0  0  0
    5.1703   -0.3253    1.2307 H   0  0  0  0  0  0  0  0  0  0  0  0
    5.1233    0.1538   -1.7960 H   0  0  0  0  0  0  0  0  0  0  0  0
    6.5216   -0.2283   -0.8077 H   0  0  0  0  0  0  0  0  0  0  0  0
    6.2028    1.9269    0.4640 H   0  0  0  0  0  0  0  0  0  0  0  0
    4.8719    2.3445   -0.6353 H   0  0  0  0  0  0  0  0  0  0  0  0
    6.5118    2.1604   -1.2645 H   0  0  0  0  0  0  0  0  0  0  0  0
    1.6470   -4.1170    0.3630 H   0  0  0  0  0  0  0  0  0  0  0  0
    0.6950   -5.4397    1.0503 H   0  0  0  0  0  0  0  0  0  0  0  0
    1.0515   -4.0038    2.0357 H   0  0  0  0  0  0  0  0  0  0  0  0
  1  2  1  0
  2  3  2  0
  3  4  1  0
  4  5  2  3
  5  6  1  0
  6  7  2  0
  7  8  1  0
  8  9  2  0
  9 10  1  0
  9 11  1  0
 11 12  2  0
 12 13  1  0
  4 14  1  0
 14 15  1  0
 15 16  2  3
 16 17  1  0
 17 18  1  0
 18 19  1  0
 19 20  1  0
 20 21  1  0
 15 22  1  0
 22 23  2  0
 23 24  1  0
 24 25  1  0
 24  1  1  0
 23  3  1  0
 12  6  1  0
  1 26  1  0
  2 27  1  0
  7 28  1  0
  8 29  1  0
 11 30  1  0
 13 31  1  0
 13 32  1  0
 13 33  1  0
 14 34  1  0
 17 35  1  0
 17 36  1  0
 18 37  1  0
 18 38  1  0
 19 39  1  0
 19 40  1  0
 20 41  1  0
 20 42  1  0
 21 43  1  0
 21 44  1  0
 21 45  1  0
 25 46  1  0
 25 47  1  0
 25 48  1  0
M  END
>  <ScrubInfo>  (8) 
{"isomerGroup": 0, "isomerId": 7, "confId": 0, "nr_conformers:": 1, "nr_isomers:": 9}

$$$$
_i8
     RDKit          3D

 48 50  0  0  0  0  0  0  0  0999 V2000
    0.7121   -0.7267    1.1054 N   0  0  0  0  0  0  0  0  0  0  0  0
    0.1693    0.4171    0.5378 C   0  0  0  0  0  0  0  0  0  0  0  0
    0.7897    1.4208    0.0174 N   0  0  0  0  0  0  0  0  0  0  0  0
    2.2501    1.4511    0.0023 C   0  0  0  0  0  0  0  0  0  0  0  0
    2.7702    0.7300   -1.2403 C   0  0  0  0  0  0  0  0  0  0  0  0
    4.2903    0.8119   -1.3987 C   0  0  0  0  0  0  0  0  0  0  0  0
    5.0518    0.0457   -0.3161 C   0  0  0  0  0  0  0  0  0  0  0  0
    6.5501    0.0591   -0.5777 C   0  0  0  0  0  0  0  0  0  0  0  0
   -1.2120    0.4380    0.5456 N   0  0  0  0  0  0  0  0  0  0  0  0
   -2.1314   -0.4776    1.0174 C   0  0  0  0  0  0  0  0  0  0  0  0
   -3.4233   -0.4639    1.0254 N   0  0  0  0  0  0  0  0  0  0  0  0
   -4.0734    0.6491    0.4748 C   0  0  0  0  0  0  0  0  0  0  0  0
   -4.3789    1.7361    1.3033 C   0  0  0  0  0  0  0  0  0  0  0  0
   -5.0208    2.8643    0.7907 C   0  0  0  0  0  0  0  0  0  0  0  0
   -5.3674    2.9041   -0.5564 C   0  0  0  0  0  0  0  0  0  0  0  0
   -6.1528    4.2950   -1.1954 Cl  0  0  0  0  0  0  0  0  0  0  0  0
   -5.0851    1.8230   -1.3914 C   0  0  0  0  0  0  0  0  0  0  0  0
   -4.4476    0.6804   -0.8811 C   0  0  0  0  0  0  0  0  0  0  0  0
   -4.1545   -0.4808   -1.7893 C   0  0  0  0  0  0  0  0  0  0  0  0
   -1.4652   -1.6262    1.5828 C   0  0  0  0  0  0  0  0  0  0  0  0
   -1.8851   -2.8207    2.1856 C   0  0  0  0  0  0  0  0  0  0  0  0
   -0.8524   -3.5933    2.5561 N   0  0  0  0  0  0  0  0  0  0  0  0
    0.2380   -2.8815    2.1801 N   0  0  0  0  0  0  0  0  0  0  0  0
    1.5466   -3.4282    2.4351 C   0  0  0  0  0  0  0  0  0  0  0  0
   -0.0936   -1.6957    1.5975 C   0  0  0  0  0  0  0  0  0  0  0  0
    1.7191   -0.8075    1.1082 H   0  0  0  0  0  0  0  0  0  0  0  0
    2.6730    1.0417    0.9254 H   0  0  0  0  0  0  0  0  0  0  0  0
    2.5622    2.5015   -0.0293 H   0  0  0  0  0  0  0  0  0  0  0  0
    2.4588   -0.3214   -1.2276 H   0  0  0  0  0  0  0  0  0  0  0  0
    2.3047    1.1752   -2.1290 H   0  0  0  0  0  0  0  0  0  0  0  0
    4.6053    1.8624   -1.4028 H   0  0  0  0  0  0  0  0  0  0  0  0
    4.5541    0.3996   -2.3807 H   0  0  0  0  0  0  0  0  0  0  0  0
    4.8648    0.4882    0.6680 H   0  0  0  0  0  0  0  0  0  0  0  0
    4.7029   -0.9928   -0.2787 H   0  0  0  0  0  0  0  0  0  0  0  0
    6.7855   -0.4124   -1.5372 H   0  0  0  0  0  0  0  0  0  0  0  0
    6.9362    1.0833   -0.5935 H   0  0  0  0  0  0  0  0  0  0  0  0
    7.0769   -0.4907    0.2086 H   0  0  0  0  0  0  0  0  0  0  0  0
   -1.5926    1.2736    0.1259 H   0  0  0  0  0  0  0  0  0  0  0  0
   -4.1155    1.6979    2.3576 H   0  0  0  0  0  0  0  0  0  0  0  0
   -5.2489    3.7003    1.4460 H   0  0  0  0  0  0  0  0  0  0  0  0
   -5.3693    1.8665   -2.4404 H   0  0  0  0  0  0  0  0  0  0  0  0
   -3.0788   -0.5489   -1.9795 H   0  0  0  0  0  0  0  0  0  0  0  0
   -4.6624   -0.3717   -2.7534 H   0  0  0  0  0  0  0  0  0  0  0  0
   -4.5051   -1.4170   -1.3429 H   0  0  0  0  0  0  0  0  0  0  0  0
   -2.8960   -3.1608    2.3708 H   0  0  0  0  0  0  0  0  0  0  0  0
    2.3059   -2.8344    1.9222 H   0  0  0  0  0  0  0  0  0  0  0  0
    1.5734   -4.4555    2.0624 H   0  0  0  0  0  0  0  0  0  0  0  0
    1.7208   -3.4083    3.5137 H   0  0  0  0  0  0  0  0  0  0  0  0
  1  2  1  0
  2  3  2  3
  3  4  1  0
  4  5  1  0
  5  6  1  0
  6  7  1  0
  7  8  1  0
  2  9  1  0
  9 10  1  0
 10 11  2  3
 11 12  1  0
 12 13  2  0
 13 14  1  0
 14 15  2  0
 15 16  1  0
 15 17  1  0
 17 18  2  0
 18 19  1  0
 10 20  1  0
 20 21  1  0
 21 22  2  0
 22 23  1  0
 23 24  1  0
 23 25  1  0
 25  1  1  0
 18 12  1  0
 25 20  2  0
  1 26  1  0
  4 27  1  0
  4 28  1  0
  5 29  1  0
  5 30  1  0
  6 31  1  0
  6 32  1  0
  7 33  1  0
  7 34  1  0
  8 35  1  0
  8 36  1  0
  8 37  1  0
  9 38  1  0
 13 39  1  0
 14 40  1  0
 17 41  1  0
 19 42  1  0
 19 43  1  0
 19 44  1  0
 21 45  1  0
 24 46  1  0
 24 47  1  0
 24 48  1  0
M  END
>  <ScrubInfo>  (9) 
{"isomerGroup": 0, "isomerId": 8, "confId": 0, "nr_conformers:": 1, "nr_isomers:": 9}

$$$$
