REMARK SMILES COCCCNc1nc(Nc2ccc(F)c(F)c2F)c2cnn(C)c2n1
REMARK SMILES IDX 5 1 4 2 3 3 2 4 1 5 6 6 7 8 8 9 26 10 9 11 25 12 20 13 23 14
REMARK SMILES IDX 21 15 22 16 24 17 10 18 11 20 12 21 18 22 13 23 16 24 14 25
REMARK SMILES IDX 19 26 17 27 15 28
REMARK H PARENT 6 7 10 19
ROOT
ATOM      1  C   UNL     1       2.625   0.552   0.182  1.00  0.00     0.118 C 
ENDROOT
BRANCH   1   2
ATOM      2  C   UNL     1       4.142   0.703   0.265  1.00  0.00     0.050 C 
BRANCH   2   3
ATOM      3  C   UNL     1       4.549   2.172   0.240  1.00  0.00     0.161 C 
BRANCH   3   4
ATOM      4  O   UNL     1       5.966   2.320   0.159  1.00  0.00    -0.385 OA
ATOM      5  C   UNL     1       6.623   2.144   1.408  1.00  0.00     0.194 C 
ENDBRANCH   3   4
ENDBRANCH   2   3
ENDBRANCH   1   2
BRANCH   1   6
ATOM      6  N   UNL     1       2.278  -0.857   0.256  1.00  0.00    -0.354 N 
ATOM      7  H   UNL     1       2.758  -1.462  -0.403  1.00  0.00     0.163 HD
BRANCH   6   8
ATOM      8  C   UNL     1       0.924  -1.134   0.112  1.00  0.00     0.226 A 
ATOM      9  N   UNL     1       0.012  -0.263   0.586  1.00  0.00    -0.195 NA
ATOM     10  N   UNL     1       0.650  -2.287  -0.510  1.00  0.00    -0.193 NA
ATOM     11  C   UNL     1      -1.314  -0.512   0.446  1.00  0.00     0.147 A 
ATOM     12  C   UNL     1      -0.665  -2.537  -0.591  1.00  0.00     0.165 A 
ATOM     13  C   UNL     1      -1.686  -1.723  -0.142  1.00  0.00     0.082 A 
ATOM     14  N   UNL     1      -1.269  -3.645  -1.119  1.00  0.00    -0.250 N 
ATOM     15  C   UNL     1      -2.860  -2.457  -0.411  1.00  0.00     0.149 A 
ATOM     16  N   UNL     1      -2.619  -3.617  -1.031  1.00  0.00    -0.179 NA
ATOM     17  C   UNL     1      -0.621  -4.788  -1.712  1.00  0.00     0.176 C 
BRANCH  11  18
ATOM     18  N   UNL     1      -2.188   0.441   0.977  1.00  0.00    -0.337 N 
ATOM     19  H   UNL     1      -1.661   1.086   1.564  1.00  0.00     0.168 HD
BRANCH  18  20
ATOM     20  C   UNL     1      -3.356   1.029   0.450  1.00  0.00     0.079 A 
ATOM     21  C   UNL     1      -3.839   0.773  -0.840  1.00  0.00     0.032 A 
ATOM     22  C   UNL     1      -4.114   1.878   1.278  1.00  0.00     0.185 A 
ATOM     23  C   UNL     1      -5.035   1.350  -1.286  1.00  0.00     0.045 A 
ATOM     24  C   UNL     1      -5.301   2.452   0.839  1.00  0.00     0.196 A 
ATOM     25  C   UNL     1      -5.758   2.184  -0.441  1.00  0.00     0.162 A 
ATOM     26  F   UNL     1      -3.674   2.147   2.519  1.00  0.00    -0.201 F 
ATOM     27  F   UNL     1      -5.998   3.261   1.649  1.00  0.00    -0.200 F 
ATOM     28  F   UNL     1      -6.900   2.731  -0.879  1.00  0.00    -0.204 F 
ENDBRANCH  18  20
ENDBRANCH  11  18
ENDBRANCH   6   8
ENDBRANCH   1   6
TORSDOF 7
