_i0
     RDKit          3D

 43 45  0  0  0  0  0  0  0  0999 V2000
    6.6226    2.1440    1.4079 C   0  0  0  0  0  0  0  0  0  0  0  0
    5.9663    2.3199    0.1592 O   0  0  0  0  0  0  0  0  0  0  0  0
    4.5493    2.1722    0.2396 C   0  0  0  0  0  0  0  0  0  0  0  0
    4.1418    0.7027    0.2646 C   0  0  0  0  0  0  0  0  0  0  0  0
    2.6250    0.5517    0.1825 C   0  0  0  0  0  0  0  0  0  0  0  0
    2.2784   -0.8568    0.2555 N   0  0  0  0  0  0  0  0  0  0  0  0
    0.9237   -1.1343    0.1122 C   0  0  0  0  0  0  0  0  0  0  0  0
    0.0121   -0.2625    0.5857 N   0  0  0  0  0  0  0  0  0  0  0  0
   -1.3138   -0.5118    0.4457 C   0  0  0  0  0  0  0  0  0  0  0  0
   -2.1879    0.4414    0.9767 N   0  0  0  0  0  0  0  0  0  0  0  0
   -3.3555    1.0293    0.4502 C   0  0  0  0  0  0  0  0  0  0  0  0
   -3.8393    0.7731   -0.8404 C   0  0  0  0  0  0  0  0  0  0  0  0
   -5.0351    1.3497   -1.2860 C   0  0  0  0  0  0  0  0  0  0  0  0
   -5.7584    2.1842   -0.4409 C   0  0  0  0  0  0  0  0  0  0  0  0
   -6.9000    2.7313   -0.8793 F   0  0  0  0  0  0  0  0  0  0  0  0
   -5.3012    2.4523    0.8391 C   0  0  0  0  0  0  0  0  0  0  0  0
   -5.9985    3.2614    1.6493 F   0  0  0  0  0  0  0  0  0  0  0  0
   -4.1140    1.8784    1.2780 C   0  0  0  0  0  0  0  0  0  0  0  0
   -3.6741    2.1466    2.5187 F   0  0  0  0  0  0  0  0  0  0  0  0
   -1.6864   -1.7227   -0.1419 C   0  0  0  0  0  0  0  0  0  0  0  0
   -2.8602   -2.4568   -0.4110 C   0  0  0  0  0  0  0  0  0  0  0  0
   -2.6192   -3.6174   -1.0313 N   0  0  0  0  0  0  0  0  0  0  0  0
   -1.2691   -3.6454   -1.1191 N   0  0  0  0  0  0  0  0  0  0  0  0
   -0.6205   -4.7880   -1.7115 C   0  0  0  0  0  0  0  0  0  0  0  0
   -0.6650   -2.5369   -0.5911 C   0  0  0  0  0  0  0  0  0  0  0  0
    0.6502   -2.2874   -0.5097 N   0  0  0  0  0  0  0  0  0  0  0  0
    7.6886    2.3400    1.2631 H   0  0  0  0  0  0  0  0  0  0  0  0
    6.5094    1.1187    1.7694 H   0  0  0  0  0  0  0  0  0  0  0  0
    6.2381    2.8515    2.1487 H   0  0  0  0  0  0  0  0  0  0  0  0
    4.1563    2.7160    1.1067 H   0  0  0  0  0  0  0  0  0  0  0  0
    4.1357    2.6485   -0.6561 H   0  0  0  0  0  0  0  0  0  0  0  0
    4.6247    0.1727   -0.5664 H   0  0  0  0  0  0  0  0  0  0  0  0
    4.5141    0.2223    1.1772 H   0  0  0  0  0  0  0  0  0  0  0  0
    2.1673    1.1024    1.0137 H   0  0  0  0  0  0  0  0  0  0  0  0
    2.2640    0.9860   -0.7584 H   0  0  0  0  0  0  0  0  0  0  0  0
    2.7583   -1.4617   -0.4031 H   0  0  0  0  0  0  0  0  0  0  0  0
   -1.6615    1.0863    1.5639 H   0  0  0  0  0  0  0  0  0  0  0  0
   -3.2838    0.1489   -1.5354 H   0  0  0  0  0  0  0  0  0  0  0  0
   -5.4020    1.1548   -2.2900 H   0  0  0  0  0  0  0  0  0  0  0  0
   -3.8845   -2.1930   -0.1814 H   0  0  0  0  0  0  0  0  0  0  0  0
    0.4589   -4.6262   -1.7533 H   0  0  0  0  0  0  0  0  0  0  0  0
   -1.0128   -4.9208   -2.7229 H   0  0  0  0  0  0  0  0  0  0  0  0
   -0.8419   -5.6646   -1.0974 H   0  0  0  0  0  0  0  0  0  0  0  0
  1  2  1  0
  2  3  1  0
  3  4  1  0
  4  5  1  0
  5  6  1  0
  6  7  1  0
  7  8  2  0
  8  9  1  0
  9 10  1  0
 10 11  1  0
 11 12  2  0
 12 13  1  0
 13 14  2  0
 14 15  1  0
 14 16  1  0
 16 17  1  0
 16 18  2  0
 18 19  1  0
  9 20  2  0
 20 21  1  0
 21 22  2  0
 22 23  1  0
 23 24  1  0
 23 25  1  0
 25 26  2  0
 26  7  1  0
 18 11  1  0
 25 20  1  0
  1 27  1  0
  1 28  1  0
  1 29  1  0
  3 30  1  0
  3 31  1  0
  4 32  1  0
  4 33  1  0
  5 34  1  0
  5 35  1  0
  6 36  1  0
 10 37  1  0
 12 38  1  0
 13 39  1  0
 21 40  1  0
 24 41  1  0
 24 42  1  0
 24 43  1  0
M  END
>  <ScrubInfo>  (1) 
{"isomerGroup": 0, "isomerId": 0, "confId": 0, "nr_conformers:": 1, "nr_isomers:": 9}

$$$$
_i1
     RDKit          3D

 43 45  0  0  0  0  0  0  0  0999 V2000
   -0.3562   -0.5164   -0.2125 N   0  0  0  0  0  0  0  0  0  0  0  0
   -1.4502   -0.8924    0.5493 C   0  0  0  0  0  0  0  0  0  0  0  0
   -2.4381   -0.0054    0.9312 N   0  0  0  0  0  0  0  0  0  0  0  0
   -2.8877    1.1798    0.3130 C   0  0  0  0  0  0  0  0  0  0  0  0
   -2.5794    1.5338   -1.0085 C   0  0  0  0  0  0  0  0  0  0  0  0
   -3.0167    2.7513   -1.5448 C   0  0  0  0  0  0  0  0  0  0  0  0
   -3.7620    3.6262   -0.7610 C   0  0  0  0  0  0  0  0  0  0  0  0
   -4.1748    4.7871   -1.2864 F   0  0  0  0  0  0  0  0  0  0  0  0
   -4.0803    3.2983    0.5470 C   0  0  0  0  0  0  0  0  0  0  0  0
   -4.8030    4.1408    1.2984 F   0  0  0  0  0  0  0  0  0  0  0  0
   -3.6456    2.0889    1.0752 C   0  0  0  0  0  0  0  0  0  0  0  0
   -3.9578    1.7708    2.3428 F   0  0  0  0  0  0  0  0  0  0  0  0
   -1.4594   -2.1752    0.9319 C   0  0  0  0  0  0  0  0  0  0  0  0
   -2.3350   -3.0827    1.6831 C   0  0  0  0  0  0  0  0  0  0  0  0
   -1.8877   -4.3117    1.7247 N   0  0  0  0  0  0  0  0  0  0  0  0
   -0.6613   -4.2825    1.0429 N   0  0  0  0  0  0  0  0  0  0  0  0
   -0.0281   -5.5248    0.6735 C   0  0  0  0  0  0  0  0  0  0  0  0
   -0.3478   -3.0478    0.4996 C   0  0  0  0  0  0  0  0  0  0  0  0
    0.6540   -2.6814   -0.2218 N   0  0  0  0  0  0  0  0  0  0  0  0
    0.6815   -1.3492   -0.5682 C   0  0  0  0  0  0  0  0  0  0  0  0
    1.7431   -1.0169   -1.2096 N   0  0  0  0  0  0  0  0  0  0  0  0
    1.9448    0.3442   -1.6828 C   0  0  0  0  0  0  0  0  0  0  0  0
    2.5968    1.2103   -0.6111 C   0  0  0  0  0  0  0  0  0  0  0  0
    3.9650    0.6862   -0.1806 C   0  0  0  0  0  0  0  0  0  0  0  0
    4.5539    1.5736    0.7747 O   0  0  0  0  0  0  0  0  0  0  0  0
    5.3201    2.6067    0.1705 C   0  0  0  0  0  0  0  0  0  0  0  0
   -0.2124    0.4770   -0.2919 H   0  0  0  0  0  0  0  0  0  0  0  0
   -3.0193   -0.2882    1.7188 H   0  0  0  0  0  0  0  0  0  0  0  0
   -2.0330    0.8550   -1.6591 H   0  0  0  0  0  0  0  0  0  0  0  0
   -2.7874    3.0171   -2.5733 H   0  0  0  0  0  0  0  0  0  0  0  0
   -3.2743   -2.7292    2.1267 H   0  0  0  0  0  0  0  0  0  0  0  0
   -0.2099   -6.2936    1.4315 H   0  0  0  0  0  0  0  0  0  0  0  0
    1.0553   -5.3986    0.5800 H   0  0  0  0  0  0  0  0  0  0  0  0
   -0.4214   -5.8822   -0.2831 H   0  0  0  0  0  0  0  0  0  0  0  0
    1.0096    0.8017   -2.0267 H   0  0  0  0  0  0  0  0  0  0  0  0
    2.5941    0.3058   -2.5654 H   0  0  0  0  0  0  0  0  0  0  0  0
    2.6932    2.2323   -0.9950 H   0  0  0  0  0  0  0  0  0  0  0  0
    1.9514    1.2870    0.2724 H   0  0  0  0  0  0  0  0  0  0  0  0
    4.6335    0.5379   -1.0369 H   0  0  0  0  0  0  0  0  0  0  0  0
    3.8508   -0.2814    0.3192 H   0  0  0  0  0  0  0  0  0  0  0  0
    4.7007    3.2241   -0.4856 H   0  0  0  0  0  0  0  0  0  0  0  0
    5.7239    3.2418    0.9637 H   0  0  0  0  0  0  0  0  0  0  0  0
    6.1570    2.1818   -0.3921 H   0  0  0  0  0  0  0  0  0  0  0  0
  1  2  1  0
  2  3  1  0
  3  4  1  0
  4  5  2  0
  5  6  1  0
  6  7  2  0
  7  8  1  0
  7  9  1  0
  9 10  1  0
  9 11  2  0
 11 12  1  0
  2 13  2  0
 13 14  1  0
 14 15  2  0
 15 16  1  0
 16 17  1  0
 16 18  1  0
 18 19  2  0
 19 20  1  0
 20 21  2  3
 21 22  1  0
 22 23  1  0
 23 24  1  0
 24 25  1  0
 25 26  1  0
 20  1  1  0
 11  4  1  0
 18 13  1  0
  1 27  1  0
  3 28  1  0
  5 29  1  0
  6 30  1  0
 14 31  1  0
 17 32  1  0
 17 33  1  0
 17 34  1  0
 22 35  1  0
 22 36  1  0
 23 37  1  0
 23 38  1  0
 24 39  1  0
 24 40  1  0
 26 41  1  0
 26 42  1  0
 26 43  1  0
M  END
>  <ScrubInfo>  (2) 
{"isomerGroup": 0, "isomerId": 1, "confId": 0, "nr_conformers:": 1, "nr_isomers:": 9}

$$$$
_i2
     RDKit          3D

 43 45  0  0  0  0  0  0  0  0999 V2000
    1.1302    0.3294    0.0718 N   0  0  0  0  0  0  0  0  0  0  0  0
   -0.2052    0.3735    0.4158 C   0  0  0  0  0  0  0  0  0  0  0  0
   -0.7789    1.5830    0.1141 N   0  0  0  0  0  0  0  0  0  0  0  0
   -2.1779    1.8512    0.4286 C   0  0  0  0  0  0  0  0  0  0  0  0
   -3.0941    1.2328   -0.6224 C   0  0  0  0  0  0  0  0  0  0  0  0
   -4.5603    1.4641   -0.2725 C   0  0  0  0  0  0  0  0  0  0  0  0
   -5.4285    1.0525   -1.3275 O   0  0  0  0  0  0  0  0  0  0  0  0
   -5.6020   -0.3568   -1.3977 C   0  0  0  0  0  0  0  0  0  0  0  0
   -0.8568   -0.6248    0.9563 N   0  0  0  0  0  0  0  0  0  0  0  0
   -0.0463   -1.6993    1.1639 C   0  0  0  0  0  0  0  0  0  0  0  0
    1.2955   -1.8238    0.8637 C   0  0  0  0  0  0  0  0  0  0  0  0
    1.6495   -3.1149    1.2796 C   0  0  0  0  0  0  0  0  0  0  0  0
    0.6136   -3.7785    1.8100 N   0  0  0  0  0  0  0  0  0  0  0  0
   -0.4091   -2.8910    1.7275 N   0  0  0  0  0  0  0  0  0  0  0  0
   -1.7109   -3.2666    2.2175 C   0  0  0  0  0  0  0  0  0  0  0  0
    1.9970   -0.7293    0.2399 C   0  0  0  0  0  0  0  0  0  0  0  0
    3.2384   -0.9028   -0.0660 N   0  0  0  0  0  0  0  0  0  0  0  0
    3.9808    0.1133   -0.6874 C   0  0  0  0  0  0  0  0  0  0  0  0
    4.6592   -0.2080   -1.8710 C   0  0  0  0  0  0  0  0  0  0  0  0
    5.4570    0.7387   -2.5203 C   0  0  0  0  0  0  0  0  0  0  0  0
    5.5861    2.0126   -1.9779 C   0  0  0  0  0  0  0  0  0  0  0  0
    6.3451    2.9195   -2.6070 F   0  0  0  0  0  0  0  0  0  0  0  0
    4.9328    2.3455   -0.7998 C   0  0  0  0  0  0  0  0  0  0  0  0
    5.0513    3.5799   -0.2902 F   0  0  0  0  0  0  0  0  0  0  0  0
    4.1423    1.4012   -0.1552 C   0  0  0  0  0  0  0  0  0  0  0  0
    3.5039    1.7462    0.9744 F   0  0  0  0  0  0  0  0  0  0  0  0
    1.4795    1.1193   -0.4405 H   0  0  0  0  0  0  0  0  0  0  0  0
   -0.1850    2.3776    0.3251 H   0  0  0  0  0  0  0  0  0  0  0  0
   -2.4227    1.4904    1.4346 H   0  0  0  0  0  0  0  0  0  0  0  0
   -2.3249    2.9377    0.4385 H   0  0  0  0  0  0  0  0  0  0  0  0
   -2.8780    1.6575   -1.6110 H   0  0  0  0  0  0  0  0  0  0  0  0
   -2.9000    0.1589   -0.7166 H   0  0  0  0  0  0  0  0  0  0  0  0
   -4.8349    0.9629    0.6632 H   0  0  0  0  0  0  0  0  0  0  0  0
   -4.7351    2.5360   -0.1281 H   0  0  0  0  0  0  0  0  0  0  0  0
   -6.3483   -0.5698   -2.1681 H   0  0  0  0  0  0  0  0  0  0  0  0
   -5.9670   -0.7500   -0.4441 H   0  0  0  0  0  0  0  0  0  0  0  0
   -4.6698   -0.8526   -1.6803 H   0  0  0  0  0  0  0  0  0  0  0  0
    2.6145   -3.6009    1.2185 H   0  0  0  0  0  0  0  0  0  0  0  0
   -2.0310   -4.1682    1.6890 H   0  0  0  0  0  0  0  0  0  0  0  0
   -2.4267   -2.4612    2.0389 H   0  0  0  0  0  0  0  0  0  0  0  0
   -1.6308   -3.4608    3.2901 H   0  0  0  0  0  0  0  0  0  0  0  0
    4.5678   -1.2113   -2.2837 H   0  0  0  0  0  0  0  0  0  0  0  0
    5.9798    0.4868   -3.4385 H   0  0  0  0  0  0  0  0  0  0  0  0
  1  2  1  0
  2  3  1  0
  3  4  1  0
  4  5  1  0
  5  6  1  0
  6  7  1  0
  7  8  1  0
  2  9  2  0
  9 10  1  0
 10 11  2  0
 11 12  1  0
 12 13  2  0
 13 14  1  0
 14 15  1  0
 11 16  1  0
 16 17  2  3
 17 18  1  0
 18 19  2  0
 19 20  1  0
 20 21  2  0
 21 22  1  0
 21 23  1  0
 23 24  1  0
 23 25  2  0
 25 26  1  0
 16  1  1  0
 25 18  1  0
 14 10  1  0
  1 27  1  0
  3 28  1  0
  4 29  1  0
  4 30  1  0
  5 31  1  0
  5 32  1  0
  6 33  1  0
  6 34  1  0
  8 35  1  0
  8 36  1  0
  8 37  1  0
 12 38  1  0
 15 39  1  0
 15 40  1  0
 15 41  1  0
 19 42  1  0
 20 43  1  0
M  END
>  <ScrubInfo>  (3) 
{"isomerGroup": 0, "isomerId": 2, "confId": 0, "nr_conformers:": 1, "nr_isomers:": 9}

$$$$
_i3
     RDKit          3D

 43 45  0  0  0  0  0  0  0  0999 V2000
    0.6575   -1.7671   -0.3054 N   0  0  0  0  0  0  0  0  0  0  0  0
    0.6017   -0.5387   -0.9462 C   0  0  0  0  0  0  0  0  0  0  0  0
    1.5673    0.0378   -1.5707 N   0  0  0  0  0  0  0  0  0  0  0  0
    2.8676   -0.6125   -1.6377 C   0  0  0  0  0  0  0  0  0  0  0  0
    3.8183    0.2404   -2.4710 C   0  0  0  0  0  0  0  0  0  0  0  0
    4.0640    1.6144   -1.8588 C   0  0  0  0  0  0  0  0  0  0  0  0
    5.0893    2.2646   -2.6151 O   0  0  0  0  0  0  0  0  0  0  0  0
    5.3334    3.5798   -2.1345 C   0  0  0  0  0  0  0  0  0  0  0  0
   -0.5672    0.2095   -0.9660 N   0  0  0  0  0  0  0  0  0  0  0  0
   -1.6273   -0.2368   -0.3555 C   0  0  0  0  0  0  0  0  0  0  0  0
   -2.8177    0.4485   -0.3485 N   0  0  0  0  0  0  0  0  0  0  0  0
   -3.4590    0.8953    0.8412 C   0  0  0  0  0  0  0  0  0  0  0  0
   -4.8161    1.2513    0.7530 C   0  0  0  0  0  0  0  0  0  0  0  0
   -5.5015    1.7399    1.8691 C   0  0  0  0  0  0  0  0  0  0  0  0
   -4.8279    1.8945    3.0760 C   0  0  0  0  0  0  0  0  0  0  0  0
   -5.4915    2.3661    4.1398 F   0  0  0  0  0  0  0  0  0  0  0  0
   -3.4816    1.5757    3.1772 C   0  0  0  0  0  0  0  0  0  0  0  0
   -2.8369    1.7473    4.3402 F   0  0  0  0  0  0  0  0  0  0  0  0
   -2.7989    1.0891    2.0674 C   0  0  0  0  0  0  0  0  0  0  0  0
   -1.4889    0.8244    2.1833 F   0  0  0  0  0  0  0  0  0  0  0  0
   -1.6240   -1.5290    0.2869 C   0  0  0  0  0  0  0  0  0  0  0  0
   -2.5336   -2.3648    0.9503 C   0  0  0  0  0  0  0  0  0  0  0  0
   -1.9689   -3.5134    1.3547 N   0  0  0  0  0  0  0  0  0  0  0  0
   -0.6823   -3.4066    0.9387 N   0  0  0  0  0  0  0  0  0  0  0  0
    0.2332   -4.4853    1.2100 C   0  0  0  0  0  0  0  0  0  0  0  0
   -0.4552   -2.2379    0.2839 C   0  0  0  0  0  0  0  0  0  0  0  0
    1.5325   -2.2674   -0.3338 H   0  0  0  0  0  0  0  0  0  0  0  0
    3.2849   -0.7491   -0.6329 H   0  0  0  0  0  0  0  0  0  0  0  0
    2.7799   -1.5963   -2.1139 H   0  0  0  0  0  0  0  0  0  0  0  0
    3.4270    0.3647   -3.4886 H   0  0  0  0  0  0  0  0  0  0  0  0
    4.7753   -0.2852   -2.5792 H   0  0  0  0  0  0  0  0  0  0  0  0
    3.1500    2.2183   -1.8877 H   0  0  0  0  0  0  0  0  0  0  0  0
    4.3956    1.5153   -0.8188 H   0  0  0  0  0  0  0  0  0  0  0  0
    4.4342    4.1961   -2.2304 H   0  0  0  0  0  0  0  0  0  0  0  0
    6.1277    4.0254   -2.7394 H   0  0  0  0  0  0  0  0  0  0  0  0
    5.6624    3.5519   -1.0912 H   0  0  0  0  0  0  0  0  0  0  0  0
   -2.7023    1.2598   -0.9562 H   0  0  0  0  0  0  0  0  0  0  0  0
   -5.3507    1.1336   -0.1885 H   0  0  0  0  0  0  0  0  0  0  0  0
   -6.5538    2.0020    1.8038 H   0  0  0  0  0  0  0  0  0  0  0  0
   -3.5823   -2.1993    1.1584 H   0  0  0  0  0  0  0  0  0  0  0  0
    1.2412   -4.2060    0.8964 H   0  0  0  0  0  0  0  0  0  0  0  0
   -0.0998   -5.3657    0.6549 H   0  0  0  0  0  0  0  0  0  0  0  0
    0.2245   -4.6846    2.2847 H   0  0  0  0  0  0  0  0  0  0  0  0
  1  2  1  0
  2  3  2  3
  3  4  1  0
  4  5  1  0
  5  6  1  0
  6  7  1  0
  7  8  1  0
  2  9  1  0
  9 10  2  0
 10 11  1  0
 11 12  1  0
 12 13  2  0
 13 14  1  0
 14 15  2  0
 15 16  1  0
 15 17  1  0
 17 18  1  0
 17 19  2  0
 19 20  1  0
 10 21  1  0
 21 22  1  0
 22 23  2  0
 23 24  1  0
 24 25  1  0
 24 26  1  0
 26  1  1  0
 19 12  1  0
 26 21  2  0
  1 27  1  0
  4 28  1  0
  4 29  1  0
  5 30  1  0
  5 31  1  0
  6 32  1  0
  6 33  1  0
  8 34  1  0
  8 35  1  0
  8 36  1  0
 11 37  1  0
 13 38  1  0
 14 39  1  0
 22 40  1  0
 25 41  1  0
 25 42  1  0
 25 43  1  0
M  END
>  <ScrubInfo>  (4) 
{"isomerGroup": 0, "isomerId": 3, "confId": 0, "nr_conformers:": 1, "nr_isomers:": 9}

$$$$
_i4
     RDKit          3D

 43 45  0  0  0  0  0  0  0  0999 V2000
   -1.5241   -4.0572   -0.4250 N   0  0  0  0  0  0  0  0  0  0  0  0
   -2.4562   -3.0273   -0.5083 C   0  0  0  0  0  0  0  0  0  0  0  0
   -1.9108   -1.8177   -0.3265 C   0  0  0  0  0  0  0  0  0  0  0  0
   -2.3444   -0.4403   -0.3326 C   0  0  0  0  0  0  0  0  0  0  0  0
   -3.5886   -0.1051   -0.4842 N   0  0  0  0  0  0  0  0  0  0  0  0
   -3.9068    1.2633   -0.5078 C   0  0  0  0  0  0  0  0  0  0  0  0
   -4.5076    1.8418    0.6182 C   0  0  0  0  0  0  0  0  0  0  0  0
   -4.8518    3.1956    0.6214 C   0  0  0  0  0  0  0  0  0  0  0  0
   -4.6024    3.9680   -0.5091 C   0  0  0  0  0  0  0  0  0  0  0  0
   -4.9339    5.2665   -0.4993 F   0  0  0  0  0  0  0  0  0  0  0  0
   -4.0218    3.4048   -1.6379 C   0  0  0  0  0  0  0  0  0  0  0  0
   -3.7944    4.1601   -2.7227 F   0  0  0  0  0  0  0  0  0  0  0  0
   -3.6810    2.0586   -1.6409 C   0  0  0  0  0  0  0  0  0  0  0  0
   -3.1311    1.5211   -2.7422 F   0  0  0  0  0  0  0  0  0  0  0  0
   -1.3387    0.4746   -0.1596 N   0  0  0  0  0  0  0  0  0  0  0  0
   -0.0989    0.1189    0.0311 C   0  0  0  0  0  0  0  0  0  0  0  0
    0.7969    1.1398    0.1693 N   0  0  0  0  0  0  0  0  0  0  0  0
    2.2235    0.9955   -0.0489 C   0  0  0  0  0  0  0  0  0  0  0  0
    2.9165    0.5067    1.2214 C   0  0  0  0  0  0  0  0  0  0  0  0
    4.4338    0.5885    1.1074 C   0  0  0  0  0  0  0  0  0  0  0  0
    4.8763   -0.2034    0.0076 O   0  0  0  0  0  0  0  0  0  0  0  0
    6.2922   -0.1829   -0.1189 C   0  0  0  0  0  0  0  0  0  0  0  0
    0.3575   -1.1716    0.1001 N   0  0  0  0  0  0  0  0  0  0  0  0
   -0.5007   -2.1171   -0.0561 C   0  0  0  0  0  0  0  0  0  0  0  0
   -0.3115   -3.4997   -0.0233 N   0  0  0  0  0  0  0  0  0  0  0  0
    0.9269   -4.0884   -0.4969 C   0  0  0  0  0  0  0  0  0  0  0  0
   -1.8532   -4.8574    0.1198 H   0  0  0  0  0  0  0  0  0  0  0  0
   -3.4944   -3.2574   -0.7022 H   0  0  0  0  0  0  0  0  0  0  0  0
   -4.6997    1.2293    1.4957 H   0  0  0  0  0  0  0  0  0  0  0  0
   -5.3108    3.6489    1.4946 H   0  0  0  0  0  0  0  0  0  0  0  0
    0.3993    2.0265   -0.1152 H   0  0  0  0  0  0  0  0  0  0  0  0
    2.4205    0.3283   -0.8961 H   0  0  0  0  0  0  0  0  0  0  0  0
    2.6233    1.9790   -0.3227 H   0  0  0  0  0  0  0  0  0  0  0  0
    2.5893    1.1006    2.0833 H   0  0  0  0  0  0  0  0  0  0  0  0
    2.6262   -0.5321    1.4171 H   0  0  0  0  0  0  0  0  0  0  0  0
    4.7462    1.6289    0.9592 H   0  0  0  0  0  0  0  0  0  0  0  0
    4.8879    0.2154    2.0326 H   0  0  0  0  0  0  0  0  0  0  0  0
    6.6460    0.8376   -0.2947 H   0  0  0  0  0  0  0  0  0  0  0  0
    6.7629   -0.5964    0.7781 H   0  0  0  0  0  0  0  0  0  0  0  0
    6.5702   -0.8017   -0.9762 H   0  0  0  0  0  0  0  0  0  0  0  0
    0.9296   -5.1676   -0.3131 H   0  0  0  0  0  0  0  0  0  0  0  0
    1.0534   -3.9178   -1.5711 H   0  0  0  0  0  0  0  0  0  0  0  0
    1.7844   -3.6574    0.0299 H   0  0  0  0  0  0  0  0  0  0  0  0
  1  2  1  0
  2  3  2  0
  3  4  1  0
  4  5  2  3
  5  6  1  0
  6  7  2  0
  7  8  1  0
  8  9  2  0
  9 10  1  0
  9 11  1  0
 11 12  1  0
 11 13  2  0
 13 14  1  0
  4 15  1  0
 15 16  2  0
 16 17  1  0
 17 18  1  0
 18 19  1  0
 19 20  1  0
 20 21  1  0
 21 22  1  0
 16 23  1  0
 23 24  2  0
 24 25  1  0
 25 26  1  0
 25  1  1  0
 24  3  1  0
 13  6  1  0
  1 27  1  0
  2 28  1  0
  7 29  1  0
  8 30  1  0
 17 31  1  0
 18 32  1  0
 18 33  1  0
 19 34  1  0
 19 35  1  0
 20 36  1  0
 20 37  1  0
 22 38  1  0
 22 39  1  0
 22 40  1  0
 26 41  1  0
 26 42  1  0
 26 43  1  0
M  END
>  <ScrubInfo>  (5) 
{"isomerGroup": 0, "isomerId": 4, "confId": 0, "nr_conformers:": 1, "nr_isomers:": 9}

$$$$
_i5
     RDKit          3D

 43 45  0  0  0  0  0  0  0  0999 V2000
    1.0245   -0.0094   -0.1054 N   0  0  0  0  0  0  0  0  0  0  0  0
    0.8044   -1.3341    0.1748 C   0  0  0  0  0  0  0  0  0  0  0  0
    1.9137   -2.1137    0.3303 N   0  0  0  0  0  0  0  0  0  0  0  0
    3.1274   -1.9893   -0.4541 C   0  0  0  0  0  0  0  0  0  0  0  0
    4.3095   -1.5853    0.4253 C   0  0  0  0  0  0  0  0  0  0  0  0
    4.1519   -0.2158    1.0842 C   0  0  0  0  0  0  0  0  0  0  0  0
    3.7563    0.7927    0.1458 O   0  0  0  0  0  0  0  0  0  0  0  0
    4.8585    1.3179   -0.5882 C   0  0  0  0  0  0  0  0  0  0  0  0
   -0.3704   -1.8846    0.3144 N   0  0  0  0  0  0  0  0  0  0  0  0
   -1.5206   -1.1146    0.1847 C   0  0  0  0  0  0  0  0  0  0  0  0
   -2.6414   -1.7491    0.3242 N   0  0  0  0  0  0  0  0  0  0  0  0
   -3.8861   -1.1193    0.2631 C   0  0  0  0  0  0  0  0  0  0  0  0
   -4.6210   -1.1694   -0.9290 C   0  0  0  0  0  0  0  0  0  0  0  0
   -5.8944   -0.5992   -1.0007 C   0  0  0  0  0  0  0  0  0  0  0  0
   -6.4390    0.0067    0.1279 C   0  0  0  0  0  0  0  0  0  0  0  0
   -7.6609    0.5512    0.0517 F   0  0  0  0  0  0  0  0  0  0  0  0
   -5.7302    0.0469    1.3214 C   0  0  0  0  0  0  0  0  0  0  0  0
   -6.2670    0.6330    2.4013 F   0  0  0  0  0  0  0  0  0  0  0  0
   -4.4631   -0.5183    1.3912 C   0  0  0  0  0  0  0  0  0  0  0  0
   -3.7831   -0.4704    2.5475 F   0  0  0  0  0  0  0  0  0  0  0  0
   -1.3327    0.2981   -0.1015 C   0  0  0  0  0  0  0  0  0  0  0  0
   -2.1222    1.4423   -0.3193 C   0  0  0  0  0  0  0  0  0  0  0  0
   -1.3942    2.5490   -0.5446 N   0  0  0  0  0  0  0  0  0  0  0  0
   -0.1174    2.1114   -0.4615 N   0  0  0  0  0  0  0  0  0  0  0  0
    0.9798    3.0297   -0.6297 C   0  0  0  0  0  0  0  0  0  0  0  0
   -0.0548    0.7776   -0.2240 C   0  0  0  0  0  0  0  0  0  0  0  0
    1.9767    0.3493   -0.0528 H   0  0  0  0  0  0  0  0  0  0  0  0
    1.6352   -3.0784    0.4954 H   0  0  0  0  0  0  0  0  0  0  0  0
    3.3461   -2.9648   -0.9045 H   0  0  0  0  0  0  0  0  0  0  0  0
    3.0041   -1.2938   -1.2922 H   0  0  0  0  0  0  0  0  0  0  0  0
    5.2083   -1.5815   -0.2023 H   0  0  0  0  0  0  0  0  0  0  0  0
    4.4725   -2.3376    1.2064 H   0  0  0  0  0  0  0  0  0  0  0  0
    3.3674   -0.2649    1.8472 H   0  0  0  0  0  0  0  0  0  0  0  0
    5.0731    0.0790    1.6006 H   0  0  0  0  0  0  0  0  0  0  0  0
    4.4803    2.0925   -1.2608 H   0  0  0  0  0  0  0  0  0  0  0  0
    5.5885    1.7715    0.0887 H   0  0  0  0  0  0  0  0  0  0  0  0
    5.3323    0.5384   -1.1908 H   0  0  0  0  0  0  0  0  0  0  0  0
   -4.1971   -1.6648   -1.7999 H   0  0  0  0  0  0  0  0  0  0  0  0
   -6.4659   -0.6327   -1.9235 H   0  0  0  0  0  0  0  0  0  0  0  0
   -3.1975    1.5443   -0.3298 H   0  0  0  0  0  0  0  0  0  0  0  0
    1.6262    2.6565   -1.4279 H   0  0  0  0  0  0  0  0  0  0  0  0
    0.5941    4.0168   -0.8973 H   0  0  0  0  0  0  0  0  0  0  0  0
    1.5282    3.0863    0.3138 H   0  0  0  0  0  0  0  0  0  0  0  0
  1  2  1  0
  2  3  1  0
  3  4  1  0
  4  5  1  0
  5  6  1  0
  6  7  1  0
  7  8  1  0
  2  9  2  0
  9 10  1  0
 10 11  2  3
 11 12  1  0
 12 13  2  0
 13 14  1  0
 14 15  2  0
 15 16  1  0
 15 17  1  0
 17 18  1  0
 17 19  2  0
 19 20  1  0
 10 21  1  0
 21 22  1  0
 22 23  2  0
 23 24  1  0
 24 25  1  0
 24 26  1  0
 26  1  1  0
 19 12  1  0
 26 21  2  0
  1 27  1  0
  3 28  1  0
  4 29  1  0
  4 30  1  0
  5 31  1  0
  5 32  1  0
  6 33  1  0
  6 34  1  0
  8 35  1  0
  8 36  1  0
  8 37  1  0
 13 38  1  0
 14 39  1  0
 22 40  1  0
 25 41  1  0
 25 42  1  0
 25 43  1  0
M  END
>  <ScrubInfo>  (6) 
{"isomerGroup": 0, "isomerId": 5, "confId": 0, "nr_conformers:": 1, "nr_isomers:": 9}

$$$$
_i6
     RDKit          3D

 43 45  0  0  0  0  0  0  0  0999 V2000
   -2.3164   -2.9465    0.8050 N   0  0  0  0  0  0  0  0  0  0  0  0
   -2.6784   -1.7941    0.1159 C   0  0  0  0  0  0  0  0  0  0  0  0
   -1.6326   -1.1658   -0.4373 C   0  0  0  0  0  0  0  0  0  0  0  0
   -1.3537    0.0324   -1.2252 C   0  0  0  0  0  0  0  0  0  0  0  0
   -2.3182    0.9179   -1.6608 N   0  0  0  0  0  0  0  0  0  0  0  0
   -3.2826    1.5258   -0.8181 C   0  0  0  0  0  0  0  0  0  0  0  0
   -4.4374    2.0517   -1.4230 C   0  0  0  0  0  0  0  0  0  0  0  0
   -5.4118    2.7042   -0.6619 C   0  0  0  0  0  0  0  0  0  0  0  0
   -5.2275    2.8525    0.7083 C   0  0  0  0  0  0  0  0  0  0  0  0
   -6.1661    3.4777    1.4312 F   0  0  0  0  0  0  0  0  0  0  0  0
   -4.0817    2.3670    1.3209 C   0  0  0  0  0  0  0  0  0  0  0  0
   -3.9058    2.5289    2.6401 F   0  0  0  0  0  0  0  0  0  0  0  0
   -3.1119    1.7184    0.5634 C   0  0  0  0  0  0  0  0  0  0  0  0
   -1.9959    1.2935    1.1747 F   0  0  0  0  0  0  0  0  0  0  0  0
   -0.1220    0.2651   -1.5852 N   0  0  0  0  0  0  0  0  0  0  0  0
    0.8722   -0.5938   -1.1670 C   0  0  0  0  0  0  0  0  0  0  0  0
    2.0520   -0.2041   -1.4949 N   0  0  0  0  0  0  0  0  0  0  0  0
    3.2102   -1.0231   -1.1348 C   0  0  0  0  0  0  0  0  0  0  0  0
    3.7522   -0.6070    0.2326 C   0  0  0  0  0  0  0  0  0  0  0  0
    4.4114    0.7680    0.2046 C   0  0  0  0  0  0  0  0  0  0  0  0
    5.6429    0.6853   -0.5161 O   0  0  0  0  0  0  0  0  0  0  0  0
    6.2540    1.9610   -0.6495 C   0  0  0  0  0  0  0  0  0  0  0  0
    0.7073   -1.7644   -0.4627 N   0  0  0  0  0  0  0  0  0  0  0  0
   -0.4983   -2.0592   -0.1199 C   0  0  0  0  0  0  0  0  0  0  0  0
   -0.9663   -3.1810    0.5655 N   0  0  0  0  0  0  0  0  0  0  0  0
   -0.1639   -3.8104    1.5973 C   0  0  0  0  0  0  0  0  0  0  0  0
   -2.9448   -3.7365    0.6416 H   0  0  0  0  0  0  0  0  0  0  0  0
   -3.7199   -1.5105    0.0792 H   0  0  0  0  0  0  0  0  0  0  0  0
   -1.8652    1.6363   -2.2265 H   0  0  0  0  0  0  0  0  0  0  0  0
   -4.5882    1.9416   -2.4960 H   0  0  0  0  0  0  0  0  0  0  0  0
   -6.3095    3.0989   -1.1295 H   0  0  0  0  0  0  0  0  0  0  0  0
    2.9807   -2.0953   -1.1390 H   0  0  0  0  0  0  0  0  0  0  0  0
    3.9781   -0.8888   -1.9053 H   0  0  0  0  0  0  0  0  0  0  0  0
    2.9433   -0.6051    0.9719 H   0  0  0  0  0  0  0  0  0  0  0  0
    4.4924   -1.3513    0.5497 H   0  0  0  0  0  0  0  0  0  0  0  0
    3.7514    1.5122   -0.2553 H   0  0  0  0  0  0  0  0  0  0  0  0
    4.6302    1.0834    1.2313 H   0  0  0  0  0  0  0  0  0  0  0  0
    5.6092    2.6369   -1.2195 H   0  0  0  0  0  0  0  0  0  0  0  0
    6.4712    2.3873    0.3347 H   0  0  0  0  0  0  0  0  0  0  0  0
    7.1950    1.8371   -1.1920 H   0  0  0  0  0  0  0  0  0  0  0  0
   -0.6514   -4.7233    1.9545 H   0  0  0  0  0  0  0  0  0  0  0  0
    0.8195   -4.0883    1.2048 H   0  0  0  0  0  0  0  0  0  0  0  0
   -0.0240   -3.1347    2.4476 H   0  0  0  0  0  0  0  0  0  0  0  0
  1  2  1  0
  2  3  2  0
  3  4  1  0
  4  5  1  0
  5  6  1  0
  6  7  2  0
  7  8  1  0
  8  9  2  0
  9 10  1  0
  9 11  1  0
 11 12  1  0
 11 13  2  0
 13 14  1  0
  4 15  2  0
 15 16  1  0
 16 17  2  3
 17 18  1  0
 18 19  1  0
 19 20  1  0
 20 21  1  0
 21 22  1  0
 16 23  1  0
 23 24  2  0
 24 25  1  0
 25 26  1  0
 25  1  1  0
 24  3  1  0
 13  6  1  0
  1 27  1  0
  2 28  1  0
  5 29  1  0
  7 30  1  0
  8 31  1  0
 18 32  1  0
 18 33  1  0
 19 34  1  0
 19 35  1  0
 20 36  1  0
 20 37  1  0
 22 38  1  0
 22 39  1  0
 22 40  1  0
 26 41  1  0
 26 42  1  0
 26 43  1  0
M  END
>  <ScrubInfo>  (7) 
{"isomerGroup": 0, "isomerId": 6, "confId": 0, "nr_conformers:": 1, "nr_isomers:": 9}

$$$$
_i7
     RDKit          3D

 43 45  0  0  0  0  0  0  0  0999 V2000
   -1.7741   -4.3090    0.5290 N   0  0  0  0  0  0  0  0  0  0  0  0
   -2.5354   -3.1502    0.4277 C   0  0  0  0  0  0  0  0  0  0  0  0
   -1.8003   -2.0676    0.1473 C   0  0  0  0  0  0  0  0  0  0  0  0
   -2.0168   -0.6403   -0.1075 C   0  0  0  0  0  0  0  0  0  0  0  0
   -3.2214   -0.1607   -0.0167 N   0  0  0  0  0  0  0  0  0  0  0  0
   -3.4566    1.1982   -0.2764 C   0  0  0  0  0  0  0  0  0  0  0  0
   -3.8025    2.0372    0.7901 C   0  0  0  0  0  0  0  0  0  0  0  0
   -4.0869    3.3873    0.5683 C   0  0  0  0  0  0  0  0  0  0  0  0
   -4.0356    3.8958   -0.7262 C   0  0  0  0  0  0  0  0  0  0  0  0
   -4.3076    5.1915   -0.9309 F   0  0  0  0  0  0  0  0  0  0  0  0
   -3.7064    3.0739   -1.7955 C   0  0  0  0  0  0  0  0  0  0  0  0
   -3.6558    3.5753   -3.0378 F   0  0  0  0  0  0  0  0  0  0  0  0
   -3.4234    1.7321   -1.5731 C   0  0  0  0  0  0  0  0  0  0  0  0
   -3.0946    0.9466   -2.6107 F   0  0  0  0  0  0  0  0  0  0  0  0
   -0.8483    0.0100   -0.4129 N   0  0  0  0  0  0  0  0  0  0  0  0
    0.4029   -0.5447   -0.4838 C   0  0  0  0  0  0  0  0  0  0  0  0
    1.3839    0.2301   -0.8112 N   0  0  0  0  0  0  0  0  0  0  0  0
    2.7325   -0.3375   -0.9192 C   0  0  0  0  0  0  0  0  0  0  0  0
    3.4613   -0.2501    0.4212 C   0  0  0  0  0  0  0  0  0  0  0  0
    3.8158    1.1827    0.8047 C   0  0  0  0  0  0  0  0  0  0  0  0
    4.8271    1.6719   -0.0777 O   0  0  0  0  0  0  0  0  0  0  0  0
    5.1548    3.0258    0.2023 C   0  0  0  0  0  0  0  0  0  0  0  0
    0.6274   -1.8755   -0.1990 N   0  0  0  0  0  0  0  0  0  0  0  0
   -0.4022   -2.5994    0.1114 C   0  0  0  0  0  0  0  0  0  0  0  0
   -0.4288   -3.9549    0.4511 N   0  0  0  0  0  0  0  0  0  0  0  0
    0.5107   -4.8883   -0.1415 C   0  0  0  0  0  0  0  0  0  0  0  0
   -2.0400   -4.9035    1.3172 H   0  0  0  0  0  0  0  0  0  0  0  0
   -3.6057   -3.1975    0.5713 H   0  0  0  0  0  0  0  0  0  0  0  0
   -3.8574    1.6298    1.7974 H   0  0  0  0  0  0  0  0  0  0  0  0
   -4.3543    4.0408    1.3937 H   0  0  0  0  0  0  0  0  0  0  0  0
   -0.8675    0.9871   -0.6558 H   0  0  0  0  0  0  0  0  0  0  0  0
    2.7181   -1.3750   -1.2742 H   0  0  0  0  0  0  0  0  0  0  0  0
    3.2779    0.2233   -1.6869 H   0  0  0  0  0  0  0  0  0  0  0  0
    2.8478   -0.6945    1.2129 H   0  0  0  0  0  0  0  0  0  0  0  0
    4.3850   -0.8365    0.3468 H   0  0  0  0  0  0  0  0  0  0  0  0
    2.9328    1.8304    0.7629 H   0  0  0  0  0  0  0  0  0  0  0  0
    4.2084    1.1944    1.8281 H   0  0  0  0  0  0  0  0  0  0  0  0
    5.5342    3.1252    1.2239 H   0  0  0  0  0  0  0  0  0  0  0  0
    4.2809    3.6687    0.0601 H   0  0  0  0  0  0  0  0  0  0  0  0
    5.9370    3.3417   -0.4931 H   0  0  0  0  0  0  0  0  0  0  0  0
    0.3977   -5.8797    0.3091 H   0  0  0  0  0  0  0  0  0  0  0  0
    0.3445   -4.9753   -1.2203 H   0  0  0  0  0  0  0  0  0  0  0  0
    1.5408   -4.5593    0.0294 H   0  0  0  0  0  0  0  0  0  0  0  0
  1  2  1  0
  2  3  2  0
  3  4  1  0
  4  5  2  3
  5  6  1  0
  6  7  2  0
  7  8  1  0
  8  9  2  0
  9 10  1  0
  9 11  1  0
 11 12  1  0
 11 13  2  0
 13 14  1  0
  4 15  1  0
 15 16  1  0
 16 17  2  3
 17 18  1  0
 18 19  1  0
 19 20  1  0
 20 21  1  0
 21 22  1  0
 16 23  1  0
 23 24  2  0
 24 25  1  0
 25 26  1  0
 25  1  1  0
 24  3  1  0
 13  6  1  0
  1 27  1  0
  2 28  1  0
  7 29  1  0
  8 30  1  0
 15 31  1  0
 18 32  1  0
 18 33  1  0
 19 34  1  0
 19 35  1  0
 20 36  1  0
 20 37  1  0
 22 38  1  0
 22 39  1  0
 22 40  1  0
 26 41  1  0
 26 42  1  0
 26 43  1  0
M  END
>  <ScrubInfo>  (8) 
{"isomerGroup": 0, "isomerId": 7, "confId": 0, "nr_conformers:": 1, "nr_isomers:": 9}

$$$$
_i8
     RDKit          3D

 43 45  0  0  0  0  0  0  0  0999 V2000
    0.4043   -1.5743   -0.3051 N   0  0  0  0  0  0  0  0  0  0  0  0
    1.1445   -0.4125   -0.4408 C   0  0  0  0  0  0  0  0  0  0  0  0
    2.4254   -0.2915   -0.4996 N   0  0  0  0  0  0  0  0  0  0  0  0
    3.2601   -1.4806   -0.3982 C   0  0  0  0  0  0  0  0  0  0  0  0
    4.7384   -1.0815   -0.3850 C   0  0  0  0  0  0  0  0  0  0  0  0
    5.2244   -0.5742    0.9729 C   0  0  0  0  0  0  0  0  0  0  0  0
    4.7148    0.7283    1.2389 O   0  0  0  0  0  0  0  0  0  0  0  0
    5.1381    1.2161    2.5033 C   0  0  0  0  0  0  0  0  0  0  0  0
    0.3697    0.7229   -0.5191 N   0  0  0  0  0  0  0  0  0  0  0  0
   -0.9949    0.9086   -0.4992 C   0  0  0  0  0  0  0  0  0  0  0  0
   -1.5147    2.0950   -0.6025 N   0  0  0  0  0  0  0  0  0  0  0  0
   -2.8941    2.3192   -0.6336 C   0  0  0  0  0  0  0  0  0  0  0  0
   -3.5532    2.7082    0.5399 C   0  0  0  0  0  0  0  0  0  0  0  0
   -4.9209    2.9937    0.5219 C   0  0  0  0  0  0  0  0  0  0  0  0
   -5.6248    2.9057   -0.6759 C   0  0  0  0  0  0  0  0  0  0  0  0
   -6.9358    3.1816   -0.6849 F   0  0  0  0  0  0  0  0  0  0  0  0
   -4.9804    2.5402   -1.8504 C   0  0  0  0  0  0  0  0  0  0  0  0
   -5.6693    2.4617   -2.9980 F   0  0  0  0  0  0  0  0  0  0  0  0
   -3.6212    2.2545   -1.8314 C   0  0  0  0  0  0  0  0  0  0  0  0
   -3.0049    1.9006   -2.9703 F   0  0  0  0  0  0  0  0  0  0  0  0
   -1.6854   -0.3617   -0.3416 C   0  0  0  0  0  0  0  0  0  0  0  0
   -3.0135   -0.8118   -0.2270 C   0  0  0  0  0  0  0  0  0  0  0  0
   -3.1054   -2.1422   -0.0879 N   0  0  0  0  0  0  0  0  0  0  0  0
   -1.8208   -2.5578   -0.1106 N   0  0  0  0  0  0  0  0  0  0  0  0
   -1.5330   -3.9654    0.0042 C   0  0  0  0  0  0  0  0  0  0  0  0
   -0.9469   -1.5240   -0.2542 C   0  0  0  0  0  0  0  0  0  0  0  0
    0.9208   -2.4413   -0.2572 H   0  0  0  0  0  0  0  0  0  0  0  0
    3.0236   -2.0611    0.5013 H   0  0  0  0  0  0  0  0  0  0  0  0
    3.0852   -2.1179   -1.2735 H   0  0  0  0  0  0  0  0  0  0  0  0
    4.9256   -0.3238   -1.1553 H   0  0  0  0  0  0  0  0  0  0  0  0
    5.3284   -1.9701   -0.6399 H   0  0  0  0  0  0  0  0  0  0  0  0
    4.9214   -1.2646    1.7689 H   0  0  0  0  0  0  0  0  0  0  0  0
    6.3197   -0.5240    0.9589 H   0  0  0  0  0  0  0  0  0  0  0  0
    4.7730    0.5679    3.3058 H   0  0  0  0  0  0  0  0  0  0  0  0
    4.7192    2.2159    2.6450 H   0  0  0  0  0  0  0  0  0  0  0  0
    6.2294    1.2856    2.5422 H   0  0  0  0  0  0  0  0  0  0  0  0
    0.9101    1.5703   -0.6241 H   0  0  0  0  0  0  0  0  0  0  0  0
   -2.9927    2.7942    1.4682 H   0  0  0  0  0  0  0  0  0  0  0  0
   -5.4374    3.2914    1.4297 H   0  0  0  0  0  0  0  0  0  0  0  0
   -3.9347   -0.2477   -0.2327 H   0  0  0  0  0  0  0  0  0  0  0  0
   -1.5249   -4.3933   -1.0011 H   0  0  0  0  0  0  0  0  0  0  0  0
   -2.3062   -4.4406    0.6137 H   0  0  0  0  0  0  0  0  0  0  0  0
   -0.5611   -4.0997    0.4845 H   0  0  0  0  0  0  0  0  0  0  0  0
  1  2  1  0
  2  3  2  3
  3  4  1  0
  4  5  1  0
  5  6  1  0
  6  7  1  0
  7  8  1  0
  2  9  1  0
  9 10  1  0
 10 11  2  3
 11 12  1  0
 12 13  2  0
 13 14  1  0
 14 15  2  0
 15 16  1  0
 15 17  1  0
 17 18  1  0
 17 19  2  0
 19 20  1  0
 10 21  1  0
 21 22  1  0
 22 23  2  0
 23 24  1  0
 24 25  1  0
 24 26  1  0
 26  1  1  0
 19 12  1  0
 26 21  2  0
  1 27  1  0
  4 28  1  0
  4 29  1  0
  5 30  1  0
  5 31  1  0
  6 32  1  0
  6 33  1  0
  8 34  1  0
  8 35  1  0
  8 36  1  0
  9 37  1  0
 13 38  1  0
 14 39  1  0
 22 40  1  0
 25 41  1  0
 25 42  1  0
 25 43  1  0
M  END
>  <ScrubInfo>  (9) 
{"isomerGroup": 0, "isomerId": 8, "confId": 0, "nr_conformers:": 1, "nr_isomers:": 9}

$$$$
