REMARK SMILES OCCCNc1nc(Nc2ccccc2O)nc2ccccc12
REMARK SMILES IDX 5 1 4 3 3 4 2 5 1 6 6 8 7 9 23 10 8 11 22 12 18 13 17 14
REMARK SMILES IDX 21 15 19 16 20 17 9 18 10 20 11 21 15 22 12 23 14 24 13 25
REMARK SMILES IDX 16 26
REMARK H PARENT 5 2 1 7 9 19 16 27
ROOT
ATOM      1  N   UNL     1       2.875   0.020   0.521  1.00  0.00    -0.369 N 
ATOM      2  H   UNL     1       3.453   0.482  -0.188  1.00  0.00     0.162 HD
ENDROOT
BRANCH   1   3
ATOM      3  C   UNL     1       3.147  -1.417   0.523  1.00  0.00     0.117 C 
BRANCH   3   4
ATOM      4  C   UNL     1       3.182  -2.009  -0.891  1.00  0.00     0.049 C 
BRANCH   4   5
ATOM      5  C   UNL     1       4.309  -1.437  -1.745  1.00  0.00     0.158 C 
BRANCH   5   6
ATOM      6  O   UNL     1       4.096  -0.052  -2.003  1.00  0.00    -0.396 OA
ATOM      7  H   UNL     1       3.308   0.012  -2.575  1.00  0.00     0.210 HD
ENDBRANCH   5   6
ENDBRANCH   4   5
ENDBRANCH   3   4
ENDBRANCH   1   3
BRANCH   1   8
ATOM      8  C   UNL     1       1.535   0.425   0.351  1.00  0.00     0.139 A 
ATOM      9  N   UNL     1       0.573  -0.513   0.309  1.00  0.00    -0.195 NA
ATOM     10  C   UNL     1       1.238   1.795   0.268  1.00  0.00     0.043 A 
ATOM     11  C   UNL     1      -0.696  -0.114   0.163  1.00  0.00     0.229 A 
ATOM     12  C   UNL     1       2.186   2.849   0.346  1.00  0.00     0.014 A 
ATOM     13  C   UNL     1      -0.115   2.100   0.095  1.00  0.00     0.078 A 
ATOM     14  N   UNL     1      -1.063   1.164   0.032  1.00  0.00    -0.213 NA
ATOM     15  C   UNL     1       1.788   4.179   0.237  1.00  0.00     0.001 A 
ATOM     16  C   UNL     1      -0.489   3.435  -0.015  1.00  0.00     0.029 A 
ATOM     17  C   UNL     1       0.444   4.473   0.052  1.00  0.00     0.002 A 
BRANCH  11  18
ATOM     18  N   UNL     1      -1.634  -1.146   0.099  1.00  0.00    -0.321 N 
ATOM     19  H   UNL     1      -1.153  -1.997   0.371  1.00  0.00     0.170 HD
BRANCH  18  20
ATOM     20  C   UNL     1      -3.002  -1.162   0.432  1.00  0.00     0.083 A 
ATOM     21  C   UNL     1      -3.664  -0.109   1.070  1.00  0.00     0.030 A 
ATOM     22  C   UNL     1      -3.764  -2.291   0.085  1.00  0.00     0.139 A 
ATOM     23  C   UNL     1      -5.024  -0.209   1.393  1.00  0.00     0.002 A 
ATOM     24  C   UNL     1      -5.111  -2.408   0.411  1.00  0.00     0.048 A 
ATOM     25  C   UNL     1      -5.743  -1.359   1.073  1.00  0.00     0.004 A 
BRANCH  22  26
ATOM     26  O   UNL     1      -3.194  -3.311  -0.633  1.00  0.00    -0.506 OA
ATOM     27  H   UNL     1      -2.446  -2.903  -1.105  1.00  0.00     0.293 HD
ENDBRANCH  22  26
ENDBRANCH  18  20
ENDBRANCH  11  18
ENDBRANCH   1   8
TORSDOF 8
