_i0
     RDKit          3D

 41 43  0  0  0  0  0  0  0  0999 V2000
    4.0958   -0.0517   -2.0032 O   0  0  0  0  0  0  0  0  0  0  0  0
    4.3085   -1.4366   -1.7452 C   0  0  0  0  0  0  0  0  0  0  0  0
    3.1821   -2.0093   -0.8906 C   0  0  0  0  0  0  0  0  0  0  0  0
    3.1465   -1.4165    0.5229 C   0  0  0  0  0  0  0  0  0  0  0  0
    2.8753    0.0197    0.5215 N   0  0  0  0  0  0  0  0  0  0  0  0
    1.5353    0.4251    0.3514 C   0  0  0  0  0  0  0  0  0  0  0  0
    0.5730   -0.5132    0.3090 N   0  0  0  0  0  0  0  0  0  0  0  0
   -0.6957   -0.1139    0.1632 C   0  0  0  0  0  0  0  0  0  0  0  0
   -1.6337   -1.1463    0.0985 N   0  0  0  0  0  0  0  0  0  0  0  0
   -3.0016   -1.1616    0.4323 C   0  0  0  0  0  0  0  0  0  0  0  0
   -3.6644   -0.1093    1.0699 C   0  0  0  0  0  0  0  0  0  0  0  0
   -5.0235   -0.2087    1.3933 C   0  0  0  0  0  0  0  0  0  0  0  0
   -5.7432   -1.3594    1.0727 C   0  0  0  0  0  0  0  0  0  0  0  0
   -5.1111   -2.4079    0.4114 C   0  0  0  0  0  0  0  0  0  0  0  0
   -3.7640   -2.2911    0.0845 C   0  0  0  0  0  0  0  0  0  0  0  0
   -3.1936   -3.3111   -0.6327 O   0  0  0  0  0  0  0  0  0  0  0  0
   -1.0634    1.1640    0.0321 N   0  0  0  0  0  0  0  0  0  0  0  0
   -0.1147    2.1003    0.0946 C   0  0  0  0  0  0  0  0  0  0  0  0
   -0.4887    3.4348   -0.0151 C   0  0  0  0  0  0  0  0  0  0  0  0
    0.4442    4.4731    0.0523 C   0  0  0  0  0  0  0  0  0  0  0  0
    1.7875    4.1791    0.2375 C   0  0  0  0  0  0  0  0  0  0  0  0
    2.1855    2.8487    0.3465 C   0  0  0  0  0  0  0  0  0  0  0  0
    1.2376    1.7952    0.2679 C   0  0  0  0  0  0  0  0  0  0  0  0
    3.3085    0.0118   -2.5752 H   0  0  0  0  0  0  0  0  0  0  0  0
    4.3666   -1.9587   -2.7057 H   0  0  0  0  0  0  0  0  0  0  0  0
    5.2748   -1.5452   -1.2428 H   0  0  0  0  0  0  0  0  0  0  0  0
    2.2236   -1.8392   -1.3938 H   0  0  0  0  0  0  0  0  0  0  0  0
    3.3213   -3.0934   -0.8087 H   0  0  0  0  0  0  0  0  0  0  0  0
    4.1257   -1.5672    0.9930 H   0  0  0  0  0  0  0  0  0  0  0  0
    2.4297   -1.9594    1.1510 H   0  0  0  0  0  0  0  0  0  0  0  0
    3.4531    0.4817   -0.1884 H   0  0  0  0  0  0  0  0  0  0  0  0
   -1.1533   -1.9969    0.3714 H   0  0  0  0  0  0  0  0  0  0  0  0
   -3.1347    0.7967    1.3500 H   0  0  0  0  0  0  0  0  0  0  0  0
   -5.5171    0.6163    1.9012 H   0  0  0  0  0  0  0  0  0  0  0  0
   -6.7970   -1.4327    1.3276 H   0  0  0  0  0  0  0  0  0  0  0  0
   -5.6646   -3.2997    0.1346 H   0  0  0  0  0  0  0  0  0  0  0  0
   -2.4455   -2.9027   -1.1054 H   0  0  0  0  0  0  0  0  0  0  0  0
   -1.5409    3.6746   -0.1545 H   0  0  0  0  0  0  0  0  0  0  0  0
    0.1150    5.5054   -0.0344 H   0  0  0  0  0  0  0  0  0  0  0  0
    2.5222    4.9776    0.3006 H   0  0  0  0  0  0  0  0  0  0  0  0
    3.2390    2.6281    0.5047 H   0  0  0  0  0  0  0  0  0  0  0  0
  1  2  1  0
  2  3  1  0
  3  4  1  0
  4  5  1  0
  5  6  1  0
  6  7  2  0
  7  8  1  0
  8  9  1  0
  9 10  1  0
 10 11  2  0
 11 12  1  0
 12 13  2  0
 13 14  1  0
 14 15  2  0
 15 16  1  0
  8 17  2  0
 17 18  1  0
 18 19  2  0
 19 20  1  0
 20 21  2  0
 21 22  1  0
 22 23  2  0
 23  6  1  0
 15 10  1  0
 23 18  1  0
  1 24  1  0
  2 25  1  0
  2 26  1  0
  3 27  1  0
  3 28  1  0
  4 29  1  0
  4 30  1  0
  5 31  1  0
  9 32  1  0
 11 33  1  0
 12 34  1  0
 13 35  1  0
 14 36  1  0
 16 37  1  0
 19 38  1  0
 20 39  1  0
 21 40  1  0
 22 41  1  0
M  END
>  <ScrubInfo>  (1) 
{"isomerGroup": 0, "isomerId": 0, "confId": 0, "nr_conformers:": 1, "nr_isomers:": 6}

$$$$
_i1
     RDKit          3D

 41 43  0  0  0  0  0  0  0  0999 V2000
   -0.2676   -0.3273   -0.7808 N   0  0  0  0  0  0  0  0  0  0  0  0
   -1.4265   -1.0485   -0.7540 C   0  0  0  0  0  0  0  0  0  0  0  0
   -2.5902   -0.3440   -0.9180 N   0  0  0  0  0  0  0  0  0  0  0  0
   -2.8944    0.8531   -0.2184 C   0  0  0  0  0  0  0  0  0  0  0  0
   -2.4116    1.1237    1.0675 C   0  0  0  0  0  0  0  0  0  0  0  0
   -2.8062    2.2833    1.7421 C   0  0  0  0  0  0  0  0  0  0  0  0
   -3.7058    3.1705    1.1496 C   0  0  0  0  0  0  0  0  0  0  0  0
   -4.2172    2.9004   -0.1179 C   0  0  0  0  0  0  0  0  0  0  0  0
   -3.8133    1.7495   -0.7846 C   0  0  0  0  0  0  0  0  0  0  0  0
   -4.3220    1.5212   -2.0348 O   0  0  0  0  0  0  0  0  0  0  0  0
   -1.4598   -2.3445   -0.6278 N   0  0  0  0  0  0  0  0  0  0  0  0
   -0.2119   -2.9988   -0.4810 C   0  0  0  0  0  0  0  0  0  0  0  0
   -0.2121   -4.3881   -0.3308 C   0  0  0  0  0  0  0  0  0  0  0  0
    0.9872   -5.0910   -0.1786 C   0  0  0  0  0  0  0  0  0  0  0  0
    2.2051   -4.4100   -0.1746 C   0  0  0  0  0  0  0  0  0  0  0  0
    2.2289   -3.0237   -0.3233 C   0  0  0  0  0  0  0  0  0  0  0  0
    1.0262   -2.3252   -0.4757 C   0  0  0  0  0  0  0  0  0  0  0  0
    0.9966   -0.8406   -0.6395 C   0  0  0  0  0  0  0  0  0  0  0  0
    2.1134   -0.1942   -0.6349 N   0  0  0  0  0  0  0  0  0  0  0  0
    2.0845    1.2598   -0.7789 C   0  0  0  0  0  0  0  0  0  0  0  0
    3.4855    1.8078   -0.5063 C   0  0  0  0  0  0  0  0  0  0  0  0
    3.8434    1.7682    0.9749 C   0  0  0  0  0  0  0  0  0  0  0  0
    3.0671    2.7177    1.7000 O   0  0  0  0  0  0  0  0  0  0  0  0
   -0.3619    0.6654   -0.9237 H   0  0  0  0  0  0  0  0  0  0  0  0
   -3.3757   -0.9876   -0.8154 H   0  0  0  0  0  0  0  0  0  0  0  0
   -1.7362    0.4336    1.5687 H   0  0  0  0  0  0  0  0  0  0  0  0
   -2.4193    2.4878    2.7381 H   0  0  0  0  0  0  0  0  0  0  0  0
   -4.0144    4.0681    1.6796 H   0  0  0  0  0  0  0  0  0  0  0  0
   -4.9231    3.5816   -0.5840 H   0  0  0  0  0  0  0  0  0  0  0  0
   -3.8247    0.7655   -2.3985 H   0  0  0  0  0  0  0  0  0  0  0  0
   -1.1571   -4.9250   -0.3321 H   0  0  0  0  0  0  0  0  0  0  0  0
    0.9685   -6.1719   -0.0626 H   0  0  0  0  0  0  0  0  0  0  0  0
    3.1359   -4.9591   -0.0555 H   0  0  0  0  0  0  0  0  0  0  0  0
    3.1771   -2.4926   -0.3200 H   0  0  0  0  0  0  0  0  0  0  0  0
    1.8015    1.5151   -1.8069 H   0  0  0  0  0  0  0  0  0  0  0  0
    1.3632    1.7227   -0.0956 H   0  0  0  0  0  0  0  0  0  0  0  0
    3.5237    2.8460   -0.8568 H   0  0  0  0  0  0  0  0  0  0  0  0
    4.2258    1.2335   -1.0755 H   0  0  0  0  0  0  0  0  0  0  0  0
    3.6701    0.7783    1.4075 H   0  0  0  0  0  0  0  0  0  0  0  0
    4.8998    2.0176    1.1187 H   0  0  0  0  0  0  0  0  0  0  0  0
    3.3476    3.6015    1.4076 H   0  0  0  0  0  0  0  0  0  0  0  0
  1  2  1  0
  2  3  1  0
  3  4  1  0
  4  5  2  0
  5  6  1  0
  6  7  2  0
  7  8  1  0
  8  9  2  0
  9 10  1  0
  2 11  2  0
 11 12  1  0
 12 13  2  0
 13 14  1  0
 14 15  2  0
 15 16  1  0
 16 17  2  0
 17 18  1  0
 18 19  2  3
 19 20  1  0
 20 21  1  0
 21 22  1  0
 22 23  1  0
 18  1  1  0
  9  4  1  0
 17 12  1  0
  1 24  1  0
  3 25  1  0
  5 26  1  0
  6 27  1  0
  7 28  1  0
  8 29  1  0
 10 30  1  0
 13 31  1  0
 14 32  1  0
 15 33  1  0
 16 34  1  0
 20 35  1  0
 20 36  1  0
 21 37  1  0
 21 38  1  0
 22 39  1  0
 22 40  1  0
 23 41  1  0
M  END
>  <ScrubInfo>  (2) 
{"isomerGroup": 0, "isomerId": 1, "confId": 0, "nr_conformers:": 1, "nr_isomers:": 6}

$$$$
_i2
     RDKit          3D

 41 43  0  0  0  0  0  0  0  0999 V2000
    0.1561    0.6594    0.3832 N   0  0  0  0  0  0  0  0  0  0  0  0
    1.1067    0.2123   -0.5030 C   0  0  0  0  0  0  0  0  0  0  0  0
    2.4172    0.6772   -0.4136 N   0  0  0  0  0  0  0  0  0  0  0  0
    2.9956    1.3508    0.7417 C   0  0  0  0  0  0  0  0  0  0  0  0
    4.4327    1.7833    0.4670 C   0  0  0  0  0  0  0  0  0  0  0  0
    5.4128    0.6180    0.4845 C   0  0  0  0  0  0  0  0  0  0  0  0
    6.7386    1.1009    0.3093 O   0  0  0  0  0  0  0  0  0  0  0  0
    0.7078   -0.6792   -1.4475 C   0  0  0  0  0  0  0  0  0  0  0  0
    1.5219   -1.2592   -2.5030 C   0  0  0  0  0  0  0  0  0  0  0  0
    1.0119   -2.1568   -3.3583 C   0  0  0  0  0  0  0  0  0  0  0  0
   -0.3618   -2.5853   -3.2692 C   0  0  0  0  0  0  0  0  0  0  0  0
   -1.2037   -2.0943   -2.3510 C   0  0  0  0  0  0  0  0  0  0  0  0
   -0.7505   -1.0775   -1.3598 C   0  0  0  0  0  0  0  0  0  0  0  0
   -1.6209   -0.6220   -0.5130 N   0  0  0  0  0  0  0  0  0  0  0  0
   -1.1600    0.3078    0.3774 C   0  0  0  0  0  0  0  0  0  0  0  0
   -1.9603    0.8679    1.2404 N   0  0  0  0  0  0  0  0  0  0  0  0
   -3.3288    0.5315    1.2251 C   0  0  0  0  0  0  0  0  0  0  0  0
   -4.2013    1.0435    0.2619 C   0  0  0  0  0  0  0  0  0  0  0  0
   -5.5604    0.7162    0.2966 C   0  0  0  0  0  0  0  0  0  0  0  0
   -6.0575   -0.1143    1.3044 C   0  0  0  0  0  0  0  0  0  0  0  0
   -5.2002   -0.6152    2.2837 C   0  0  0  0  0  0  0  0  0  0  0  0
   -3.8519   -0.2826    2.2384 C   0  0  0  0  0  0  0  0  0  0  0  0
   -3.0234   -0.7589    3.2202 O   0  0  0  0  0  0  0  0  0  0  0  0
    0.4036    1.4140    0.9996 H   0  0  0  0  0  0  0  0  0  0  0  0
    3.0728    0.1063   -0.9354 H   0  0  0  0  0  0  0  0  0  0  0  0
    2.9526    0.6971    1.6205 H   0  0  0  0  0  0  0  0  0  0  0  0
    2.4098    2.2500    0.9640 H   0  0  0  0  0  0  0  0  0  0  0  0
    4.7417    2.5070    1.2320 H   0  0  0  0  0  0  0  0  0  0  0  0
    4.5025    2.3130   -0.4913 H   0  0  0  0  0  0  0  0  0  0  0  0
    5.3736    0.0906    1.4426 H   0  0  0  0  0  0  0  0  0  0  0  0
    5.2041   -0.1032   -0.3112 H   0  0  0  0  0  0  0  0  0  0  0  0
    6.7810    1.5577   -0.5485 H   0  0  0  0  0  0  0  0  0  0  0  0
    2.5542   -0.9530   -2.6173 H   0  0  0  0  0  0  0  0  0  0  0  0
    1.6237   -2.5806   -4.1497 H   0  0  0  0  0  0  0  0  0  0  0  0
   -0.7067   -3.3261   -3.9849 H   0  0  0  0  0  0  0  0  0  0  0  0
   -2.2385   -2.4100   -2.2873 H   0  0  0  0  0  0  0  0  0  0  0  0
   -3.8178    1.6911   -0.5206 H   0  0  0  0  0  0  0  0  0  0  0  0
   -6.2306    1.1108   -0.4623 H   0  0  0  0  0  0  0  0  0  0  0  0
   -7.1143   -0.3665    1.3295 H   0  0  0  0  0  0  0  0  0  0  0  0
   -5.5771   -1.2527    3.0769 H   0  0  0  0  0  0  0  0  0  0  0  0
   -2.1553   -0.3689    2.9957 H   0  0  0  0  0  0  0  0  0  0  0  0
  1  2  1  0
  2  3  1  0
  3  4  1  0
  4  5  1  0
  5  6  1  0
  6  7  1  0
  2  8  2  0
  8  9  1  0
  9 10  2  0
 10 11  1  0
 11 12  2  0
 12 13  1  0
 13 14  2  0
 14 15  1  0
 15 16  2  3
 16 17  1  0
 17 18  2  0
 18 19  1  0
 19 20  2  0
 20 21  1  0
 21 22  2  0
 22 23  1  0
 15  1  1  0
 22 17  1  0
 13  8  1  0
  1 24  1  0
  3 25  1  0
  4 26  1  0
  4 27  1  0
  5 28  1  0
  5 29  1  0
  6 30  1  0
  6 31  1  0
  7 32  1  0
  9 33  1  0
 10 34  1  0
 11 35  1  0
 12 36  1  0
 18 37  1  0
 19 38  1  0
 20 39  1  0
 21 40  1  0
 23 41  1  0
M  END
>  <ScrubInfo>  (3) 
{"isomerGroup": 0, "isomerId": 2, "confId": 0, "nr_conformers:": 1, "nr_isomers:": 6}

$$$$
_i3
     RDKit          3D

 41 43  0  0  0  0  0  0  0  0999 V2000
    1.3342   -0.7488    0.4116 N   0  0  0  0  0  0  0  0  0  0  0  0
    1.0709    0.4875   -0.1183 C   0  0  0  0  0  0  0  0  0  0  0  0
    1.9568    1.4015   -0.3841 N   0  0  0  0  0  0  0  0  0  0  0  0
    3.3090    1.1484   -0.1092 C   0  0  0  0  0  0  0  0  0  0  0  0
    3.8471    1.3593    1.1607 C   0  0  0  0  0  0  0  0  0  0  0  0
    5.1946    1.0799    1.4051 C   0  0  0  0  0  0  0  0  0  0  0  0
    6.0100    0.5977    0.3770 C   0  0  0  0  0  0  0  0  0  0  0  0
    5.4851    0.4027   -0.9007 C   0  0  0  0  0  0  0  0  0  0  0  0
    4.1464    0.6886   -1.1323 C   0  0  0  0  0  0  0  0  0  0  0  0
    3.6375    0.5129   -2.3908 O   0  0  0  0  0  0  0  0  0  0  0  0
   -0.2057    0.8741   -0.4349 N   0  0  0  0  0  0  0  0  0  0  0  0
   -1.1924    0.0278   -0.3271 C   0  0  0  0  0  0  0  0  0  0  0  0
   -2.4781    0.4399   -0.6235 N   0  0  0  0  0  0  0  0  0  0  0  0
   -2.7982    1.8400   -0.8502 C   0  0  0  0  0  0  0  0  0  0  0  0
   -4.2955    2.0032   -1.1196 C   0  0  0  0  0  0  0  0  0  0  0  0
   -5.1531    1.7108    0.1082 C   0  0  0  0  0  0  0  0  0  0  0  0
   -5.0136    0.3469    0.5014 O   0  0  0  0  0  0  0  0  0  0  0  0
   -0.9698   -1.3874    0.1114 C   0  0  0  0  0  0  0  0  0  0  0  0
   -1.9868   -2.3474    0.1568 C   0  0  0  0  0  0  0  0  0  0  0  0
   -1.6966   -3.6421    0.5907 C   0  0  0  0  0  0  0  0  0  0  0  0
   -0.3986   -3.9754    0.9762 C   0  0  0  0  0  0  0  0  0  0  0  0
    0.6175   -3.0193    0.9159 C   0  0  0  0  0  0  0  0  0  0  0  0
    0.3417   -1.7261    0.4619 C   0  0  0  0  0  0  0  0  0  0  0  0
    2.2965   -1.0406    0.4746 H   0  0  0  0  0  0  0  0  0  0  0  0
    3.2148    1.7436    1.9563 H   0  0  0  0  0  0  0  0  0  0  0  0
    5.6108    1.2463    2.3956 H   0  0  0  0  0  0  0  0  0  0  0  0
    7.0592    0.3869    0.5688 H   0  0  0  0  0  0  0  0  0  0  0  0
    6.1137    0.0440   -1.7099 H   0  0  0  0  0  0  0  0  0  0  0  0
    2.7373    0.9010   -2.3449 H   0  0  0  0  0  0  0  0  0  0  0  0
   -3.2368   -0.0384   -0.1340 H   0  0  0  0  0  0  0  0  0  0  0  0
   -2.2398    2.2056   -1.7195 H   0  0  0  0  0  0  0  0  0  0  0  0
   -2.5071    2.4417    0.0186 H   0  0  0  0  0  0  0  0  0  0  0  0
   -4.5902    1.3332   -1.9368 H   0  0  0  0  0  0  0  0  0  0  0  0
   -4.4868    3.0318   -1.4458 H   0  0  0  0  0  0  0  0  0  0  0  0
   -4.8626    2.3478    0.9497 H   0  0  0  0  0  0  0  0  0  0  0  0
   -6.2074    1.8933   -0.1227 H   0  0  0  0  0  0  0  0  0  0  0  0
   -5.6271    0.2111    1.2466 H   0  0  0  0  0  0  0  0  0  0  0  0
   -3.0009   -2.1126   -0.1500 H   0  0  0  0  0  0  0  0  0  0  0  0
   -2.4839   -4.3913    0.6275 H   0  0  0  0  0  0  0  0  0  0  0  0
   -0.1761   -4.9829    1.3200 H   0  0  0  0  0  0  0  0  0  0  0  0
    1.6241   -3.2948    1.2194 H   0  0  0  0  0  0  0  0  0  0  0  0
  1  2  1  0
  2  3  2  3
  3  4  1  0
  4  5  2  0
  5  6  1  0
  6  7  2  0
  7  8  1  0
  8  9  2  0
  9 10  1  0
  2 11  1  0
 11 12  2  0
 12 13  1  0
 13 14  1  0
 14 15  1  0
 15 16  1  0
 16 17  1  0
 12 18  1  0
 18 19  2  0
 19 20  1  0
 20 21  2  0
 21 22  1  0
 22 23  2  0
 23  1  1  0
  9  4  1  0
 23 18  1  0
  1 24  1  0
  5 25  1  0
  6 26  1  0
  7 27  1  0
  8 28  1  0
 10 29  1  0
 13 30  1  0
 14 31  1  0
 14 32  1  0
 15 33  1  0
 15 34  1  0
 16 35  1  0
 16 36  1  0
 17 37  1  0
 19 38  1  0
 20 39  1  0
 21 40  1  0
 22 41  1  0
M  END
>  <ScrubInfo>  (4) 
{"isomerGroup": 0, "isomerId": 3, "confId": 0, "nr_conformers:": 1, "nr_isomers:": 6}

$$$$
_i4
     RDKit          3D

 41 43  0  0  0  0  0  0  0  0999 V2000
    0.9780   -0.8677   -0.2224 N   0  0  0  0  0  0  0  0  0  0  0  0
    0.9682    0.0839    0.7662 C   0  0  0  0  0  0  0  0  0  0  0  0
    2.1016    0.8388    0.8561 N   0  0  0  0  0  0  0  0  0  0  0  0
    2.7502    1.5649   -0.1724 C   0  0  0  0  0  0  0  0  0  0  0  0
    2.3409    1.5648   -1.5104 C   0  0  0  0  0  0  0  0  0  0  0  0
    3.0691    2.2604   -2.4821 C   0  0  0  0  0  0  0  0  0  0  0  0
    4.2230    2.9594   -2.1315 C   0  0  0  0  0  0  0  0  0  0  0  0
    4.6515    2.9733   -0.8062 C   0  0  0  0  0  0  0  0  0  0  0  0
    3.9177    2.2800    0.1559 C   0  0  0  0  0  0  0  0  0  0  0  0
    4.3165    2.2932    1.4692 O   0  0  0  0  0  0  0  0  0  0  0  0
    0.0255    0.2237    1.6511 N   0  0  0  0  0  0  0  0  0  0  0  0
   -1.1108   -0.5355    1.4758 C   0  0  0  0  0  0  0  0  0  0  0  0
   -2.1785    0.0778    1.8394 N   0  0  0  0  0  0  0  0  0  0  0  0
   -3.5436   -0.3519    1.6101 C   0  0  0  0  0  0  0  0  0  0  0  0
   -3.9680   -0.1108    0.1604 C   0  0  0  0  0  0  0  0  0  0  0  0
   -3.9368    1.3659   -0.2267 C   0  0  0  0  0  0  0  0  0  0  0  0
   -2.6036    1.8479   -0.3223 O   0  0  0  0  0  0  0  0  0  0  0  0
   -0.9563   -1.8689    0.8289 C   0  0  0  0  0  0  0  0  0  0  0  0
   -1.7591   -2.9825    1.0785 C   0  0  0  0  0  0  0  0  0  0  0  0
   -1.5525   -4.1626    0.3598 C   0  0  0  0  0  0  0  0  0  0  0  0
   -0.5394   -4.2338   -0.5959 C   0  0  0  0  0  0  0  0  0  0  0  0
    0.3002   -3.1395   -0.8072 C   0  0  0  0  0  0  0  0  0  0  0  0
    0.1241   -1.9707   -0.0619 C   0  0  0  0  0  0  0  0  0  0  0  0
    1.8951   -1.0749   -0.5959 H   0  0  0  0  0  0  0  0  0  0  0  0
    2.1505    1.3770    1.7195 H   0  0  0  0  0  0  0  0  0  0  0  0
    1.4290    1.0610   -1.8190 H   0  0  0  0  0  0  0  0  0  0  0  0
    2.7248    2.2627   -3.5138 H   0  0  0  0  0  0  0  0  0  0  0  0
    4.7813    3.5005   -2.8914 H   0  0  0  0  0  0  0  0  0  0  0  0
    5.5471    3.5268   -0.5432 H   0  0  0  0  0  0  0  0  0  0  0  0
    5.1289    2.8207    1.5408 H   0  0  0  0  0  0  0  0  0  0  0  0
   -3.7275   -1.3836    1.9059 H   0  0  0  0  0  0  0  0  0  0  0  0
   -4.1915    0.2416    2.2670 H   0  0  0  0  0  0  0  0  0  0  0  0
   -3.3206   -0.6782   -0.5174 H   0  0  0  0  0  0  0  0  0  0  0  0
   -4.9903   -0.4853    0.0335 H   0  0  0  0  0  0  0  0  0  0  0  0
   -4.4825    1.9812    0.4957 H   0  0  0  0  0  0  0  0  0  0  0  0
   -4.4050    1.5021   -1.2064 H   0  0  0  0  0  0  0  0  0  0  0  0
   -2.1613    1.6008    0.5198 H   0  0  0  0  0  0  0  0  0  0  0  0
   -2.5230   -2.9684    1.8455 H   0  0  0  0  0  0  0  0  0  0  0  0
   -2.1828   -5.0291    0.5477 H   0  0  0  0  0  0  0  0  0  0  0  0
   -0.3906   -5.1502   -1.1624 H   0  0  0  0  0  0  0  0  0  0  0  0
    1.1005   -3.2147   -1.5383 H   0  0  0  0  0  0  0  0  0  0  0  0
  1  2  1  0
  2  3  1  0
  3  4  1  0
  4  5  2  0
  5  6  1  0
  6  7  2  0
  7  8  1  0
  8  9  2  0
  9 10  1  0
  2 11  2  0
 11 12  1  0
 12 13  2  3
 13 14  1  0
 14 15  1  0
 15 16  1  0
 16 17  1  0
 12 18  1  0
 18 19  2  0
 19 20  1  0
 20 21  2  0
 21 22  1  0
 22 23  2  0
 23  1  1  0
  9  4  1  0
 23 18  1  0
  1 24  1  0
  3 25  1  0
  5 26  1  0
  6 27  1  0
  7 28  1  0
  8 29  1  0
 10 30  1  0
 14 31  1  0
 14 32  1  0
 15 33  1  0
 15 34  1  0
 16 35  1  0
 16 36  1  0
 17 37  1  0
 19 38  1  0
 20 39  1  0
 21 40  1  0
 22 41  1  0
M  END
>  <ScrubInfo>  (5) 
{"isomerGroup": 0, "isomerId": 4, "confId": 0, "nr_conformers:": 1, "nr_isomers:": 6}

$$$$
_i5
     RDKit          3D

 41 43  0  0  0  0  0  0  0  0999 V2000
    1.2677   -0.7028    0.3091 N   0  0  0  0  0  0  0  0  0  0  0  0
    0.9842    0.5575   -0.1544 C   0  0  0  0  0  0  0  0  0  0  0  0
    1.8272    1.5254   -0.3803 N   0  0  0  0  0  0  0  0  0  0  0  0
    3.1864    1.3124   -0.0879 C   0  0  0  0  0  0  0  0  0  0  0  0
    3.6865    1.5220    1.1984 C   0  0  0  0  0  0  0  0  0  0  0  0
    5.0371    1.2897    1.4731 C   0  0  0  0  0  0  0  0  0  0  0  0
    5.8951    0.8550    0.4596 C   0  0  0  0  0  0  0  0  0  0  0  0
    5.4090    0.6596   -0.8330 C   0  0  0  0  0  0  0  0  0  0  0  0
    4.0660    0.8978   -1.0955 C   0  0  0  0  0  0  0  0  0  0  0  0
    3.6035    0.7164   -2.3704 O   0  0  0  0  0  0  0  0  0  0  0  0
   -0.3432    0.7774   -0.4025 N   0  0  0  0  0  0  0  0  0  0  0  0
   -1.4128   -0.0740   -0.2542 C   0  0  0  0  0  0  0  0  0  0  0  0
   -2.6581    0.1913   -0.4791 N   0  0  0  0  0  0  0  0  0  0  0  0
   -3.0147    1.5275   -0.9599 C   0  0  0  0  0  0  0  0  0  0  0  0
   -4.5244    1.5882   -1.2082 C   0  0  0  0  0  0  0  0  0  0  0  0
   -5.3397    1.3922    0.0677 C   0  0  0  0  0  0  0  0  0  0  0  0
   -5.2063    0.0658    0.5628 O   0  0  0  0  0  0  0  0  0  0  0  0
   -1.0595   -1.4482    0.2226 C   0  0  0  0  0  0  0  0  0  0  0  0
   -2.0265   -2.4431    0.4000 C   0  0  0  0  0  0  0  0  0  0  0  0
   -1.6410   -3.7052    0.8506 C   0  0  0  0  0  0  0  0  0  0  0  0
   -0.2983   -3.9701    1.1210 C   0  0  0  0  0  0  0  0  0  0  0  0
    0.6673   -2.9755    0.9397 C   0  0  0  0  0  0  0  0  0  0  0  0
    0.2990   -1.7050    0.4832 C   0  0  0  0  0  0  0  0  0  0  0  0
    2.2337   -0.9557    0.4640 H   0  0  0  0  0  0  0  0  0  0  0  0
    3.0231    1.8673    1.9866 H   0  0  0  0  0  0  0  0  0  0  0  0
    5.4222    1.4543    2.4766 H   0  0  0  0  0  0  0  0  0  0  0  0
    6.9464    0.6795    0.6748 H   0  0  0  0  0  0  0  0  0  0  0  0
    6.0712    0.3351   -1.6301 H   0  0  0  0  0  0  0  0  0  0  0  0
    2.6844    1.0502   -2.3477 H   0  0  0  0  0  0  0  0  0  0  0  0
   -0.5325    1.7161   -0.7182 H   0  0  0  0  0  0  0  0  0  0  0  0
   -2.4994    1.7421   -1.9035 H   0  0  0  0  0  0  0  0  0  0  0  0
   -2.7336    2.2901   -0.2240 H   0  0  0  0  0  0  0  0  0  0  0  0
   -4.7987    0.8152   -1.9364 H   0  0  0  0  0  0  0  0  0  0  0  0
   -4.7709    2.5633   -1.6430 H   0  0  0  0  0  0  0  0  0  0  0  0
   -5.0226    2.0888    0.8503 H   0  0  0  0  0  0  0  0  0  0  0  0
   -6.4011    1.5664   -0.1328 H   0  0  0  0  0  0  0  0  0  0  0  0
   -4.2681   -0.1796    0.4100 H   0  0  0  0  0  0  0  0  0  0  0  0
   -3.0739   -2.2453    0.1885 H   0  0  0  0  0  0  0  0  0  0  0  0
   -2.3894   -4.4817    0.9912 H   0  0  0  0  0  0  0  0  0  0  0  0
   -0.0023   -4.9553    1.4741 H   0  0  0  0  0  0  0  0  0  0  0  0
    1.7071   -3.2054    1.1572 H   0  0  0  0  0  0  0  0  0  0  0  0
  1  2  1  0
  2  3  2  3
  3  4  1  0
  4  5  2  0
  5  6  1  0
  6  7  2  0
  7  8  1  0
  8  9  2  0
  9 10  1  0
  2 11  1  0
 11 12  1  0
 12 13  2  3
 13 14  1  0
 14 15  1  0
 15 16  1  0
 16 17  1  0
 12 18  1  0
 18 19  2  0
 19 20  1  0
 20 21  2  0
 21 22  1  0
 22 23  2  0
 23  1  1  0
  9  4  1  0
 23 18  1  0
  1 24  1  0
  5 25  1  0
  6 26  1  0
  7 27  1  0
  8 28  1  0
 10 29  1  0
 11 30  1  0
 14 31  1  0
 14 32  1  0
 15 33  1  0
 15 34  1  0
 16 35  1  0
 16 36  1  0
 17 37  1  0
 19 38  1  0
 20 39  1  0
 21 40  1  0
 22 41  1  0
M  END
>  <ScrubInfo>  (6) 
{"isomerGroup": 0, "isomerId": 5, "confId": 0, "nr_conformers:": 1, "nr_isomers:": 6}

$$$$
