REMARK SMILES COc1ccc(Nc2nc(NCc3ccccc3)nc3nccnc23)cc1
REMARK SMILES IDX 8 1 9 2 10 3 19 4 20 5 21 6 22 7 23 8 24 9 25 10 7 11 6 13
REMARK SMILES IDX 3 14 4 15 27 16 5 17 26 18 2 19 1 20 11 21 12 23 13 24 14 25
REMARK SMILES IDX 18 26 15 27 17 28 16 29
REMARK H PARENT 7 12 11 22
ROOT
ATOM      1  C   UNL     1      -1.027  -1.286   0.945  1.00  0.00     0.164 A 
ATOM      2  N   UNL     1      -0.018  -0.496   0.533  1.00  0.00    -0.193 NA
ATOM      3  C   UNL     1       1.204  -0.753   0.991  1.00  0.00     0.227 A 
ATOM      4  N   UNL     1       1.490  -1.754   1.819  1.00  0.00    -0.191 NA
ATOM      5  C   UNL     1       0.494  -2.531   2.225  1.00  0.00     0.185 A 
ATOM      6  N   UNL     1       0.799  -3.536   3.056  1.00  0.00    -0.233 NA
ATOM      7  C   UNL     1      -0.202  -4.342   3.475  1.00  0.00     0.133 A 
ATOM      8  C   UNL     1      -1.506  -4.167   3.070  1.00  0.00     0.132 A 
ATOM      9  N   UNL     1      -1.852  -3.176   2.228  1.00  0.00    -0.247 NA
ATOM     10  C   UNL     1      -0.834  -2.353   1.819  1.00  0.00     0.150 A 
ENDROOT
BRANCH   1  11
ATOM     11  N   UNL     1      -2.365  -1.039   0.525  1.00  0.00    -0.338 N 
ATOM     12  H   UNL     1      -2.928  -1.876   0.654  1.00  0.00     0.168 HD
BRANCH  11  13
ATOM     13  C   UNL     1      -2.925  -0.072  -0.323  1.00  0.00     0.040 A 
ATOM     14  C   UNL     1      -4.202   1.836  -1.990  1.00  0.00     0.119 A 
ATOM     15  C   UNL     1      -2.902   2.042  -1.532  1.00  0.00     0.048 A 
ATOM     16  C   UNL     1      -4.874   0.680  -1.604  1.00  0.00     0.048 A 
ATOM     17  C   UNL     1      -2.274   1.103  -0.703  1.00  0.00     0.030 A 
ATOM     18  C   UNL     1      -4.242  -0.256  -0.774  1.00  0.00     0.030 A 
BRANCH  14  19
ATOM     19  O   UNL     1      -4.694   2.828  -2.791  1.00  0.00    -0.497 OA
ATOM     20  C   UNL     1      -6.019   2.661  -3.280  1.00  0.00     0.278 C 
ENDBRANCH  14  19
ENDBRANCH  11  13
ENDBRANCH   1  11
BRANCH   3  21
ATOM     21  N   UNL     1       2.200   0.100   0.550  1.00  0.00    -0.350 N 
ATOM     22  H   UNL     1       1.852   0.575  -0.275  1.00  0.00     0.164 HD
BRANCH  21  23
ATOM     23  C   UNL     1       3.503  -0.513   0.402  1.00  0.00     0.152 C 
BRANCH  23  24
ATOM     24  C   UNL     1       4.432   0.465  -0.281  1.00  0.00    -0.029 A 
ATOM     25  C   UNL     1       4.934   1.571   0.420  1.00  0.00     0.005 A 
ATOM     26  C   UNL     1       4.782   0.300  -1.629  1.00  0.00     0.005 A 
ATOM     27  C   UNL     1       5.781   2.485  -0.209  1.00  0.00     0.000 A 
ATOM     28  C   UNL     1       5.630   1.216  -2.256  1.00  0.00     0.000 A 
ATOM     29  C   UNL     1       6.129   2.306  -1.546  1.00  0.00     0.000 A 
ENDBRANCH  23  24
ENDBRANCH  21  23
ENDBRANCH   3  21
TORSDOF 6
