_i0
     RDKit          3D

 45 48  0  0  0  0  0  0  0  0999 V2000
   -6.0188    2.6606   -3.2797 C   0  0  0  0  0  0  0  0  0  0  0  0
   -4.6945    2.8280   -2.7905 O   0  0  0  0  0  0  0  0  0  0  0  0
   -4.2019    1.8359   -1.9900 C   0  0  0  0  0  0  0  0  0  0  0  0
   -2.9018    2.0420   -1.5318 C   0  0  0  0  0  0  0  0  0  0  0  0
   -2.2741    1.1032   -0.7030 C   0  0  0  0  0  0  0  0  0  0  0  0
   -2.9250   -0.0716   -0.3227 C   0  0  0  0  0  0  0  0  0  0  0  0
   -2.3648   -1.0387    0.5255 N   0  0  0  0  0  0  0  0  0  0  0  0
   -1.0266   -1.2864    0.9452 C   0  0  0  0  0  0  0  0  0  0  0  0
   -0.0181   -0.4961    0.5333 N   0  0  0  0  0  0  0  0  0  0  0  0
    1.2043   -0.7531    0.9910 C   0  0  0  0  0  0  0  0  0  0  0  0
    2.1999    0.1003    0.5503 N   0  0  0  0  0  0  0  0  0  0  0  0
    3.5034   -0.5126    0.4023 C   0  0  0  0  0  0  0  0  0  0  0  0
    4.4319    0.4651   -0.2811 C   0  0  0  0  0  0  0  0  0  0  0  0
    4.9342    1.5715    0.4203 C   0  0  0  0  0  0  0  0  0  0  0  0
    5.7806    2.4853   -0.2088 C   0  0  0  0  0  0  0  0  0  0  0  0
    6.1294    2.3060   -1.5460 C   0  0  0  0  0  0  0  0  0  0  0  0
    5.6295    1.2158   -2.2564 C   0  0  0  0  0  0  0  0  0  0  0  0
    4.7822    0.3005   -1.6291 C   0  0  0  0  0  0  0  0  0  0  0  0
    1.4897   -1.7536    1.8193 N   0  0  0  0  0  0  0  0  0  0  0  0
    0.4944   -2.5307    2.2252 C   0  0  0  0  0  0  0  0  0  0  0  0
    0.7990   -3.5361    3.0560 N   0  0  0  0  0  0  0  0  0  0  0  0
   -0.2023   -4.3420    3.4754 C   0  0  0  0  0  0  0  0  0  0  0  0
   -1.5056   -4.1673    3.0700 C   0  0  0  0  0  0  0  0  0  0  0  0
   -1.8519   -3.1756    2.2285 N   0  0  0  0  0  0  0  0  0  0  0  0
   -0.8337   -2.3535    1.8186 C   0  0  0  0  0  0  0  0  0  0  0  0
   -4.2416   -0.2564   -0.7743 C   0  0  0  0  0  0  0  0  0  0  0  0
   -4.8742    0.6804   -1.6039 C   0  0  0  0  0  0  0  0  0  0  0  0
   -6.0969    1.7694   -3.9112 H   0  0  0  0  0  0  0  0  0  0  0  0
   -6.7421    2.6282   -2.4581 H   0  0  0  0  0  0  0  0  0  0  0  0
   -6.2586    3.5297   -3.8998 H   0  0  0  0  0  0  0  0  0  0  0  0
   -2.3671    2.9457   -1.8137 H   0  0  0  0  0  0  0  0  0  0  0  0
   -1.2704    1.3254   -0.3557 H   0  0  0  0  0  0  0  0  0  0  0  0
   -2.9281   -1.8761    0.6543 H   0  0  0  0  0  0  0  0  0  0  0  0
    1.8523    0.5748   -0.2754 H   0  0  0  0  0  0  0  0  0  0  0  0
    3.4424   -1.4340   -0.1919 H   0  0  0  0  0  0  0  0  0  0  0  0
    3.9303   -0.7794    1.3778 H   0  0  0  0  0  0  0  0  0  0  0  0
    4.6567    1.7258    1.4614 H   0  0  0  0  0  0  0  0  0  0  0  0
    6.1634    3.3391    0.3441 H   0  0  0  0  0  0  0  0  0  0  0  0
    6.7873    3.0190   -2.0359 H   0  0  0  0  0  0  0  0  0  0  0  0
    5.8979    1.0799   -3.3008 H   0  0  0  0  0  0  0  0  0  0  0  0
    4.3967   -0.5413   -2.1998 H   0  0  0  0  0  0  0  0  0  0  0  0
    0.0835   -5.1392    4.1526 H   0  0  0  0  0  0  0  0  0  0  0  0
   -2.3037   -4.8176    3.4090 H   0  0  0  0  0  0  0  0  0  0  0  0
   -4.7973   -1.1450   -0.4839 H   0  0  0  0  0  0  0  0  0  0  0  0
   -5.8899    0.4743   -1.9231 H   0  0  0  0  0  0  0  0  0  0  0  0
  1  2  1  0
  2  3  1  0
  3  4  2  0
  4  5  1  0
  5  6  2  0
  6  7  1  0
  7  8  1  0
  8  9  2  0
  9 10  1  0
 10 11  1  0
 11 12  1  0
 12 13  1  0
 13 14  2  0
 14 15  1  0
 15 16  2  0
 16 17  1  0
 17 18  2  0
 10 19  2  0
 19 20  1  0
 20 21  2  0
 21 22  1  0
 22 23  2  0
 23 24  1  0
 24 25  2  0
  6 26  1  0
 26 27  2  0
 27  3  1  0
 25  8  1  0
 18 13  1  0
 25 20  1  0
  1 28  1  0
  1 29  1  0
  1 30  1  0
  4 31  1  0
  5 32  1  0
  7 33  1  0
 11 34  1  0
 12 35  1  0
 12 36  1  0
 14 37  1  0
 15 38  1  0
 16 39  1  0
 17 40  1  0
 18 41  1  0
 22 42  1  0
 23 43  1  0
 26 44  1  0
 27 45  1  0
M  END
>  <ScrubInfo>  (1) 
{"isomerGroup": 0, "isomerId": 0, "confId": 0, "nr_conformers:": 1, "nr_isomers:": 9}

$$$$
_i1
     RDKit          3D

 45 48  0  0  0  0  0  0  0  0999 V2000
    0.6787    0.4344   -0.0503 N   0  0  0  0  0  0  0  0  0  0  0  0
    1.6633   -0.4938   -0.1981 C   0  0  0  0  0  0  0  0  0  0  0  0
    2.9125    0.0491   -0.2580 N   0  0  0  0  0  0  0  0  0  0  0  0
    4.0877   -0.8051   -0.2871 C   0  0  0  0  0  0  0  0  0  0  0  0
    5.3241    0.0594   -0.3408 C   0  0  0  0  0  0  0  0  0  0  0  0
    6.0925    0.2825    0.8109 C   0  0  0  0  0  0  0  0  0  0  0  0
    7.2216    1.1019    0.7594 C   0  0  0  0  0  0  0  0  0  0  0  0
    7.5894    1.7102   -0.4395 C   0  0  0  0  0  0  0  0  0  0  0  0
    6.8285    1.5026   -1.5885 C   0  0  0  0  0  0  0  0  0  0  0  0
    5.6997    0.6837   -1.5397 C   0  0  0  0  0  0  0  0  0  0  0  0
    1.4245   -1.7665   -0.2892 N   0  0  0  0  0  0  0  0  0  0  0  0
    0.0705   -2.1580   -0.2073 C   0  0  0  0  0  0  0  0  0  0  0  0
   -0.1232   -3.4981   -0.2735 N   0  0  0  0  0  0  0  0  0  0  0  0
   -1.4099   -3.9102   -0.1936 C   0  0  0  0  0  0  0  0  0  0  0  0
   -2.4729   -3.0310   -0.0525 C   0  0  0  0  0  0  0  0  0  0  0  0
   -2.3043   -1.6934    0.0157 N   0  0  0  0  0  0  0  0  0  0  0  0
   -1.0151   -1.2761   -0.0640 C   0  0  0  0  0  0  0  0  0  0  0  0
   -0.6718    0.1807    0.0003 C   0  0  0  0  0  0  0  0  0  0  0  0
   -1.4631    1.2202    0.0876 N   0  0  0  0  0  0  0  0  0  0  0  0
   -2.8535    1.0856    0.1383 C   0  0  0  0  0  0  0  0  0  0  0  0
   -3.5115    1.0083    1.3660 C   0  0  0  0  0  0  0  0  0  0  0  0
   -4.9053    0.9199    1.4141 C   0  0  0  0  0  0  0  0  0  0  0  0
   -5.6593    0.9258    0.2378 C   0  0  0  0  0  0  0  0  0  0  0  0
   -7.0112    0.8324    0.4245 O   0  0  0  0  0  0  0  0  0  0  0  0
   -7.8221    0.8520   -0.7431 C   0  0  0  0  0  0  0  0  0  0  0  0
   -5.0052    1.0278   -0.9905 C   0  0  0  0  0  0  0  0  0  0  0  0
   -3.6087    1.1154   -1.0362 C   0  0  0  0  0  0  0  0  0  0  0  0
    0.9172    1.4129   -0.1119 H   0  0  0  0  0  0  0  0  0  0  0  0
    3.0562    0.8865    0.2934 H   0  0  0  0  0  0  0  0  0  0  0  0
    4.0671   -1.4645   -1.1633 H   0  0  0  0  0  0  0  0  0  0  0  0
    4.1150   -1.4449    0.6033 H   0  0  0  0  0  0  0  0  0  0  0  0
    5.8186   -0.1830    1.7554 H   0  0  0  0  0  0  0  0  0  0  0  0
    7.8155    1.2657    1.6551 H   0  0  0  0  0  0  0  0  0  0  0  0
    8.4692    2.3473   -0.4785 H   0  0  0  0  0  0  0  0  0  0  0  0
    7.1134    1.9792   -2.5229 H   0  0  0  0  0  0  0  0  0  0  0  0
    5.1081    0.5338   -2.4410 H   0  0  0  0  0  0  0  0  0  0  0  0
   -1.5659   -4.9821   -0.2465 H   0  0  0  0  0  0  0  0  0  0  0  0
   -3.4965   -3.3843    0.0104 H   0  0  0  0  0  0  0  0  0  0  0  0
   -2.9367    1.0117    2.2867 H   0  0  0  0  0  0  0  0  0  0  0  0
   -5.4058    0.8492    2.3760 H   0  0  0  0  0  0  0  0  0  0  0  0
   -7.7093    1.7957   -1.2869 H   0  0  0  0  0  0  0  0  0  0  0  0
   -8.8665    0.7740   -0.4259 H   0  0  0  0  0  0  0  0  0  0  0  0
   -7.6057   -0.0057   -1.3886 H   0  0  0  0  0  0  0  0  0  0  0  0
   -5.5458    1.0450   -1.9300 H   0  0  0  0  0  0  0  0  0  0  0  0
   -3.1038    1.2037   -1.9936 H   0  0  0  0  0  0  0  0  0  0  0  0
  1  2  1  0
  2  3  1  0
  3  4  1  0
  4  5  1  0
  5  6  2  0
  6  7  1  0
  7  8  2  0
  8  9  1  0
  9 10  2  0
  2 11  2  0
 11 12  1  0
 12 13  2  0
 13 14  1  0
 14 15  2  0
 15 16  1  0
 16 17  2  0
 17 18  1  0
 18 19  2  3
 19 20  1  0
 20 21  2  0
 21 22  1  0
 22 23  2  0
 23 24  1  0
 24 25  1  0
 23 26  1  0
 26 27  2  0
 18  1  1  0
 27 20  1  0
 10  5  1  0
 17 12  1  0
  1 28  1  0
  3 29  1  0
  4 30  1  0
  4 31  1  0
  6 32  1  0
  7 33  1  0
  8 34  1  0
  9 35  1  0
 10 36  1  0
 14 37  1  0
 15 38  1  0
 21 39  1  0
 22 40  1  0
 25 41  1  0
 25 42  1  0
 25 43  1  0
 26 44  1  0
 27 45  1  0
M  END
>  <ScrubInfo>  (2) 
{"isomerGroup": 0, "isomerId": 1, "confId": 0, "nr_conformers:": 1, "nr_isomers:": 9}

$$$$
_i2
     RDKit          3D

 45 48  0  0  0  0  0  0  0  0999 V2000
   -0.5936   -2.0141    0.4536 N   0  0  0  0  0  0  0  0  0  0  0  0
    0.5054   -1.8590   -0.3593 C   0  0  0  0  0  0  0  0  0  0  0  0
    1.7644   -2.1425    0.1585 N   0  0  0  0  0  0  0  0  0  0  0  0
    2.7836   -1.1944    0.4197 C   0  0  0  0  0  0  0  0  0  0  0  0
    2.6940    0.1600    0.0799 C   0  0  0  0  0  0  0  0  0  0  0  0
    3.7544    1.0438    0.3280 C   0  0  0  0  0  0  0  0  0  0  0  0
    4.9349    0.5810    0.9045 C   0  0  0  0  0  0  0  0  0  0  0  0
    6.0387    1.3321    1.1977 O   0  0  0  0  0  0  0  0  0  0  0  0
    5.9653    2.7217    0.9053 C   0  0  0  0  0  0  0  0  0  0  0  0
    5.0461   -0.7720    1.2218 C   0  0  0  0  0  0  0  0  0  0  0  0
    3.9867   -1.6510    0.9751 C   0  0  0  0  0  0  0  0  0  0  0  0
    0.3038   -1.4934   -1.6533 C   0  0  0  0  0  0  0  0  0  0  0  0
    1.3114   -1.3578   -2.5859 N   0  0  0  0  0  0  0  0  0  0  0  0
    0.9323   -1.0379   -3.7753 C   0  0  0  0  0  0  0  0  0  0  0  0
   -0.4963   -0.8208   -4.1372 C   0  0  0  0  0  0  0  0  0  0  0  0
   -1.4600   -0.9339   -3.2901 N   0  0  0  0  0  0  0  0  0  0  0  0
   -1.1586   -1.2746   -1.9911 C   0  0  0  0  0  0  0  0  0  0  0  0
   -2.1665   -1.3709   -1.1918 N   0  0  0  0  0  0  0  0  0  0  0  0
   -1.8709   -1.7007    0.0992 C   0  0  0  0  0  0  0  0  0  0  0  0
   -2.7813   -1.7163    1.0137 N   0  0  0  0  0  0  0  0  0  0  0  0
   -4.1472   -1.3532    0.6351 C   0  0  0  0  0  0  0  0  0  0  0  0
   -4.4293    0.1142    0.8554 C   0  0  0  0  0  0  0  0  0  0  0  0
   -4.4755    1.0019   -0.2279 C   0  0  0  0  0  0  0  0  0  0  0  0
   -4.7248    2.3596   -0.0208 C   0  0  0  0  0  0  0  0  0  0  0  0
   -4.9224    2.8438    1.2714 C   0  0  0  0  0  0  0  0  0  0  0  0
   -4.8649    1.9722    2.3578 C   0  0  0  0  0  0  0  0  0  0  0  0
   -4.6155    0.6144    2.1515 C   0  0  0  0  0  0  0  0  0  0  0  0
   -0.4349   -2.1108    1.4449 H   0  0  0  0  0  0  0  0  0  0  0  0
    1.7259   -2.8296    0.9044 H   0  0  0  0  0  0  0  0  0  0  0  0
    1.7931    0.5605   -0.3752 H   0  0  0  0  0  0  0  0  0  0  0  0
    3.6207    2.0844    0.0527 H   0  0  0  0  0  0  0  0  0  0  0  0
    6.9140    3.1770    1.2056 H   0  0  0  0  0  0  0  0  0  0  0  0
    5.8395    2.8926   -0.1689 H   0  0  0  0  0  0  0  0  0  0  0  0
    5.1678    3.2050    1.4794 H   0  0  0  0  0  0  0  0  0  0  0  0
    5.9676   -1.1491    1.6581 H   0  0  0  0  0  0  0  0  0  0  0  0
    4.1158   -2.7035    1.2142 H   0  0  0  0  0  0  0  0  0  0  0  0
    1.6525   -0.9053   -4.5969 H   0  0  0  0  0  0  0  0  0  0  0  0
   -0.6795   -0.5526   -5.1886 H   0  0  0  0  0  0  0  0  0  0  0  0
   -4.4098   -1.6538   -0.3873 H   0  0  0  0  0  0  0  0  0  0  0  0
   -4.8342   -1.9315    1.2666 H   0  0  0  0  0  0  0  0  0  0  0  0
   -4.3083    0.6348   -1.2388 H   0  0  0  0  0  0  0  0  0  0  0  0
   -4.7602    3.0381   -0.8685 H   0  0  0  0  0  0  0  0  0  0  0  0
   -5.1151    3.9007    1.4322 H   0  0  0  0  0  0  0  0  0  0  0  0
   -5.0098    2.3490    3.3664 H   0  0  0  0  0  0  0  0  0  0  0  0
   -4.5594   -0.0583    3.0042 H   0  0  0  0  0  0  0  0  0  0  0  0
  1  2  1  0
  2  3  1  0
  3  4  1  0
  4  5  2  0
  5  6  1  0
  6  7  2  0
  7  8  1  0
  8  9  1  0
  7 10  1  0
 10 11  2  0
  2 12  2  0
 12 13  1  0
 13 14  2  0
 14 15  1  0
 15 16  2  0
 16 17  1  0
 17 18  2  0
 18 19  1  0
 19 20  2  3
 20 21  1  0
 21 22  1  0
 22 23  2  0
 23 24  1  0
 24 25  2  0
 25 26  1  0
 26 27  2  0
 19  1  1  0
 27 22  1  0
 11  4  1  0
 17 12  1  0
  1 28  1  0
  3 29  1  0
  5 30  1  0
  6 31  1  0
  9 32  1  0
  9 33  1  0
  9 34  1  0
 10 35  1  0
 11 36  1  0
 14 37  1  0
 15 38  1  0
 21 39  1  0
 21 40  1  0
 23 41  1  0
 24 42  1  0
 25 43  1  0
 26 44  1  0
 27 45  1  0
M  END
>  <ScrubInfo>  (3) 
{"isomerGroup": 0, "isomerId": 2, "confId": 0, "nr_conformers:": 1, "nr_isomers:": 9}

$$$$
_i3
     RDKit          3D

 45 48  0  0  0  0  0  0  0  0999 V2000
    1.8506   -2.2888   -0.5189 N   0  0  0  0  0  0  0  0  0  0  0  0
    1.3248   -1.0553   -0.2704 C   0  0  0  0  0  0  0  0  0  0  0  0
    1.9833    0.0385   -0.1278 N   0  0  0  0  0  0  0  0  0  0  0  0
    3.4380    0.0105   -0.2367 C   0  0  0  0  0  0  0  0  0  0  0  0
    4.0683    1.3785   -0.0937 C   0  0  0  0  0  0  0  0  0  0  0  0
    3.4064    2.5356   -0.5289 C   0  0  0  0  0  0  0  0  0  0  0  0
    4.0182    3.7868   -0.4306 C   0  0  0  0  0  0  0  0  0  0  0  0
    5.3042    3.8954    0.0940 C   0  0  0  0  0  0  0  0  0  0  0  0
    5.9798    2.7532    0.5183 C   0  0  0  0  0  0  0  0  0  0  0  0
    5.3681    1.5013    0.4206 C   0  0  0  0  0  0  0  0  0  0  0  0
   -0.0319   -0.8731   -0.1467 N   0  0  0  0  0  0  0  0  0  0  0  0
   -0.8562   -1.8746   -0.2613 C   0  0  0  0  0  0  0  0  0  0  0  0
   -2.2338   -1.7850   -0.1521 N   0  0  0  0  0  0  0  0  0  0  0  0
   -3.0618   -0.6856    0.1251 C   0  0  0  0  0  0  0  0  0  0  0  0
   -2.5988    0.6100    0.3692 C   0  0  0  0  0  0  0  0  0  0  0  0
   -3.4823    1.6682    0.6346 C   0  0  0  0  0  0  0  0  0  0  0  0
   -4.8564    1.4491    0.6585 C   0  0  0  0  0  0  0  0  0  0  0  0
   -5.8204    2.3868    0.9027 O   0  0  0  0  0  0  0  0  0  0  0  0
   -5.3716    3.7118    1.1594 C   0  0  0  0  0  0  0  0  0  0  0  0
   -5.3354    0.1642    0.4140 C   0  0  0  0  0  0  0  0  0  0  0  0
   -4.4508   -0.8877    0.1502 C   0  0  0  0  0  0  0  0  0  0  0  0
   -0.3449   -3.2517   -0.5339 C   0  0  0  0  0  0  0  0  0  0  0  0
   -1.2465   -4.2681   -0.6474 N   0  0  0  0  0  0  0  0  0  0  0  0
   -0.6793   -5.4701   -0.8934 C   0  0  0  0  0  0  0  0  0  0  0  0
    0.6952   -5.6363   -1.0163 C   0  0  0  0  0  0  0  0  0  0  0  0
    1.5763   -4.6092   -0.8997 N   0  0  0  0  0  0  0  0  0  0  0  0
    1.0317   -3.3956   -0.6533 C   0  0  0  0  0  0  0  0  0  0  0  0
    2.8363   -2.4520   -0.6152 H   0  0  0  0  0  0  0  0  0  0  0  0
    3.8441   -0.6427    0.5461 H   0  0  0  0  0  0  0  0  0  0  0  0
    3.7412   -0.3860   -1.2139 H   0  0  0  0  0  0  0  0  0  0  0  0
    2.4010    2.4640   -0.9404 H   0  0  0  0  0  0  0  0  0  0  0  0
    3.4874    4.6745   -0.7634 H   0  0  0  0  0  0  0  0  0  0  0  0
    5.7786    4.8697    0.1715 H   0  0  0  0  0  0  0  0  0  0  0  0
    6.9839    2.8366    0.9253 H   0  0  0  0  0  0  0  0  0  0  0  0
    5.9127    0.6207    0.7523 H   0  0  0  0  0  0  0  0  0  0  0  0
   -2.7233   -2.6687   -0.2710 H   0  0  0  0  0  0  0  0  0  0  0  0
   -1.5362    0.8365    0.3631 H   0  0  0  0  0  0  0  0  0  0  0  0
   -3.0518    2.6472    0.8167 H   0  0  0  0  0  0  0  0  0  0  0  0
   -4.7517    3.7512    2.0613 H   0  0  0  0  0  0  0  0  0  0  0  0
   -4.8404    4.1234    0.2949 H   0  0  0  0  0  0  0  0  0  0  0  0
   -6.2538    4.3350    1.3350 H   0  0  0  0  0  0  0  0  0  0  0  0
   -6.4061   -0.0230    0.4277 H   0  0  0  0  0  0  0  0  0  0  0  0
   -4.8668   -1.8743   -0.0372 H   0  0  0  0  0  0  0  0  0  0  0  0
   -1.3595   -6.3098   -0.9915 H   0  0  0  0  0  0  0  0  0  0  0  0
    1.1295   -6.6110   -1.2141 H   0  0  0  0  0  0  0  0  0  0  0  0
  1  2  1  0
  2  3  2  3
  3  4  1  0
  4  5  1  0
  5  6  2  0
  6  7  1  0
  7  8  2  0
  8  9  1  0
  9 10  2  0
  2 11  1  0
 11 12  2  0
 12 13  1  0
 13 14  1  0
 14 15  2  0
 15 16  1  0
 16 17  2  0
 17 18  1  0
 18 19  1  0
 17 20  1  0
 20 21  2  0
 12 22  1  0
 22 23  2  0
 23 24  1  0
 24 25  2  0
 25 26  1  0
 26 27  2  0
 27  1  1  0
 10  5  1  0
 21 14  1  0
 27 22  1  0
  1 28  1  0
  4 29  1  0
  4 30  1  0
  6 31  1  0
  7 32  1  0
  8 33  1  0
  9 34  1  0
 10 35  1  0
 13 36  1  0
 15 37  1  0
 16 38  1  0
 19 39  1  0
 19 40  1  0
 19 41  1  0
 20 42  1  0
 21 43  1  0
 24 44  1  0
 25 45  1  0
M  END
>  <ScrubInfo>  (4) 
{"isomerGroup": 0, "isomerId": 3, "confId": 0, "nr_conformers:": 1, "nr_isomers:": 9}

$$$$
_i4
     RDKit          3D

 45 48  0  0  0  0  0  0  0  0999 V2000
   -1.3499    1.3298   -1.0838 N   0  0  0  0  0  0  0  0  0  0  0  0
   -1.5976    0.4536   -0.0838 C   0  0  0  0  0  0  0  0  0  0  0  0
   -2.9121    0.1949    0.1619 N   0  0  0  0  0  0  0  0  0  0  0  0
   -3.8298   -0.1914   -0.8954 C   0  0  0  0  0  0  0  0  0  0  0  0
   -5.1616   -0.5694   -0.2969 C   0  0  0  0  0  0  0  0  0  0  0  0
   -5.5388   -1.9153   -0.1837 C   0  0  0  0  0  0  0  0  0  0  0  0
   -6.7671   -2.2604    0.3829 C   0  0  0  0  0  0  0  0  0  0  0  0
   -7.6264   -1.2663    0.8472 C   0  0  0  0  0  0  0  0  0  0  0  0
   -7.2579    0.0740    0.7500 C   0  0  0  0  0  0  0  0  0  0  0  0
   -6.0306    0.4217    0.1837 C   0  0  0  0  0  0  0  0  0  0  0  0
   -0.6987   -0.1290    0.6436 N   0  0  0  0  0  0  0  0  0  0  0  0
    0.6433    0.1194    0.3923 C   0  0  0  0  0  0  0  0  0  0  0  0
    1.4355   -0.6428    1.0883 N   0  0  0  0  0  0  0  0  0  0  0  0
    2.8255   -0.5696    0.9839 C   0  0  0  0  0  0  0  0  0  0  0  0
    3.5078   -1.3641    0.0596 C   0  0  0  0  0  0  0  0  0  0  0  0
    4.9051   -1.3280   -0.0209 C   0  0  0  0  0  0  0  0  0  0  0  0
    5.6335   -0.5053    0.8392 C   0  0  0  0  0  0  0  0  0  0  0  0
    6.9949   -0.3734    0.8654 O   0  0  0  0  0  0  0  0  0  0  0  0
    7.7344   -1.1851   -0.0376 C   0  0  0  0  0  0  0  0  0  0  0  0
    4.9529    0.2707    1.7809 C   0  0  0  0  0  0  0  0  0  0  0  0
    3.5583    0.2312    1.8604 C   0  0  0  0  0  0  0  0  0  0  0  0
    1.0083    1.1853   -0.6034 C   0  0  0  0  0  0  0  0  0  0  0  0
    2.2991    1.5702   -0.7863 N   0  0  0  0  0  0  0  0  0  0  0  0
    2.4887    2.5589   -1.6845 C   0  0  0  0  0  0  0  0  0  0  0  0
    1.4390    3.1430   -2.3730 C   0  0  0  0  0  0  0  0  0  0  0  0
    0.1504    2.7639   -2.1974 N   0  0  0  0  0  0  0  0  0  0  0  0
   -0.0524    1.7703   -1.2961 C   0  0  0  0  0  0  0  0  0  0  0  0
   -2.0713    1.8941   -1.4997 H   0  0  0  0  0  0  0  0  0  0  0  0
   -2.9734   -0.4578    0.9430 H   0  0  0  0  0  0  0  0  0  0  0  0
   -3.9788    0.6311   -1.6048 H   0  0  0  0  0  0  0  0  0  0  0  0
   -3.4167   -1.0346   -1.4624 H   0  0  0  0  0  0  0  0  0  0  0  0
   -4.8774   -2.7059   -0.5325 H   0  0  0  0  0  0  0  0  0  0  0  0
   -7.0520   -3.3062    0.4668 H   0  0  0  0  0  0  0  0  0  0  0  0
   -8.5808   -1.5368    1.2915 H   0  0  0  0  0  0  0  0  0  0  0  0
   -7.9237    0.8488    1.1214 H   0  0  0  0  0  0  0  0  0  0  0  0
   -5.7482    1.4709    0.1270 H   0  0  0  0  0  0  0  0  0  0  0  0
    2.9438   -2.0165   -0.6006 H   0  0  0  0  0  0  0  0  0  0  0  0
    5.3870   -1.9568   -0.7607 H   0  0  0  0  0  0  0  0  0  0  0  0
    8.7972   -0.9785    0.1208 H   0  0  0  0  0  0  0  0  0  0  0  0
    7.5693   -2.2494    0.1606 H   0  0  0  0  0  0  0  0  0  0  0  0
    7.4983   -0.9344   -1.0771 H   0  0  0  0  0  0  0  0  0  0  0  0
    5.5110    0.9063    2.4629 H   0  0  0  0  0  0  0  0  0  0  0  0
    3.0388    0.8273    2.6043 H   0  0  0  0  0  0  0  0  0  0  0  0
    3.5156    2.8732   -1.8358 H   0  0  0  0  0  0  0  0  0  0  0  0
    1.6074    3.9383   -3.0911 H   0  0  0  0  0  0  0  0  0  0  0  0
  1  2  1  0
  2  3  1  0
  3  4  1  0
  4  5  1  0
  5  6  2  0
  6  7  1  0
  7  8  2  0
  8  9  1  0
  9 10  2  0
  2 11  2  0
 11 12  1  0
 12 13  2  3
 13 14  1  0
 14 15  2  0
 15 16  1  0
 16 17  2  0
 17 18  1  0
 18 19  1  0
 17 20  1  0
 20 21  2  0
 12 22  1  0
 22 23  2  0
 23 24  1  0
 24 25  2  0
 25 26  1  0
 26 27  2  0
 27  1  1  0
 10  5  1  0
 21 14  1  0
 27 22  1  0
  1 28  1  0
  3 29  1  0
  4 30  1  0
  4 31  1  0
  6 32  1  0
  7 33  1  0
  8 34  1  0
  9 35  1  0
 10 36  1  0
 15 37  1  0
 16 38  1  0
 19 39  1  0
 19 40  1  0
 19 41  1  0
 20 42  1  0
 21 43  1  0
 24 44  1  0
 25 45  1  0
M  END
>  <ScrubInfo>  (5) 
{"isomerGroup": 0, "isomerId": 4, "confId": 0, "nr_conformers:": 1, "nr_isomers:": 9}

$$$$
_i5
     RDKit          3D

 45 48  0  0  0  0  0  0  0  0999 V2000
   -2.0666   -3.4412   -1.4081 N   0  0  0  0  0  0  0  0  0  0  0  0
   -1.3345   -4.2802   -2.2037 C   0  0  0  0  0  0  0  0  0  0  0  0
   -0.0067   -4.1236   -2.3365 C   0  0  0  0  0  0  0  0  0  0  0  0
    0.7207   -3.1353   -1.6989 N   0  0  0  0  0  0  0  0  0  0  0  0
    0.0398   -2.3039   -0.9471 C   0  0  0  0  0  0  0  0  0  0  0  0
    0.7650   -1.2140   -0.2024 C   0  0  0  0  0  0  0  0  0  0  0  0
    2.1382   -1.2277   -0.3316 N   0  0  0  0  0  0  0  0  0  0  0  0
    3.1069   -0.3551    0.1855 C   0  0  0  0  0  0  0  0  0  0  0  0
    4.4567   -0.6117   -0.0997 C   0  0  0  0  0  0  0  0  0  0  0  0
    5.4738    0.2134    0.3930 C   0  0  0  0  0  0  0  0  0  0  0  0
    5.1699    1.3165    1.1877 C   0  0  0  0  0  0  0  0  0  0  0  0
    6.2510    2.0411    1.6048 O   0  0  0  0  0  0  0  0  0  0  0  0
    5.9844    3.1771    2.4180 C   0  0  0  0  0  0  0  0  0  0  0  0
    3.8364    1.5828    1.4840 C   0  0  0  0  0  0  0  0  0  0  0  0
    2.8191    0.7525    0.9878 C   0  0  0  0  0  0  0  0  0  0  0  0
    0.0454   -0.3890    0.4824 N   0  0  0  0  0  0  0  0  0  0  0  0
   -1.3187   -0.4989    0.4930 C   0  0  0  0  0  0  0  0  0  0  0  0
   -1.9031    0.4794    1.0838 N   0  0  0  0  0  0  0  0  0  0  0  0
   -3.3632    0.4910    1.1508 C   0  0  0  0  0  0  0  0  0  0  0  0
   -4.0250    1.0199   -0.1025 C   0  0  0  0  0  0  0  0  0  0  0  0
   -5.1473    0.3750   -0.6406 C   0  0  0  0  0  0  0  0  0  0  0  0
   -5.7722    0.8758   -1.7845 C   0  0  0  0  0  0  0  0  0  0  0  0
   -5.2853    2.0286   -2.3983 C   0  0  0  0  0  0  0  0  0  0  0  0
   -4.1753    2.6833   -1.8680 C   0  0  0  0  0  0  0  0  0  0  0  0
   -3.5509    2.1840   -0.7240 C   0  0  0  0  0  0  0  0  0  0  0  0
   -2.0638   -1.5145   -0.0482 N   0  0  0  0  0  0  0  0  0  0  0  0
   -1.4558   -2.3937   -0.7670 C   0  0  0  0  0  0  0  0  0  0  0  0
   -3.0744   -3.5229   -1.3731 H   0  0  0  0  0  0  0  0  0  0  0  0
   -1.8901   -5.0607   -2.7124 H   0  0  0  0  0  0  0  0  0  0  0  0
    0.5619   -4.7969   -2.9737 H   0  0  0  0  0  0  0  0  0  0  0  0
    2.4937   -1.9619   -0.9397 H   0  0  0  0  0  0  0  0  0  0  0  0
    4.7384   -1.4637   -0.7138 H   0  0  0  0  0  0  0  0  0  0  0  0
    6.5109   -0.0089    0.1544 H   0  0  0  0  0  0  0  0  0  0  0  0
    6.9430    3.6440    2.6641 H   0  0  0  0  0  0  0  0  0  0  0  0
    5.3829    3.9164    1.8788 H   0  0  0  0  0  0  0  0  0  0  0  0
    5.5049    2.8859    3.3584 H   0  0  0  0  0  0  0  0  0  0  0  0
    3.5415    2.4266    2.0991 H   0  0  0  0  0  0  0  0  0  0  0  0
    1.7957    1.0057    1.2504 H   0  0  0  0  0  0  0  0  0  0  0  0
   -3.7601   -0.4956    1.4232 H   0  0  0  0  0  0  0  0  0  0  0  0
   -3.6550    1.1510    1.9775 H   0  0  0  0  0  0  0  0  0  0  0  0
   -5.5393   -0.5233   -0.1702 H   0  0  0  0  0  0  0  0  0  0  0  0
   -6.6409    0.3683   -2.1948 H   0  0  0  0  0  0  0  0  0  0  0  0
   -5.7722    2.4192   -3.2877 H   0  0  0  0  0  0  0  0  0  0  0  0
   -3.7946    3.5838   -2.3421 H   0  0  0  0  0  0  0  0  0  0  0  0
   -2.6851    2.7014   -0.3146 H   0  0  0  0  0  0  0  0  0  0  0  0
  1  2  1  0
  2  3  2  0
  3  4  1  0
  4  5  2  0
  5  6  1  0
  6  7  1  0
  7  8  1  0
  8  9  2  0
  9 10  1  0
 10 11  2  0
 11 12  1  0
 12 13  1  0
 11 14  1  0
 14 15  2  0
  6 16  2  0
 16 17  1  0
 17 18  2  3
 18 19  1  0
 19 20  1  0
 20 21  2  0
 21 22  1  0
 22 23  2  0
 23 24  1  0
 24 25  2  0
 17 26  1  0
 26 27  2  0
 27  1  1  0
 27  5  1  0
 15  8  1  0
 25 20  1  0
  1 28  1  0
  2 29  1  0
  3 30  1  0
  7 31  1  0
  9 32  1  0
 10 33  1  0
 13 34  1  0
 13 35  1  0
 13 36  1  0
 14 37  1  0
 15 38  1  0
 19 39  1  0
 19 40  1  0
 21 41  1  0
 22 42  1  0
 23 43  1  0
 24 44  1  0
 25 45  1  0
M  END
>  <ScrubInfo>  (6) 
{"isomerGroup": 0, "isomerId": 5, "confId": 0, "nr_conformers:": 1, "nr_isomers:": 9}

$$$$
_i6
     RDKit          3D

 45 48  0  0  0  0  0  0  0  0999 V2000
    0.1645   -1.5833   -3.3853 N   0  0  0  0  0  0  0  0  0  0  0  0
    1.4472   -1.5345   -3.8585 C   0  0  0  0  0  0  0  0  0  0  0  0
    2.4066   -0.8894   -3.1763 C   0  0  0  0  0  0  0  0  0  0  0  0
    2.1940   -0.2539   -1.9706 N   0  0  0  0  0  0  0  0  0  0  0  0
    0.9773   -0.2644   -1.4891 C   0  0  0  0  0  0  0  0  0  0  0  0
    0.5678    0.3472   -0.1772 C   0  0  0  0  0  0  0  0  0  0  0  0
    1.3546    0.7406    0.7792 N   0  0  0  0  0  0  0  0  0  0  0  0
    2.7426    0.6235    0.6885 C   0  0  0  0  0  0  0  0  0  0  0  0
    3.3842   -0.5431    1.1115 C   0  0  0  0  0  0  0  0  0  0  0  0
    4.7795   -0.6487    1.0644 C   0  0  0  0  0  0  0  0  0  0  0  0
    5.5468    0.4236    0.6078 C   0  0  0  0  0  0  0  0  0  0  0  0
    6.9109    0.4535    0.5106 O   0  0  0  0  0  0  0  0  0  0  0  0
    7.6080   -0.7182    0.9132 C   0  0  0  0  0  0  0  0  0  0  0  0
    4.9066    1.5997    0.2094 C   0  0  0  0  0  0  0  0  0  0  0  0
    3.5139    1.7033    0.2582 C   0  0  0  0  0  0  0  0  0  0  0  0
   -0.7669    0.4999    0.0892 N   0  0  0  0  0  0  0  0  0  0  0  0
   -1.6508   -0.0367   -0.6891 C   0  0  0  0  0  0  0  0  0  0  0  0
   -2.9779    0.1093   -0.4277 N   0  0  0  0  0  0  0  0  0  0  0  0
   -3.4716    0.5183    0.8662 C   0  0  0  0  0  0  0  0  0  0  0  0
   -4.9809    0.5403    0.8403 C   0  0  0  0  0  0  0  0  0  0  0  0
   -5.7224   -0.5151    1.3908 C   0  0  0  0  0  0  0  0  0  0  0  0
   -7.1175   -0.4983    1.3451 C   0  0  0  0  0  0  0  0  0  0  0  0
   -7.7841    0.5680    0.7437 C   0  0  0  0  0  0  0  0  0  0  0  0
   -7.0576    1.6176    0.1845 C   0  0  0  0  0  0  0  0  0  0  0  0
   -5.6629    1.6032    0.2293 C   0  0  0  0  0  0  0  0  0  0  0  0
   -1.3806   -0.7782   -1.8054 N   0  0  0  0  0  0  0  0  0  0  0  0
   -0.1704   -0.9027   -2.2405 C   0  0  0  0  0  0  0  0  0  0  0  0
   -0.5719   -1.9622   -3.9654 H   0  0  0  0  0  0  0  0  0  0  0  0
    1.6293   -2.0317   -4.8048 H   0  0  0  0  0  0  0  0  0  0  0  0
    3.4238   -0.8495   -3.5581 H   0  0  0  0  0  0  0  0  0  0  0  0
    2.7931   -1.3749    1.4830 H   0  0  0  0  0  0  0  0  0  0  0  0
    5.2301   -1.5774    1.3957 H   0  0  0  0  0  0  0  0  0  0  0  0
    8.6779   -0.5347    0.7749 H   0  0  0  0  0  0  0  0  0  0  0  0
    7.4416   -0.9319    1.9742 H   0  0  0  0  0  0  0  0  0  0  0  0
    7.3342   -1.5751    0.2887 H   0  0  0  0  0  0  0  0  0  0  0  0
    5.4954    2.4441   -0.1387 H   0  0  0  0  0  0  0  0  0  0  0  0
    3.0283    2.6262   -0.0440 H   0  0  0  0  0  0  0  0  0  0  0  0
   -3.5673   -0.5357   -0.9378 H   0  0  0  0  0  0  0  0  0  0  0  0
   -3.1211   -0.1719    1.6432 H   0  0  0  0  0  0  0  0  0  0  0  0
   -3.1004    1.5164    1.1288 H   0  0  0  0  0  0  0  0  0  0  0  0
   -5.2175   -1.3565    1.8606 H   0  0  0  0  0  0  0  0  0  0  0  0
   -7.6852   -1.3176    1.7786 H   0  0  0  0  0  0  0  0  0  0  0  0
   -8.8703    0.5803    0.7091 H   0  0  0  0  0  0  0  0  0  0  0  0
   -7.5767    2.4472   -0.2885 H   0  0  0  0  0  0  0  0  0  0  0  0
   -5.1046    2.4235   -0.2179 H   0  0  0  0  0  0  0  0  0  0  0  0
  1  2  1  0
  2  3  2  0
  3  4  1  0
  4  5  2  0
  5  6  1  0
  6  7  2  3
  7  8  1  0
  8  9  2  0
  9 10  1  0
 10 11  2  0
 11 12  1  0
 12 13  1  0
 11 14  1  0
 14 15  2  0
  6 16  1  0
 16 17  2  0
 17 18  1  0
 18 19  1  0
 19 20  1  0
 20 21  2  0
 21 22  1  0
 22 23  2  0
 23 24  1  0
 24 25  2  0
 17 26  1  0
 26 27  2  0
 27  1  1  0
 27  5  1  0
 15  8  1  0
 25 20  1  0
  1 28  1  0
  2 29  1  0
  3 30  1  0
  9 31  1  0
 10 32  1  0
 13 33  1  0
 13 34  1  0
 13 35  1  0
 14 36  1  0
 15 37  1  0
 18 38  1  0
 19 39  1  0
 19 40  1  0
 21 41  1  0
 22 42  1  0
 23 43  1  0
 24 44  1  0
 25 45  1  0
M  END
>  <ScrubInfo>  (7) 
{"isomerGroup": 0, "isomerId": 6, "confId": 0, "nr_conformers:": 1, "nr_isomers:": 9}

$$$$
_i7
     RDKit          3D

 45 48  0  0  0  0  0  0  0  0999 V2000
    1.6652   -2.3573   -0.2461 N   0  0  0  0  0  0  0  0  0  0  0  0
    1.1161   -1.1074   -0.1757 C   0  0  0  0  0  0  0  0  0  0  0  0
    1.7255    0.0277   -0.1355 N   0  0  0  0  0  0  0  0  0  0  0  0
    3.1881    0.0282   -0.1641 C   0  0  0  0  0  0  0  0  0  0  0  0
    3.7558    1.4286   -0.1377 C   0  0  0  0  0  0  0  0  0  0  0  0
    3.2411    2.4251   -0.9801 C   0  0  0  0  0  0  0  0  0  0  0  0
    3.7889    3.7090   -0.9818 C   0  0  0  0  0  0  0  0  0  0  0  0
    4.8633    4.0095   -0.1474 C   0  0  0  0  0  0  0  0  0  0  0  0
    5.3909    3.0266    0.6878 C   0  0  0  0  0  0  0  0  0  0  0  0
    4.8432    1.7418    0.6905 C   0  0  0  0  0  0  0  0  0  0  0  0
   -0.2518   -1.1081   -0.1461 N   0  0  0  0  0  0  0  0  0  0  0  0
   -1.1336   -2.1713   -0.1737 C   0  0  0  0  0  0  0  0  0  0  0  0
   -2.4344   -2.0990   -0.1402 N   0  0  0  0  0  0  0  0  0  0  0  0
   -3.0500   -0.8448   -0.0717 C   0  0  0  0  0  0  0  0  0  0  0  0
   -3.3517   -0.2741    1.1660 C   0  0  0  0  0  0  0  0  0  0  0  0
   -3.9598    0.9842    1.2424 C   0  0  0  0  0  0  0  0  0  0  0  0
   -4.2809    1.6770    0.0747 C   0  0  0  0  0  0  0  0  0  0  0  0
   -4.8713    2.9084    0.0058 O   0  0  0  0  0  0  0  0  0  0  0  0
   -5.1967    3.5349    1.2403 C   0  0  0  0  0  0  0  0  0  0  0  0
   -3.9951    1.0968   -1.1639 C   0  0  0  0  0  0  0  0  0  0  0  0
   -3.3888   -0.1595   -1.2378 C   0  0  0  0  0  0  0  0  0  0  0  0
   -0.4837   -3.5177   -0.2492 C   0  0  0  0  0  0  0  0  0  0  0  0
   -1.2540   -4.6370   -0.2816 N   0  0  0  0  0  0  0  0  0  0  0  0
   -0.5619   -5.7926   -0.3507 C   0  0  0  0  0  0  0  0  0  0  0  0
    0.8244   -5.8277   -0.3848 C   0  0  0  0  0  0  0  0  0  0  0  0
    1.5914   -4.7085   -0.3515 N   0  0  0  0  0  0  0  0  0  0  0  0
    0.9173   -3.5349   -0.2827 C   0  0  0  0  0  0  0  0  0  0  0  0
    2.6606   -2.5082   -0.2774 H   0  0  0  0  0  0  0  0  0  0  0  0
    3.5676   -0.5295    0.7013 H   0  0  0  0  0  0  0  0  0  0  0  0
    3.5568   -0.4614   -1.0744 H   0  0  0  0  0  0  0  0  0  0  0  0
    2.4010    2.2012   -1.6343 H   0  0  0  0  0  0  0  0  0  0  0  0
    3.3747    4.4732   -1.6338 H   0  0  0  0  0  0  0  0  0  0  0  0
    5.2886    5.0094   -0.1478 H   0  0  0  0  0  0  0  0  0  0  0  0
    6.2296    3.2604    1.3382 H   0  0  0  0  0  0  0  0  0  0  0  0
    5.2700    0.9880    1.3475 H   0  0  0  0  0  0  0  0  0  0  0  0
   -0.6531   -0.1801   -0.0932 H   0  0  0  0  0  0  0  0  0  0  0  0
   -3.1132   -0.8168    2.0770 H   0  0  0  0  0  0  0  0  0  0  0  0
   -4.1719    1.3878    2.2265 H   0  0  0  0  0  0  0  0  0  0  0  0
   -5.9234    2.9414    1.8049 H   0  0  0  0  0  0  0  0  0  0  0  0
   -4.2971    3.7289    1.8336 H   0  0  0  0  0  0  0  0  0  0  0  0
   -5.6600    4.5000    1.0133 H   0  0  0  0  0  0  0  0  0  0  0  0
   -4.2525    1.6243   -2.0790 H   0  0  0  0  0  0  0  0  0  0  0  0
   -3.1828   -0.6071   -2.2059 H   0  0  0  0  0  0  0  0  0  0  0  0
   -1.1543   -6.7007   -0.3784 H   0  0  0  0  0  0  0  0  0  0  0  0
    1.3620   -6.7685   -0.4406 H   0  0  0  0  0  0  0  0  0  0  0  0
  1  2  1  0
  2  3  2  3
  3  4  1  0
  4  5  1  0
  5  6  2  0
  6  7  1  0
  7  8  2  0
  8  9  1  0
  9 10  2  0
  2 11  1  0
 11 12  1  0
 12 13  2  3
 13 14  1  0
 14 15  2  0
 15 16  1  0
 16 17  2  0
 17 18  1  0
 18 19  1  0
 17 20  1  0
 20 21  2  0
 12 22  1  0
 22 23  2  0
 23 24  1  0
 24 25  2  0
 25 26  1  0
 26 27  2  0
 27  1  1  0
 10  5  1  0
 21 14  1  0
 27 22  1  0
  1 28  1  0
  4 29  1  0
  4 30  1  0
  6 31  1  0
  7 32  1  0
  8 33  1  0
  9 34  1  0
 10 35  1  0
 11 36  1  0
 15 37  1  0
 16 38  1  0
 19 39  1  0
 19 40  1  0
 19 41  1  0
 20 42  1  0
 21 43  1  0
 24 44  1  0
 25 45  1  0
M  END
>  <ScrubInfo>  (8) 
{"isomerGroup": 0, "isomerId": 7, "confId": 0, "nr_conformers:": 1, "nr_isomers:": 9}

$$$$
_i8
     RDKit          3D

 45 48  0  0  0  0  0  0  0  0999 V2000
   -0.6062    1.6147   -2.4295 N   0  0  0  0  0  0  0  0  0  0  0  0
    0.5457    1.4374   -3.1415 C   0  0  0  0  0  0  0  0  0  0  0  0
    1.6290    0.8873   -2.5731 C   0  0  0  0  0  0  0  0  0  0  0  0
    1.6783    0.4632   -1.2632 N   0  0  0  0  0  0  0  0  0  0  0  0
    0.6025    0.5982   -0.5326 C   0  0  0  0  0  0  0  0  0  0  0  0
    0.5408    0.1628    0.9217 C   0  0  0  0  0  0  0  0  0  0  0  0
    1.4753   -0.3974    1.6378 N   0  0  0  0  0  0  0  0  0  0  0  0
    2.7333   -0.6898    1.1056 C   0  0  0  0  0  0  0  0  0  0  0  0
    3.7812    0.2251    1.2285 C   0  0  0  0  0  0  0  0  0  0  0  0
    5.0574   -0.0800    0.7400 C   0  0  0  0  0  0  0  0  0  0  0  0
    5.2985   -1.3153    0.1378 C   0  0  0  0  0  0  0  0  0  0  0  0
    6.4916   -1.7396   -0.3794 O   0  0  0  0  0  0  0  0  0  0  0  0
    7.5827   -0.8313   -0.3025 C   0  0  0  0  0  0  0  0  0  0  0  0
    4.2565   -2.2405    0.0377 C   0  0  0  0  0  0  0  0  0  0  0  0
    2.9836   -1.9342    0.5262 C   0  0  0  0  0  0  0  0  0  0  0  0
   -0.6746    0.4196    1.4799 N   0  0  0  0  0  0  0  0  0  0  0  0
   -1.7748    0.9635    0.8991 C   0  0  0  0  0  0  0  0  0  0  0  0
   -2.8421    1.0802    1.6141 N   0  0  0  0  0  0  0  0  0  0  0  0
   -4.0445    1.6421    0.9977 C   0  0  0  0  0  0  0  0  0  0  0  0
   -4.9160    0.5846    0.3625 C   0  0  0  0  0  0  0  0  0  0  0  0
   -5.5075   -0.4117    1.1521 C   0  0  0  0  0  0  0  0  0  0  0  0
   -6.3124   -1.3926    0.5710 C   0  0  0  0  0  0  0  0  0  0  0  0
   -6.5316   -1.3889   -0.8053 C   0  0  0  0  0  0  0  0  0  0  0  0
   -5.9440   -0.4070   -1.6013 C   0  0  0  0  0  0  0  0  0  0  0  0
   -5.1385    0.5745   -1.0208 C   0  0  0  0  0  0  0  0  0  0  0  0
   -1.7624    1.3798   -0.4073 N   0  0  0  0  0  0  0  0  0  0  0  0
   -0.6833    1.2259   -1.1149 C   0  0  0  0  0  0  0  0  0  0  0  0
   -1.4192    2.0211   -2.8721 H   0  0  0  0  0  0  0  0  0  0  0  0
    0.5257    1.7634   -4.1757 H   0  0  0  0  0  0  0  0  0  0  0  0
    2.5415    0.7486   -3.1477 H   0  0  0  0  0  0  0  0  0  0  0  0
    3.6020    1.1842    1.7053 H   0  0  0  0  0  0  0  0  0  0  0  0
    5.8351    0.6672    0.8497 H   0  0  0  0  0  0  0  0  0  0  0  0
    7.8359   -0.6054    0.7386 H   0  0  0  0  0  0  0  0  0  0  0  0
    8.4523   -1.3141   -0.7588 H   0  0  0  0  0  0  0  0  0  0  0  0
    7.3757    0.0837   -0.8675 H   0  0  0  0  0  0  0  0  0  0  0  0
    4.4367   -3.2088   -0.4215 H   0  0  0  0  0  0  0  0  0  0  0  0
    2.1859   -2.6665    0.4512 H   0  0  0  0  0  0  0  0  0  0  0  0
   -0.7951    0.1323    2.4405 H   0  0  0  0  0  0  0  0  0  0  0  0
   -3.8192    2.4501    0.2900 H   0  0  0  0  0  0  0  0  0  0  0  0
   -4.6303    2.1295    1.7878 H   0  0  0  0  0  0  0  0  0  0  0  0
   -5.3333   -0.4252    2.2259 H   0  0  0  0  0  0  0  0  0  0  0  0
   -6.7648   -2.1603    1.1927 H   0  0  0  0  0  0  0  0  0  0  0  0
   -7.1573   -2.1535   -1.2576 H   0  0  0  0  0  0  0  0  0  0  0  0
   -6.1111   -0.4070   -2.6749 H   0  0  0  0  0  0  0  0  0  0  0  0
   -4.6789    1.3304   -1.6525 H   0  0  0  0  0  0  0  0  0  0  0  0
  1  2  1  0
  2  3  2  0
  3  4  1  0
  4  5  2  0
  5  6  1  0
  6  7  2  3
  7  8  1  0
  8  9  2  0
  9 10  1  0
 10 11  2  0
 11 12  1  0
 12 13  1  0
 11 14  1  0
 14 15  2  0
  6 16  1  0
 16 17  1  0
 17 18  2  3
 18 19  1  0
 19 20  1  0
 20 21  2  0
 21 22  1  0
 22 23  2  0
 23 24  1  0
 24 25  2  0
 17 26  1  0
 26 27  2  0
 27  1  1  0
 27  5  1  0
 15  8  1  0
 25 20  1  0
  1 28  1  0
  2 29  1  0
  3 30  1  0
  9 31  1  0
 10 32  1  0
 13 33  1  0
 13 34  1  0
 13 35  1  0
 14 36  1  0
 15 37  1  0
 16 38  1  0
 19 39  1  0
 19 40  1  0
 21 41  1  0
 22 42  1  0
 23 43  1  0
 24 44  1  0
 25 45  1  0
M  END
>  <ScrubInfo>  (9) 
{"isomerGroup": 0, "isomerId": 8, "confId": 0, "nr_conformers:": 1, "nr_isomers:": 9}

$$$$
