REMARK SMILES Cc1ccc(Nc2nc(NCCCO)nc3[nH]nnc23)cc1
REMARK SMILES IDX 10 1 9 3 7 4 8 5 20 6 19 7 16 8 15 9 18 10 17 11 6 13 5 15
REMARK SMILES IDX 2 16 3 17 22 18 4 19 21 20 1 21 11 22 12 23 13 24 14 25
REMARK H PARENT 10 2 17 12 6 14 14 26
ROOT
ATOM      1  N   UNL     1      -2.627  -1.228   1.718  1.00  0.00    -0.354 N 
ATOM      2  H   UNL     1      -3.468  -1.782   1.839  1.00  0.00     0.163 HD
ENDROOT
BRANCH   1   3
ATOM      3  C   UNL     1      -1.748  -2.001   0.972  1.00  0.00     0.226 A 
ATOM      4  C   UNL     1       0.141  -2.146  -0.446  1.00  0.00     0.166 A 
ATOM      5  N   UNL     1      -0.735  -1.411   0.300  1.00  0.00    -0.193 NA
ATOM      6  C   UNL     1      -0.070  -3.531  -0.469  1.00  0.00     0.174 A 
ATOM      7  N   UNL     1       0.573  -4.574  -1.086  1.00  0.00    -0.125 NA
ATOM      8  C   UNL     1      -1.138  -4.014   0.255  1.00  0.00     0.183 A 
ATOM      9  N   UNL     1      -2.016  -3.317   0.985  1.00  0.00    -0.192 NA
ATOM     10  N   UNL     1      -0.064  -5.697  -0.760  1.00  0.00    -0.067 NA
ATOM     11  N   UNL     1      -1.088  -5.359   0.049  1.00  0.00    -0.240 N 
ATOM     12  H   UNL     1      -1.699  -6.078   0.413  1.00  0.00     0.194 HD
BRANCH   4  13
ATOM     13  N   UNL     1       1.192  -1.577  -1.182  1.00  0.00    -0.338 N 
ATOM     14  H   UNL     1       1.728  -2.273  -1.689  1.00  0.00     0.168 HD
BRANCH  13  15
ATOM     15  C   UNL     1       1.663  -0.262  -1.317  1.00  0.00     0.040 A 
ATOM     16  C   UNL     1       2.664   2.364  -1.725  1.00  0.00    -0.051 A 
ATOM     17  C   UNL     1       3.182   1.287  -2.447  1.00  0.00     0.005 A 
ATOM     18  C   UNL     1       1.657   2.120  -0.789  1.00  0.00     0.005 A 
ATOM     19  C   UNL     1       2.682  -0.005  -2.249  1.00  0.00     0.026 A 
ATOM     20  C   UNL     1       1.162   0.824  -0.599  1.00  0.00     0.026 A 
ATOM     21  C   UNL     1       3.219   3.745  -1.905  1.00  0.00     0.044 C 
ENDBRANCH  13  15
ENDBRANCH   4  13
ENDBRANCH   1   3
BRANCH   1  22
ATOM     22  C   UNL     1      -2.829   0.140   1.271  1.00  0.00     0.118 C 
BRANCH  22  23
ATOM     23  C   UNL     1      -1.949   1.093   2.075  1.00  0.00     0.049 C 
BRANCH  23  24
ATOM     24  C   UNL     1      -2.071   2.520   1.561  1.00  0.00     0.158 C 
BRANCH  24  25
ATOM     25  O   UNL     1      -1.200   3.382   2.282  1.00  0.00    -0.396 OA
ATOM     26  H   UNL     1      -1.381   3.263   3.231  1.00  0.00     0.210 HD
ENDBRANCH  24  25
ENDBRANCH  23  24
ENDBRANCH  22  23
ENDBRANCH   1  22
TORSDOF 7
