_i0
     RDKit          3D

 39 41  0  0  0  0  0  0  0  0999 V2000
    3.2186    3.7450   -1.9048 C   0  0  0  0  0  0  0  0  0  0  0  0
    2.6639    2.3641   -1.7252 C   0  0  0  0  0  0  0  0  0  0  0  0
    3.1822    1.2873   -2.4473 C   0  0  0  0  0  0  0  0  0  0  0  0
    2.6817   -0.0050   -2.2490 C   0  0  0  0  0  0  0  0  0  0  0  0
    1.6633   -0.2621   -1.3175 C   0  0  0  0  0  0  0  0  0  0  0  0
    1.1921   -1.5767   -1.1821 N   0  0  0  0  0  0  0  0  0  0  0  0
    0.1411   -2.1460   -0.4458 C   0  0  0  0  0  0  0  0  0  0  0  0
   -0.7346   -1.4106    0.3005 N   0  0  0  0  0  0  0  0  0  0  0  0
   -1.7477   -2.0009    0.9715 C   0  0  0  0  0  0  0  0  0  0  0  0
   -2.6275   -1.2277    1.7179 N   0  0  0  0  0  0  0  0  0  0  0  0
   -2.8287    0.1397    1.2708 C   0  0  0  0  0  0  0  0  0  0  0  0
   -1.9493    1.0932    2.0755 C   0  0  0  0  0  0  0  0  0  0  0  0
   -2.0710    2.5197    1.5609 C   0  0  0  0  0  0  0  0  0  0  0  0
   -1.2003    3.3818    2.2823 O   0  0  0  0  0  0  0  0  0  0  0  0
   -2.0157   -3.3174    0.9853 N   0  0  0  0  0  0  0  0  0  0  0  0
   -1.1376   -4.0140    0.2549 C   0  0  0  0  0  0  0  0  0  0  0  0
   -1.0881   -5.3587    0.0485 N   0  0  0  0  0  0  0  0  0  0  0  0
   -0.0638   -5.6972   -0.7602 N   0  0  0  0  0  0  0  0  0  0  0  0
    0.5727   -4.5744   -1.0860 N   0  0  0  0  0  0  0  0  0  0  0  0
   -0.0700   -3.5309   -0.4686 C   0  0  0  0  0  0  0  0  0  0  0  0
    1.1617    0.8237   -0.5985 C   0  0  0  0  0  0  0  0  0  0  0  0
    1.6573    2.1197   -0.7890 C   0  0  0  0  0  0  0  0  0  0  0  0
    3.5762    3.8922   -2.9293 H   0  0  0  0  0  0  0  0  0  0  0  0
    2.4497    4.5021   -1.7178 H   0  0  0  0  0  0  0  0  0  0  0  0
    4.0507    3.9072   -1.2129 H   0  0  0  0  0  0  0  0  0  0  0  0
    3.9780    1.4433   -3.1718 H   0  0  0  0  0  0  0  0  0  0  0  0
    3.1028   -0.8163   -2.8377 H   0  0  0  0  0  0  0  0  0  0  0  0
    1.7277   -2.2729   -1.6892 H   0  0  0  0  0  0  0  0  0  0  0  0
   -3.4676   -1.7823    1.8387 H   0  0  0  0  0  0  0  0  0  0  0  0
   -3.8789    0.4029    1.4480 H   0  0  0  0  0  0  0  0  0  0  0  0
   -2.6675    0.2539    0.1912 H   0  0  0  0  0  0  0  0  0  0  0  0
   -0.8985    0.7833    2.0509 H   0  0  0  0  0  0  0  0  0  0  0  0
   -2.2305    1.0586    3.1361 H   0  0  0  0  0  0  0  0  0  0  0  0
   -3.0942    2.8934    1.6700 H   0  0  0  0  0  0  0  0  0  0  0  0
   -1.7962    2.5788    0.5031 H   0  0  0  0  0  0  0  0  0  0  0  0
   -1.3815    3.2629    3.2305 H   0  0  0  0  0  0  0  0  0  0  0  0
   -1.6992   -6.0779    0.4126 H   0  0  0  0  0  0  0  0  0  0  0  0
    0.3829    0.6858    0.1408 H   0  0  0  0  0  0  0  0  0  0  0  0
    1.2455    2.9324   -0.1933 H   0  0  0  0  0  0  0  0  0  0  0  0
  1  2  1  0
  2  3  2  0
  3  4  1  0
  4  5  2  0
  5  6  1  0
  6  7  1  0
  7  8  2  0
  8  9  1  0
  9 10  1  0
 10 11  1  0
 11 12  1  0
 12 13  1  0
 13 14  1  0
  9 15  2  0
 15 16  1  0
 16 17  1  0
 17 18  1  0
 18 19  2  0
 19 20  1  0
  5 21  1  0
 21 22  2  0
 22  2  1  0
 20  7  1  0
 20 16  2  0
  1 23  1  0
  1 24  1  0
  1 25  1  0
  3 26  1  0
  4 27  1  0
  6 28  1  0
 10 29  1  0
 11 30  1  0
 11 31  1  0
 12 32  1  0
 12 33  1  0
 13 34  1  0
 13 35  1  0
 14 36  1  0
 17 37  1  0
 21 38  1  0
 22 39  1  0
M  END
>  <ScrubInfo>  (1) 
{"isomerGroup": 0, "isomerId": 0, "confId": 0, "nr_conformers:": 1, "nr_isomers:": 21}

$$$$
_i1
     RDKit          3D

 39 41  0  0  0  0  0  0  0  0999 V2000
   -0.9785    0.6221   -0.3824 N   0  0  0  0  0  0  0  0  0  0  0  0
   -2.0426   -0.2162   -0.6340 C   0  0  0  0  0  0  0  0  0  0  0  0
   -3.2663    0.3829   -0.7173 N   0  0  0  0  0  0  0  0  0  0  0  0
   -3.7409    1.3518    0.2601 C   0  0  0  0  0  0  0  0  0  0  0  0
   -5.2248    1.6570    0.0439 C   0  0  0  0  0  0  0  0  0  0  0  0
   -6.1321    0.4894    0.4192 C   0  0  0  0  0  0  0  0  0  0  0  0
   -5.8470   -0.6336   -0.4054 O   0  0  0  0  0  0  0  0  0  0  0  0
   -1.9325   -1.5134   -0.8026 N   0  0  0  0  0  0  0  0  0  0  0  0
   -0.6378   -1.9074   -0.6785 C   0  0  0  0  0  0  0  0  0  0  0  0
   -0.1664   -3.1783   -0.7793 N   0  0  0  0  0  0  0  0  0  0  0  0
    1.1692   -3.2199   -0.5967 N   0  0  0  0  0  0  0  0  0  0  0  0
    1.5856   -1.9717   -0.3827 N   0  0  0  0  0  0  0  0  0  0  0  0
    0.4933   -1.1544   -0.4299 C   0  0  0  0  0  0  0  0  0  0  0  0
    0.3555    0.2824   -0.2765 C   0  0  0  0  0  0  0  0  0  0  0  0
    1.2842    1.1693   -0.0812 N   0  0  0  0  0  0  0  0  0  0  0  0
    2.6265    0.7837    0.0105 C   0  0  0  0  0  0  0  0  0  0  0  0
    3.1960    0.5014    1.2536 C   0  0  0  0  0  0  0  0  0  0  0  0
    4.5460    0.1542    1.3526 C   0  0  0  0  0  0  0  0  0  0  0  0
    5.3461    0.0892    0.2059 C   0  0  0  0  0  0  0  0  0  0  0  0
    6.8010   -0.2582    0.3128 C   0  0  0  0  0  0  0  0  0  0  0  0
    4.7822    0.4074   -1.0351 C   0  0  0  0  0  0  0  0  0  0  0  0
    3.4318    0.7541   -1.1297 C   0  0  0  0  0  0  0  0  0  0  0  0
   -1.1490    1.6130   -0.4204 H   0  0  0  0  0  0  0  0  0  0  0  0
   -3.9891   -0.3287   -0.8856 H   0  0  0  0  0  0  0  0  0  0  0  0
   -3.1750    2.2836    0.1530 H   0  0  0  0  0  0  0  0  0  0  0  0
   -3.5782    0.9749    1.2765 H   0  0  0  0  0  0  0  0  0  0  0  0
   -5.3890    1.9224   -1.0078 H   0  0  0  0  0  0  0  0  0  0  0  0
   -5.5015    2.5249    0.6533 H   0  0  0  0  0  0  0  0  0  0  0  0
   -5.9873    0.2017    1.4653 H   0  0  0  0  0  0  0  0  0  0  0  0
   -7.1804    0.7684    0.2729 H   0  0  0  0  0  0  0  0  0  0  0  0
   -6.4873   -1.3302   -0.1723 H   0  0  0  0  0  0  0  0  0  0  0  0
   -0.6757   -4.0326   -0.9625 H   0  0  0  0  0  0  0  0  0  0  0  0
    2.5841    0.5484    2.1493 H   0  0  0  0  0  0  0  0  0  0  0  0
    4.9660   -0.0683    2.3303 H   0  0  0  0  0  0  0  0  0  0  0  0
    7.1509   -0.7587   -0.5962 H   0  0  0  0  0  0  0  0  0  0  0  0
    6.9787   -0.9430    1.1488 H   0  0  0  0  0  0  0  0  0  0  0  0
    7.3922    0.6496    0.4671 H   0  0  0  0  0  0  0  0  0  0  0  0
    5.3880    0.3842   -1.9376 H   0  0  0  0  0  0  0  0  0  0  0  0
    3.0044    0.9987   -2.0974 H   0  0  0  0  0  0  0  0  0  0  0  0
  1  2  1  0
  2  3  1  0
  3  4  1  0
  4  5  1  0
  5  6  1  0
  6  7  1  0
  2  8  2  0
  8  9  1  0
  9 10  1  0
 10 11  1  0
 11 12  2  0
 12 13  1  0
 13 14  1  0
 14 15  2  3
 15 16  1  0
 16 17  2  0
 17 18  1  0
 18 19  2  0
 19 20  1  0
 19 21  1  0
 21 22  2  0
 14  1  1  0
 22 16  1  0
 13  9  2  0
  1 23  1  0
  3 24  1  0
  4 25  1  0
  4 26  1  0
  5 27  1  0
  5 28  1  0
  6 29  1  0
  6 30  1  0
  7 31  1  0
 10 32  1  0
 17 33  1  0
 18 34  1  0
 20 35  1  0
 20 36  1  0
 20 37  1  0
 21 38  1  0
 22 39  1  0
M  END
>  <ScrubInfo>  (2) 
{"isomerGroup": 0, "isomerId": 1, "confId": 0, "nr_conformers:": 1, "nr_isomers:": 21}

$$$$
_i2
     RDKit          3D

 39 41  0  0  0  0  0  0  0  0999 V2000
    0.3326   -0.4663   -0.1391 N   0  0  0  0  0  0  0  0  0  0  0  0
   -0.3920   -0.9992   -1.1918 C   0  0  0  0  0  0  0  0  0  0  0  0
   -1.6056   -0.4892   -1.6183 N   0  0  0  0  0  0  0  0  0  0  0  0
   -2.6102    0.1551   -0.8718 C   0  0  0  0  0  0  0  0  0  0  0  0
   -3.5729    0.9044   -1.5631 C   0  0  0  0  0  0  0  0  0  0  0  0
   -4.5712    1.6089   -0.8822 C   0  0  0  0  0  0  0  0  0  0  0  0
   -4.6199    1.5932    0.5137 C   0  0  0  0  0  0  0  0  0  0  0  0
   -5.7076    2.3190    1.2477 C   0  0  0  0  0  0  0  0  0  0  0  0
   -3.6705    0.8420    1.2116 C   0  0  0  0  0  0  0  0  0  0  0  0
   -2.6722    0.1404    0.5254 C   0  0  0  0  0  0  0  0  0  0  0  0
    0.2006   -2.0237   -1.8252 C   0  0  0  0  0  0  0  0  0  0  0  0
   -0.1208   -2.8133   -2.8997 N   0  0  0  0  0  0  0  0  0  0  0  0
    0.7941   -3.6821   -3.1234 N   0  0  0  0  0  0  0  0  0  0  0  0
    1.7557   -3.5154   -2.1534 N   0  0  0  0  0  0  0  0  0  0  0  0
    1.4969   -2.4750   -1.3218 C   0  0  0  0  0  0  0  0  0  0  0  0
    2.1789   -1.9729   -0.3547 N   0  0  0  0  0  0  0  0  0  0  0  0
    1.5810   -0.8838    0.2478 C   0  0  0  0  0  0  0  0  0  0  0  0
    2.1951   -0.2275    1.1743 N   0  0  0  0  0  0  0  0  0  0  0  0
    3.5245   -0.6688    1.5937 C   0  0  0  0  0  0  0  0  0  0  0  0
    4.6092   -0.0142    0.7444 C   0  0  0  0  0  0  0  0  0  0  0  0
    4.6193    1.5034    0.8763 C   0  0  0  0  0  0  0  0  0  0  0  0
    5.7063    2.0459    0.1311 O   0  0  0  0  0  0  0  0  0  0  0  0
    0.0099    0.4130    0.2388 H   0  0  0  0  0  0  0  0  0  0  0  0
   -1.9529   -0.9018   -2.4817 H   0  0  0  0  0  0  0  0  0  0  0  0
   -3.5470    0.9565   -2.6491 H   0  0  0  0  0  0  0  0  0  0  0  0
   -5.3046    2.1749   -1.4519 H   0  0  0  0  0  0  0  0  0  0  0  0
   -6.5721    1.6615    1.3812 H   0  0  0  0  0  0  0  0  0  0  0  0
   -6.0229    3.2111    0.6964 H   0  0  0  0  0  0  0  0  0  0  0  0
   -5.3602    2.6516    2.2315 H   0  0  0  0  0  0  0  0  0  0  0  0
   -3.7005    0.7922    2.2980 H   0  0  0  0  0  0  0  0  0  0  0  0
   -1.9726   -0.4502    1.1101 H   0  0  0  0  0  0  0  0  0  0  0  0
    2.6482   -3.9874   -2.1898 H   0  0  0  0  0  0  0  0  0  0  0  0
    3.6596   -0.3822    2.6435 H   0  0  0  0  0  0  0  0  0  0  0  0
    3.6304   -1.7600    1.5742 H   0  0  0  0  0  0  0  0  0  0  0  0
    4.4926   -0.2832   -0.3124 H   0  0  0  0  0  0  0  0  0  0  0  0
    5.5876   -0.4086    1.0454 H   0  0  0  0  0  0  0  0  0  0  0  0
    3.6968    1.9423    0.4849 H   0  0  0  0  0  0  0  0  0  0  0  0
    4.7317    1.8130    1.9204 H   0  0  0  0  0  0  0  0  0  0  0  0
    6.5247    1.6764    0.5031 H   0  0  0  0  0  0  0  0  0  0  0  0
  1  2  1  0
  2  3  1  0
  3  4  1  0
  4  5  2  0
  5  6  1  0
  6  7  2  0
  7  8  1  0
  7  9  1  0
  9 10  2  0
  2 11  2  0
 11 12  1  0
 12 13  2  0
 13 14  1  0
 14 15  1  0
 15 16  2  0
 16 17  1  0
 17 18  2  3
 18 19  1  0
 19 20  1  0
 20 21  1  0
 21 22  1  0
 17  1  1  0
 10  4  1  0
 15 11  1  0
  1 23  1  0
  3 24  1  0
  5 25  1  0
  6 26  1  0
  8 27  1  0
  8 28  1  0
  8 29  1  0
  9 30  1  0
 10 31  1  0
 14 32  1  0
 19 33  1  0
 19 34  1  0
 20 35  1  0
 20 36  1  0
 21 37  1  0
 21 38  1  0
 22 39  1  0
M  END
>  <ScrubInfo>  (3) 
{"isomerGroup": 0, "isomerId": 2, "confId": 0, "nr_conformers:": 1, "nr_isomers:": 21}

$$$$
_i3
     RDKit          3D

 39 41  0  0  0  0  0  0  0  0999 V2000
   -2.0739    0.6090   -0.9980 N   0  0  0  0  0  0  0  0  0  0  0  0
   -1.8983   -0.3289    0.0123 C   0  0  0  0  0  0  0  0  0  0  0  0
   -2.7679   -0.6569    0.9002 N   0  0  0  0  0  0  0  0  0  0  0  0
   -4.0767   -0.0211    0.9030 C   0  0  0  0  0  0  0  0  0  0  0  0
   -4.9040   -0.6402    2.0251 C   0  0  0  0  0  0  0  0  0  0  0  0
   -6.2672    0.0245    2.1446 C   0  0  0  0  0  0  0  0  0  0  0  0
   -7.0390   -0.6080    3.1565 O   0  0  0  0  0  0  0  0  0  0  0  0
   -0.7029   -1.0260    0.1504 N   0  0  0  0  0  0  0  0  0  0  0  0
    0.2940   -0.7910   -0.6621 C   0  0  0  0  0  0  0  0  0  0  0  0
    1.4789   -1.4764   -0.5882 N   0  0  0  0  0  0  0  0  0  0  0  0
    2.7681   -0.9050   -0.4531 C   0  0  0  0  0  0  0  0  0  0  0  0
    3.0004    0.4563   -0.2330 C   0  0  0  0  0  0  0  0  0  0  0  0
    4.3039    0.9514   -0.1092 C   0  0  0  0  0  0  0  0  0  0  0  0
    5.4045    0.0960   -0.2147 C   0  0  0  0  0  0  0  0  0  0  0  0
    6.7985    0.6245   -0.0529 C   0  0  0  0  0  0  0  0  0  0  0  0
    5.1807   -1.2673   -0.4215 C   0  0  0  0  0  0  0  0  0  0  0  0
    3.8775   -1.7585   -0.5450 C   0  0  0  0  0  0  0  0  0  0  0  0
    0.1385    0.1599   -1.7432 C   0  0  0  0  0  0  0  0  0  0  0  0
    0.9558    0.5586   -2.7579 N   0  0  0  0  0  0  0  0  0  0  0  0
    0.2895    1.4657   -3.4797 N   0  0  0  0  0  0  0  0  0  0  0  0
   -0.9355    1.6153   -2.9288 N   0  0  0  0  0  0  0  0  0  0  0  0
   -1.0553    0.8129   -1.8458 C   0  0  0  0  0  0  0  0  0  0  0  0
   -2.9706    1.0671   -1.0636 H   0  0  0  0  0  0  0  0  0  0  0  0
   -3.9754    1.0572    1.0743 H   0  0  0  0  0  0  0  0  0  0  0  0
   -4.5884   -0.1802   -0.0537 H   0  0  0  0  0  0  0  0  0  0  0  0
   -5.0307   -1.7169    1.8540 H   0  0  0  0  0  0  0  0  0  0  0  0
   -4.3705   -0.5576    2.9808 H   0  0  0  0  0  0  0  0  0  0  0  0
   -6.1684    1.0846    2.3996 H   0  0  0  0  0  0  0  0  0  0  0  0
   -6.8223   -0.0502    1.2043 H   0  0  0  0  0  0  0  0  0  0  0  0
   -6.5005   -0.6339    3.9664 H   0  0  0  0  0  0  0  0  0  0  0  0
    1.3957   -2.2441    0.0731 H   0  0  0  0  0  0  0  0  0  0  0  0
    2.1788    1.1601   -0.1397 H   0  0  0  0  0  0  0  0  0  0  0  0
    4.4503    2.0148    0.0669 H   0  0  0  0  0  0  0  0  0  0  0  0
    7.5116    0.0302   -0.6339 H   0  0  0  0  0  0  0  0  0  0  0  0
    6.8689    1.6568   -0.4114 H   0  0  0  0  0  0  0  0  0  0  0  0
    7.0897    0.5952    1.0015 H   0  0  0  0  0  0  0  0  0  0  0  0
    6.0180   -1.9573   -0.4964 H   0  0  0  0  0  0  0  0  0  0  0  0
    3.7336   -2.8212   -0.7264 H   0  0  0  0  0  0  0  0  0  0  0  0
   -1.5894    2.2608   -3.3547 H   0  0  0  0  0  0  0  0  0  0  0  0
  1  2  1  0
  2  3  2  3
  3  4  1  0
  4  5  1  0
  5  6  1  0
  6  7  1  0
  2  8  1  0
  8  9  2  0
  9 10  1  0
 10 11  1  0
 11 12  2  0
 12 13  1  0
 13 14  2  0
 14 15  1  0
 14 16  1  0
 16 17  2  0
  9 18  1  0
 18 19  1  0
 19 20  2  0
 20 21  1  0
 21 22  1  0
 22  1  1  0
 17 11  1  0
 22 18  2  0
  1 23  1  0
  4 24  1  0
  4 25  1  0
  5 26  1  0
  5 27  1  0
  6 28  1  0
  6 29  1  0
  7 30  1  0
 10 31  1  0
 12 32  1  0
 13 33  1  0
 15 34  1  0
 15 35  1  0
 15 36  1  0
 16 37  1  0
 17 38  1  0
 21 39  1  0
M  END
>  <ScrubInfo>  (4) 
{"isomerGroup": 0, "isomerId": 3, "confId": 0, "nr_conformers:": 1, "nr_isomers:": 21}

$$$$
_i4
     RDKit          3D

 39 41  0  0  0  0  0  0  0  0999 V2000
   -1.7532   -1.6813   -1.6650 N   0  0  0  0  0  0  0  0  0  0  0  0
   -1.9881   -1.1072   -0.4525 C   0  0  0  0  0  0  0  0  0  0  0  0
   -3.2828   -0.7837   -0.1775 N   0  0  0  0  0  0  0  0  0  0  0  0
   -4.1446   -0.0901   -1.1232 C   0  0  0  0  0  0  0  0  0  0  0  0
   -5.4494    0.3429   -0.4510 C   0  0  0  0  0  0  0  0  0  0  0  0
   -5.2519    1.4716    0.5564 C   0  0  0  0  0  0  0  0  0  0  0  0
   -4.4034    1.0382    1.6120 O   0  0  0  0  0  0  0  0  0  0  0  0
   -1.0463   -0.8806    0.4262 N   0  0  0  0  0  0  0  0  0  0  0  0
    0.2761   -1.2251    0.1042 C   0  0  0  0  0  0  0  0  0  0  0  0
    1.2341   -0.9785    1.0817 N   0  0  0  0  0  0  0  0  0  0  0  0
    2.4529   -0.2768    0.9394 C   0  0  0  0  0  0  0  0  0  0  0  0
    2.8452    0.3902   -0.2250 C   0  0  0  0  0  0  0  0  0  0  0  0
    4.0772    1.0519   -0.2961 C   0  0  0  0  0  0  0  0  0  0  0  0
    4.9429    1.0664    0.8012 C   0  0  0  0  0  0  0  0  0  0  0  0
    6.2781    1.7422    0.7096 C   0  0  0  0  0  0  0  0  0  0  0  0
    4.5680    0.3869    1.9625 C   0  0  0  0  0  0  0  0  0  0  0  0
    3.3363   -0.2722    2.0288 C   0  0  0  0  0  0  0  0  0  0  0  0
    0.5756   -1.8392   -1.0622 C   0  0  0  0  0  0  0  0  0  0  0  0
    1.6947   -2.3517   -1.6301 N   0  0  0  0  0  0  0  0  0  0  0  0
    1.3843   -2.8563   -2.7527 N   0  0  0  0  0  0  0  0  0  0  0  0
   -0.0286   -2.7121   -3.0222 N   0  0  0  0  0  0  0  0  0  0  0  0
   -0.5031   -2.0898   -1.9909 C   0  0  0  0  0  0  0  0  0  0  0  0
   -2.5249   -2.0117   -2.2195 H   0  0  0  0  0  0  0  0  0  0  0  0
   -3.3410   -0.3365    0.7469 H   0  0  0  0  0  0  0  0  0  0  0  0
   -4.3859   -0.7617   -1.9544 H   0  0  0  0  0  0  0  0  0  0  0  0
   -3.6267    0.7831   -1.5369 H   0  0  0  0  0  0  0  0  0  0  0  0
   -6.1512    0.6806   -1.2220 H   0  0  0  0  0  0  0  0  0  0  0  0
   -5.8990   -0.5212    0.0537 H   0  0  0  0  0  0  0  0  0  0  0  0
   -6.2157    1.7634    0.9852 H   0  0  0  0  0  0  0  0  0  0  0  0
   -4.7993    2.3469    0.0796 H   0  0  0  0  0  0  0  0  0  0  0  0
   -4.3440    1.7707    2.2520 H   0  0  0  0  0  0  0  0  0  0  0  0
    0.7570   -0.6894    1.9329 H   0  0  0  0  0  0  0  0  0  0  0  0
    2.1990    0.4238   -1.0965 H   0  0  0  0  0  0  0  0  0  0  0  0
    4.3528    1.5553   -1.2201 H   0  0  0  0  0  0  0  0  0  0  0  0
    7.0287    1.0393    0.3354 H   0  0  0  0  0  0  0  0  0  0  0  0
    6.2338    2.6049    0.0365 H   0  0  0  0  0  0  0  0  0  0  0  0
    6.5968    2.1119    1.6899 H   0  0  0  0  0  0  0  0  0  0  0  0
    5.2322    0.3582    2.8229 H   0  0  0  0  0  0  0  0  0  0  0  0
    3.0734   -0.8034    2.9406 H   0  0  0  0  0  0  0  0  0  0  0  0
  1  2  1  0
  2  3  1  0
  3  4  1  0
  4  5  1  0
  5  6  1  0
  6  7  1  0
  2  8  2  0
  8  9  1  0
  9 10  1  0
 10 11  1  0
 11 12  2  0
 12 13  1  0
 13 14  2  0
 14 15  1  0
 14 16  1  0
 16 17  2  0
  9 18  2  0
 18 19  1  0
 19 20  2  0
 20 21  1  0
 21 22  2  0
 22  1  1  0
 17 11  1  0
 22 18  1  0
  1 23  1  0
  3 24  1  0
  4 25  1  0
  4 26  1  0
  5 27  1  0
  5 28  1  0
  6 29  1  0
  6 30  1  0
  7 31  1  0
 10 32  1  0
 12 33  1  0
 13 34  1  0
 15 35  1  0
 15 36  1  0
 15 37  1  0
 16 38  1  0
 17 39  1  0
M  END
>  <ScrubInfo>  (5) 
{"isomerGroup": 0, "isomerId": 4, "confId": 0, "nr_conformers:": 1, "nr_isomers:": 21}

$$$$
_i5
     RDKit          3D

 39 41  0  0  0  0  0  0  0  0999 V2000
   -1.0242   -2.0361    1.5325 N   0  0  0  0  0  0  0  0  0  0  0  0
   -0.6765   -3.2901    1.8753 N   0  0  0  0  0  0  0  0  0  0  0  0
    0.5121   -3.5335    1.3256 N   0  0  0  0  0  0  0  0  0  0  0  0
    0.8947   -2.4154    0.6358 C   0  0  0  0  0  0  0  0  0  0  0  0
    2.0335   -2.2361   -0.0527 N   0  0  0  0  0  0  0  0  0  0  0  0
    2.1422   -1.0275   -0.6081 C   0  0  0  0  0  0  0  0  0  0  0  0
    3.3078   -0.8151   -1.3212 N   0  0  0  0  0  0  0  0  0  0  0  0
    3.8588    0.5278   -1.3648 C   0  0  0  0  0  0  0  0  0  0  0  0
    4.3856    1.0114   -0.0095 C   0  0  0  0  0  0  0  0  0  0  0  0
    5.5874    0.2227    0.4941 C   0  0  0  0  0  0  0  0  0  0  0  0
    6.6871    0.3614   -0.3950 O   0  0  0  0  0  0  0  0  0  0  0  0
    1.2307   -0.0346   -0.5218 N   0  0  0  0  0  0  0  0  0  0  0  0
    0.0733   -0.2296    0.1436 C   0  0  0  0  0  0  0  0  0  0  0  0
   -0.8486    0.8219    0.2196 N   0  0  0  0  0  0  0  0  0  0  0  0
   -2.2521    0.7294    0.1127 C   0  0  0  0  0  0  0  0  0  0  0  0
   -2.8894   -0.2488   -0.6591 C   0  0  0  0  0  0  0  0  0  0  0  0
   -4.2830   -0.2760   -0.7688 C   0  0  0  0  0  0  0  0  0  0  0  0
   -5.0649    0.6842   -0.1192 C   0  0  0  0  0  0  0  0  0  0  0  0
   -6.5578    0.6769   -0.2668 C   0  0  0  0  0  0  0  0  0  0  0  0
   -4.4289    1.6935    0.6100 C   0  0  0  0  0  0  0  0  0  0  0  0
   -3.0355    1.7179    0.7172 C   0  0  0  0  0  0  0  0  0  0  0  0
   -0.0789   -1.4528    0.7505 C   0  0  0  0  0  0  0  0  0  0  0  0
   -1.9058   -1.6562    1.8593 H   0  0  0  0  0  0  0  0  0  0  0  0
    3.9609   -1.5612   -1.1071 H   0  0  0  0  0  0  0  0  0  0  0  0
    4.6710    0.5384   -2.1009 H   0  0  0  0  0  0  0  0  0  0  0  0
    3.1101    1.2357   -1.7418 H   0  0  0  0  0  0  0  0  0  0  0  0
    4.6803    2.0619   -0.1245 H   0  0  0  0  0  0  0  0  0  0  0  0
    3.5930    0.9798    0.7463 H   0  0  0  0  0  0  0  0  0  0  0  0
    5.8964    0.5849    1.4803 H   0  0  0  0  0  0  0  0  0  0  0  0
    5.3562   -0.8420    0.5909 H   0  0  0  0  0  0  0  0  0  0  0  0
    7.0192    1.2721   -0.3122 H   0  0  0  0  0  0  0  0  0  0  0  0
   -0.4916    1.5696   -0.3748 H   0  0  0  0  0  0  0  0  0  0  0  0
   -2.3123   -0.9909   -1.2063 H   0  0  0  0  0  0  0  0  0  0  0  0
   -4.7528   -1.0459   -1.3778 H   0  0  0  0  0  0  0  0  0  0  0  0
   -7.0399    1.0978    0.6217 H   0  0  0  0  0  0  0  0  0  0  0  0
   -6.9330   -0.3450   -0.3862 H   0  0  0  0  0  0  0  0  0  0  0  0
   -6.8504    1.2661   -1.1413 H   0  0  0  0  0  0  0  0  0  0  0  0
   -5.0130    2.4715    1.0970 H   0  0  0  0  0  0  0  0  0  0  0  0
   -2.5619    2.5118    1.2905 H   0  0  0  0  0  0  0  0  0  0  0  0
  1  2  1  0
  2  3  2  0
  3  4  1  0
  4  5  2  0
  5  6  1  0
  6  7  1  0
  7  8  1  0
  8  9  1  0
  9 10  1  0
 10 11  1  0
  6 12  2  0
 12 13  1  0
 13 14  1  0
 14 15  1  0
 15 16  2  0
 16 17  1  0
 17 18  2  0
 18 19  1  0
 18 20  1  0
 20 21  2  0
 13 22  2  0
 22  1  1  0
 22  4  1  0
 21 15  1  0
  1 23  1  0
  7 24  1  0
  8 25  1  0
  8 26  1  0
  9 27  1  0
  9 28  1  0
 10 29  1  0
 10 30  1  0
 11 31  1  0
 14 32  1  0
 16 33  1  0
 17 34  1  0
 19 35  1  0
 19 36  1  0
 19 37  1  0
 20 38  1  0
 21 39  1  0
M  END
>  <ScrubInfo>  (6) 
{"isomerGroup": 0, "isomerId": 5, "confId": 0, "nr_conformers:": 1, "nr_isomers:": 21}

$$$$
_i6
     RDKit          3D

 39 41  0  0  0  0  0  0  0  0999 V2000
   -1.0444   -0.1375   -1.0809 N   0  0  0  0  0  0  0  0  0  0  0  0
   -2.0741   -1.0295   -1.1832 C   0  0  0  0  0  0  0  0  0  0  0  0
   -3.3321   -0.5206   -1.0537 N   0  0  0  0  0  0  0  0  0  0  0  0
   -3.7046    0.4067    0.0081 C   0  0  0  0  0  0  0  0  0  0  0  0
   -5.2013    0.7075   -0.0783 C   0  0  0  0  0  0  0  0  0  0  0  0
   -5.6226    1.7631    0.9330 C   0  0  0  0  0  0  0  0  0  0  0  0
   -5.3611    1.3168    2.2549 O   0  0  0  0  0  0  0  0  0  0  0  0
   -1.9236   -2.3009   -1.4068 N   0  0  0  0  0  0  0  0  0  0  0  0
   -0.6271   -2.7103   -1.5366 C   0  0  0  0  0  0  0  0  0  0  0  0
   -0.2058   -3.9109   -1.7787 N   0  0  0  0  0  0  0  0  0  0  0  0
    1.2339   -3.7800   -1.8409 N   0  0  0  0  0  0  0  0  0  0  0  0
    1.6011   -2.5781   -1.6504 N   0  0  0  0  0  0  0  0  0  0  0  0
    0.5018   -1.8122   -1.4292 C   0  0  0  0  0  0  0  0  0  0  0  0
    0.2890   -0.5045   -1.1929 C   0  0  0  0  0  0  0  0  0  0  0  0
    1.2769    0.4624   -1.1320 N   0  0  0  0  0  0  0  0  0  0  0  0
    2.4949    0.4349   -0.4190 C   0  0  0  0  0  0  0  0  0  0  0  0
    2.8276   -0.5429    0.5233 C   0  0  0  0  0  0  0  0  0  0  0  0
    4.0694   -0.5297    1.1699 C   0  0  0  0  0  0  0  0  0  0  0  0
    5.0092    0.4651    0.8876 C   0  0  0  0  0  0  0  0  0  0  0  0
    6.3533    0.4539    1.5520 C   0  0  0  0  0  0  0  0  0  0  0  0
    4.6977    1.4307   -0.0720 C   0  0  0  0  0  0  0  0  0  0  0  0
    3.4555    1.4137   -0.7148 C   0  0  0  0  0  0  0  0  0  0  0  0
   -1.2499    0.8472   -1.0532 H   0  0  0  0  0  0  0  0  0  0  0  0
   -3.9923   -1.2939   -1.1275 H   0  0  0  0  0  0  0  0  0  0  0  0
   -3.1397    1.3397   -0.0934 H   0  0  0  0  0  0  0  0  0  0  0  0
   -3.4595   -0.0355    0.9805 H   0  0  0  0  0  0  0  0  0  0  0  0
   -5.7615   -0.2184    0.1024 H   0  0  0  0  0  0  0  0  0  0  0  0
   -5.4575    1.0506   -1.0877 H   0  0  0  0  0  0  0  0  0  0  0  0
   -5.0713    2.6951    0.7733 H   0  0  0  0  0  0  0  0  0  0  0  0
   -6.6910    1.9841    0.8429 H   0  0  0  0  0  0  0  0  0  0  0  0
   -6.0180    0.6312    2.4715 H   0  0  0  0  0  0  0  0  0  0  0  0
    0.9430    1.4098   -1.2630 H   0  0  0  0  0  0  0  0  0  0  0  0
    2.1253   -1.3264    0.7915 H   0  0  0  0  0  0  0  0  0  0  0  0
    4.2945   -1.3085    1.8954 H   0  0  0  0  0  0  0  0  0  0  0  0
    6.7508    1.4700    1.6462 H   0  0  0  0  0  0  0  0  0  0  0  0
    6.2860    0.0370    2.5624 H   0  0  0  0  0  0  0  0  0  0  0  0
    7.0553   -0.1478    0.9667 H   0  0  0  0  0  0  0  0  0  0  0  0
    5.4217    2.1987   -0.3342 H   0  0  0  0  0  0  0  0  0  0  0  0
    3.2505    2.1693   -1.4693 H   0  0  0  0  0  0  0  0  0  0  0  0
  1  2  1  0
  2  3  1  0
  3  4  1  0
  4  5  1  0
  5  6  1  0
  6  7  1  0
  2  8  2  0
  8  9  1  0
  9 10  2  0
 10 11  1  0
 11 12  2  0
 12 13  1  0
 13 14  2  0
 14 15  1  0
 15 16  1  0
 16 17  2  0
 17 18  1  0
 18 19  2  0
 19 20  1  0
 19 21  1  0
 21 22  2  0
 14  1  1  0
 22 16  1  0
 13  9  1  0
  1 23  1  0
  3 24  1  0
  4 25  1  0
  4 26  1  0
  5 27  1  0
  5 28  1  0
  6 29  1  0
  6 30  1  0
  7 31  1  0
 15 32  1  0
 17 33  1  0
 18 34  1  0
 20 35  1  0
 20 36  1  0
 20 37  1  0
 21 38  1  0
 22 39  1  0
M  END
>  <ScrubInfo>  (7) 
{"isomerGroup": 0, "isomerId": 6, "confId": 0, "nr_conformers:": 1, "nr_isomers:": 21}

$$$$
_i7
     RDKit          3D

 39 41  0  0  0  0  0  0  0  0999 V2000
    1.2197    2.2899   -0.6782 N   0  0  0  0  0  0  0  0  0  0  0  0
    1.7450    1.0280   -0.4885 C   0  0  0  0  0  0  0  0  0  0  0  0
    3.1075    1.0219   -0.6293 N   0  0  0  0  0  0  0  0  0  0  0  0
    3.8407   -0.2387   -0.5602 C   0  0  0  0  0  0  0  0  0  0  0  0
    5.3383    0.0410   -0.5428 C   0  0  0  0  0  0  0  0  0  0  0  0
    6.1398   -1.2489   -0.4614 C   0  0  0  0  0  0  0  0  0  0  0  0
    7.5291   -0.9481   -0.4750 O   0  0  0  0  0  0  0  0  0  0  0  0
    1.0544   -0.0398   -0.2013 N   0  0  0  0  0  0  0  0  0  0  0  0
   -0.3328    0.0299   -0.0686 C   0  0  0  0  0  0  0  0  0  0  0  0
   -0.9484   -1.0832    0.1795 N   0  0  0  0  0  0  0  0  0  0  0  0
   -2.3380   -1.1174    0.3282 C   0  0  0  0  0  0  0  0  0  0  0  0
   -2.9154   -0.9895    1.5930 C   0  0  0  0  0  0  0  0  0  0  0  0
   -4.3023   -1.0592    1.7500 C   0  0  0  0  0  0  0  0  0  0  0  0
   -5.1307   -1.2640    0.6403 C   0  0  0  0  0  0  0  0  0  0  0  0
   -6.6169   -1.3681    0.8106 C   0  0  0  0  0  0  0  0  0  0  0  0
   -4.5479   -1.4303   -0.6215 C   0  0  0  0  0  0  0  0  0  0  0  0
   -3.1606   -1.3598   -0.7738 C   0  0  0  0  0  0  0  0  0  0  0  0
   -0.9236    1.3514   -0.2233 C   0  0  0  0  0  0  0  0  0  0  0  0
   -2.2063    1.8114   -0.1159 N   0  0  0  0  0  0  0  0  0  0  0  0
   -2.1902    3.1304   -0.3283 N   0  0  0  0  0  0  0  0  0  0  0  0
   -0.9123    3.4939   -0.5629 N   0  0  0  0  0  0  0  0  0  0  0  0
   -0.1060    2.4088   -0.5133 C   0  0  0  0  0  0  0  0  0  0  0  0
    1.8626    3.0709   -0.6783 H   0  0  0  0  0  0  0  0  0  0  0  0
    3.4368    1.6162   -1.3812 H   0  0  0  0  0  0  0  0  0  0  0  0
    3.5630   -0.7845    0.3493 H   0  0  0  0  0  0  0  0  0  0  0  0
    3.5821   -0.8605   -1.4251 H   0  0  0  0  0  0  0  0  0  0  0  0
    5.5956    0.6895    0.3045 H   0  0  0  0  0  0  0  0  0  0  0  0
    5.6346    0.6007   -1.4393 H   0  0  0  0  0  0  0  0  0  0  0  0
    5.9278   -1.8933   -1.3203 H   0  0  0  0  0  0  0  0  0  0  0  0
    5.9121   -1.8082    0.4518 H   0  0  0  0  0  0  0  0  0  0  0  0
    7.7383   -0.4842    0.3542 H   0  0  0  0  0  0  0  0  0  0  0  0
   -2.2802   -0.8351    2.4602 H   0  0  0  0  0  0  0  0  0  0  0  0
   -4.7291   -0.9523    2.7440 H   0  0  0  0  0  0  0  0  0  0  0  0
   -6.9588   -0.7477    1.6458 H   0  0  0  0  0  0  0  0  0  0  0  0
   -6.8998   -2.4076    1.0028 H   0  0  0  0  0  0  0  0  0  0  0  0
   -7.1383   -1.0192   -0.0870 H   0  0  0  0  0  0  0  0  0  0  0  0
   -5.1682   -1.6161   -1.4947 H   0  0  0  0  0  0  0  0  0  0  0  0
   -2.7170   -1.4957   -1.7557 H   0  0  0  0  0  0  0  0  0  0  0  0
   -0.7048    4.4678   -0.7460 H   0  0  0  0  0  0  0  0  0  0  0  0
  1  2  1  0
  2  3  1  0
  3  4  1  0
  4  5  1  0
  5  6  1  0
  6  7  1  0
  2  8  2  0
  8  9  1  0
  9 10  2  3
 10 11  1  0
 11 12  2  0
 12 13  1  0
 13 14  2  0
 14 15  1  0
 14 16  1  0
 16 17  2  0
  9 18  1  0
 18 19  1  0
 19 20  2  0
 20 21  1  0
 21 22  1  0
 22  1  1  0
 17 11  1  0
 22 18  2  0
  1 23  1  0
  3 24  1  0
  4 25  1  0
  4 26  1  0
  5 27  1  0
  5 28  1  0
  6 29  1  0
  6 30  1  0
  7 31  1  0
 12 32  1  0
 13 33  1  0
 15 34  1  0
 15 35  1  0
 15 36  1  0
 16 37  1  0
 17 38  1  0
 21 39  1  0
M  END
>  <ScrubInfo>  (8) 
{"isomerGroup": 0, "isomerId": 7, "confId": 0, "nr_conformers:": 1, "nr_isomers:": 21}

$$$$
_i8
     RDKit          3D

 39 41  0  0  0  0  0  0  0  0999 V2000
   -0.7391   -5.6371   -0.5458 N   0  0  0  0  0  0  0  0  0  0  0  0
    0.3352   -4.7871   -0.2943 N   0  0  0  0  0  0  0  0  0  0  0  0
   -0.1486   -3.5855   -0.3823 C   0  0  0  0  0  0  0  0  0  0  0  0
    0.4472   -2.2597   -0.1574 C   0  0  0  0  0  0  0  0  0  0  0  0
    1.7197   -2.1702    0.0812 N   0  0  0  0  0  0  0  0  0  0  0  0
    2.2705   -0.8998    0.2986 C   0  0  0  0  0  0  0  0  0  0  0  0
    2.7812   -0.1577   -0.7683 C   0  0  0  0  0  0  0  0  0  0  0  0
    3.3551    1.0979   -0.5499 C   0  0  0  0  0  0  0  0  0  0  0  0
    3.4267    1.6281    0.7438 C   0  0  0  0  0  0  0  0  0  0  0  0
    4.0752    2.9585    0.9851 C   0  0  0  0  0  0  0  0  0  0  0  0
    2.9427    0.8698    1.8164 C   0  0  0  0  0  0  0  0  0  0  0  0
    2.3700   -0.3854    1.5929 C   0  0  0  0  0  0  0  0  0  0  0  0
   -0.3863   -1.1703   -0.2083 N   0  0  0  0  0  0  0  0  0  0  0  0
   -1.6437   -1.3320   -0.4995 C   0  0  0  0  0  0  0  0  0  0  0  0
   -2.4816   -0.2567   -0.5539 N   0  0  0  0  0  0  0  0  0  0  0  0
   -2.1828    0.9952    0.1196 C   0  0  0  0  0  0  0  0  0  0  0  0
   -3.1582    2.0726   -0.3507 C   0  0  0  0  0  0  0  0  0  0  0  0
   -2.8508    3.4230    0.2787 C   0  0  0  0  0  0  0  0  0  0  0  0
   -3.0367    3.3496    1.6848 O   0  0  0  0  0  0  0  0  0  0  0  0
   -2.2593   -2.5317   -0.7790 N   0  0  0  0  0  0  0  0  0  0  0  0
   -1.5642   -3.6103   -0.7632 C   0  0  0  0  0  0  0  0  0  0  0  0
   -1.8801   -4.9241   -0.9980 N   0  0  0  0  0  0  0  0  0  0  0  0
   -0.4834   -6.4551   -1.1082 H   0  0  0  0  0  0  0  0  0  0  0  0
    2.7323   -0.5631   -1.7746 H   0  0  0  0  0  0  0  0  0  0  0  0
    3.7483    1.6547   -1.3968 H   0  0  0  0  0  0  0  0  0  0  0  0
    5.1473    2.8263    1.1596 H   0  0  0  0  0  0  0  0  0  0  0  0
    3.9353    3.6227    0.1257 H   0  0  0  0  0  0  0  0  0  0  0  0
    3.6333    3.4562    1.8548 H   0  0  0  0  0  0  0  0  0  0  0  0
    3.0112    1.2468    2.8338 H   0  0  0  0  0  0  0  0  0  0  0  0
    2.0005   -0.9691    2.4308 H   0  0  0  0  0  0  0  0  0  0  0  0
   -3.4563   -0.5318   -0.5445 H   0  0  0  0  0  0  0  0  0  0  0  0
   -1.1587    1.3139   -0.1078 H   0  0  0  0  0  0  0  0  0  0  0  0
   -2.2594    0.8504    1.2029 H   0  0  0  0  0  0  0  0  0  0  0  0
   -3.1139    2.1629   -1.4427 H   0  0  0  0  0  0  0  0  0  0  0  0
   -4.1799    1.7696   -0.0898 H   0  0  0  0  0  0  0  0  0  0  0  0
   -3.5291    4.1848   -0.1185 H   0  0  0  0  0  0  0  0  0  0  0  0
   -1.8200    3.7292    0.0732 H   0  0  0  0  0  0  0  0  0  0  0  0
   -2.8421    4.2323    2.0460 H   0  0  0  0  0  0  0  0  0  0  0  0
   -2.7577   -5.2178   -0.5752 H   0  0  0  0  0  0  0  0  0  0  0  0
  1  2  1  0
  2  3  2  0
  3  4  1  0
  4  5  2  3
  5  6  1  0
  6  7  2  0
  7  8  1  0
  8  9  2  0
  9 10  1  0
  9 11  1  0
 11 12  2  0
  4 13  1  0
 13 14  2  0
 14 15  1  0
 15 16  1  0
 16 17  1  0
 17 18  1  0
 18 19  1  0
 14 20  1  0
 20 21  2  0
 21 22  1  0
 22  1  1  0
 21  3  1  0
 12  6  1  0
  1 23  1  0
  7 24  1  0
  8 25  1  0
 10 26  1  0
 10 27  1  0
 10 28  1  0
 11 29  1  0
 12 30  1  0
 15 31  1  0
 16 32  1  0
 16 33  1  0
 17 34  1  0
 17 35  1  0
 18 36  1  0
 18 37  1  0
 19 38  1  0
 22 39  1  0
M  END
>  <ScrubInfo>  (9) 
{"isomerGroup": 0, "isomerId": 8, "confId": 0, "nr_conformers:": 1, "nr_isomers:": 21}

$$$$
_i9
     RDKit          3D

 39 41  0  0  0  0  0  0  0  0999 V2000
   -0.6516    5.0621    0.1547 N   0  0  0  0  0  0  0  0  0  0  0  0
   -1.8509    4.4817    0.0361 N   0  0  0  0  0  0  0  0  0  0  0  0
   -1.5155    3.1893   -0.0021 C   0  0  0  0  0  0  0  0  0  0  0  0
   -2.3644    2.1491   -0.1166 N   0  0  0  0  0  0  0  0  0  0  0  0
   -1.7256    0.9631   -0.1205 C   0  0  0  0  0  0  0  0  0  0  0  0
   -2.4667   -0.2099   -0.2454 N   0  0  0  0  0  0  0  0  0  0  0  0
   -3.7698   -0.1803    0.3992 C   0  0  0  0  0  0  0  0  0  0  0  0
   -4.4780   -1.5179    0.2014 C   0  0  0  0  0  0  0  0  0  0  0  0
   -4.9042   -1.7378   -1.2443 C   0  0  0  0  0  0  0  0  0  0  0  0
   -5.6010   -2.9752   -1.3499 O   0  0  0  0  0  0  0  0  0  0  0  0
   -0.3855    0.7423   -0.0152 N   0  0  0  0  0  0  0  0  0  0  0  0
    0.5056    1.7714    0.0986 C   0  0  0  0  0  0  0  0  0  0  0  0
    1.8914    1.6090    0.2201 N   0  0  0  0  0  0  0  0  0  0  0  0
    2.7284    0.4870    0.1484 C   0  0  0  0  0  0  0  0  0  0  0  0
    4.0938    0.6499    0.4307 C   0  0  0  0  0  0  0  0  0  0  0  0
    4.9807   -0.4322    0.4013 C   0  0  0  0  0  0  0  0  0  0  0  0
    4.5223   -1.7117    0.0831 C   0  0  0  0  0  0  0  0  0  0  0  0
    5.4598   -2.8815    0.0817 C   0  0  0  0  0  0  0  0  0  0  0  0
    3.1614   -1.8907   -0.1760 C   0  0  0  0  0  0  0  0  0  0  0  0
    2.2790   -0.8030   -0.1436 C   0  0  0  0  0  0  0  0  0  0  0  0
   -0.0910    3.0495    0.1078 C   0  0  0  0  0  0  0  0  0  0  0  0
    0.4453    4.2862    0.2120 N   0  0  0  0  0  0  0  0  0  0  0  0
   -0.5725    6.0760    0.2032 H   0  0  0  0  0  0  0  0  0  0  0  0
   -1.8448   -0.9513    0.0650 H   0  0  0  0  0  0  0  0  0  0  0  0
   -4.3991    0.6216   -0.0062 H   0  0  0  0  0  0  0  0  0  0  0  0
   -3.6467   -0.0034    1.4750 H   0  0  0  0  0  0  0  0  0  0  0  0
   -3.8393   -2.3479    0.5288 H   0  0  0  0  0  0  0  0  0  0  0  0
   -5.3684   -1.5548    0.8414 H   0  0  0  0  0  0  0  0  0  0  0  0
   -4.0477   -1.7649   -1.9252 H   0  0  0  0  0  0  0  0  0  0  0  0
   -5.5811   -0.9441   -1.5753 H   0  0  0  0  0  0  0  0  0  0  0  0
   -4.9562   -3.6848   -1.1869 H   0  0  0  0  0  0  0  0  0  0  0  0
    2.3670    2.5026    0.2999 H   0  0  0  0  0  0  0  0  0  0  0  0
    4.4863    1.6316    0.6846 H   0  0  0  0  0  0  0  0  0  0  0  0
    6.0305   -0.2650    0.6306 H   0  0  0  0  0  0  0  0  0  0  0  0
    6.4697   -2.5725   -0.2076 H   0  0  0  0  0  0  0  0  0  0  0  0
    5.4993   -3.3309    1.0787 H   0  0  0  0  0  0  0  0  0  0  0  0
    5.1349   -3.6415   -0.6367 H   0  0  0  0  0  0  0  0  0  0  0  0
    2.7710   -2.8789   -0.4079 H   0  0  0  0  0  0  0  0  0  0  0  0
    1.2335   -0.9922   -0.3627 H   0  0  0  0  0  0  0  0  0  0  0  0
  1  2  1  0
  2  3  2  0
  3  4  1  0
  4  5  2  0
  5  6  1  0
  6  7  1  0
  7  8  1  0
  8  9  1  0
  9 10  1  0
  5 11  1  0
 11 12  2  0
 12 13  1  0
 13 14  1  0
 14 15  2  0
 15 16  1  0
 16 17  2  0
 17 18  1  0
 17 19  1  0
 19 20  2  0
 12 21  1  0
 21 22  2  0
 22  1  1  0
 21  3  1  0
 20 14  1  0
  1 23  1  0
  6 24  1  0
  7 25  1  0
  7 26  1  0
  8 27  1  0
  8 28  1  0
  9 29  1  0
  9 30  1  0
 10 31  1  0
 13 32  1  0
 15 33  1  0
 16 34  1  0
 18 35  1  0
 18 36  1  0
 18 37  1  0
 19 38  1  0
 20 39  1  0
M  END
>  <ScrubInfo>  (10) 
{"isomerGroup": 0, "isomerId": 9, "confId": 0, "nr_conformers:": 1, "nr_isomers:": 21}

$$$$
_i10
     RDKit          3D

 39 41  0  0  0  0  0  0  0  0999 V2000
    0.7399    0.6130    3.6690 N   0  0  0  0  0  0  0  0  0  0  0  0
    1.1164    0.8305    2.3478 N   0  0  0  0  0  0  0  0  0  0  0  0
    0.1253    0.4012    1.6278 C   0  0  0  0  0  0  0  0  0  0  0  0
   -0.0700    0.4280    0.1583 C   0  0  0  0  0  0  0  0  0  0  0  0
    0.9032    0.8324   -0.7231 N   0  0  0  0  0  0  0  0  0  0  0  0
    2.2509    0.4136   -0.7499 C   0  0  0  0  0  0  0  0  0  0  0  0
    3.1394    1.1093   -1.5835 C   0  0  0  0  0  0  0  0  0  0  0  0
    4.4912    0.7592   -1.6557 C   0  0  0  0  0  0  0  0  0  0  0  0
    4.9861   -0.3042   -0.8978 C   0  0  0  0  0  0  0  0  0  0  0  0
    6.4419   -0.6613   -0.9432 C   0  0  0  0  0  0  0  0  0  0  0  0
    4.1123   -0.9904   -0.0499 C   0  0  0  0  0  0  0  0  0  0  0  0
    2.7595   -0.6362    0.0205 C   0  0  0  0  0  0  0  0  0  0  0  0
   -1.2557    0.1040   -0.2709 N   0  0  0  0  0  0  0  0  0  0  0  0
   -2.2219   -0.2902    0.6309 C   0  0  0  0  0  0  0  0  0  0  0  0
   -3.4162   -0.5260    0.2172 N   0  0  0  0  0  0  0  0  0  0  0  0
   -3.6926   -0.3647   -1.2102 C   0  0  0  0  0  0  0  0  0  0  0  0
   -5.1431   -0.7699   -1.4884 C   0  0  0  0  0  0  0  0  0  0  0  0
   -6.1511    0.0981   -0.7396 C   0  0  0  0  0  0  0  0  0  0  0  0
   -6.1234   -0.1673    0.6573 O   0  0  0  0  0  0  0  0  0  0  0  0
   -2.0700   -0.4735    1.9841 N   0  0  0  0  0  0  0  0  0  0  0  0
   -0.9337   -0.1594    2.4810 C   0  0  0  0  0  0  0  0  0  0  0  0
   -0.4384   -0.1683    3.7582 N   0  0  0  0  0  0  0  0  0  0  0  0
    1.5122    0.3170    4.2745 H   0  0  0  0  0  0  0  0  0  0  0  0
    0.5483    0.9386   -1.6690 H   0  0  0  0  0  0  0  0  0  0  0  0
    2.7862    1.9489   -2.1781 H   0  0  0  0  0  0  0  0  0  0  0  0
    5.1539    1.3278   -2.3043 H   0  0  0  0  0  0  0  0  0  0  0  0
    6.9908   -0.0914   -0.1872 H   0  0  0  0  0  0  0  0  0  0  0  0
    6.8670   -0.4436   -1.9287 H   0  0  0  0  0  0  0  0  0  0  0  0
    6.5877   -1.7304   -0.7561 H   0  0  0  0  0  0  0  0  0  0  0  0
    4.4770   -1.8100    0.5658 H   0  0  0  0  0  0  0  0  0  0  0  0
    2.1211   -1.2154    0.6801 H   0  0  0  0  0  0  0  0  0  0  0  0
   -3.0357   -1.0081   -1.8080 H   0  0  0  0  0  0  0  0  0  0  0  0
   -3.5417    0.6769   -1.5187 H   0  0  0  0  0  0  0  0  0  0  0  0
   -5.3289   -0.6868   -2.5651 H   0  0  0  0  0  0  0  0  0  0  0  0
   -5.2833   -1.8193   -1.2018 H   0  0  0  0  0  0  0  0  0  0  0  0
   -7.1645   -0.1134   -1.0942 H   0  0  0  0  0  0  0  0  0  0  0  0
   -5.9522    1.1630   -0.8964 H   0  0  0  0  0  0  0  0  0  0  0  0
   -5.1789   -0.3107    0.8889 H   0  0  0  0  0  0  0  0  0  0  0  0
   -1.1092    0.1431    4.4585 H   0  0  0  0  0  0  0  0  0  0  0  0
  1  2  1  0
  2  3  2  0
  3  4  1  0
  4  5  1  0
  5  6  1  0
  6  7  2  0
  7  8  1  0
  8  9  2  0
  9 10  1  0
  9 11  1  0
 11 12  2  0
  4 13  2  0
 13 14  1  0
 14 15  2  3
 15 16  1  0
 16 17  1  0
 17 18  1  0
 18 19  1  0
 14 20  1  0
 20 21  2  0
 21 22  1  0
 22  1  1  0
 21  3  1  0
 12  6  1  0
  1 23  1  0
  5 24  1  0
  7 25  1  0
  8 26  1  0
 10 27  1  0
 10 28  1  0
 10 29  1  0
 11 30  1  0
 12 31  1  0
 16 32  1  0
 16 33  1  0
 17 34  1  0
 17 35  1  0
 18 36  1  0
 18 37  1  0
 19 38  1  0
 22 39  1  0
M  END
>  <ScrubInfo>  (11) 
{"isomerGroup": 0, "isomerId": 10, "confId": 0, "nr_conformers:": 1, "nr_isomers:": 21}

$$$$
_i11
     RDKit          3D

 39 41  0  0  0  0  0  0  0  0999 V2000
    1.8202    0.9391   -0.6166 N   0  0  0  0  0  0  0  0  0  0  0  0
    2.0379   -0.4309   -0.6954 C   0  0  0  0  0  0  0  0  0  0  0  0
    3.1570   -1.0499   -0.8565 N   0  0  0  0  0  0  0  0  0  0  0  0
    4.4002   -0.3025   -1.0132 C   0  0  0  0  0  0  0  0  0  0  0  0
    4.9910    0.0223    0.3530 C   0  0  0  0  0  0  0  0  0  0  0  0
    6.3382    0.7166    0.2234 C   0  0  0  0  0  0  0  0  0  0  0  0
    6.8075    1.0993    1.5087 O   0  0  0  0  0  0  0  0  0  0  0  0
    0.8828   -1.1805   -0.5738 N   0  0  0  0  0  0  0  0  0  0  0  0
   -0.4395   -0.8177   -0.3908 C   0  0  0  0  0  0  0  0  0  0  0  0
   -1.3874   -1.7024   -0.3048 N   0  0  0  0  0  0  0  0  0  0  0  0
   -2.7181   -1.3108   -0.1193 C   0  0  0  0  0  0  0  0  0  0  0  0
   -3.5527   -1.1047   -1.2194 C   0  0  0  0  0  0  0  0  0  0  0  0
   -4.8923   -0.7514   -1.0366 C   0  0  0  0  0  0  0  0  0  0  0  0
   -5.4159   -0.6041    0.2532 C   0  0  0  0  0  0  0  0  0  0  0  0
   -6.8601   -0.2522    0.4515 C   0  0  0  0  0  0  0  0  0  0  0  0
   -4.5872   -0.8470    1.3548 C   0  0  0  0  0  0  0  0  0  0  0  0
   -3.2481   -1.2002    1.1676 C   0  0  0  0  0  0  0  0  0  0  0  0
   -0.5605    0.6301   -0.3170 C   0  0  0  0  0  0  0  0  0  0  0  0
   -1.6394    1.4479   -0.1400 N   0  0  0  0  0  0  0  0  0  0  0  0
   -1.2044    2.7098   -0.1412 N   0  0  0  0  0  0  0  0  0  0  0  0
    0.1322    2.6851   -0.3157 N   0  0  0  0  0  0  0  0  0  0  0  0
    0.5673    1.4065   -0.4319 C   0  0  0  0  0  0  0  0  0  0  0  0
    2.6280    1.5454   -0.6685 H   0  0  0  0  0  0  0  0  0  0  0  0
    4.2647    0.6023   -1.6170 H   0  0  0  0  0  0  0  0  0  0  0  0
    5.1001   -0.9336   -1.5735 H   0  0  0  0  0  0  0  0  0  0  0  0
    4.3064    0.6565    0.9296 H   0  0  0  0  0  0  0  0  0  0  0  0
    5.1061   -0.8941    0.9457 H   0  0  0  0  0  0  0  0  0  0  0  0
    7.0830    0.0625   -0.2413 H   0  0  0  0  0  0  0  0  0  0  0  0
    6.2522    1.6235   -0.3832 H   0  0  0  0  0  0  0  0  0  0  0  0
    6.9215    0.2872    2.0331 H   0  0  0  0  0  0  0  0  0  0  0  0
    1.0312   -2.1783   -0.6304 H   0  0  0  0  0  0  0  0  0  0  0  0
   -3.1571   -1.2187   -2.2242 H   0  0  0  0  0  0  0  0  0  0  0  0
   -5.5221   -0.5909   -1.9082 H   0  0  0  0  0  0  0  0  0  0  0  0
   -7.0012    0.3088    1.3814 H   0  0  0  0  0  0  0  0  0  0  0  0
   -7.2243    0.3786   -0.3662 H   0  0  0  0  0  0  0  0  0  0  0  0
   -7.4651   -1.1631    0.4924 H   0  0  0  0  0  0  0  0  0  0  0  0
   -4.9766   -0.7617    2.3663 H   0  0  0  0  0  0  0  0  0  0  0  0
   -2.6144   -1.3886    2.0289 H   0  0  0  0  0  0  0  0  0  0  0  0
    0.6388    3.5614   -0.3407 H   0  0  0  0  0  0  0  0  0  0  0  0
  1  2  1  0
  2  3  2  3
  3  4  1  0
  4  5  1  0
  5  6  1  0
  6  7  1  0
  2  8  1  0
  8  9  1  0
  9 10  2  3
 10 11  1  0
 11 12  2  0
 12 13  1  0
 13 14  2  0
 14 15  1  0
 14 16  1  0
 16 17  2  0
  9 18  1  0
 18 19  1  0
 19 20  2  0
 20 21  1  0
 21 22  1  0
 22  1  1  0
 17 11  1  0
 22 18  2  0
  1 23  1  0
  4 24  1  0
  4 25  1  0
  5 26  1  0
  5 27  1  0
  6 28  1  0
  6 29  1  0
  7 30  1  0
  8 31  1  0
 12 32  1  0
 13 33  1  0
 15 34  1  0
 15 35  1  0
 15 36  1  0
 16 37  1  0
 17 38  1  0
 21 39  1  0
M  END
>  <ScrubInfo>  (12) 
{"isomerGroup": 0, "isomerId": 11, "confId": 0, "nr_conformers:": 1, "nr_isomers:": 21}

$$$$
_i12
     RDKit          3D

 39 41  0  0  0  0  0  0  0  0999 V2000
   -1.4211   -1.5070    1.2149 N   0  0  0  0  0  0  0  0  0  0  0  0
   -1.1071   -2.5113    2.0552 N   0  0  0  0  0  0  0  0  0  0  0  0
    0.1625   -2.8423    1.8267 N   0  0  0  0  0  0  0  0  0  0  0  0
    0.6342   -2.0300    0.8376 C   0  0  0  0  0  0  0  0  0  0  0  0
    1.9324   -2.0352    0.2821 N   0  0  0  0  0  0  0  0  0  0  0  0
    2.1059   -1.1155   -0.6315 C   0  0  0  0  0  0  0  0  0  0  0  0
    3.3251   -1.0108   -1.2425 N   0  0  0  0  0  0  0  0  0  0  0  0
    4.0461    0.2465   -1.4002 C   0  0  0  0  0  0  0  0  0  0  0  0
    4.3895    0.8942   -0.0561 C   0  0  0  0  0  0  0  0  0  0  0  0
    5.3929    0.0921    0.7621 C   0  0  0  0  0  0  0  0  0  0  0  0
    6.6242   -0.0135    0.0600 O   0  0  0  0  0  0  0  0  0  0  0  0
    1.1556   -0.2227   -1.0550 N   0  0  0  0  0  0  0  0  0  0  0  0
   -0.1341   -0.1984   -0.5879 C   0  0  0  0  0  0  0  0  0  0  0  0
   -0.9874    0.6450   -1.0951 N   0  0  0  0  0  0  0  0  0  0  0  0
   -2.3118    0.6957   -0.6552 C   0  0  0  0  0  0  0  0  0  0  0  0
   -3.2873   -0.1006   -1.2585 C   0  0  0  0  0  0  0  0  0  0  0  0
   -4.6075   -0.0671   -0.8035 C   0  0  0  0  0  0  0  0  0  0  0  0
   -4.9688    0.7702    0.2587 C   0  0  0  0  0  0  0  0  0  0  0  0
   -6.3944    0.8352    0.7230 C   0  0  0  0  0  0  0  0  0  0  0  0
   -3.9979    1.5991    0.8331 C   0  0  0  0  0  0  0  0  0  0  0  0
   -2.6786    1.5630    0.3757 C   0  0  0  0  0  0  0  0  0  0  0  0
   -0.3614   -1.1662    0.4387 C   0  0  0  0  0  0  0  0  0  0  0  0
   -2.3599   -1.1252    1.2427 H   0  0  0  0  0  0  0  0  0  0  0  0
    3.9420   -1.7454   -0.8947 H   0  0  0  0  0  0  0  0  0  0  0  0
    4.9574    0.0566   -1.9780 H   0  0  0  0  0  0  0  0  0  0  0  0
    3.4476    0.9444   -1.9964 H   0  0  0  0  0  0  0  0  0  0  0  0
    4.8167    1.8832   -0.2626 H   0  0  0  0  0  0  0  0  0  0  0  0
    3.4809    1.0496    0.5365 H   0  0  0  0  0  0  0  0  0  0  0  0
    5.5824    0.5784    1.7248 H   0  0  0  0  0  0  0  0  0  0  0  0
    5.0271   -0.9180    0.9677 H   0  0  0  0  0  0  0  0  0  0  0  0
    7.1038    0.8245    0.1822 H   0  0  0  0  0  0  0  0  0  0  0  0
    1.3367    0.3279   -1.8779 H   0  0  0  0  0  0  0  0  0  0  0  0
   -3.0175   -0.7504   -2.0872 H   0  0  0  0  0  0  0  0  0  0  0  0
   -5.3531   -0.6934   -1.2892 H   0  0  0  0  0  0  0  0  0  0  0  0
   -6.4467    1.0862    1.7877 H   0  0  0  0  0  0  0  0  0  0  0  0
   -6.8916   -0.1318    0.5928 H   0  0  0  0  0  0  0  0  0  0  0  0
   -6.9395    1.5937    0.1529 H   0  0  0  0  0  0  0  0  0  0  0  0
   -4.2643    2.2847    1.6351 H   0  0  0  0  0  0  0  0  0  0  0  0
   -1.9328    2.2144    0.8241 H   0  0  0  0  0  0  0  0  0  0  0  0
  1  2  1  0
  2  3  2  0
  3  4  1  0
  4  5  1  0
  5  6  2  0
  6  7  1  0
  7  8  1  0
  8  9  1  0
  9 10  1  0
 10 11  1  0
  6 12  1  0
 12 13  1  0
 13 14  2  3
 14 15  1  0
 15 16  2  0
 16 17  1  0
 17 18  2  0
 18 19  1  0
 18 20  1  0
 20 21  2  0
 13 22  1  0
 22  1  1  0
 22  4  2  0
 21 15  1  0
  1 23  1  0
  7 24  1  0
  8 25  1  0
  8 26  1  0
  9 27  1  0
  9 28  1  0
 10 29  1  0
 10 30  1  0
 11 31  1  0
 12 32  1  0
 16 33  1  0
 17 34  1  0
 19 35  1  0
 19 36  1  0
 19 37  1  0
 20 38  1  0
 21 39  1  0
M  END
>  <ScrubInfo>  (13) 
{"isomerGroup": 0, "isomerId": 12, "confId": 0, "nr_conformers:": 1, "nr_isomers:": 21}

$$$$
_i13
     RDKit          3D

 39 41  0  0  0  0  0  0  0  0999 V2000
   -1.1364    4.5302   -1.4236 N   0  0  0  0  0  0  0  0  0  0  0  0
   -2.1193    3.9457   -0.7098 N   0  0  0  0  0  0  0  0  0  0  0  0
   -1.5154    2.8177   -0.3513 C   0  0  0  0  0  0  0  0  0  0  0  0
   -2.1233    1.8260    0.4247 N   0  0  0  0  0  0  0  0  0  0  0  0
   -1.3305    0.8079    0.6148 C   0  0  0  0  0  0  0  0  0  0  0  0
   -1.7060   -0.2920    1.3397 N   0  0  0  0  0  0  0  0  0  0  0  0
   -3.0343   -0.4463    1.9162 C   0  0  0  0  0  0  0  0  0  0  0  0
   -3.9674   -1.2185    0.9903 C   0  0  0  0  0  0  0  0  0  0  0  0
   -4.4940   -0.3868   -0.1712 C   0  0  0  0  0  0  0  0  0  0  0  0
   -5.4379   -1.1622   -0.9058 O   0  0  0  0  0  0  0  0  0  0  0  0
   -0.0437    0.6998    0.1396 N   0  0  0  0  0  0  0  0  0  0  0  0
    0.6540    1.6254   -0.6065 C   0  0  0  0  0  0  0  0  0  0  0  0
    1.8679    1.6016   -1.0531 N   0  0  0  0  0  0  0  0  0  0  0  0
    2.6489    0.4757   -0.7703 C   0  0  0  0  0  0  0  0  0  0  0  0
    3.4278    0.4305    0.3873 C   0  0  0  0  0  0  0  0  0  0  0  0
    4.1900   -0.7021    0.6834 C   0  0  0  0  0  0  0  0  0  0  0  0
    4.1989   -1.7969   -0.1893 C   0  0  0  0  0  0  0  0  0  0  0  0
    4.9997   -3.0228    0.1378 C   0  0  0  0  0  0  0  0  0  0  0  0
    3.4210   -1.7471   -1.3523 C   0  0  0  0  0  0  0  0  0  0  0  0
    2.6599   -0.6126   -1.6444 C   0  0  0  0  0  0  0  0  0  0  0  0
   -0.2066    2.7607   -0.8611 C   0  0  0  0  0  0  0  0  0  0  0  0
    0.0397    3.8799   -1.5614 N   0  0  0  0  0  0  0  0  0  0  0  0
   -1.2779    5.4424   -1.8508 H   0  0  0  0  0  0  0  0  0  0  0  0
   -1.2344   -1.1673    1.1507 H   0  0  0  0  0  0  0  0  0  0  0  0
   -3.4676    0.5172    2.2080 H   0  0  0  0  0  0  0  0  0  0  0  0
   -2.9173   -1.0213    2.8421 H   0  0  0  0  0  0  0  0  0  0  0  0
   -3.4750   -2.1201    0.6045 H   0  0  0  0  0  0  0  0  0  0  0  0
   -4.8259   -1.5774    1.5727 H   0  0  0  0  0  0  0  0  0  0  0  0
   -3.6973   -0.0835   -0.8560 H   0  0  0  0  0  0  0  0  0  0  0  0
   -5.0062    0.5102    0.1898 H   0  0  0  0  0  0  0  0  0  0  0  0
   -4.9399   -1.8343   -1.4009 H   0  0  0  0  0  0  0  0  0  0  0  0
    0.5015   -0.0831    0.4630 H   0  0  0  0  0  0  0  0  0  0  0  0
    3.4450    1.2857    1.0582 H   0  0  0  0  0  0  0  0  0  0  0  0
    4.7876   -0.7172    1.5923 H   0  0  0  0  0  0  0  0  0  0  0  0
    5.8961   -2.7628    0.7106 H   0  0  0  0  0  0  0  0  0  0  0  0
    4.3936   -3.7192    0.7253 H   0  0  0  0  0  0  0  0  0  0  0  0
    5.3333   -3.5268   -0.7754 H   0  0  0  0  0  0  0  0  0  0  0  0
    3.4140   -2.5846   -2.0465 H   0  0  0  0  0  0  0  0  0  0  0  0
    2.0774   -0.5719   -2.5612 H   0  0  0  0  0  0  0  0  0  0  0  0
  1  2  1  0
  2  3  2  0
  3  4  1  0
  4  5  2  0
  5  6  1  0
  6  7  1  0
  7  8  1  0
  8  9  1  0
  9 10  1  0
  5 11  1  0
 11 12  1  0
 12 13  2  3
 13 14  1  0
 14 15  2  0
 15 16  1  0
 16 17  2  0
 17 18  1  0
 17 19  1  0
 19 20  2  0
 12 21  1  0
 21 22  2  0
 22  1  1  0
 21  3  1  0
 20 14  1  0
  1 23  1  0
  6 24  1  0
  7 25  1  0
  7 26  1  0
  8 27  1  0
  8 28  1  0
  9 29  1  0
  9 30  1  0
 10 31  1  0
 11 32  1  0
 15 33  1  0
 16 34  1  0
 18 35  1  0
 18 36  1  0
 18 37  1  0
 19 38  1  0
 20 39  1  0
M  END
>  <ScrubInfo>  (14) 
{"isomerGroup": 0, "isomerId": 13, "confId": 0, "nr_conformers:": 1, "nr_isomers:": 21}

$$$$
_i14
     RDKit          3D

 39 41  0  0  0  0  0  0  0  0999 V2000
    0.4829    1.9905    1.8948 N   0  0  0  0  0  0  0  0  0  0  0  0
    1.0843    1.1816    0.9409 N   0  0  0  0  0  0  0  0  0  0  0  0
    0.1236    0.7204    0.1992 C   0  0  0  0  0  0  0  0  0  0  0  0
    0.1595   -0.1312   -1.0253 C   0  0  0  0  0  0  0  0  0  0  0  0
    1.1894   -0.7234   -1.5539 N   0  0  0  0  0  0  0  0  0  0  0  0
    2.4529   -0.6156   -0.9639 C   0  0  0  0  0  0  0  0  0  0  0  0
    3.3406    0.3806   -1.3738 C   0  0  0  0  0  0  0  0  0  0  0  0
    4.6183    0.4655   -0.8140 C   0  0  0  0  0  0  0  0  0  0  0  0
    5.0339   -0.4647    0.1461 C   0  0  0  0  0  0  0  0  0  0  0  0
    6.3920   -0.3544    0.7728 C   0  0  0  0  0  0  0  0  0  0  0  0
    4.1454   -1.4683    0.5497 C   0  0  0  0  0  0  0  0  0  0  0  0
    2.8684   -1.5491   -0.0121 C   0  0  0  0  0  0  0  0  0  0  0  0
   -1.0903   -0.2321   -1.5677 N   0  0  0  0  0  0  0  0  0  0  0  0
   -2.2632    0.2694   -1.0764 C   0  0  0  0  0  0  0  0  0  0  0  0
   -3.3440    0.0253   -1.7359 N   0  0  0  0  0  0  0  0  0  0  0  0
   -4.6283    0.4901   -1.2223 C   0  0  0  0  0  0  0  0  0  0  0  0
   -5.4179   -0.6719   -0.6143 C   0  0  0  0  0  0  0  0  0  0  0  0
   -4.9250   -1.0978    0.7657 C   0  0  0  0  0  0  0  0  0  0  0  0
   -3.7571   -1.9036    0.6734 O   0  0  0  0  0  0  0  0  0  0  0  0
   -2.3054    1.0109    0.0880 N   0  0  0  0  0  0  0  0  0  0  0  0
   -1.1936    1.1974    0.7145 C   0  0  0  0  0  0  0  0  0  0  0  0
   -0.9259    1.8738    1.8780 N   0  0  0  0  0  0  0  0  0  0  0  0
    0.9198    1.9220    2.8194 H   0  0  0  0  0  0  0  0  0  0  0  0
    3.0339    1.0977   -2.1294 H   0  0  0  0  0  0  0  0  0  0  0  0
    5.2861    1.2606   -1.1361 H   0  0  0  0  0  0  0  0  0  0  0  0
    6.3437    0.2845    1.6599 H   0  0  0  0  0  0  0  0  0  0  0  0
    7.1140    0.0717    0.0682 H   0  0  0  0  0  0  0  0  0  0  0  0
    6.7682   -1.3401    1.0662 H   0  0  0  0  0  0  0  0  0  0  0  0
    4.4421   -2.1974    1.2997 H   0  0  0  0  0  0  0  0  0  0  0  0
    2.1942   -2.3436    0.2935 H   0  0  0  0  0  0  0  0  0  0  0  0
   -1.1886   -0.8102   -2.3899 H   0  0  0  0  0  0  0  0  0  0  0  0
   -5.1936    0.8756   -2.0795 H   0  0  0  0  0  0  0  0  0  0  0  0
   -4.5612    1.3281   -0.5196 H   0  0  0  0  0  0  0  0  0  0  0  0
   -6.4601   -0.3457   -0.5139 H   0  0  0  0  0  0  0  0  0  0  0  0
   -5.4012   -1.5288   -1.2983 H   0  0  0  0  0  0  0  0  0  0  0  0
   -5.6974   -1.6999    1.2557 H   0  0  0  0  0  0  0  0  0  0  0  0
   -4.7132   -0.2306    1.3992 H   0  0  0  0  0  0  0  0  0  0  0  0
   -3.4998   -2.1289    1.5828 H   0  0  0  0  0  0  0  0  0  0  0  0
   -1.4271    2.7557    1.9588 H   0  0  0  0  0  0  0  0  0  0  0  0
  1  2  1  0
  2  3  2  0
  3  4  1  0
  4  5  2  3
  5  6  1  0
  6  7  2  0
  7  8  1  0
  8  9  2  0
  9 10  1  0
  9 11  1  0
 11 12  2  0
  4 13  1  0
 13 14  1  0
 14 15  2  3
 15 16  1  0
 16 17  1  0
 17 18  1  0
 18 19  1  0
 14 20  1  0
 20 21  2  0
 21 22  1  0
 22  1  1  0
 21  3  1  0
 12  6  1  0
  1 23  1  0
  7 24  1  0
  8 25  1  0
 10 26  1  0
 10 27  1  0
 10 28  1  0
 11 29  1  0
 12 30  1  0
 13 31  1  0
 16 32  1  0
 16 33  1  0
 17 34  1  0
 17 35  1  0
 18 36  1  0
 18 37  1  0
 19 38  1  0
 22 39  1  0
M  END
>  <ScrubInfo>  (15) 
{"isomerGroup": 0, "isomerId": 14, "confId": 0, "nr_conformers:": 1, "nr_isomers:": 21}

$$$$
_i15
     RDKit          3D

 39 41  0  0  0  0  0  0  0  0999 V2000
   -0.9115   -2.2264    0.1420 N   0  0  0  0  0  0  0  0  0  0  0  0
   -0.1866   -3.3381   -0.1454 N   0  0  0  0  0  0  0  0  0  0  0  0
    1.0465   -3.0115   -0.1333 N   0  0  0  0  0  0  0  0  0  0  0  0
    1.2115   -1.6996    0.2639 C   0  0  0  0  0  0  0  0  0  0  0  0
    2.3423   -1.1086    0.4303 N   0  0  0  0  0  0  0  0  0  0  0  0
    2.2124    0.1846    0.8779 C   0  0  0  0  0  0  0  0  0  0  0  0
    3.2484    0.9390    1.0349 N   0  0  0  0  0  0  0  0  0  0  0  0
    4.5746    0.3756    0.7627 C   0  0  0  0  0  0  0  0  0  0  0  0
    4.9240    0.5623   -0.7124 C   0  0  0  0  0  0  0  0  0  0  0  0
    6.3291    0.0720   -1.0348 C   0  0  0  0  0  0  0  0  0  0  0  0
    6.4716   -1.3151   -0.7613 O   0  0  0  0  0  0  0  0  0  0  0  0
    0.9771    0.7113    1.1612 N   0  0  0  0  0  0  0  0  0  0  0  0
   -0.2286    0.0739    0.9387 C   0  0  0  0  0  0  0  0  0  0  0  0
   -1.4194    0.6947    1.2620 N   0  0  0  0  0  0  0  0  0  0  0  0
   -2.6504    0.6779    0.5773 C   0  0  0  0  0  0  0  0  0  0  0  0
   -2.7960    0.2584   -0.7489 C   0  0  0  0  0  0  0  0  0  0  0  0
   -4.0546    0.2200   -1.3600 C   0  0  0  0  0  0  0  0  0  0  0  0
   -5.1987    0.6046   -0.6560 C   0  0  0  0  0  0  0  0  0  0  0  0
   -6.5510    0.5310   -1.3004 C   0  0  0  0  0  0  0  0  0  0  0  0
   -5.0665    1.0054    0.6756 C   0  0  0  0  0  0  0  0  0  0  0  0
   -3.8065    1.0434    1.2812 C   0  0  0  0  0  0  0  0  0  0  0  0
   -0.1369   -1.1798    0.4672 C   0  0  0  0  0  0  0  0  0  0  0  0
   -1.8718   -2.2728    0.4641 H   0  0  0  0  0  0  0  0  0  0  0  0
    5.2980    0.9221    1.3794 H   0  0  0  0  0  0  0  0  0  0  0  0
    4.6537   -0.6734    1.0716 H   0  0  0  0  0  0  0  0  0  0  0  0
    4.2003    0.0164   -1.3293 H   0  0  0  0  0  0  0  0  0  0  0  0
    4.8389    1.6217   -0.9823 H   0  0  0  0  0  0  0  0  0  0  0  0
    7.0767    0.6135   -0.4469 H   0  0  0  0  0  0  0  0  0  0  0  0
    6.5522    0.2339   -2.0942 H   0  0  0  0  0  0  0  0  0  0  0  0
    5.7108   -1.7748   -1.1582 H   0  0  0  0  0  0  0  0  0  0  0  0
    0.9695    1.6847    1.4250 H   0  0  0  0  0  0  0  0  0  0  0  0
   -1.3214    1.4993    1.8720 H   0  0  0  0  0  0  0  0  0  0  0  0
   -1.9314   -0.0199   -1.3456 H   0  0  0  0  0  0  0  0  0  0  0  0
   -4.1307   -0.1080   -2.3947 H   0  0  0  0  0  0  0  0  0  0  0  0
   -6.9886   -0.4591   -1.1399 H   0  0  0  0  0  0  0  0  0  0  0  0
   -7.2241    1.2876   -0.8834 H   0  0  0  0  0  0  0  0  0  0  0  0
   -6.4811    0.7173   -2.3773 H   0  0  0  0  0  0  0  0  0  0  0  0
   -5.9433    1.2881    1.2541 H   0  0  0  0  0  0  0  0  0  0  0  0
   -3.7386    1.3487    2.3229 H   0  0  0  0  0  0  0  0  0  0  0  0
  1  2  1  0
  2  3  2  0
  3  4  1  0
  4  5  2  0
  5  6  1  0
  6  7  2  3
  7  8  1  0
  8  9  1  0
  9 10  1  0
 10 11  1  0
  6 12  1  0
 12 13  1  0
 13 14  1  0
 14 15  1  0
 15 16  2  0
 16 17  1  0
 17 18  2  0
 18 19  1  0
 18 20  1  0
 20 21  2  0
 13 22  2  0
 22  1  1  0
 22  4  1  0
 21 15  1  0
  1 23  1  0
  8 24  1  0
  8 25  1  0
  9 26  1  0
  9 27  1  0
 10 28  1  0
 10 29  1  0
 11 30  1  0
 12 31  1  0
 14 32  1  0
 16 33  1  0
 17 34  1  0
 19 35  1  0
 19 36  1  0
 19 37  1  0
 20 38  1  0
 21 39  1  0
M  END
>  <ScrubInfo>  (16) 
{"isomerGroup": 0, "isomerId": 15, "confId": 0, "nr_conformers:": 1, "nr_isomers:": 21}

$$$$
_i16
     RDKit          3D

 39 41  0  0  0  0  0  0  0  0999 V2000
   -1.8594    1.6831   -1.5753 N   0  0  0  0  0  0  0  0  0  0  0  0
   -0.6429    2.2837   -1.6628 C   0  0  0  0  0  0  0  0  0  0  0  0
   -0.2180    3.2691   -2.3905 N   0  0  0  0  0  0  0  0  0  0  0  0
    1.1668    3.4478   -2.0189 N   0  0  0  0  0  0  0  0  0  0  0  0
    1.5184    2.6153   -1.1286 N   0  0  0  0  0  0  0  0  0  0  0  0
    0.4589    1.8242   -0.8370 C   0  0  0  0  0  0  0  0  0  0  0  0
    0.2223    0.7962    0.0073 C   0  0  0  0  0  0  0  0  0  0  0  0
    1.1738    0.2875    0.8768 N   0  0  0  0  0  0  0  0  0  0  0  0
    2.4829   -0.1520    0.5844 C   0  0  0  0  0  0  0  0  0  0  0  0
    3.3422   -0.4308    1.6579 C   0  0  0  0  0  0  0  0  0  0  0  0
    4.6639   -0.8362    1.4448 C   0  0  0  0  0  0  0  0  0  0  0  0
    5.1601   -0.9720    0.1465 C   0  0  0  0  0  0  0  0  0  0  0  0
    6.5871   -1.3680   -0.0885 C   0  0  0  0  0  0  0  0  0  0  0  0
    4.3214   -0.6675   -0.9288 C   0  0  0  0  0  0  0  0  0  0  0  0
    2.9993   -0.2615   -0.7104 C   0  0  0  0  0  0  0  0  0  0  0  0
   -1.0777    0.2695    0.0489 N   0  0  0  0  0  0  0  0  0  0  0  0
   -2.1572    0.6461   -0.7326 C   0  0  0  0  0  0  0  0  0  0  0  0
   -3.3421    0.1467   -0.7474 N   0  0  0  0  0  0  0  0  0  0  0  0
   -3.6658   -0.9434    0.1625 C   0  0  0  0  0  0  0  0  0  0  0  0
   -5.1453   -1.3168    0.0306 C   0  0  0  0  0  0  0  0  0  0  0  0
   -6.0920   -0.3184    0.6931 C   0  0  0  0  0  0  0  0  0  0  0  0
   -6.2735    0.8336   -0.1150 O   0  0  0  0  0  0  0  0  0  0  0  0
   -2.6136    2.0153   -2.1593 H   0  0  0  0  0  0  0  0  0  0  0  0
    0.7895   -0.1805    1.6890 H   0  0  0  0  0  0  0  0  0  0  0  0
    2.9926   -0.3177    2.6812 H   0  0  0  0  0  0  0  0  0  0  0  0
    5.3038   -1.0352    2.3014 H   0  0  0  0  0  0  0  0  0  0  0  0
    7.2222   -0.4775   -0.1216 H   0  0  0  0  0  0  0  0  0  0  0  0
    6.6907   -1.9125   -1.0330 H   0  0  0  0  0  0  0  0  0  0  0  0
    6.9451   -2.0290    0.7078 H   0  0  0  0  0  0  0  0  0  0  0  0
    4.6894   -0.7393   -1.9502 H   0  0  0  0  0  0  0  0  0  0  0  0
    2.3847   -0.0500   -1.5802 H   0  0  0  0  0  0  0  0  0  0  0  0
   -1.1881   -0.5415    0.6374 H   0  0  0  0  0  0  0  0  0  0  0  0
   -3.4426   -0.6738    1.2017 H   0  0  0  0  0  0  0  0  0  0  0  0
   -3.0664   -1.8239   -0.0988 H   0  0  0  0  0  0  0  0  0  0  0  0
   -5.4052   -1.4346   -1.0281 H   0  0  0  0  0  0  0  0  0  0  0  0
   -5.2857   -2.2880    0.5203 H   0  0  0  0  0  0  0  0  0  0  0  0
   -7.0746   -0.7828    0.8263 H   0  0  0  0  0  0  0  0  0  0  0  0
   -5.7209   -0.0113    1.6762 H   0  0  0  0  0  0  0  0  0  0  0  0
   -6.8443    1.4463    0.3771 H   0  0  0  0  0  0  0  0  0  0  0  0
  1  2  1  0
  2  3  2  0
  3  4  1  0
  4  5  2  0
  5  6  1  0
  6  7  2  0
  7  8  1  0
  8  9  1  0
  9 10  2  0
 10 11  1  0
 11 12  2  0
 12 13  1  0
 12 14  1  0
 14 15  2  0
  7 16  1  0
 16 17  1  0
 17 18  2  3
 18 19  1  0
 19 20  1  0
 20 21  1  0
 21 22  1  0
 17  1  1  0
  6  2  1  0
 15  9  1  0
  1 23  1  0
  8 24  1  0
 10 25  1  0
 11 26  1  0
 13 27  1  0
 13 28  1  0
 13 29  1  0
 14 30  1  0
 15 31  1  0
 16 32  1  0
 19 33  1  0
 19 34  1  0
 20 35  1  0
 20 36  1  0
 21 37  1  0
 21 38  1  0
 22 39  1  0
M  END
>  <ScrubInfo>  (17) 
{"isomerGroup": 0, "isomerId": 16, "confId": 0, "nr_conformers:": 1, "nr_isomers:": 21}

$$$$
_i17
     RDKit          3D

 39 41  0  0  0  0  0  0  0  0999 V2000
   -0.4930   -1.8370   -1.1479 N   0  0  0  0  0  0  0  0  0  0  0  0
    0.2854   -2.9382   -1.0533 N   0  0  0  0  0  0  0  0  0  0  0  0
    1.4528   -2.5615   -0.5258 N   0  0  0  0  0  0  0  0  0  0  0  0
    1.3715   -1.2293   -0.2920 C   0  0  0  0  0  0  0  0  0  0  0  0
    2.2941   -0.4123    0.2146 N   0  0  0  0  0  0  0  0  0  0  0  0
    1.9824    0.9327    0.2650 C   0  0  0  0  0  0  0  0  0  0  0  0
    2.7707    1.8756    0.6567 N   0  0  0  0  0  0  0  0  0  0  0  0
    4.1013    1.5401    1.1564 C   0  0  0  0  0  0  0  0  0  0  0  0
    5.0738    1.2743    0.0043 C   0  0  0  0  0  0  0  0  0  0  0  0
    5.8761   -0.0009    0.2259 C   0  0  0  0  0  0  0  0  0  0  0  0
    4.9844   -1.1114    0.3044 O   0  0  0  0  0  0  0  0  0  0  0  0
    0.7419    1.4366   -0.1114 N   0  0  0  0  0  0  0  0  0  0  0  0
   -0.1816    0.6291   -0.5589 C   0  0  0  0  0  0  0  0  0  0  0  0
   -1.3909    1.1744   -0.9250 N   0  0  0  0  0  0  0  0  0  0  0  0
   -2.6482    0.6333   -0.5783 C   0  0  0  0  0  0  0  0  0  0  0  0
   -3.7536    0.9509   -1.3756 C   0  0  0  0  0  0  0  0  0  0  0  0
   -5.0267    0.4670   -1.0620 C   0  0  0  0  0  0  0  0  0  0  0  0
   -5.2202   -0.3361    0.0659 C   0  0  0  0  0  0  0  0  0  0  0  0
   -6.5918   -0.8261    0.4256 C   0  0  0  0  0  0  0  0  0  0  0  0
   -4.1278   -0.6156    0.8927 C   0  0  0  0  0  0  0  0  0  0  0  0
   -2.8552   -0.1302    0.5763 C   0  0  0  0  0  0  0  0  0  0  0  0
    0.1591   -0.7481   -0.6695 C   0  0  0  0  0  0  0  0  0  0  0  0
   -1.4264   -1.9166   -1.5368 H   0  0  0  0  0  0  0  0  0  0  0  0
    3.2536   -0.7173    0.3650 H   0  0  0  0  0  0  0  0  0  0  0  0
    4.0529    0.7168    1.8795 H   0  0  0  0  0  0  0  0  0  0  0  0
    4.4657    2.4007    1.7302 H   0  0  0  0  0  0  0  0  0  0  0  0
    5.7626    2.1211   -0.0954 H   0  0  0  0  0  0  0  0  0  0  0  0
    4.5331    1.1896   -0.9463 H   0  0  0  0  0  0  0  0  0  0  0  0
    6.5629   -0.1648   -0.6104 H   0  0  0  0  0  0  0  0  0  0  0  0
    6.4533    0.0515    1.1544 H   0  0  0  0  0  0  0  0  0  0  0  0
    5.5399   -1.9133    0.3319 H   0  0  0  0  0  0  0  0  0  0  0  0
   -1.3806    2.1771   -0.7455 H   0  0  0  0  0  0  0  0  0  0  0  0
   -3.6274    1.5725   -2.2597 H   0  0  0  0  0  0  0  0  0  0  0  0
   -5.8667    0.7258   -1.7032 H   0  0  0  0  0  0  0  0  0  0  0  0
   -7.0953   -0.0939    1.0643 H   0  0  0  0  0  0  0  0  0  0  0  0
   -6.5377   -1.7822    0.9568 H   0  0  0  0  0  0  0  0  0  0  0  0
   -7.1965   -0.9878   -0.4729 H   0  0  0  0  0  0  0  0  0  0  0  0
   -4.2612   -1.2040    1.7986 H   0  0  0  0  0  0  0  0  0  0  0  0
   -2.0369   -0.3422    1.2614 H   0  0  0  0  0  0  0  0  0  0  0  0
  1  2  1  0
  2  3  2  0
  3  4  1  0
  4  5  1  0
  5  6  1  0
  6  7  2  3
  7  8  1  0
  8  9  1  0
  9 10  1  0
 10 11  1  0
  6 12  1  0
 12 13  2  0
 13 14  1  0
 14 15  1  0
 15 16  2  0
 16 17  1  0
 17 18  2  0
 18 19  1  0
 18 20  1  0
 20 21  2  0
 13 22  1  0
 22  1  1  0
 22  4  2  0
 21 15  1  0
  1 23  1  0
  5 24  1  0
  8 25  1  0
  8 26  1  0
  9 27  1  0
  9 28  1  0
 10 29  1  0
 10 30  1  0
 11 31  1  0
 14 32  1  0
 16 33  1  0
 17 34  1  0
 19 35  1  0
 19 36  1  0
 19 37  1  0
 20 38  1  0
 21 39  1  0
M  END
>  <ScrubInfo>  (18) 
{"isomerGroup": 0, "isomerId": 17, "confId": 0, "nr_conformers:": 1, "nr_isomers:": 21}

$$$$
_i18
     RDKit          3D

 39 41  0  0  0  0  0  0  0  0999 V2000
   -0.4105    4.7742    0.9274 N   0  0  0  0  0  0  0  0  0  0  0  0
   -1.6546    4.2694    0.7773 N   0  0  0  0  0  0  0  0  0  0  0  0
   -1.3851    2.9890    0.5283 C   0  0  0  0  0  0  0  0  0  0  0  0
   -2.2077    1.9635    0.2890 N   0  0  0  0  0  0  0  0  0  0  0  0
   -1.6467    0.7249    0.0624 C   0  0  0  0  0  0  0  0  0  0  0  0
   -2.3066   -0.3544   -0.1777 N   0  0  0  0  0  0  0  0  0  0  0  0
   -3.7614   -0.3209   -0.2244 C   0  0  0  0  0  0  0  0  0  0  0  0
   -4.2614   -1.7394   -0.4787 C   0  0  0  0  0  0  0  0  0  0  0  0
   -5.7764   -1.7811   -0.6106 C   0  0  0  0  0  0  0  0  0  0  0  0
   -6.2192   -3.1190   -0.7975 O   0  0  0  0  0  0  0  0  0  0  0  0
   -0.2810    0.4984    0.0661 N   0  0  0  0  0  0  0  0  0  0  0  0
    0.5445    1.4694    0.2935 C   0  0  0  0  0  0  0  0  0  0  0  0
    1.9157    1.4796    0.3463 N   0  0  0  0  0  0  0  0  0  0  0  0
    2.8264    0.4278    0.1639 C   0  0  0  0  0  0  0  0  0  0  0  0
    4.1991    0.7050    0.2709 C   0  0  0  0  0  0  0  0  0  0  0  0
    5.1627   -0.2956    0.1009 C   0  0  0  0  0  0  0  0  0  0  0  0
    4.7763   -1.6044   -0.1923 C   0  0  0  0  0  0  0  0  0  0  0  0
    5.7999   -2.6895   -0.3422 C   0  0  0  0  0  0  0  0  0  0  0  0
    3.4136   -1.8957   -0.2861 C   0  0  0  0  0  0  0  0  0  0  0  0
    2.4536   -0.8898   -0.1149 C   0  0  0  0  0  0  0  0  0  0  0  0
   -0.0035    2.7856    0.5395 C   0  0  0  0  0  0  0  0  0  0  0  0
    0.6423    3.9341    0.7961 N   0  0  0  0  0  0  0  0  0  0  0  0
   -0.2700    5.7614    1.1338 H   0  0  0  0  0  0  0  0  0  0  0  0
   -3.2067    2.0792    0.2798 H   0  0  0  0  0  0  0  0  0  0  0  0
   -4.1723    0.0431    0.7248 H   0  0  0  0  0  0  0  0  0  0  0  0
   -4.1013    0.3374   -1.0327 H   0  0  0  0  0  0  0  0  0  0  0  0
   -3.8022   -2.1464   -1.3887 H   0  0  0  0  0  0  0  0  0  0  0  0
   -3.9420   -2.4061    0.3324 H   0  0  0  0  0  0  0  0  0  0  0  0
   -6.2584   -1.3916    0.2915 H   0  0  0  0  0  0  0  0  0  0  0  0
   -6.1153   -1.1847   -1.4639 H   0  0  0  0  0  0  0  0  0  0  0  0
   -5.7144   -3.4954   -1.5391 H   0  0  0  0  0  0  0  0  0  0  0  0
    2.3312    2.3859    0.5424 H   0  0  0  0  0  0  0  0  0  0  0  0
    4.5391    1.7137    0.4932 H   0  0  0  0  0  0  0  0  0  0  0  0
    6.2157   -0.0422    0.1991 H   0  0  0  0  0  0  0  0  0  0  0  0
    6.7369   -2.2898   -0.7439 H   0  0  0  0  0  0  0  0  0  0  0  0
    6.0002   -3.1519    0.6292 H   0  0  0  0  0  0  0  0  0  0  0  0
    5.4522   -3.4612   -1.0370 H   0  0  0  0  0  0  0  0  0  0  0  0
    3.0794   -2.9099   -0.4944 H   0  0  0  0  0  0  0  0  0  0  0  0
    1.4082   -1.1725   -0.2036 H   0  0  0  0  0  0  0  0  0  0  0  0
  1  2  1  0
  2  3  2  0
  3  4  1  0
  4  5  1  0
  5  6  2  3
  6  7  1  0
  7  8  1  0
  8  9  1  0
  9 10  1  0
  5 11  1  0
 11 12  2  0
 12 13  1  0
 13 14  1  0
 14 15  2  0
 15 16  1  0
 16 17  2  0
 17 18  1  0
 17 19  1  0
 19 20  2  0
 12 21  1  0
 21 22  2  0
 22  1  1  0
 21  3  1  0
 20 14  1  0
  1 23  1  0
  4 24  1  0
  7 25  1  0
  7 26  1  0
  8 27  1  0
  8 28  1  0
  9 29  1  0
  9 30  1  0
 10 31  1  0
 13 32  1  0
 15 33  1  0
 16 34  1  0
 18 35  1  0
 18 36  1  0
 18 37  1  0
 19 38  1  0
 20 39  1  0
M  END
>  <ScrubInfo>  (19) 
{"isomerGroup": 0, "isomerId": 18, "confId": 0, "nr_conformers:": 1, "nr_isomers:": 21}

$$$$
_i19
     RDKit          3D

 39 41  0  0  0  0  0  0  0  0999 V2000
   -0.8478    4.6931    2.1657 N   0  0  0  0  0  0  0  0  0  0  0  0
   -1.9739    3.9961    1.9056 N   0  0  0  0  0  0  0  0  0  0  0  0
   -1.4633    2.8754    1.3971 C   0  0  0  0  0  0  0  0  0  0  0  0
   -2.0933    1.7812    0.9494 N   0  0  0  0  0  0  0  0  0  0  0  0
   -1.3064    0.8111    0.3927 C   0  0  0  0  0  0  0  0  0  0  0  0
   -1.9839   -0.2570   -0.1281 N   0  0  0  0  0  0  0  0  0  0  0  0
   -3.0299   -0.9568    0.6068 C   0  0  0  0  0  0  0  0  0  0  0  0
   -3.5799   -2.1171   -0.2147 C   0  0  0  0  0  0  0  0  0  0  0  0
   -4.3109   -1.6531   -1.4669 C   0  0  0  0  0  0  0  0  0  0  0  0
   -4.8667   -2.7907   -2.1144 O   0  0  0  0  0  0  0  0  0  0  0  0
   -0.0083    0.7990    0.2967 N   0  0  0  0  0  0  0  0  0  0  0  0
    0.7184    1.8630    0.8050 C   0  0  0  0  0  0  0  0  0  0  0  0
    2.0133    1.9188    0.8019 N   0  0  0  0  0  0  0  0  0  0  0  0
    2.7250    0.8422    0.2573 C   0  0  0  0  0  0  0  0  0  0  0  0
    3.0500    0.8211   -1.1006 C   0  0  0  0  0  0  0  0  0  0  0  0
    3.7837   -0.2397   -1.6390 C   0  0  0  0  0  0  0  0  0  0  0  0
    4.2231   -1.2850   -0.8179 C   0  0  0  0  0  0  0  0  0  0  0  0
    4.9835   -2.4397   -1.3988 C   0  0  0  0  0  0  0  0  0  0  0  0
    3.8999   -1.2613    0.5440 C   0  0  0  0  0  0  0  0  0  0  0  0
    3.1657   -0.1984    1.0775 C   0  0  0  0  0  0  0  0  0  0  0  0
   -0.0624    2.9532    1.3555 C   0  0  0  0  0  0  0  0  0  0  0  0
    0.3367    4.1324    1.8615 N   0  0  0  0  0  0  0  0  0  0  0  0
   -0.8914    5.6218    2.5799 H   0  0  0  0  0  0  0  0  0  0  0  0
   -3.0873    1.7855    0.7861 H   0  0  0  0  0  0  0  0  0  0  0  0
   -1.2928   -0.9116   -0.4976 H   0  0  0  0  0  0  0  0  0  0  0  0
   -3.8465   -0.2745    0.8669 H   0  0  0  0  0  0  0  0  0  0  0  0
   -2.6111   -1.3457    1.5421 H   0  0  0  0  0  0  0  0  0  0  0  0
   -4.2697   -2.7033    0.4054 H   0  0  0  0  0  0  0  0  0  0  0  0
   -2.7744   -2.8067   -0.4974 H   0  0  0  0  0  0  0  0  0  0  0  0
   -5.1256   -0.9670   -1.2148 H   0  0  0  0  0  0  0  0  0  0  0  0
   -3.6290   -1.1571   -2.1646 H   0  0  0  0  0  0  0  0  0  0  0  0
   -5.2832   -2.4775   -2.9362 H   0  0  0  0  0  0  0  0  0  0  0  0
    2.7257    1.6359   -1.7412 H   0  0  0  0  0  0  0  0  0  0  0  0
    4.0135   -0.2392   -2.7016 H   0  0  0  0  0  0  0  0  0  0  0  0
    4.2881   -3.2185   -1.7266 H   0  0  0  0  0  0  0  0  0  0  0  0
    5.6706   -2.8662   -0.6604 H   0  0  0  0  0  0  0  0  0  0  0  0
    5.5860   -2.1195   -2.2554 H   0  0  0  0  0  0  0  0  0  0  0  0
    4.2218   -2.0653    1.2012 H   0  0  0  0  0  0  0  0  0  0  0  0
    2.9329   -0.1788    2.1381 H   0  0  0  0  0  0  0  0  0  0  0  0
  1  2  1  0
  2  3  2  0
  3  4  1  0
  4  5  1  0
  5  6  1  0
  6  7  1  0
  7  8  1  0
  8  9  1  0
  9 10  1  0
  5 11  2  0
 11 12  1  0
 12 13  2  3
 13 14  1  0
 14 15  2  0
 15 16  1  0
 16 17  2  0
 17 18  1  0
 17 19  1  0
 19 20  2  0
 12 21  1  0
 21 22  2  0
 22  1  1  0
 21  3  1  0
 20 14  1  0
  1 23  1  0
  4 24  1  0
  6 25  1  0
  7 26  1  0
  7 27  1  0
  8 28  1  0
  8 29  1  0
  9 30  1  0
  9 31  1  0
 10 32  1  0
 15 33  1  0
 16 34  1  0
 18 35  1  0
 18 36  1  0
 18 37  1  0
 19 38  1  0
 20 39  1  0
M  END
>  <ScrubInfo>  (20) 
{"isomerGroup": 0, "isomerId": 19, "confId": 0, "nr_conformers:": 1, "nr_isomers:": 21}

$$$$
_i20
     RDKit          3D

 39 41  0  0  0  0  0  0  0  0999 V2000
    1.4912   -2.0051   -0.3886 N   0  0  0  0  0  0  0  0  0  0  0  0
    1.3004   -3.3390   -0.4985 N   0  0  0  0  0  0  0  0  0  0  0  0
    0.0544   -3.6000   -0.1055 N   0  0  0  0  0  0  0  0  0  0  0  0
   -0.5009   -2.4183    0.2492 C   0  0  0  0  0  0  0  0  0  0  0  0
   -1.7366   -2.1987    0.7038 N   0  0  0  0  0  0  0  0  0  0  0  0
   -2.0670   -0.8793    0.8898 C   0  0  0  0  0  0  0  0  0  0  0  0
   -3.3783   -0.7550    1.2823 N   0  0  0  0  0  0  0  0  0  0  0  0
   -3.9427    0.5380    1.6647 C   0  0  0  0  0  0  0  0  0  0  0  0
   -4.1824    1.4569    0.4678 C   0  0  0  0  0  0  0  0  0  0  0  0
   -5.0690    0.8547   -0.6134 C   0  0  0  0  0  0  0  0  0  0  0  0
   -6.3328    0.4745   -0.0839 O   0  0  0  0  0  0  0  0  0  0  0  0
   -1.2840    0.1479    0.7310 N   0  0  0  0  0  0  0  0  0  0  0  0
    0.0257   -0.0309    0.3335 C   0  0  0  0  0  0  0  0  0  0  0  0
    0.7617    1.0297    0.2408 N   0  0  0  0  0  0  0  0  0  0  0  0
    2.0973    0.9528   -0.1542 C   0  0  0  0  0  0  0  0  0  0  0  0
    2.4418    1.0928   -1.5002 C   0  0  0  0  0  0  0  0  0  0  0  0
    3.7751    0.9886   -1.9033 C   0  0  0  0  0  0  0  0  0  0  0  0
    4.7824    0.7491   -0.9610 C   0  0  0  0  0  0  0  0  0  0  0  0
    6.2195    0.6783   -1.3872 C   0  0  0  0  0  0  0  0  0  0  0  0
    4.4396    0.6535    0.3930 C   0  0  0  0  0  0  0  0  0  0  0  0
    3.1052    0.7585    0.7925 C   0  0  0  0  0  0  0  0  0  0  0  0
    0.3715   -1.3868    0.0720 C   0  0  0  0  0  0  0  0  0  0  0  0
    2.3902   -1.6161   -0.6524 H   0  0  0  0  0  0  0  0  0  0  0  0
   -2.4561   -2.9020    0.6379 H   0  0  0  0  0  0  0  0  0  0  0  0
   -3.6560   -1.4848    1.9298 H   0  0  0  0  0  0  0  0  0  0  0  0
   -4.8944    0.3560    2.1773 H   0  0  0  0  0  0  0  0  0  0  0  0
   -3.2906    1.0316    2.3951 H   0  0  0  0  0  0  0  0  0  0  0  0
   -4.6597    2.3700    0.8452 H   0  0  0  0  0  0  0  0  0  0  0  0
   -3.2323    1.7612    0.0162 H   0  0  0  0  0  0  0  0  0  0  0  0
   -5.2486    1.5987   -1.3960 H   0  0  0  0  0  0  0  0  0  0  0  0
   -4.6034   -0.0155   -1.0881 H   0  0  0  0  0  0  0  0  0  0  0  0
   -6.2317   -0.4298    0.2593 H   0  0  0  0  0  0  0  0  0  0  0  0
    1.6663    1.2893   -2.2365 H   0  0  0  0  0  0  0  0  0  0  0  0
    4.0227    1.1074   -2.9562 H   0  0  0  0  0  0  0  0  0  0  0  0
    6.7919    0.0236   -0.7216 H   0  0  0  0  0  0  0  0  0  0  0  0
    6.6647    1.6778   -1.3700 H   0  0  0  0  0  0  0  0  0  0  0  0
    6.3065    0.2685   -2.3990 H   0  0  0  0  0  0  0  0  0  0  0  0
    5.2102    0.5084    1.1474 H   0  0  0  0  0  0  0  0  0  0  0  0
    2.8484    0.6936    1.8470 H   0  0  0  0  0  0  0  0  0  0  0  0
  1  2  1  0
  2  3  2  0
  3  4  1  0
  4  5  1  0
  5  6  1  0
  6  7  1  0
  7  8  1  0
  8  9  1  0
  9 10  1  0
 10 11  1  0
  6 12  2  0
 12 13  1  0
 13 14  2  3
 14 15  1  0
 15 16  2  0
 16 17  1  0
 17 18  2  0
 18 19  1  0
 18 20  1  0
 20 21  2  0
 13 22  1  0
 22  1  1  0
 22  4  2  0
 21 15  1  0
  1 23  1  0
  5 24  1  0
  7 25  1  0
  8 26  1  0
  8 27  1  0
  9 28  1  0
  9 29  1  0
 10 30  1  0
 10 31  1  0
 11 32  1  0
 16 33  1  0
 17 34  1  0
 19 35  1  0
 19 36  1  0
 19 37  1  0
 20 38  1  0
 21 39  1  0
M  END
>  <ScrubInfo>  (21) 
{"isomerGroup": 0, "isomerId": 20, "confId": 0, "nr_conformers:": 1, "nr_isomers:": 21}

$$$$
