REMARK SMILES COCCNc1nc(Nc2ccc(Br)c(C)c2C)c2cnn(C)c2n1
REMARK SMILES IDX 5 1 4 3 3 4 2 5 1 6 6 7 7 8 25 9 8 10 24 11 19 12 22 13
REMARK SMILES IDX 20 14 21 15 23 16 9 17 10 19 11 20 17 21 12 22 15 23 13 24
REMARK SMILES IDX 18 25 16 26 14 27
REMARK H PARENT 5 2 9 18
ROOT
ATOM      1  N   UNL     1       3.425  -0.716  -1.072  1.00  0.00    -0.352 N 
ATOM      2  H   UNL     1       3.198  -1.602  -0.625  1.00  0.00     0.163 HD
ENDROOT
BRANCH   1   3
ATOM      3  C   UNL     1       4.583  -0.059  -0.477  1.00  0.00     0.144 C 
BRANCH   3   4
ATOM      4  C   UNL     1       4.495  -0.023   1.057  1.00  0.00     0.181 C 
BRANCH   4   5
ATOM      5  O   UNL     1       4.301  -1.327   1.620  1.00  0.00    -0.383 OA
ATOM      6  C   UNL     1       5.493  -2.099   1.677  1.00  0.00     0.194 C 
ENDBRANCH   4   5
ENDBRANCH   3   4
ENDBRANCH   1   3
BRANCH   1   7
ATOM      7  C   UNL     1       2.242   0.014  -1.055  1.00  0.00     0.226 A 
ATOM      8  N   UNL     1       1.132  -0.725  -0.871  1.00  0.00    -0.195 NA
ATOM      9  N   UNL     1       2.280   1.345  -1.209  1.00  0.00    -0.193 NA
ATOM     10  C   UNL     1      -0.085  -0.127  -0.825  1.00  0.00     0.147 A 
ATOM     11  C   UNL     1       1.063   1.907  -1.187  1.00  0.00     0.165 A 
ATOM     12  C   UNL     1      -0.140   1.256  -1.005  1.00  0.00     0.082 A 
ATOM     13  N   UNL     1       0.752   3.231  -1.345  1.00  0.00    -0.250 N 
ATOM     14  C   UNL     1      -1.110   2.276  -1.079  1.00  0.00     0.149 A 
ATOM     15  N   UNL     1      -0.575   3.488  -1.273  1.00  0.00    -0.179 NA
ATOM     16  C   UNL     1       1.672   4.315  -1.577  1.00  0.00     0.176 C 
BRANCH  10  17
ATOM     17  N   UNL     1      -1.200  -0.961  -0.640  1.00  0.00    -0.339 N 
ATOM     18  H   UNL     1      -0.830  -1.898  -0.486  1.00  0.00     0.168 HD
BRANCH  17  19
ATOM     19  C   UNL     1      -2.310  -0.725   0.207  1.00  0.00     0.043 A 
ATOM     20  C   UNL     1      -2.151  -0.023   1.409  1.00  0.00     0.027 A 
ATOM     21  C   UNL     1      -3.565  -1.311  -0.092  1.00  0.00    -0.023 A 
ATOM     22  C   UNL     1      -3.221   0.153   2.281  1.00  0.00     0.018 A 
ATOM     23  C   UNL     1      -4.674  -1.098   0.775  1.00  0.00    -0.032 A 
ATOM     24  C   UNL     1      -4.472  -0.379   1.969  1.00  0.00     0.021 A 
ATOM     25  C   UNL     1      -3.739  -2.115  -1.361  1.00  0.00     0.047 C 
ATOM     26  C   UNL     1      -6.034  -1.672   0.457  1.00  0.00     0.046 C 
ATOM     27  Br  UNL     1      -5.856  -0.103   3.245  1.00  0.00    -0.051 Br
ENDBRANCH  17  19
ENDBRANCH  10  17
ENDBRANCH   1   7
TORSDOF 6
