_i0
     RDKit          3D

 46 48  0  0  0  0  0  0  0  0999 V2000
    5.4928   -2.0989    1.6770 C   0  0  0  0  0  0  0  0  0  0  0  0
    4.3006   -1.3274    1.6202 O   0  0  0  0  0  0  0  0  0  0  0  0
    4.4948   -0.0232    1.0572 C   0  0  0  0  0  0  0  0  0  0  0  0
    4.5831   -0.0585   -0.4771 C   0  0  0  0  0  0  0  0  0  0  0  0
    3.4245   -0.7159   -1.0723 N   0  0  0  0  0  0  0  0  0  0  0  0
    2.2418    0.0138   -1.0546 C   0  0  0  0  0  0  0  0  0  0  0  0
    1.1316   -0.7249   -0.8713 N   0  0  0  0  0  0  0  0  0  0  0  0
   -0.0845   -0.1272   -0.8249 C   0  0  0  0  0  0  0  0  0  0  0  0
   -1.2003   -0.9607   -0.6402 N   0  0  0  0  0  0  0  0  0  0  0  0
   -2.3100   -0.7253    0.2070 C   0  0  0  0  0  0  0  0  0  0  0  0
   -2.1511   -0.0230    1.4093 C   0  0  0  0  0  0  0  0  0  0  0  0
   -3.2212    0.1528    2.2813 C   0  0  0  0  0  0  0  0  0  0  0  0
   -4.4716   -0.3785    1.9692 C   0  0  0  0  0  0  0  0  0  0  0  0
   -5.8565   -0.1030    3.2454 Br  0  0  0  0  0  0  0  0  0  0  0  0
   -4.6740   -1.0984    0.7751 C   0  0  0  0  0  0  0  0  0  0  0  0
   -6.0341   -1.6721    0.4568 C   0  0  0  0  0  0  0  0  0  0  0  0
   -3.5653   -1.3108   -0.0923 C   0  0  0  0  0  0  0  0  0  0  0  0
   -3.7391   -2.1153   -1.3612 C   0  0  0  0  0  0  0  0  0  0  0  0
   -0.1400    1.2555   -1.0051 C   0  0  0  0  0  0  0  0  0  0  0  0
   -1.1096    2.2762   -1.0785 C   0  0  0  0  0  0  0  0  0  0  0  0
   -0.5745    3.4879   -1.2732 N   0  0  0  0  0  0  0  0  0  0  0  0
    0.7524    3.2305   -1.3448 N   0  0  0  0  0  0  0  0  0  0  0  0
    1.6723    4.3151   -1.5765 C   0  0  0  0  0  0  0  0  0  0  0  0
    1.0627    1.9075   -1.1870 C   0  0  0  0  0  0  0  0  0  0  0  0
    2.2803    1.3455   -1.2087 N   0  0  0  0  0  0  0  0  0  0  0  0
    5.2647   -3.0416    2.1820 H   0  0  0  0  0  0  0  0  0  0  0  0
    6.2638   -1.5763    2.2511 H   0  0  0  0  0  0  0  0  0  0  0  0
    5.8587   -2.3290    0.6732 H   0  0  0  0  0  0  0  0  0  0  0  0
    5.3897    0.4429    1.4857 H   0  0  0  0  0  0  0  0  0  0  0  0
    3.6372    0.5832    1.3676 H   0  0  0  0  0  0  0  0  0  0  0  0
    5.4649   -0.6360   -0.7744 H   0  0  0  0  0  0  0  0  0  0  0  0
    4.7343    0.9511   -0.8771 H   0  0  0  0  0  0  0  0  0  0  0  0
    3.1977   -1.6019   -0.6250 H   0  0  0  0  0  0  0  0  0  0  0  0
   -0.8300   -1.8976   -0.4865 H   0  0  0  0  0  0  0  0  0  0  0  0
   -1.1822    0.3819    1.6922 H   0  0  0  0  0  0  0  0  0  0  0  0
   -3.0646    0.6996    3.2079 H   0  0  0  0  0  0  0  0  0  0  0  0
   -6.8255   -0.9423    0.6551 H   0  0  0  0  0  0  0  0  0  0  0  0
   -6.2088   -2.5728    1.0537 H   0  0  0  0  0  0  0  0  0  0  0  0
   -6.1471   -1.9339   -0.5983 H   0  0  0  0  0  0  0  0  0  0  0  0
   -4.2394   -3.0652   -1.1448 H   0  0  0  0  0  0  0  0  0  0  0  0
   -2.7904   -2.3780   -1.8373 H   0  0  0  0  0  0  0  0  0  0  0  0
   -4.3280   -1.5446   -2.0864 H   0  0  0  0  0  0  0  0  0  0  0  0
   -2.1853    2.1845   -0.9956 H   0  0  0  0  0  0  0  0  0  0  0  0
    2.6985    3.9408   -1.5857 H   0  0  0  0  0  0  0  0  0  0  0  0
    1.4339    4.7675   -2.5424 H   0  0  0  0  0  0  0  0  0  0  0  0
    1.5527    5.0456   -0.7723 H   0  0  0  0  0  0  0  0  0  0  0  0
  1  2  1  0
  2  3  1  0
  3  4  1  0
  4  5  1  0
  5  6  1  0
  6  7  2  0
  7  8  1  0
  8  9  1  0
  9 10  1  0
 10 11  2  0
 11 12  1  0
 12 13  2  0
 13 14  1  0
 13 15  1  0
 15 16  1  0
 15 17  2  0
 17 18  1  0
  8 19  2  0
 19 20  1  0
 20 21  2  0
 21 22  1  0
 22 23  1  0
 22 24  1  0
 24 25  2  0
 25  6  1  0
 17 10  1  0
 24 19  1  0
  1 26  1  0
  1 27  1  0
  1 28  1  0
  3 29  1  0
  3 30  1  0
  4 31  1  0
  4 32  1  0
  5 33  1  0
  9 34  1  0
 11 35  1  0
 12 36  1  0
 16 37  1  0
 16 38  1  0
 16 39  1  0
 18 40  1  0
 18 41  1  0
 18 42  1  0
 20 43  1  0
 23 44  1  0
 23 45  1  0
 23 46  1  0
M  END
>  <ScrubInfo>  (1) 
{"isomerGroup": 0, "isomerId": 0, "confId": 0, "nr_conformers:": 1, "nr_isomers:": 9}

$$$$
_i1
     RDKit          3D

 46 48  0  0  0  0  0  0  0  0999 V2000
   -0.4842    0.5245   -1.6903 N   0  0  0  0  0  0  0  0  0  0  0  0
    0.5993   -0.2034   -1.2363 C   0  0  0  0  0  0  0  0  0  0  0  0
    1.8710    0.0843   -1.7156 N   0  0  0  0  0  0  0  0  0  0  0  0
    3.0672   -0.1099   -0.9813 C   0  0  0  0  0  0  0  0  0  0  0  0
    4.0402   -0.9253   -1.5717 C   0  0  0  0  0  0  0  0  0  0  0  0
    5.2579   -1.1517   -0.9404 C   0  0  0  0  0  0  0  0  0  0  0  0
    5.5206   -0.5656    0.2975 C   0  0  0  0  0  0  0  0  0  0  0  0
    7.2251   -0.9301    1.0617 Br  0  0  0  0  0  0  0  0  0  0  0  0
    4.5700    0.2691    0.9199 C   0  0  0  0  0  0  0  0  0  0  0  0
    4.8619    0.8963    2.2627 C   0  0  0  0  0  0  0  0  0  0  0  0
    3.3549    0.5560    0.2346 C   0  0  0  0  0  0  0  0  0  0  0  0
    2.3711    1.5435    0.8192 C   0  0  0  0  0  0  0  0  0  0  0  0
    0.3023   -1.1747   -0.3602 C   0  0  0  0  0  0  0  0  0  0  0  0
    0.9893   -2.2382    0.3854 C   0  0  0  0  0  0  0  0  0  0  0  0
    0.1834   -2.9428    1.1410 N   0  0  0  0  0  0  0  0  0  0  0  0
   -1.0832   -2.3632    0.9787 N   0  0  0  0  0  0  0  0  0  0  0  0
   -2.2462   -3.0900    1.4281 C   0  0  0  0  0  0  0  0  0  0  0  0
   -1.1130   -1.3380    0.0483 C   0  0  0  0  0  0  0  0  0  0  0  0
   -2.1115   -0.6574   -0.4029 N   0  0  0  0  0  0  0  0  0  0  0  0
   -1.7883    0.2991   -1.3339 C   0  0  0  0  0  0  0  0  0  0  0  0
   -2.7084    1.0135   -1.8924 N   0  0  0  0  0  0  0  0  0  0  0  0
   -4.1048    0.7539   -1.5221 C   0  0  0  0  0  0  0  0  0  0  0  0
   -4.5016    1.5572   -0.2807 C   0  0  0  0  0  0  0  0  0  0  0  0
   -5.8668    1.3441    0.0912 O   0  0  0  0  0  0  0  0  0  0  0  0
   -6.7818    2.0894   -0.6999 C   0  0  0  0  0  0  0  0  0  0  0  0
   -0.3495    1.1870   -2.4376 H   0  0  0  0  0  0  0  0  0  0  0  0
    1.9003    0.9894   -2.1795 H   0  0  0  0  0  0  0  0  0  0  0  0
    3.8417   -1.3993   -2.5308 H   0  0  0  0  0  0  0  0  0  0  0  0
    5.9942   -1.7909   -1.4215 H   0  0  0  0  0  0  0  0  0  0  0  0
    3.9450    1.1142    2.8187 H   0  0  0  0  0  0  0  0  0  0  0  0
    5.4261    0.2211    2.9128 H   0  0  0  0  0  0  0  0  0  0  0  0
    5.4250    1.8248    2.1283 H   0  0  0  0  0  0  0  0  0  0  0  0
    1.7332    1.0488    1.5576 H   0  0  0  0  0  0  0  0  0  0  0  0
    2.8899    2.3836    1.2925 H   0  0  0  0  0  0  0  0  0  0  0  0
    1.7403    1.9996    0.0506 H   0  0  0  0  0  0  0  0  0  0  0  0
    2.0660   -2.4133    0.2784 H   0  0  0  0  0  0  0  0  0  0  0  0
   -2.5623   -3.8108    0.6677 H   0  0  0  0  0  0  0  0  0  0  0  0
   -2.0296   -3.6344    2.3530 H   0  0  0  0  0  0  0  0  0  0  0  0
   -3.0786   -2.4082    1.6299 H   0  0  0  0  0  0  0  0  0  0  0  0
   -4.7277    1.0541   -2.3717 H   0  0  0  0  0  0  0  0  0  0  0  0
   -4.3240   -0.3124   -1.3847 H   0  0  0  0  0  0  0  0  0  0  0  0
   -4.3088    2.6278   -0.4218 H   0  0  0  0  0  0  0  0  0  0  0  0
   -3.8922    1.2404    0.5724 H   0  0  0  0  0  0  0  0  0  0  0  0
   -7.7879    1.9222   -0.3053 H   0  0  0  0  0  0  0  0  0  0  0  0
   -6.5614    3.1595   -0.6411 H   0  0  0  0  0  0  0  0  0  0  0  0
   -6.7641    1.7560   -1.7406 H   0  0  0  0  0  0  0  0  0  0  0  0
  1  2  1  0
  2  3  1  0
  3  4  1  0
  4  5  2  0
  5  6  1  0
  6  7  2  0
  7  8  1  0
  7  9  1  0
  9 10  1  0
  9 11  2  0
 11 12  1  0
  2 13  2  0
 13 14  1  0
 14 15  2  0
 15 16  1  0
 16 17  1  0
 16 18  1  0
 18 19  2  0
 19 20  1  0
 20 21  2  3
 21 22  1  0
 22 23  1  0
 23 24  1  0
 24 25  1  0
 20  1  1  0
 11  4  1  0
 18 13  1  0
  1 26  1  0
  3 27  1  0
  5 28  1  0
  6 29  1  0
 10 30  1  0
 10 31  1  0
 10 32  1  0
 12 33  1  0
 12 34  1  0
 12 35  1  0
 14 36  1  0
 17 37  1  0
 17 38  1  0
 17 39  1  0
 22 40  1  0
 22 41  1  0
 23 42  1  0
 23 43  1  0
 25 44  1  0
 25 45  1  0
 25 46  1  0
M  END
>  <ScrubInfo>  (2) 
{"isomerGroup": 0, "isomerId": 1, "confId": 0, "nr_conformers:": 1, "nr_isomers:": 9}

$$$$
_i2
     RDKit          3D

 46 48  0  0  0  0  0  0  0  0999 V2000
   -0.1791   -0.1433   -0.7946 N   0  0  0  0  0  0  0  0  0  0  0  0
   -1.5476   -0.1586   -0.6305 C   0  0  0  0  0  0  0  0  0  0  0  0
   -1.9542   -1.0742    0.3002 N   0  0  0  0  0  0  0  0  0  0  0  0
   -3.3500   -1.1369    0.7245 C   0  0  0  0  0  0  0  0  0  0  0  0
   -3.4992   -2.1909    1.8280 C   0  0  0  0  0  0  0  0  0  0  0  0
   -2.6034   -1.9368    2.9205 O   0  0  0  0  0  0  0  0  0  0  0  0
   -3.0953   -0.9540    3.8238 C   0  0  0  0  0  0  0  0  0  0  0  0
   -2.3758    0.6051   -1.2985 N   0  0  0  0  0  0  0  0  0  0  0  0
   -1.7156    1.4269   -2.1622 C   0  0  0  0  0  0  0  0  0  0  0  0
   -0.3559    1.5086   -2.3888 C   0  0  0  0  0  0  0  0  0  0  0  0
   -0.2004    2.5033   -3.3632 C   0  0  0  0  0  0  0  0  0  0  0  0
   -1.3732    3.0310   -3.7396 N   0  0  0  0  0  0  0  0  0  0  0  0
   -2.2817    2.3520   -2.9946 N   0  0  0  0  0  0  0  0  0  0  0  0
   -3.6826    2.6542   -3.1426 C   0  0  0  0  0  0  0  0  0  0  0  0
    0.5418    0.6463   -1.6654 C   0  0  0  0  0  0  0  0  0  0  0  0
    1.8076    0.7168   -1.9126 N   0  0  0  0  0  0  0  0  0  0  0  0
    2.6603   -0.1352   -1.1949 C   0  0  0  0  0  0  0  0  0  0  0  0
    2.9743   -1.3758   -1.7543 C   0  0  0  0  0  0  0  0  0  0  0  0
    3.8019   -2.2669   -1.0798 C   0  0  0  0  0  0  0  0  0  0  0  0
    4.3173   -1.9286    0.1726 C   0  0  0  0  0  0  0  0  0  0  0  0
    5.4551   -3.2115    0.9981 Br  0  0  0  0  0  0  0  0  0  0  0  0
    4.0133   -0.6887    0.7721 C   0  0  0  0  0  0  0  0  0  0  0  0
    4.5812   -0.3313    2.1242 C   0  0  0  0  0  0  0  0  0  0  0  0
    3.2111    0.2375    0.0515 C   0  0  0  0  0  0  0  0  0  0  0  0
    2.9172    1.6085    0.6127 C   0  0  0  0  0  0  0  0  0  0  0  0
    0.3421   -0.8607   -0.3188 H   0  0  0  0  0  0  0  0  0  0  0  0
   -1.3305   -1.1980    1.0944 H   0  0  0  0  0  0  0  0  0  0  0  0
   -3.6578   -0.1554    1.1002 H   0  0  0  0  0  0  0  0  0  0  0  0
   -3.9920   -1.3995   -0.1233 H   0  0  0  0  0  0  0  0  0  0  0  0
   -3.2300   -3.1745    1.4270 H   0  0  0  0  0  0  0  0  0  0  0  0
   -4.5343   -2.2511    2.1829 H   0  0  0  0  0  0  0  0  0  0  0  0
   -3.1915    0.0171    3.3313 H   0  0  0  0  0  0  0  0  0  0  0  0
   -4.0577   -1.2638    4.2419 H   0  0  0  0  0  0  0  0  0  0  0  0
   -2.3776   -0.8544    4.6427 H   0  0  0  0  0  0  0  0  0  0  0  0
    0.7140    2.8660   -3.8145 H   0  0  0  0  0  0  0  0  0  0  0  0
   -4.2765    2.0182   -2.4827 H   0  0  0  0  0  0  0  0  0  0  0  0
   -3.9653    2.4735   -4.1828 H   0  0  0  0  0  0  0  0  0  0  0  0
   -3.8370    3.7043   -2.8819 H   0  0  0  0  0  0  0  0  0  0  0  0
    2.5761   -1.6414   -2.7308 H   0  0  0  0  0  0  0  0  0  0  0  0
    4.0428   -3.2208   -1.5427 H   0  0  0  0  0  0  0  0  0  0  0  0
    4.5460   -1.1838    2.8095 H   0  0  0  0  0  0  0  0  0  0  0  0
    4.0062    0.4546    2.6221 H   0  0  0  0  0  0  0  0  0  0  0  0
    5.6158    0.0089    2.0177 H   0  0  0  0  0  0  0  0  0  0  0  0
    2.5538    2.3045   -0.1493 H   0  0  0  0  0  0  0  0  0  0  0  0
    2.1595    1.5355    1.3991 H   0  0  0  0  0  0  0  0  0  0  0  0
    3.8268    2.0629    1.0193 H   0  0  0  0  0  0  0  0  0  0  0  0
  1  2  1  0
  2  3  1  0
  3  4  1  0
  4  5  1  0
  5  6  1  0
  6  7  1  0
  2  8  2  0
  8  9  1  0
  9 10  2  0
 10 11  1  0
 11 12  2  0
 12 13  1  0
 13 14  1  0
 10 15  1  0
 15 16  2  3
 16 17  1  0
 17 18  2  0
 18 19  1  0
 19 20  2  0
 20 21  1  0
 20 22  1  0
 22 23  1  0
 22 24  2  0
 24 25  1  0
 15  1  1  0
 24 17  1  0
 13  9  1  0
  1 26  1  0
  3 27  1  0
  4 28  1  0
  4 29  1  0
  5 30  1  0
  5 31  1  0
  7 32  1  0
  7 33  1  0
  7 34  1  0
 11 35  1  0
 14 36  1  0
 14 37  1  0
 14 38  1  0
 18 39  1  0
 19 40  1  0
 23 41  1  0
 23 42  1  0
 23 43  1  0
 25 44  1  0
 25 45  1  0
 25 46  1  0
M  END
>  <ScrubInfo>  (3) 
{"isomerGroup": 0, "isomerId": 2, "confId": 0, "nr_conformers:": 1, "nr_isomers:": 9}

$$$$
_i3
     RDKit          3D

 46 48  0  0  0  0  0  0  0  0999 V2000
    1.7566    1.7881   -0.9555 N   0  0  0  0  0  0  0  0  0  0  0  0
    2.0795    0.6936   -0.1845 C   0  0  0  0  0  0  0  0  0  0  0  0
    3.2836    0.2270   -0.2636 N   0  0  0  0  0  0  0  0  0  0  0  0
    3.5953   -0.9434    0.5624 C   0  0  0  0  0  0  0  0  0  0  0  0
    5.0422   -1.3691    0.2979 C   0  0  0  0  0  0  0  0  0  0  0  0
    5.3918   -2.5685    0.9940 O   0  0  0  0  0  0  0  0  0  0  0  0
    5.6835   -2.3484    2.3671 C   0  0  0  0  0  0  0  0  0  0  0  0
    1.1542    0.0942    0.6567 N   0  0  0  0  0  0  0  0  0  0  0  0
   -0.0630    0.5666    0.7056 C   0  0  0  0  0  0  0  0  0  0  0  0
   -1.0205    0.0147    1.5216 N   0  0  0  0  0  0  0  0  0  0  0  0
   -2.3401   -0.3013    1.1051 C   0  0  0  0  0  0  0  0  0  0  0  0
   -3.3701    0.0637    1.9825 C   0  0  0  0  0  0  0  0  0  0  0  0
   -4.6975   -0.2213    1.6839 C   0  0  0  0  0  0  0  0  0  0  0  0
   -5.0187   -0.8780    0.4968 C   0  0  0  0  0  0  0  0  0  0  0  0
   -6.8654   -1.2274    0.1973 Br  0  0  0  0  0  0  0  0  0  0  0  0
   -4.0108   -1.2770   -0.4043 C   0  0  0  0  0  0  0  0  0  0  0  0
   -4.3661   -1.9834   -1.6914 C   0  0  0  0  0  0  0  0  0  0  0  0
   -2.6476   -1.0538   -0.0544 C   0  0  0  0  0  0  0  0  0  0  0  0
   -1.5429   -1.6040   -0.9276 C   0  0  0  0  0  0  0  0  0  0  0  0
   -0.4377    1.7281   -0.0726 C   0  0  0  0  0  0  0  0  0  0  0  0
   -1.5641    2.5439   -0.2632 C   0  0  0  0  0  0  0  0  0  0  0  0
   -1.3369    3.5353   -1.1403 N   0  0  0  0  0  0  0  0  0  0  0  0
   -0.0456    3.3527   -1.5088 N   0  0  0  0  0  0  0  0  0  0  0  0
    0.5486    4.2594   -2.4575 C   0  0  0  0  0  0  0  0  0  0  0  0
    0.5141    2.2867   -0.8817 C   0  0  0  0  0  0  0  0  0  0  0  0
    2.5121    2.1466   -1.5237 H   0  0  0  0  0  0  0  0  0  0  0  0
    2.9330   -1.7858    0.3264 H   0  0  0  0  0  0  0  0  0  0  0  0
    3.4710   -0.7062    1.6251 H   0  0  0  0  0  0  0  0  0  0  0  0
    5.1633   -1.5783   -0.7711 H   0  0  0  0  0  0  0  0  0  0  0  0
    5.7468   -0.5648    0.5426 H   0  0  0  0  0  0  0  0  0  0  0  0
    6.0080   -3.2974    2.8028 H   0  0  0  0  0  0  0  0  0  0  0  0
    6.4941   -1.6219    2.4787 H   0  0  0  0  0  0  0  0  0  0  0  0
    4.7955   -2.0109    2.9076 H   0  0  0  0  0  0  0  0  0  0  0  0
   -0.6264   -0.7965    1.9932 H   0  0  0  0  0  0  0  0  0  0  0  0
   -3.1363    0.5933    2.9041 H   0  0  0  0  0  0  0  0  0  0  0  0
   -5.4750    0.0799    2.3817 H   0  0  0  0  0  0  0  0  0  0  0  0
   -3.6254   -1.7922   -2.4742 H   0  0  0  0  0  0  0  0  0  0  0  0
   -4.4365   -3.0619   -1.5206 H   0  0  0  0  0  0  0  0  0  0  0  0
   -5.3094   -1.6223   -2.1108 H   0  0  0  0  0  0  0  0  0  0  0  0
   -1.8338   -2.5505   -1.3941 H   0  0  0  0  0  0  0  0  0  0  0  0
   -0.6516   -1.8485   -0.3427 H   0  0  0  0  0  0  0  0  0  0  0  0
   -1.2820   -0.8843   -1.7089 H   0  0  0  0  0  0  0  0  0  0  0  0
   -2.5433    2.4712    0.1911 H   0  0  0  0  0  0  0  0  0  0  0  0
   -0.0486    4.2416   -3.3727 H   0  0  0  0  0  0  0  0  0  0  0  0
    0.5501    5.2613   -2.0210 H   0  0  0  0  0  0  0  0  0  0  0  0
    1.5719    3.9493   -2.6790 H   0  0  0  0  0  0  0  0  0  0  0  0
  1  2  1  0
  2  3  2  3
  3  4  1  0
  4  5  1  0
  5  6  1  0
  6  7  1  0
  2  8  1  0
  8  9  2  0
  9 10  1  0
 10 11  1  0
 11 12  2  0
 12 13  1  0
 13 14  2  0
 14 15  1  0
 14 16  1  0
 16 17  1  0
 16 18  2  0
 18 19  1  0
  9 20  1  0
 20 21  1  0
 21 22  2  0
 22 23  1  0
 23 24  1  0
 23 25  1  0
 25  1  1  0
 18 11  1  0
 25 20  2  0
  1 26  1  0
  4 27  1  0
  4 28  1  0
  5 29  1  0
  5 30  1  0
  7 31  1  0
  7 32  1  0
  7 33  1  0
 10 34  1  0
 12 35  1  0
 13 36  1  0
 17 37  1  0
 17 38  1  0
 17 39  1  0
 19 40  1  0
 19 41  1  0
 19 42  1  0
 21 43  1  0
 24 44  1  0
 24 45  1  0
 24 46  1  0
M  END
>  <ScrubInfo>  (4) 
{"isomerGroup": 0, "isomerId": 3, "confId": 0, "nr_conformers:": 1, "nr_isomers:": 9}

$$$$
_i4
     RDKit          3D

 46 48  0  0  0  0  0  0  0  0999 V2000
   -0.6240   -3.2925   -0.6871 N   0  0  0  0  0  0  0  0  0  0  0  0
   -1.2048   -2.0305   -0.6132 C   0  0  0  0  0  0  0  0  0  0  0  0
   -0.3202   -1.0267   -0.7184 C   0  0  0  0  0  0  0  0  0  0  0  0
   -0.2910    0.4299   -0.6817 C   0  0  0  0  0  0  0  0  0  0  0  0
   -1.2492    1.2894   -0.5690 N   0  0  0  0  0  0  0  0  0  0  0  0
   -2.5794    0.8673   -0.4716 C   0  0  0  0  0  0  0  0  0  0  0  0
   -3.3163    0.7326   -1.6511 C   0  0  0  0  0  0  0  0  0  0  0  0
   -4.6457    0.3259   -1.6133 C   0  0  0  0  0  0  0  0  0  0  0  0
   -5.2531    0.0426   -0.3888 C   0  0  0  0  0  0  0  0  0  0  0  0
   -7.0796   -0.4886   -0.4492 Br  0  0  0  0  0  0  0  0  0  0  0  0
   -4.5400    0.1655    0.8218 C   0  0  0  0  0  0  0  0  0  0  0  0
   -5.2099   -0.1356    2.1402 C   0  0  0  0  0  0  0  0  0  0  0  0
   -3.1982    0.6331    0.7771 C   0  0  0  0  0  0  0  0  0  0  0  0
   -2.4121    0.8549    2.0471 C   0  0  0  0  0  0  0  0  0  0  0  0
    0.9673    0.9613   -0.7723 N   0  0  0  0  0  0  0  0  0  0  0  0
    2.0389    0.2439   -0.9203 C   0  0  0  0  0  0  0  0  0  0  0  0
    3.2612    0.8406   -1.0053 N   0  0  0  0  0  0  0  0  0  0  0  0
    3.5012    2.1919   -0.5350 C   0  0  0  0  0  0  0  0  0  0  0  0
    4.9815    2.5501   -0.7134 C   0  0  0  0  0  0  0  0  0  0  0  0
    5.8513    1.6272   -0.0432 O   0  0  0  0  0  0  0  0  0  0  0  0
    5.9126    1.8348    1.3617 C   0  0  0  0  0  0  0  0  0  0  0  0
    2.0726   -1.1213   -1.0019 N   0  0  0  0  0  0  0  0  0  0  0  0
    0.9502   -1.7463   -0.9276 C   0  0  0  0  0  0  0  0  0  0  0  0
    0.7148   -3.1197   -1.0049 N   0  0  0  0  0  0  0  0  0  0  0  0
    1.6887   -4.0750   -0.5139 C   0  0  0  0  0  0  0  0  0  0  0  0
   -1.1467   -3.9430   -1.2786 H   0  0  0  0  0  0  0  0  0  0  0  0
   -2.2749   -1.9692   -0.4820 H   0  0  0  0  0  0  0  0  0  0  0  0
   -2.8463    0.9599   -2.6049 H   0  0  0  0  0  0  0  0  0  0  0  0
   -5.2000    0.2403   -2.5444 H   0  0  0  0  0  0  0  0  0  0  0  0
   -5.8303    0.7121    2.4472 H   0  0  0  0  0  0  0  0  0  0  0  0
   -4.4892   -0.3443    2.9357 H   0  0  0  0  0  0  0  0  0  0  0  0
   -5.8284   -1.0362    2.0758 H   0  0  0  0  0  0  0  0  0  0  0  0
   -1.5216    1.4704    1.8888 H   0  0  0  0  0  0  0  0  0  0  0  0
   -3.0165    1.3915    2.7860 H   0  0  0  0  0  0  0  0  0  0  0  0
   -2.0932   -0.1065    2.4616 H   0  0  0  0  0  0  0  0  0  0  0  0
    4.0314    0.1968   -0.8535 H   0  0  0  0  0  0  0  0  0  0  0  0
    2.8889    2.9037   -1.0996 H   0  0  0  0  0  0  0  0  0  0  0  0
    3.2199    2.2632    0.5208 H   0  0  0  0  0  0  0  0  0  0  0  0
    5.2388    2.5033   -1.7776 H   0  0  0  0  0  0  0  0  0  0  0  0
    5.1814    3.5727   -0.3734 H   0  0  0  0  0  0  0  0  0  0  0  0
    6.6556    1.1474    1.7753 H   0  0  0  0  0  0  0  0  0  0  0  0
    6.2243    2.8589    1.5881 H   0  0  0  0  0  0  0  0  0  0  0  0
    4.9496    1.6190    1.8315 H   0  0  0  0  0  0  0  0  0  0  0  0
    1.8107   -3.9839    0.5705 H   0  0  0  0  0  0  0  0  0  0  0  0
    2.6608   -3.9144   -0.9909 H   0  0  0  0  0  0  0  0  0  0  0  0
    1.3691   -5.0967   -0.7433 H   0  0  0  0  0  0  0  0  0  0  0  0
  1  2  1  0
  2  3  2  0
  3  4  1  0
  4  5  2  3
  5  6  1  0
  6  7  2  0
  7  8  1  0
  8  9  2  0
  9 10  1  0
  9 11  1  0
 11 12  1  0
 11 13  2  0
 13 14  1  0
  4 15  1  0
 15 16  2  0
 16 17  1  0
 17 18  1  0
 18 19  1  0
 19 20  1  0
 20 21  1  0
 16 22  1  0
 22 23  2  0
 23 24  1  0
 24 25  1  0
 24  1  1  0
 23  3  1  0
 13  6  1  0
  1 26  1  0
  2 27  1  0
  7 28  1  0
  8 29  1  0
 12 30  1  0
 12 31  1  0
 12 32  1  0
 14 33  1  0
 14 34  1  0
 14 35  1  0
 17 36  1  0
 18 37  1  0
 18 38  1  0
 19 39  1  0
 19 40  1  0
 21 41  1  0
 21 42  1  0
 21 43  1  0
 25 44  1  0
 25 45  1  0
 25 46  1  0
M  END
>  <ScrubInfo>  (5) 
{"isomerGroup": 0, "isomerId": 4, "confId": 0, "nr_conformers:": 1, "nr_isomers:": 9}

$$$$
_i5
     RDKit          3D

 46 48  0  0  0  0  0  0  0  0999 V2000
    1.9856   -1.7877    0.5818 N   0  0  0  0  0  0  0  0  0  0  0  0
    1.2482   -0.8686   -0.1348 C   0  0  0  0  0  0  0  0  0  0  0  0
    2.0304   -0.1438   -0.9902 N   0  0  0  0  0  0  0  0  0  0  0  0
    1.4718    1.0076   -1.6991 C   0  0  0  0  0  0  0  0  0  0  0  0
    2.5333    1.5975   -2.6306 C   0  0  0  0  0  0  0  0  0  0  0  0
    3.6761    1.9833   -1.8527 O   0  0  0  0  0  0  0  0  0  0  0  0
    4.6826    2.5706   -2.6683 C   0  0  0  0  0  0  0  0  0  0  0  0
   -0.0413   -0.6995   -0.0394 N   0  0  0  0  0  0  0  0  0  0  0  0
   -0.7681   -1.4772    0.8504 C   0  0  0  0  0  0  0  0  0  0  0  0
   -2.0441   -1.3653    1.0441 N   0  0  0  0  0  0  0  0  0  0  0  0
   -2.7370   -0.3915    0.3058 C   0  0  0  0  0  0  0  0  0  0  0  0
   -3.3038   -0.7679   -0.9147 C   0  0  0  0  0  0  0  0  0  0  0  0
   -4.0142    0.1503   -1.6805 C   0  0  0  0  0  0  0  0  0  0  0  0
   -4.1575    1.4654   -1.2354 C   0  0  0  0  0  0  0  0  0  0  0  0
   -5.1652    2.6344   -2.3499 Br  0  0  0  0  0  0  0  0  0  0  0  0
   -3.5916    1.8850   -0.0139 C   0  0  0  0  0  0  0  0  0  0  0  0
   -3.7517    3.3095    0.4568 C   0  0  0  0  0  0  0  0  0  0  0  0
   -2.9132    0.9258    0.7871 C   0  0  0  0  0  0  0  0  0  0  0  0
   -2.3402    1.3049    2.1311 C   0  0  0  0  0  0  0  0  0  0  0  0
   -0.0406   -2.4685    1.5993 C   0  0  0  0  0  0  0  0  0  0  0  0
   -0.3601   -3.4534    2.5427 C   0  0  0  0  0  0  0  0  0  0  0  0
    0.7197   -4.1506    2.9349 N   0  0  0  0  0  0  0  0  0  0  0  0
    1.7372   -3.5961    2.2285 N   0  0  0  0  0  0  0  0  0  0  0  0
    3.0724   -4.1057    2.4070 C   0  0  0  0  0  0  0  0  0  0  0  0
    1.3107   -2.5847    1.4283 C   0  0  0  0  0  0  0  0  0  0  0  0
    2.9399   -1.9503    0.2923 H   0  0  0  0  0  0  0  0  0  0  0  0
    2.9487    0.0923   -0.6230 H   0  0  0  0  0  0  0  0  0  0  0  0
    1.1687    1.7633   -0.9651 H   0  0  0  0  0  0  0  0  0  0  0  0
    0.5956    0.7099   -2.2851 H   0  0  0  0  0  0  0  0  0  0  0  0
    2.8404    0.8528   -3.3743 H   0  0  0  0  0  0  0  0  0  0  0  0
    2.1255    2.4747   -3.1451 H   0  0  0  0  0  0  0  0  0  0  0  0
    5.0285    1.8573   -3.4225 H   0  0  0  0  0  0  0  0  0  0  0  0
    4.3038    3.4767   -3.1507 H   0  0  0  0  0  0  0  0  0  0  0  0
    5.5277    2.8417   -2.0299 H   0  0  0  0  0  0  0  0  0  0  0  0
   -3.1867   -1.7896   -1.2656 H   0  0  0  0  0  0  0  0  0  0  0  0
   -4.4508   -0.1715   -2.6219 H   0  0  0  0  0  0  0  0  0  0  0  0
   -2.9932    3.5933    1.1917 H   0  0  0  0  0  0  0  0  0  0  0  0
   -4.7400    3.4464    0.9064 H   0  0  0  0  0  0  0  0  0  0  0  0
   -3.6247    4.0184   -0.3673 H   0  0  0  0  0  0  0  0  0  0  0  0
   -1.4165    1.8762    1.9957 H   0  0  0  0  0  0  0  0  0  0  0  0
   -3.0594    1.8993    2.7043 H   0  0  0  0  0  0  0  0  0  0  0  0
   -2.1152    0.4334    2.7531 H   0  0  0  0  0  0  0  0  0  0  0  0
   -1.3294   -3.6976    2.9583 H   0  0  0  0  0  0  0  0  0  0  0  0
    3.7787   -3.5126    1.8224 H   0  0  0  0  0  0  0  0  0  0  0  0
    3.0912   -5.1451    2.0700 H   0  0  0  0  0  0  0  0  0  0  0  0
    3.3278   -4.0428    3.4679 H   0  0  0  0  0  0  0  0  0  0  0  0
  1  2  1  0
  2  3  1  0
  3  4  1  0
  4  5  1  0
  5  6  1  0
  6  7  1  0
  2  8  2  0
  8  9  1  0
  9 10  2  3
 10 11  1  0
 11 12  2  0
 12 13  1  0
 13 14  2  0
 14 15  1  0
 14 16  1  0
 16 17  1  0
 16 18  2  0
 18 19  1  0
  9 20  1  0
 20 21  1  0
 21 22  2  0
 22 23  1  0
 23 24  1  0
 23 25  1  0
 25  1  1  0
 18 11  1  0
 25 20  2  0
  1 26  1  0
  3 27  1  0
  4 28  1  0
  4 29  1  0
  5 30  1  0
  5 31  1  0
  7 32  1  0
  7 33  1  0
  7 34  1  0
 12 35  1  0
 13 36  1  0
 17 37  1  0
 17 38  1  0
 17 39  1  0
 19 40  1  0
 19 41  1  0
 19 42  1  0
 21 43  1  0
 24 44  1  0
 24 45  1  0
 24 46  1  0
M  END
>  <ScrubInfo>  (6) 
{"isomerGroup": 0, "isomerId": 5, "confId": 0, "nr_conformers:": 1, "nr_isomers:": 9}

$$$$
_i6
     RDKit          3D

 46 48  0  0  0  0  0  0  0  0999 V2000
   -0.5497    3.7187   -0.4380 N   0  0  0  0  0  0  0  0  0  0  0  0
   -1.0602    2.4837   -0.8240 C   0  0  0  0  0  0  0  0  0  0  0  0
   -0.1178    1.5372   -0.9331 C   0  0  0  0  0  0  0  0  0  0  0  0
   -0.0071    0.1152   -1.2578 C   0  0  0  0  0  0  0  0  0  0  0  0
   -1.0720   -0.6851   -1.6213 N   0  0  0  0  0  0  0  0  0  0  0  0
   -2.3558   -0.5810   -1.0378 C   0  0  0  0  0  0  0  0  0  0  0  0
   -3.4371   -0.4498   -1.9175 C   0  0  0  0  0  0  0  0  0  0  0  0
   -4.7395   -0.3649   -1.4384 C   0  0  0  0  0  0  0  0  0  0  0  0
   -4.9813   -0.4080   -0.0657 C   0  0  0  0  0  0  0  0  0  0  0  0
   -6.8021   -0.2963    0.4764 Br  0  0  0  0  0  0  0  0  0  0  0  0
   -3.9207   -0.5525    0.8517 C   0  0  0  0  0  0  0  0  0  0  0  0
   -4.1902   -0.5972    2.3373 C   0  0  0  0  0  0  0  0  0  0  0  0
   -2.5974   -0.7147    0.3508 C   0  0  0  0  0  0  0  0  0  0  0  0
   -1.4574   -1.0048    1.3010 C   0  0  0  0  0  0  0  0  0  0  0  0
    1.1746   -0.4401   -1.2171 N   0  0  0  0  0  0  0  0  0  0  0  0
    2.2599    0.3261   -0.8382 C   0  0  0  0  0  0  0  0  0  0  0  0
    3.4071   -0.2353   -0.6951 N   0  0  0  0  0  0  0  0  0  0  0  0
    3.5045   -1.6742   -0.9433 C   0  0  0  0  0  0  0  0  0  0  0  0
    4.9246   -2.1589   -0.6178 C   0  0  0  0  0  0  0  0  0  0  0  0
    5.2814   -2.0815    0.7664 O   0  0  0  0  0  0  0  0  0  0  0  0
    4.5400   -2.9556    1.6012 C   0  0  0  0  0  0  0  0  0  0  0  0
    2.2666    1.6760   -0.5858 N   0  0  0  0  0  0  0  0  0  0  0  0
    1.1293    2.2751   -0.6391 C   0  0  0  0  0  0  0  0  0  0  0  0
    0.8373    3.6243   -0.4395 N   0  0  0  0  0  0  0  0  0  0  0  0
    1.6062    4.4214    0.4973 C   0  0  0  0  0  0  0  0  0  0  0  0
   -0.9460    4.5042   -0.9594 H   0  0  0  0  0  0  0  0  0  0  0  0
   -2.1222    2.3894   -0.9989 H   0  0  0  0  0  0  0  0  0  0  0  0
   -0.7833   -1.6582   -1.6859 H   0  0  0  0  0  0  0  0  0  0  0  0
   -3.2613   -0.4013   -2.9904 H   0  0  0  0  0  0  0  0  0  0  0  0
   -5.5592   -0.2620   -2.1453 H   0  0  0  0  0  0  0  0  0  0  0  0
   -4.4324   -1.6193    2.6439 H   0  0  0  0  0  0  0  0  0  0  0  0
   -5.0085    0.0699    2.6236 H   0  0  0  0  0  0  0  0  0  0  0  0
   -3.3310   -0.2456    2.9166 H   0  0  0  0  0  0  0  0  0  0  0  0
   -1.7802   -1.6552    2.1204 H   0  0  0  0  0  0  0  0  0  0  0  0
   -0.6473   -1.5531    0.8115 H   0  0  0  0  0  0  0  0  0  0  0  0
   -1.0625   -0.0719    1.7138 H   0  0  0  0  0  0  0  0  0  0  0  0
    3.3097   -1.8793   -2.0030 H   0  0  0  0  0  0  0  0  0  0  0  0
    2.7743   -2.2245   -0.3410 H   0  0  0  0  0  0  0  0  0  0  0  0
    5.6521   -1.5487   -1.1647 H   0  0  0  0  0  0  0  0  0  0  0  0
    5.0536   -3.1936   -0.9568 H   0  0  0  0  0  0  0  0  0  0  0  0
    5.0077   -2.9607    2.5898 H   0  0  0  0  0  0  0  0  0  0  0  0
    4.5497   -3.9768    1.2085 H   0  0  0  0  0  0  0  0  0  0  0  0
    3.5123   -2.6020    1.7183 H   0  0  0  0  0  0  0  0  0  0  0  0
    1.4646    4.0618    1.5218 H   0  0  0  0  0  0  0  0  0  0  0  0
    2.6729    4.3794    0.2548 H   0  0  0  0  0  0  0  0  0  0  0  0
    1.2940    5.4698    0.4504 H   0  0  0  0  0  0  0  0  0  0  0  0
  1  2  1  0
  2  3  2  0
  3  4  1  0
  4  5  1  0
  5  6  1  0
  6  7  2  0
  7  8  1  0
  8  9  2  0
  9 10  1  0
  9 11  1  0
 11 12  1  0
 11 13  2  0
 13 14  1  0
  4 15  2  0
 15 16  1  0
 16 17  2  3
 17 18  1  0
 18 19  1  0
 19 20  1  0
 20 21  1  0
 16 22  1  0
 22 23  2  0
 23 24  1  0
 24 25  1  0
 24  1  1  0
 23  3  1  0
 13  6  1  0
  1 26  1  0
  2 27  1  0
  5 28  1  0
  7 29  1  0
  8 30  1  0
 12 31  1  0
 12 32  1  0
 12 33  1  0
 14 34  1  0
 14 35  1  0
 14 36  1  0
 18 37  1  0
 18 38  1  0
 19 39  1  0
 19 40  1  0
 21 41  1  0
 21 42  1  0
 21 43  1  0
 25 44  1  0
 25 45  1  0
 25 46  1  0
M  END
>  <ScrubInfo>  (7) 
{"isomerGroup": 0, "isomerId": 6, "confId": 0, "nr_conformers:": 1, "nr_isomers:": 9}

$$$$
_i7
     RDKit          3D

 46 48  0  0  0  0  0  0  0  0999 V2000
   -0.6824   -3.2447   -1.4608 N   0  0  0  0  0  0  0  0  0  0  0  0
   -1.0587   -1.9841   -1.0118 C   0  0  0  0  0  0  0  0  0  0  0  0
   -0.0212   -1.2050   -0.6741 C   0  0  0  0  0  0  0  0  0  0  0  0
    0.2622    0.1333   -0.1264 C   0  0  0  0  0  0  0  0  0  0  0  0
   -0.5608    1.0911    0.1869 N   0  0  0  0  0  0  0  0  0  0  0  0
   -1.9414    0.9327    0.0106 C   0  0  0  0  0  0  0  0  0  0  0  0
   -2.5013    1.3383   -1.2035 C   0  0  0  0  0  0  0  0  0  0  0  0
   -3.8684    1.2175   -1.4281 C   0  0  0  0  0  0  0  0  0  0  0  0
   -4.6929    0.6811   -0.4377 C   0  0  0  0  0  0  0  0  0  0  0  0
   -6.5497    0.5784   -0.8416 Br  0  0  0  0  0  0  0  0  0  0  0  0
   -4.1621    0.2577    0.7984 C   0  0  0  0  0  0  0  0  0  0  0  0
   -5.0653   -0.3158    1.8633 C   0  0  0  0  0  0  0  0  0  0  0  0
   -2.7720    0.4338    1.0392 C   0  0  0  0  0  0  0  0  0  0  0  0
   -2.1652    0.0629    2.3711 C   0  0  0  0  0  0  0  0  0  0  0  0
    1.6008    0.3518    0.0683 N   0  0  0  0  0  0  0  0  0  0  0  0
    2.6322   -0.5130   -0.1980 C   0  0  0  0  0  0  0  0  0  0  0  0
    3.8828   -0.3053    0.0103 N   0  0  0  0  0  0  0  0  0  0  0  0
    4.3490    0.9440    0.6007 C   0  0  0  0  0  0  0  0  0  0  0  0
    4.6275    1.9834   -0.4876 C   0  0  0  0  0  0  0  0  0  0  0  0
    4.9912    3.2442    0.0782 O   0  0  0  0  0  0  0  0  0  0  0  0
    3.8696    4.0584    0.3913 C   0  0  0  0  0  0  0  0  0  0  0  0
    2.3868   -1.7479   -0.7601 N   0  0  0  0  0  0  0  0  0  0  0  0
    1.1579   -2.0792   -0.9998 C   0  0  0  0  0  0  0  0  0  0  0  0
    0.6999   -3.2672   -1.5735 N   0  0  0  0  0  0  0  0  0  0  0  0
    1.4093   -4.5160   -1.3694 C   0  0  0  0  0  0  0  0  0  0  0  0
   -1.2069   -3.5596   -2.2803 H   0  0  0  0  0  0  0  0  0  0  0  0
   -2.1124   -1.7513   -0.9732 H   0  0  0  0  0  0  0  0  0  0  0  0
   -1.8632    1.7603   -1.9759 H   0  0  0  0  0  0  0  0  0  0  0  0
   -4.2813    1.5501   -2.3772 H   0  0  0  0  0  0  0  0  0  0  0  0
   -5.5860    0.4917    2.3872 H   0  0  0  0  0  0  0  0  0  0  0  0
   -4.5170   -0.9099    2.5996 H   0  0  0  0  0  0  0  0  0  0  0  0
   -5.7989   -1.0050    1.4336 H   0  0  0  0  0  0  0  0  0  0  0  0
   -1.1722    0.4984    2.5167 H   0  0  0  0  0  0  0  0  0  0  0  0
   -2.7798    0.4426    3.1940 H   0  0  0  0  0  0  0  0  0  0  0  0
   -2.0753   -1.0249    2.4507 H   0  0  0  0  0  0  0  0  0  0  0  0
    1.8186    1.2506    0.4631 H   0  0  0  0  0  0  0  0  0  0  0  0
    5.2812    0.7454    1.1436 H   0  0  0  0  0  0  0  0  0  0  0  0
    3.6669    1.3261    1.3676 H   0  0  0  0  0  0  0  0  0  0  0  0
    5.4731    1.6448   -1.0969 H   0  0  0  0  0  0  0  0  0  0  0  0
    3.7752    2.1010   -1.1677 H   0  0  0  0  0  0  0  0  0  0  0  0
    3.2201    3.5691    1.1222 H   0  0  0  0  0  0  0  0  0  0  0  0
    3.3041    4.2937   -0.5154 H   0  0  0  0  0  0  0  0  0  0  0  0
    4.2351    4.9936    0.8239 H   0  0  0  0  0  0  0  0  0  0  0  0
    1.3813   -4.8113   -0.3153 H   0  0  0  0  0  0  0  0  0  0  0  0
    2.4547   -4.4217   -1.6802 H   0  0  0  0  0  0  0  0  0  0  0  0
    0.9550   -5.3137   -1.9661 H   0  0  0  0  0  0  0  0  0  0  0  0
  1  2  1  0
  2  3  2  0
  3  4  1  0
  4  5  2  3
  5  6  1  0
  6  7  2  0
  7  8  1  0
  8  9  2  0
  9 10  1  0
  9 11  1  0
 11 12  1  0
 11 13  2  0
 13 14  1  0
  4 15  1  0
 15 16  1  0
 16 17  2  3
 17 18  1  0
 18 19  1  0
 19 20  1  0
 20 21  1  0
 16 22  1  0
 22 23  2  0
 23 24  1  0
 24 25  1  0
 24  1  1  0
 23  3  1  0
 13  6  1  0
  1 26  1  0
  2 27  1  0
  7 28  1  0
  8 29  1  0
 12 30  1  0
 12 31  1  0
 12 32  1  0
 14 33  1  0
 14 34  1  0
 14 35  1  0
 15 36  1  0
 18 37  1  0
 18 38  1  0
 19 39  1  0
 19 40  1  0
 21 41  1  0
 21 42  1  0
 21 43  1  0
 25 44  1  0
 25 45  1  0
 25 46  1  0
M  END
>  <ScrubInfo>  (8) 
{"isomerGroup": 0, "isomerId": 7, "confId": 0, "nr_conformers:": 1, "nr_isomers:": 9}

$$$$
_i8
     RDKit          3D

 46 48  0  0  0  0  0  0  0  0999 V2000
    1.7193    1.9244   -0.5942 N   0  0  0  0  0  0  0  0  0  0  0  0
    2.2227    0.7279   -0.1264 C   0  0  0  0  0  0  0  0  0  0  0  0
    3.5033    0.5655   -0.1203 N   0  0  0  0  0  0  0  0  0  0  0  0
    4.0310   -0.7055    0.3747 C   0  0  0  0  0  0  0  0  0  0  0  0
    5.5541   -0.7144    0.2212 C   0  0  0  0  0  0  0  0  0  0  0  0
    6.1161   -1.9579    0.6470 O   0  0  0  0  0  0  0  0  0  0  0  0
    6.3369   -2.0131    2.0500 C   0  0  0  0  0  0  0  0  0  0  0  0
    1.2417   -0.1542    0.2843 N   0  0  0  0  0  0  0  0  0  0  0  0
   -0.1349   -0.0390    0.3007 C   0  0  0  0  0  0  0  0  0  0  0  0
   -0.8733   -1.0162    0.7360 N   0  0  0  0  0  0  0  0  0  0  0  0
   -2.2696   -0.9393    0.7683 C   0  0  0  0  0  0  0  0  0  0  0  0
   -2.8766   -0.4799    1.9400 C   0  0  0  0  0  0  0  0  0  0  0  0
   -4.2621   -0.4084    2.0388 C   0  0  0  0  0  0  0  0  0  0  0  0
   -5.0588   -0.7929    0.9591 C   0  0  0  0  0  0  0  0  0  0  0  0
   -6.9419   -0.6772    1.2089 Br  0  0  0  0  0  0  0  0  0  0  0  0
   -4.4810   -1.2578   -0.2404 C   0  0  0  0  0  0  0  0  0  0  0  0
   -5.3538   -1.6711   -1.4004 C   0  0  0  0  0  0  0  0  0  0  0  0
   -3.0662   -1.3779   -0.3136 C   0  0  0  0  0  0  0  0  0  0  0  0
   -2.4013   -1.9359   -1.5489 C   0  0  0  0  0  0  0  0  0  0  0  0
   -0.5618    1.2514   -0.2124 C   0  0  0  0  0  0  0  0  0  0  0  0
   -1.7755    1.9254   -0.4427 C   0  0  0  0  0  0  0  0  0  0  0  0
   -1.6017    3.1508   -0.9605 N   0  0  0  0  0  0  0  0  0  0  0  0
   -0.2596    3.2721   -1.0587 N   0  0  0  0  0  0  0  0  0  0  0  0
    0.2998    4.4884   -1.5924 C   0  0  0  0  0  0  0  0  0  0  0  0
    0.3903    2.1572   -0.6277 C   0  0  0  0  0  0  0  0  0  0  0  0
    2.4252    2.5811   -0.9059 H   0  0  0  0  0  0  0  0  0  0  0  0
    3.6163   -1.5523   -0.1860 H   0  0  0  0  0  0  0  0  0  0  0  0
    3.7636   -0.8440    1.4282 H   0  0  0  0  0  0  0  0  0  0  0  0
    5.8074   -0.5958   -0.8385 H   0  0  0  0  0  0  0  0  0  0  0  0
    6.0176    0.1252    0.7535 H   0  0  0  0  0  0  0  0  0  0  0  0
    6.7860   -2.9814    2.2871 H   0  0  0  0  0  0  0  0  0  0  0  0
    7.0297   -1.2252    2.3606 H   0  0  0  0  0  0  0  0  0  0  0  0
    5.3959   -1.9263    2.5996 H   0  0  0  0  0  0  0  0  0  0  0  0
    1.5513   -1.0484    0.6311 H   0  0  0  0  0  0  0  0  0  0  0  0
   -2.2603   -0.1818    2.7843 H   0  0  0  0  0  0  0  0  0  0  0  0
   -4.7101   -0.0541    2.9637 H   0  0  0  0  0  0  0  0  0  0  0  0
   -4.8129   -1.6691   -2.3508 H   0  0  0  0  0  0  0  0  0  0  0  0
   -5.7520   -2.6761   -1.2298 H   0  0  0  0  0  0  0  0  0  0  0  0
   -6.1816   -0.9700   -1.5450 H   0  0  0  0  0  0  0  0  0  0  0  0
   -2.9141   -2.8425   -1.8870 H   0  0  0  0  0  0  0  0  0  0  0  0
   -1.3630   -2.2314   -1.3707 H   0  0  0  0  0  0  0  0  0  0  0  0
   -2.4105   -1.1884   -2.3483 H   0  0  0  0  0  0  0  0  0  0  0  0
   -2.7893    1.5941   -0.2653 H   0  0  0  0  0  0  0  0  0  0  0  0
    0.2821    4.4207   -2.6827 H   0  0  0  0  0  0  0  0  0  0  0  0
   -0.3031    5.3348   -1.2531 H   0  0  0  0  0  0  0  0  0  0  0  0
    1.3249    4.6087   -1.2353 H   0  0  0  0  0  0  0  0  0  0  0  0
  1  2  1  0
  2  3  2  3
  3  4  1  0
  4  5  1  0
  5  6  1  0
  6  7  1  0
  2  8  1  0
  8  9  1  0
  9 10  2  3
 10 11  1  0
 11 12  2  0
 12 13  1  0
 13 14  2  0
 14 15  1  0
 14 16  1  0
 16 17  1  0
 16 18  2  0
 18 19  1  0
  9 20  1  0
 20 21  1  0
 21 22  2  0
 22 23  1  0
 23 24  1  0
 23 25  1  0
 25  1  1  0
 18 11  1  0
 25 20  2  0
  1 26  1  0
  4 27  1  0
  4 28  1  0
  5 29  1  0
  5 30  1  0
  7 31  1  0
  7 32  1  0
  7 33  1  0
  8 34  1  0
 12 35  1  0
 13 36  1  0
 17 37  1  0
 17 38  1  0
 17 39  1  0
 19 40  1  0
 19 41  1  0
 19 42  1  0
 21 43  1  0
 24 44  1  0
 24 45  1  0
 24 46  1  0
M  END
>  <ScrubInfo>  (9) 
{"isomerGroup": 0, "isomerId": 8, "confId": 0, "nr_conformers:": 1, "nr_isomers:": 9}

$$$$
