REMARK SMILES COc1ccc(Nc2nc(NCc3ccccc3)c3nccnc3n2)cc1
REMARK SMILES IDX 8 1 9 2 10 3 19 4 20 5 21 6 22 7 23 8 24 9 25 10 7 11 6 13
REMARK SMILES IDX 3 14 4 15 27 16 5 17 26 18 2 19 1 20 11 21 12 23 13 24 14 25
REMARK SMILES IDX 18 26 15 27 17 28 16 29
REMARK H PARENT 7 12 11 22
ROOT
ATOM      1  C   UNL     1       0.824   0.374   0.226  1.00  0.00     0.231 A 
ATOM      2  N   UNL     1      -0.404  -0.105   0.443  1.00  0.00    -0.193 NA
ATOM      3  C   UNL     1      -1.443   0.746   0.350  1.00  0.00     0.160 A 
ATOM      4  C   UNL     1      -1.297   2.102   0.051  1.00  0.00     0.150 A 
ATOM      5  N   UNL     1      -2.328   3.005  -0.046  1.00  0.00    -0.247 NA
ATOM      6  C   UNL     1      -1.995   4.275  -0.338  1.00  0.00     0.132 A 
ATOM      7  C   UNL     1      -0.686   4.641  -0.539  1.00  0.00     0.133 A 
ATOM      8  N   UNL     1       0.329   3.755  -0.454  1.00  0.00    -0.233 NA
ATOM      9  C   UNL     1       0.036   2.483  -0.155  1.00  0.00     0.185 A 
ATOM     10  N   UNL     1       1.060   1.646  -0.077  1.00  0.00    -0.191 NA
ENDROOT
BRANCH   1  11
ATOM     11  N   UNL     1       1.846  -0.564   0.337  1.00  0.00    -0.324 N 
ATOM     12  H   UNL     1       1.450  -1.455   0.598  1.00  0.00     0.170 HD
BRANCH  11  13
ATOM     13  C   UNL     1       3.237  -0.503   0.213  1.00  0.00     0.041 A 
ATOM     14  C   UNL     1       6.066  -0.530  -0.021  1.00  0.00     0.119 A 
ATOM     15  C   UNL     1       5.342   0.645  -0.220  1.00  0.00     0.048 A 
ATOM     16  C   UNL     1       5.378  -1.697   0.294  1.00  0.00     0.048 A 
ATOM     17  C   UNL     1       3.946   0.657  -0.105  1.00  0.00     0.030 A 
ATOM     18  C   UNL     1       3.980  -1.679   0.407  1.00  0.00     0.030 A 
BRANCH  14  19
ATOM     19  O   UNL     1       7.419  -0.403  -0.163  1.00  0.00    -0.497 OA
ATOM     20  C   UNL     1       8.199  -1.575   0.038  1.00  0.00     0.278 C 
ENDBRANCH  14  19
ENDBRANCH  11  13
ENDBRANCH   1  11
BRANCH   3  21
ATOM     21  N   UNL     1      -2.671   0.134   0.632  1.00  0.00    -0.364 N 
ATOM     22  H   UNL     1      -2.495  -0.865   0.710  1.00  0.00     0.162 HD
BRANCH  21  23
ATOM     23  C   UNL     1      -3.789   0.458  -0.239  1.00  0.00     0.150 C 
BRANCH  23  24
ATOM     24  C   UNL     1      -4.817  -0.648  -0.151  1.00  0.00    -0.029 A 
ATOM     25  C   UNL     1      -4.913  -1.619  -1.158  1.00  0.00     0.005 A 
ATOM     26  C   UNL     1      -5.665  -0.738   0.963  1.00  0.00     0.005 A 
ATOM     27  C   UNL     1      -5.852  -2.648  -1.061  1.00  0.00     0.000 A 
ATOM     28  C   UNL     1      -6.603  -1.768   1.058  1.00  0.00     0.000 A 
ATOM     29  C   UNL     1      -6.697  -2.720   0.045  1.00  0.00     0.000 A 
ENDBRANCH  23  24
ENDBRANCH  21  23
ENDBRANCH   3  21
TORSDOF 6
