_i0
     RDKit          3D

 45 48  0  0  0  0  0  0  0  0999 V2000
    8.1987   -1.5749    0.0380 C   0  0  0  0  0  0  0  0  0  0  0  0
    7.4194   -0.4030   -0.1629 O   0  0  0  0  0  0  0  0  0  0  0  0
    6.0660   -0.5296   -0.0210 C   0  0  0  0  0  0  0  0  0  0  0  0
    5.3419    0.6446   -0.2198 C   0  0  0  0  0  0  0  0  0  0  0  0
    3.9456    0.6575   -0.1052 C   0  0  0  0  0  0  0  0  0  0  0  0
    3.2375   -0.5030    0.2133 C   0  0  0  0  0  0  0  0  0  0  0  0
    1.8457   -0.5640    0.3366 N   0  0  0  0  0  0  0  0  0  0  0  0
    0.8238    0.3740    0.2261 C   0  0  0  0  0  0  0  0  0  0  0  0
   -0.4036   -0.1055    0.4428 N   0  0  0  0  0  0  0  0  0  0  0  0
   -1.4430    0.7456    0.3501 C   0  0  0  0  0  0  0  0  0  0  0  0
   -2.6706    0.1339    0.6325 N   0  0  0  0  0  0  0  0  0  0  0  0
   -3.7891    0.4580   -0.2394 C   0  0  0  0  0  0  0  0  0  0  0  0
   -4.8171   -0.6481   -0.1509 C   0  0  0  0  0  0  0  0  0  0  0  0
   -4.9134   -1.6192   -1.1582 C   0  0  0  0  0  0  0  0  0  0  0  0
   -5.8523   -2.6478   -1.0610 C   0  0  0  0  0  0  0  0  0  0  0  0
   -6.6972   -2.7204    0.0452 C   0  0  0  0  0  0  0  0  0  0  0  0
   -6.6027   -1.7678    1.0580 C   0  0  0  0  0  0  0  0  0  0  0  0
   -5.6653   -0.7384    0.9629 C   0  0  0  0  0  0  0  0  0  0  0  0
   -1.2973    2.1024    0.0509 C   0  0  0  0  0  0  0  0  0  0  0  0
   -2.3280    3.0052   -0.0459 N   0  0  0  0  0  0  0  0  0  0  0  0
   -1.9948    4.2750   -0.3379 C   0  0  0  0  0  0  0  0  0  0  0  0
   -0.6864    4.6413   -0.5391 C   0  0  0  0  0  0  0  0  0  0  0  0
    0.3286    3.7549   -0.4543 N   0  0  0  0  0  0  0  0  0  0  0  0
    0.0359    2.4831   -0.1555 C   0  0  0  0  0  0  0  0  0  0  0  0
    1.0604    1.6459   -0.0767 N   0  0  0  0  0  0  0  0  0  0  0  0
    3.9801   -1.6792    0.4075 C   0  0  0  0  0  0  0  0  0  0  0  0
    5.3775   -1.6969    0.2938 C   0  0  0  0  0  0  0  0  0  0  0  0
    7.9479   -2.3467   -0.6972 H   0  0  0  0  0  0  0  0  0  0  0  0
    8.0893   -1.9517    1.0604 H   0  0  0  0  0  0  0  0  0  0  0  0
    9.2496   -1.3065   -0.1068 H   0  0  0  0  0  0  0  0  0  0  0  0
    5.8640    1.5656   -0.4676 H   0  0  0  0  0  0  0  0  0  0  0  0
    3.4355    1.6015   -0.2721 H   0  0  0  0  0  0  0  0  0  0  0  0
    1.4498   -1.4551    0.5978 H   0  0  0  0  0  0  0  0  0  0  0  0
   -2.4955   -0.8651    0.7101 H   0  0  0  0  0  0  0  0  0  0  0  0
   -3.4685    0.5703   -1.2832 H   0  0  0  0  0  0  0  0  0  0  0  0
   -4.2670    1.3957    0.0662 H   0  0  0  0  0  0  0  0  0  0  0  0
   -4.2567   -1.5810   -2.0245 H   0  0  0  0  0  0  0  0  0  0  0  0
   -5.9230   -3.3947   -1.8475 H   0  0  0  0  0  0  0  0  0  0  0  0
   -7.4266   -3.5226    0.1206 H   0  0  0  0  0  0  0  0  0  0  0  0
   -7.2557   -1.8282    1.9248 H   0  0  0  0  0  0  0  0  0  0  0  0
   -5.5897   -0.0061    1.7645 H   0  0  0  0  0  0  0  0  0  0  0  0
   -2.8089    4.9870   -0.4052 H   0  0  0  0  0  0  0  0  0  0  0  0
   -0.4073    5.6617   -0.7760 H   0  0  0  0  0  0  0  0  0  0  0  0
    3.4726   -2.6092    0.6535 H   0  0  0  0  0  0  0  0  0  0  0  0
    5.8901   -2.6384    0.4574 H   0  0  0  0  0  0  0  0  0  0  0  0
  1  2  1  0
  2  3  1  0
  3  4  2  0
  4  5  1  0
  5  6  2  0
  6  7  1  0
  7  8  1  0
  8  9  2  0
  9 10  1  0
 10 11  1  0
 11 12  1  0
 12 13  1  0
 13 14  2  0
 14 15  1  0
 15 16  2  0
 16 17  1  0
 17 18  2  0
 10 19  2  0
 19 20  1  0
 20 21  2  0
 21 22  1  0
 22 23  2  0
 23 24  1  0
 24 25  2  0
  6 26  1  0
 26 27  2  0
 27  3  1  0
 25  8  1  0
 18 13  1  0
 24 19  1  0
  1 28  1  0
  1 29  1  0
  1 30  1  0
  4 31  1  0
  5 32  1  0
  7 33  1  0
 11 34  1  0
 12 35  1  0
 12 36  1  0
 14 37  1  0
 15 38  1  0
 16 39  1  0
 17 40  1  0
 18 41  1  0
 21 42  1  0
 22 43  1  0
 26 44  1  0
 27 45  1  0
M  END
>  <ScrubInfo>  (1) 
{"isomerGroup": 0, "isomerId": 0, "confId": 0, "nr_conformers:": 1, "nr_isomers:": 9}

$$$$
_i1
     RDKit          3D

 45 48  0  0  0  0  0  0  0  0999 V2000
    0.1303   -0.6725    1.0122 N   0  0  0  0  0  0  0  0  0  0  0  0
   -1.0729   -0.2682    1.5296 C   0  0  0  0  0  0  0  0  0  0  0  0
   -1.4812    1.0640    1.4605 N   0  0  0  0  0  0  0  0  0  0  0  0
   -1.2710    1.9334    0.3134 C   0  0  0  0  0  0  0  0  0  0  0  0
   -2.2500    1.6109   -0.7887 C   0  0  0  0  0  0  0  0  0  0  0  0
   -3.5203    2.2058   -0.8098 C   0  0  0  0  0  0  0  0  0  0  0  0
   -4.4325    1.8925   -1.8189 C   0  0  0  0  0  0  0  0  0  0  0  0
   -4.0883    0.9767   -2.8114 C   0  0  0  0  0  0  0  0  0  0  0  0
   -2.8337    0.3705   -2.7949 C   0  0  0  0  0  0  0  0  0  0  0  0
   -1.9194    0.6834   -1.7879 C   0  0  0  0  0  0  0  0  0  0  0  0
   -1.8669   -1.1915    2.1253 C   0  0  0  0  0  0  0  0  0  0  0  0
   -3.0967   -0.8806    2.6725 N   0  0  0  0  0  0  0  0  0  0  0  0
   -3.7331   -1.8846    3.1756 C   0  0  0  0  0  0  0  0  0  0  0  0
   -3.1920   -3.2746    3.1752 C   0  0  0  0  0  0  0  0  0  0  0  0
   -2.0469   -3.5841    2.6734 N   0  0  0  0  0  0  0  0  0  0  0  0
   -1.2847   -2.5876    2.1071 C   0  0  0  0  0  0  0  0  0  0  0  0
   -0.1479   -2.9485    1.6161 N   0  0  0  0  0  0  0  0  0  0  0  0
    0.6099   -1.9555    1.0542 C   0  0  0  0  0  0  0  0  0  0  0  0
    1.7581   -2.3550    0.6004 N   0  0  0  0  0  0  0  0  0  0  0  0
    2.6108   -1.4292   -0.0090 C   0  0  0  0  0  0  0  0  0  0  0  0
    2.4890   -1.1402   -1.3685 C   0  0  0  0  0  0  0  0  0  0  0  0
    3.3310   -0.1993   -1.9656 C   0  0  0  0  0  0  0  0  0  0  0  0
    4.3150    0.4509   -1.2162 C   0  0  0  0  0  0  0  0  0  0  0  0
    5.0678    1.3499   -1.9196 O   0  0  0  0  0  0  0  0  0  0  0  0
    6.1382    1.9754   -1.2227 C   0  0  0  0  0  0  0  0  0  0  0  0
    4.4520    0.1481    0.1390 C   0  0  0  0  0  0  0  0  0  0  0  0
    3.6050   -0.7926    0.7360 C   0  0  0  0  0  0  0  0  0  0  0  0
    0.7485    0.0565    0.6965 H   0  0  0  0  0  0  0  0  0  0  0  0
   -2.4381    1.1331    1.8187 H   0  0  0  0  0  0  0  0  0  0  0  0
   -0.2406    1.8727   -0.0562 H   0  0  0  0  0  0  0  0  0  0  0  0
   -1.4110    2.9738    0.6305 H   0  0  0  0  0  0  0  0  0  0  0  0
   -3.8066    2.9168   -0.0380 H   0  0  0  0  0  0  0  0  0  0  0  0
   -5.4134    2.3605   -1.8293 H   0  0  0  0  0  0  0  0  0  0  0  0
   -4.7996    0.7311   -3.5956 H   0  0  0  0  0  0  0  0  0  0  0  0
   -2.5679   -0.3505   -3.5638 H   0  0  0  0  0  0  0  0  0  0  0  0
   -0.9487    0.1924   -1.7824 H   0  0  0  0  0  0  0  0  0  0  0  0
   -4.7241   -1.7663    3.6397 H   0  0  0  0  0  0  0  0  0  0  0  0
   -3.8423   -4.0317    3.6388 H   0  0  0  0  0  0  0  0  0  0  0  0
    1.7382   -1.6537   -1.9629 H   0  0  0  0  0  0  0  0  0  0  0  0
    3.2268    0.0200   -3.0254 H   0  0  0  0  0  0  0  0  0  0  0  0
    6.6578    2.6314   -1.9278 H   0  0  0  0  0  0  0  0  0  0  0  0
    5.7639    2.5976   -0.4032 H   0  0  0  0  0  0  0  0  0  0  0  0
    6.8608    1.2363   -0.8609 H   0  0  0  0  0  0  0  0  0  0  0  0
    5.2069    0.6184    0.7598 H   0  0  0  0  0  0  0  0  0  0  0  0
    3.7198   -1.0358    1.7894 H   0  0  0  0  0  0  0  0  0  0  0  0
  1  2  1  0
  2  3  1  0
  3  4  1  0
  4  5  1  0
  5  6  2  0
  6  7  1  0
  7  8  2  0
  8  9  1  0
  9 10  2  0
  2 11  2  0
 11 12  1  0
 12 13  2  0
 13 14  1  0
 14 15  2  0
 15 16  1  0
 16 17  2  0
 17 18  1  0
 18 19  2  3
 19 20  1  0
 20 21  2  0
 21 22  1  0
 22 23  2  0
 23 24  1  0
 24 25  1  0
 23 26  1  0
 26 27  2  0
 18  1  1  0
 27 20  1  0
 10  5  1  0
 16 11  1  0
  1 28  1  0
  3 29  1  0
  4 30  1  0
  4 31  1  0
  6 32  1  0
  7 33  1  0
  8 34  1  0
  9 35  1  0
 10 36  1  0
 13 37  1  0
 14 38  1  0
 21 39  1  0
 22 40  1  0
 25 41  1  0
 25 42  1  0
 25 43  1  0
 26 44  1  0
 27 45  1  0
M  END
>  <ScrubInfo>  (2) 
{"isomerGroup": 0, "isomerId": 1, "confId": 0, "nr_conformers:": 1, "nr_isomers:": 9}

$$$$
_i2
     RDKit          3D

 45 48  0  0  0  0  0  0  0  0999 V2000
   -0.3254    0.4504   -0.0718 N   0  0  0  0  0  0  0  0  0  0  0  0
    0.9489   -0.0491   -0.1416 C   0  0  0  0  0  0  0  0  0  0  0  0
    1.9008    0.9387   -0.0938 N   0  0  0  0  0  0  0  0  0  0  0  0
    3.3059    0.8254   -0.0970 C   0  0  0  0  0  0  0  0  0  0  0  0
    3.9999   -0.3769    0.0677 C   0  0  0  0  0  0  0  0  0  0  0  0
    5.4030   -0.4191    0.0789 C   0  0  0  0  0  0  0  0  0  0  0  0
    6.1439    0.7500   -0.0646 C   0  0  0  0  0  0  0  0  0  0  0  0
    7.5070    0.8479   -0.0707 O   0  0  0  0  0  0  0  0  0  0  0  0
    8.2361   -0.3662    0.0617 C   0  0  0  0  0  0  0  0  0  0  0  0
    5.4682    1.9590   -0.2134 C   0  0  0  0  0  0  0  0  0  0  0  0
    4.0693    1.9972   -0.2249 C   0  0  0  0  0  0  0  0  0  0  0  0
    1.1672   -1.3270   -0.2432 N   0  0  0  0  0  0  0  0  0  0  0  0
    0.0443   -2.1768   -0.2861 C   0  0  0  0  0  0  0  0  0  0  0  0
    0.3456   -3.4924   -0.4038 N   0  0  0  0  0  0  0  0  0  0  0  0
   -0.7113   -4.3366   -0.4509 C   0  0  0  0  0  0  0  0  0  0  0  0
   -2.0259   -3.8986   -0.3833 C   0  0  0  0  0  0  0  0  0  0  0  0
   -2.3537   -2.5927   -0.2644 N   0  0  0  0  0  0  0  0  0  0  0  0
   -1.2906   -1.7476   -0.2176 C   0  0  0  0  0  0  0  0  0  0  0  0
   -1.4914   -0.2748   -0.0820 C   0  0  0  0  0  0  0  0  0  0  0  0
   -2.5930    0.3981    0.0316 N   0  0  0  0  0  0  0  0  0  0  0  0
   -3.8884   -0.2710    0.0381 C   0  0  0  0  0  0  0  0  0  0  0  0
   -5.0001    0.7431    0.1939 C   0  0  0  0  0  0  0  0  0  0  0  0
   -5.5839    1.3385   -0.9329 C   0  0  0  0  0  0  0  0  0  0  0  0
   -6.5993    2.2854   -0.7877 C   0  0  0  0  0  0  0  0  0  0  0  0
   -7.0336    2.6535    0.4847 C   0  0  0  0  0  0  0  0  0  0  0  0
   -6.4490    2.0802    1.6127 C   0  0  0  0  0  0  0  0  0  0  0  0
   -5.4335    1.1332    1.4688 C   0  0  0  0  0  0  0  0  0  0  0  0
   -0.4710    1.4349    0.0948 H   0  0  0  0  0  0  0  0  0  0  0  0
    1.5851    1.8778   -0.2875 H   0  0  0  0  0  0  0  0  0  0  0  0
    3.4723   -1.3178    0.1969 H   0  0  0  0  0  0  0  0  0  0  0  0
    5.8757   -1.3874    0.2057 H   0  0  0  0  0  0  0  0  0  0  0  0
    9.3020   -0.1210    0.0282 H   0  0  0  0  0  0  0  0  0  0  0  0
    8.0248   -1.0469   -0.7696 H   0  0  0  0  0  0  0  0  0  0  0  0
    8.0348   -0.8440    1.0262 H   0  0  0  0  0  0  0  0  0  0  0  0
    6.0337    2.8814   -0.3204 H   0  0  0  0  0  0  0  0  0  0  0  0
    3.5861    2.9643   -0.3388 H   0  0  0  0  0  0  0  0  0  0  0  0
   -0.4695   -5.3897   -0.5459 H   0  0  0  0  0  0  0  0  0  0  0  0
   -2.8554   -4.5966   -0.4234 H   0  0  0  0  0  0  0  0  0  0  0  0
   -3.9592   -0.9838    0.8686 H   0  0  0  0  0  0  0  0  0  0  0  0
   -4.0531   -0.8169   -0.8988 H   0  0  0  0  0  0  0  0  0  0  0  0
   -5.2433    1.0677   -1.9294 H   0  0  0  0  0  0  0  0  0  0  0  0
   -7.0473    2.7389   -1.6676 H   0  0  0  0  0  0  0  0  0  0  0  0
   -7.8224    3.3921    0.5973 H   0  0  0  0  0  0  0  0  0  0  0  0
   -6.7796    2.3736    2.6053 H   0  0  0  0  0  0  0  0  0  0  0  0
   -4.9747    0.7013    2.3550 H   0  0  0  0  0  0  0  0  0  0  0  0
  1  2  1  0
  2  3  1  0
  3  4  1  0
  4  5  2  0
  5  6  1  0
  6  7  2  0
  7  8  1  0
  8  9  1  0
  7 10  1  0
 10 11  2  0
  2 12  2  0
 12 13  1  0
 13 14  2  0
 14 15  1  0
 15 16  2  0
 16 17  1  0
 17 18  2  0
 18 19  1  0
 19 20  2  3
 20 21  1  0
 21 22  1  0
 22 23  2  0
 23 24  1  0
 24 25  2  0
 25 26  1  0
 26 27  2  0
 19  1  1  0
 27 22  1  0
 11  4  1  0
 18 13  1  0
  1 28  1  0
  3 29  1  0
  5 30  1  0
  6 31  1  0
  9 32  1  0
  9 33  1  0
  9 34  1  0
 10 35  1  0
 11 36  1  0
 15 37  1  0
 16 38  1  0
 21 39  1  0
 21 40  1  0
 23 41  1  0
 24 42  1  0
 25 43  1  0
 26 44  1  0
 27 45  1  0
M  END
>  <ScrubInfo>  (3) 
{"isomerGroup": 0, "isomerId": 2, "confId": 0, "nr_conformers:": 1, "nr_isomers:": 9}

$$$$
_i3
     RDKit          3D

 45 48  0  0  0  0  0  0  0  0999 V2000
    1.3368   -0.9181    0.5489 N   0  0  0  0  0  0  0  0  0  0  0  0
    0.8882   -0.0468   -0.4039 C   0  0  0  0  0  0  0  0  0  0  0  0
    1.6295    0.5693   -1.2733 N   0  0  0  0  0  0  0  0  0  0  0  0
    3.0111    0.3526   -1.2762 C   0  0  0  0  0  0  0  0  0  0  0  0
    3.5634   -0.6927   -2.0165 C   0  0  0  0  0  0  0  0  0  0  0  0
    4.9437   -0.9070   -2.0090 C   0  0  0  0  0  0  0  0  0  0  0  0
    5.7895   -0.0711   -1.2751 C   0  0  0  0  0  0  0  0  0  0  0  0
    7.1165   -0.3916   -1.3515 O   0  0  0  0  0  0  0  0  0  0  0  0
    8.0248    0.4656   -0.6716 C   0  0  0  0  0  0  0  0  0  0  0  0
    5.2408    0.9870   -0.5496 C   0  0  0  0  0  0  0  0  0  0  0  0
    3.8573    1.1984   -0.5567 C   0  0  0  0  0  0  0  0  0  0  0  0
   -0.4498    0.2605   -0.5191 N   0  0  0  0  0  0  0  0  0  0  0  0
   -1.3120   -0.2760    0.2991 C   0  0  0  0  0  0  0  0  0  0  0  0
   -2.6597    0.0032    0.1983 N   0  0  0  0  0  0  0  0  0  0  0  0
   -3.1686    1.1190   -0.5647 C   0  0  0  0  0  0  0  0  0  0  0  0
   -4.6745    1.1487   -0.4636 C   0  0  0  0  0  0  0  0  0  0  0  0
   -5.4533    0.2784   -1.2407 C   0  0  0  0  0  0  0  0  0  0  0  0
   -6.8448    0.2873   -1.1350 C   0  0  0  0  0  0  0  0  0  0  0  0
   -7.4711    1.1605   -0.2475 C   0  0  0  0  0  0  0  0  0  0  0  0
   -6.7074    2.0226    0.5376 C   0  0  0  0  0  0  0  0  0  0  0  0
   -5.3153    2.0151    0.4338 C   0  0  0  0  0  0  0  0  0  0  0  0
   -0.8913   -1.2120    1.3802 C   0  0  0  0  0  0  0  0  0  0  0  0
   -1.8381   -1.7059    2.2253 N   0  0  0  0  0  0  0  0  0  0  0  0
   -1.3427   -2.5403    3.1649 C   0  0  0  0  0  0  0  0  0  0  0  0
    0.0100   -2.8480    3.2523 C   0  0  0  0  0  0  0  0  0  0  0  0
    0.9404   -2.3361    2.4057 N   0  0  0  0  0  0  0  0  0  0  0  0
    0.4668   -1.5001    1.4528 C   0  0  0  0  0  0  0  0  0  0  0  0
    2.3123   -1.1448    0.6380 H   0  0  0  0  0  0  0  0  0  0  0  0
    2.9164   -1.3382   -2.6042 H   0  0  0  0  0  0  0  0  0  0  0  0
    5.3637   -1.7260   -2.5877 H   0  0  0  0  0  0  0  0  0  0  0  0
    7.8487    0.4487    0.4090 H   0  0  0  0  0  0  0  0  0  0  0  0
    7.9754    1.4864   -1.0651 H   0  0  0  0  0  0  0  0  0  0  0  0
    9.0367    0.0890   -0.8497 H   0  0  0  0  0  0  0  0  0  0  0  0
    5.8567    1.6692    0.0262 H   0  0  0  0  0  0  0  0  0  0  0  0
    3.4332    2.0315   -0.0018 H   0  0  0  0  0  0  0  0  0  0  0  0
   -3.2341   -0.3039    0.9807 H   0  0  0  0  0  0  0  0  0  0  0  0
   -2.7493    2.0594   -0.1874 H   0  0  0  0  0  0  0  0  0  0  0  0
   -2.8773    1.0356   -1.6188 H   0  0  0  0  0  0  0  0  0  0  0  0
   -4.9724   -0.4135   -1.9297 H   0  0  0  0  0  0  0  0  0  0  0  0
   -7.4391   -0.3889   -1.7440 H   0  0  0  0  0  0  0  0  0  0  0  0
   -8.5548    1.1671   -0.1661 H   0  0  0  0  0  0  0  0  0  0  0  0
   -7.1964    2.7007    1.2321 H   0  0  0  0  0  0  0  0  0  0  0  0
   -4.7323    2.6900    1.0567 H   0  0  0  0  0  0  0  0  0  0  0  0
   -2.0636   -2.9633    3.8564 H   0  0  0  0  0  0  0  0  0  0  0  0
    0.3862   -3.5215    4.0154 H   0  0  0  0  0  0  0  0  0  0  0  0
  1  2  1  0
  2  3  2  3
  3  4  1  0
  4  5  2  0
  5  6  1  0
  6  7  2  0
  7  8  1  0
  8  9  1  0
  7 10  1  0
 10 11  2  0
  2 12  1  0
 12 13  2  0
 13 14  1  0
 14 15  1  0
 15 16  1  0
 16 17  2  0
 17 18  1  0
 18 19  2  0
 19 20  1  0
 20 21  2  0
 13 22  1  0
 22 23  2  0
 23 24  1  0
 24 25  2  0
 25 26  1  0
 26 27  2  0
 27  1  1  0
 11  4  1  0
 21 16  1  0
 27 22  1  0
  1 28  1  0
  5 29  1  0
  6 30  1  0
  9 31  1  0
  9 32  1  0
  9 33  1  0
 10 34  1  0
 11 35  1  0
 14 36  1  0
 15 37  1  0
 15 38  1  0
 17 39  1  0
 18 40  1  0
 19 41  1  0
 20 42  1  0
 21 43  1  0
 24 44  1  0
 25 45  1  0
M  END
>  <ScrubInfo>  (4) 
{"isomerGroup": 0, "isomerId": 3, "confId": 0, "nr_conformers:": 1, "nr_isomers:": 9}

$$$$
_i4
     RDKit          3D

 45 48  0  0  0  0  0  0  0  0999 V2000
    0.8694   -3.1420   -0.9323 N   0  0  0  0  0  0  0  0  0  0  0  0
    0.0402   -4.1538   -1.3336 C   0  0  0  0  0  0  0  0  0  0  0  0
   -1.2631   -4.1506   -1.0063 C   0  0  0  0  0  0  0  0  0  0  0  0
   -1.8671   -3.1605   -0.2535 N   0  0  0  0  0  0  0  0  0  0  0  0
   -1.0969   -2.1739    0.1360 C   0  0  0  0  0  0  0  0  0  0  0  0
   -1.6688   -1.0611    0.9702 C   0  0  0  0  0  0  0  0  0  0  0  0
   -2.9929   -1.1579    1.3472 N   0  0  0  0  0  0  0  0  0  0  0  0
   -3.7845    0.0085    1.6743 C   0  0  0  0  0  0  0  0  0  0  0  0
   -4.3092    0.6511    0.4139 C   0  0  0  0  0  0  0  0  0  0  0  0
   -3.5812    1.6707   -0.2171 C   0  0  0  0  0  0  0  0  0  0  0  0
   -4.0502    2.2507   -1.3964 C   0  0  0  0  0  0  0  0  0  0  0  0
   -5.2475    1.8142   -1.9601 C   0  0  0  0  0  0  0  0  0  0  0  0
   -5.9755    0.7955   -1.3477 C   0  0  0  0  0  0  0  0  0  0  0  0
   -5.5081    0.2132   -0.1681 C   0  0  0  0  0  0  0  0  0  0  0  0
   -0.8925   -0.0778    1.2883 N   0  0  0  0  0  0  0  0  0  0  0  0
    0.4080   -0.0646    0.8531 C   0  0  0  0  0  0  0  0  0  0  0  0
    1.0416    1.0251    1.1532 N   0  0  0  0  0  0  0  0  0  0  0  0
    2.3790    1.1786    0.7675 C   0  0  0  0  0  0  0  0  0  0  0  0
    3.4092    0.8354    1.6460 C   0  0  0  0  0  0  0  0  0  0  0  0
    4.7493    1.0124    1.2817 C   0  0  0  0  0  0  0  0  0  0  0  0
    5.0693    1.5486    0.0340 C   0  0  0  0  0  0  0  0  0  0  0  0
    6.3302    1.7718   -0.4468 O   0  0  0  0  0  0  0  0  0  0  0  0
    7.4117    1.4636    0.4233 C   0  0  0  0  0  0  0  0  0  0  0  0
    4.0392    1.9087   -0.8386 C   0  0  0  0  0  0  0  0  0  0  0  0
    2.7023    1.7325   -0.4719 C   0  0  0  0  0  0  0  0  0  0  0  0
    1.0527   -1.0603    0.1588 N   0  0  0  0  0  0  0  0  0  0  0  0
    0.3687   -2.0866   -0.2134 C   0  0  0  0  0  0  0  0  0  0  0  0
    1.8372   -3.1250   -1.2268 H   0  0  0  0  0  0  0  0  0  0  0  0
    0.4978   -4.9395   -1.9249 H   0  0  0  0  0  0  0  0  0  0  0  0
   -1.9113   -4.9601   -1.3331 H   0  0  0  0  0  0  0  0  0  0  0  0
   -3.5009   -1.8790    0.8372 H   0  0  0  0  0  0  0  0  0  0  0  0
   -3.2161    0.7310    2.2724 H   0  0  0  0  0  0  0  0  0  0  0  0
   -4.6284   -0.2995    2.3029 H   0  0  0  0  0  0  0  0  0  0  0  0
   -2.6389    2.0142    0.2086 H   0  0  0  0  0  0  0  0  0  0  0  0
   -3.4782    3.0414   -1.8752 H   0  0  0  0  0  0  0  0  0  0  0  0
   -5.6115    2.2666   -2.8788 H   0  0  0  0  0  0  0  0  0  0  0  0
   -6.9073    0.4533   -1.7907 H   0  0  0  0  0  0  0  0  0  0  0  0
   -6.0854   -0.5838    0.2947 H   0  0  0  0  0  0  0  0  0  0  0  0
    3.1623    0.4272    2.6221 H   0  0  0  0  0  0  0  0  0  0  0  0
    5.5118    0.7248    1.9969 H   0  0  0  0  0  0  0  0  0  0  0  0
    7.3700    2.0676    1.3358 H   0  0  0  0  0  0  0  0  0  0  0  0
    7.4373    0.3941    0.6570 H   0  0  0  0  0  0  0  0  0  0  0  0
    8.3412    1.7123   -0.0978 H   0  0  0  0  0  0  0  0  0  0  0  0
    4.2779    2.3359   -1.8090 H   0  0  0  0  0  0  0  0  0  0  0  0
    1.9095    2.0269   -1.1528 H   0  0  0  0  0  0  0  0  0  0  0  0
  1  2  1  0
  2  3  2  0
  3  4  1  0
  4  5  2  0
  5  6  1  0
  6  7  1  0
  7  8  1  0
  8  9  1  0
  9 10  2  0
 10 11  1  0
 11 12  2  0
 12 13  1  0
 13 14  2  0
  6 15  2  0
 15 16  1  0
 16 17  2  3
 17 18  1  0
 18 19  2  0
 19 20  1  0
 20 21  2  0
 21 22  1  0
 22 23  1  0
 21 24  1  0
 24 25  2  0
 16 26  1  0
 26 27  2  0
 27  1  1  0
 27  5  1  0
 14  9  1  0
 25 18  1  0
  1 28  1  0
  2 29  1  0
  3 30  1  0
  7 31  1  0
  8 32  1  0
  8 33  1  0
 10 34  1  0
 11 35  1  0
 12 36  1  0
 13 37  1  0
 14 38  1  0
 19 39  1  0
 20 40  1  0
 23 41  1  0
 23 42  1  0
 23 43  1  0
 24 44  1  0
 25 45  1  0
M  END
>  <ScrubInfo>  (5) 
{"isomerGroup": 0, "isomerId": 4, "confId": 0, "nr_conformers:": 1, "nr_isomers:": 9}

$$$$
_i5
     RDKit          3D

 45 48  0  0  0  0  0  0  0  0999 V2000
    0.8943   -1.7689    0.5557 N   0  0  0  0  0  0  0  0  0  0  0  0
    0.6248   -0.4421    0.6619 C   0  0  0  0  0  0  0  0  0  0  0  0
    1.6858    0.3646    0.9660 N   0  0  0  0  0  0  0  0  0  0  0  0
    2.9766    0.3374    0.3948 C   0  0  0  0  0  0  0  0  0  0  0  0
    4.0036    1.0377    1.0435 C   0  0  0  0  0  0  0  0  0  0  0  0
    5.3124    1.0388    0.5441 C   0  0  0  0  0  0  0  0  0  0  0  0
    5.6157    0.3376   -0.6201 C   0  0  0  0  0  0  0  0  0  0  0  0
    6.8431    0.2537   -1.2152 O   0  0  0  0  0  0  0  0  0  0  0  0
    7.9106    0.9562   -0.5911 C   0  0  0  0  0  0  0  0  0  0  0  0
    4.5993   -0.3583   -1.2753 C   0  0  0  0  0  0  0  0  0  0  0  0
    3.2926   -0.3598   -0.7748 C   0  0  0  0  0  0  0  0  0  0  0  0
   -0.5603    0.0851    0.5639 N   0  0  0  0  0  0  0  0  0  0  0  0
   -1.6384   -0.7398    0.2838 C   0  0  0  0  0  0  0  0  0  0  0  0
   -2.8162   -0.2343    0.1286 N   0  0  0  0  0  0  0  0  0  0  0  0
   -2.9455    1.2141    0.2589 C   0  0  0  0  0  0  0  0  0  0  0  0
   -4.3769    1.6499    0.0451 C   0  0  0  0  0  0  0  0  0  0  0  0
   -5.2507    1.7888    1.1321 C   0  0  0  0  0  0  0  0  0  0  0  0
   -6.5749    2.1826    0.9307 C   0  0  0  0  0  0  0  0  0  0  0  0
   -7.0408    2.4310   -0.3594 C   0  0  0  0  0  0  0  0  0  0  0  0
   -6.1857    2.2784   -1.4496 C   0  0  0  0  0  0  0  0  0  0  0  0
   -4.8615    1.8847   -1.2492 C   0  0  0  0  0  0  0  0  0  0  0  0
   -1.4341   -2.2149    0.1659 C   0  0  0  0  0  0  0  0  0  0  0  0
   -2.4929   -3.0363   -0.0739 N   0  0  0  0  0  0  0  0  0  0  0  0
   -2.1849   -4.3479   -0.1440 C   0  0  0  0  0  0  0  0  0  0  0  0
   -0.8890   -4.8153    0.0172 C   0  0  0  0  0  0  0  0  0  0  0  0
    0.1642   -3.9939    0.2549 N   0  0  0  0  0  0  0  0  0  0  0  0
   -0.1290   -2.6732    0.3271 C   0  0  0  0  0  0  0  0  0  0  0  0
    1.8117   -2.1491    0.7257 H   0  0  0  0  0  0  0  0  0  0  0  0
    1.3878    1.3223    1.1335 H   0  0  0  0  0  0  0  0  0  0  0  0
    3.7938    1.5833    1.9614 H   0  0  0  0  0  0  0  0  0  0  0  0
    6.0665    1.5944    1.0914 H   0  0  0  0  0  0  0  0  0  0  0  0
    7.7158    2.0336   -0.5711 H   0  0  0  0  0  0  0  0  0  0  0  0
    8.8129    0.7920   -1.1880 H   0  0  0  0  0  0  0  0  0  0  0  0
    8.1021    0.5696    0.4153 H   0  0  0  0  0  0  0  0  0  0  0  0
    4.8238   -0.9006   -2.1911 H   0  0  0  0  0  0  0  0  0  0  0  0
    2.5302   -0.8909   -1.3383 H   0  0  0  0  0  0  0  0  0  0  0  0
   -2.6234    1.5466    1.2545 H   0  0  0  0  0  0  0  0  0  0  0  0
   -2.3143    1.7316   -0.4758 H   0  0  0  0  0  0  0  0  0  0  0  0
   -4.9014    1.5807    2.1405 H   0  0  0  0  0  0  0  0  0  0  0  0
   -7.2439    2.2868    1.7802 H   0  0  0  0  0  0  0  0  0  0  0  0
   -8.0727    2.7322   -0.5161 H   0  0  0  0  0  0  0  0  0  0  0  0
   -6.5508    2.4570   -2.4570 H   0  0  0  0  0  0  0  0  0  0  0  0
   -4.2058    1.7505   -2.1061 H   0  0  0  0  0  0  0  0  0  0  0  0
   -3.0134   -5.0215   -0.3341 H   0  0  0  0  0  0  0  0  0  0  0  0
   -0.6606   -5.8742   -0.0416 H   0  0  0  0  0  0  0  0  0  0  0  0
  1  2  1  0
  2  3  1  0
  3  4  1  0
  4  5  2  0
  5  6  1  0
  6  7  2  0
  7  8  1  0
  8  9  1  0
  7 10  1  0
 10 11  2  0
  2 12  2  0
 12 13  1  0
 13 14  2  3
 14 15  1  0
 15 16  1  0
 16 17  2  0
 17 18  1  0
 18 19  2  0
 19 20  1  0
 20 21  2  0
 13 22  1  0
 22 23  2  0
 23 24  1  0
 24 25  2  0
 25 26  1  0
 26 27  2  0
 27  1  1  0
 11  4  1  0
 21 16  1  0
 27 22  1  0
  1 28  1  0
  3 29  1  0
  5 30  1  0
  6 31  1  0
  9 32  1  0
  9 33  1  0
  9 34  1  0
 10 35  1  0
 11 36  1  0
 15 37  1  0
 15 38  1  0
 17 39  1  0
 18 40  1  0
 19 41  1  0
 20 42  1  0
 21 43  1  0
 24 44  1  0
 25 45  1  0
M  END
>  <ScrubInfo>  (6) 
{"isomerGroup": 0, "isomerId": 5, "confId": 0, "nr_conformers:": 1, "nr_isomers:": 9}

$$$$
_i6
     RDKit          3D

 45 48  0  0  0  0  0  0  0  0999 V2000
   -0.5539   -4.7997    2.3371 N   0  0  0  0  0  0  0  0  0  0  0  0
   -1.7057   -4.9649    3.0576 C   0  0  0  0  0  0  0  0  0  0  0  0
   -2.6208   -3.9844    3.1279 C   0  0  0  0  0  0  0  0  0  0  0  0
   -2.4881   -2.7637    2.4967 N   0  0  0  0  0  0  0  0  0  0  0  0
   -1.3960   -2.5735    1.8000 C   0  0  0  0  0  0  0  0  0  0  0  0
   -1.1021   -1.3148    1.0475 C   0  0  0  0  0  0  0  0  0  0  0  0
   -1.9924   -0.3816    1.0274 N   0  0  0  0  0  0  0  0  0  0  0  0
   -1.6633    0.8292    0.2737 C   0  0  0  0  0  0  0  0  0  0  0  0
   -2.7871    1.8447    0.2771 C   0  0  0  0  0  0  0  0  0  0  0  0
   -2.9319    2.7296   -0.8023 C   0  0  0  0  0  0  0  0  0  0  0  0
   -3.9363    3.7000   -0.7981 C   0  0  0  0  0  0  0  0  0  0  0  0
   -4.8013    3.8043    0.2893 C   0  0  0  0  0  0  0  0  0  0  0  0
   -4.6607    2.9409    1.3737 C   0  0  0  0  0  0  0  0  0  0  0  0
   -3.6563    1.9710    1.3701 C   0  0  0  0  0  0  0  0  0  0  0  0
    0.0927   -1.1785    0.3980 N   0  0  0  0  0  0  0  0  0  0  0  0
    0.9530   -2.1478    0.3921 C   0  0  0  0  0  0  0  0  0  0  0  0
    2.1602   -2.0788   -0.2494 N   0  0  0  0  0  0  0  0  0  0  0  0
    2.8189   -1.0186   -0.8893 C   0  0  0  0  0  0  0  0  0  0  0  0
    2.3636    0.3026   -0.9034 C   0  0  0  0  0  0  0  0  0  0  0  0
    3.0578    1.3124   -1.5886 C   0  0  0  0  0  0  0  0  0  0  0  0
    4.2251    1.0154   -2.2855 C   0  0  0  0  0  0  0  0  0  0  0  0
    4.9928    1.8988   -2.9904 O   0  0  0  0  0  0  0  0  0  0  0  0
    4.5550    3.2518   -3.0145 C   0  0  0  0  0  0  0  0  0  0  0  0
    4.6879   -0.2983   -2.2904 C   0  0  0  0  0  0  0  0  0  0  0  0
    3.9929   -1.3011   -1.6052 C   0  0  0  0  0  0  0  0  0  0  0  0
    0.7596   -3.3615    1.0112 N   0  0  0  0  0  0  0  0  0  0  0  0
   -0.3130   -3.6151    1.6865 C   0  0  0  0  0  0  0  0  0  0  0  0
    0.1373   -5.5369    2.3127 H   0  0  0  0  0  0  0  0  0  0  0  0
   -1.8261   -5.9193    3.5585 H   0  0  0  0  0  0  0  0  0  0  0  0
   -3.5336   -4.1221    3.7022 H   0  0  0  0  0  0  0  0  0  0  0  0
   -0.7823    1.3201    0.7063 H   0  0  0  0  0  0  0  0  0  0  0  0
   -1.4442    0.5639   -0.7687 H   0  0  0  0  0  0  0  0  0  0  0  0
   -2.2621    2.6644   -1.6565 H   0  0  0  0  0  0  0  0  0  0  0  0
   -4.0429    4.3742   -1.6434 H   0  0  0  0  0  0  0  0  0  0  0  0
   -5.5840    4.5576    0.2926 H   0  0  0  0  0  0  0  0  0  0  0  0
   -5.3322    3.0189    2.2242 H   0  0  0  0  0  0  0  0  0  0  0  0
   -3.5568    1.3028    2.2235 H   0  0  0  0  0  0  0  0  0  0  0  0
    2.6915   -2.9351   -0.1806 H   0  0  0  0  0  0  0  0  0  0  0  0
    1.4638    0.5912   -0.3704 H   0  0  0  0  0  0  0  0  0  0  0  0
    2.6519    2.3179   -1.5520 H   0  0  0  0  0  0  0  0  0  0  0  0
    5.2697    3.8237   -3.6141 H   0  0  0  0  0  0  0  0  0  0  0  0
    4.5460    3.6818   -2.0074 H   0  0  0  0  0  0  0  0  0  0  0  0
    3.5735    3.3408   -3.4919 H   0  0  0  0  0  0  0  0  0  0  0  0
    5.5956   -0.5473   -2.8346 H   0  0  0  0  0  0  0  0  0  0  0  0
    4.3846   -2.3148   -1.6441 H   0  0  0  0  0  0  0  0  0  0  0  0
  1  2  1  0
  2  3  2  0
  3  4  1  0
  4  5  2  0
  5  6  1  0
  6  7  2  3
  7  8  1  0
  8  9  1  0
  9 10  2  0
 10 11  1  0
 11 12  2  0
 12 13  1  0
 13 14  2  0
  6 15  1  0
 15 16  2  0
 16 17  1  0
 17 18  1  0
 18 19  2  0
 19 20  1  0
 20 21  2  0
 21 22  1  0
 22 23  1  0
 21 24  1  0
 24 25  2  0
 16 26  1  0
 26 27  2  0
 27  1  1  0
 27  5  1  0
 14  9  1  0
 25 18  1  0
  1 28  1  0
  2 29  1  0
  3 30  1  0
  8 31  1  0
  8 32  1  0
 10 33  1  0
 11 34  1  0
 12 35  1  0
 13 36  1  0
 14 37  1  0
 17 38  1  0
 19 39  1  0
 20 40  1  0
 23 41  1  0
 23 42  1  0
 23 43  1  0
 24 44  1  0
 25 45  1  0
M  END
>  <ScrubInfo>  (7) 
{"isomerGroup": 0, "isomerId": 6, "confId": 0, "nr_conformers:": 1, "nr_isomers:": 9}

$$$$
_i7
     RDKit          3D

 45 48  0  0  0  0  0  0  0  0999 V2000
    1.2892   -1.0271    0.3573 N   0  0  0  0  0  0  0  0  0  0  0  0
    0.8491    0.2524    0.1576 C   0  0  0  0  0  0  0  0  0  0  0  0
    1.5663    1.3347    0.0771 N   0  0  0  0  0  0  0  0  0  0  0  0
    2.9569    1.2308    0.2049 C   0  0  0  0  0  0  0  0  0  0  0  0
    3.5604    1.3098    1.4598 C   0  0  0  0  0  0  0  0  0  0  0  0
    4.9479    1.2020    1.5804 C   0  0  0  0  0  0  0  0  0  0  0  0
    5.7492    1.0273    0.4491 C   0  0  0  0  0  0  0  0  0  0  0  0
    7.0886    0.9343    0.7070 O   0  0  0  0  0  0  0  0  0  0  0  0
    7.9516    0.7936   -0.4145 C   0  0  0  0  0  0  0  0  0  0  0  0
    5.1487    0.9655   -0.8087 C   0  0  0  0  0  0  0  0  0  0  0  0
    3.7581    1.0722   -0.9275 C   0  0  0  0  0  0  0  0  0  0  0  0
   -0.5107    0.3601    0.0318 N   0  0  0  0  0  0  0  0  0  0  0  0
   -1.4752   -0.6256    0.0766 C   0  0  0  0  0  0  0  0  0  0  0  0
   -2.7502   -0.4691   -0.0543 N   0  0  0  0  0  0  0  0  0  0  0  0
   -3.2918    0.8702   -0.2726 C   0  0  0  0  0  0  0  0  0  0  0  0
   -4.7987    0.8932   -0.4090 C   0  0  0  0  0  0  0  0  0  0  0  0
   -5.4216    1.9903   -1.0245 C   0  0  0  0  0  0  0  0  0  0  0  0
   -6.8128    2.0532   -1.1312 C   0  0  0  0  0  0  0  0  0  0  0  0
   -7.5991    1.0249   -0.6162 C   0  0  0  0  0  0  0  0  0  0  0  0
   -6.9953   -0.0646    0.0078 C   0  0  0  0  0  0  0  0  0  0  0  0
   -5.6044   -0.1274    0.1151 C   0  0  0  0  0  0  0  0  0  0  0  0
   -0.9416   -2.0102    0.3041 C   0  0  0  0  0  0  0  0  0  0  0  0
   -1.8051   -3.0581    0.3751 N   0  0  0  0  0  0  0  0  0  0  0  0
   -1.2188   -4.2550    0.5816 C   0  0  0  0  0  0  0  0  0  0  0  0
    0.1549   -4.3972    0.7115 C   0  0  0  0  0  0  0  0  0  0  0  0
    1.0141   -3.3493    0.6417 N   0  0  0  0  0  0  0  0  0  0  0  0
    0.4484   -2.1357    0.4346 C   0  0  0  0  0  0  0  0  0  0  0  0
    2.2711   -1.2314    0.4683 H   0  0  0  0  0  0  0  0  0  0  0  0
    2.9499    1.4579    2.3461 H   0  0  0  0  0  0  0  0  0  0  0  0
    5.4087    1.2617    2.5634 H   0  0  0  0  0  0  0  0  0  0  0  0
    8.9794    0.7477   -0.0417 H   0  0  0  0  0  0  0  0  0  0  0  0
    7.7505   -0.1388   -0.9522 H   0  0  0  0  0  0  0  0  0  0  0  0
    7.8776    1.6592   -1.0812 H   0  0  0  0  0  0  0  0  0  0  0  0
    5.7291    0.8403   -1.7164 H   0  0  0  0  0  0  0  0  0  0  0  0
    3.2956    1.0337   -1.9103 H   0  0  0  0  0  0  0  0  0  0  0  0
   -0.8131    1.3122   -0.1140 H   0  0  0  0  0  0  0  0  0  0  0  0
   -3.0290    1.5230    0.5692 H   0  0  0  0  0  0  0  0  0  0  0  0
   -2.8598    1.2876   -1.1910 H   0  0  0  0  0  0  0  0  0  0  0  0
   -4.8239    2.8045   -1.4275 H   0  0  0  0  0  0  0  0  0  0  0  0
   -7.2824    2.9052   -1.6151 H   0  0  0  0  0  0  0  0  0  0  0  0
   -8.6813    1.0722   -0.6994 H   0  0  0  0  0  0  0  0  0  0  0  0
   -7.6041   -0.8684    0.4125 H   0  0  0  0  0  0  0  0  0  0  0  0
   -5.1469   -0.9846    0.6062 H   0  0  0  0  0  0  0  0  0  0  0  0
   -1.8863   -5.1077    0.6410 H   0  0  0  0  0  0  0  0  0  0  0  0
    0.6069   -5.3694    0.8774 H   0  0  0  0  0  0  0  0  0  0  0  0
  1  2  1  0
  2  3  2  3
  3  4  1  0
  4  5  2  0
  5  6  1  0
  6  7  2  0
  7  8  1  0
  8  9  1  0
  7 10  1  0
 10 11  2  0
  2 12  1  0
 12 13  1  0
 13 14  2  3
 14 15  1  0
 15 16  1  0
 16 17  2  0
 17 18  1  0
 18 19  2  0
 19 20  1  0
 20 21  2  0
 13 22  1  0
 22 23  2  0
 23 24  1  0
 24 25  2  0
 25 26  1  0
 26 27  2  0
 27  1  1  0
 11  4  1  0
 21 16  1  0
 27 22  1  0
  1 28  1  0
  5 29  1  0
  6 30  1  0
  9 31  1  0
  9 32  1  0
  9 33  1  0
 10 34  1  0
 11 35  1  0
 12 36  1  0
 15 37  1  0
 15 38  1  0
 17 39  1  0
 18 40  1  0
 19 41  1  0
 20 42  1  0
 21 43  1  0
 24 44  1  0
 25 45  1  0
M  END
>  <ScrubInfo>  (8) 
{"isomerGroup": 0, "isomerId": 7, "confId": 0, "nr_conformers:": 1, "nr_isomers:": 9}

$$$$
_i8
     RDKit          3D

 45 48  0  0  0  0  0  0  0  0999 V2000
   -1.0088   -5.1929   -1.1128 N   0  0  0  0  0  0  0  0  0  0  0  0
   -2.3554   -5.4226   -1.1534 C   0  0  0  0  0  0  0  0  0  0  0  0
   -3.2320   -4.4365   -0.9069 C   0  0  0  0  0  0  0  0  0  0  0  0
   -2.8693   -3.1418   -0.5982 N   0  0  0  0  0  0  0  0  0  0  0  0
   -1.5892   -2.8725   -0.5457 C   0  0  0  0  0  0  0  0  0  0  0  0
   -1.0927   -1.4782   -0.2113 C   0  0  0  0  0  0  0  0  0  0  0  0
   -1.9609   -0.5609    0.0359 N   0  0  0  0  0  0  0  0  0  0  0  0
   -1.4862    0.7842    0.3554 C   0  0  0  0  0  0  0  0  0  0  0  0
   -2.6012    1.7690    0.6272 C   0  0  0  0  0  0  0  0  0  0  0  0
   -3.9114    1.5490    0.1795 C   0  0  0  0  0  0  0  0  0  0  0  0
   -4.9138    2.4920    0.4164 C   0  0  0  0  0  0  0  0  0  0  0  0
   -4.6169    3.6715    1.0957 C   0  0  0  0  0  0  0  0  0  0  0  0
   -3.3173    3.9101    1.5368 C   0  0  0  0  0  0  0  0  0  0  0  0
   -2.3146    2.9671    1.3007 C   0  0  0  0  0  0  0  0  0  0  0  0
    0.2705   -1.3978   -0.2232 N   0  0  0  0  0  0  0  0  0  0  0  0
    1.1667   -2.4004   -0.4846 C   0  0  0  0  0  0  0  0  0  0  0  0
    2.4583   -2.2786   -0.4861 N   0  0  0  0  0  0  0  0  0  0  0  0
    3.0379   -1.0378   -0.2029 C   0  0  0  0  0  0  0  0  0  0  0  0
    3.3416   -0.1507   -1.2374 C   0  0  0  0  0  0  0  0  0  0  0  0
    3.8951    1.1047   -0.9611 C   0  0  0  0  0  0  0  0  0  0  0  0
    4.1591    1.4767    0.3573 C   0  0  0  0  0  0  0  0  0  0  0  0
    4.6880    2.6690    0.7662 O   0  0  0  0  0  0  0  0  0  0  0  0
    5.0710    3.5864   -0.2510 C   0  0  0  0  0  0  0  0  0  0  0  0
    3.8730    0.5804    1.3905 C   0  0  0  0  0  0  0  0  0  0  0  0
    3.3233   -0.6732    1.1129 C   0  0  0  0  0  0  0  0  0  0  0  0
    0.7455   -3.6730   -0.7805 N   0  0  0  0  0  0  0  0  0  0  0  0
   -0.5233   -3.9428   -0.8211 C   0  0  0  0  0  0  0  0  0  0  0  0
   -0.3561   -5.9410   -1.3059 H   0  0  0  0  0  0  0  0  0  0  0  0
   -2.6610   -6.4350   -1.3938 H   0  0  0  0  0  0  0  0  0  0  0  0
   -4.3011   -4.6308   -0.9417 H   0  0  0  0  0  0  0  0  0  0  0  0
   -0.8478    0.7378    1.2470 H   0  0  0  0  0  0  0  0  0  0  0  0
   -0.8950    1.1800   -0.4801 H   0  0  0  0  0  0  0  0  0  0  0  0
   -4.1609    0.6328   -0.3532 H   0  0  0  0  0  0  0  0  0  0  0  0
   -5.9259    2.3018    0.0697 H   0  0  0  0  0  0  0  0  0  0  0  0
   -5.3983    4.4036    1.2800 H   0  0  0  0  0  0  0  0  0  0  0  0
   -3.0839    4.8309    2.0645 H   0  0  0  0  0  0  0  0  0  0  0  0
   -1.3049    3.1727    1.6486 H   0  0  0  0  0  0  0  0  0  0  0  0
    0.6807   -0.5023   -0.0126 H   0  0  0  0  0  0  0  0  0  0  0  0
    3.1496   -0.4419   -2.2673 H   0  0  0  0  0  0  0  0  0  0  0  0
    4.1118    1.7612   -1.7972 H   0  0  0  0  0  0  0  0  0  0  0  0
    5.8402    3.1573   -0.9017 H   0  0  0  0  0  0  0  0  0  0  0  0
    5.5006    4.4664    0.2371 H   0  0  0  0  0  0  0  0  0  0  0  0
    4.2023    3.9173   -0.8297 H   0  0  0  0  0  0  0  0  0  0  0  0
    4.0907    0.8568    2.4195 H   0  0  0  0  0  0  0  0  0  0  0  0
    3.1219   -1.3681    1.9239 H   0  0  0  0  0  0  0  0  0  0  0  0
  1  2  1  0
  2  3  2  0
  3  4  1  0
  4  5  2  0
  5  6  1  0
  6  7  2  3
  7  8  1  0
  8  9  1  0
  9 10  2  0
 10 11  1  0
 11 12  2  0
 12 13  1  0
 13 14  2  0
  6 15  1  0
 15 16  1  0
 16 17  2  3
 17 18  1  0
 18 19  2  0
 19 20  1  0
 20 21  2  0
 21 22  1  0
 22 23  1  0
 21 24  1  0
 24 25  2  0
 16 26  1  0
 26 27  2  0
 27  1  1  0
 27  5  1  0
 14  9  1  0
 25 18  1  0
  1 28  1  0
  2 29  1  0
  3 30  1  0
  8 31  1  0
  8 32  1  0
 10 33  1  0
 11 34  1  0
 12 35  1  0
 13 36  1  0
 14 37  1  0
 15 38  1  0
 19 39  1  0
 20 40  1  0
 23 41  1  0
 23 42  1  0
 23 43  1  0
 24 44  1  0
 25 45  1  0
M  END
>  <ScrubInfo>  (9) 
{"isomerGroup": 0, "isomerId": 8, "confId": 0, "nr_conformers:": 1, "nr_isomers:": 9}

$$$$
