_i0
     RDKit          3D

 41 43  0  0  0  0  0  0  0  0999 V2000
    7.3089    0.7745    1.0449 C   0  0  0  0  0  0  0  0  0  0  0  0
    6.4160   -0.1802    0.4858 O   0  0  0  0  0  0  0  0  0  0  0  0
    5.0820    0.1090    0.5529 C   0  0  0  0  0  0  0  0  0  0  0  0
    4.2430   -0.8564   -0.0010 C   0  0  0  0  0  0  0  0  0  0  0  0
    2.8523   -0.6872    0.0002 C   0  0  0  0  0  0  0  0  0  0  0  0
    2.2641    0.4499    0.5569 C   0  0  0  0  0  0  0  0  0  0  0  0
    0.8866    0.6859    0.5852 N   0  0  0  0  0  0  0  0  0  0  0  0
   -0.2302   -0.0297    0.1603 C   0  0  0  0  0  0  0  0  0  0  0  0
   -1.4033    0.5696    0.4072 N   0  0  0  0  0  0  0  0  0  0  0  0
   -2.5320   -0.0525    0.0224 C   0  0  0  0  0  0  0  0  0  0  0  0
   -3.7701    0.5707    0.2822 N   0  0  0  0  0  0  0  0  0  0  0  0
   -3.6930    1.9126    0.8609 C   0  0  0  0  0  0  0  0  0  0  0  0
   -5.0982    2.5259    0.8888 C   0  0  0  0  0  0  0  0  0  0  0  0
   -5.6132    2.6556   -0.4401 O   0  0  0  0  0  0  0  0  0  0  0  0
   -2.5119   -1.3161   -0.5881 C   0  0  0  0  0  0  0  0  0  0  0  0
   -3.6566   -2.0604   -0.9766 C   0  0  0  0  0  0  0  0  0  0  0  0
   -3.5263   -3.3053   -1.5877 C   0  0  0  0  0  0  0  0  0  0  0  0
   -2.2582   -3.8211   -1.8139 C   0  0  0  0  0  0  0  0  0  0  0  0
   -1.1334   -3.0907   -1.4206 C   0  0  0  0  0  0  0  0  0  0  0  0
   -1.2394   -1.8478   -0.8066 C   0  0  0  0  0  0  0  0  0  0  0  0
   -0.1209   -1.2141   -0.4478 N   0  0  0  0  0  0  0  0  0  0  0  0
    3.1221    1.4156    1.1079 C   0  0  0  0  0  0  0  0  0  0  0  0
    4.5146    1.2510    1.1093 C   0  0  0  0  0  0  0  0  0  0  0  0
    7.2407    1.7333    0.5204 H   0  0  0  0  0  0  0  0  0  0  0  0
    7.1341    0.8974    2.1189 H   0  0  0  0  0  0  0  0  0  0  0  0
    8.3274    0.3960    0.9148 H   0  0  0  0  0  0  0  0  0  0  0  0
    4.6702   -1.7541   -0.4411 H   0  0  0  0  0  0  0  0  0  0  0  0
    2.2476   -1.4702   -0.4459 H   0  0  0  0  0  0  0  0  0  0  0  0
    0.5747    1.5302    1.0403 H   0  0  0  0  0  0  0  0  0  0  0  0
   -4.3365    0.5818   -0.5658 H   0  0  0  0  0  0  0  0  0  0  0  0
   -3.2940    1.8669    1.8804 H   0  0  0  0  0  0  0  0  0  0  0  0
   -3.0484    2.5534    0.2465 H   0  0  0  0  0  0  0  0  0  0  0  0
   -5.0799    3.5181    1.3501 H   0  0  0  0  0  0  0  0  0  0  0  0
   -5.7897    1.8927    1.4537 H   0  0  0  0  0  0  0  0  0  0  0  0
   -5.0358    3.2785   -0.9149 H   0  0  0  0  0  0  0  0  0  0  0  0
   -4.6546   -1.6712   -0.7876 H   0  0  0  0  0  0  0  0  0  0  0  0
   -4.4093   -3.8681   -1.8792 H   0  0  0  0  0  0  0  0  0  0  0  0
   -2.1365   -4.7916   -2.2881 H   0  0  0  0  0  0  0  0  0  0  0  0
   -0.1430   -3.5065   -1.5944 H   0  0  0  0  0  0  0  0  0  0  0  0
    2.7105    2.3203    1.5493 H   0  0  0  0  0  0  0  0  0  0  0  0
    5.1197    2.0344    1.5521 H   0  0  0  0  0  0  0  0  0  0  0  0
  1  2  1  0
  2  3  1  0
  3  4  2  0
  4  5  1  0
  5  6  2  0
  6  7  1  0
  7  8  1  0
  8  9  2  0
  9 10  1  0
 10 11  1  0
 11 12  1  0
 12 13  1  0
 13 14  1  0
 10 15  2  0
 15 16  1  0
 16 17  2  0
 17 18  1  0
 18 19  2  0
 19 20  1  0
 20 21  2  0
  6 22  1  0
 22 23  2  0
 23  3  1  0
 21  8  1  0
 20 15  1  0
  1 24  1  0
  1 25  1  0
  1 26  1  0
  4 27  1  0
  5 28  1  0
  7 29  1  0
 11 30  1  0
 12 31  1  0
 12 32  1  0
 13 33  1  0
 13 34  1  0
 14 35  1  0
 16 36  1  0
 17 37  1  0
 18 38  1  0
 19 39  1  0
 22 40  1  0
 23 41  1  0
M  END
>  <ScrubInfo>  (1) 
{"isomerGroup": 0, "isomerId": 0, "confId": 0, "nr_conformers:": 1, "nr_isomers:": 6}

$$$$
_i1
     RDKit          3D

 41 43  0  0  0  0  0  0  0  0999 V2000
   -1.3517   -0.7248   -0.3487 N   0  0  0  0  0  0  0  0  0  0  0  0
   -2.3973   -0.0654    0.2503 C   0  0  0  0  0  0  0  0  0  0  0  0
   -3.7061   -0.4862    0.0280 N   0  0  0  0  0  0  0  0  0  0  0  0
   -4.1356   -1.3578   -1.0584 C   0  0  0  0  0  0  0  0  0  0  0  0
   -5.6383   -1.6442   -0.9786 C   0  0  0  0  0  0  0  0  0  0  0  0
   -6.0682   -2.4409   -2.0771 O   0  0  0  0  0  0  0  0  0  0  0  0
   -2.0916    0.9877    1.0522 C   0  0  0  0  0  0  0  0  0  0  0  0
   -3.0209    1.8050    1.8148 C   0  0  0  0  0  0  0  0  0  0  0  0
   -2.5922    2.8425    2.5476 C   0  0  0  0  0  0  0  0  0  0  0  0
   -1.1949    3.1921    2.6115 C   0  0  0  0  0  0  0  0  0  0  0  0
   -0.2540    2.4894    1.9682 C   0  0  0  0  0  0  0  0  0  0  0  0
   -0.6134    1.3052    1.1369 C   0  0  0  0  0  0  0  0  0  0  0  0
    0.3469    0.6535    0.5584 N   0  0  0  0  0  0  0  0  0  0  0  0
   -0.0311   -0.4301   -0.1881 C   0  0  0  0  0  0  0  0  0  0  0  0
    0.8535   -1.1993   -0.7558 N   0  0  0  0  0  0  0  0  0  0  0  0
    2.2148   -0.9085   -0.5915 C   0  0  0  0  0  0  0  0  0  0  0  0
    2.9379   -1.4749    0.4586 C   0  0  0  0  0  0  0  0  0  0  0  0
    4.3033   -1.2118    0.5980 C   0  0  0  0  0  0  0  0  0  0  0  0
    4.9658   -0.3894   -0.3167 C   0  0  0  0  0  0  0  0  0  0  0  0
    6.2991   -0.2131   -0.0663 O   0  0  0  0  0  0  0  0  0  0  0  0
    7.0160    0.6183   -0.9696 C   0  0  0  0  0  0  0  0  0  0  0  0
    4.2492    0.1657   -1.3775 C   0  0  0  0  0  0  0  0  0  0  0  0
    2.8813   -0.0995   -1.5145 C   0  0  0  0  0  0  0  0  0  0  0  0
   -1.5452   -1.5830   -0.8355 H   0  0  0  0  0  0  0  0  0  0  0  0
   -4.3976    0.2087    0.2911 H   0  0  0  0  0  0  0  0  0  0  0  0
   -3.9045   -0.8925   -2.0241 H   0  0  0  0  0  0  0  0  0  0  0  0
   -3.5953   -2.3112   -1.0275 H   0  0  0  0  0  0  0  0  0  0  0  0
   -6.2188   -0.7152   -0.9781 H   0  0  0  0  0  0  0  0  0  0  0  0
   -5.8747   -2.1828   -0.0550 H   0  0  0  0  0  0  0  0  0  0  0  0
   -5.9711   -1.9105   -2.8868 H   0  0  0  0  0  0  0  0  0  0  0  0
   -4.0769    1.5646    1.8109 H   0  0  0  0  0  0  0  0  0  0  0  0
   -3.2910    3.4429    3.1231 H   0  0  0  0  0  0  0  0  0  0  0  0
   -0.9168    4.0510    3.2153 H   0  0  0  0  0  0  0  0  0  0  0  0
    0.7979    2.7442    2.0235 H   0  0  0  0  0  0  0  0  0  0  0  0
    2.4332   -2.1189    1.1721 H   0  0  0  0  0  0  0  0  0  0  0  0
    4.8530   -1.6532    1.4249 H   0  0  0  0  0  0  0  0  0  0  0  0
    7.0107    0.1991   -1.9813 H   0  0  0  0  0  0  0  0  0  0  0  0
    8.0562    0.6592   -0.6324 H   0  0  0  0  0  0  0  0  0  0  0  0
    6.6236    1.6406   -0.9623 H   0  0  0  0  0  0  0  0  0  0  0  0
    4.7184    0.8057   -2.1161 H   0  0  0  0  0  0  0  0  0  0  0  0
    2.3263    0.3300   -2.3433 H   0  0  0  0  0  0  0  0  0  0  0  0
  1  2  1  0
  2  3  1  0
  3  4  1  0
  4  5  1  0
  5  6  1  0
  2  7  2  0
  7  8  1  0
  8  9  2  0
  9 10  1  0
 10 11  2  0
 11 12  1  0
 12 13  2  0
 13 14  1  0
 14 15  2  3
 15 16  1  0
 16 17  2  0
 17 18  1  0
 18 19  2  0
 19 20  1  0
 20 21  1  0
 19 22  1  0
 22 23  2  0
 14  1  1  0
 23 16  1  0
 12  7  1  0
  1 24  1  0
  3 25  1  0
  4 26  1  0
  4 27  1  0
  5 28  1  0
  5 29  1  0
  6 30  1  0
  8 31  1  0
  9 32  1  0
 10 33  1  0
 11 34  1  0
 17 35  1  0
 18 36  1  0
 21 37  1  0
 21 38  1  0
 21 39  1  0
 22 40  1  0
 23 41  1  0
M  END
>  <ScrubInfo>  (2) 
{"isomerGroup": 0, "isomerId": 1, "confId": 0, "nr_conformers:": 1, "nr_isomers:": 6}

$$$$
_i2
     RDKit          3D

 41 43  0  0  0  0  0  0  0  0999 V2000
   -1.5478    0.4011   -0.1291 N   0  0  0  0  0  0  0  0  0  0  0  0
   -0.2296    0.0289   -0.2178 C   0  0  0  0  0  0  0  0  0  0  0  0
    0.5108    0.9325   -0.9424 N   0  0  0  0  0  0  0  0  0  0  0  0
    1.9097    0.9544   -1.1259 C   0  0  0  0  0  0  0  0  0  0  0  0
    2.8145    0.3300   -0.2613 C   0  0  0  0  0  0  0  0  0  0  0  0
    4.2002    0.4177   -0.4630 C   0  0  0  0  0  0  0  0  0  0  0  0
    4.7097    1.1510   -1.5307 C   0  0  0  0  0  0  0  0  0  0  0  0
    6.0306    1.3178   -1.8393 O   0  0  0  0  0  0  0  0  0  0  0  0
    6.9714    0.6462   -1.0107 C   0  0  0  0  0  0  0  0  0  0  0  0
    3.8215    1.8008   -2.3857 C   0  0  0  0  0  0  0  0  0  0  0  0
    2.4400    1.7109   -2.1820 C   0  0  0  0  0  0  0  0  0  0  0  0
    0.2150   -1.0647    0.3288 N   0  0  0  0  0  0  0  0  0  0  0  0
   -0.7117   -1.8814    1.0148 C   0  0  0  0  0  0  0  0  0  0  0  0
   -0.2466   -3.0696    1.5842 C   0  0  0  0  0  0  0  0  0  0  0  0
   -1.1159   -3.9207    2.2733 C   0  0  0  0  0  0  0  0  0  0  0  0
   -2.4657   -3.5913    2.4012 C   0  0  0  0  0  0  0  0  0  0  0  0
   -2.9505   -2.4102    1.8403 C   0  0  0  0  0  0  0  0  0  0  0  0
   -2.0748   -1.5639    1.1510 C   0  0  0  0  0  0  0  0  0  0  0  0
   -2.5348   -0.2857    0.5363 C   0  0  0  0  0  0  0  0  0  0  0  0
   -3.7694    0.0617    0.6829 N   0  0  0  0  0  0  0  0  0  0  0  0
   -4.2285    1.3094    0.0827 C   0  0  0  0  0  0  0  0  0  0  0  0
   -5.7460    1.4113    0.2242 C   0  0  0  0  0  0  0  0  0  0  0  0
   -6.1981    2.6828   -0.2329 O   0  0  0  0  0  0  0  0  0  0  0  0
   -1.7726    1.3340   -0.4289 H   0  0  0  0  0  0  0  0  0  0  0  0
    0.0177    1.3634   -1.7119 H   0  0  0  0  0  0  0  0  0  0  0  0
    2.4625   -0.2344    0.5982 H   0  0  0  0  0  0  0  0  0  0  0  0
    4.8457   -0.0969    0.2408 H   0  0  0  0  0  0  0  0  0  0  0  0
    7.9719    0.8635   -1.3970 H   0  0  0  0  0  0  0  0  0  0  0  0
    6.9247    1.0162    0.0189 H   0  0  0  0  0  0  0  0  0  0  0  0
    6.8284   -0.4388   -1.0486 H   0  0  0  0  0  0  0  0  0  0  0  0
    4.2067    2.3848   -3.2179 H   0  0  0  0  0  0  0  0  0  0  0  0
    1.7853    2.2397   -2.8697 H   0  0  0  0  0  0  0  0  0  0  0  0
    0.8037   -3.3316    1.4856 H   0  0  0  0  0  0  0  0  0  0  0  0
   -0.7369   -4.8417    2.7093 H   0  0  0  0  0  0  0  0  0  0  0  0
   -3.1398   -4.2546    2.9373 H   0  0  0  0  0  0  0  0  0  0  0  0
   -4.0016   -2.1530    1.9398 H   0  0  0  0  0  0  0  0  0  0  0  0
   -3.9710    1.3651   -0.9822 H   0  0  0  0  0  0  0  0  0  0  0  0
   -3.7610    2.1682    0.5795 H   0  0  0  0  0  0  0  0  0  0  0  0
   -6.0616    1.2803    1.2650 H   0  0  0  0  0  0  0  0  0  0  0  0
   -6.2385    0.6373   -0.3734 H   0  0  0  0  0  0  0  0  0  0  0  0
   -5.9676    3.3294    0.4562 H   0  0  0  0  0  0  0  0  0  0  0  0
  1  2  1  0
  2  3  1  0
  3  4  1  0
  4  5  2  0
  5  6  1  0
  6  7  2  0
  7  8  1  0
  8  9  1  0
  7 10  1  0
 10 11  2  0
  2 12  2  0
 12 13  1  0
 13 14  2  0
 14 15  1  0
 15 16  2  0
 16 17  1  0
 17 18  2  0
 18 19  1  0
 19 20  2  3
 20 21  1  0
 21 22  1  0
 22 23  1  0
 19  1  1  0
 11  4  1  0
 18 13  1  0
  1 24  1  0
  3 25  1  0
  5 26  1  0
  6 27  1  0
  9 28  1  0
  9 29  1  0
  9 30  1  0
 10 31  1  0
 11 32  1  0
 14 33  1  0
 15 34  1  0
 16 35  1  0
 17 36  1  0
 21 37  1  0
 21 38  1  0
 22 39  1  0
 22 40  1  0
 23 41  1  0
M  END
>  <ScrubInfo>  (3) 
{"isomerGroup": 0, "isomerId": 2, "confId": 0, "nr_conformers:": 1, "nr_isomers:": 6}

$$$$
_i3
     RDKit          3D

 41 43  0  0  0  0  0  0  0  0999 V2000
    0.1803    0.8048   -0.4947 N   0  0  0  0  0  0  0  0  0  0  0  0
   -0.1225   -0.5126   -0.2677 C   0  0  0  0  0  0  0  0  0  0  0  0
    0.7394   -1.4552   -0.0298 N   0  0  0  0  0  0  0  0  0  0  0  0
    2.1032   -1.1508    0.0089 C   0  0  0  0  0  0  0  0  0  0  0  0
    2.7261   -0.8794    1.2285 C   0  0  0  0  0  0  0  0  0  0  0  0
    4.0893   -0.5666    1.2804 C   0  0  0  0  0  0  0  0  0  0  0  0
    4.8433   -0.5336    0.1068 C   0  0  0  0  0  0  0  0  0  0  0  0
    6.1753   -0.2389    0.0146 O   0  0  0  0  0  0  0  0  0  0  0  0
    6.8721   -0.0267    1.2361 C   0  0  0  0  0  0  0  0  0  0  0  0
    4.2231   -0.8210   -1.1120 C   0  0  0  0  0  0  0  0  0  0  0  0
    2.8631   -1.1361   -1.1608 C   0  0  0  0  0  0  0  0  0  0  0  0
   -1.4210   -0.9568   -0.2802 N   0  0  0  0  0  0  0  0  0  0  0  0
   -2.4039   -0.1109   -0.4091 C   0  0  0  0  0  0  0  0  0  0  0  0
   -3.7075   -0.5820   -0.4547 N   0  0  0  0  0  0  0  0  0  0  0  0
   -3.9797   -2.0126   -0.5452 C   0  0  0  0  0  0  0  0  0  0  0  0
   -5.4497   -2.3031   -0.2339 C   0  0  0  0  0  0  0  0  0  0  0  0
   -5.7440   -3.6903   -0.3619 O   0  0  0  0  0  0  0  0  0  0  0  0
   -2.1615    1.3645   -0.5142 C   0  0  0  0  0  0  0  0  0  0  0  0
   -3.1903    2.3122   -0.5523 C   0  0  0  0  0  0  0  0  0  0  0  0
   -2.8771    3.6675   -0.6708 C   0  0  0  0  0  0  0  0  0  0  0  0
   -1.5452    4.0730   -0.7479 C   0  0  0  0  0  0  0  0  0  0  0  0
   -0.5201    3.1266   -0.6904 C   0  0  0  0  0  0  0  0  0  0  0  0
   -0.8224    1.7689   -0.5521 C   0  0  0  0  0  0  0  0  0  0  0  0
    1.1362    1.0984   -0.3772 H   0  0  0  0  0  0  0  0  0  0  0  0
    2.1422   -0.9179    2.1448 H   0  0  0  0  0  0  0  0  0  0  0  0
    4.5273   -0.3612    2.2510 H   0  0  0  0  0  0  0  0  0  0  0  0
    7.9229    0.1592    0.9934 H   0  0  0  0  0  0  0  0  0  0  0  0
    6.8300   -0.9145    1.8757 H   0  0  0  0  0  0  0  0  0  0  0  0
    6.4900    0.8564    1.7586 H   0  0  0  0  0  0  0  0  0  0  0  0
    4.8055   -0.8105   -2.0300 H   0  0  0  0  0  0  0  0  0  0  0  0
    2.3932   -1.3746   -2.1111 H   0  0  0  0  0  0  0  0  0  0  0  0
   -4.3452   -0.0273   -1.0137 H   0  0  0  0  0  0  0  0  0  0  0  0
   -3.7329   -2.3786   -1.5487 H   0  0  0  0  0  0  0  0  0  0  0  0
   -3.3592   -2.5771    0.1612 H   0  0  0  0  0  0  0  0  0  0  0  0
   -6.1027   -1.7582   -0.9236 H   0  0  0  0  0  0  0  0  0  0  0  0
   -5.7049   -1.9860    0.7830 H   0  0  0  0  0  0  0  0  0  0  0  0
   -5.1774   -4.1676    0.2702 H   0  0  0  0  0  0  0  0  0  0  0  0
   -4.2323    2.0218   -0.4765 H   0  0  0  0  0  0  0  0  0  0  0  0
   -3.6724    4.4089   -0.7019 H   0  0  0  0  0  0  0  0  0  0  0  0
   -1.3038    5.1289   -0.8467 H   0  0  0  0  0  0  0  0  0  0  0  0
    0.5132    3.4591   -0.7477 H   0  0  0  0  0  0  0  0  0  0  0  0
  1  2  1  0
  2  3  2  3
  3  4  1  0
  4  5  2  0
  5  6  1  0
  6  7  2  0
  7  8  1  0
  8  9  1  0
  7 10  1  0
 10 11  2  0
  2 12  1  0
 12 13  2  0
 13 14  1  0
 14 15  1  0
 15 16  1  0
 16 17  1  0
 13 18  1  0
 18 19  2  0
 19 20  1  0
 20 21  2  0
 21 22  1  0
 22 23  2  0
 23  1  1  0
 11  4  1  0
 23 18  1  0
  1 24  1  0
  5 25  1  0
  6 26  1  0
  9 27  1  0
  9 28  1  0
  9 29  1  0
 10 30  1  0
 11 31  1  0
 14 32  1  0
 15 33  1  0
 15 34  1  0
 16 35  1  0
 16 36  1  0
 17 37  1  0
 19 38  1  0
 20 39  1  0
 21 40  1  0
 22 41  1  0
M  END
>  <ScrubInfo>  (4) 
{"isomerGroup": 0, "isomerId": 3, "confId": 0, "nr_conformers:": 1, "nr_isomers:": 6}

$$$$
_i4
     RDKit          3D

 41 43  0  0  0  0  0  0  0  0999 V2000
    0.0765   -0.8704   -0.2150 N   0  0  0  0  0  0  0  0  0  0  0  0
    0.0355    0.4547   -0.5561 C   0  0  0  0  0  0  0  0  0  0  0  0
   -1.1763    0.9209   -0.9866 N   0  0  0  0  0  0  0  0  0  0  0  0
   -2.4440    0.6816   -0.4143 C   0  0  0  0  0  0  0  0  0  0  0  0
   -3.5824    1.0281   -1.1560 C   0  0  0  0  0  0  0  0  0  0  0  0
   -4.8725    0.7964   -0.6614 C   0  0  0  0  0  0  0  0  0  0  0  0
   -5.0454    0.2127    0.5911 C   0  0  0  0  0  0  0  0  0  0  0  0
   -6.2400   -0.0696    1.1919 O   0  0  0  0  0  0  0  0  0  0  0  0
   -7.4182    0.2952    0.4840 C   0  0  0  0  0  0  0  0  0  0  0  0
   -3.9187   -0.1323    1.3382 C   0  0  0  0  0  0  0  0  0  0  0  0
   -2.6308    0.0987    0.8422 C   0  0  0  0  0  0  0  0  0  0  0  0
    1.0622    1.2499   -0.5818 N   0  0  0  0  0  0  0  0  0  0  0  0
    2.2631    0.7630   -0.1093 C   0  0  0  0  0  0  0  0  0  0  0  0
    3.0212    1.6848    0.3612 N   0  0  0  0  0  0  0  0  0  0  0  0
    4.2661    1.4883    1.0706 C   0  0  0  0  0  0  0  0  0  0  0  0
    5.4450    1.9127    0.1977 C   0  0  0  0  0  0  0  0  0  0  0  0
    6.6772    1.6193    0.8499 O   0  0  0  0  0  0  0  0  0  0  0  0
    2.4915   -0.7138   -0.1757 C   0  0  0  0  0  0  0  0  0  0  0  0
    3.7431   -1.3295   -0.2547 C   0  0  0  0  0  0  0  0  0  0  0  0
    3.8384   -2.7236   -0.2684 C   0  0  0  0  0  0  0  0  0  0  0  0
    2.6861   -3.5054   -0.2156 C   0  0  0  0  0  0  0  0  0  0  0  0
    1.4317   -2.8963   -0.1863 C   0  0  0  0  0  0  0  0  0  0  0  0
    1.3292   -1.5017   -0.2111 C   0  0  0  0  0  0  0  0  0  0  0  0
   -0.6994   -1.4277   -0.5478 H   0  0  0  0  0  0  0  0  0  0  0  0
   -1.0962    1.8849   -1.3008 H   0  0  0  0  0  0  0  0  0  0  0  0
   -3.4722    1.4754   -2.1418 H   0  0  0  0  0  0  0  0  0  0  0  0
   -5.7150    1.0818   -1.2822 H   0  0  0  0  0  0  0  0  0  0  0  0
   -7.4614    1.3769    0.3194 H   0  0  0  0  0  0  0  0  0  0  0  0
   -7.4957   -0.2525   -0.4610 H   0  0  0  0  0  0  0  0  0  0  0  0
   -8.2783    0.0177    1.1009 H   0  0  0  0  0  0  0  0  0  0  0  0
   -4.0420   -0.5782    2.3225 H   0  0  0  0  0  0  0  0  0  0  0  0
   -1.7840   -0.1573    1.4738 H   0  0  0  0  0  0  0  0  0  0  0  0
    4.4008    0.4821    1.4767 H   0  0  0  0  0  0  0  0  0  0  0  0
    4.2553    2.1266    1.9633 H   0  0  0  0  0  0  0  0  0  0  0  0
    5.4086    2.9855   -0.0203 H   0  0  0  0  0  0  0  0  0  0  0  0
    5.4384    1.3841   -0.7602 H   0  0  0  0  0  0  0  0  0  0  0  0
    6.7239    2.1943    1.6336 H   0  0  0  0  0  0  0  0  0  0  0  0
    4.6574   -0.7521   -0.3235 H   0  0  0  0  0  0  0  0  0  0  0  0
    4.8161   -3.1983   -0.3183 H   0  0  0  0  0  0  0  0  0  0  0  0
    2.7651   -4.5900   -0.2131 H   0  0  0  0  0  0  0  0  0  0  0  0
    0.5398   -3.5168   -0.1635 H   0  0  0  0  0  0  0  0  0  0  0  0
  1  2  1  0
  2  3  1  0
  3  4  1  0
  4  5  2  0
  5  6  1  0
  6  7  2  0
  7  8  1  0
  8  9  1  0
  7 10  1  0
 10 11  2  0
  2 12  2  0
 12 13  1  0
 13 14  2  3
 14 15  1  0
 15 16  1  0
 16 17  1  0
 13 18  1  0
 18 19  2  0
 19 20  1  0
 20 21  2  0
 21 22  1  0
 22 23  2  0
 23  1  1  0
 11  4  1  0
 23 18  1  0
  1 24  1  0
  3 25  1  0
  5 26  1  0
  6 27  1  0
  9 28  1  0
  9 29  1  0
  9 30  1  0
 10 31  1  0
 11 32  1  0
 15 33  1  0
 15 34  1  0
 16 35  1  0
 16 36  1  0
 17 37  1  0
 19 38  1  0
 20 39  1  0
 21 40  1  0
 22 41  1  0
M  END
>  <ScrubInfo>  (5) 
{"isomerGroup": 0, "isomerId": 4, "confId": 0, "nr_conformers:": 1, "nr_isomers:": 6}

$$$$
_i5
     RDKit          3D

 41 43  0  0  0  0  0  0  0  0999 V2000
   -0.6037    2.9174    0.4037 N   0  0  0  0  0  0  0  0  0  0  0  0
    0.2037    1.8383    0.1654 C   0  0  0  0  0  0  0  0  0  0  0  0
    1.4948    2.0040    0.2123 N   0  0  0  0  0  0  0  0  0  0  0  0
    2.3261    0.9048   -0.0326 C   0  0  0  0  0  0  0  0  0  0  0  0
    2.7338    0.0796    1.0173 C   0  0  0  0  0  0  0  0  0  0  0  0
    3.5476   -1.0330    0.7754 C   0  0  0  0  0  0  0  0  0  0  0  0
    3.9689   -1.3213   -0.5230 C   0  0  0  0  0  0  0  0  0  0  0  0
    4.7567   -2.3735   -0.8987 O   0  0  0  0  0  0  0  0  0  0  0  0
    5.2018   -3.2450    0.1334 C   0  0  0  0  0  0  0  0  0  0  0  0
    3.5760   -0.4838   -1.5703 C   0  0  0  0  0  0  0  0  0  0  0  0
    2.7641    0.6263   -1.3270 C   0  0  0  0  0  0  0  0  0  0  0  0
   -0.4793    0.6766   -0.1025 N   0  0  0  0  0  0  0  0  0  0  0  0
   -1.8379    0.4622   -0.1584 C   0  0  0  0  0  0  0  0  0  0  0  0
   -2.4394   -0.6523   -0.4131 N   0  0  0  0  0  0  0  0  0  0  0  0
   -1.6353   -1.8431   -0.6709 C   0  0  0  0  0  0  0  0  0  0  0  0
   -2.5596   -3.0434   -0.8699 C   0  0  0  0  0  0  0  0  0  0  0  0
   -1.8045   -4.2011   -1.2156 O   0  0  0  0  0  0  0  0  0  0  0  0
   -2.6795    1.6704    0.1085 C   0  0  0  0  0  0  0  0  0  0  0  0
   -4.0768    1.6168    0.0879 C   0  0  0  0  0  0  0  0  0  0  0  0
   -4.8133    2.7726    0.3438 C   0  0  0  0  0  0  0  0  0  0  0  0
   -4.1556    3.9723    0.6182 C   0  0  0  0  0  0  0  0  0  0  0  0
   -2.7582    4.0227    0.6385 C   0  0  0  0  0  0  0  0  0  0  0  0
   -2.0039    2.8726    0.3842 C   0  0  0  0  0  0  0  0  0  0  0  0
   -0.1393    3.7906    0.6046 H   0  0  0  0  0  0  0  0  0  0  0  0
    2.4140    0.3055    2.0315 H   0  0  0  0  0  0  0  0  0  0  0  0
    3.8352   -1.6472    1.6220 H   0  0  0  0  0  0  0  0  0  0  0  0
    5.8241   -2.7115    0.8596 H   0  0  0  0  0  0  0  0  0  0  0  0
    4.3567   -3.7396    0.6236 H   0  0  0  0  0  0  0  0  0  0  0  0
    5.8198   -4.0212   -0.3279 H   0  0  0  0  0  0  0  0  0  0  0  0
    3.9102   -0.6943   -2.5834 H   0  0  0  0  0  0  0  0  0  0  0  0
    2.4725    1.2757   -2.1478 H   0  0  0  0  0  0  0  0  0  0  0  0
    0.1068   -0.1239   -0.2786 H   0  0  0  0  0  0  0  0  0  0  0  0
   -1.0212   -1.7095   -1.5699 H   0  0  0  0  0  0  0  0  0  0  0  0
   -0.9567   -2.0559    0.1643 H   0  0  0  0  0  0  0  0  0  0  0  0
   -3.2922   -2.8550   -1.6621 H   0  0  0  0  0  0  0  0  0  0  0  0
   -3.1120   -3.2581    0.0506 H   0  0  0  0  0  0  0  0  0  0  0  0
   -1.4549   -4.0556   -2.1115 H   0  0  0  0  0  0  0  0  0  0  0  0
   -4.5893    0.6823   -0.1251 H   0  0  0  0  0  0  0  0  0  0  0  0
   -5.9000    2.7373    0.3296 H   0  0  0  0  0  0  0  0  0  0  0  0
   -4.7329    4.8722    0.8176 H   0  0  0  0  0  0  0  0  0  0  0  0
   -2.2674    4.9680    0.8549 H   0  0  0  0  0  0  0  0  0  0  0  0
  1  2  1  0
  2  3  2  3
  3  4  1  0
  4  5  2  0
  5  6  1  0
  6  7  2  0
  7  8  1  0
  8  9  1  0
  7 10  1  0
 10 11  2  0
  2 12  1  0
 12 13  1  0
 13 14  2  3
 14 15  1  0
 15 16  1  0
 16 17  1  0
 13 18  1  0
 18 19  2  0
 19 20  1  0
 20 21  2  0
 21 22  1  0
 22 23  2  0
 23  1  1  0
 11  4  1  0
 23 18  1  0
  1 24  1  0
  5 25  1  0
  6 26  1  0
  9 27  1  0
  9 28  1  0
  9 29  1  0
 10 30  1  0
 11 31  1  0
 12 32  1  0
 15 33  1  0
 15 34  1  0
 16 35  1  0
 16 36  1  0
 17 37  1  0
 19 38  1  0
 20 39  1  0
 21 40  1  0
 22 41  1  0
M  END
>  <ScrubInfo>  (6) 
{"isomerGroup": 0, "isomerId": 5, "confId": 0, "nr_conformers:": 1, "nr_isomers:": 6}

$$$$
