REMARK SMILES COc1ccc(Nc2nc(NCCO)c3ccccc3n2)cc1
REMARK SMILES IDX 8 1 9 2 10 3 15 4 16 5 17 6 18 7 19 8 20 9 21 10 7 11 6 13
REMARK SMILES IDX 3 14 4 15 23 16 5 17 22 18 2 19 1 20 11 21 12 23 13 24 14 25
REMARK H PARENT 7 12 11 22 14 26
ROOT
ATOM      1  C   UNL     1      -0.230  -0.030   0.160  1.00  0.00     0.229 A 
ATOM      2  N   UNL     1      -1.403   0.570   0.407  1.00  0.00    -0.195 NA
ATOM      3  C   UNL     1      -2.532  -0.052   0.022  1.00  0.00     0.139 A 
ATOM      4  C   UNL     1      -2.512  -1.316  -0.588  1.00  0.00     0.043 A 
ATOM      5  C   UNL     1      -3.657  -2.060  -0.977  1.00  0.00     0.014 A 
ATOM      6  C   UNL     1      -3.526  -3.305  -1.588  1.00  0.00     0.001 A 
ATOM      7  C   UNL     1      -2.258  -3.821  -1.814  1.00  0.00     0.002 A 
ATOM      8  C   UNL     1      -1.133  -3.091  -1.421  1.00  0.00     0.029 A 
ATOM      9  C   UNL     1      -1.239  -1.848  -0.807  1.00  0.00     0.078 A 
ATOM     10  N   UNL     1      -0.121  -1.214  -0.448  1.00  0.00    -0.213 NA
ENDROOT
BRANCH   1  11
ATOM     11  N   UNL     1       0.887   0.686   0.585  1.00  0.00    -0.324 N 
ATOM     12  H   UNL     1       0.575   1.530   1.040  1.00  0.00     0.170 HD
BRANCH  11  13
ATOM     13  C   UNL     1       2.264   0.450   0.557  1.00  0.00     0.041 A 
ATOM     14  C   UNL     1       5.082   0.109   0.553  1.00  0.00     0.119 A 
ATOM     15  C   UNL     1       4.243  -0.856  -0.001  1.00  0.00     0.048 A 
ATOM     16  C   UNL     1       4.515   1.251   1.109  1.00  0.00     0.048 A 
ATOM     17  C   UNL     1       2.852  -0.687   0.000  1.00  0.00     0.030 A 
ATOM     18  C   UNL     1       3.122   1.416   1.108  1.00  0.00     0.030 A 
BRANCH  14  19
ATOM     19  O   UNL     1       6.416  -0.180   0.486  1.00  0.00    -0.497 OA
ATOM     20  C   UNL     1       7.309   0.774   1.045  1.00  0.00     0.278 C 
ENDBRANCH  14  19
ENDBRANCH  11  13
ENDBRANCH   1  11
BRANCH   3  21
ATOM     21  N   UNL     1      -3.770   0.571   0.282  1.00  0.00    -0.367 N 
ATOM     22  H   UNL     1      -4.337   0.582  -0.566  1.00  0.00     0.162 HD
BRANCH  21  23
ATOM     23  C   UNL     1      -3.693   1.913   0.861  1.00  0.00     0.142 C 
BRANCH  23  24
ATOM     24  C   UNL     1      -5.098   2.526   0.889  1.00  0.00     0.177 C 
BRANCH  24  25
ATOM     25  O   UNL     1      -5.613   2.656  -0.440  1.00  0.00    -0.395 OA
ATOM     26  H   UNL     1      -5.036   3.279  -0.915  1.00  0.00     0.210 HD
ENDBRANCH  24  25
ENDBRANCH  23  24
ENDBRANCH  21  23
ENDBRANCH   3  21
TORSDOF 7
