_i0
     RDKit          3D

 55 57  0  0  0  0  0  0  0  0999 V2000
   -5.4332    1.9244    0.4487 C   0  0  0  0  0  0  0  0  0  0  0  0
   -4.6146    0.6504    0.5680 N   0  0  0  0  0  4  0  0  0  0  0  0
   -5.4678   -0.5762    0.8470 C   0  0  0  0  0  0  0  0  0  0  0  0
   -3.6361    0.4178   -0.5838 C   0  0  0  0  0  0  0  0  0  0  0  0
   -4.8662    2.9952    1.3633 C   0  0  0  0  0  0  0  0  0  0  0  0
   -6.3549   -0.9506   -0.3273 C   0  0  0  0  0  0  0  0  0  0  0  0
   -2.4902    1.4514   -0.6104 C   0  0  0  0  0  0  0  0  0  0  0  0
   -1.4887    1.0915   -1.5947 N   0  0  0  0  0  0  0  0  0  0  0  0
   -0.4690    0.2556   -1.1509 C   0  0  0  0  0  0  0  0  0  0  0  0
    0.7115    0.4622   -1.7543 N   0  0  0  0  0  0  0  0  0  0  0  0
   -0.7260   -0.6493   -0.1917 N   0  0  0  0  0  0  0  0  0  0  0  0
    1.7889   -0.2905   -1.4189 C   0  0  0  0  0  0  0  0  0  0  0  0
    0.3530   -1.3968    0.1059 C   0  0  0  0  0  0  0  0  0  0  0  0
    2.9852   -0.0433   -2.1125 N   0  0  0  0  0  0  0  0  0  0  0  0
    1.6132   -1.2819   -0.4518 C   0  0  0  0  0  0  0  0  0  0  0  0
    0.4391   -2.4269    1.0047 N   0  0  0  0  0  0  0  0  0  0  0  0
    4.2833    0.0131   -1.5478 C   0  0  0  0  0  0  0  0  0  0  0  0
    2.3731   -2.2910    0.1744 C   0  0  0  0  0  0  0  0  0  0  0  0
    1.6657   -2.9834    1.0738 N   0  0  0  0  0  0  0  0  0  0  0  0
   -0.6128   -2.9522    1.8371 C   0  0  0  0  0  0  0  0  0  0  0  0
    4.5307    0.4904   -0.2574 C   0  0  0  0  0  0  0  0  0  0  0  0
    5.3837   -0.2900   -2.3621 C   0  0  0  0  0  0  0  0  0  0  0  0
    5.8431    0.6115    0.2148 C   0  0  0  0  0  0  0  0  0  0  0  0
    6.6915   -0.1661   -1.9063 C   0  0  0  0  0  0  0  0  0  0  0  0
    5.1873   -0.7465   -3.6378 O   0  0  0  0  0  0  0  0  0  0  0  0
    6.9320    0.2944   -0.6081 C   0  0  0  0  0  0  0  0  0  0  0  0
    8.3357    0.3968   -0.0882 C   0  0  0  0  0  0  0  0  0  0  0  0
   -6.4619    1.7035    0.7515 H   0  0  0  0  0  0  0  0  0  0  0  0
   -5.4365    2.2377   -0.5999 H   0  0  0  0  0  0  0  0  0  0  0  0
   -4.0311    0.7365    1.4112 H   0  0  0  0  0  0  0  0  0  0  0  0
   -4.7809   -1.3922    1.0969 H   0  0  0  0  0  0  0  0  0  0  0  0
   -6.0630   -0.3512    1.7387 H   0  0  0  0  0  0  0  0  0  0  0  0
   -4.2081    0.4514   -1.5179 H   0  0  0  0  0  0  0  0  0  0  0  0
   -3.2487   -0.5973   -0.4555 H   0  0  0  0  0  0  0  0  0  0  0  0
   -5.4676    3.9068    1.2885 H   0  0  0  0  0  0  0  0  0  0  0  0
   -4.8831    2.6678    2.4082 H   0  0  0  0  0  0  0  0  0  0  0  0
   -3.8361    3.2537    1.1053 H   0  0  0  0  0  0  0  0  0  0  0  0
   -7.0059   -0.1260   -0.6314 H   0  0  0  0  0  0  0  0  0  0  0  0
   -6.9955   -1.7943   -0.0503 H   0  0  0  0  0  0  0  0  0  0  0  0
   -5.7663   -1.2619   -1.1954 H   0  0  0  0  0  0  0  0  0  0  0  0
   -2.0508    1.5865    0.3861 H   0  0  0  0  0  0  0  0  0  0  0  0
   -2.9045    2.4230   -0.9022 H   0  0  0  0  0  0  0  0  0  0  0  0
   -1.0113    1.8630   -2.0593 H   0  0  0  0  0  0  0  0  0  0  0  0
    2.8265    0.7956   -2.6725 H   0  0  0  0  0  0  0  0  0  0  0  0
    3.4136   -2.5480    0.0142 H   0  0  0  0  0  0  0  0  0  0  0  0
   -1.5371   -2.3959    1.6649 H   0  0  0  0  0  0  0  0  0  0  0  0
   -0.7614   -4.0046    1.5822 H   0  0  0  0  0  0  0  0  0  0  0  0
   -0.3091   -2.8504    2.8820 H   0  0  0  0  0  0  0  0  0  0  0  0
    3.7153    0.7846    0.3971 H   0  0  0  0  0  0  0  0  0  0  0  0
    6.0128    0.9684    1.2290 H   0  0  0  0  0  0  0  0  0  0  0  0
    7.5148   -0.4304   -2.5651 H   0  0  0  0  0  0  0  0  0  0  0  0
    4.2301   -0.9151   -3.7145 H   0  0  0  0  0  0  0  0  0  0  0  0
    9.0362    0.6286   -0.8973 H   0  0  0  0  0  0  0  0  0  0  0  0
    8.6319   -0.5484    0.3769 H   0  0  0  0  0  0  0  0  0  0  0  0
    8.4198    1.1983    0.6533 H   0  0  0  0  0  0  0  0  0  0  0  0
  1  2  1  0
  2  3  1  0
  2  4  1  0
  5  1  1  0
  3  6  1  0
  4  7  1  0
  7  8  1  0
  8  9  1  0
  9 10  2  0
 11  9  1  0
 10 12  1  0
 13 11  2  0
 12 14  1  0
 12 15  2  0
 16 13  1  0
 13 15  1  0
 14 17  1  0
 15 18  1  0
 19 16  1  0
 16 20  1  0
 17 21  2  0
 22 17  1  0
 18 19  2  0
 21 23  1  0
 24 22  2  0
 22 25  1  0
 23 26  2  0
 26 24  1  0
 26 27  1  0
  1 28  1  0
  1 29  1  0
  2 30  1  0
  3 31  1  0
  3 32  1  0
  4 33  1  0
  4 34  1  0
  5 35  1  0
  5 36  1  0
  5 37  1  0
  6 38  1  0
  6 39  1  0
  6 40  1  0
  7 41  1  0
  7 42  1  0
  8 43  1  0
 14 44  1  0
 18 45  1  0
 20 46  1  0
 20 47  1  0
 20 48  1  0
 21 49  1  0
 23 50  1  0
 24 51  1  0
 25 52  1  0
 27 53  1  0
 27 54  1  0
 27 55  1  0
M  CHG  1   2   1
M  END
>  <ScrubInfo>  (1) 
{"isomerGroup": 0, "isomerId": 0, "confId": 0, "nr_conformers:": 1, "nr_isomers:": 9}

$$$$
_i1
     RDKit          3D

 55 57  0  0  0  0  0  0  0  0999 V2000
    0.7243   -0.7006   -0.0269 N   0  0  0  0  0  0  0  0  0  0  0  0
    1.6741   -1.6411   -0.3863 C   0  0  0  0  0  0  0  0  0  0  0  0
    3.0197   -1.3552   -0.5372 N   0  0  0  0  0  0  0  0  0  0  0  0
    3.7502   -0.1549   -0.3949 C   0  0  0  0  0  0  0  0  0  0  0  0
    4.8787    0.0057   -1.2201 C   0  0  0  0  0  0  0  0  0  0  0  0
    5.6631    1.1642   -1.1820 C   0  0  0  0  0  0  0  0  0  0  0  0
    5.3457    2.2041   -0.3077 C   0  0  0  0  0  0  0  0  0  0  0  0
    6.1647    3.4610   -0.2902 C   0  0  0  0  0  0  0  0  0  0  0  0
    4.2193    2.0748    0.5085 C   0  0  0  0  0  0  0  0  0  0  0  0
    3.4404    0.9106    0.4641 C   0  0  0  0  0  0  0  0  0  0  0  0
    2.3788    0.8375    1.3320 O   0  0  0  0  0  0  0  0  0  0  0  0
    1.1858   -2.8688   -0.6103 C   0  0  0  0  0  0  0  0  0  0  0  0
    1.6968   -4.1939   -0.9820 C   0  0  0  0  0  0  0  0  0  0  0  0
    0.7586   -5.1024   -1.0568 N   0  0  0  0  0  0  0  0  0  0  0  0
   -0.4413   -4.4280   -0.7841 N   0  0  0  0  0  0  0  0  0  0  0  0
   -1.6172   -5.2072   -0.4778 C   0  0  0  0  0  0  0  0  0  0  0  0
   -0.2687   -3.0944   -0.4530 C   0  0  0  0  0  0  0  0  0  0  0  0
   -1.1287   -2.2072   -0.0811 N   0  0  0  0  0  0  0  0  0  0  0  0
   -0.6075   -0.9600    0.1657 C   0  0  0  0  0  0  0  0  0  0  0  0
   -1.5134   -0.1349    0.5588 N   0  0  0  0  0  0  0  0  0  0  0  0
   -1.1448    1.2607    0.8077 C   0  0  0  0  0  0  0  0  0  0  0  0
   -2.4528    2.0260    1.0967 C   0  0  0  0  0  0  0  0  0  0  0  0
   -3.6138    1.2666    0.4444 N   0  0  0  0  0  4  0  0  0  0  0  0
   -4.1128    1.8800   -0.8352 C   0  0  0  0  0  0  0  0  0  0  0  0
   -3.0464    1.8676   -1.9149 C   0  0  0  0  0  0  0  0  0  0  0  0
   -4.6983    0.9194    1.4343 C   0  0  0  0  0  0  0  0  0  0  0  0
   -5.5273   -0.2591    0.9536 C   0  0  0  0  0  0  0  0  0  0  0  0
    1.1327    0.1539    0.3344 H   0  0  0  0  0  0  0  0  0  0  0  0
    3.5689   -2.0975   -0.9595 H   0  0  0  0  0  0  0  0  0  0  0  0
    5.1613   -0.7758   -1.9230 H   0  0  0  0  0  0  0  0  0  0  0  0
    6.5230    1.2457   -1.8447 H   0  0  0  0  0  0  0  0  0  0  0  0
    7.2098    3.2500   -0.5404 H   0  0  0  0  0  0  0  0  0  0  0  0
    6.1554    3.9190    0.7044 H   0  0  0  0  0  0  0  0  0  0  0  0
    5.7651    4.1779   -1.0140 H   0  0  0  0  0  0  0  0  0  0  0  0
    3.9503    2.8890    1.1770 H   0  0  0  0  0  0  0  0  0  0  0  0
    2.7017    1.2111    2.1746 H   0  0  0  0  0  0  0  0  0  0  0  0
    2.7674   -4.3658   -1.1504 H   0  0  0  0  0  0  0  0  0  0  0  0
   -2.5279   -4.6353   -0.6823 H   0  0  0  0  0  0  0  0  0  0  0  0
   -1.6501   -6.1161   -1.0874 H   0  0  0  0  0  0  0  0  0  0  0  0
   -1.6174   -5.4972    0.5776 H   0  0  0  0  0  0  0  0  0  0  0  0
   -0.6583    1.6953   -0.0726 H   0  0  0  0  0  0  0  0  0  0  0  0
   -0.4681    1.3540    1.6637 H   0  0  0  0  0  0  0  0  0  0  0  0
   -2.6314    2.0539    2.1767 H   0  0  0  0  0  0  0  0  0  0  0  0
   -2.4350    3.0554    0.7252 H   0  0  0  0  0  0  0  0  0  0  0  0
   -3.1587    0.3543    0.2129 H   0  0  0  0  0  0  0  0  0  0  0  0
   -4.4492    2.8970   -0.6081 H   0  0  0  0  0  0  0  0  0  0  0  0
   -4.9679    1.2936   -1.1793 H   0  0  0  0  0  0  0  0  0  0  0  0
   -3.4729    2.2170   -2.8609 H   0  0  0  0  0  0  0  0  0  0  0  0
   -2.6535    0.8590   -2.0771 H   0  0  0  0  0  0  0  0  0  0  0  0
   -2.2133    2.5326   -1.6711 H   0  0  0  0  0  0  0  0  0  0  0  0
   -4.2100    0.6385    2.3737 H   0  0  0  0  0  0  0  0  0  0  0  0
   -5.3055    1.8158    1.5959 H   0  0  0  0  0  0  0  0  0  0  0  0
   -6.1366   -0.0061    0.0819 H   0  0  0  0  0  0  0  0  0  0  0  0
   -6.2137   -0.5760    1.7458 H   0  0  0  0  0  0  0  0  0  0  0  0
   -4.8933   -1.1140    0.6970 H   0  0  0  0  0  0  0  0  0  0  0  0
  1  2  1  0
  2  3  1  0
  3  4  1  0
  4  5  2  0
  5  6  1  0
  6  7  2  0
  7  8  1  0
  7  9  1  0
  9 10  2  0
 10 11  1  0
  2 12  2  0
 12 13  1  0
 13 14  2  0
 14 15  1  0
 15 16  1  0
 15 17  1  0
 17 18  2  0
 18 19  1  0
 19 20  2  3
 20 21  1  0
 21 22  1  0
 22 23  1  0
 23 24  1  0
 24 25  1  0
 23 26  1  0
 26 27  1  0
 19  1  1  0
 10  4  1  0
 17 12  1  0
  1 28  1  0
  3 29  1  0
  5 30  1  0
  6 31  1  0
  8 32  1  0
  8 33  1  0
  8 34  1  0
  9 35  1  0
 11 36  1  0
 13 37  1  0
 16 38  1  0
 16 39  1  0
 16 40  1  0
 21 41  1  0
 21 42  1  0
 22 43  1  0
 22 44  1  0
 23 45  1  0
 24 46  1  0
 24 47  1  0
 25 48  1  0
 25 49  1  0
 25 50  1  0
 26 51  1  0
 26 52  1  0
 27 53  1  0
 27 54  1  0
 27 55  1  0
M  CHG  1  23   1
M  END
>  <ScrubInfo>  (2) 
{"isomerGroup": 0, "isomerId": 1, "confId": 0, "nr_conformers:": 1, "nr_isomers:": 9}

$$$$
_i2
     RDKit          3D

 55 57  0  0  0  0  0  0  0  0999 V2000
   -1.1919    0.9298   -1.5435 N   0  0  0  0  0  0  0  0  0  0  0  0
   -1.4959    0.5578   -0.2598 C   0  0  0  0  0  0  0  0  0  0  0  0
   -2.6839    1.0829    0.1856 N   0  0  0  0  0  0  0  0  0  0  0  0
   -3.2248    0.6957    1.4797 C   0  0  0  0  0  0  0  0  0  0  0  0
   -2.4076    1.3167    2.6365 C   0  0  0  0  0  0  0  0  0  0  0  0
   -2.4930    0.4842    3.9195 N   0  0  0  0  0  4  0  0  0  0  0  0
   -1.5762   -0.7275    3.8423 C   0  0  0  0  0  0  0  0  0  0  0  0
   -1.8135   -1.6722    5.0058 C   0  0  0  0  0  0  0  0  0  0  0  0
   -2.3296    1.3406    5.1625 C   0  0  0  0  0  0  0  0  0  0  0  0
   -0.9376    1.9289    5.2992 C   0  0  0  0  0  0  0  0  0  0  0  0
   -0.7309   -0.1991    0.4895 N   0  0  0  0  0  0  0  0  0  0  0  0
    0.3915   -0.5884   -0.1883 C   0  0  0  0  0  0  0  0  0  0  0  0
    0.7769   -0.2676   -1.4838 C   0  0  0  0  0  0  0  0  0  0  0  0
    2.0213   -0.9002   -1.6477 C   0  0  0  0  0  0  0  0  0  0  0  0
    2.3985   -1.5829   -0.5597 N   0  0  0  0  0  0  0  0  0  0  0  0
    1.3800   -1.3977    0.3017 N   0  0  0  0  0  0  0  0  0  0  0  0
    1.4317   -2.0196    1.5995 C   0  0  0  0  0  0  0  0  0  0  0  0
   -0.0840    0.5812   -2.2812 C   0  0  0  0  0  0  0  0  0  0  0  0
    0.0769    1.0186   -3.4905 N   0  0  0  0  0  0  0  0  0  0  0  0
    1.1585    0.6151   -4.2834 C   0  0  0  0  0  0  0  0  0  0  0  0
    2.2361    1.4848   -4.4632 C   0  0  0  0  0  0  0  0  0  0  0  0
    3.3114    1.1247   -5.2803 C   0  0  0  0  0  0  0  0  0  0  0  0
    3.3125   -0.1039   -5.9528 C   0  0  0  0  0  0  0  0  0  0  0  0
    4.4840   -0.5006   -6.8034 C   0  0  0  0  0  0  0  0  0  0  0  0
    2.2312   -0.9784   -5.7829 C   0  0  0  0  0  0  0  0  0  0  0  0
    1.1609   -0.6126   -4.9643 C   0  0  0  0  0  0  0  0  0  0  0  0
    0.1028   -1.4686   -4.7974 O   0  0  0  0  0  0  0  0  0  0  0  0
   -1.7978    1.5693   -2.0325 H   0  0  0  0  0  0  0  0  0  0  0  0
   -3.3916    1.1490   -0.5423 H   0  0  0  0  0  0  0  0  0  0  0  0
   -4.2579    1.0557    1.5520 H   0  0  0  0  0  0  0  0  0  0  0  0
   -3.2770   -0.3961    1.5418 H   0  0  0  0  0  0  0  0  0  0  0  0
   -1.3448    1.4428    2.4079 H   0  0  0  0  0  0  0  0  0  0  0  0
   -2.8208    2.3070    2.8613 H   0  0  0  0  0  0  0  0  0  0  0  0
   -3.4521    0.1183    3.9710 H   0  0  0  0  0  0  0  0  0  0  0  0
   -1.8079   -1.2507    2.9111 H   0  0  0  0  0  0  0  0  0  0  0  0
   -0.5406   -0.3779    3.8008 H   0  0  0  0  0  0  0  0  0  0  0  0
   -1.4757   -1.2424    5.9533 H   0  0  0  0  0  0  0  0  0  0  0  0
   -2.8727   -1.9325    5.0987 H   0  0  0  0  0  0  0  0  0  0  0  0
   -1.2507   -2.5987    4.8518 H   0  0  0  0  0  0  0  0  0  0  0  0
   -3.0831    2.1335    5.0996 H   0  0  0  0  0  0  0  0  0  0  0  0
   -2.5856    0.7189    6.0256 H   0  0  0  0  0  0  0  0  0  0  0  0
   -0.6628    2.5368    4.4324 H   0  0  0  0  0  0  0  0  0  0  0  0
   -0.8980    2.5771    6.1810 H   0  0  0  0  0  0  0  0  0  0  0  0
   -0.1789    1.1529    5.4339 H   0  0  0  0  0  0  0  0  0  0  0  0
    2.6859   -0.8994   -2.5009 H   0  0  0  0  0  0  0  0  0  0  0  0
    1.7740   -1.2745    2.3216 H   0  0  0  0  0  0  0  0  0  0  0  0
    2.1243   -2.8649    1.5712 H   0  0  0  0  0  0  0  0  0  0  0  0
    0.4335   -2.3779    1.8628 H   0  0  0  0  0  0  0  0  0  0  0  0
    2.2379    2.4502   -3.9651 H   0  0  0  0  0  0  0  0  0  0  0  0
    4.1449    1.8148   -5.3952 H   0  0  0  0  0  0  0  0  0  0  0  0
    5.2222   -1.0341   -6.1969 H   0  0  0  0  0  0  0  0  0  0  0  0
    4.9601    0.3796   -7.2480 H   0  0  0  0  0  0  0  0  0  0  0  0
    4.1665   -1.1485   -7.6271 H   0  0  0  0  0  0  0  0  0  0  0  0
    2.2355   -1.9388   -6.2909 H   0  0  0  0  0  0  0  0  0  0  0  0
    0.2078   -2.2111   -5.4142 H   0  0  0  0  0  0  0  0  0  0  0  0
  1  2  1  0
  2  3  1  0
  3  4  1  0
  4  5  1  0
  5  6  1  0
  6  7  1  0
  7  8  1  0
  6  9  1  0
  9 10  1  0
  2 11  2  0
 11 12  1  0
 12 13  2  0
 13 14  1  0
 14 15  2  0
 15 16  1  0
 16 17  1  0
 13 18  1  0
 18 19  2  3
 19 20  1  0
 20 21  2  0
 21 22  1  0
 22 23  2  0
 23 24  1  0
 23 25  1  0
 25 26  2  0
 26 27  1  0
 18  1  1  0
 26 20  1  0
 16 12  1  0
  1 28  1  0
  3 29  1  0
  4 30  1  0
  4 31  1  0
  5 32  1  0
  5 33  1  0
  6 34  1  0
  7 35  1  0
  7 36  1  0
  8 37  1  0
  8 38  1  0
  8 39  1  0
  9 40  1  0
  9 41  1  0
 10 42  1  0
 10 43  1  0
 10 44  1  0
 14 45  1  0
 17 46  1  0
 17 47  1  0
 17 48  1  0
 21 49  1  0
 22 50  1  0
 24 51  1  0
 24 52  1  0
 24 53  1  0
 25 54  1  0
 27 55  1  0
M  CHG  1   6   1
M  END
>  <ScrubInfo>  (3) 
{"isomerGroup": 0, "isomerId": 2, "confId": 0, "nr_conformers:": 1, "nr_isomers:": 9}

$$$$
_i3
     RDKit          3D

 55 57  0  0  0  0  0  0  0  0999 V2000
   -0.1012   -0.2360   -1.7757 N   0  0  0  0  0  0  0  0  0  0  0  0
   -0.1594    0.6893   -0.7467 C   0  0  0  0  0  0  0  0  0  0  0  0
   -1.1654    0.9338    0.0135 N   0  0  0  0  0  0  0  0  0  0  0  0
   -2.4137    0.2113   -0.1323 C   0  0  0  0  0  0  0  0  0  0  0  0
   -3.3621    0.7271    0.9655 C   0  0  0  0  0  0  0  0  0  0  0  0
   -4.7515    0.1074    0.8687 N   0  0  0  0  0  4  0  0  0  0  0  0
   -4.7533   -1.3780    1.1982 C   0  0  0  0  0  0  0  0  0  0  0  0
   -5.1162   -2.1694   -0.0441 C   0  0  0  0  0  0  0  0  0  0  0  0
   -5.7400    0.8962    1.7142 C   0  0  0  0  0  0  0  0  0  0  0  0
   -7.1658    0.5755    1.3006 C   0  0  0  0  0  0  0  0  0  0  0  0
    0.9342    1.4746   -0.4118 N   0  0  0  0  0  0  0  0  0  0  0  0
    2.0554    1.3152   -1.0581 C   0  0  0  0  0  0  0  0  0  0  0  0
    3.1893    2.0329   -0.7739 N   0  0  0  0  0  0  0  0  0  0  0  0
    4.2105    1.4155    0.0100 C   0  0  0  0  0  0  0  0  0  0  0  0
    5.5381    1.5702   -0.4078 C   0  0  0  0  0  0  0  0  0  0  0  0
    6.5879    1.0251    0.3364 C   0  0  0  0  0  0  0  0  0  0  0  0
    6.3317    0.3454    1.5322 C   0  0  0  0  0  0  0  0  0  0  0  0
    7.4551   -0.2700    2.3137 C   0  0  0  0  0  0  0  0  0  0  0  0
    5.0084    0.2092    1.9673 C   0  0  0  0  0  0  0  0  0  0  0  0
    3.9617    0.7555    1.2252 C   0  0  0  0  0  0  0  0  0  0  0  0
    2.7117    0.6258    1.7700 O   0  0  0  0  0  0  0  0  0  0  0  0
    2.1693    0.3565   -2.1238 C   0  0  0  0  0  0  0  0  0  0  0  0
    3.1530   -0.0830   -3.0189 C   0  0  0  0  0  0  0  0  0  0  0  0
    2.6924   -1.0352   -3.8444 N   0  0  0  0  0  0  0  0  0  0  0  0
    1.4048   -1.2075   -3.4645 N   0  0  0  0  0  0  0  0  0  0  0  0
    0.6022   -2.1834   -4.1566 C   0  0  0  0  0  0  0  0  0  0  0  0
    1.0627   -0.3836   -2.4376 C   0  0  0  0  0  0  0  0  0  0  0  0
   -0.9209   -0.7823   -1.9857 H   0  0  0  0  0  0  0  0  0  0  0  0
   -2.8562    0.3976   -1.1176 H   0  0  0  0  0  0  0  0  0  0  0  0
   -2.2485   -0.8650   -0.0171 H   0  0  0  0  0  0  0  0  0  0  0  0
   -2.9766    0.5246    1.9716 H   0  0  0  0  0  0  0  0  0  0  0  0
   -3.4849    1.8107    0.8522 H   0  0  0  0  0  0  0  0  0  0  0  0
   -5.0526    0.2381   -0.1057 H   0  0  0  0  0  0  0  0  0  0  0  0
   -5.4743   -1.5624    2.0007 H   0  0  0  0  0  0  0  0  0  0  0  0
   -3.7628   -1.6575    1.5711 H   0  0  0  0  0  0  0  0  0  0  0  0
   -5.1182   -3.2407    0.1799 H   0  0  0  0  0  0  0  0  0  0  0  0
   -6.1128   -1.8995   -0.4082 H   0  0  0  0  0  0  0  0  0  0  0  0
   -4.3990   -1.9956   -0.8524 H   0  0  0  0  0  0  0  0  0  0  0  0
   -5.5475    1.9598    1.5386 H   0  0  0  0  0  0  0  0  0  0  0  0
   -5.5466    0.6628    2.7664 H   0  0  0  0  0  0  0  0  0  0  0  0
   -7.3225    0.7767    0.2358 H   0  0  0  0  0  0  0  0  0  0  0  0
   -7.4246   -0.4698    1.4922 H   0  0  0  0  0  0  0  0  0  0  0  0
   -7.8663    1.1977    1.8668 H   0  0  0  0  0  0  0  0  0  0  0  0
    2.9207    2.8551   -0.2316 H   0  0  0  0  0  0  0  0  0  0  0  0
    5.7632    2.1047   -1.3280 H   0  0  0  0  0  0  0  0  0  0  0  0
    7.6093    1.1381   -0.0223 H   0  0  0  0  0  0  0  0  0  0  0  0
    8.3789    0.3046    2.1886 H   0  0  0  0  0  0  0  0  0  0  0  0
    7.2244   -0.2842    3.3841 H   0  0  0  0  0  0  0  0  0  0  0  0
    7.6278   -1.2961    1.9749 H   0  0  0  0  0  0  0  0  0  0  0  0
    4.7871   -0.3118    2.8960 H   0  0  0  0  0  0  0  0  0  0  0  0
    2.0582    1.1035    1.2263 H   0  0  0  0  0  0  0  0  0  0  0  0
    4.1814    0.2417   -3.1145 H   0  0  0  0  0  0  0  0  0  0  0  0
   -0.4040   -2.2045   -3.7331 H   0  0  0  0  0  0  0  0  0  0  0  0
    0.5540   -1.9043   -5.2122 H   0  0  0  0  0  0  0  0  0  0  0  0
    1.0734   -3.1626   -4.0403 H   0  0  0  0  0  0  0  0  0  0  0  0
  1  2  1  0
  2  3  2  3
  3  4  1  0
  4  5  1  0
  5  6  1  0
  6  7  1  0
  7  8  1  0
  6  9  1  0
  9 10  1  0
  2 11  1  0
 11 12  2  0
 12 13  1  0
 13 14  1  0
 14 15  2  0
 15 16  1  0
 16 17  2  0
 17 18  1  0
 17 19  1  0
 19 20  2  0
 20 21  1  0
 12 22  1  0
 22 23  1  0
 23 24  2  0
 24 25  1  0
 25 26  1  0
 25 27  1  0
 27  1  1  0
 20 14  1  0
 27 22  2  0
  1 28  1  0
  4 29  1  0
  4 30  1  0
  5 31  1  0
  5 32  1  0
  6 33  1  0
  7 34  1  0
  7 35  1  0
  8 36  1  0
  8 37  1  0
  8 38  1  0
  9 39  1  0
  9 40  1  0
 10 41  1  0
 10 42  1  0
 10 43  1  0
 13 44  1  0
 15 45  1  0
 16 46  1  0
 18 47  1  0
 18 48  1  0
 18 49  1  0
 19 50  1  0
 21 51  1  0
 23 52  1  0
 26 53  1  0
 26 54  1  0
 26 55  1  0
M  CHG  1   6   1
M  END
>  <ScrubInfo>  (4) 
{"isomerGroup": 0, "isomerId": 3, "confId": 0, "nr_conformers:": 1, "nr_isomers:": 9}

$$$$
_i4
     RDKit          3D

 55 57  0  0  0  0  0  0  0  0999 V2000
    0.0172   -2.2103   -2.4386 N   0  0  0  0  0  0  0  0  0  0  0  0
   -0.9928   -1.4325   -1.9303 C   0  0  0  0  0  0  0  0  0  0  0  0
   -2.2086   -1.7048   -2.4912 N   0  0  0  0  0  0  0  0  0  0  0  0
   -3.3807   -0.8448   -2.3193 C   0  0  0  0  0  0  0  0  0  0  0  0
   -3.9623   -0.8957   -0.8883 C   0  0  0  0  0  0  0  0  0  0  0  0
   -3.2615    0.0615    0.0741 N   0  0  0  0  0  4  0  0  0  0  0  0
   -3.4101   -0.4236    1.5001 C   0  0  0  0  0  0  0  0  0  0  0  0
   -2.5815    0.3788    2.4832 C   0  0  0  0  0  0  0  0  0  0  0  0
   -3.6744    1.5037   -0.1393 C   0  0  0  0  0  0  0  0  0  0  0  0
   -2.4616    2.4072   -0.2544 C   0  0  0  0  0  0  0  0  0  0  0  0
   -0.8502   -0.5295   -1.0008 N   0  0  0  0  0  0  0  0  0  0  0  0
    0.4160   -0.2817   -0.4707 C   0  0  0  0  0  0  0  0  0  0  0  0
    0.4269    0.6322    0.4454 N   0  0  0  0  0  0  0  0  0  0  0  0
    1.6056    0.9896    1.1136 C   0  0  0  0  0  0  0  0  0  0  0  0
    2.0420    0.2831    2.2351 C   0  0  0  0  0  0  0  0  0  0  0  0
    3.2139    0.6674    2.8948 C   0  0  0  0  0  0  0  0  0  0  0  0
    3.9589    1.7673    2.4445 C   0  0  0  0  0  0  0  0  0  0  0  0
    5.2002    2.1936    3.1729 C   0  0  0  0  0  0  0  0  0  0  0  0
    3.4966    2.5038    1.3475 C   0  0  0  0  0  0  0  0  0  0  0  0
    2.3286    2.1157    0.7025 C   0  0  0  0  0  0  0  0  0  0  0  0
    1.8848    2.8660   -0.3525 O   0  0  0  0  0  0  0  0  0  0  0  0
    1.5172   -1.0586   -0.9948 C   0  0  0  0  0  0  0  0  0  0  0  0
    2.9074   -1.1539   -0.8097 C   0  0  0  0  0  0  0  0  0  0  0  0
    3.4642   -2.1034   -1.5757 N   0  0  0  0  0  0  0  0  0  0  0  0
    2.4293   -2.6097   -2.2788 N   0  0  0  0  0  0  0  0  0  0  0  0
    2.6838   -3.6589   -3.2339 C   0  0  0  0  0  0  0  0  0  0  0  0
    1.2561   -2.0017   -1.9571 C   0  0  0  0  0  0  0  0  0  0  0  0
   -0.2059   -2.9738   -3.0646 H   0  0  0  0  0  0  0  0  0  0  0  0
   -2.1428   -2.0670   -3.4393 H   0  0  0  0  0  0  0  0  0  0  0  0
   -3.1491    0.1779   -2.6350 H   0  0  0  0  0  0  0  0  0  0  0  0
   -4.1533   -1.2193   -3.0009 H   0  0  0  0  0  0  0  0  0  0  0  0
   -5.0229   -0.6206   -0.8834 H   0  0  0  0  0  0  0  0  0  0  0  0
   -3.8631   -1.9095   -0.4841 H   0  0  0  0  0  0  0  0  0  0  0  0
   -2.2455   -0.0257   -0.1580 H   0  0  0  0  0  0  0  0  0  0  0  0
   -4.4755   -0.3839    1.7513 H   0  0  0  0  0  0  0  0  0  0  0  0
   -3.0766   -1.4670    1.5191 H   0  0  0  0  0  0  0  0  0  0  0  0
   -2.6691   -0.0598    3.4829 H   0  0  0  0  0  0  0  0  0  0  0  0
   -1.5238    0.3726    2.2136 H   0  0  0  0  0  0  0  0  0  0  0  0
   -2.9200    1.4160    2.5559 H   0  0  0  0  0  0  0  0  0  0  0  0
   -4.2580    1.5622   -1.0640 H   0  0  0  0  0  0  0  0  0  0  0  0
   -4.3303    1.8015    0.6851 H   0  0  0  0  0  0  0  0  0  0  0  0
   -1.8428    2.1305   -1.1135 H   0  0  0  0  0  0  0  0  0  0  0  0
   -2.7833    3.4434   -0.4003 H   0  0  0  0  0  0  0  0  0  0  0  0
   -1.8394    2.3779    0.6431 H   0  0  0  0  0  0  0  0  0  0  0  0
    1.4781   -0.5706    2.5993 H   0  0  0  0  0  0  0  0  0  0  0  0
    3.5452    0.1039    3.7654 H   0  0  0  0  0  0  0  0  0  0  0  0
    5.7076    1.3306    3.6167 H   0  0  0  0  0  0  0  0  0  0  0  0
    4.9433    2.9010    3.9673 H   0  0  0  0  0  0  0  0  0  0  0  0
    5.9098    2.6708    2.4888 H   0  0  0  0  0  0  0  0  0  0  0  0
    4.0365    3.3806    0.9985 H   0  0  0  0  0  0  0  0  0  0  0  0
    1.0068    2.5044   -0.5712 H   0  0  0  0  0  0  0  0  0  0  0  0
    3.5591   -0.5882   -0.1565 H   0  0  0  0  0  0  0  0  0  0  0  0
    3.4252   -3.2998   -3.9522 H   0  0  0  0  0  0  0  0  0  0  0  0
    1.7608   -3.9190   -3.7558 H   0  0  0  0  0  0  0  0  0  0  0  0
    3.0638   -4.5298   -2.6940 H   0  0  0  0  0  0  0  0  0  0  0  0
  1  2  1  0
  2  3  1  0
  3  4  1  0
  4  5  1  0
  5  6  1  0
  6  7  1  0
  7  8  1  0
  6  9  1  0
  9 10  1  0
  2 11  2  0
 11 12  1  0
 12 13  2  3
 13 14  1  0
 14 15  2  0
 15 16  1  0
 16 17  2  0
 17 18  1  0
 17 19  1  0
 19 20  2  0
 20 21  1  0
 12 22  1  0
 22 23  1  0
 23 24  2  0
 24 25  1  0
 25 26  1  0
 25 27  1  0
 27  1  1  0
 20 14  1  0
 27 22  2  0
  1 28  1  0
  3 29  1  0
  4 30  1  0
  4 31  1  0
  5 32  1  0
  5 33  1  0
  6 34  1  0
  7 35  1  0
  7 36  1  0
  8 37  1  0
  8 38  1  0
  8 39  1  0
  9 40  1  0
  9 41  1  0
 10 42  1  0
 10 43  1  0
 10 44  1  0
 15 45  1  0
 16 46  1  0
 18 47  1  0
 18 48  1  0
 18 49  1  0
 19 50  1  0
 21 51  1  0
 23 52  1  0
 26 53  1  0
 26 54  1  0
 26 55  1  0
M  CHG  1   6   1
M  END
>  <ScrubInfo>  (5) 
{"isomerGroup": 0, "isomerId": 4, "confId": 0, "nr_conformers:": 1, "nr_isomers:": 9}

$$$$
_i5
     RDKit          3D

 55 57  0  0  0  0  0  0  0  0999 V2000
   -2.8415   -2.7284    0.7513 N   0  0  0  0  0  0  0  0  0  0  0  0
   -3.2829   -1.4782    0.3362 C   0  0  0  0  0  0  0  0  0  0  0  0
   -2.2834   -0.6265    0.0622 C   0  0  0  0  0  0  0  0  0  0  0  0
   -2.0961    0.7388   -0.4111 C   0  0  0  0  0  0  0  0  0  0  0  0
   -2.9448    1.6795   -0.6593 N   0  0  0  0  0  0  0  0  0  0  0  0
   -4.3147    1.4626   -0.4559 C   0  0  0  0  0  0  0  0  0  0  0  0
   -4.9051    1.6673    0.7909 C   0  0  0  0  0  0  0  0  0  0  0  0
   -6.2738    1.4372    0.9652 C   0  0  0  0  0  0  0  0  0  0  0  0
   -7.0677    1.0029   -0.1075 C   0  0  0  0  0  0  0  0  0  0  0  0
   -8.5426    0.7945    0.0749 C   0  0  0  0  0  0  0  0  0  0  0  0
   -6.4828    0.8386   -1.3692 C   0  0  0  0  0  0  0  0  0  0  0  0
   -5.1238    1.0781   -1.5311 C   0  0  0  0  0  0  0  0  0  0  0  0
   -4.5718    0.9385   -2.7760 O   0  0  0  0  0  0  0  0  0  0  0  0
   -0.7855    1.0703   -0.6366 N   0  0  0  0  0  0  0  0  0  0  0  0
    0.2030    0.2728   -0.3722 C   0  0  0  0  0  0  0  0  0  0  0  0
    1.4438    0.7689   -0.6584 N   0  0  0  0  0  0  0  0  0  0  0  0
    2.6322    0.3276    0.0363 C   0  0  0  0  0  0  0  0  0  0  0  0
    3.8847    0.6675   -0.7903 C   0  0  0  0  0  0  0  0  0  0  0  0
    5.1488   -0.0276   -0.2815 N   0  0  0  0  0  4  0  0  0  0  0  0
    5.4985    0.2659    1.1658 C   0  0  0  0  0  0  0  0  0  0  0  0
    5.8522    1.7208    1.4075 C   0  0  0  0  0  0  0  0  0  0  0  0
    6.2868    0.1650   -1.2731 C   0  0  0  0  0  0  0  0  0  0  0  0
    7.4604   -0.7433   -0.9575 C   0  0  0  0  0  0  0  0  0  0  0  0
    0.1044   -0.9814    0.1615 N   0  0  0  0  0  0  0  0  0  0  0  0
   -1.0849   -1.4315    0.3780 C   0  0  0  0  0  0  0  0  0  0  0  0
   -1.4642   -2.6697    0.9001 N   0  0  0  0  0  0  0  0  0  0  0  0
   -0.6909   -3.8679    0.6329 C   0  0  0  0  0  0  0  0  0  0  0  0
   -3.3785   -3.1172    1.5308 H   0  0  0  0  0  0  0  0  0  0  0  0
   -4.3483   -1.3073    0.2721 H   0  0  0  0  0  0  0  0  0  0  0  0
   -4.3032    2.0126    1.6264 H   0  0  0  0  0  0  0  0  0  0  0  0
   -6.7212    1.6083    1.9425 H   0  0  0  0  0  0  0  0  0  0  0  0
   -8.9156    0.0252   -0.6094 H   0  0  0  0  0  0  0  0  0  0  0  0
   -8.7659    0.4592    1.0931 H   0  0  0  0  0  0  0  0  0  0  0  0
   -9.0790    1.7290   -0.1161 H   0  0  0  0  0  0  0  0  0  0  0  0
   -7.0799    0.5416   -2.2272 H   0  0  0  0  0  0  0  0  0  0  0  0
   -3.6835    1.3414   -2.6960 H   0  0  0  0  0  0  0  0  0  0  0  0
    1.3623    1.7655   -0.8474 H   0  0  0  0  0  0  0  0  0  0  0  0
    2.6744    0.8136    1.0165 H   0  0  0  0  0  0  0  0  0  0  0  0
    2.6075   -0.7561    0.1983 H   0  0  0  0  0  0  0  0  0  0  0  0
    3.7417    0.3240   -1.8219 H   0  0  0  0  0  0  0  0  0  0  0  0
    4.0763    1.7455   -0.8137 H   0  0  0  0  0  0  0  0  0  0  0  0
    4.9324   -1.0343   -0.3143 H   0  0  0  0  0  0  0  0  0  0  0  0
    6.3267   -0.3924    1.4436 H   0  0  0  0  0  0  0  0  0  0  0  0
    4.6407   -0.0352    1.7746 H   0  0  0  0  0  0  0  0  0  0  0  0
    5.0239    2.3901    1.1592 H   0  0  0  0  0  0  0  0  0  0  0  0
    6.7322    2.0282    0.8358 H   0  0  0  0  0  0  0  0  0  0  0  0
    6.0848    1.8703    2.4672 H   0  0  0  0  0  0  0  0  0  0  0  0
    5.8906   -0.0945   -2.2609 H   0  0  0  0  0  0  0  0  0  0  0  0
    6.5691    1.2217   -1.2737 H   0  0  0  0  0  0  0  0  0  0  0  0
    7.1414   -1.7843   -0.8440 H   0  0  0  0  0  0  0  0  0  0  0  0
    7.9779   -0.4351   -0.0445 H   0  0  0  0  0  0  0  0  0  0  0  0
    8.1911   -0.7017   -1.7720 H   0  0  0  0  0  0  0  0  0  0  0  0
   -1.0963   -4.7162    1.1938 H   0  0  0  0  0  0  0  0  0  0  0  0
    0.3502   -3.7301    0.9419 H   0  0  0  0  0  0  0  0  0  0  0  0
   -0.7099   -4.1142   -0.4339 H   0  0  0  0  0  0  0  0  0  0  0  0
  1  2  1  0
  2  3  2  0
  3  4  1  0
  4  5  2  3
  5  6  1  0
  6  7  2  0
  7  8  1  0
  8  9  2  0
  9 10  1  0
  9 11  1  0
 11 12  2  0
 12 13  1  0
  4 14  1  0
 14 15  2  0
 15 16  1  0
 16 17  1  0
 17 18  1  0
 18 19  1  0
 19 20  1  0
 20 21  1  0
 19 22  1  0
 22 23  1  0
 15 24  1  0
 24 25  2  0
 25 26  1  0
 26 27  1  0
 26  1  1  0
 25  3  1  0
 12  6  1  0
  1 28  1  0
  2 29  1  0
  7 30  1  0
  8 31  1  0
 10 32  1  0
 10 33  1  0
 10 34  1  0
 11 35  1  0
 13 36  1  0
 16 37  1  0
 17 38  1  0
 17 39  1  0
 18 40  1  0
 18 41  1  0
 19 42  1  0
 20 43  1  0
 20 44  1  0
 21 45  1  0
 21 46  1  0
 21 47  1  0
 22 48  1  0
 22 49  1  0
 23 50  1  0
 23 51  1  0
 23 52  1  0
 27 53  1  0
 27 54  1  0
 27 55  1  0
M  CHG  1  19   1
M  END
>  <ScrubInfo>  (6) 
{"isomerGroup": 0, "isomerId": 5, "confId": 0, "nr_conformers:": 1, "nr_isomers:": 9}

$$$$
_i6
     RDKit          3D

 55 57  0  0  0  0  0  0  0  0999 V2000
    2.4420   -3.3821    0.4431 N   0  0  0  0  0  0  0  0  0  0  0  0
    2.7587   -2.0639    0.7500 C   0  0  0  0  0  0  0  0  0  0  0  0
    1.7212   -1.2292    0.6018 C   0  0  0  0  0  0  0  0  0  0  0  0
    1.4219    0.1977    0.7412 C   0  0  0  0  0  0  0  0  0  0  0  0
    2.3357    1.1385    1.1720 N   0  0  0  0  0  0  0  0  0  0  0  0
    3.6767    1.1801    0.7132 C   0  0  0  0  0  0  0  0  0  0  0  0
    4.6695    1.5681    1.6206 C   0  0  0  0  0  0  0  0  0  0  0  0
    6.0011    1.6936    1.2153 C   0  0  0  0  0  0  0  0  0  0  0  0
    6.3635    1.4534   -0.1143 C   0  0  0  0  0  0  0  0  0  0  0  0
    7.7891    1.6213   -0.5535 C   0  0  0  0  0  0  0  0  0  0  0  0
    5.3685    1.1252   -1.0430 C   0  0  0  0  0  0  0  0  0  0  0  0
    4.0392    1.0029   -0.6315 C   0  0  0  0  0  0  0  0  0  0  0  0
    3.0684    0.7262   -1.5578 O   0  0  0  0  0  0  0  0  0  0  0  0
    0.2023    0.5998    0.4839 N   0  0  0  0  0  0  0  0  0  0  0  0
   -0.7137   -0.3263    0.0452 C   0  0  0  0  0  0  0  0  0  0  0  0
   -1.8917    0.0701   -0.3012 N   0  0  0  0  0  0  0  0  0  0  0  0
   -2.1697    1.5115   -0.2119 C   0  0  0  0  0  0  0  0  0  0  0  0
   -3.5914    1.7197   -0.7581 C   0  0  0  0  0  0  0  0  0  0  0  0
   -4.4302    0.4954   -0.3881 N   0  0  0  0  0  4  0  0  0  0  0  0
   -4.9296    0.5022    1.0336 C   0  0  0  0  0  0  0  0  0  0  0  0
   -6.1160    1.4278    1.2305 C   0  0  0  0  0  0  0  0  0  0  0  0
   -5.4060    0.1038   -1.4621 C   0  0  0  0  0  0  0  0  0  0  0  0
   -5.9785   -1.2795   -1.2143 C   0  0  0  0  0  0  0  0  0  0  0  0
   -0.5580   -1.6829   -0.0596 N   0  0  0  0  0  0  0  0  0  0  0  0
    0.6165   -2.1368    0.2196 C   0  0  0  0  0  0  0  0  0  0  0  0
    1.0712   -3.4554    0.2256 N   0  0  0  0  0  0  0  0  0  0  0  0
    0.5622   -4.4350   -0.7153 C   0  0  0  0  0  0  0  0  0  0  0  0
    2.8393   -4.0629    1.0958 H   0  0  0  0  0  0  0  0  0  0  0  0
    3.7631   -1.8250    1.0705 H   0  0  0  0  0  0  0  0  0  0  0  0
    1.9406    2.0718    1.0900 H   0  0  0  0  0  0  0  0  0  0  0  0
    4.4121    1.7621    2.6597 H   0  0  0  0  0  0  0  0  0  0  0  0
    6.7538    1.9847    1.9459 H   0  0  0  0  0  0  0  0  0  0  0  0
    8.0216    0.9510   -1.3876 H   0  0  0  0  0  0  0  0  0  0  0  0
    8.4798    1.3776    0.2607 H   0  0  0  0  0  0  0  0  0  0  0  0
    7.9640    2.6543   -0.8693 H   0  0  0  0  0  0  0  0  0  0  0  0
    5.6418    0.9792   -2.0847 H   0  0  0  0  0  0  0  0  0  0  0  0
    3.4890    0.6314   -2.4293 H   0  0  0  0  0  0  0  0  0  0  0  0
   -1.4656    2.1085   -0.8028 H   0  0  0  0  0  0  0  0  0  0  0  0
   -2.1313    1.8426    0.8325 H   0  0  0  0  0  0  0  0  0  0  0  0
   -3.5517    1.7649   -1.8518 H   0  0  0  0  0  0  0  0  0  0  0  0
   -4.0723    2.6251   -0.3798 H   0  0  0  0  0  0  0  0  0  0  0  0
   -3.6867   -0.2374   -0.4007 H   0  0  0  0  0  0  0  0  0  0  0  0
   -5.1877   -0.5289    1.2945 H   0  0  0  0  0  0  0  0  0  0  0  0
   -4.0958    0.8023    1.6761 H   0  0  0  0  0  0  0  0  0  0  0  0
   -5.8862    2.4575    0.9434 H   0  0  0  0  0  0  0  0  0  0  0  0
   -6.9882    1.0971    0.6591 H   0  0  0  0  0  0  0  0  0  0  0  0
   -6.4046    1.4362    2.2868 H   0  0  0  0  0  0  0  0  0  0  0  0
   -6.1848    0.8704   -1.5148 H   0  0  0  0  0  0  0  0  0  0  0  0
   -4.8556    0.0952   -2.4092 H   0  0  0  0  0  0  0  0  0  0  0  0
   -6.5836   -1.5906   -2.0720 H   0  0  0  0  0  0  0  0  0  0  0  0
   -6.6280   -1.2990   -0.3343 H   0  0  0  0  0  0  0  0  0  0  0  0
   -5.1841   -2.0200   -1.0760 H   0  0  0  0  0  0  0  0  0  0  0  0
    0.9670   -5.4268   -0.4893 H   0  0  0  0  0  0  0  0  0  0  0  0
   -0.5290   -4.4971   -0.6533 H   0  0  0  0  0  0  0  0  0  0  0  0
    0.8404   -4.1703   -1.7408 H   0  0  0  0  0  0  0  0  0  0  0  0
  1  2  1  0
  2  3  2  0
  3  4  1  0
  4  5  1  0
  5  6  1  0
  6  7  2  0
  7  8  1  0
  8  9  2  0
  9 10  1  0
  9 11  1  0
 11 12  2  0
 12 13  1  0
  4 14  2  0
 14 15  1  0
 15 16  2  3
 16 17  1  0
 17 18  1  0
 18 19  1  0
 19 20  1  0
 20 21  1  0
 19 22  1  0
 22 23  1  0
 15 24  1  0
 24 25  2  0
 25 26  1  0
 26 27  1  0
 26  1  1  0
 25  3  1  0
 12  6  1  0
  1 28  1  0
  2 29  1  0
  5 30  1  0
  7 31  1  0
  8 32  1  0
 10 33  1  0
 10 34  1  0
 10 35  1  0
 11 36  1  0
 13 37  1  0
 17 38  1  0
 17 39  1  0
 18 40  1  0
 18 41  1  0
 19 42  1  0
 20 43  1  0
 20 44  1  0
 21 45  1  0
 21 46  1  0
 21 47  1  0
 22 48  1  0
 22 49  1  0
 23 50  1  0
 23 51  1  0
 23 52  1  0
 27 53  1  0
 27 54  1  0
 27 55  1  0
M  CHG  1  19   1
M  END
>  <ScrubInfo>  (7) 
{"isomerGroup": 0, "isomerId": 6, "confId": 0, "nr_conformers:": 1, "nr_isomers:": 9}

$$$$
_i7
     RDKit          3D

 55 57  0  0  0  0  0  0  0  0999 V2000
   -2.4970   -2.9527    0.5989 N   0  0  0  0  0  0  0  0  0  0  0  0
   -2.9099   -1.6538    0.3337 C   0  0  0  0  0  0  0  0  0  0  0  0
   -1.8942   -0.8134    0.0920 C   0  0  0  0  0  0  0  0  0  0  0  0
   -1.6498    0.5926   -0.2765 C   0  0  0  0  0  0  0  0  0  0  0  0
   -2.4906    1.5741   -0.4262 N   0  0  0  0  0  0  0  0  0  0  0  0
   -3.8589    1.3739   -0.1770 C   0  0  0  0  0  0  0  0  0  0  0  0
   -4.3805    1.5007    1.1108 C   0  0  0  0  0  0  0  0  0  0  0  0
   -5.7452    1.2957    1.3403 C   0  0  0  0  0  0  0  0  0  0  0  0
   -6.6052    0.9642    0.2828 C   0  0  0  0  0  0  0  0  0  0  0  0
   -8.0747    0.7812    0.5272 C   0  0  0  0  0  0  0  0  0  0  0  0
   -6.0898    0.8775   -1.0160 C   0  0  0  0  0  0  0  0  0  0  0  0
   -4.7335    1.0905   -1.2327 C   0  0  0  0  0  0  0  0  0  0  0  0
   -4.2569    1.0229   -2.5137 O   0  0  0  0  0  0  0  0  0  0  0  0
   -0.3203    0.8619   -0.4860 N   0  0  0  0  0  0  0  0  0  0  0  0
    0.7253   -0.0118   -0.3525 C   0  0  0  0  0  0  0  0  0  0  0  0
    1.9728    0.2343   -0.5497 N   0  0  0  0  0  0  0  0  0  0  0  0
    2.4050    1.5685   -0.9692 C   0  0  0  0  0  0  0  0  0  0  0  0
    3.9058    1.4588   -1.3066 C   0  0  0  0  0  0  0  0  0  0  0  0
    4.5298    0.4109   -0.3849 N   0  0  0  0  0  4  0  0  0  0  0  0
    4.8593    0.9229    0.9940 C   0  0  0  0  0  0  0  0  0  0  0  0
    6.1249    1.7599    1.0188 C   0  0  0  0  0  0  0  0  0  0  0  0
    5.5684   -0.4347   -1.0713 C   0  0  0  0  0  0  0  0  0  0  0  0
    5.9241   -1.6564   -0.2446 C   0  0  0  0  0  0  0  0  0  0  0  0
    0.5273   -1.3133    0.0446 N   0  0  0  0  0  0  0  0  0  0  0  0
   -0.6911   -1.7021    0.2679 C   0  0  0  0  0  0  0  0  0  0  0  0
   -1.1140   -2.9653    0.6857 N   0  0  0  0  0  0  0  0  0  0  0  0
   -0.4025   -4.1691    0.2977 C   0  0  0  0  0  0  0  0  0  0  0  0
   -3.0159   -3.4089    1.3539 H   0  0  0  0  0  0  0  0  0  0  0  0
   -3.9704   -1.4458    0.3366 H   0  0  0  0  0  0  0  0  0  0  0  0
   -3.7290    1.7629    1.9392 H   0  0  0  0  0  0  0  0  0  0  0  0
   -6.1371    1.4035    2.3500 H   0  0  0  0  0  0  0  0  0  0  0  0
   -8.5045    0.0743   -0.1902 H   0  0  0  0  0  0  0  0  0  0  0  0
   -8.2559    0.3777    1.5290 H   0  0  0  0  0  0  0  0  0  0  0  0
   -8.5920    1.7408    0.4327 H   0  0  0  0  0  0  0  0  0  0  0  0
   -6.7392    0.6587   -1.8598 H   0  0  0  0  0  0  0  0  0  0  0  0
   -3.3504    1.3793   -2.4585 H   0  0  0  0  0  0  0  0  0  0  0  0
   -0.1358    1.8208   -0.7322 H   0  0  0  0  0  0  0  0  0  0  0  0
    1.8588    1.9269   -1.8485 H   0  0  0  0  0  0  0  0  0  0  0  0
    2.2639    2.2816   -0.1494 H   0  0  0  0  0  0  0  0  0  0  0  0
    4.0143    1.0924   -2.3331 H   0  0  0  0  0  0  0  0  0  0  0  0
    4.4405    2.4065   -1.2063 H   0  0  0  0  0  0  0  0  0  0  0  0
    3.7088   -0.2186   -0.2411 H   0  0  0  0  0  0  0  0  0  0  0  0
    4.9486    0.0540    1.6534 H   0  0  0  0  0  0  0  0  0  0  0  0
    4.0024    1.5096    1.3406 H   0  0  0  0  0  0  0  0  0  0  0  0
    6.0667    2.6138    0.3383 H   0  0  0  0  0  0  0  0  0  0  0  0
    7.0074    1.1694    0.7560 H   0  0  0  0  0  0  0  0  0  0  0  0
    6.2866    2.1526    2.0282 H   0  0  0  0  0  0  0  0  0  0  0  0
    5.1363   -0.7638   -2.0227 H   0  0  0  0  0  0  0  0  0  0  0  0
    6.4399    0.1932   -1.2790 H   0  0  0  0  0  0  0  0  0  0  0  0
    5.0299   -2.2256    0.0293 H   0  0  0  0  0  0  0  0  0  0  0  0
    6.4577   -1.3863    0.6713 H   0  0  0  0  0  0  0  0  0  0  0  0
    6.5805   -2.3167   -0.8206 H   0  0  0  0  0  0  0  0  0  0  0  0
   -0.8318   -5.0436    0.7974 H   0  0  0  0  0  0  0  0  0  0  0  0
    0.6513   -4.1034    0.5868 H   0  0  0  0  0  0  0  0  0  0  0  0
   -0.4603   -4.3230   -0.7849 H   0  0  0  0  0  0  0  0  0  0  0  0
  1  2  1  0
  2  3  2  0
  3  4  1  0
  4  5  2  3
  5  6  1  0
  6  7  2  0
  7  8  1  0
  8  9  2  0
  9 10  1  0
  9 11  1  0
 11 12  2  0
 12 13  1  0
  4 14  1  0
 14 15  1  0
 15 16  2  3
 16 17  1  0
 17 18  1  0
 18 19  1  0
 19 20  1  0
 20 21  1  0
 19 22  1  0
 22 23  1  0
 15 24  1  0
 24 25  2  0
 25 26  1  0
 26 27  1  0
 26  1  1  0
 25  3  1  0
 12  6  1  0
  1 28  1  0
  2 29  1  0
  7 30  1  0
  8 31  1  0
 10 32  1  0
 10 33  1  0
 10 34  1  0
 11 35  1  0
 13 36  1  0
 14 37  1  0
 17 38  1  0
 17 39  1  0
 18 40  1  0
 18 41  1  0
 19 42  1  0
 20 43  1  0
 20 44  1  0
 21 45  1  0
 21 46  1  0
 21 47  1  0
 22 48  1  0
 22 49  1  0
 23 50  1  0
 23 51  1  0
 23 52  1  0
 27 53  1  0
 27 54  1  0
 27 55  1  0
M  CHG  1  19   1
M  END
>  <ScrubInfo>  (8) 
{"isomerGroup": 0, "isomerId": 7, "confId": 0, "nr_conformers:": 1, "nr_isomers:": 9}

$$$$
_i8
     RDKit          3D

 55 57  0  0  0  0  0  0  0  0999 V2000
   -0.1545   -0.6380   -0.7527 N   0  0  0  0  0  0  0  0  0  0  0  0
   -0.3478    0.4631    0.0660 C   0  0  0  0  0  0  0  0  0  0  0  0
   -1.4672    0.9754    0.4562 N   0  0  0  0  0  0  0  0  0  0  0  0
   -2.7242    0.3785    0.0324 C   0  0  0  0  0  0  0  0  0  0  0  0
   -3.8609    1.2054    0.6597 C   0  0  0  0  0  0  0  0  0  0  0  0
   -5.2370    0.7414    0.1961 N   0  0  0  0  0  4  0  0  0  0  0  0
   -5.5943   -0.6430    0.7165 C   0  0  0  0  0  0  0  0  0  0  0  0
   -5.6741   -1.6140   -0.4463 C   0  0  0  0  0  0  0  0  0  0  0  0
   -6.2894    1.7855    0.5368 C   0  0  0  0  0  0  0  0  0  0  0  0
   -7.5476    1.5571   -0.2828 C   0  0  0  0  0  0  0  0  0  0  0  0
    0.8258    1.0445    0.4876 N   0  0  0  0  0  0  0  0  0  0  0  0
    2.1473    0.7189    0.2666 C   0  0  0  0  0  0  0  0  0  0  0  0
    3.0970    1.4185    0.8069 N   0  0  0  0  0  0  0  0  0  0  0  0
    4.4467    1.0732    0.6651 C   0  0  0  0  0  0  0  0  0  0  0  0
    5.2440    1.7914   -0.2285 C   0  0  0  0  0  0  0  0  0  0  0  0
    6.6035    1.4966   -0.3639 C   0  0  0  0  0  0  0  0  0  0  0  0
    7.1937    0.4930    0.4145 C   0  0  0  0  0  0  0  0  0  0  0  0
    8.6464    0.1571    0.2425 C   0  0  0  0  0  0  0  0  0  0  0  0
    6.4016   -0.2266    1.3188 C   0  0  0  0  0  0  0  0  0  0  0  0
    5.0438    0.0725    1.4480 C   0  0  0  0  0  0  0  0  0  0  0  0
    4.2693   -0.6326    2.3331 O   0  0  0  0  0  0  0  0  0  0  0  0
    2.2522   -0.4314   -0.6128 C   0  0  0  0  0  0  0  0  0  0  0  0
    3.2821   -1.1704   -1.2226 C   0  0  0  0  0  0  0  0  0  0  0  0
    2.8200   -2.1710   -1.9863 N   0  0  0  0  0  0  0  0  0  0  0  0
    1.4807   -2.0821   -1.8630 N   0  0  0  0  0  0  0  0  0  0  0  0
    0.6552   -3.0280   -2.5706 C   0  0  0  0  0  0  0  0  0  0  0  0
    1.1012   -1.0436   -1.0660 C   0  0  0  0  0  0  0  0  0  0  0  0
   -0.9661   -1.1157   -1.1134 H   0  0  0  0  0  0  0  0  0  0  0  0
   -2.8137    0.4039   -1.0599 H   0  0  0  0  0  0  0  0  0  0  0  0
   -2.7822   -0.6622    0.3679 H   0  0  0  0  0  0  0  0  0  0  0  0
   -3.8457    1.1620    1.7549 H   0  0  0  0  0  0  0  0  0  0  0  0
   -3.7545    2.2521    0.3517 H   0  0  0  0  0  0  0  0  0  0  0  0
   -5.1947    0.7144   -0.8311 H   0  0  0  0  0  0  0  0  0  0  0  0
   -6.5527   -0.5877    1.2421 H   0  0  0  0  0  0  0  0  0  0  0  0
   -4.8355   -0.9533    1.4418 H   0  0  0  0  0  0  0  0  0  0  0  0
   -5.9286   -2.6148   -0.0834 H   0  0  0  0  0  0  0  0  0  0  0  0
   -6.4434   -1.3101   -1.1635 H   0  0  0  0  0  0  0  0  0  0  0  0
   -4.7196   -1.6810   -0.9776 H   0  0  0  0  0  0  0  0  0  0  0  0
   -5.8725    2.7666    0.2862 H   0  0  0  0  0  0  0  0  0  0  0  0
   -6.4769    1.7371    1.6145 H   0  0  0  0  0  0  0  0  0  0  0  0
   -7.3273    1.5685   -1.3553 H   0  0  0  0  0  0  0  0  0  0  0  0
   -8.0276    0.6041   -0.0431 H   0  0  0  0  0  0  0  0  0  0  0  0
   -8.2728    2.3518   -0.0803 H   0  0  0  0  0  0  0  0  0  0  0  0
    0.7177    1.8358    1.1055 H   0  0  0  0  0  0  0  0  0  0  0  0
    4.8033    2.5872   -0.8225 H   0  0  0  0  0  0  0  0  0  0  0  0
    7.2006    2.0628   -1.0761 H   0  0  0  0  0  0  0  0  0  0  0  0
    9.2195    1.0412   -0.0562 H   0  0  0  0  0  0  0  0  0  0  0  0
    9.0769   -0.2064    1.1815 H   0  0  0  0  0  0  0  0  0  0  0  0
    8.7629   -0.6158   -0.5234 H   0  0  0  0  0  0  0  0  0  0  0  0
    6.8524   -1.0163    1.9132 H   0  0  0  0  0  0  0  0  0  0  0  0
    4.8505   -1.1969    2.8680 H   0  0  0  0  0  0  0  0  0  0  0  0
    4.3533   -1.0343   -1.1619 H   0  0  0  0  0  0  0  0  0  0  0  0
   -0.3229   -3.0935   -2.0890 H   0  0  0  0  0  0  0  0  0  0  0  0
    0.5487   -2.6822   -3.6016 H   0  0  0  0  0  0  0  0  0  0  0  0
    1.1372   -4.0089   -2.5448 H   0  0  0  0  0  0  0  0  0  0  0  0
  1  2  1  0
  2  3  2  3
  3  4  1  0
  4  5  1  0
  5  6  1  0
  6  7  1  0
  7  8  1  0
  6  9  1  0
  9 10  1  0
  2 11  1  0
 11 12  1  0
 12 13  2  3
 13 14  1  0
 14 15  2  0
 15 16  1  0
 16 17  2  0
 17 18  1  0
 17 19  1  0
 19 20  2  0
 20 21  1  0
 12 22  1  0
 22 23  1  0
 23 24  2  0
 24 25  1  0
 25 26  1  0
 25 27  1  0
 27  1  1  0
 20 14  1  0
 27 22  2  0
  1 28  1  0
  4 29  1  0
  4 30  1  0
  5 31  1  0
  5 32  1  0
  6 33  1  0
  7 34  1  0
  7 35  1  0
  8 36  1  0
  8 37  1  0
  8 38  1  0
  9 39  1  0
  9 40  1  0
 10 41  1  0
 10 42  1  0
 10 43  1  0
 11 44  1  0
 15 45  1  0
 16 46  1  0
 18 47  1  0
 18 48  1  0
 18 49  1  0
 19 50  1  0
 21 51  1  0
 23 52  1  0
 26 53  1  0
 26 54  1  0
 26 55  1  0
M  CHG  1   6   1
M  END
>  <ScrubInfo>  (9) 
{"isomerGroup": 0, "isomerId": 8, "confId": 0, "nr_conformers:": 1, "nr_isomers:": 9}

$$$$
