REMARK SMILES CC[NH+](CC)CCNc1nc(Nc2ccc(C)cc2O)c2cnn(C)c2n1
REMARK SMILES IDX 8 1 7 3 6 4 3 5 2 7 1 8 4 9 5 10 9 11 10 12 27 13 11 14
REMARK SMILES IDX 26 15 21 16 24 17 22 18 23 19 25 20 12 21 13 23 14 24 19 25
REMARK SMILES IDX 15 26 18 27 16 28 17 29 20 30
REMARK H PARENT 8 2 3 6 12 22 20 31
ROOT
ATOM      1  N   UNL     1      -1.489   1.091  -1.595  1.00  0.00    -0.348 N 
ATOM      2  H   UNL     1      -1.011   1.863  -2.059  1.00  0.00     0.163 HD
ENDROOT
BRANCH   1   3
ATOM      3  C   UNL     1      -2.490   1.451  -0.610  1.00  0.00     0.177 C 
BRANCH   3   4
ATOM      4  C   UNL     1      -3.636   0.418  -0.584  1.00  0.00     0.283 C 
BRANCH   4   5
ATOM      5  N   UNL     1      -4.615   0.650   0.568  1.00  0.00    -0.334 N 
ATOM      6  H   UNL     1      -4.031   0.737   1.411  1.00  0.00     0.348 HD
BRANCH   5   7
ATOM      7  C   UNL     1      -5.433   1.924   0.449  1.00  0.00     0.258 C 
ATOM      8  C   UNL     1      -4.866   2.995   1.363  1.00  0.00     0.071 C 
ENDBRANCH   5   7
BRANCH   5   9
ATOM      9  C   UNL     1      -5.468  -0.576   0.847  1.00  0.00     0.258 C 
ATOM     10  C   UNL     1      -6.355  -0.951  -0.327  1.00  0.00     0.071 C 
ENDBRANCH   5   9
ENDBRANCH   4   5
ENDBRANCH   3   4
ENDBRANCH   1   3
BRANCH   1  11
ATOM     11  C   UNL     1      -0.469   0.256  -1.151  1.00  0.00     0.226 A 
ATOM     12  N   UNL     1       0.712   0.462  -1.754  1.00  0.00    -0.195 NA
ATOM     13  N   UNL     1      -0.726  -0.649  -0.192  1.00  0.00    -0.193 NA
ATOM     14  C   UNL     1       1.789  -0.290  -1.419  1.00  0.00     0.147 A 
ATOM     15  C   UNL     1       0.353  -1.397   0.106  1.00  0.00     0.165 A 
ATOM     16  C   UNL     1       1.613  -1.282  -0.452  1.00  0.00     0.082 A 
ATOM     17  N   UNL     1       0.439  -2.427   1.005  1.00  0.00    -0.250 N 
ATOM     18  C   UNL     1       2.373  -2.291   0.174  1.00  0.00     0.149 A 
ATOM     19  N   UNL     1       1.666  -2.983   1.074  1.00  0.00    -0.179 NA
ATOM     20  C   UNL     1      -0.613  -2.952   1.837  1.00  0.00     0.176 C 
BRANCH  14  21
ATOM     21  N   UNL     1       2.985  -0.043  -2.112  1.00  0.00    -0.336 N 
ATOM     22  H   UNL     1       2.826   0.796  -2.672  1.00  0.00     0.168 HD
BRANCH  21  23
ATOM     23  C   UNL     1       4.283   0.013  -1.548  1.00  0.00     0.082 A 
ATOM     24  C   UNL     1       4.531   0.490  -0.257  1.00  0.00     0.030 A 
ATOM     25  C   UNL     1       5.384  -0.290  -2.362  1.00  0.00     0.139 A 
ATOM     26  C   UNL     1       5.843   0.612   0.215  1.00  0.00     0.006 A 
ATOM     27  C   UNL     1       6.691  -0.166  -1.906  1.00  0.00     0.051 A 
ATOM     28  C   UNL     1       6.932   0.294  -0.608  1.00  0.00    -0.047 A 
ATOM     29  C   UNL     1       8.336   0.397  -0.088  1.00  0.00     0.044 C 
BRANCH  25  30
ATOM     30  O   UNL     1       5.187  -0.747  -3.638  1.00  0.00    -0.506 OA
ATOM     31  H   UNL     1       4.230  -0.915  -3.715  1.00  0.00     0.293 HD
ENDBRANCH  25  30
ENDBRANCH  21  23
ENDBRANCH  14  21
ENDBRANCH   1  11
TORSDOF 9
