_i0
     RDKit          3D

 45 47  0  0  0  0  0  0  0  0999 V2000
    4.0389    2.5540   -0.8811 C   0  0  0  0  0  0  0  0  0  0  0  0
    3.8159    1.2020   -0.2023 C   0  0  0  0  0  0  0  0  0  0  0  0
    5.1410    0.6833    0.3633 C   0  0  0  0  0  0  0  0  0  0  0  0
    3.2134    0.1531   -1.1592 C   0  0  0  0  0  0  0  0  0  0  0  0
    1.8451    0.5162   -1.7477 C   0  0  0  0  0  0  0  0  0  0  0  0
    0.8596    0.7797   -0.7131 N   0  0  0  0  0  0  0  0  0  0  0  0
    0.0894   -0.3078   -0.3177 C   0  0  0  0  0  0  0  0  0  0  0  0
   -1.1907   -0.0043   -0.0409 N   0  0  0  0  0  0  0  0  0  0  0  0
   -2.0651   -0.9686    0.3495 C   0  0  0  0  0  0  0  0  0  0  0  0
   -3.4043   -0.6518    0.6516 N   0  0  0  0  0  0  0  0  0  0  0  0
   -3.9553    0.6487    0.6563 C   0  0  0  0  0  0  0  0  0  0  0  0
   -4.3811    1.1864    1.8845 C   0  0  0  0  0  0  0  0  0  0  0  0
   -4.8655    2.4934    1.9641 C   0  0  0  0  0  0  0  0  0  0  0  0
   -4.9214    3.2741    0.8174 C   0  0  0  0  0  0  0  0  0  0  0  0
   -5.3876    4.5271    0.8969 F   0  0  0  0  0  0  0  0  0  0  0  0
   -4.5079    2.7756   -0.4095 C   0  0  0  0  0  0  0  0  0  0  0  0
   -4.0225    1.4680   -0.4917 C   0  0  0  0  0  0  0  0  0  0  0  0
   -3.6107    0.8779   -2.0676 Cl  0  0  0  0  0  0  0  0  0  0  0  0
   -1.5686   -2.2696    0.4674 C   0  0  0  0  0  0  0  0  0  0  0  0
   -2.0392   -3.5522    0.8151 C   0  0  0  0  0  0  0  0  0  0  0  0
   -1.0856   -4.4890    0.7612 N   0  0  0  0  0  0  0  0  0  0  0  0
    0.0054   -3.7956    0.3567 N   0  0  0  0  0  0  0  0  0  0  0  0
    1.2583   -4.4842    0.1750 C   0  0  0  0  0  0  0  0  0  0  0  0
   -0.2359   -2.4630    0.1641 C   0  0  0  0  0  0  0  0  0  0  0  0
    0.6358   -1.5276   -0.2364 N   0  0  0  0  0  0  0  0  0  0  0  0
    4.6652    2.4516   -1.7737 H   0  0  0  0  0  0  0  0  0  0  0  0
    4.5347    3.2536   -0.1993 H   0  0  0  0  0  0  0  0  0  0  0  0
    3.0908    3.0116   -1.1790 H   0  0  0  0  0  0  0  0  0  0  0  0
    3.1331    1.3509    0.6432 H   0  0  0  0  0  0  0  0  0  0  0  0
    5.5657    1.3972    1.0771 H   0  0  0  0  0  0  0  0  0  0  0  0
    4.9945   -0.2657    0.8898 H   0  0  0  0  0  0  0  0  0  0  0  0
    5.8766    0.5208   -0.4319 H   0  0  0  0  0  0  0  0  0  0  0  0
    3.1381   -0.8034   -0.6278 H   0  0  0  0  0  0  0  0  0  0  0  0
    3.9080   -0.0167   -1.9923 H   0  0  0  0  0  0  0  0  0  0  0  0
    1.5105   -0.2706   -2.4366 H   0  0  0  0  0  0  0  0  0  0  0  0
    1.9455    1.4172   -2.3634 H   0  0  0  0  0  0  0  0  0  0  0  0
    0.1798    1.4967   -0.9505 H   0  0  0  0  0  0  0  0  0  0  0  0
   -3.7771   -1.2605    1.3692 H   0  0  0  0  0  0  0  0  0  0  0  0
   -4.3167    0.5956    2.7951 H   0  0  0  0  0  0  0  0  0  0  0  0
   -5.1887    2.9091    2.9136 H   0  0  0  0  0  0  0  0  0  0  0  0
   -4.5748    3.4058   -1.2902 H   0  0  0  0  0  0  0  0  0  0  0  0
   -3.0390   -3.8468    1.1058 H   0  0  0  0  0  0  0  0  0  0  0  0
    1.5414   -4.9398    1.1272 H   0  0  0  0  0  0  0  0  0  0  0  0
    1.1201   -5.2523   -0.5902 H   0  0  0  0  0  0  0  0  0  0  0  0
    2.0308   -3.7801   -0.1423 H   0  0  0  0  0  0  0  0  0  0  0  0
  1  2  1  0
  2  3  1  0
  2  4  1  0
  4  5  1  0
  5  6  1  0
  6  7  1  0
  7  8  2  0
  8  9  1  0
  9 10  1  0
 10 11  1  0
 11 12  2  0
 12 13  1  0
 13 14  2  0
 14 15  1  0
 14 16  1  0
 16 17  2  0
 17 18  1  0
  9 19  2  0
 19 20  1  0
 20 21  2  0
 21 22  1  0
 22 23  1  0
 22 24  1  0
 24 25  2  0
 25  7  1  0
 17 11  1  0
 24 19  1  0
  1 26  1  0
  1 27  1  0
  1 28  1  0
  2 29  1  0
  3 30  1  0
  3 31  1  0
  3 32  1  0
  4 33  1  0
  4 34  1  0
  5 35  1  0
  5 36  1  0
  6 37  1  0
 10 38  1  0
 12 39  1  0
 13 40  1  0
 16 41  1  0
 20 42  1  0
 23 43  1  0
 23 44  1  0
 23 45  1  0
M  END
>  <ScrubInfo>  (1) 
{"isomerGroup": 0, "isomerId": 0, "confId": 0, "nr_conformers:": 1, "nr_isomers:": 9}

$$$$
_i1
     RDKit          3D

 45 47  0  0  0  0  0  0  0  0999 V2000
   -0.0502   -0.0946   -0.3604 N   0  0  0  0  0  0  0  0  0  0  0  0
   -1.1472   -0.3131    0.4517 C   0  0  0  0  0  0  0  0  0  0  0  0
   -1.7258   -1.5627    0.5384 N   0  0  0  0  0  0  0  0  0  0  0  0
   -3.0613   -1.9218    0.2171 C   0  0  0  0  0  0  0  0  0  0  0  0
   -4.0255   -0.9835   -0.1842 C   0  0  0  0  0  0  0  0  0  0  0  0
   -5.3464   -1.3725   -0.4284 C   0  0  0  0  0  0  0  0  0  0  0  0
   -5.7174   -2.7006   -0.2638 C   0  0  0  0  0  0  0  0  0  0  0  0
   -6.9838   -3.0651   -0.4996 F   0  0  0  0  0  0  0  0  0  0  0  0
   -4.7959   -3.6545    0.1388 C   0  0  0  0  0  0  0  0  0  0  0  0
   -3.4787   -3.2640    0.3811 C   0  0  0  0  0  0  0  0  0  0  0  0
   -2.3489   -4.4806    0.8746 Cl  0  0  0  0  0  0  0  0  0  0  0  0
   -1.5363    0.7353    1.1861 C   0  0  0  0  0  0  0  0  0  0  0  0
   -2.5259    1.0268    2.2285 C   0  0  0  0  0  0  0  0  0  0  0  0
   -2.4747    2.2656    2.6496 N   0  0  0  0  0  0  0  0  0  0  0  0
   -1.4709    2.8802    1.8805 N   0  0  0  0  0  0  0  0  0  0  0  0
   -0.9320    4.1453    2.3195 C   0  0  0  0  0  0  0  0  0  0  0  0
   -0.8137    2.0115    1.0235 C   0  0  0  0  0  0  0  0  0  0  0  0
    0.1996    2.2030    0.2518 N   0  0  0  0  0  0  0  0  0  0  0  0
    0.6078    1.1109   -0.4828 C   0  0  0  0  0  0  0  0  0  0  0  0
    1.6146    1.3614   -1.2380 N   0  0  0  0  0  0  0  0  0  0  0  0
    2.1902    0.3446   -2.1051 C   0  0  0  0  0  0  0  0  0  0  0  0
    3.2065   -0.5143   -1.3495 C   0  0  0  0  0  0  0  0  0  0  0  0
    4.3754    0.2651   -0.7143 C   0  0  0  0  0  0  0  0  0  0  0  0
    5.2684   -0.6963    0.0748 C   0  0  0  0  0  0  0  0  0  0  0  0
    5.2128    1.0121   -1.7530 C   0  0  0  0  0  0  0  0  0  0  0  0
    0.2484   -0.8630   -0.9357 H   0  0  0  0  0  0  0  0  0  0  0  0
   -1.0878   -2.3308    0.3361 H   0  0  0  0  0  0  0  0  0  0  0  0
   -3.7695    0.0612   -0.3393 H   0  0  0  0  0  0  0  0  0  0  0  0
   -6.0869   -0.6445   -0.7477 H   0  0  0  0  0  0  0  0  0  0  0  0
   -5.1120   -4.6853    0.2605 H   0  0  0  0  0  0  0  0  0  0  0  0
   -3.2037    0.2495    2.6035 H   0  0  0  0  0  0  0  0  0  0  0  0
   -0.1613    3.9879    3.0804 H   0  0  0  0  0  0  0  0  0  0  0  0
   -1.7195    4.7733    2.7485 H   0  0  0  0  0  0  0  0  0  0  0  0
   -0.4887    4.6926    1.4815 H   0  0  0  0  0  0  0  0  0  0  0  0
    2.6735    0.8449   -2.9511 H   0  0  0  0  0  0  0  0  0  0  0  0
    1.4198   -0.2916   -2.5562 H   0  0  0  0  0  0  0  0  0  0  0  0
    3.6051   -1.2660   -2.0428 H   0  0  0  0  0  0  0  0  0  0  0  0
    2.6851   -1.0697   -0.5597 H   0  0  0  0  0  0  0  0  0  0  0  0
    3.9739    0.9994   -0.0051 H   0  0  0  0  0  0  0  0  0  0  0  0
    6.0833   -0.1552    0.5673 H   0  0  0  0  0  0  0  0  0  0  0  0
    4.6941   -1.2115    0.8520 H   0  0  0  0  0  0  0  0  0  0  0  0
    5.7118   -1.4549   -0.5792 H   0  0  0  0  0  0  0  0  0  0  0  0
    4.6311    1.7989   -2.2427 H   0  0  0  0  0  0  0  0  0  0  0  0
    6.0759    1.4947   -1.2816 H   0  0  0  0  0  0  0  0  0  0  0  0
    5.5869    0.3317   -2.5254 H   0  0  0  0  0  0  0  0  0  0  0  0
  1  2  1  0
  2  3  1  0
  3  4  1  0
  4  5  2  0
  5  6  1  0
  6  7  2  0
  7  8  1  0
  7  9  1  0
  9 10  2  0
 10 11  1  0
  2 12  2  0
 12 13  1  0
 13 14  2  0
 14 15  1  0
 15 16  1  0
 15 17  1  0
 17 18  2  0
 18 19  1  0
 19 20  2  3
 20 21  1  0
 21 22  1  0
 22 23  1  0
 23 24  1  0
 23 25  1  0
 19  1  1  0
 10  4  1  0
 17 12  1  0
  1 26  1  0
  3 27  1  0
  5 28  1  0
  6 29  1  0
  9 30  1  0
 13 31  1  0
 16 32  1  0
 16 33  1  0
 16 34  1  0
 21 35  1  0
 21 36  1  0
 22 37  1  0
 22 38  1  0
 23 39  1  0
 24 40  1  0
 24 41  1  0
 24 42  1  0
 25 43  1  0
 25 44  1  0
 25 45  1  0
M  END
>  <ScrubInfo>  (2) 
{"isomerGroup": 0, "isomerId": 1, "confId": 0, "nr_conformers:": 1, "nr_isomers:": 9}

$$$$
_i2
     RDKit          3D

 45 47  0  0  0  0  0  0  0  0999 V2000
    0.1088   -0.0942   -0.3412 N   0  0  0  0  0  0  0  0  0  0  0  0
    0.8798    1.0368   -0.2596 C   0  0  0  0  0  0  0  0  0  0  0  0
    2.2204    0.8928   -0.4681 N   0  0  0  0  0  0  0  0  0  0  0  0
    2.8326   -0.0106   -1.4242 C   0  0  0  0  0  0  0  0  0  0  0  0
    3.3911   -1.2579   -0.7345 C   0  0  0  0  0  0  0  0  0  0  0  0
    4.7876   -1.0780   -0.1039 C   0  0  0  0  0  0  0  0  0  0  0  0
    5.3007   -2.4310    0.3992 C   0  0  0  0  0  0  0  0  0  0  0  0
    4.8063   -0.0672    1.0424 C   0  0  0  0  0  0  0  0  0  0  0  0
    0.4030    2.2250    0.0186 N   0  0  0  0  0  0  0  0  0  0  0  0
   -0.9486    2.1961    0.1937 C   0  0  0  0  0  0  0  0  0  0  0  0
   -1.8062    1.1080    0.1249 C   0  0  0  0  0  0  0  0  0  0  0  0
   -3.0753    1.6509    0.3907 C   0  0  0  0  0  0  0  0  0  0  0  0
   -3.0409    2.9709    0.6111 N   0  0  0  0  0  0  0  0  0  0  0  0
   -1.7305    3.2794    0.4809 N   0  0  0  0  0  0  0  0  0  0  0  0
   -1.3063    4.6458    0.6543 C   0  0  0  0  0  0  0  0  0  0  0  0
   -1.2502   -0.2000   -0.1616 C   0  0  0  0  0  0  0  0  0  0  0  0
   -1.8573   -1.3452   -0.2421 N   0  0  0  0  0  0  0  0  0  0  0  0
   -3.2444   -1.4682   -0.0910 C   0  0  0  0  0  0  0  0  0  0  0  0
   -3.7570   -1.7844    1.1745 C   0  0  0  0  0  0  0  0  0  0  0  0
   -5.1293   -1.9591    1.3599 C   0  0  0  0  0  0  0  0  0  0  0  0
   -5.9887   -1.8336    0.2744 C   0  0  0  0  0  0  0  0  0  0  0  0
   -7.3044   -2.0040    0.4551 F   0  0  0  0  0  0  0  0  0  0  0  0
   -5.5064   -1.5409   -0.9947 C   0  0  0  0  0  0  0  0  0  0  0  0
   -4.1342   -1.3666   -1.1785 C   0  0  0  0  0  0  0  0  0  0  0  0
   -3.5621   -1.0134   -2.7712 Cl  0  0  0  0  0  0  0  0  0  0  0  0
    0.5746   -0.9753   -0.4715 H   0  0  0  0  0  0  0  0  0  0  0  0
    2.6755    1.8021   -0.4319 H   0  0  0  0  0  0  0  0  0  0  0  0
    3.6316    0.5139   -1.9608 H   0  0  0  0  0  0  0  0  0  0  0  0
    2.0976   -0.3074   -2.1819 H   0  0  0  0  0  0  0  0  0  0  0  0
    2.6880   -1.6288    0.0215 H   0  0  0  0  0  0  0  0  0  0  0  0
    3.4688   -2.0433   -1.4980 H   0  0  0  0  0  0  0  0  0  0  0  0
    5.4801   -0.7277   -0.8799 H   0  0  0  0  0  0  0  0  0  0  0  0
    6.3124   -2.3368    0.8080 H   0  0  0  0  0  0  0  0  0  0  0  0
    4.6532   -2.8338    1.1856 H   0  0  0  0  0  0  0  0  0  0  0  0
    5.3395   -3.1611   -0.4161 H   0  0  0  0  0  0  0  0  0  0  0  0
    4.6242    0.9483    0.6797 H   0  0  0  0  0  0  0  0  0  0  0  0
    4.0501   -0.3069    1.7973 H   0  0  0  0  0  0  0  0  0  0  0  0
    5.7842   -0.0570    1.5363 H   0  0  0  0  0  0  0  0  0  0  0  0
   -4.0368    1.1613    0.4420 H   0  0  0  0  0  0  0  0  0  0  0  0
   -0.2350    4.7354    0.4625 H   0  0  0  0  0  0  0  0  0  0  0  0
   -1.5257    4.9447    1.6824 H   0  0  0  0  0  0  0  0  0  0  0  0
   -1.8601    5.2705   -0.0512 H   0  0  0  0  0  0  0  0  0  0  0  0
   -3.0793   -1.8957    2.0176 H   0  0  0  0  0  0  0  0  0  0  0  0
   -5.5306   -2.1975    2.3403 H   0  0  0  0  0  0  0  0  0  0  0  0
   -6.2009   -1.4564   -1.8240 H   0  0  0  0  0  0  0  0  0  0  0  0
  1  2  1  0
  2  3  1  0
  3  4  1  0
  4  5  1  0
  5  6  1  0
  6  7  1  0
  6  8  1  0
  2  9  2  0
  9 10  1  0
 10 11  2  0
 11 12  1  0
 12 13  2  0
 13 14  1  0
 14 15  1  0
 11 16  1  0
 16 17  2  3
 17 18  1  0
 18 19  2  0
 19 20  1  0
 20 21  2  0
 21 22  1  0
 21 23  1  0
 23 24  2  0
 24 25  1  0
 16  1  1  0
 24 18  1  0
 14 10  1  0
  1 26  1  0
  3 27  1  0
  4 28  1  0
  4 29  1  0
  5 30  1  0
  5 31  1  0
  6 32  1  0
  7 33  1  0
  7 34  1  0
  7 35  1  0
  8 36  1  0
  8 37  1  0
  8 38  1  0
 12 39  1  0
 15 40  1  0
 15 41  1  0
 15 42  1  0
 19 43  1  0
 20 44  1  0
 23 45  1  0
M  END
>  <ScrubInfo>  (3) 
{"isomerGroup": 0, "isomerId": 2, "confId": 0, "nr_conformers:": 1, "nr_isomers:": 9}

$$$$
_i3
     RDKit          3D

 45 47  0  0  0  0  0  0  0  0999 V2000
   -0.1770   -2.6160   -0.0652 N   0  0  0  0  0  0  0  0  0  0  0  0
   -0.9172   -1.4758    0.1602 C   0  0  0  0  0  0  0  0  0  0  0  0
   -2.1552   -1.6174    0.5051 N   0  0  0  0  0  0  0  0  0  0  0  0
   -2.9533   -0.4164    0.7652 C   0  0  0  0  0  0  0  0  0  0  0  0
   -3.6283    0.0408   -0.5299 C   0  0  0  0  0  0  0  0  0  0  0  0
   -4.4862    1.3139   -0.4109 C   0  0  0  0  0  0  0  0  0  0  0  0
   -5.6430    1.1488    0.5740 C   0  0  0  0  0  0  0  0  0  0  0  0
   -3.6503    2.5436   -0.0543 C   0  0  0  0  0  0  0  0  0  0  0  0
   -0.3683   -0.2102    0.0153 N   0  0  0  0  0  0  0  0  0  0  0  0
    0.8865   -0.0968   -0.3261 C   0  0  0  0  0  0  0  0  0  0  0  0
    1.4854    1.1292   -0.4883 N   0  0  0  0  0  0  0  0  0  0  0  0
    2.7283    1.4919    0.0986 C   0  0  0  0  0  0  0  0  0  0  0  0
    3.6030    2.2503   -0.7008 C   0  0  0  0  0  0  0  0  0  0  0  0
    4.8249    2.7000   -0.1992 C   0  0  0  0  0  0  0  0  0  0  0  0
    5.1669    2.4204    1.1165 C   0  0  0  0  0  0  0  0  0  0  0  0
    6.3375    2.8556    1.5990 F   0  0  0  0  0  0  0  0  0  0  0  0
    4.3060    1.7144    1.9454 C   0  0  0  0  0  0  0  0  0  0  0  0
    3.0809    1.2644    1.4457 C   0  0  0  0  0  0  0  0  0  0  0  0
    2.0241    0.4745    2.5618 Cl  0  0  0  0  0  0  0  0  0  0  0  0
    1.6892   -1.2675   -0.6055 C   0  0  0  0  0  0  0  0  0  0  0  0
    2.9875   -1.5679   -1.0452 C   0  0  0  0  0  0  0  0  0  0  0  0
    3.2047   -2.8897   -1.1382 N   0  0  0  0  0  0  0  0  0  0  0  0
    2.0238   -3.4392   -0.7599 N   0  0  0  0  0  0  0  0  0  0  0  0
    1.8888   -4.8732   -0.7431 C   0  0  0  0  0  0  0  0  0  0  0  0
    1.1013   -2.4929   -0.4501 C   0  0  0  0  0  0  0  0  0  0  0  0
   -0.6854   -3.4806    0.0615 H   0  0  0  0  0  0  0  0  0  0  0  0
   -3.7153   -0.6892    1.5034 H   0  0  0  0  0  0  0  0  0  0  0  0
   -2.3639    0.3823    1.2276 H   0  0  0  0  0  0  0  0  0  0  0  0
   -2.8657    0.2051   -1.3022 H   0  0  0  0  0  0  0  0  0  0  0  0
   -4.2582   -0.7764   -0.9059 H   0  0  0  0  0  0  0  0  0  0  0  0
   -4.9237    1.4944   -1.4019 H   0  0  0  0  0  0  0  0  0  0  0  0
   -6.2372    0.2614    0.3323 H   0  0  0  0  0  0  0  0  0  0  0  0
   -5.2892    1.0543    1.6056 H   0  0  0  0  0  0  0  0  0  0  0  0
   -6.3091    2.0175    0.5319 H   0  0  0  0  0  0  0  0  0  0  0  0
   -4.2594    3.4519   -0.1173 H   0  0  0  0  0  0  0  0  0  0  0  0
   -2.8094    2.6579   -0.7464 H   0  0  0  0  0  0  0  0  0  0  0  0
   -3.2508    2.4849    0.9629 H   0  0  0  0  0  0  0  0  0  0  0  0
    0.7996    1.8437   -0.2481 H   0  0  0  0  0  0  0  0  0  0  0  0
    3.3374    2.4764   -1.7322 H   0  0  0  0  0  0  0  0  0  0  0  0
    5.5075    3.2678   -0.8243 H   0  0  0  0  0  0  0  0  0  0  0  0
    4.5926    1.5350    2.9771 H   0  0  0  0  0  0  0  0  0  0  0  0
    3.7918   -0.8938   -1.3073 H   0  0  0  0  0  0  0  0  0  0  0  0
    2.6719   -5.2867   -0.1025 H   0  0  0  0  0  0  0  0  0  0  0  0
    1.9981   -5.2404   -1.7665 H   0  0  0  0  0  0  0  0  0  0  0  0
    0.9081   -5.1506   -0.3510 H   0  0  0  0  0  0  0  0  0  0  0  0
  1  2  1  0
  2  3  2  3
  3  4  1  0
  4  5  1  0
  5  6  1  0
  6  7  1  0
  6  8  1  0
  2  9  1  0
  9 10  2  0
 10 11  1  0
 11 12  1  0
 12 13  2  0
 13 14  1  0
 14 15  2  0
 15 16  1  0
 15 17  1  0
 17 18  2  0
 18 19  1  0
 10 20  1  0
 20 21  1  0
 21 22  2  0
 22 23  1  0
 23 24  1  0
 23 25  1  0
 25  1  1  0
 18 12  1  0
 25 20  2  0
  1 26  1  0
  4 27  1  0
  4 28  1  0
  5 29  1  0
  5 30  1  0
  6 31  1  0
  7 32  1  0
  7 33  1  0
  7 34  1  0
  8 35  1  0
  8 36  1  0
  8 37  1  0
 11 38  1  0
 13 39  1  0
 14 40  1  0
 17 41  1  0
 21 42  1  0
 24 43  1  0
 24 44  1  0
 24 45  1  0
M  END
>  <ScrubInfo>  (4) 
{"isomerGroup": 0, "isomerId": 3, "confId": 0, "nr_conformers:": 1, "nr_isomers:": 9}

$$$$
_i4
     RDKit          3D

 45 47  0  0  0  0  0  0  0  0999 V2000
   -3.3061   -4.2775   -0.8876 N   0  0  0  0  0  0  0  0  0  0  0  0
   -3.6045   -2.9410   -0.6417 C   0  0  0  0  0  0  0  0  0  0  0  0
   -2.5139   -2.1653   -0.6002 C   0  0  0  0  0  0  0  0  0  0  0  0
   -2.2036   -0.7771   -0.3557 C   0  0  0  0  0  0  0  0  0  0  0  0
   -3.1176    0.1175   -0.1395 N   0  0  0  0  0  0  0  0  0  0  0  0
   -2.6960    1.4365    0.1164 C   0  0  0  0  0  0  0  0  0  0  0  0
   -2.7221    2.3604   -0.9375 C   0  0  0  0  0  0  0  0  0  0  0  0
   -2.3188    3.6810   -0.7354 C   0  0  0  0  0  0  0  0  0  0  0  0
   -1.8984    4.0817    0.5272 C   0  0  0  0  0  0  0  0  0  0  0  0
   -1.5100    5.3490    0.7192 F   0  0  0  0  0  0  0  0  0  0  0  0
   -1.8782    3.1932    1.5943 C   0  0  0  0  0  0  0  0  0  0  0  0
   -2.2817    1.8726    1.3902 C   0  0  0  0  0  0  0  0  0  0  0  0
   -2.2583    0.7989    2.7468 Cl  0  0  0  0  0  0  0  0  0  0  0  0
   -0.8663   -0.4876   -0.3671 N   0  0  0  0  0  0  0  0  0  0  0  0
    0.0447   -1.3855   -0.5964 C   0  0  0  0  0  0  0  0  0  0  0  0
    1.3673   -1.0445   -0.5781 N   0  0  0  0  0  0  0  0  0  0  0  0
    1.8425    0.1365    0.1173 C   0  0  0  0  0  0  0  0  0  0  0  0
    3.3390    0.3188   -0.1447 C   0  0  0  0  0  0  0  0  0  0  0  0
    3.9762    1.5528    0.5219 C   0  0  0  0  0  0  0  0  0  0  0  0
    3.3832    2.8647    0.0071 C   0  0  0  0  0  0  0  0  0  0  0  0
    3.8987    1.4947    2.0475 C   0  0  0  0  0  0  0  0  0  0  0  0
   -0.1909   -2.7092   -0.8674 N   0  0  0  0  0  0  0  0  0  0  0  0
   -1.4187   -3.0980   -0.8933 C   0  0  0  0  0  0  0  0  0  0  0  0
   -1.9422   -4.3645   -1.1616 N   0  0  0  0  0  0  0  0  0  0  0  0
   -1.2238   -5.5645   -0.7790 C   0  0  0  0  0  0  0  0  0  0  0  0
   -3.9309   -4.7107   -1.5715 H   0  0  0  0  0  0  0  0  0  0  0  0
   -4.6328   -2.6357   -0.5073 H   0  0  0  0  0  0  0  0  0  0  0  0
   -3.0513    2.0387   -1.9221 H   0  0  0  0  0  0  0  0  0  0  0  0
   -2.3302    4.3948   -1.5529 H   0  0  0  0  0  0  0  0  0  0  0  0
   -1.5528    3.5370    2.5701 H   0  0  0  0  0  0  0  0  0  0  0  0
    1.9616   -1.8621   -0.5224 H   0  0  0  0  0  0  0  0  0  0  0  0
    1.6521    0.0207    1.1893 H   0  0  0  0  0  0  0  0  0  0  0  0
    1.2936    1.0162   -0.2345 H   0  0  0  0  0  0  0  0  0  0  0  0
    3.5079    0.3765   -1.2284 H   0  0  0  0  0  0  0  0  0  0  0  0
    3.8741   -0.5789    0.1930 H   0  0  0  0  0  0  0  0  0  0  0  0
    5.0398    1.5462    0.2483 H   0  0  0  0  0  0  0  0  0  0  0  0
    3.9523    3.7185    0.3907 H   0  0  0  0  0  0  0  0  0  0  0  0
    2.3430    2.9941    0.3228 H   0  0  0  0  0  0  0  0  0  0  0  0
    3.4176    2.9058   -1.0865 H   0  0  0  0  0  0  0  0  0  0  0  0
    4.3083    0.5513    2.4232 H   0  0  0  0  0  0  0  0  0  0  0  0
    2.8692    1.5891    2.4072 H   0  0  0  0  0  0  0  0  0  0  0  0
    4.4794    2.3104    2.4919 H   0  0  0  0  0  0  0  0  0  0  0  0
   -0.2161   -5.5630   -1.2067 H   0  0  0  0  0  0  0  0  0  0  0  0
   -1.7431   -6.4539   -1.1505 H   0  0  0  0  0  0  0  0  0  0  0  0
   -1.1422   -5.6388    0.3105 H   0  0  0  0  0  0  0  0  0  0  0  0
  1  2  1  0
  2  3  2  0
  3  4  1  0
  4  5  2  3
  5  6  1  0
  6  7  2  0
  7  8  1  0
  8  9  2  0
  9 10  1  0
  9 11  1  0
 11 12  2  0
 12 13  1  0
  4 14  1  0
 14 15  2  0
 15 16  1  0
 16 17  1  0
 17 18  1  0
 18 19  1  0
 19 20  1  0
 19 21  1  0
 15 22  1  0
 22 23  2  0
 23 24  1  0
 24 25  1  0
 24  1  1  0
 23  3  1  0
 12  6  1  0
  1 26  1  0
  2 27  1  0
  7 28  1  0
  8 29  1  0
 11 30  1  0
 16 31  1  0
 17 32  1  0
 17 33  1  0
 18 34  1  0
 18 35  1  0
 19 36  1  0
 20 37  1  0
 20 38  1  0
 20 39  1  0
 21 40  1  0
 21 41  1  0
 21 42  1  0
 25 43  1  0
 25 44  1  0
 25 45  1  0
M  END
>  <ScrubInfo>  (5) 
{"isomerGroup": 0, "isomerId": 4, "confId": 0, "nr_conformers:": 1, "nr_isomers:": 9}

$$$$
_i5
     RDKit          3D

 45 47  0  0  0  0  0  0  0  0999 V2000
   -0.1595    1.1066   -0.2056 N   0  0  0  0  0  0  0  0  0  0  0  0
   -0.2957    0.0933    0.7086 C   0  0  0  0  0  0  0  0  0  0  0  0
   -1.5220    0.0079    1.3039 N   0  0  0  0  0  0  0  0  0  0  0  0
   -2.7433   -0.1058    0.5143 C   0  0  0  0  0  0  0  0  0  0  0  0
   -3.9504   -0.1880    1.4514 C   0  0  0  0  0  0  0  0  0  0  0  0
   -5.2809   -0.4377    0.7182 C   0  0  0  0  0  0  0  0  0  0  0  0
   -6.4027   -0.6518    1.7374 C   0  0  0  0  0  0  0  0  0  0  0  0
   -5.6526    0.7076   -0.2246 C   0  0  0  0  0  0  0  0  0  0  0  0
    0.6354   -0.7523    1.0453 N   0  0  0  0  0  0  0  0  0  0  0  0
    1.8931   -0.6671    0.4603 C   0  0  0  0  0  0  0  0  0  0  0  0
    2.7519   -1.5592    0.8397 N   0  0  0  0  0  0  0  0  0  0  0  0
    4.0685   -1.5960    0.3694 C   0  0  0  0  0  0  0  0  0  0  0  0
    4.3724   -2.4540   -0.6968 C   0  0  0  0  0  0  0  0  0  0  0  0
    5.6804   -2.5610   -1.1715 C   0  0  0  0  0  0  0  0  0  0  0  0
    6.6902   -1.8210   -0.5676 C   0  0  0  0  0  0  0  0  0  0  0  0
    7.9446   -1.9260   -1.0244 F   0  0  0  0  0  0  0  0  0  0  0  0
    6.4221   -0.9789    0.5037 C   0  0  0  0  0  0  0  0  0  0  0  0
    5.1135   -0.8730    0.9774 C   0  0  0  0  0  0  0  0  0  0  0  0
    4.8152    0.1826    2.3132 Cl  0  0  0  0  0  0  0  0  0  0  0  0
    2.0912    0.4016   -0.5061 C   0  0  0  0  0  0  0  0  0  0  0  0
    3.1246    0.8913   -1.3251 C   0  0  0  0  0  0  0  0  0  0  0  0
    2.7580    1.9630   -2.0459 N   0  0  0  0  0  0  0  0  0  0  0  0
    1.4724    2.1696   -1.6821 N   0  0  0  0  0  0  0  0  0  0  0  0
    0.7463    3.2665   -2.2694 C   0  0  0  0  0  0  0  0  0  0  0  0
    1.0451    1.2462   -0.7832 C   0  0  0  0  0  0  0  0  0  0  0  0
   -0.8774    1.8179   -0.2104 H   0  0  0  0  0  0  0  0  0  0  0  0
   -1.4699   -0.7438    1.9914 H   0  0  0  0  0  0  0  0  0  0  0  0
   -2.6904   -1.0045   -0.1110 H   0  0  0  0  0  0  0  0  0  0  0  0
   -2.8415    0.7622   -0.1447 H   0  0  0  0  0  0  0  0  0  0  0  0
   -3.7854   -1.0008    2.1715 H   0  0  0  0  0  0  0  0  0  0  0  0
   -4.0158    0.7348    2.0429 H   0  0  0  0  0  0  0  0  0  0  0  0
   -5.1880   -1.3554    0.1237 H   0  0  0  0  0  0  0  0  0  0  0  0
   -6.1749   -1.4968    2.3958 H   0  0  0  0  0  0  0  0  0  0  0  0
   -7.3505   -0.8696    1.2335 H   0  0  0  0  0  0  0  0  0  0  0  0
   -6.5471    0.2362    2.3623 H   0  0  0  0  0  0  0  0  0  0  0  0
   -6.6349    0.5343   -0.6775 H   0  0  0  0  0  0  0  0  0  0  0  0
   -5.6906    1.6639    0.3080 H   0  0  0  0  0  0  0  0  0  0  0  0
   -4.9323    0.8004   -1.0428 H   0  0  0  0  0  0  0  0  0  0  0  0
    3.5811   -3.0458   -1.1511 H   0  0  0  0  0  0  0  0  0  0  0  0
    5.9173   -3.2220   -1.9996 H   0  0  0  0  0  0  0  0  0  0  0  0
    7.2324   -0.4199    0.9599 H   0  0  0  0  0  0  0  0  0  0  0  0
    4.1368    0.5323   -1.4443 H   0  0  0  0  0  0  0  0  0  0  0  0
    0.8017    3.1759   -3.3573 H   0  0  0  0  0  0  0  0  0  0  0  0
    1.2094    4.1997   -1.9394 H   0  0  0  0  0  0  0  0  0  0  0  0
   -0.2978    3.2363   -1.9513 H   0  0  0  0  0  0  0  0  0  0  0  0
  1  2  1  0
  2  3  1  0
  3  4  1  0
  4  5  1  0
  5  6  1  0
  6  7  1  0
  6  8  1  0
  2  9  2  0
  9 10  1  0
 10 11  2  3
 11 12  1  0
 12 13  2  0
 13 14  1  0
 14 15  2  0
 15 16  1  0
 15 17  1  0
 17 18  2  0
 18 19  1  0
 10 20  1  0
 20 21  1  0
 21 22  2  0
 22 23  1  0
 23 24  1  0
 23 25  1  0
 25  1  1  0
 18 12  1  0
 25 20  2  0
  1 26  1  0
  3 27  1  0
  4 28  1  0
  4 29  1  0
  5 30  1  0
  5 31  1  0
  6 32  1  0
  7 33  1  0
  7 34  1  0
  7 35  1  0
  8 36  1  0
  8 37  1  0
  8 38  1  0
 13 39  1  0
 14 40  1  0
 17 41  1  0
 21 42  1  0
 24 43  1  0
 24 44  1  0
 24 45  1  0
M  END
>  <ScrubInfo>  (6) 
{"isomerGroup": 0, "isomerId": 5, "confId": 0, "nr_conformers:": 1, "nr_isomers:": 9}

$$$$
_i6
     RDKit          3D

 45 47  0  0  0  0  0  0  0  0999 V2000
   -2.7948    3.1516    1.1201 N   0  0  0  0  0  0  0  0  0  0  0  0
   -2.7229    1.7654    1.0295 C   0  0  0  0  0  0  0  0  0  0  0  0
   -1.5895    1.3356    0.4584 C   0  0  0  0  0  0  0  0  0  0  0  0
   -0.9306    0.0765    0.1160 C   0  0  0  0  0  0  0  0  0  0  0  0
   -1.4843   -1.1727    0.3159 N   0  0  0  0  0  0  0  0  0  0  0  0
   -2.8492   -1.4699    0.0867 C   0  0  0  0  0  0  0  0  0  0  0  0
   -3.5241   -2.1844    1.0913 C   0  0  0  0  0  0  0  0  0  0  0  0
   -4.8560   -2.5663    0.9261 C   0  0  0  0  0  0  0  0  0  0  0  0
   -5.5122   -2.2615   -0.2588 C   0  0  0  0  0  0  0  0  0  0  0  0
   -6.7897   -2.6291   -0.4171 F   0  0  0  0  0  0  0  0  0  0  0  0
   -4.8604   -1.5958   -1.2877 C   0  0  0  0  0  0  0  0  0  0  0  0
   -3.5267   -1.2140   -1.1237 C   0  0  0  0  0  0  0  0  0  0  0  0
   -2.7498   -0.4582   -2.4695 Cl  0  0  0  0  0  0  0  0  0  0  0  0
    0.2731    0.1234   -0.3869 N   0  0  0  0  0  0  0  0  0  0  0  0
    0.8669    1.3533   -0.5897 C   0  0  0  0  0  0  0  0  0  0  0  0
    2.0794    1.4107   -1.0121 N   0  0  0  0  0  0  0  0  0  0  0  0
    2.8051    0.1754   -1.2965 C   0  0  0  0  0  0  0  0  0  0  0  0
    3.5607   -0.2774   -0.0457 C   0  0  0  0  0  0  0  0  0  0  0  0
    4.2727   -1.6313   -0.2164 C   0  0  0  0  0  0  0  0  0  0  0  0
    5.3610   -1.5876   -1.2899 C   0  0  0  0  0  0  0  0  0  0  0  0
    4.8805   -2.0703    1.1180 C   0  0  0  0  0  0  0  0  0  0  0  0
    0.2976    2.5864   -0.3785 N   0  0  0  0  0  0  0  0  0  0  0  0
   -0.8895    2.5923    0.1178 C   0  0  0  0  0  0  0  0  0  0  0  0
   -1.7034    3.6793    0.4379 N   0  0  0  0  0  0  0  0  0  0  0  0
   -1.1267    4.9341    0.8818 C   0  0  0  0  0  0  0  0  0  0  0  0
   -3.7085    3.5308    0.8608 H   0  0  0  0  0  0  0  0  0  0  0  0
   -3.5450    1.1752    1.4067 H   0  0  0  0  0  0  0  0  0  0  0  0
   -0.8897   -1.8783   -0.1160 H   0  0  0  0  0  0  0  0  0  0  0  0
   -3.0105   -2.4327    2.0187 H   0  0  0  0  0  0  0  0  0  0  0  0
   -5.3814   -3.1035    1.7102 H   0  0  0  0  0  0  0  0  0  0  0  0
   -5.3936   -1.3953   -2.2119 H   0  0  0  0  0  0  0  0  0  0  0  0
    3.5157    0.3958   -2.1005 H   0  0  0  0  0  0  0  0  0  0  0  0
    2.1576   -0.6214   -1.6813 H   0  0  0  0  0  0  0  0  0  0  0  0
    4.2869    0.4955    0.2384 H   0  0  0  0  0  0  0  0  0  0  0  0
    2.8549   -0.3529    0.7917 H   0  0  0  0  0  0  0  0  0  0  0  0
    3.5303   -2.3840   -0.5106 H   0  0  0  0  0  0  0  0  0  0  0  0
    5.8929   -2.5437   -1.3426 H   0  0  0  0  0  0  0  0  0  0  0  0
    6.0960   -0.8036   -1.0785 H   0  0  0  0  0  0  0  0  0  0  0  0
    4.9361   -1.3995   -2.2806 H   0  0  0  0  0  0  0  0  0  0  0  0
    5.6358   -1.3568    1.4649 H   0  0  0  0  0  0  0  0  0  0  0  0
    5.3584   -3.0513    1.0244 H   0  0  0  0  0  0  0  0  0  0  0  0
    4.1082   -2.1494    1.8904 H   0  0  0  0  0  0  0  0  0  0  0  0
   -1.9083    5.6920    0.9973 H   0  0  0  0  0  0  0  0  0  0  0  0
   -0.4051    5.3077    0.1483 H   0  0  0  0  0  0  0  0  0  0  0  0
   -0.6178    4.8099    1.8433 H   0  0  0  0  0  0  0  0  0  0  0  0
  1  2  1  0
  2  3  2  0
  3  4  1  0
  4  5  1  0
  5  6  1  0
  6  7  2  0
  7  8  1  0
  8  9  2  0
  9 10  1  0
  9 11  1  0
 11 12  2  0
 12 13  1  0
  4 14  2  0
 14 15  1  0
 15 16  2  3
 16 17  1  0
 17 18  1  0
 18 19  1  0
 19 20  1  0
 19 21  1  0
 15 22  1  0
 22 23  2  0
 23 24  1  0
 24 25  1  0
 24  1  1  0
 23  3  1  0
 12  6  1  0
  1 26  1  0
  2 27  1  0
  5 28  1  0
  7 29  1  0
  8 30  1  0
 11 31  1  0
 17 32  1  0
 17 33  1  0
 18 34  1  0
 18 35  1  0
 19 36  1  0
 20 37  1  0
 20 38  1  0
 20 39  1  0
 21 40  1  0
 21 41  1  0
 21 42  1  0
 25 43  1  0
 25 44  1  0
 25 45  1  0
M  END
>  <ScrubInfo>  (7) 
{"isomerGroup": 0, "isomerId": 6, "confId": 0, "nr_conformers:": 1, "nr_isomers:": 9}

$$$$
_i7
     RDKit          3D

 45 47  0  0  0  0  0  0  0  0999 V2000
   -1.2452   -4.1003    0.1724 N   0  0  0  0  0  0  0  0  0  0  0  0
   -2.2550   -3.1444    0.1627 C   0  0  0  0  0  0  0  0  0  0  0  0
   -1.7857   -1.8915    0.1861 C   0  0  0  0  0  0  0  0  0  0  0  0
   -2.3213   -0.5283    0.2278 C   0  0  0  0  0  0  0  0  0  0  0  0
   -3.6086   -0.3517    0.1918 N   0  0  0  0  0  0  0  0  0  0  0  0
   -4.1213    0.9555    0.2522 C   0  0  0  0  0  0  0  0  0  0  0  0
   -4.4630    1.5925   -0.9479 C   0  0  0  0  0  0  0  0  0  0  0  0
   -4.9941    2.8831   -0.9401 C   0  0  0  0  0  0  0  0  0  0  0  0
   -5.1939    3.5339    0.2717 C   0  0  0  0  0  0  0  0  0  0  0  0
   -5.7038    4.7720    0.2764 F   0  0  0  0  0  0  0  0  0  0  0  0
   -4.8766    2.9219    1.4772 C   0  0  0  0  0  0  0  0  0  0  0  0
   -4.3460    1.6312    1.4675 C   0  0  0  0  0  0  0  0  0  0  0  0
   -3.9604    0.8977    2.9843 Cl  0  0  0  0  0  0  0  0  0  0  0  0
   -1.3272    0.4142    0.3020 N   0  0  0  0  0  0  0  0  0  0  0  0
    0.0222    0.1794    0.3298 C   0  0  0  0  0  0  0  0  0  0  0  0
    0.8093    1.2010    0.4211 N   0  0  0  0  0  0  0  0  0  0  0  0
    2.2566    0.9689    0.4629 C   0  0  0  0  0  0  0  0  0  0  0  0
    2.8181    0.9707   -0.9608 C   0  0  0  0  0  0  0  0  0  0  0  0
    4.3290    0.6956   -1.0720 C   0  0  0  0  0  0  0  0  0  0  0  0
    5.1685    1.7366   -0.3322 C   0  0  0  0  0  0  0  0  0  0  0  0
    4.6952   -0.7152   -0.6096 C   0  0  0  0  0  0  0  0  0  0  0  0
    0.5414   -1.0967    0.2476 N   0  0  0  0  0  0  0  0  0  0  0  0
   -0.3015   -2.0780    0.1642 C   0  0  0  0  0  0  0  0  0  0  0  0
   -0.0224   -3.4428    0.0526 N   0  0  0  0  0  0  0  0  0  0  0  0
    1.1509   -4.0167    0.6834 C   0  0  0  0  0  0  0  0  0  0  0  0
   -1.4093   -4.8702   -0.4801 H   0  0  0  0  0  0  0  0  0  0  0  0
   -3.2895   -3.4569    0.1399 H   0  0  0  0  0  0  0  0  0  0  0  0
   -4.3180    1.0730   -1.8923 H   0  0  0  0  0  0  0  0  0  0  0  0
   -5.2586    3.3798   -1.8688 H   0  0  0  0  0  0  0  0  0  0  0  0
   -5.0492    3.4529    2.4076 H   0  0  0  0  0  0  0  0  0  0  0  0
   -1.5705    1.3900    0.3639 H   0  0  0  0  0  0  0  0  0  0  0  0
    2.5147    0.0549    1.0081 H   0  0  0  0  0  0  0  0  0  0  0  0
    2.6987    1.7916    1.0356 H   0  0  0  0  0  0  0  0  0  0  0  0
    2.6001    1.9426   -1.4232 H   0  0  0  0  0  0  0  0  0  0  0  0
    2.2833    0.2287   -1.5675 H   0  0  0  0  0  0  0  0  0  0  0  0
    4.5859    0.7654   -2.1374 H   0  0  0  0  0  0  0  0  0  0  0  0
    6.2333    1.5913   -0.5442 H   0  0  0  0  0  0  0  0  0  0  0  0
    5.0361    1.6701    0.7524 H   0  0  0  0  0  0  0  0  0  0  0  0
    4.9009    2.7499   -0.6492 H   0  0  0  0  0  0  0  0  0  0  0  0
    4.0848   -1.4651   -1.1236 H   0  0  0  0  0  0  0  0  0  0  0  0
    4.5556   -0.8411    0.4686 H   0  0  0  0  0  0  0  0  0  0  0  0
    5.7457   -0.9306   -0.8333 H   0  0  0  0  0  0  0  0  0  0  0  0
    2.0577   -3.4989    0.3544 H   0  0  0  0  0  0  0  0  0  0  0  0
    1.2518   -5.0722    0.4109 H   0  0  0  0  0  0  0  0  0  0  0  0
    1.0813   -3.9437    1.7738 H   0  0  0  0  0  0  0  0  0  0  0  0
  1  2  1  0
  2  3  2  0
  3  4  1  0
  4  5  2  3
  5  6  1  0
  6  7  2  0
  7  8  1  0
  8  9  2  0
  9 10  1  0
  9 11  1  0
 11 12  2  0
 12 13  1  0
  4 14  1  0
 14 15  1  0
 15 16  2  3
 16 17  1  0
 17 18  1  0
 18 19  1  0
 19 20  1  0
 19 21  1  0
 15 22  1  0
 22 23  2  0
 23 24  1  0
 24 25  1  0
 24  1  1  0
 23  3  1  0
 12  6  1  0
  1 26  1  0
  2 27  1  0
  7 28  1  0
  8 29  1  0
 11 30  1  0
 14 31  1  0
 17 32  1  0
 17 33  1  0
 18 34  1  0
 18 35  1  0
 19 36  1  0
 20 37  1  0
 20 38  1  0
 20 39  1  0
 21 40  1  0
 21 41  1  0
 21 42  1  0
 25 43  1  0
 25 44  1  0
 25 45  1  0
M  END
>  <ScrubInfo>  (8) 
{"isomerGroup": 0, "isomerId": 7, "confId": 0, "nr_conformers:": 1, "nr_isomers:": 9}

$$$$
_i8
     RDKit          3D

 45 47  0  0  0  0  0  0  0  0999 V2000
   -0.4427   -3.0293   -0.1620 N   0  0  0  0  0  0  0  0  0  0  0  0
   -0.6881   -1.7253    0.2253 C   0  0  0  0  0  0  0  0  0  0  0  0
   -1.8558   -1.4409    0.6947 N   0  0  0  0  0  0  0  0  0  0  0  0
   -2.1490   -0.0819    1.1481 C   0  0  0  0  0  0  0  0  0  0  0  0
   -2.6245    0.7676   -0.0320 C   0  0  0  0  0  0  0  0  0  0  0  0
   -2.8605    2.2558    0.2850 C   0  0  0  0  0  0  0  0  0  0  0  0
   -3.8924    2.4630    1.3927 C   0  0  0  0  0  0  0  0  0  0  0  0
   -1.5586    2.9846    0.6202 C   0  0  0  0  0  0  0  0  0  0  0  0
    0.3937   -0.8780    0.0410 N   0  0  0  0  0  0  0  0  0  0  0  0
    1.6646   -1.1362   -0.4434 C   0  0  0  0  0  0  0  0  0  0  0  0
    2.6801   -0.3577   -0.6252 N   0  0  0  0  0  0  0  0  0  0  0  0
    2.5638    1.0034   -0.2963 C   0  0  0  0  0  0  0  0  0  0  0  0
    2.4002    1.9194   -1.3438 C   0  0  0  0  0  0  0  0  0  0  0  0
    2.3002    3.2871   -1.0843 C   0  0  0  0  0  0  0  0  0  0  0  0
    2.3734    3.7417    0.2268 C   0  0  0  0  0  0  0  0  0  0  0  0
    2.2718    5.0535    0.4746 F   0  0  0  0  0  0  0  0  0  0  0  0
    2.5480    2.8590    1.2844 C   0  0  0  0  0  0  0  0  0  0  0  0
    2.6500    1.4918    1.0225 C   0  0  0  0  0  0  0  0  0  0  0  0
    2.8608    0.4234    2.3641 Cl  0  0  0  0  0  0  0  0  0  0  0  0
    1.8134   -2.5277   -0.7965 C   0  0  0  0  0  0  0  0  0  0  0  0
    2.8510   -3.3187   -1.3108 C   0  0  0  0  0  0  0  0  0  0  0  0
    2.4822   -4.5987   -1.4747 N   0  0  0  0  0  0  0  0  0  0  0  0
    1.1936   -4.6221   -1.0524 N   0  0  0  0  0  0  0  0  0  0  0  0
    0.4728   -5.8693   -1.0843 C   0  0  0  0  0  0  0  0  0  0  0  0
    0.7630   -3.3976   -0.6423 C   0  0  0  0  0  0  0  0  0  0  0  0
   -1.2248   -3.6589   -0.0256 H   0  0  0  0  0  0  0  0  0  0  0  0
   -2.9451   -0.1515    1.8974 H   0  0  0  0  0  0  0  0  0  0  0  0
   -1.2924    0.3636    1.6638 H   0  0  0  0  0  0  0  0  0  0  0  0
   -1.9021    0.6972   -0.8553 H   0  0  0  0  0  0  0  0  0  0  0  0
   -3.5566    0.3355   -0.4199 H   0  0  0  0  0  0  0  0  0  0  0  0
   -3.2628    2.7145   -0.6281 H   0  0  0  0  0  0  0  0  0  0  0  0
   -4.8213    1.9304    1.1644 H   0  0  0  0  0  0  0  0  0  0  0  0
   -3.5246    2.1119    2.3622 H   0  0  0  0  0  0  0  0  0  0  0  0
   -4.1345    3.5262    1.4970 H   0  0  0  0  0  0  0  0  0  0  0  0
   -1.7343    4.0619    0.7114 H   0  0  0  0  0  0  0  0  0  0  0  0
   -0.8168    2.8345   -0.1705 H   0  0  0  0  0  0  0  0  0  0  0  0
   -1.1267    2.6393    1.5646 H   0  0  0  0  0  0  0  0  0  0  0  0
    0.2348    0.0803    0.2978 H   0  0  0  0  0  0  0  0  0  0  0  0
    2.3594    1.5598   -2.3698 H   0  0  0  0  0  0  0  0  0  0  0  0
    2.1733    3.9977   -1.8955 H   0  0  0  0  0  0  0  0  0  0  0  0
    2.6085    3.2449    2.2969 H   0  0  0  0  0  0  0  0  0  0  0  0
    3.8577   -3.0196   -1.5737 H   0  0  0  0  0  0  0  0  0  0  0  0
    0.9769   -6.5745   -0.4188 H   0  0  0  0  0  0  0  0  0  0  0  0
    0.4763   -6.2434   -2.1113 H   0  0  0  0  0  0  0  0  0  0  0  0
   -0.5557   -5.7164   -0.7516 H   0  0  0  0  0  0  0  0  0  0  0  0
  1  2  1  0
  2  3  2  3
  3  4  1  0
  4  5  1  0
  5  6  1  0
  6  7  1  0
  6  8  1  0
  2  9  1  0
  9 10  1  0
 10 11  2  3
 11 12  1  0
 12 13  2  0
 13 14  1  0
 14 15  2  0
 15 16  1  0
 15 17  1  0
 17 18  2  0
 18 19  1  0
 10 20  1  0
 20 21  1  0
 21 22  2  0
 22 23  1  0
 23 24  1  0
 23 25  1  0
 25  1  1  0
 18 12  1  0
 25 20  2  0
  1 26  1  0
  4 27  1  0
  4 28  1  0
  5 29  1  0
  5 30  1  0
  6 31  1  0
  7 32  1  0
  7 33  1  0
  7 34  1  0
  8 35  1  0
  8 36  1  0
  8 37  1  0
  9 38  1  0
 13 39  1  0
 14 40  1  0
 17 41  1  0
 21 42  1  0
 24 43  1  0
 24 44  1  0
 24 45  1  0
M  END
>  <ScrubInfo>  (9) 
{"isomerGroup": 0, "isomerId": 8, "confId": 0, "nr_conformers:": 1, "nr_isomers:": 9}

$$$$
