_i0
     RDKit          3D

 44 46  0  0  0  0  0  0  0  0999 V2000
   -2.8263    3.9902   -0.7857 C   0  0  0  0  0  0  0  0  0  0  0  0
   -3.2328    2.8703    0.1582 C   0  0  0  0  0  0  0  0  0  0  0  0
   -2.3684    1.6252   -0.0425 C   0  0  0  0  0  0  0  0  0  0  0  0
   -2.7918    0.5955    0.8910 N   0  0  0  0  0  0  0  0  0  0  0  0
   -2.1369   -0.6226    0.7354 C   0  0  0  0  0  0  0  0  0  0  0  0
   -0.8392   -0.6392    0.3776 N   0  0  0  0  0  0  0  0  0  0  0  0
   -0.1690   -1.8110    0.2217 C   0  0  0  0  0  0  0  0  0  0  0  0
    1.1784   -1.8469   -0.1687 N   0  0  0  0  0  0  0  0  0  0  0  0
    2.1449   -0.8367   -0.3076 C   0  0  0  0  0  0  0  0  0  0  0  0
    1.9591    0.4833    0.1148 C   0  0  0  0  0  0  0  0  0  0  0  0
    2.9460    1.4609   -0.0784 C   0  0  0  0  0  0  0  0  0  0  0  0
    4.1455    1.1334   -0.7137 C   0  0  0  0  0  0  0  0  0  0  0  0
    5.2280    2.1348   -0.9457 C   0  0  0  0  0  0  0  0  0  0  0  0
    5.0248    3.5511   -0.4750 C   0  0  0  0  0  0  0  0  0  0  0  0
    6.2647    1.7961   -1.5136 O   0  0  0  0  0  0  0  0  0  0  0  0
    4.3425   -0.1794   -1.1514 C   0  0  0  0  0  0  0  0  0  0  0  0
    3.3519   -1.1482   -0.9525 C   0  0  0  0  0  0  0  0  0  0  0  0
   -0.8993   -2.9862    0.4386 C   0  0  0  0  0  0  0  0  0  0  0  0
   -0.6887   -4.3808    0.4039 C   0  0  0  0  0  0  0  0  0  0  0  0
   -1.7847   -5.0820    0.7137 N   0  0  0  0  0  0  0  0  0  0  0  0
   -2.7067   -4.1213    0.9578 N   0  0  0  0  0  0  0  0  0  0  0  0
   -4.0431   -4.5019    1.3407 C   0  0  0  0  0  0  0  0  0  0  0  0
   -2.2254   -2.8503    0.8000 C   0  0  0  0  0  0  0  0  0  0  0  0
   -2.8965   -1.7010    0.9610 N   0  0  0  0  0  0  0  0  0  0  0  0
   -2.9338    3.6812   -1.8303 H   0  0  0  0  0  0  0  0  0  0  0  0
   -3.4577    4.8696   -0.6248 H   0  0  0  0  0  0  0  0  0  0  0  0
   -1.7851    4.2847   -0.6196 H   0  0  0  0  0  0  0  0  0  0  0  0
   -4.2886    2.6232   -0.0069 H   0  0  0  0  0  0  0  0  0  0  0  0
   -3.1482    3.2203    1.1942 H   0  0  0  0  0  0  0  0  0  0  0  0
   -1.3180    1.8916    0.1278 H   0  0  0  0  0  0  0  0  0  0  0  0
   -2.4712    1.2723   -1.0766 H   0  0  0  0  0  0  0  0  0  0  0  0
   -3.7822    0.3763    0.8735 H   0  0  0  0  0  0  0  0  0  0  0  0
    1.5332   -2.7802   -0.3240 H   0  0  0  0  0  0  0  0  0  0  0  0
    1.0460    0.7786    0.6240 H   0  0  0  0  0  0  0  0  0  0  0  0
    2.7436    2.4653    0.2807 H   0  0  0  0  0  0  0  0  0  0  0  0
    5.9117    4.1428   -0.7230 H   0  0  0  0  0  0  0  0  0  0  0  0
    4.8950    3.5751    0.6100 H   0  0  0  0  0  0  0  0  0  0  0  0
    4.1664    3.9995   -0.9818 H   0  0  0  0  0  0  0  0  0  0  0  0
    5.2669   -0.4580   -1.6544 H   0  0  0  0  0  0  0  0  0  0  0  0
    3.5371   -2.1556   -1.3180 H   0  0  0  0  0  0  0  0  0  0  0  0
    0.2185   -4.9203    0.1661 H   0  0  0  0  0  0  0  0  0  0  0  0
   -4.6521   -3.6115    1.5118 H   0  0  0  0  0  0  0  0  0  0  0  0
   -4.4754   -5.0971    0.5324 H   0  0  0  0  0  0  0  0  0  0  0  0
   -3.9829   -5.0911    2.2592 H   0  0  0  0  0  0  0  0  0  0  0  0
  1  2  1  0
  2  3  1  0
  3  4  1  0
  4  5  1  0
  5  6  2  0
  6  7  1  0
  7  8  1  0
  8  9  1  0
  9 10  2  0
 10 11  1  0
 11 12  2  0
 12 13  1  0
 13 14  1  0
 13 15  2  0
 12 16  1  0
 16 17  2  0
  7 18  2  0
 18 19  1  0
 19 20  2  0
 20 21  1  0
 21 22  1  0
 21 23  1  0
 23 24  2  0
 24  5  1  0
 17  9  1  0
 23 18  1  0
  1 25  1  0
  1 26  1  0
  1 27  1  0
  2 28  1  0
  2 29  1  0
  3 30  1  0
  3 31  1  0
  4 32  1  0
  8 33  1  0
 10 34  1  0
 11 35  1  0
 14 36  1  0
 14 37  1  0
 14 38  1  0
 16 39  1  0
 17 40  1  0
 19 41  1  0
 22 42  1  0
 22 43  1  0
 22 44  1  0
M  END
>  <ScrubInfo>  (1) 
{"isomerGroup": 0, "isomerId": 0, "confId": 0, "nr_conformers:": 1, "nr_isomers:": 16}

$$$$
_i1
     RDKit          3D

 44 46  0  0  0  0  0  0  0  0999 V2000
   -1.7569    0.3670   -0.0244 N   0  0  0  0  0  0  0  0  0  0  0  0
   -0.6056   -0.2814    0.3844 C   0  0  0  0  0  0  0  0  0  0  0  0
    0.4715    0.4311    0.8785 N   0  0  0  0  0  0  0  0  0  0  0  0
    1.8098    0.3657    0.4293 C   0  0  0  0  0  0  0  0  0  0  0  0
    2.2127   -0.3372   -0.7112 C   0  0  0  0  0  0  0  0  0  0  0  0
    3.5625   -0.3958   -1.0787 C   0  0  0  0  0  0  0  0  0  0  0  0
    4.5405    0.2399   -0.3056 C   0  0  0  0  0  0  0  0  0  0  0  0
    5.9663    0.1469   -0.7403 C   0  0  0  0  0  0  0  0  0  0  0  0
    7.0316    0.7921    0.1069 C   0  0  0  0  0  0  0  0  0  0  0  0
    6.2520   -0.4483   -1.7770 O   0  0  0  0  0  0  0  0  0  0  0  0
    4.1508    0.9366    0.8409 C   0  0  0  0  0  0  0  0  0  0  0  0
    2.7984    0.9934    1.2018 C   0  0  0  0  0  0  0  0  0  0  0  0
   -0.6531   -1.6183    0.3382 C   0  0  0  0  0  0  0  0  0  0  0  0
    0.1981   -2.7525    0.7143 C   0  0  0  0  0  0  0  0  0  0  0  0
   -0.3609   -3.9127    0.4763 N   0  0  0  0  0  0  0  0  0  0  0  0
   -1.6014   -3.6149   -0.1132 N   0  0  0  0  0  0  0  0  0  0  0  0
   -2.5989   -4.6535   -0.2054 C   0  0  0  0  0  0  0  0  0  0  0  0
   -1.8802   -2.2589   -0.1739 C   0  0  0  0  0  0  0  0  0  0  0  0
   -2.9416   -1.6396   -0.5598 N   0  0  0  0  0  0  0  0  0  0  0  0
   -2.8881   -0.2645   -0.4971 C   0  0  0  0  0  0  0  0  0  0  0  0
   -3.9646    0.3001   -0.9094 N   0  0  0  0  0  0  0  0  0  0  0  0
   -4.0993    1.7489   -0.9430 C   0  0  0  0  0  0  0  0  0  0  0  0
   -4.5978    2.2583    0.4064 C   0  0  0  0  0  0  0  0  0  0  0  0
   -4.7987    3.7647    0.3941 C   0  0  0  0  0  0  0  0  0  0  0  0
   -1.7370    1.3716   -0.0274 H   0  0  0  0  0  0  0  0  0  0  0  0
    0.2317    1.3720    1.1769 H   0  0  0  0  0  0  0  0  0  0  0  0
    1.4896   -0.8319   -1.3549 H   0  0  0  0  0  0  0  0  0  0  0  0
    3.8439   -0.9425   -1.9780 H   0  0  0  0  0  0  0  0  0  0  0  0
    7.0301    0.3617    1.1116 H   0  0  0  0  0  0  0  0  0  0  0  0
    8.0117    0.6000   -0.3409 H   0  0  0  0  0  0  0  0  0  0  0  0
    6.8813    1.8740    0.1445 H   0  0  0  0  0  0  0  0  0  0  0  0
    4.8738    1.4406    1.4755 H   0  0  0  0  0  0  0  0  0  0  0  0
    2.5224    1.5264    2.1098 H   0  0  0  0  0  0  0  0  0  0  0  0
    1.1846   -2.5989    1.1697 H   0  0  0  0  0  0  0  0  0  0  0  0
   -3.3111   -4.4406   -1.0090 H   0  0  0  0  0  0  0  0  0  0  0  0
   -3.1501   -4.7372    0.7364 H   0  0  0  0  0  0  0  0  0  0  0  0
   -2.1326   -5.6204   -0.4209 H   0  0  0  0  0  0  0  0  0  0  0  0
   -3.1699    2.2473   -1.2414 H   0  0  0  0  0  0  0  0  0  0  0  0
   -4.8318    1.9997   -1.7194 H   0  0  0  0  0  0  0  0  0  0  0  0
   -5.5449    1.7676    0.6611 H   0  0  0  0  0  0  0  0  0  0  0  0
   -3.8858    1.9967    1.1976 H   0  0  0  0  0  0  0  0  0  0  0  0
   -3.8594    4.2834    0.1771 H   0  0  0  0  0  0  0  0  0  0  0  0
   -5.5354    4.0564   -0.3611 H   0  0  0  0  0  0  0  0  0  0  0  0
   -5.1583    4.1072    1.3694 H   0  0  0  0  0  0  0  0  0  0  0  0
  1  2  1  0
  2  3  1  0
  3  4  1  0
  4  5  2  0
  5  6  1  0
  6  7  2  0
  7  8  1  0
  8  9  1  0
  8 10  2  0
  7 11  1  0
 11 12  2  0
  2 13  2  0
 13 14  1  0
 14 15  2  0
 15 16  1  0
 16 17  1  0
 16 18  1  0
 18 19  2  0
 19 20  1  0
 20 21  2  3
 21 22  1  0
 22 23  1  0
 23 24  1  0
 20  1  1  0
 12  4  1  0
 18 13  1  0
  1 25  1  0
  3 26  1  0
  5 27  1  0
  6 28  1  0
  9 29  1  0
  9 30  1  0
  9 31  1  0
 11 32  1  0
 12 33  1  0
 14 34  1  0
 17 35  1  0
 17 36  1  0
 17 37  1  0
 22 38  1  0
 22 39  1  0
 23 40  1  0
 23 41  1  0
 24 42  1  0
 24 43  1  0
 24 44  1  0
M  END
>  <ScrubInfo>  (2) 
{"isomerGroup": 0, "isomerId": 1, "confId": 0, "nr_conformers:": 1, "nr_isomers:": 16}

$$$$
_i2
     RDKit          3D

 44 46  0  0  0  0  0  0  0  0999 V2000
   -0.4226   -0.6345   -0.0229 N   0  0  0  0  0  0  0  0  0  0  0  0
   -1.7945   -0.5426   -0.1355 C   0  0  0  0  0  0  0  0  0  0  0  0
   -2.2082    0.7258   -0.4516 N   0  0  0  0  0  0  0  0  0  0  0  0
   -3.6307    1.0345   -0.5360 C   0  0  0  0  0  0  0  0  0  0  0  0
   -3.8495    2.4393   -1.0969 C   0  0  0  0  0  0  0  0  0  0  0  0
   -3.4660    3.5409   -0.1185 C   0  0  0  0  0  0  0  0  0  0  0  0
   -2.6126   -1.5512    0.0290 N   0  0  0  0  0  0  0  0  0  0  0  0
   -1.9439   -2.6975    0.3372 C   0  0  0  0  0  0  0  0  0  0  0  0
   -0.5814   -2.8802    0.4645 C   0  0  0  0  0  0  0  0  0  0  0  0
   -0.4167   -4.2339    0.7869 C   0  0  0  0  0  0  0  0  0  0  0  0
   -1.5871   -4.8810    0.8684 N   0  0  0  0  0  0  0  0  0  0  0  0
   -2.5027   -3.9208    0.5837 N   0  0  0  0  0  0  0  0  0  0  0  0
   -3.9025   -4.2621    0.5687 C   0  0  0  0  0  0  0  0  0  0  0  0
    0.3107   -1.7697    0.2548 C   0  0  0  0  0  0  0  0  0  0  0  0
    1.5835   -1.9708    0.3395 N   0  0  0  0  0  0  0  0  0  0  0  0
    2.4384   -0.8844    0.1318 C   0  0  0  0  0  0  0  0  0  0  0  0
    2.9548   -0.1849    1.2248 C   0  0  0  0  0  0  0  0  0  0  0  0
    3.8170    0.9006    1.0348 C   0  0  0  0  0  0  0  0  0  0  0  0
    4.1757    1.2901   -0.2606 C   0  0  0  0  0  0  0  0  0  0  0  0
    5.0855    2.4441   -0.5205 C   0  0  0  0  0  0  0  0  0  0  0  0
    5.8397    3.0531    0.6322 C   0  0  0  0  0  0  0  0  0  0  0  0
    5.1966    2.8871   -1.6616 O   0  0  0  0  0  0  0  0  0  0  0  0
    3.6655    0.5818   -1.3572 C   0  0  0  0  0  0  0  0  0  0  0  0
    2.8099   -0.5054   -1.1596 C   0  0  0  0  0  0  0  0  0  0  0  0
    0.1074    0.1652   -0.3254 H   0  0  0  0  0  0  0  0  0  0  0  0
   -1.6746    1.4549    0.0048 H   0  0  0  0  0  0  0  0  0  0  0  0
   -4.1186    0.3177   -1.2072 H   0  0  0  0  0  0  0  0  0  0  0  0
   -4.0956    0.9403    0.4522 H   0  0  0  0  0  0  0  0  0  0  0  0
   -3.2859    2.5682   -2.0285 H   0  0  0  0  0  0  0  0  0  0  0  0
   -4.9116    2.5547   -1.3440 H   0  0  0  0  0  0  0  0  0  0  0  0
   -3.7106    4.5204   -0.5418 H   0  0  0  0  0  0  0  0  0  0  0  0
   -4.0110    3.4350    0.8249 H   0  0  0  0  0  0  0  0  0  0  0  0
   -2.3941    3.5316    0.0994 H   0  0  0  0  0  0  0  0  0  0  0  0
    0.5027   -4.7762    0.9658 H   0  0  0  0  0  0  0  0  0  0  0  0
   -4.1779   -4.6264    1.5616 H   0  0  0  0  0  0  0  0  0  0  0  0
   -4.5012   -3.3838    0.3178 H   0  0  0  0  0  0  0  0  0  0  0  0
   -4.0581   -5.0421   -0.1810 H   0  0  0  0  0  0  0  0  0  0  0  0
    2.6866   -0.4949    2.2324 H   0  0  0  0  0  0  0  0  0  0  0  0
    4.1911    1.4204    1.9120 H   0  0  0  0  0  0  0  0  0  0  0  0
    5.1555    3.6160    1.2720 H   0  0  0  0  0  0  0  0  0  0  0  0
    6.3588    2.2790    1.2034 H   0  0  0  0  0  0  0  0  0  0  0  0
    6.5971    3.7401    0.2419 H   0  0  0  0  0  0  0  0  0  0  0  0
    3.9426    0.8649   -2.3717 H   0  0  0  0  0  0  0  0  0  0  0  0
    2.4384   -1.0634   -2.0159 H   0  0  0  0  0  0  0  0  0  0  0  0
  1  2  1  0
  2  3  1  0
  3  4  1  0
  4  5  1  0
  5  6  1  0
  2  7  2  0
  7  8  1  0
  8  9  2  0
  9 10  1  0
 10 11  2  0
 11 12  1  0
 12 13  1  0
  9 14  1  0
 14 15  2  3
 15 16  1  0
 16 17  2  0
 17 18  1  0
 18 19  2  0
 19 20  1  0
 20 21  1  0
 20 22  2  0
 19 23  1  0
 23 24  2  0
 14  1  1  0
 24 16  1  0
 12  8  1  0
  1 25  1  0
  3 26  1  0
  4 27  1  0
  4 28  1  0
  5 29  1  0
  5 30  1  0
  6 31  1  0
  6 32  1  0
  6 33  1  0
 10 34  1  0
 13 35  1  0
 13 36  1  0
 13 37  1  0
 17 38  1  0
 18 39  1  0
 21 40  1  0
 21 41  1  0
 21 42  1  0
 23 43  1  0
 24 44  1  0
M  END
>  <ScrubInfo>  (3) 
{"isomerGroup": 0, "isomerId": 2, "confId": 0, "nr_conformers:": 1, "nr_isomers:": 16}

$$$$
_i3
     RDKit          3D

 44 46  0  0  0  0  0  0  0  0999 V2000
   -2.4888    0.1013   -0.2185 N   0  0  0  0  0  0  0  0  0  0  0  0
   -2.1637   -0.1493    1.1058 C   0  0  0  0  0  0  0  0  0  0  0  0
   -2.9317    0.0066    2.1237 N   0  0  0  0  0  0  0  0  0  0  0  0
   -4.2868    0.5180    1.9798 C   0  0  0  0  0  0  0  0  0  0  0  0
   -5.2522   -0.6327    1.7099 C   0  0  0  0  0  0  0  0  0  0  0  0
   -6.6866   -0.1428    1.5991 C   0  0  0  0  0  0  0  0  0  0  0  0
   -0.9063   -0.6222    1.4570 N   0  0  0  0  0  0  0  0  0  0  0  0
   -0.0089   -0.8233    0.5352 C   0  0  0  0  0  0  0  0  0  0  0  0
    1.2455   -1.3057    0.8135 N   0  0  0  0  0  0  0  0  0  0  0  0
    2.4451   -0.6061    0.5226 C   0  0  0  0  0  0  0  0  0  0  0  0
    2.4879    0.7671    0.2574 C   0  0  0  0  0  0  0  0  0  0  0  0
    3.7078    1.4078    0.0136 C   0  0  0  0  0  0  0  0  0  0  0  0
    4.9092    0.6895    0.0447 C   0  0  0  0  0  0  0  0  0  0  0  0
    6.1842    1.4200   -0.2225 C   0  0  0  0  0  0  0  0  0  0  0  0
    7.4795    0.6510   -0.2244 C   0  0  0  0  0  0  0  0  0  0  0  0
    6.1638    2.6306   -0.4348 O   0  0  0  0  0  0  0  0  0  0  0  0
    4.8763   -0.6785    0.3314 C   0  0  0  0  0  0  0  0  0  0  0  0
    3.6532   -1.3149    0.5752 C   0  0  0  0  0  0  0  0  0  0  0  0
   -0.3213   -0.6094   -0.8576 C   0  0  0  0  0  0  0  0  0  0  0  0
    0.3080   -0.7657   -2.1012 C   0  0  0  0  0  0  0  0  0  0  0  0
   -0.4873   -0.4086   -3.1223 N   0  0  0  0  0  0  0  0  0  0  0  0
   -1.6405   -0.0289   -2.5188 N   0  0  0  0  0  0  0  0  0  0  0  0
   -2.7415    0.4195   -3.3326 C   0  0  0  0  0  0  0  0  0  0  0  0
   -1.5693   -0.1459   -1.1671 C   0  0  0  0  0  0  0  0  0  0  0  0
   -3.4321    0.3965   -0.4170 H   0  0  0  0  0  0  0  0  0  0  0  0
   -4.3609    1.2934    1.2087 H   0  0  0  0  0  0  0  0  0  0  0  0
   -4.5614    1.0097    2.9206 H   0  0  0  0  0  0  0  0  0  0  0  0
   -5.1822   -1.3723    2.5166 H   0  0  0  0  0  0  0  0  0  0  0  0
   -4.9764   -1.1507    0.7841 H   0  0  0  0  0  0  0  0  0  0  0  0
   -6.7942    0.5718    0.7768 H   0  0  0  0  0  0  0  0  0  0  0  0
   -7.3609   -0.9837    1.4088 H   0  0  0  0  0  0  0  0  0  0  0  0
   -7.0069    0.3466    2.5245 H   0  0  0  0  0  0  0  0  0  0  0  0
    1.2737   -1.5603    1.8003 H   0  0  0  0  0  0  0  0  0  0  0  0
    1.5804    1.3667    0.2461 H   0  0  0  0  0  0  0  0  0  0  0  0
    3.7128    2.4767   -0.1959 H   0  0  0  0  0  0  0  0  0  0  0  0
    7.4545   -0.1332   -0.9855 H   0  0  0  0  0  0  0  0  0  0  0  0
    8.3010    1.3319   -0.4687 H   0  0  0  0  0  0  0  0  0  0  0  0
    7.6705    0.2294    0.7657 H   0  0  0  0  0  0  0  0  0  0  0  0
    5.7828   -1.2749    0.3741 H   0  0  0  0  0  0  0  0  0  0  0  0
    3.6464   -2.3811    0.7949 H   0  0  0  0  0  0  0  0  0  0  0  0
    1.3069   -1.1228   -2.3163 H   0  0  0  0  0  0  0  0  0  0  0  0
   -3.0737   -0.4174   -3.9518 H   0  0  0  0  0  0  0  0  0  0  0  0
   -2.3947    1.2452   -3.9591 H   0  0  0  0  0  0  0  0  0  0  0  0
   -3.5609    0.7598   -2.6960 H   0  0  0  0  0  0  0  0  0  0  0  0
  1  2  1  0
  2  3  2  3
  3  4  1  0
  4  5  1  0
  5  6  1  0
  2  7  1  0
  7  8  2  0
  8  9  1  0
  9 10  1  0
 10 11  2  0
 11 12  1  0
 12 13  2  0
 13 14  1  0
 14 15  1  0
 14 16  2  0
 13 17  1  0
 17 18  2  0
  8 19  1  0
 19 20  1  0
 20 21  2  0
 21 22  1  0
 22 23  1  0
 22 24  1  0
 24  1  1  0
 18 10  1  0
 24 19  2  0
  1 25  1  0
  4 26  1  0
  4 27  1  0
  5 28  1  0
  5 29  1  0
  6 30  1  0
  6 31  1  0
  6 32  1  0
  9 33  1  0
 11 34  1  0
 12 35  1  0
 15 36  1  0
 15 37  1  0
 15 38  1  0
 17 39  1  0
 18 40  1  0
 20 41  1  0
 23 42  1  0
 23 43  1  0
 23 44  1  0
M  END
>  <ScrubInfo>  (4) 
{"isomerGroup": 0, "isomerId": 3, "confId": 0, "nr_conformers:": 1, "nr_isomers:": 16}

$$$$
_i4
     RDKit          3D

 44 46  0  0  0  0  0  0  0  0999 V2000
    6.7277   -2.3525    0.1281 O   0  0  0  0  0  0  0  0  0  0  0  0
    5.5515   -2.7993   -0.4370 C   0  0  0  0  0  0  0  0  0  0  0  0
    5.4131   -4.0656   -0.8509 C   0  0  0  0  0  0  0  0  0  0  0  0
    4.4965   -1.7750   -0.5718 C   0  0  0  0  0  0  0  0  0  0  0  0
    4.8401   -0.4386   -0.8024 C   0  0  0  0  0  0  0  0  0  0  0  0
    3.8536    0.5488   -0.9267 C   0  0  0  0  0  0  0  0  0  0  0  0
    2.4895    0.2376   -0.8240 C   0  0  0  0  0  0  0  0  0  0  0  0
    1.5539    1.2805   -0.9330 N   0  0  0  0  0  0  0  0  0  0  0  0
    0.1695    1.3355   -0.7119 C   0  0  0  0  0  0  0  0  0  0  0  0
   -0.5153    0.2957   -0.1657 N   0  0  0  0  0  0  0  0  0  0  0  0
   -1.8398    0.3758    0.0535 C   0  0  0  0  0  0  0  0  0  0  0  0
   -2.3992   -0.7693    0.6123 N   0  0  0  0  0  0  0  0  0  0  0  0
   -3.4598   -0.5128    1.5705 C   0  0  0  0  0  0  0  0  0  0  0  0
   -3.9108   -1.8380    2.1855 C   0  0  0  0  0  0  0  0  0  0  0  0
   -5.0299   -1.6339    3.1937 C   0  0  0  0  0  0  0  0  0  0  0  0
   -2.6127    1.4365   -0.2128 N   0  0  0  0  0  0  0  0  0  0  0  0
   -1.9264    2.4544   -0.7497 C   0  0  0  0  0  0  0  0  0  0  0  0
   -0.5726    2.4833   -1.0201 C   0  0  0  0  0  0  0  0  0  0  0  0
   -0.3542    3.7658   -1.5663 C   0  0  0  0  0  0  0  0  0  0  0  0
   -1.4705    4.4993   -1.6401 N   0  0  0  0  0  0  0  0  0  0  0  0
   -2.4170    3.6701   -1.1404 N   0  0  0  0  0  0  0  0  0  0  0  0
   -3.7851    4.1171   -1.0671 C   0  0  0  0  0  0  0  0  0  0  0  0
    2.1524   -1.0931   -0.5707 C   0  0  0  0  0  0  0  0  0  0  0  0
    3.1373   -2.0852   -0.4469 C   0  0  0  0  0  0  0  0  0  0  0  0
    7.3420   -3.1022    0.1879 H   0  0  0  0  0  0  0  0  0  0  0  0
    6.2111   -4.7920   -0.7483 H   0  0  0  0  0  0  0  0  0  0  0  0
    4.5028   -4.4165   -1.3264 H   0  0  0  0  0  0  0  0  0  0  0  0
    5.8863   -0.1524   -0.8877 H   0  0  0  0  0  0  0  0  0  0  0  0
    4.1736    1.5732   -1.0991 H   0  0  0  0  0  0  0  0  0  0  0  0
    1.9437    2.1412   -1.2902 H   0  0  0  0  0  0  0  0  0  0  0  0
   -1.6095   -1.2963    0.9726 H   0  0  0  0  0  0  0  0  0  0  0  0
   -3.1059    0.1566    2.3650 H   0  0  0  0  0  0  0  0  0  0  0  0
   -4.3176   -0.0385    1.0777 H   0  0  0  0  0  0  0  0  0  0  0  0
   -3.0635   -2.3284    2.6800 H   0  0  0  0  0  0  0  0  0  0  0  0
   -4.2531   -2.5183    1.3962 H   0  0  0  0  0  0  0  0  0  0  0  0
   -5.3354   -2.5944    3.6205 H   0  0  0  0  0  0  0  0  0  0  0  0
   -5.9057   -1.1784    2.7208 H   0  0  0  0  0  0  0  0  0  0  0  0
   -4.7055   -0.9855    4.0138 H   0  0  0  0  0  0  0  0  0  0  0  0
    0.5728    4.2007   -1.9158 H   0  0  0  0  0  0  0  0  0  0  0  0
   -4.1213    4.3620   -2.0778 H   0  0  0  0  0  0  0  0  0  0  0  0
   -4.4153    3.3293   -0.6485 H   0  0  0  0  0  0  0  0  0  0  0  0
   -3.8235    5.0018   -0.4266 H   0  0  0  0  0  0  0  0  0  0  0  0
    1.1150   -1.3968   -0.4742 H   0  0  0  0  0  0  0  0  0  0  0  0
    2.8170   -3.1026   -0.2373 H   0  0  0  0  0  0  0  0  0  0  0  0
  1  2  1  0
  2  3  2  0
  2  4  1  0
  4  5  2  0
  5  6  1  0
  6  7  2  0
  7  8  1  0
  8  9  1  0
  9 10  2  0
 10 11  1  0
 11 12  1  0
 12 13  1  0
 13 14  1  0
 14 15  1  0
 11 16  2  0
 16 17  1  0
 17 18  2  0
 18 19  1  0
 19 20  2  0
 20 21  1  0
 21 22  1  0
  7 23  1  0
 23 24  2  0
 24  4  1  0
 18  9  1  0
 21 17  1  0
  1 25  1  0
  3 26  1  0
  3 27  1  0
  5 28  1  0
  6 29  1  0
  8 30  1  0
 12 31  1  0
 13 32  1  0
 13 33  1  0
 14 34  1  0
 14 35  1  0
 15 36  1  0
 15 37  1  0
 15 38  1  0
 19 39  1  0
 22 40  1  0
 22 41  1  0
 22 42  1  0
 23 43  1  0
 24 44  1  0
M  END
>  <ScrubInfo>  (5) 
{"isomerGroup": 0, "isomerId": 4, "confId": 0, "nr_conformers:": 1, "nr_isomers:": 16}

$$$$
_i5
     RDKit          3D

 44 46  0  0  0  0  0  0  0  0999 V2000
    0.3905   -2.7135   -0.5364 N   0  0  0  0  0  0  0  0  0  0  0  0
    0.9104   -1.4257   -0.4655 C   0  0  0  0  0  0  0  0  0  0  0  0
   -0.0279   -0.4671   -0.5069 C   0  0  0  0  0  0  0  0  0  0  0  0
   -0.1248    0.9872   -0.5005 C   0  0  0  0  0  0  0  0  0  0  0  0
    0.7871    1.8919   -0.3644 N   0  0  0  0  0  0  0  0  0  0  0  0
    2.1245    1.5416   -0.1833 C   0  0  0  0  0  0  0  0  0  0  0  0
    2.9713    1.3867   -1.2823 C   0  0  0  0  0  0  0  0  0  0  0  0
    4.3176    1.0605   -1.0962 C   0  0  0  0  0  0  0  0  0  0  0  0
    4.8372    0.9095    0.1967 C   0  0  0  0  0  0  0  0  0  0  0  0
    6.2807    0.5616    0.3473 C   0  0  0  0  0  0  0  0  0  0  0  0
    6.9082    0.6276    1.7150 C   0  0  0  0  0  0  0  0  0  0  0  0
    6.9320    0.2168   -0.6366 O   0  0  0  0  0  0  0  0  0  0  0  0
    3.9945    1.0869    1.3002 C   0  0  0  0  0  0  0  0  0  0  0  0
    2.6466    1.4078    1.1058 C   0  0  0  0  0  0  0  0  0  0  0  0
   -1.3999    1.4591   -0.6657 N   0  0  0  0  0  0  0  0  0  0  0  0
   -2.4414    0.6862   -0.7581 C   0  0  0  0  0  0  0  0  0  0  0  0
   -3.6390    1.3164   -0.9286 N   0  0  0  0  0  0  0  0  0  0  0  0
   -4.9187    0.7254   -0.6085 C   0  0  0  0  0  0  0  0  0  0  0  0
   -5.1540    0.7348    0.9003 C   0  0  0  0  0  0  0  0  0  0  0  0
   -6.5137    0.1553    1.2552 C   0  0  0  0  0  0  0  0  0  0  0  0
   -2.4231   -0.6806   -0.6899 N   0  0  0  0  0  0  0  0  0  0  0  0
   -1.2765   -1.2507   -0.5642 C   0  0  0  0  0  0  0  0  0  0  0  0
   -0.9915   -2.6144   -0.4744 N   0  0  0  0  0  0  0  0  0  0  0  0
   -1.7991   -3.5889   -1.1838 C   0  0  0  0  0  0  0  0  0  0  0  0
    0.8283   -3.3680    0.1158 H   0  0  0  0  0  0  0  0  0  0  0  0
    1.9812   -1.3125   -0.3858 H   0  0  0  0  0  0  0  0  0  0  0  0
    2.5805    1.5249   -2.2874 H   0  0  0  0  0  0  0  0  0  0  0  0
    4.9608    0.9373   -1.9660 H   0  0  0  0  0  0  0  0  0  0  0  0
    6.7093    1.5957    2.1820 H   0  0  0  0  0  0  0  0  0  0  0  0
    6.5361   -0.1894    2.3382 H   0  0  0  0  0  0  0  0  0  0  0  0
    7.9934    0.5239    1.6169 H   0  0  0  0  0  0  0  0  0  0  0  0
    4.3568    0.9851    2.3187 H   0  0  0  0  0  0  0  0  0  0  0  0
    1.9959    1.5638    1.9632 H   0  0  0  0  0  0  0  0  0  0  0  0
   -3.5620    2.3167   -0.7880 H   0  0  0  0  0  0  0  0  0  0  0  0
   -4.9896   -0.2929   -1.0080 H   0  0  0  0  0  0  0  0  0  0  0  0
   -5.7008    1.3109   -1.1054 H   0  0  0  0  0  0  0  0  0  0  0  0
   -5.0865    1.7607    1.2821 H   0  0  0  0  0  0  0  0  0  0  0  0
   -4.3736    0.1570    1.4096 H   0  0  0  0  0  0  0  0  0  0  0  0
   -6.6618    0.1726    2.3394 H   0  0  0  0  0  0  0  0  0  0  0  0
   -7.3197    0.7341    0.7930 H   0  0  0  0  0  0  0  0  0  0  0  0
   -6.5977   -0.8825    0.9173 H   0  0  0  0  0  0  0  0  0  0  0  0
   -2.8535   -3.4908   -0.9060 H   0  0  0  0  0  0  0  0  0  0  0  0
   -1.7077   -3.4562   -2.2669 H   0  0  0  0  0  0  0  0  0  0  0  0
   -1.4801   -4.6049   -0.9295 H   0  0  0  0  0  0  0  0  0  0  0  0
  1  2  1  0
  2  3  2  0
  3  4  1  0
  4  5  2  3
  5  6  1  0
  6  7  2  0
  7  8  1  0
  8  9  2  0
  9 10  1  0
 10 11  1  0
 10 12  2  0
  9 13  1  0
 13 14  2  0
  4 15  1  0
 15 16  2  0
 16 17  1  0
 17 18  1  0
 18 19  1  0
 19 20  1  0
 16 21  1  0
 21 22  2  0
 22 23  1  0
 23 24  1  0
 23  1  1  0
 22  3  1  0
 14  6  1  0
  1 25  1  0
  2 26  1  0
  7 27  1  0
  8 28  1  0
 11 29  1  0
 11 30  1  0
 11 31  1  0
 13 32  1  0
 14 33  1  0
 17 34  1  0
 18 35  1  0
 18 36  1  0
 19 37  1  0
 19 38  1  0
 20 39  1  0
 20 40  1  0
 20 41  1  0
 24 42  1  0
 24 43  1  0
 24 44  1  0
M  END
>  <ScrubInfo>  (6) 
{"isomerGroup": 0, "isomerId": 5, "confId": 0, "nr_conformers:": 1, "nr_isomers:": 16}

$$$$
_i6
     RDKit          3D

 44 46  0  0  0  0  0  0  0  0999 V2000
   -2.0514   -1.1853    0.5745 N   0  0  0  0  0  0  0  0  0  0  0  0
   -2.4098   -0.1072   -0.1946 C   0  0  0  0  0  0  0  0  0  0  0  0
   -3.7132   -0.0903   -0.6023 N   0  0  0  0  0  0  0  0  0  0  0  0
   -4.3003   -1.2147   -1.3202 C   0  0  0  0  0  0  0  0  0  0  0  0
   -5.7593   -0.9054   -1.6480 C   0  0  0  0  0  0  0  0  0  0  0  0
   -6.4201   -2.0551   -2.3908 C   0  0  0  0  0  0  0  0  0  0  0  0
   -1.6245    0.8751   -0.5338 N   0  0  0  0  0  0  0  0  0  0  0  0
   -0.2968    0.8752   -0.1214 C   0  0  0  0  0  0  0  0  0  0  0  0
    0.4279    1.8599   -0.5491 N   0  0  0  0  0  0  0  0  0  0  0  0
    1.7750    2.0000   -0.2261 C   0  0  0  0  0  0  0  0  0  0  0  0
    2.1599    2.7640    0.8771 C   0  0  0  0  0  0  0  0  0  0  0  0
    3.5137    2.9370    1.1797 C   0  0  0  0  0  0  0  0  0  0  0  0
    4.5008    2.3622    0.3673 C   0  0  0  0  0  0  0  0  0  0  0  0
    5.9341    2.5768    0.7287 C   0  0  0  0  0  0  0  0  0  0  0  0
    7.0049    2.0076   -0.1645 C   0  0  0  0  0  0  0  0  0  0  0  0
    6.2229    3.2074    1.7436 O   0  0  0  0  0  0  0  0  0  0  0  0
    4.1162    1.6169   -0.7536 C   0  0  0  0  0  0  0  0  0  0  0  0
    2.7590    1.4464   -1.0495 C   0  0  0  0  0  0  0  0  0  0  0  0
    0.1183   -0.2246    0.7346 C   0  0  0  0  0  0  0  0  0  0  0  0
    1.2759   -0.6352    1.4205 C   0  0  0  0  0  0  0  0  0  0  0  0
    1.1017   -1.7795    2.1019 N   0  0  0  0  0  0  0  0  0  0  0  0
   -0.1905   -2.0981    1.8675 N   0  0  0  0  0  0  0  0  0  0  0  0
   -0.7465   -3.2933    2.4487 C   0  0  0  0  0  0  0  0  0  0  0  0
   -0.7934   -1.2021    1.0448 C   0  0  0  0  0  0  0  0  0  0  0  0
   -2.8008   -1.7545    0.9433 H   0  0  0  0  0  0  0  0  0  0  0  0
   -3.8563    0.7777   -1.1187 H   0  0  0  0  0  0  0  0  0  0  0  0
   -3.7369   -1.3941   -2.2432 H   0  0  0  0  0  0  0  0  0  0  0  0
   -4.2492   -2.1245   -0.7120 H   0  0  0  0  0  0  0  0  0  0  0  0
   -6.3143   -0.7035   -0.7239 H   0  0  0  0  0  0  0  0  0  0  0  0
   -5.8219    0.0032   -2.2591 H   0  0  0  0  0  0  0  0  0  0  0  0
   -6.4056   -2.9702   -1.7902 H   0  0  0  0  0  0  0  0  0  0  0  0
   -7.4637   -1.8123   -2.6141 H   0  0  0  0  0  0  0  0  0  0  0  0
   -5.9079   -2.2567   -3.3369 H   0  0  0  0  0  0  0  0  0  0  0  0
    1.4016    3.2301    1.5014 H   0  0  0  0  0  0  0  0  0  0  0  0
    3.7926    3.5311    2.0483 H   0  0  0  0  0  0  0  0  0  0  0  0
    7.9872    2.2846    0.2310 H   0  0  0  0  0  0  0  0  0  0  0  0
    6.9414    0.9166   -0.1831 H   0  0  0  0  0  0  0  0  0  0  0  0
    6.9187    2.4219   -1.1723 H   0  0  0  0  0  0  0  0  0  0  0  0
    4.8461    1.1637   -1.4174 H   0  0  0  0  0  0  0  0  0  0  0  0
    2.4627    0.8829   -1.9311 H   0  0  0  0  0  0  0  0  0  0  0  0
    2.2480   -0.1649    1.4692 H   0  0  0  0  0  0  0  0  0  0  0  0
   -0.6352   -4.1058    1.7269 H   0  0  0  0  0  0  0  0  0  0  0  0
   -0.2088   -3.5289    3.3707 H   0  0  0  0  0  0  0  0  0  0  0  0
   -1.8017   -3.1254    2.6763 H   0  0  0  0  0  0  0  0  0  0  0  0
  1  2  1  0
  2  3  1  0
  3  4  1  0
  4  5  1  0
  5  6  1  0
  2  7  2  0
  7  8  1  0
  8  9  2  3
  9 10  1  0
 10 11  2  0
 11 12  1  0
 12 13  2  0
 13 14  1  0
 14 15  1  0
 14 16  2  0
 13 17  1  0
 17 18  2  0
  8 19  1  0
 19 20  1  0
 20 21  2  0
 21 22  1  0
 22 23  1  0
 22 24  1  0
 24  1  1  0
 18 10  1  0
 24 19  2  0
  1 25  1  0
  3 26  1  0
  4 27  1  0
  4 28  1  0
  5 29  1  0
  5 30  1  0
  6 31  1  0
  6 32  1  0
  6 33  1  0
 11 34  1  0
 12 35  1  0
 15 36  1  0
 15 37  1  0
 15 38  1  0
 17 39  1  0
 18 40  1  0
 20 41  1  0
 23 42  1  0
 23 43  1  0
 23 44  1  0
M  END
>  <ScrubInfo>  (7) 
{"isomerGroup": 0, "isomerId": 6, "confId": 0, "nr_conformers:": 1, "nr_isomers:": 16}

$$$$
_i7
     RDKit          3D

 44 46  0  0  0  0  0  0  0  0999 V2000
   -0.1163   -3.3537    0.2546 N   0  0  0  0  0  0  0  0  0  0  0  0
   -0.6568   -2.1806   -0.2603 C   0  0  0  0  0  0  0  0  0  0  0  0
    0.2097   -1.1590   -0.2518 C   0  0  0  0  0  0  0  0  0  0  0  0
    0.2641    0.2427   -0.6597 C   0  0  0  0  0  0  0  0  0  0  0  0
   -0.8000    0.9315   -1.2016 N   0  0  0  0  0  0  0  0  0  0  0  0
   -2.1009    0.9654   -0.6531 C   0  0  0  0  0  0  0  0  0  0  0  0
   -3.1639    1.3372   -1.4871 C   0  0  0  0  0  0  0  0  0  0  0  0
   -4.4738    1.4183   -0.9989 C   0  0  0  0  0  0  0  0  0  0  0  0
   -4.7374    1.1429    0.3458 C   0  0  0  0  0  0  0  0  0  0  0  0
   -6.1141    1.2072    0.9202 C   0  0  0  0  0  0  0  0  0  0  0  0
   -7.2444    1.6990    0.0547 C   0  0  0  0  0  0  0  0  0  0  0  0
   -6.3082    0.8542    2.0816 O   0  0  0  0  0  0  0  0  0  0  0  0
   -3.6763    0.7958    1.1908 C   0  0  0  0  0  0  0  0  0  0  0  0
   -2.3693    0.7180    0.6972 C   0  0  0  0  0  0  0  0  0  0  0  0
    1.3996    0.8739   -0.5455 N   0  0  0  0  0  0  0  0  0  0  0  0
    2.4883    0.2087   -0.0233 C   0  0  0  0  0  0  0  0  0  0  0  0
    3.5632    0.9150   -0.0113 N   0  0  0  0  0  0  0  0  0  0  0  0
    4.7735    0.2996    0.5266 C   0  0  0  0  0  0  0  0  0  0  0  0
    5.9260    1.2992    0.4282 C   0  0  0  0  0  0  0  0  0  0  0  0
    6.3276    1.5908   -1.0108 C   0  0  0  0  0  0  0  0  0  0  0  0
    2.5134   -1.0788    0.4654 N   0  0  0  0  0  0  0  0  0  0  0  0
    1.4168   -1.7465    0.3662 C   0  0  0  0  0  0  0  0  0  0  0  0
    1.1445   -3.0563    0.7634 N   0  0  0  0  0  0  0  0  0  0  0  0
    2.1769   -4.0750    0.7295 C   0  0  0  0  0  0  0  0  0  0  0  0
   -0.7497   -3.8542    0.8827 H   0  0  0  0  0  0  0  0  0  0  0  0
   -1.6805   -2.1790   -0.6068 H   0  0  0  0  0  0  0  0  0  0  0  0
   -0.5071    1.8747   -1.4531 H   0  0  0  0  0  0  0  0  0  0  0  0
   -2.9770    1.5525   -2.5379 H   0  0  0  0  0  0  0  0  0  0  0  0
   -5.2638    1.6946   -1.6909 H   0  0  0  0  0  0  0  0  0  0  0  0
   -7.0211    2.6960   -0.3340 H   0  0  0  0  0  0  0  0  0  0  0  0
   -7.4294    0.9943   -0.7600 H   0  0  0  0  0  0  0  0  0  0  0  0
   -8.1540    1.7717    0.6592 H   0  0  0  0  0  0  0  0  0  0  0  0
   -3.8587    0.5940    2.2455 H   0  0  0  0  0  0  0  0  0  0  0  0
   -1.5692    0.4798    1.3943 H   0  0  0  0  0  0  0  0  0  0  0  0
    5.0346   -0.6122   -0.0243 H   0  0  0  0  0  0  0  0  0  0  0  0
    4.6308    0.0431    1.5835 H   0  0  0  0  0  0  0  0  0  0  0  0
    5.6523    2.2380    0.9240 H   0  0  0  0  0  0  0  0  0  0  0  0
    6.7943    0.8926    0.9596 H   0  0  0  0  0  0  0  0  0  0  0  0
    6.6202    0.6724   -1.5298 H   0  0  0  0  0  0  0  0  0  0  0  0
    7.1794    2.2779   -1.0322 H   0  0  0  0  0  0  0  0  0  0  0  0
    5.5079    2.0548   -1.5680 H   0  0  0  0  0  0  0  0  0  0  0  0
    2.4980   -4.2695   -0.2992 H   0  0  0  0  0  0  0  0  0  0  0  0
    3.0470   -3.7613    1.3152 H   0  0  0  0  0  0  0  0  0  0  0  0
    1.8035   -5.0097    1.1602 H   0  0  0  0  0  0  0  0  0  0  0  0
  1  2  1  0
  2  3  2  0
  3  4  1  0
  4  5  1  0
  5  6  1  0
  6  7  2  0
  7  8  1  0
  8  9  2  0
  9 10  1  0
 10 11  1  0
 10 12  2  0
  9 13  1  0
 13 14  2  0
  4 15  2  0
 15 16  1  0
 16 17  2  3
 17 18  1  0
 18 19  1  0
 19 20  1  0
 16 21  1  0
 21 22  2  0
 22 23  1  0
 23 24  1  0
 23  1  1  0
 22  3  1  0
 14  6  1  0
  1 25  1  0
  2 26  1  0
  5 27  1  0
  7 28  1  0
  8 29  1  0
 11 30  1  0
 11 31  1  0
 11 32  1  0
 13 33  1  0
 14 34  1  0
 18 35  1  0
 18 36  1  0
 19 37  1  0
 19 38  1  0
 20 39  1  0
 20 40  1  0
 20 41  1  0
 24 42  1  0
 24 43  1  0
 24 44  1  0
M  END
>  <ScrubInfo>  (8) 
{"isomerGroup": 0, "isomerId": 7, "confId": 0, "nr_conformers:": 1, "nr_isomers:": 16}

$$$$
_i8
     RDKit          3D

 44 46  0  0  0  0  0  0  0  0999 V2000
    7.2539   -1.0672    0.7310 O   0  0  0  0  0  0  0  0  0  0  0  0
    6.0555   -1.7431    0.7980 C   0  0  0  0  0  0  0  0  0  0  0  0
    6.0158   -2.9903    1.2738 C   0  0  0  0  0  0  0  0  0  0  0  0
    4.8638   -1.0347    0.3123 C   0  0  0  0  0  0  0  0  0  0  0  0
    4.8367   -0.5145   -0.9852 C   0  0  0  0  0  0  0  0  0  0  0  0
    3.7092    0.1711   -1.4514 C   0  0  0  0  0  0  0  0  0  0  0  0
    2.5863    0.3635   -0.6335 C   0  0  0  0  0  0  0  0  0  0  0  0
    1.4650    1.0178   -1.1792 N   0  0  0  0  0  0  0  0  0  0  0  0
    0.1514    0.9991   -0.7474 C   0  0  0  0  0  0  0  0  0  0  0  0
   -0.4088   -0.0820   -0.0947 N   0  0  0  0  0  0  0  0  0  0  0  0
   -1.7124   -0.1724    0.3175 C   0  0  0  0  0  0  0  0  0  0  0  0
   -2.1092   -1.2717    0.8665 N   0  0  0  0  0  0  0  0  0  0  0  0
   -3.4988   -1.3737    1.3136 C   0  0  0  0  0  0  0  0  0  0  0  0
   -4.3624   -1.9392    0.1890 C   0  0  0  0  0  0  0  0  0  0  0  0
   -5.8068   -2.1128    0.6283 C   0  0  0  0  0  0  0  0  0  0  0  0
   -2.5843    0.8777    0.1342 N   0  0  0  0  0  0  0  0  0  0  0  0
   -2.0897    1.8905   -0.4919 C   0  0  0  0  0  0  0  0  0  0  0  0
   -0.6939    2.0134   -0.9704 C   0  0  0  0  0  0  0  0  0  0  0  0
   -0.6533    3.3551   -1.5624 C   0  0  0  0  0  0  0  0  0  0  0  0
   -1.7954    3.9889   -1.4817 N   0  0  0  0  0  0  0  0  0  0  0  0
   -2.6797    3.0852   -0.8715 N   0  0  0  0  0  0  0  0  0  0  0  0
   -3.9450    3.5675   -0.3741 C   0  0  0  0  0  0  0  0  0  0  0  0
    2.6206   -0.1653    0.6616 C   0  0  0  0  0  0  0  0  0  0  0  0
    3.7467   -0.8523    1.1325 C   0  0  0  0  0  0  0  0  0  0  0  0
    7.0593   -0.1372    0.5215 H   0  0  0  0  0  0  0  0  0  0  0  0
    6.9252   -3.4744    1.6142 H   0  0  0  0  0  0  0  0  0  0  0  0
    5.0943   -3.5595    1.3264 H   0  0  0  0  0  0  0  0  0  0  0  0
    5.6843   -0.6608   -1.6521 H   0  0  0  0  0  0  0  0  0  0  0  0
    3.7104    0.5378   -2.4754 H   0  0  0  0  0  0  0  0  0  0  0  0
    1.7122    1.7611   -1.8240 H   0  0  0  0  0  0  0  0  0  0  0  0
    0.1389   -0.9280   -0.0374 H   0  0  0  0  0  0  0  0  0  0  0  0
   -3.8993   -0.4230    1.6854 H   0  0  0  0  0  0  0  0  0  0  0  0
   -3.5219   -2.0588    2.1695 H   0  0  0  0  0  0  0  0  0  0  0  0
   -3.9622   -2.9074   -0.1349 H   0  0  0  0  0  0  0  0  0  0  0  0
   -4.3284   -1.2770   -0.6840 H   0  0  0  0  0  0  0  0  0  0  0  0
   -6.4060   -2.5213   -0.1915 H   0  0  0  0  0  0  0  0  0  0  0  0
   -6.2445   -1.1539    0.9238 H   0  0  0  0  0  0  0  0  0  0  0  0
   -5.8791   -2.8003    1.4771 H   0  0  0  0  0  0  0  0  0  0  0  0
    0.2707    3.7575   -1.9963 H   0  0  0  0  0  0  0  0  0  0  0  0
   -4.3444    4.3519   -1.0251 H   0  0  0  0  0  0  0  0  0  0  0  0
   -3.8257    3.9802    0.6324 H   0  0  0  0  0  0  0  0  0  0  0  0
   -4.6827    2.7596   -0.3344 H   0  0  0  0  0  0  0  0  0  0  0  0
    1.7885   -0.0228    1.3466 H   0  0  0  0  0  0  0  0  0  0  0  0
    3.7452   -1.2341    2.1517 H   0  0  0  0  0  0  0  0  0  0  0  0
  1  2  1  0
  2  3  2  0
  2  4  1  0
  4  5  2  0
  5  6  1  0
  6  7  2  0
  7  8  1  0
  8  9  1  0
  9 10  1  0
 10 11  1  0
 11 12  2  3
 12 13  1  0
 13 14  1  0
 14 15  1  0
 11 16  1  0
 16 17  2  0
 17 18  1  0
 18 19  1  0
 19 20  2  0
 20 21  1  0
 21 22  1  0
  7 23  1  0
 23 24  2  0
 24  4  1  0
 18  9  2  0
 21 17  1  0
  1 25  1  0
  3 26  1  0
  3 27  1  0
  5 28  1  0
  6 29  1  0
  8 30  1  0
 10 31  1  0
 13 32  1  0
 13 33  1  0
 14 34  1  0
 14 35  1  0
 15 36  1  0
 15 37  1  0
 15 38  1  0
 19 39  1  0
 22 40  1  0
 22 41  1  0
 22 42  1  0
 23 43  1  0
 24 44  1  0
M  END
>  <ScrubInfo>  (9) 
{"isomerGroup": 0, "isomerId": 8, "confId": 0, "nr_conformers:": 1, "nr_isomers:": 16}

$$$$
_i9
     RDKit          3D

 44 46  0  0  0  0  0  0  0  0999 V2000
   -1.6733   -4.4186   -0.1383 N   0  0  0  0  0  0  0  0  0  0  0  0
   -0.4057   -3.8485   -0.1010 C   0  0  0  0  0  0  0  0  0  0  0  0
   -0.4354   -2.5112   -0.1394 C   0  0  0  0  0  0  0  0  0  0  0  0
    0.5197   -1.4010   -0.1665 C   0  0  0  0  0  0  0  0  0  0  0  0
    1.7930   -1.6536   -0.0979 N   0  0  0  0  0  0  0  0  0  0  0  0
    2.6939   -0.5838   -0.1268 C   0  0  0  0  0  0  0  0  0  0  0  0
    3.1936   -0.1128   -1.3415 C   0  0  0  0  0  0  0  0  0  0  0  0
    4.0991    0.9516   -1.3675 C   0  0  0  0  0  0  0  0  0  0  0  0
    4.5254    1.5498   -0.1736 C   0  0  0  0  0  0  0  0  0  0  0  0
    5.4963    2.6821   -0.2521 C   0  0  0  0  0  0  0  0  0  0  0  0
    6.0013    3.3011    1.0249 C   0  0  0  0  0  0  0  0  0  0  0  0
    5.8674    3.0950   -1.3489 O   0  0  0  0  0  0  0  0  0  0  0  0
    4.0352    1.0681    1.0458 C   0  0  0  0  0  0  0  0  0  0  0  0
    3.1277    0.0028    1.0642 C   0  0  0  0  0  0  0  0  0  0  0  0
   -0.1059   -0.1846   -0.2683 N   0  0  0  0  0  0  0  0  0  0  0  0
   -1.4559    0.0394   -0.3302 C   0  0  0  0  0  0  0  0  0  0  0  0
   -1.8595    1.2619   -0.4421 N   0  0  0  0  0  0  0  0  0  0  0  0
   -3.2970    1.5270   -0.5183 C   0  0  0  0  0  0  0  0  0  0  0  0
   -3.8548    1.7542    0.8844 C   0  0  0  0  0  0  0  0  0  0  0  0
   -5.3374    2.0864    0.8480 C   0  0  0  0  0  0  0  0  0  0  0  0
   -2.3686   -0.9940   -0.2628 N   0  0  0  0  0  0  0  0  0  0  0  0
   -1.8985   -2.1977   -0.1571 C   0  0  0  0  0  0  0  0  0  0  0  0
   -2.6139   -3.3938   -0.0535 N   0  0  0  0  0  0  0  0  0  0  0  0
   -3.8947   -3.5566   -0.7144 C   0  0  0  0  0  0  0  0  0  0  0  0
   -1.7890   -5.1919    0.5206 H   0  0  0  0  0  0  0  0  0  0  0  0
    0.4673   -4.4837   -0.0469 H   0  0  0  0  0  0  0  0  0  0  0  0
    2.8809   -0.5792   -2.2724 H   0  0  0  0  0  0  0  0  0  0  0  0
    4.4761    1.3062   -2.3256 H   0  0  0  0  0  0  0  0  0  0  0  0
    5.1755    3.7584    1.5759 H   0  0  0  0  0  0  0  0  0  0  0  0
    6.5109    2.5509    1.6350 H   0  0  0  0  0  0  0  0  0  0  0  0
    6.7245    4.0860    0.7820 H   0  0  0  0  0  0  0  0  0  0  0  0
    4.3434    1.4958    1.9951 H   0  0  0  0  0  0  0  0  0  0  0  0
    2.7582   -0.3776    2.0136 H   0  0  0  0  0  0  0  0  0  0  0  0
    0.4535    0.6529   -0.3210 H   0  0  0  0  0  0  0  0  0  0  0  0
   -3.8496    0.7403   -1.0457 H   0  0  0  0  0  0  0  0  0  0  0  0
   -3.4347    2.4359   -1.1160 H   0  0  0  0  0  0  0  0  0  0  0  0
   -3.3109    2.5723    1.3717 H   0  0  0  0  0  0  0  0  0  0  0  0
   -3.7005    0.8621    1.5024 H   0  0  0  0  0  0  0  0  0  0  0  0
   -5.7148    2.2477    1.8626 H   0  0  0  0  0  0  0  0  0  0  0  0
   -5.5216    2.9965    0.2683 H   0  0  0  0  0  0  0  0  0  0  0  0
   -5.9109    1.2697    0.3981 H   0  0  0  0  0  0  0  0  0  0  0  0
   -4.5888   -2.7666   -0.4101 H   0  0  0  0  0  0  0  0  0  0  0  0
   -3.7781   -3.5212   -1.8026 H   0  0  0  0  0  0  0  0  0  0  0  0
   -4.3435   -4.5178   -0.4435 H   0  0  0  0  0  0  0  0  0  0  0  0
  1  2  1  0
  2  3  2  0
  3  4  1  0
  4  5  2  3
  5  6  1  0
  6  7  2  0
  7  8  1  0
  8  9  2  0
  9 10  1  0
 10 11  1  0
 10 12  2  0
  9 13  1  0
 13 14  2  0
  4 15  1  0
 15 16  1  0
 16 17  2  3
 17 18  1  0
 18 19  1  0
 19 20  1  0
 16 21  1  0
 21 22  2  0
 22 23  1  0
 23 24  1  0
 23  1  1  0
 22  3  1  0
 14  6  1  0
  1 25  1  0
  2 26  1  0
  7 27  1  0
  8 28  1  0
 11 29  1  0
 11 30  1  0
 11 31  1  0
 13 32  1  0
 14 33  1  0
 15 34  1  0
 18 35  1  0
 18 36  1  0
 19 37  1  0
 19 38  1  0
 20 39  1  0
 20 40  1  0
 20 41  1  0
 24 42  1  0
 24 43  1  0
 24 44  1  0
M  END
>  <ScrubInfo>  (10) 
{"isomerGroup": 0, "isomerId": 9, "confId": 0, "nr_conformers:": 1, "nr_isomers:": 16}

$$$$
_i10
     RDKit          3D

 44 46  0  0  0  0  0  0  0  0999 V2000
   -2.4596    0.3895    0.0988 N   0  0  0  0  0  0  0  0  0  0  0  0
   -2.2548    0.4204    1.4679 C   0  0  0  0  0  0  0  0  0  0  0  0
   -3.1379    0.4451    2.4064 N   0  0  0  0  0  0  0  0  0  0  0  0
   -4.5600    0.4714    2.0804 C   0  0  0  0  0  0  0  0  0  0  0  0
   -5.0831   -0.9529    1.9181 C   0  0  0  0  0  0  0  0  0  0  0  0
   -6.5739   -0.9691    1.6236 C   0  0  0  0  0  0  0  0  0  0  0  0
   -0.9224    0.4152    1.8184 N   0  0  0  0  0  0  0  0  0  0  0  0
    0.2289    0.3853    1.0619 C   0  0  0  0  0  0  0  0  0  0  0  0
    1.4014    0.3845    1.6219 N   0  0  0  0  0  0  0  0  0  0  0  0
    2.5846    0.3550    0.8856 C   0  0  0  0  0  0  0  0  0  0  0  0
    3.2146    1.5437    0.5135 C   0  0  0  0  0  0  0  0  0  0  0  0
    4.4222    1.5133   -0.1899 C   0  0  0  0  0  0  0  0  0  0  0  0
    5.0237    0.2893   -0.5141 C   0  0  0  0  0  0  0  0  0  0  0  0
    6.3147    0.3075   -1.2650 C   0  0  0  0  0  0  0  0  0  0  0  0
    6.9751   -1.0007   -1.6133 C   0  0  0  0  0  0  0  0  0  0  0  0
    6.8199    1.3804   -1.5891 O   0  0  0  0  0  0  0  0  0  0  0  0
    4.4046   -0.9028   -0.1201 C   0  0  0  0  0  0  0  0  0  0  0  0
    3.1953   -0.8649    0.5835 C   0  0  0  0  0  0  0  0  0  0  0  0
   -0.0872    0.3527   -0.3564 C   0  0  0  0  0  0  0  0  0  0  0  0
    0.6184    0.3085   -1.5730 C   0  0  0  0  0  0  0  0  0  0  0  0
   -0.1886    0.2785   -2.6439 N   0  0  0  0  0  0  0  0  0  0  0  0
   -1.4297    0.3216   -2.1134 N   0  0  0  0  0  0  0  0  0  0  0  0
   -2.5721    0.3087   -2.9921 C   0  0  0  0  0  0  0  0  0  0  0  0
   -1.4082    0.3576   -0.7527 C   0  0  0  0  0  0  0  0  0  0  0  0
   -3.4171    0.3650   -0.2227 H   0  0  0  0  0  0  0  0  0  0  0  0
   -4.7723    1.0804    1.1942 H   0  0  0  0  0  0  0  0  0  0  0  0
   -5.0845    0.9604    2.9098 H   0  0  0  0  0  0  0  0  0  0  0  0
   -4.8868   -1.5263    2.8320 H   0  0  0  0  0  0  0  0  0  0  0  0
   -4.5505   -1.4626    1.1069 H   0  0  0  0  0  0  0  0  0  0  0  0
   -6.7958   -0.4330    0.6953 H   0  0  0  0  0  0  0  0  0  0  0  0
   -6.9276   -1.9990    1.5140 H   0  0  0  0  0  0  0  0  0  0  0  0
   -7.1395   -0.5004    2.4353 H   0  0  0  0  0  0  0  0  0  0  0  0
   -0.7637    0.4380    2.8156 H   0  0  0  0  0  0  0  0  0  0  0  0
    2.7651    2.4985    0.7740 H   0  0  0  0  0  0  0  0  0  0  0  0
    4.8943    2.4515   -0.4769 H   0  0  0  0  0  0  0  0  0  0  0  0
    7.9018   -0.8007   -2.1605 H   0  0  0  0  0  0  0  0  0  0  0  0
    6.3229   -1.5947   -2.2587 H   0  0  0  0  0  0  0  0  0  0  0  0
    7.2312   -1.5500   -0.7037 H   0  0  0  0  0  0  0  0  0  0  0  0
    4.8403   -1.8731   -0.3385 H   0  0  0  0  0  0  0  0  0  0  0  0
    2.7250   -1.7921    0.9022 H   0  0  0  0  0  0  0  0  0  0  0  0
    1.6850    0.2924   -1.7479 H   0  0  0  0  0  0  0  0  0  0  0  0
   -2.8409   -0.7326   -3.1843 H   0  0  0  0  0  0  0  0  0  0  0  0
   -2.3107    0.8131   -3.9262 H   0  0  0  0  0  0  0  0  0  0  0  0
   -3.4024    0.8361   -2.5169 H   0  0  0  0  0  0  0  0  0  0  0  0
  1  2  1  0
  2  3  2  3
  3  4  1  0
  4  5  1  0
  5  6  1  0
  2  7  1  0
  7  8  1  0
  8  9  2  3
  9 10  1  0
 10 11  2  0
 11 12  1  0
 12 13  2  0
 13 14  1  0
 14 15  1  0
 14 16  2  0
 13 17  1  0
 17 18  2  0
  8 19  1  0
 19 20  1  0
 20 21  2  0
 21 22  1  0
 22 23  1  0
 22 24  1  0
 24  1  1  0
 18 10  1  0
 24 19  2  0
  1 25  1  0
  4 26  1  0
  4 27  1  0
  5 28  1  0
  5 29  1  0
  6 30  1  0
  6 31  1  0
  6 32  1  0
  7 33  1  0
 11 34  1  0
 12 35  1  0
 15 36  1  0
 15 37  1  0
 15 38  1  0
 17 39  1  0
 18 40  1  0
 20 41  1  0
 23 42  1  0
 23 43  1  0
 23 44  1  0
M  END
>  <ScrubInfo>  (11) 
{"isomerGroup": 0, "isomerId": 10, "confId": 0, "nr_conformers:": 1, "nr_isomers:": 16}

$$$$
_i11
     RDKit          3D

 44 46  0  0  0  0  0  0  0  0999 V2000
    7.0054   -1.2666   -0.2582 O   0  0  0  0  0  0  0  0  0  0  0  0
    6.2138   -0.6190    0.6662 C   0  0  0  0  0  0  0  0  0  0  0  0
    6.7445    0.1427    1.6316 C   0  0  0  0  0  0  0  0  0  0  0  0
    4.7613   -0.8058    0.4819 C   0  0  0  0  0  0  0  0  0  0  0  0
    4.2285   -0.9232   -0.8106 C   0  0  0  0  0  0  0  0  0  0  0  0
    2.8555   -1.1029   -1.0092 C   0  0  0  0  0  0  0  0  0  0  0  0
    1.9868   -1.1603    0.0808 C   0  0  0  0  0  0  0  0  0  0  0  0
    0.6206   -1.3667   -0.1143 N   0  0  0  0  0  0  0  0  0  0  0  0
   -0.2107   -0.3800   -0.2590 C   0  0  0  0  0  0  0  0  0  0  0  0
   -1.5541   -0.5956   -0.4606 N   0  0  0  0  0  0  0  0  0  0  0  0
   -2.5286    0.3447   -0.6754 C   0  0  0  0  0  0  0  0  0  0  0  0
   -3.7948   -0.1262   -0.8809 N   0  0  0  0  0  0  0  0  0  0  0  0
   -4.4082   -1.1215   -0.0128 C   0  0  0  0  0  0  0  0  0  0  0  0
   -5.8321   -1.4062   -0.4862 C   0  0  0  0  0  0  0  0  0  0  0  0
   -6.5122   -2.4491    0.3856 C   0  0  0  0  0  0  0  0  0  0  0  0
   -2.3083    1.6350   -0.7060 N   0  0  0  0  0  0  0  0  0  0  0  0
   -0.9950    1.9229   -0.4783 C   0  0  0  0  0  0  0  0  0  0  0  0
    0.0563    1.0457   -0.2545 C   0  0  0  0  0  0  0  0  0  0  0  0
    1.1737    1.8810   -0.0781 C   0  0  0  0  0  0  0  0  0  0  0  0
    0.8697    3.1819   -0.1745 N   0  0  0  0  0  0  0  0  0  0  0  0
   -0.4587    3.1787   -0.4273 N   0  0  0  0  0  0  0  0  0  0  0  0
   -1.1459    4.4331   -0.6038 C   0  0  0  0  0  0  0  0  0  0  0  0
    2.5103   -1.0850    1.3722 C   0  0  0  0  0  0  0  0  0  0  0  0
    3.8836   -0.9043    1.5720 C   0  0  0  0  0  0  0  0  0  0  0  0
    7.9355   -1.0848   -0.0461 H   0  0  0  0  0  0  0  0  0  0  0  0
    7.8158    0.2719    1.7350 H   0  0  0  0  0  0  0  0  0  0  0  0
    6.1247    0.6822    2.3408 H   0  0  0  0  0  0  0  0  0  0  0  0
    4.8848   -0.8752   -1.6772 H   0  0  0  0  0  0  0  0  0  0  0  0
    2.4650   -1.1978   -2.0184 H   0  0  0  0  0  0  0  0  0  0  0  0
   -1.7965   -1.5607   -0.6091 H   0  0  0  0  0  0  0  0  0  0  0  0
   -4.4095    0.6733   -1.0245 H   0  0  0  0  0  0  0  0  0  0  0  0
   -4.4226   -0.7490    1.0181 H   0  0  0  0  0  0  0  0  0  0  0  0
   -3.8287   -2.0509   -0.0284 H   0  0  0  0  0  0  0  0  0  0  0  0
   -5.8165   -1.7560   -1.5256 H   0  0  0  0  0  0  0  0  0  0  0  0
   -6.4234   -0.4826   -0.4724 H   0  0  0  0  0  0  0  0  0  0  0  0
   -7.5299   -2.6361    0.0290 H   0  0  0  0  0  0  0  0  0  0  0  0
   -6.5730   -2.1119    1.4252 H   0  0  0  0  0  0  0  0  0  0  0  0
   -5.9649   -3.3969    0.3628 H   0  0  0  0  0  0  0  0  0  0  0  0
    2.2036    1.6175    0.1186 H   0  0  0  0  0  0  0  0  0  0  0  0
   -0.6558    4.9841   -1.4106 H   0  0  0  0  0  0  0  0  0  0  0  0
   -1.0836    4.9925    0.3331 H   0  0  0  0  0  0  0  0  0  0  0  0
   -2.1923    4.2568   -0.8619 H   0  0  0  0  0  0  0  0  0  0  0  0
    1.8468   -1.1701    2.2282 H   0  0  0  0  0  0  0  0  0  0  0  0
    4.2589   -0.8597    2.5912 H   0  0  0  0  0  0  0  0  0  0  0  0
  1  2  1  0
  2  3  2  0
  2  4  1  0
  4  5  2  0
  5  6  1  0
  6  7  2  0
  7  8  1  0
  8  9  2  3
  9 10  1  0
 10 11  1  0
 11 12  1  0
 12 13  1  0
 13 14  1  0
 14 15  1  0
 11 16  2  0
 16 17  1  0
 17 18  2  0
 18 19  1  0
 19 20  2  0
 20 21  1  0
 21 22  1  0
  7 23  1  0
 23 24  2  0
 24  4  1  0
 18  9  1  0
 21 17  1  0
  1 25  1  0
  3 26  1  0
  3 27  1  0
  5 28  1  0
  6 29  1  0
 10 30  1  0
 12 31  1  0
 13 32  1  0
 13 33  1  0
 14 34  1  0
 14 35  1  0
 15 36  1  0
 15 37  1  0
 15 38  1  0
 19 39  1  0
 22 40  1  0
 22 41  1  0
 22 42  1  0
 23 43  1  0
 24 44  1  0
M  END
>  <ScrubInfo>  (12) 
{"isomerGroup": 0, "isomerId": 11, "confId": 0, "nr_conformers:": 1, "nr_isomers:": 16}

$$$$
_i12
     RDKit          3D

 44 46  0  0  0  0  0  0  0  0999 V2000
    6.8842    2.2820   -0.8317 O   0  0  0  0  0  0  0  0  0  0  0  0
    6.1330    2.0542    0.3002 C   0  0  0  0  0  0  0  0  0  0  0  0
    6.5080    2.5757    1.4710 C   0  0  0  0  0  0  0  0  0  0  0  0
    4.9386    1.2137    0.1460 C   0  0  0  0  0  0  0  0  0  0  0  0
    5.0500   -0.0727   -0.3870 C   0  0  0  0  0  0  0  0  0  0  0  0
    3.9133   -0.8746   -0.5481 C   0  0  0  0  0  0  0  0  0  0  0  0
    2.6344   -0.4176   -0.1847 C   0  0  0  0  0  0  0  0  0  0  0  0
    1.5366   -1.2777   -0.3854 N   0  0  0  0  0  0  0  0  0  0  0  0
    0.2007   -1.0470   -0.1563 C   0  0  0  0  0  0  0  0  0  0  0  0
   -0.3628    0.0439    0.2704 N   0  0  0  0  0  0  0  0  0  0  0  0
   -1.7333    0.1205    0.4517 C   0  0  0  0  0  0  0  0  0  0  0  0
   -2.1128    1.2730    0.8739 N   0  0  0  0  0  0  0  0  0  0  0  0
   -3.5127    1.5569    1.1521 C   0  0  0  0  0  0  0  0  0  0  0  0
   -4.2093    2.0383   -0.1175 C   0  0  0  0  0  0  0  0  0  0  0  0
   -5.6645    2.3901    0.1441 C   0  0  0  0  0  0  0  0  0  0  0  0
   -2.5471   -0.9661    0.1822 N   0  0  0  0  0  0  0  0  0  0  0  0
   -1.9787   -2.0972   -0.2647 C   0  0  0  0  0  0  0  0  0  0  0  0
   -0.6275   -2.2030   -0.4523 C   0  0  0  0  0  0  0  0  0  0  0  0
   -0.4547   -3.5179   -0.9171 C   0  0  0  0  0  0  0  0  0  0  0  0
   -1.6142   -4.1851   -1.0151 N   0  0  0  0  0  0  0  0  0  0  0  0
   -2.5416   -3.2855   -0.6060 N   0  0  0  0  0  0  0  0  0  0  0  0
   -3.9294   -3.6721   -0.5813 C   0  0  0  0  0  0  0  0  0  0  0  0
    2.5377    0.8747    0.3399 C   0  0  0  0  0  0  0  0  0  0  0  0
    3.6728    1.6808    0.5064 C   0  0  0  0  0  0  0  0  0  0  0  0
    6.3584    1.9893   -1.5967 H   0  0  0  0  0  0  0  0  0  0  0  0
    7.4026    3.1858    1.5363 H   0  0  0  0  0  0  0  0  0  0  0  0
    5.9477    2.4048    2.3837 H   0  0  0  0  0  0  0  0  0  0  0  0
    6.0249   -0.4671   -0.6665 H   0  0  0  0  0  0  0  0  0  0  0  0
    4.0458   -1.8712   -0.9627 H   0  0  0  0  0  0  0  0  0  0  0  0
    1.8043   -2.1907   -0.7206 H   0  0  0  0  0  0  0  0  0  0  0  0
   -3.5502    2.3487    1.9097 H   0  0  0  0  0  0  0  0  0  0  0  0
   -4.0327    0.6997    1.5950 H   0  0  0  0  0  0  0  0  0  0  0  0
   -4.1598    1.2662   -0.8940 H   0  0  0  0  0  0  0  0  0  0  0  0
   -3.6888    2.9177   -0.5152 H   0  0  0  0  0  0  0  0  0  0  0  0
   -6.1428    2.7350   -0.7779 H   0  0  0  0  0  0  0  0  0  0  0  0
   -5.7477    3.1879    0.8890 H   0  0  0  0  0  0  0  0  0  0  0  0
   -6.2186    1.5193    0.5091 H   0  0  0  0  0  0  0  0  0  0  0  0
   -3.5403   -0.8425    0.3002 H   0  0  0  0  0  0  0  0  0  0  0  0
    0.4546   -4.0340   -1.1939 H   0  0  0  0  0  0  0  0  0  0  0  0
   -4.2321   -3.9319   -1.5988 H   0  0  0  0  0  0  0  0  0  0  0  0
   -4.0351   -4.5348    0.0814 H   0  0  0  0  0  0  0  0  0  0  0  0
   -4.5408   -2.8460   -0.2126 H   0  0  0  0  0  0  0  0  0  0  0  0
    1.5807    1.2946    0.6378 H   0  0  0  0  0  0  0  0  0  0  0  0
    3.5492    2.6820    0.9144 H   0  0  0  0  0  0  0  0  0  0  0  0
  1  2  1  0
  2  3  2  0
  2  4  1  0
  4  5  2  0
  5  6  1  0
  6  7  2  0
  7  8  1  0
  8  9  1  0
  9 10  2  0
 10 11  1  0
 11 12  2  3
 12 13  1  0
 13 14  1  0
 14 15  1  0
 11 16  1  0
 16 17  1  0
 17 18  2  0
 18 19  1  0
 19 20  2  0
 20 21  1  0
 21 22  1  0
  7 23  1  0
 23 24  2  0
 24  4  1  0
 18  9  1  0
 21 17  1  0
  1 25  1  0
  3 26  1  0
  3 27  1  0
  5 28  1  0
  6 29  1  0
  8 30  1  0
 13 31  1  0
 13 32  1  0
 14 33  1  0
 14 34  1  0
 15 35  1  0
 15 36  1  0
 15 37  1  0
 16 38  1  0
 19 39  1  0
 22 40  1  0
 22 41  1  0
 22 42  1  0
 23 43  1  0
 24 44  1  0
M  END
>  <ScrubInfo>  (13) 
{"isomerGroup": 0, "isomerId": 12, "confId": 0, "nr_conformers:": 1, "nr_isomers:": 16}

$$$$
_i13
     RDKit          3D

 44 46  0  0  0  0  0  0  0  0999 V2000
   -2.3157   -0.6013    0.2487 N   0  0  0  0  0  0  0  0  0  0  0  0
   -2.2736    0.4161   -0.6705 C   0  0  0  0  0  0  0  0  0  0  0  0
   -3.4797    0.7614   -1.2100 N   0  0  0  0  0  0  0  0  0  0  0  0
   -4.3312   -0.2263   -1.8615 C   0  0  0  0  0  0  0  0  0  0  0  0
   -5.6175    0.4271   -2.3648 C   0  0  0  0  0  0  0  0  0  0  0  0
   -6.5164    0.9029   -1.2321 C   0  0  0  0  0  0  0  0  0  0  0  0
   -1.2047    1.0649   -1.0341 N   0  0  0  0  0  0  0  0  0  0  0  0
    0.0290    0.7270   -0.4893 C   0  0  0  0  0  0  0  0  0  0  0  0
    1.0483    1.3792   -0.9514 N   0  0  0  0  0  0  0  0  0  0  0  0
    2.3494    1.1487   -0.5101 C   0  0  0  0  0  0  0  0  0  0  0  0
    2.8914    1.9272    0.5150 C   0  0  0  0  0  0  0  0  0  0  0  0
    4.2071    1.7218    0.9396 C   0  0  0  0  0  0  0  0  0  0  0  0
    5.0031    0.7421    0.3317 C   0  0  0  0  0  0  0  0  0  0  0  0
    6.3899    0.5452    0.7737 C   0  0  0  0  0  0  0  0  0  0  0  0
    6.8512   -0.6280    1.2144 C   0  0  0  0  0  0  0  0  0  0  0  0
    7.2194    1.6440    0.7318 O   0  0  0  0  0  0  0  0  0  0  0  0
    4.4660   -0.0187   -0.7143 C   0  0  0  0  0  0  0  0  0  0  0  0
    3.1502    0.1913   -1.1373 C   0  0  0  0  0  0  0  0  0  0  0  0
    0.0275   -0.3112    0.5295 C   0  0  0  0  0  0  0  0  0  0  0  0
    0.9539   -0.9347    1.3853 C   0  0  0  0  0  0  0  0  0  0  0  0
    0.3908   -1.8603    2.1791 N   0  0  0  0  0  0  0  0  0  0  0  0
   -0.9151   -1.8299    1.8312 N   0  0  0  0  0  0  0  0  0  0  0  0
   -1.8379   -2.7137    2.4963 C   0  0  0  0  0  0  0  0  0  0  0  0
   -1.1583   -0.9238    0.8497 C   0  0  0  0  0  0  0  0  0  0  0  0
   -3.2270   -0.8601    0.6010 H   0  0  0  0  0  0  0  0  0  0  0  0
   -3.3167    1.5549   -1.8300 H   0  0  0  0  0  0  0  0  0  0  0  0
   -3.7915   -0.6591   -2.7119 H   0  0  0  0  0  0  0  0  0  0  0  0
   -4.5787   -1.0430   -1.1745 H   0  0  0  0  0  0  0  0  0  0  0  0
   -5.3817    1.2744   -3.0196 H   0  0  0  0  0  0  0  0  0  0  0  0
   -6.1708   -0.3020   -2.9683 H   0  0  0  0  0  0  0  0  0  0  0  0
   -6.0298    1.6809   -0.6359 H   0  0  0  0  0  0  0  0  0  0  0  0
   -7.4433    1.3212   -1.6374 H   0  0  0  0  0  0  0  0  0  0  0  0
   -6.7810    0.0744   -0.5674 H   0  0  0  0  0  0  0  0  0  0  0  0
    2.2830    2.6959    0.9845 H   0  0  0  0  0  0  0  0  0  0  0  0
    4.6031    2.3255    1.7537 H   0  0  0  0  0  0  0  0  0  0  0  0
    6.2220   -1.5091    1.2761 H   0  0  0  0  0  0  0  0  0  0  0  0
    7.8825   -0.7227    1.5374 H   0  0  0  0  0  0  0  0  0  0  0  0
    6.7527    2.3490    0.2491 H   0  0  0  0  0  0  0  0  0  0  0  0
    5.0720   -0.7690   -1.2173 H   0  0  0  0  0  0  0  0  0  0  0  0
    2.7469   -0.3905   -1.9620 H   0  0  0  0  0  0  0  0  0  0  0  0
    2.0172   -0.7657    1.4858 H   0  0  0  0  0  0  0  0  0  0  0  0
   -1.4400   -3.7308    2.4503 H   0  0  0  0  0  0  0  0  0  0  0  0
   -2.8103   -2.6787    2.0007 H   0  0  0  0  0  0  0  0  0  0  0  0
   -1.9353   -2.3879    3.5349 H   0  0  0  0  0  0  0  0  0  0  0  0
  1  2  1  0
  2  3  1  0
  3  4  1  0
  4  5  1  0
  5  6  1  0
  2  7  2  0
  7  8  1  0
  8  9  2  3
  9 10  1  0
 10 11  2  0
 11 12  1  0
 12 13  2  0
 13 14  1  0
 14 15  2  0
 14 16  1  0
 13 17  1  0
 17 18  2  0
  8 19  1  0
 19 20  1  0
 20 21  2  0
 21 22  1  0
 22 23  1  0
 22 24  1  0
 24  1  1  0
 18 10  1  0
 24 19  2  0
  1 25  1  0
  3 26  1  0
  4 27  1  0
  4 28  1  0
  5 29  1  0
  5 30  1  0
  6 31  1  0
  6 32  1  0
  6 33  1  0
 11 34  1  0
 12 35  1  0
 15 36  1  0
 15 37  1  0
 16 38  1  0
 17 39  1  0
 18 40  1  0
 20 41  1  0
 23 42  1  0
 23 43  1  0
 23 44  1  0
M  END
>  <ScrubInfo>  (14) 
{"isomerGroup": 0, "isomerId": 13, "confId": 0, "nr_conformers:": 1, "nr_isomers:": 16}

$$$$
_i14
     RDKit          3D

 44 46  0  0  0  0  0  0  0  0999 V2000
   -1.4544   -4.5714   -0.7856 N   0  0  0  0  0  0  0  0  0  0  0  0
   -0.2353   -3.9501   -0.5314 C   0  0  0  0  0  0  0  0  0  0  0  0
   -0.3150   -2.6139   -0.5708 C   0  0  0  0  0  0  0  0  0  0  0  0
    0.5667   -1.4893   -0.3619 C   0  0  0  0  0  0  0  0  0  0  0  0
    1.8266   -1.6409   -0.0944 N   0  0  0  0  0  0  0  0  0  0  0  0
    2.6117   -0.4960    0.1006 C   0  0  0  0  0  0  0  0  0  0  0  0
    3.1885    0.1683   -0.9824 C   0  0  0  0  0  0  0  0  0  0  0  0
    3.9961    1.2925   -0.7771 C   0  0  0  0  0  0  0  0  0  0  0  0
    4.2610    1.7635    0.5174 C   0  0  0  0  0  0  0  0  0  0  0  0
    5.1119    2.9549    0.7088 C   0  0  0  0  0  0  0  0  0  0  0  0
    5.9624    3.0997    1.7333 C   0  0  0  0  0  0  0  0  0  0  0  0
    4.9956    3.9170   -0.2720 O   0  0  0  0  0  0  0  0  0  0  0  0
    3.6800    1.0864    1.6003 C   0  0  0  0  0  0  0  0  0  0  0  0
    2.8711   -0.0370    1.3925 C   0  0  0  0  0  0  0  0  0  0  0  0
   -0.0445   -0.2681   -0.4601 N   0  0  0  0  0  0  0  0  0  0  0  0
   -1.3070   -0.1378   -0.7520 C   0  0  0  0  0  0  0  0  0  0  0  0
   -1.7714    1.1430   -0.8132 N   0  0  0  0  0  0  0  0  0  0  0  0
   -3.1628    1.5103   -0.6866 C   0  0  0  0  0  0  0  0  0  0  0  0
   -3.6050    1.4473    0.7738 C   0  0  0  0  0  0  0  0  0  0  0  0
   -5.0562    1.8698    0.9347 C   0  0  0  0  0  0  0  0  0  0  0  0
   -2.1813   -1.1673   -0.9953 N   0  0  0  0  0  0  0  0  0  0  0  0
   -1.7153   -2.3655   -0.9319 C   0  0  0  0  0  0  0  0  0  0  0  0
   -2.3651   -3.5817   -1.1518 N   0  0  0  0  0  0  0  0  0  0  0  0
   -3.7642   -3.7508   -0.8122 C   0  0  0  0  0  0  0  0  0  0  0  0
   -1.3733   -5.3644   -1.4263 H   0  0  0  0  0  0  0  0  0  0  0  0
    0.6425   -4.5489   -0.3327 H   0  0  0  0  0  0  0  0  0  0  0  0
    3.0015   -0.1856   -1.9917 H   0  0  0  0  0  0  0  0  0  0  0  0
    4.4235    1.7980   -1.6401 H   0  0  0  0  0  0  0  0  0  0  0  0
    6.5838    3.9811    1.8415 H   0  0  0  0  0  0  0  0  0  0  0  0
    6.0822    2.3306    2.4897 H   0  0  0  0  0  0  0  0  0  0  0  0
    5.5880    4.6534   -0.0501 H   0  0  0  0  0  0  0  0  0  0  0  0
    3.8382    1.4294    2.6190 H   0  0  0  0  0  0  0  0  0  0  0  0
    2.4333   -0.5537    2.2413 H   0  0  0  0  0  0  0  0  0  0  0  0
   -1.0963    1.8097   -0.4575 H   0  0  0  0  0  0  0  0  0  0  0  0
   -3.7945    0.8698   -1.3129 H   0  0  0  0  0  0  0  0  0  0  0  0
   -3.2840    2.5325   -1.0631 H   0  0  0  0  0  0  0  0  0  0  0  0
   -2.9680    2.0984    1.3848 H   0  0  0  0  0  0  0  0  0  0  0  0
   -3.4819    0.4301    1.1639 H   0  0  0  0  0  0  0  0  0  0  0  0
   -5.3514    1.8185    1.9874 H   0  0  0  0  0  0  0  0  0  0  0  0
   -5.2063    2.8977    0.5896 H   0  0  0  0  0  0  0  0  0  0  0  0
   -5.7209    1.2142    0.3631 H   0  0  0  0  0  0  0  0  0  0  0  0
   -3.9150   -3.6689    0.2693 H   0  0  0  0  0  0  0  0  0  0  0  0
   -4.3760   -2.9914   -1.3097 H   0  0  0  0  0  0  0  0  0  0  0  0
   -4.1195   -4.7332   -1.1396 H   0  0  0  0  0  0  0  0  0  0  0  0
  1  2  1  0
  2  3  2  0
  3  4  1  0
  4  5  2  3
  5  6  1  0
  6  7  2  0
  7  8  1  0
  8  9  2  0
  9 10  1  0
 10 11  2  0
 10 12  1  0
  9 13  1  0
 13 14  2  0
  4 15  1  0
 15 16  2  0
 16 17  1  0
 17 18  1  0
 18 19  1  0
 19 20  1  0
 16 21  1  0
 21 22  2  0
 22 23  1  0
 23 24  1  0
 23  1  1  0
 22  3  1  0
 14  6  1  0
  1 25  1  0
  2 26  1  0
  7 27  1  0
  8 28  1  0
 11 29  1  0
 11 30  1  0
 12 31  1  0
 13 32  1  0
 14 33  1  0
 17 34  1  0
 18 35  1  0
 18 36  1  0
 19 37  1  0
 19 38  1  0
 20 39  1  0
 20 40  1  0
 20 41  1  0
 24 42  1  0
 24 43  1  0
 24 44  1  0
M  END
>  <ScrubInfo>  (15) 
{"isomerGroup": 0, "isomerId": 14, "confId": 0, "nr_conformers:": 1, "nr_isomers:": 16}

$$$$
_i15
     RDKit          3D

 44 46  0  0  0  0  0  0  0  0999 V2000
   -0.1653   -3.2186   -0.5024 N   0  0  0  0  0  0  0  0  0  0  0  0
   -0.7435   -2.0026   -0.8497 C   0  0  0  0  0  0  0  0  0  0  0  0
    0.1019   -0.9706   -0.7299 C   0  0  0  0  0  0  0  0  0  0  0  0
    0.1145    0.4725   -0.9561 C   0  0  0  0  0  0  0  0  0  0  0  0
   -0.9831    1.1903   -1.3819 N   0  0  0  0  0  0  0  0  0  0  0  0
   -2.2615    1.1024   -0.7858 C   0  0  0  0  0  0  0  0  0  0  0  0
   -3.3789    1.4569   -1.5477 C   0  0  0  0  0  0  0  0  0  0  0  0
   -4.6629    1.4303   -0.9919 C   0  0  0  0  0  0  0  0  0  0  0  0
   -4.8606    1.0805    0.3504 C   0  0  0  0  0  0  0  0  0  0  0  0
   -6.2252    1.0517    0.9113 C   0  0  0  0  0  0  0  0  0  0  0  0
   -6.5195    1.4279    2.1624 C   0  0  0  0  0  0  0  0  0  0  0  0
   -7.2033    0.6314    0.0354 O   0  0  0  0  0  0  0  0  0  0  0  0
   -3.7360    0.7486    1.1178 C   0  0  0  0  0  0  0  0  0  0  0  0
   -2.4511    0.7721    0.5603 C   0  0  0  0  0  0  0  0  0  0  0  0
    1.2365    1.1137   -0.7817 N   0  0  0  0  0  0  0  0  0  0  0  0
    2.3516    0.4150   -0.3704 C   0  0  0  0  0  0  0  0  0  0  0  0
    3.4097    1.1416   -0.2836 N   0  0  0  0  0  0  0  0  0  0  0  0
    4.6441    0.4923    0.1492 C   0  0  0  0  0  0  0  0  0  0  0  0
    5.7508    1.5451    0.1712 C   0  0  0  0  0  0  0  0  0  0  0  0
    7.0786    0.9525    0.6130 C   0  0  0  0  0  0  0  0  0  0  0  0
    2.4183   -0.9246   -0.0546 N   0  0  0  0  0  0  0  0  0  0  0  0
    1.3353   -1.6019   -0.2179 C   0  0  0  0  0  0  0  0  0  0  0  0
    1.1019   -2.9588    0.0124 N   0  0  0  0  0  0  0  0  0  0  0  0
    2.1549   -3.9374   -0.1833 C   0  0  0  0  0  0  0  0  0  0  0  0
   -0.7733   -3.8100    0.0688 H   0  0  0  0  0  0  0  0  0  0  0  0
   -1.7761   -1.9790   -1.1692 H   0  0  0  0  0  0  0  0  0  0  0  0
   -0.7308    2.1707   -1.4976 H   0  0  0  0  0  0  0  0  0  0  0  0
   -3.2609    1.7401   -2.5912 H   0  0  0  0  0  0  0  0  0  0  0  0
   -5.5142    1.6928   -1.6171 H   0  0  0  0  0  0  0  0  0  0  0  0
   -7.5345    1.4068    2.5429 H   0  0  0  0  0  0  0  0  0  0  0  0
   -5.7582    1.7911    2.8455 H   0  0  0  0  0  0  0  0  0  0  0  0
   -8.0573    0.6486    0.4980 H   0  0  0  0  0  0  0  0  0  0  0  0
   -3.8435    0.4631    2.1615 H   0  0  0  0  0  0  0  0  0  0  0  0
   -1.6049    0.5396    1.2023 H   0  0  0  0  0  0  0  0  0  0  0  0
    4.9240   -0.3104   -0.5441 H   0  0  0  0  0  0  0  0  0  0  0  0
    4.5282    0.0701    1.1549 H   0  0  0  0  0  0  0  0  0  0  0  0
    5.8635    1.9869   -0.8262 H   0  0  0  0  0  0  0  0  0  0  0  0
    5.4735    2.3619    0.8486 H   0  0  0  0  0  0  0  0  0  0  0  0
    7.0052    0.5344    1.6220 H   0  0  0  0  0  0  0  0  0  0  0  0
    7.8544    1.7245    0.6209 H   0  0  0  0  0  0  0  0  0  0  0  0
    7.3985    0.1564   -0.0667 H   0  0  0  0  0  0  0  0  0  0  0  0
    2.4502   -3.9862   -1.2366 H   0  0  0  0  0  0  0  0  0  0  0  0
    3.0345   -3.6817    0.4162 H   0  0  0  0  0  0  0  0  0  0  0  0
    1.8146   -4.9300    0.1292 H   0  0  0  0  0  0  0  0  0  0  0  0
  1  2  1  0
  2  3  2  0
  3  4  1  0
  4  5  1  0
  5  6  1  0
  6  7  2  0
  7  8  1  0
  8  9  2  0
  9 10  1  0
 10 11  2  0
 10 12  1  0
  9 13  1  0
 13 14  2  0
  4 15  2  0
 15 16  1  0
 16 17  2  3
 17 18  1  0
 18 19  1  0
 19 20  1  0
 16 21  1  0
 21 22  2  0
 22 23  1  0
 23 24  1  0
 23  1  1  0
 22  3  1  0
 14  6  1  0
  1 25  1  0
  2 26  1  0
  5 27  1  0
  7 28  1  0
  8 29  1  0
 11 30  1  0
 11 31  1  0
 12 32  1  0
 13 33  1  0
 14 34  1  0
 18 35  1  0
 18 36  1  0
 19 37  1  0
 19 38  1  0
 20 39  1  0
 20 40  1  0
 20 41  1  0
 24 42  1  0
 24 43  1  0
 24 44  1  0
M  END
>  <ScrubInfo>  (16) 
{"isomerGroup": 0, "isomerId": 15, "confId": 0, "nr_conformers:": 1, "nr_isomers:": 16}

$$$$
