REMARK SMILES CCCNc1nc(Nc2ccc(C(C)=O)cc2)c2cnn(C)c2n1
REMARK SMILES IDX 5 1 6 2 7 3 18 4 19 5 20 6 21 7 22 8 23 9 24 10 4 11 3 13
REMARK SMILES IDX 2 14 1 15 8 16 9 18 10 19 17 20 11 21 16 22 12 23 13 24
REMARK SMILES IDX 14 25 15 26
REMARK H PARENT 4 12 8 17
ROOT
ATOM      1  C   UNL     1      -2.137  -0.623   0.735  1.00  0.00     0.226 A 
ATOM      2  N   UNL     1      -0.839  -0.639   0.378  1.00  0.00    -0.195 NA
ATOM      3  C   UNL     1      -0.169  -1.811   0.222  1.00  0.00     0.147 A 
ATOM      4  C   UNL     1      -0.899  -2.986   0.439  1.00  0.00     0.082 A 
ATOM      5  C   UNL     1      -0.689  -4.381   0.404  1.00  0.00     0.149 A 
ATOM      6  N   UNL     1      -1.785  -5.082   0.714  1.00  0.00    -0.179 NA
ATOM      7  N   UNL     1      -2.707  -4.121   0.958  1.00  0.00    -0.250 N 
ATOM      8  C   UNL     1      -4.043  -4.502   1.341  1.00  0.00     0.176 C 
ATOM      9  C   UNL     1      -2.225  -2.850   0.800  1.00  0.00     0.165 A 
ATOM     10  N   UNL     1      -2.897  -1.701   0.961  1.00  0.00    -0.193 NA
ENDROOT
BRANCH   1  11
ATOM     11  N   UNL     1      -2.792   0.596   0.891  1.00  0.00    -0.354 N 
ATOM     12  H   UNL     1      -3.782   0.376   0.874  1.00  0.00     0.163 HD
BRANCH  11  13
ATOM     13  C   UNL     1      -2.368   1.625  -0.043  1.00  0.00     0.116 C 
BRANCH  13  14
ATOM     14  C   UNL     1      -3.233   2.870   0.158  1.00  0.00     0.018 C 
ATOM     15  C   UNL     1      -2.826   3.990  -0.786  1.00  0.00     0.006 C 
ENDBRANCH  13  14
ENDBRANCH  11  13
ENDBRANCH   1  11
BRANCH   3  16
ATOM     16  N   UNL     1       1.178  -1.847  -0.169  1.00  0.00    -0.339 N 
ATOM     17  H   UNL     1       1.533  -2.780  -0.324  1.00  0.00     0.168 HD
BRANCH  16  18
ATOM     18  C   UNL     1       2.145  -0.837  -0.308  1.00  0.00     0.040 A 
ATOM     19  C   UNL     1       1.959   0.483   0.115  1.00  0.00     0.027 A 
ATOM     20  C   UNL     1       3.352  -1.148  -0.953  1.00  0.00     0.027 A 
ATOM     21  C   UNL     1       2.946   1.461  -0.078  1.00  0.00     0.014 A 
ATOM     22  C   UNL     1       4.343  -0.179  -1.151  1.00  0.00     0.014 A 
ATOM     23  C   UNL     1       4.146   1.133  -0.714  1.00  0.00     0.017 A 
BRANCH  23  24
ATOM     24  C   UNL     1       5.228   2.135  -0.946  1.00  0.00     0.159 C 
ATOM     25  C   UNL     1       5.025   3.551  -0.475  1.00  0.00     0.093 C 
ATOM     26  O   UNL     1       6.265   1.796  -1.514  1.00  0.00    -0.295 OA
ENDBRANCH  23  24
ENDBRANCH  16  18
ENDBRANCH   3  16
TORSDOF 6
