_i0
     RDKit          3D

 49 51  0  0  0  0  0  0  0  0999 V2000
    6.5454   -2.4404    1.7198 C   0  0  0  0  0  0  0  0  0  0  0  0
    6.7073   -1.0899    1.3083 O   0  0  0  0  0  0  0  0  0  0  0  0
    5.5796   -0.2668    1.6026 C   0  0  0  0  0  0  0  0  0  0  0  0
    4.4594   -0.4622    0.5857 C   0  0  0  0  0  0  0  0  0  0  0  0
    3.3138    0.5151    0.8378 C   0  0  0  0  0  0  0  0  0  0  0  0
    2.2679    0.2959   -0.1450 N   0  0  0  0  0  0  0  0  0  0  0  0
    1.1248    1.0649    0.0436 C   0  0  0  0  0  0  0  0  0  0  0  0
   -0.0261    0.4321   -0.2458 N   0  0  0  0  0  0  0  0  0  0  0  0
   -1.2233    1.0655   -0.1218 C   0  0  0  0  0  0  0  0  0  0  0  0
   -2.4328    0.4327   -0.4488 N   0  0  0  0  0  0  0  0  0  0  0  0
   -2.7548   -0.9178   -0.7016 C   0  0  0  0  0  0  0  0  0  0  0  0
   -1.8858   -1.9544   -0.3436 C   0  0  0  0  0  0  0  0  0  0  0  0
   -2.1970   -3.2871   -0.6041 C   0  0  0  0  0  0  0  0  0  0  0  0
   -3.4009   -3.6181   -1.2203 C   0  0  0  0  0  0  0  0  0  0  0  0
   -3.7083   -5.4685   -1.5407 Br  0  0  0  0  0  0  0  0  0  0  0  0
   -4.3151   -2.6159   -1.5932 C   0  0  0  0  0  0  0  0  0  0  0  0
   -5.6262   -2.9753   -2.2504 C   0  0  0  0  0  0  0  0  0  0  0  0
   -3.9544   -1.2506   -1.3913 C   0  0  0  0  0  0  0  0  0  0  0  0
   -4.8649   -0.1512   -1.8955 C   0  0  0  0  0  0  0  0  0  0  0  0
   -1.1892    2.3970    0.3113 C   0  0  0  0  0  0  0  0  0  0  0  0
   -2.0972    3.4431    0.5790 C   0  0  0  0  0  0  0  0  0  0  0  0
   -1.4955    4.5635    0.9934 N   0  0  0  0  0  0  0  0  0  0  0  0
   -0.1833    4.2299    0.9846 N   0  0  0  0  0  0  0  0  0  0  0  0
    0.8010    5.2105    1.3676 C   0  0  0  0  0  0  0  0  0  0  0  0
    0.0491    2.9409    0.5897 C   0  0  0  0  0  0  0  0  0  0  0  0
    1.2343    2.3243    0.4854 N   0  0  0  0  0  0  0  0  0  0  0  0
    7.4792   -2.9725    1.5180 H   0  0  0  0  0  0  0  0  0  0  0  0
    6.3412   -2.4948    2.7934 H   0  0  0  0  0  0  0  0  0  0  0  0
    5.7455   -2.9287    1.1574 H   0  0  0  0  0  0  0  0  0  0  0  0
    5.9311    0.7700    1.5604 H   0  0  0  0  0  0  0  0  0  0  0  0
    5.2319   -0.4492    2.6263 H   0  0  0  0  0  0  0  0  0  0  0  0
    4.8571   -0.3330   -0.4289 H   0  0  0  0  0  0  0  0  0  0  0  0
    4.0851   -1.4918    0.6271 H   0  0  0  0  0  0  0  0  0  0  0  0
    3.6970    1.5407    0.7673 H   0  0  0  0  0  0  0  0  0  0  0  0
    2.9223    0.3638    1.8518 H   0  0  0  0  0  0  0  0  0  0  0  0
    1.9377   -0.6596   -0.2352 H   0  0  0  0  0  0  0  0  0  0  0  0
   -3.2388    1.0336   -0.3585 H   0  0  0  0  0  0  0  0  0  0  0  0
   -0.9509   -1.7440    0.1665 H   0  0  0  0  0  0  0  0  0  0  0  0
   -1.4893   -4.0592   -0.3133 H   0  0  0  0  0  0  0  0  0  0  0  0
   -5.4974   -3.0376   -3.3353 H   0  0  0  0  0  0  0  0  0  0  0  0
   -6.0260   -3.9238   -1.8808 H   0  0  0  0  0  0  0  0  0  0  0  0
   -6.4056   -2.2412   -2.0234 H   0  0  0  0  0  0  0  0  0  0  0  0
   -5.6110    0.0950   -1.1340 H   0  0  0  0  0  0  0  0  0  0  0  0
   -4.3073    0.7538   -2.1565 H   0  0  0  0  0  0  0  0  0  0  0  0
   -5.3722   -0.4413   -2.8209 H   0  0  0  0  0  0  0  0  0  0  0  0
   -3.1756    3.4389    0.4921 H   0  0  0  0  0  0  0  0  0  0  0  0
    0.5915    5.5253    2.3931 H   0  0  0  0  0  0  0  0  0  0  0  0
    1.8026    4.7787    1.3106 H   0  0  0  0  0  0  0  0  0  0  0  0
    0.7240    6.0597    0.6839 H   0  0  0  0  0  0  0  0  0  0  0  0
  1  2  1  0
  2  3  1  0
  3  4  1  0
  4  5  1  0
  5  6  1  0
  6  7  1  0
  7  8  2  0
  8  9  1  0
  9 10  1  0
 10 11  1  0
 11 12  2  0
 12 13  1  0
 13 14  2  0
 14 15  1  0
 14 16  1  0
 16 17  1  0
 16 18  2  0
 18 19  1  0
  9 20  2  0
 20 21  1  0
 21 22  2  0
 22 23  1  0
 23 24  1  0
 23 25  1  0
 25 26  2  0
 26  7  1  0
 18 11  1  0
 25 20  1  0
  1 27  1  0
  1 28  1  0
  1 29  1  0
  3 30  1  0
  3 31  1  0
  4 32  1  0
  4 33  1  0
  5 34  1  0
  5 35  1  0
  6 36  1  0
 10 37  1  0
 12 38  1  0
 13 39  1  0
 17 40  1  0
 17 41  1  0
 17 42  1  0
 19 43  1  0
 19 44  1  0
 19 45  1  0
 21 46  1  0
 24 47  1  0
 24 48  1  0
 24 49  1  0
M  END
>  <ScrubInfo>  (1) 
{"isomerGroup": 0, "isomerId": 0, "confId": 0, "nr_conformers:": 1, "nr_isomers:": 9}

$$$$
_i1
     RDKit          3D

 49 51  0  0  0  0  0  0  0  0999 V2000
    0.2672    1.3046   -0.2051 N   0  0  0  0  0  0  0  0  0  0  0  0
   -0.8357    0.4750   -0.1939 C   0  0  0  0  0  0  0  0  0  0  0  0
   -2.0961    0.9599   -0.5051 N   0  0  0  0  0  0  0  0  0  0  0  0
   -3.2870    0.6938    0.2237 C   0  0  0  0  0  0  0  0  0  0  0  0
   -3.2465    0.4358    1.6008 C   0  0  0  0  0  0  0  0  0  0  0  0
   -4.4181    0.2246    2.3219 C   0  0  0  0  0  0  0  0  0  0  0  0
   -5.6562    0.3076    1.6863 C   0  0  0  0  0  0  0  0  0  0  0  0
   -7.1891   -0.0275    2.7631 Br  0  0  0  0  0  0  0  0  0  0  0  0
   -5.7453    0.6193    0.3154 C   0  0  0  0  0  0  0  0  0  0  0  0
   -7.0939    0.7241   -0.3562 C   0  0  0  0  0  0  0  0  0  0  0  0
   -4.5428    0.7817   -0.4288 C   0  0  0  0  0  0  0  0  0  0  0  0
   -4.6024    1.0546   -1.9154 C   0  0  0  0  0  0  0  0  0  0  0  0
   -0.5738   -0.8117    0.0730 C   0  0  0  0  0  0  0  0  0  0  0  0
   -1.3033   -2.0831    0.1400 C   0  0  0  0  0  0  0  0  0  0  0  0
   -0.5335   -3.1007    0.4379 N   0  0  0  0  0  0  0  0  0  0  0  0
    0.7479   -2.5568    0.6311 N   0  0  0  0  0  0  0  0  0  0  0  0
    1.8877   -3.4423    0.6442 C   0  0  0  0  0  0  0  0  0  0  0  0
    0.8223   -1.1985    0.3690 C   0  0  0  0  0  0  0  0  0  0  0  0
    1.8391   -0.4060    0.3568 N   0  0  0  0  0  0  0  0  0  0  0  0
    1.5544    0.9034    0.0496 C   0  0  0  0  0  0  0  0  0  0  0  0
    2.4929    1.7889   -0.0153 N   0  0  0  0  0  0  0  0  0  0  0  0
    3.8702    1.3691    0.2679 C   0  0  0  0  0  0  0  0  0  0  0  0
    4.5529    0.9329   -1.0272 C   0  0  0  0  0  0  0  0  0  0  0  0
    6.0439    0.6841   -0.8327 C   0  0  0  0  0  0  0  0  0  0  0  0
    6.2393   -0.4009    0.0721 O   0  0  0  0  0  0  0  0  0  0  0  0
    7.6190   -0.6646    0.2860 C   0  0  0  0  0  0  0  0  0  0  0  0
    0.1538    2.2811   -0.4240 H   0  0  0  0  0  0  0  0  0  0  0  0
   -2.0750    1.9463   -0.7532 H   0  0  0  0  0  0  0  0  0  0  0  0
   -2.3008    0.4039    2.1369 H   0  0  0  0  0  0  0  0  0  0  0  0
   -4.3528    0.0046    3.3850 H   0  0  0  0  0  0  0  0  0  0  0  0
   -7.8145    1.2511    0.2769 H   0  0  0  0  0  0  0  0  0  0  0  0
   -7.4746   -0.2753   -0.5885 H   0  0  0  0  0  0  0  0  0  0  0  0
   -7.0560    1.3048   -1.2819 H   0  0  0  0  0  0  0  0  0  0  0  0
   -5.3068    0.3729   -2.4037 H   0  0  0  0  0  0  0  0  0  0  0  0
   -4.9085    2.0904   -2.0925 H   0  0  0  0  0  0  0  0  0  0  0  0
   -3.6426    0.8943   -2.4151 H   0  0  0  0  0  0  0  0  0  0  0  0
   -2.3789   -2.1363   -0.0706 H   0  0  0  0  0  0  0  0  0  0  0  0
    2.7270   -2.9903    1.1824 H   0  0  0  0  0  0  0  0  0  0  0  0
    2.2086   -3.6656   -0.3781 H   0  0  0  0  0  0  0  0  0  0  0  0
    1.6401   -4.3846    1.1435 H   0  0  0  0  0  0  0  0  0  0  0  0
    3.9298    0.5930    1.0400 H   0  0  0  0  0  0  0  0  0  0  0  0
    4.3953    2.2385    0.6814 H   0  0  0  0  0  0  0  0  0  0  0  0
    4.4152    1.7033   -1.7953 H   0  0  0  0  0  0  0  0  0  0  0  0
    4.0744    0.0181   -1.3969 H   0  0  0  0  0  0  0  0  0  0  0  0
    6.5313    1.5848   -0.4417 H   0  0  0  0  0  0  0  0  0  0  0  0
    6.4971    0.4326   -1.7985 H   0  0  0  0  0  0  0  0  0  0  0  0
    8.1070   -0.9395   -0.6540 H   0  0  0  0  0  0  0  0  0  0  0  0
    8.1120    0.2076    0.7261 H   0  0  0  0  0  0  0  0  0  0  0  0
    7.7055   -1.5028    0.9825 H   0  0  0  0  0  0  0  0  0  0  0  0
  1  2  1  0
  2  3  1  0
  3  4  1  0
  4  5  2  0
  5  6  1  0
  6  7  2  0
  7  8  1  0
  7  9  1  0
  9 10  1  0
  9 11  2  0
 11 12  1  0
  2 13  2  0
 13 14  1  0
 14 15  2  0
 15 16  1  0
 16 17  1  0
 16 18  1  0
 18 19  2  0
 19 20  1  0
 20 21  2  3
 21 22  1  0
 22 23  1  0
 23 24  1  0
 24 25  1  0
 25 26  1  0
 20  1  1  0
 11  4  1  0
 18 13  1  0
  1 27  1  0
  3 28  1  0
  5 29  1  0
  6 30  1  0
 10 31  1  0
 10 32  1  0
 10 33  1  0
 12 34  1  0
 12 35  1  0
 12 36  1  0
 14 37  1  0
 17 38  1  0
 17 39  1  0
 17 40  1  0
 22 41  1  0
 22 42  1  0
 23 43  1  0
 23 44  1  0
 24 45  1  0
 24 46  1  0
 26 47  1  0
 26 48  1  0
 26 49  1  0
M  END
>  <ScrubInfo>  (2) 
{"isomerGroup": 0, "isomerId": 1, "confId": 0, "nr_conformers:": 1, "nr_isomers:": 9}

$$$$
_i2
     RDKit          3D

 49 51  0  0  0  0  0  0  0  0999 V2000
    0.5527   -0.2476   -0.2923 N   0  0  0  0  0  0  0  0  0  0  0  0
    1.5002    0.7198   -0.0765 C   0  0  0  0  0  0  0  0  0  0  0  0
    2.7351    0.4916   -0.6155 N   0  0  0  0  0  0  0  0  0  0  0  0
    3.4416   -0.7696   -0.4325 C   0  0  0  0  0  0  0  0  0  0  0  0
    4.8087   -0.6982   -1.1046 C   0  0  0  0  0  0  0  0  0  0  0  0
    5.5790   -2.0025   -0.9240 C   0  0  0  0  0  0  0  0  0  0  0  0
    6.7992   -1.9906   -1.6617 O   0  0  0  0  0  0  0  0  0  0  0  0
    7.8516   -1.2978   -1.0036 C   0  0  0  0  0  0  0  0  0  0  0  0
    1.2823    1.8247    0.5907 N   0  0  0  0  0  0  0  0  0  0  0  0
    0.0031    1.8805    1.0597 C   0  0  0  0  0  0  0  0  0  0  0  0
   -1.0201    0.9586    0.8919 C   0  0  0  0  0  0  0  0  0  0  0  0
   -2.1070    1.5160    1.5880 C   0  0  0  0  0  0  0  0  0  0  0  0
   -1.8121    2.6934    2.1538 N   0  0  0  0  0  0  0  0  0  0  0  0
   -0.5200    2.8955    1.8105 N   0  0  0  0  0  0  0  0  0  0  0  0
    0.1471    4.0948    2.2504 C   0  0  0  0  0  0  0  0  0  0  0  0
   -0.7613   -0.2380    0.1146 C   0  0  0  0  0  0  0  0  0  0  0  0
   -1.5791   -1.1932   -0.2097 N   0  0  0  0  0  0  0  0  0  0  0  0
   -2.9206   -1.1881    0.1867 C   0  0  0  0  0  0  0  0  0  0  0  0
   -3.2604   -1.8620    1.3626 C   0  0  0  0  0  0  0  0  0  0  0  0
   -4.5821   -1.9141    1.7925 C   0  0  0  0  0  0  0  0  0  0  0  0
   -5.5822   -1.2844    1.0498 C   0  0  0  0  0  0  0  0  0  0  0  0
   -7.3587   -1.4375    1.7151 Br  0  0  0  0  0  0  0  0  0  0  0  0
   -5.2758   -0.5907   -0.1392 C   0  0  0  0  0  0  0  0  0  0  0  0
   -6.3659    0.0876   -0.9326 C   0  0  0  0  0  0  0  0  0  0  0  0
   -3.9305   -0.5887   -0.5997 C   0  0  0  0  0  0  0  0  0  0  0  0
   -3.5611    0.0793   -1.9023 C   0  0  0  0  0  0  0  0  0  0  0  0
    0.7716   -0.9735   -0.9538 H   0  0  0  0  0  0  0  0  0  0  0  0
    3.3282    1.2891   -0.3913 H   0  0  0  0  0  0  0  0  0  0  0  0
    3.5607   -0.9680    0.6391 H   0  0  0  0  0  0  0  0  0  0  0  0
    2.8653   -1.5937   -0.8666 H   0  0  0  0  0  0  0  0  0  0  0  0
    5.3839    0.1397   -0.6934 H   0  0  0  0  0  0  0  0  0  0  0  0
    4.6972   -0.4819   -2.1747 H   0  0  0  0  0  0  0  0  0  0  0  0
    5.7716   -2.2156    0.1342 H   0  0  0  0  0  0  0  0  0  0  0  0
    4.9836   -2.8331   -1.3188 H   0  0  0  0  0  0  0  0  0  0  0  0
    8.0522   -1.7433   -0.0246 H   0  0  0  0  0  0  0  0  0  0  0  0
    7.6143   -0.2364   -0.8942 H   0  0  0  0  0  0  0  0  0  0  0  0
    8.7534   -1.3865   -1.6156 H   0  0  0  0  0  0  0  0  0  0  0  0
   -3.1084    1.1312    1.7199 H   0  0  0  0  0  0  0  0  0  0  0  0
   -0.4269    4.9566    1.9004 H   0  0  0  0  0  0  0  0  0  0  0  0
    0.1894    4.0824    3.3424 H   0  0  0  0  0  0  0  0  0  0  0  0
    1.1584    4.1357    1.8402 H   0  0  0  0  0  0  0  0  0  0  0  0
   -2.4850   -2.3547    1.9435 H   0  0  0  0  0  0  0  0  0  0  0  0
   -4.8215   -2.4505    2.7071 H   0  0  0  0  0  0  0  0  0  0  0  0
   -5.9760    0.8618   -1.5993 H   0  0  0  0  0  0  0  0  0  0  0  0
   -7.0703    0.6085   -0.2767 H   0  0  0  0  0  0  0  0  0  0  0  0
   -6.9050   -0.6502   -1.5348 H   0  0  0  0  0  0  0  0  0  0  0  0
   -2.5799   -0.2336   -2.2715 H   0  0  0  0  0  0  0  0  0  0  0  0
   -4.2735   -0.1891   -2.6895 H   0  0  0  0  0  0  0  0  0  0  0  0
   -3.5470    1.1662   -1.7742 H   0  0  0  0  0  0  0  0  0  0  0  0
  1  2  1  0
  2  3  1  0
  3  4  1  0
  4  5  1  0
  5  6  1  0
  6  7  1  0
  7  8  1  0
  2  9  2  0
  9 10  1  0
 10 11  2  0
 11 12  1  0
 12 13  2  0
 13 14  1  0
 14 15  1  0
 11 16  1  0
 16 17  2  3
 17 18  1  0
 18 19  2  0
 19 20  1  0
 20 21  2  0
 21 22  1  0
 21 23  1  0
 23 24  1  0
 23 25  2  0
 25 26  1  0
 16  1  1  0
 25 18  1  0
 14 10  1  0
  1 27  1  0
  3 28  1  0
  4 29  1  0
  4 30  1  0
  5 31  1  0
  5 32  1  0
  6 33  1  0
  6 34  1  0
  8 35  1  0
  8 36  1  0
  8 37  1  0
 12 38  1  0
 15 39  1  0
 15 40  1  0
 15 41  1  0
 19 42  1  0
 20 43  1  0
 24 44  1  0
 24 45  1  0
 24 46  1  0
 26 47  1  0
 26 48  1  0
 26 49  1  0
M  END
>  <ScrubInfo>  (3) 
{"isomerGroup": 0, "isomerId": 2, "confId": 0, "nr_conformers:": 1, "nr_isomers:": 9}

$$$$
_i3
     RDKit          3D

 49 51  0  0  0  0  0  0  0  0999 V2000
    1.4610   -2.4244   -0.1426 N   0  0  0  0  0  0  0  0  0  0  0  0
    1.4115   -1.0690    0.1334 C   0  0  0  0  0  0  0  0  0  0  0  0
    2.4147   -0.3126    0.4087 N   0  0  0  0  0  0  0  0  0  0  0  0
    3.7548   -0.8782    0.4432 C   0  0  0  0  0  0  0  0  0  0  0  0
    4.7489    0.2217    0.8028 C   0  0  0  0  0  0  0  0  0  0  0  0
    4.8354    1.2998   -0.2754 C   0  0  0  0  0  0  0  0  0  0  0  0
    5.9001    2.2145    0.0000 O   0  0  0  0  0  0  0  0  0  0  0  0
    5.5315    3.2217    0.9335 C   0  0  0  0  0  0  0  0  0  0  0  0
    0.2087   -0.3844    0.1356 N   0  0  0  0  0  0  0  0  0  0  0  0
   -0.9127   -0.9973   -0.1053 C   0  0  0  0  0  0  0  0  0  0  0  0
   -2.1781   -0.4604   -0.1461 N   0  0  0  0  0  0  0  0  0  0  0  0
   -2.6101    0.8306    0.2394 C   0  0  0  0  0  0  0  0  0  0  0  0
   -1.7974    1.6864    0.9920 C   0  0  0  0  0  0  0  0  0  0  0  0
   -2.2250    2.9611    1.3584 C   0  0  0  0  0  0  0  0  0  0  0  0
   -3.4908    3.4096    0.9924 C   0  0  0  0  0  0  0  0  0  0  0  0
   -3.9558    5.1727    1.5362 Br  0  0  0  0  0  0  0  0  0  0  0  0
   -4.3521    2.5887    0.2420 C   0  0  0  0  0  0  0  0  0  0  0  0
   -5.7304    3.0698   -0.1445 C   0  0  0  0  0  0  0  0  0  0  0  0
   -3.8771    1.3163   -0.1958 C   0  0  0  0  0  0  0  0  0  0  0  0
   -4.7377    0.4711   -1.1114 C   0  0  0  0  0  0  0  0  0  0  0  0
   -0.8958   -2.4205   -0.3946 C   0  0  0  0  0  0  0  0  0  0  0  0
   -1.8211   -3.4326   -0.7008 C   0  0  0  0  0  0  0  0  0  0  0  0
   -1.2360   -4.6257   -0.8828 N   0  0  0  0  0  0  0  0  0  0  0  0
    0.0817   -4.3739   -0.6911 N   0  0  0  0  0  0  0  0  0  0  0  0
    1.0262   -5.4552   -0.8130 C   0  0  0  0  0  0  0  0  0  0  0  0
    0.3103   -3.0671   -0.3983 C   0  0  0  0  0  0  0  0  0  0  0  0
    2.3660   -2.8687   -0.1291 H   0  0  0  0  0  0  0  0  0  0  0  0
    4.0226   -1.3139   -0.5267 H   0  0  0  0  0  0  0  0  0  0  0  0
    3.8159   -1.6635    1.2060 H   0  0  0  0  0  0  0  0  0  0  0  0
    5.7427   -0.2188    0.9494 H   0  0  0  0  0  0  0  0  0  0  0  0
    4.4728    0.6724    1.7631 H   0  0  0  0  0  0  0  0  0  0  0  0
    3.8895    1.8399   -0.3981 H   0  0  0  0  0  0  0  0  0  0  0  0
    5.0698    0.8320   -1.2379 H   0  0  0  0  0  0  0  0  0  0  0  0
    5.2958    2.7871    1.9084 H   0  0  0  0  0  0  0  0  0  0  0  0
    4.6801    3.7993    0.5607 H   0  0  0  0  0  0  0  0  0  0  0  0
    6.3809    3.8993    1.0566 H   0  0  0  0  0  0  0  0  0  0  0  0
   -2.9428   -1.0889   -0.3364 H   0  0  0  0  0  0  0  0  0  0  0  0
   -0.8104    1.3777    1.3267 H   0  0  0  0  0  0  0  0  0  0  0  0
   -1.5546    3.5921    1.9372 H   0  0  0  0  0  0  0  0  0  0  0  0
   -5.6869    3.6075   -1.0966 H   0  0  0  0  0  0  0  0  0  0  0  0
   -6.1688    3.7215    0.6163 H   0  0  0  0  0  0  0  0  0  0  0  0
   -6.4364    2.2380   -0.2335 H   0  0  0  0  0  0  0  0  0  0  0  0
   -5.3430    1.0887   -1.7821 H   0  0  0  0  0  0  0  0  0  0  0  0
   -4.1325   -0.1504   -1.7791 H   0  0  0  0  0  0  0  0  0  0  0  0
   -5.3949   -0.1721   -0.5187 H   0  0  0  0  0  0  0  0  0  0  0  0
   -2.8963   -3.3718   -0.8030 H   0  0  0  0  0  0  0  0  0  0  0  0
    0.7772   -6.2152   -0.0681 H   0  0  0  0  0  0  0  0  0  0  0  0
    2.0397   -5.0868   -0.6414 H   0  0  0  0  0  0  0  0  0  0  0  0
    0.9486   -5.8682   -1.8219 H   0  0  0  0  0  0  0  0  0  0  0  0
  1  2  1  0
  2  3  2  3
  3  4  1  0
  4  5  1  0
  5  6  1  0
  6  7  1  0
  7  8  1  0
  2  9  1  0
  9 10  2  0
 10 11  1  0
 11 12  1  0
 12 13  2  0
 13 14  1  0
 14 15  2  0
 15 16  1  0
 15 17  1  0
 17 18  1  0
 17 19  2  0
 19 20  1  0
 10 21  1  0
 21 22  1  0
 22 23  2  0
 23 24  1  0
 24 25  1  0
 24 26  1  0
 26  1  1  0
 19 12  1  0
 26 21  2  0
  1 27  1  0
  4 28  1  0
  4 29  1  0
  5 30  1  0
  5 31  1  0
  6 32  1  0
  6 33  1  0
  8 34  1  0
  8 35  1  0
  8 36  1  0
 11 37  1  0
 13 38  1  0
 14 39  1  0
 18 40  1  0
 18 41  1  0
 18 42  1  0
 20 43  1  0
 20 44  1  0
 20 45  1  0
 22 46  1  0
 25 47  1  0
 25 48  1  0
 25 49  1  0
M  END
>  <ScrubInfo>  (4) 
{"isomerGroup": 0, "isomerId": 3, "confId": 0, "nr_conformers:": 1, "nr_isomers:": 9}

$$$$
_i4
     RDKit          3D

 49 51  0  0  0  0  0  0  0  0999 V2000
   -2.1157    2.7696   -1.5690 N   0  0  0  0  0  0  0  0  0  0  0  0
   -2.2414    1.7180   -0.6675 C   0  0  0  0  0  0  0  0  0  0  0  0
   -1.0922    1.0603   -0.4493 C   0  0  0  0  0  0  0  0  0  0  0  0
   -0.5868   -0.0493    0.3488 C   0  0  0  0  0  0  0  0  0  0  0  0
   -1.2021   -0.8760    1.1280 N   0  0  0  0  0  0  0  0  0  0  0  0
   -2.5862   -0.7878    1.3117 C   0  0  0  0  0  0  0  0  0  0  0  0
   -3.0599   -0.0356    2.3896 C   0  0  0  0  0  0  0  0  0  0  0  0
   -4.4254    0.0813    2.6261 C   0  0  0  0  0  0  0  0  0  0  0  0
   -5.3361   -0.5520    1.7787 C   0  0  0  0  0  0  0  0  0  0  0  0
   -7.1794   -0.3416    2.2029 Br  0  0  0  0  0  0  0  0  0  0  0  0
   -4.8947   -1.3184    0.6801 C   0  0  0  0  0  0  0  0  0  0  0  0
   -5.8884   -2.0069   -0.2234 C   0  0  0  0  0  0  0  0  0  0  0  0
   -3.4964   -1.4763    0.4781 C   0  0  0  0  0  0  0  0  0  0  0  0
   -2.9681   -2.3500   -0.6344 C   0  0  0  0  0  0  0  0  0  0  0  0
    0.7655   -0.2357    0.2434 N   0  0  0  0  0  0  0  0  0  0  0  0
    1.5246    0.4619   -0.5438 C   0  0  0  0  0  0  0  0  0  0  0  0
    2.8701    0.2334   -0.5983 N   0  0  0  0  0  0  0  0  0  0  0  0
    3.4588   -1.0130   -0.1548 C   0  0  0  0  0  0  0  0  0  0  0  0
    4.9806   -0.9190   -0.1463 C   0  0  0  0  0  0  0  0  0  0  0  0
    5.4960    0.0509    0.9146 C   0  0  0  0  0  0  0  0  0  0  0  0
    6.9233    0.1226    0.8802 O   0  0  0  0  0  0  0  0  0  0  0  0
    7.5507   -0.8918    1.6534 C   0  0  0  0  0  0  0  0  0  0  0  0
    1.0969    1.4559   -1.3809 N   0  0  0  0  0  0  0  0  0  0  0  0
   -0.1549    1.7545   -1.3523 C   0  0  0  0  0  0  0  0  0  0  0  0
   -0.8335    2.7215   -2.0963 N   0  0  0  0  0  0  0  0  0  0  0  0
   -0.1816    3.9614   -2.4741 C   0  0  0  0  0  0  0  0  0  0  0  0
   -2.8816    2.8188   -2.2449 H   0  0  0  0  0  0  0  0  0  0  0  0
   -3.2146    1.5253   -0.2409 H   0  0  0  0  0  0  0  0  0  0  0  0
   -2.3513    0.4540    3.0533 H   0  0  0  0  0  0  0  0  0  0  0  0
   -4.7672    0.6640    3.4777 H   0  0  0  0  0  0  0  0  0  0  0  0
   -5.4622   -2.2525   -1.2001 H   0  0  0  0  0  0  0  0  0  0  0  0
   -6.7426   -1.3590   -0.4431 H   0  0  0  0  0  0  0  0  0  0  0  0
   -6.2419   -2.9311    0.2441 H   0  0  0  0  0  0  0  0  0  0  0  0
   -3.0714   -1.8352   -1.5947 H   0  0  0  0  0  0  0  0  0  0  0  0
   -1.9145   -2.6122   -0.4989 H   0  0  0  0  0  0  0  0  0  0  0  0
   -3.5085   -3.3018   -0.6675 H   0  0  0  0  0  0  0  0  0  0  0  0
    3.2844    0.6528   -1.4221 H   0  0  0  0  0  0  0  0  0  0  0  0
    3.1044   -1.2765    0.8486 H   0  0  0  0  0  0  0  0  0  0  0  0
    3.1530   -1.8151   -0.8363 H   0  0  0  0  0  0  0  0  0  0  0  0
    5.3561   -0.6145   -1.1313 H   0  0  0  0  0  0  0  0  0  0  0  0
    5.3941   -1.9174    0.0356 H   0  0  0  0  0  0  0  0  0  0  0  0
    5.1465   -0.2199    1.9180 H   0  0  0  0  0  0  0  0  0  0  0  0
    5.1292    1.0608    0.7030 H   0  0  0  0  0  0  0  0  0  0  0  0
    7.3035   -1.8864    1.2730 H   0  0  0  0  0  0  0  0  0  0  0  0
    8.6332   -0.7548    1.5826 H   0  0  0  0  0  0  0  0  0  0  0  0
    7.2593   -0.8068    2.7047 H   0  0  0  0  0  0  0  0  0  0  0  0
   -0.8368    4.5540   -3.1207 H   0  0  0  0  0  0  0  0  0  0  0  0
    0.0651    4.5571   -1.5890 H   0  0  0  0  0  0  0  0  0  0  0  0
    0.7401    3.7587   -3.0287 H   0  0  0  0  0  0  0  0  0  0  0  0
  1  2  1  0
  2  3  2  0
  3  4  1  0
  4  5  2  3
  5  6  1  0
  6  7  2  0
  7  8  1  0
  8  9  2  0
  9 10  1  0
  9 11  1  0
 11 12  1  0
 11 13  2  0
 13 14  1  0
  4 15  1  0
 15 16  2  0
 16 17  1  0
 17 18  1  0
 18 19  1  0
 19 20  1  0
 20 21  1  0
 21 22  1  0
 16 23  1  0
 23 24  2  0
 24 25  1  0
 25 26  1  0
 25  1  1  0
 24  3  1  0
 13  6  1  0
  1 27  1  0
  2 28  1  0
  7 29  1  0
  8 30  1  0
 12 31  1  0
 12 32  1  0
 12 33  1  0
 14 34  1  0
 14 35  1  0
 14 36  1  0
 17 37  1  0
 18 38  1  0
 18 39  1  0
 19 40  1  0
 19 41  1  0
 20 42  1  0
 20 43  1  0
 22 44  1  0
 22 45  1  0
 22 46  1  0
 26 47  1  0
 26 48  1  0
 26 49  1  0
M  END
>  <ScrubInfo>  (5) 
{"isomerGroup": 0, "isomerId": 4, "confId": 0, "nr_conformers:": 1, "nr_isomers:": 9}

$$$$
_i5
     RDKit          3D

 49 51  0  0  0  0  0  0  0  0999 V2000
   -1.0214   -1.2736   -0.7145 N   0  0  0  0  0  0  0  0  0  0  0  0
   -1.3400    0.0016   -0.3224 C   0  0  0  0  0  0  0  0  0  0  0  0
   -2.6514    0.3471   -0.4869 N   0  0  0  0  0  0  0  0  0  0  0  0
   -3.7170   -0.4326    0.1333 C   0  0  0  0  0  0  0  0  0  0  0  0
   -5.0707    0.1720   -0.2228 C   0  0  0  0  0  0  0  0  0  0  0  0
   -6.2082   -0.6050    0.4323 C   0  0  0  0  0  0  0  0  0  0  0  0
   -7.4810   -0.1486   -0.0207 O   0  0  0  0  0  0  0  0  0  0  0  0
   -7.9151    1.0442    0.6195 C   0  0  0  0  0  0  0  0  0  0  0  0
   -0.5068    0.8775    0.1603 N   0  0  0  0  0  0  0  0  0  0  0  0
    0.8315    0.5395    0.3287 C   0  0  0  0  0  0  0  0  0  0  0  0
    1.5801    1.4501    0.8657 N   0  0  0  0  0  0  0  0  0  0  0  0
    2.9438    1.2593    1.1013 C   0  0  0  0  0  0  0  0  0  0  0  0
    3.3338    0.7404    2.3388 C   0  0  0  0  0  0  0  0  0  0  0  0
    4.6795    0.5534    2.6362 C   0  0  0  0  0  0  0  0  0  0  0  0
    5.6542    0.8816    1.6923 C   0  0  0  0  0  0  0  0  0  0  0  0
    7.4650    0.6070    2.2100 Br  0  0  0  0  0  0  0  0  0  0  0  0
    5.2979    1.4060    0.4326 C   0  0  0  0  0  0  0  0  0  0  0  0
    6.3610    1.7606   -0.5782 C   0  0  0  0  0  0  0  0  0  0  0  0
    3.9234    1.6434    0.1576 C   0  0  0  0  0  0  0  0  0  0  0  0
    3.4919    2.2713   -1.1461 C   0  0  0  0  0  0  0  0  0  0  0  0
    1.2286   -0.7859   -0.1195 C   0  0  0  0  0  0  0  0  0  0  0  0
    2.4100   -1.5433   -0.2181 C   0  0  0  0  0  0  0  0  0  0  0  0
    2.2079   -2.7591   -0.7517 N   0  0  0  0  0  0  0  0  0  0  0  0
    0.8794   -2.7841   -0.9996 N   0  0  0  0  0  0  0  0  0  0  0  0
    0.2986   -3.9647   -1.5863 C   0  0  0  0  0  0  0  0  0  0  0  0
    0.2714   -1.6287   -0.6271 C   0  0  0  0  0  0  0  0  0  0  0  0
   -1.7044   -1.7612   -1.2784 H   0  0  0  0  0  0  0  0  0  0  0  0
   -2.7349    1.3307   -0.2290 H   0  0  0  0  0  0  0  0  0  0  0  0
   -3.5800   -0.4348    1.2210 H   0  0  0  0  0  0  0  0  0  0  0  0
   -3.6787   -1.4715   -0.2128 H   0  0  0  0  0  0  0  0  0  0  0  0
   -5.1041    1.2228    0.0882 H   0  0  0  0  0  0  0  0  0  0  0  0
   -5.2095    0.1818   -1.3114 H   0  0  0  0  0  0  0  0  0  0  0  0
   -6.1374   -1.6608    0.1484 H   0  0  0  0  0  0  0  0  0  0  0  0
   -6.1515   -0.5591    1.5263 H   0  0  0  0  0  0  0  0  0  0  0  0
   -7.2576    1.8822    0.3743 H   0  0  0  0  0  0  0  0  0  0  0  0
   -7.9620    0.9044    1.7037 H   0  0  0  0  0  0  0  0  0  0  0  0
   -8.9196    1.2794    0.2570 H   0  0  0  0  0  0  0  0  0  0  0  0
    2.5771    0.4898    3.0780 H   0  0  0  0  0  0  0  0  0  0  0  0
    4.9568    0.1556    3.6089 H   0  0  0  0  0  0  0  0  0  0  0  0
    7.1439    0.9969   -0.6169 H   0  0  0  0  0  0  0  0  0  0  0  0
    5.9668    1.8127   -1.5969 H   0  0  0  0  0  0  0  0  0  0  0  0
    6.8070    2.7284   -0.3286 H   0  0  0  0  0  0  0  0  0  0  0  0
    3.5565    1.5360   -1.9541 H   0  0  0  0  0  0  0  0  0  0  0  0
    4.1205    3.1358   -1.3844 H   0  0  0  0  0  0  0  0  0  0  0  0
    2.4664    2.6507   -1.1116 H   0  0  0  0  0  0  0  0  0  0  0  0
    3.4201   -1.2794    0.0632 H   0  0  0  0  0  0  0  0  0  0  0  0
    0.6627   -4.0510   -2.6130 H   0  0  0  0  0  0  0  0  0  0  0  0
   -0.7905   -3.8860   -1.5813 H   0  0  0  0  0  0  0  0  0  0  0  0
    0.6057   -4.8329   -0.9974 H   0  0  0  0  0  0  0  0  0  0  0  0
  1  2  1  0
  2  3  1  0
  3  4  1  0
  4  5  1  0
  5  6  1  0
  6  7  1  0
  7  8  1  0
  2  9  2  0
  9 10  1  0
 10 11  2  3
 11 12  1  0
 12 13  2  0
 13 14  1  0
 14 15  2  0
 15 16  1  0
 15 17  1  0
 17 18  1  0
 17 19  2  0
 19 20  1  0
 10 21  1  0
 21 22  1  0
 22 23  2  0
 23 24  1  0
 24 25  1  0
 24 26  1  0
 26  1  1  0
 19 12  1  0
 26 21  2  0
  1 27  1  0
  3 28  1  0
  4 29  1  0
  4 30  1  0
  5 31  1  0
  5 32  1  0
  6 33  1  0
  6 34  1  0
  8 35  1  0
  8 36  1  0
  8 37  1  0
 13 38  1  0
 14 39  1  0
 18 40  1  0
 18 41  1  0
 18 42  1  0
 20 43  1  0
 20 44  1  0
 20 45  1  0
 22 46  1  0
 25 47  1  0
 25 48  1  0
 25 49  1  0
M  END
>  <ScrubInfo>  (6) 
{"isomerGroup": 0, "isomerId": 5, "confId": 0, "nr_conformers:": 1, "nr_isomers:": 9}

$$$$
_i6
     RDKit          3D

 49 51  0  0  0  0  0  0  0  0999 V2000
   -0.0221    4.4355    1.9406 N   0  0  0  0  0  0  0  0  0  0  0  0
   -1.0985    3.5778    1.7416 C   0  0  0  0  0  0  0  0  0  0  0  0
   -0.7712    2.4860    1.0367 C   0  0  0  0  0  0  0  0  0  0  0  0
   -1.4135    1.2647    0.5463 C   0  0  0  0  0  0  0  0  0  0  0  0
   -2.7731    1.0772    0.7585 N   0  0  0  0  0  0  0  0  0  0  0  0
   -3.5300    0.0378    0.1659 C   0  0  0  0  0  0  0  0  0  0  0  0
   -4.5281    0.4040   -0.7497 C   0  0  0  0  0  0  0  0  0  0  0  0
   -5.2742   -0.5608   -1.4196 C   0  0  0  0  0  0  0  0  0  0  0  0
   -5.0144   -1.9143   -1.2098 C   0  0  0  0  0  0  0  0  0  0  0  0
   -6.1110   -3.1468   -2.1592 Br  0  0  0  0  0  0  0  0  0  0  0  0
   -3.9989   -2.3263   -0.3251 C   0  0  0  0  0  0  0  0  0  0  0  0
   -3.7148   -3.7948   -0.1178 C   0  0  0  0  0  0  0  0  0  0  0  0
   -3.2798   -1.3358    0.4042 C   0  0  0  0  0  0  0  0  0  0  0  0
   -2.2646   -1.7577    1.4426 C   0  0  0  0  0  0  0  0  0  0  0  0
   -0.6582    0.4085   -0.0803 N   0  0  0  0  0  0  0  0  0  0  0  0
    0.6853    0.6601   -0.2395 C   0  0  0  0  0  0  0  0  0  0  0  0
    1.3367   -0.3135   -0.7718 N   0  0  0  0  0  0  0  0  0  0  0  0
    2.7734   -0.1344   -0.9788 C   0  0  0  0  0  0  0  0  0  0  0  0
    3.3156   -1.4077   -1.6264 C   0  0  0  0  0  0  0  0  0  0  0  0
    4.8019   -1.2999   -1.9556 C   0  0  0  0  0  0  0  0  0  0  0  0
    5.6123   -0.9863   -0.8233 O   0  0  0  0  0  0  0  0  0  0  0  0
    5.7714   -2.0777    0.0730 C   0  0  0  0  0  0  0  0  0  0  0  0
    1.3525    1.8130    0.1085 N   0  0  0  0  0  0  0  0  0  0  0  0
    0.6560    2.7044    0.7210 C   0  0  0  0  0  0  0  0  0  0  0  0
    1.0509    3.9549    1.1973 N   0  0  0  0  0  0  0  0  0  0  0  0
    2.4022    4.1733    1.6794 C   0  0  0  0  0  0  0  0  0  0  0  0
   -0.2494    5.4245    1.8134 H   0  0  0  0  0  0  0  0  0  0  0  0
   -2.0602    3.8459    2.1534 H   0  0  0  0  0  0  0  0  0  0  0  0
   -3.3106    1.9271    0.8716 H   0  0  0  0  0  0  0  0  0  0  0  0
   -4.7246    1.4516   -0.9623 H   0  0  0  0  0  0  0  0  0  0  0  0
   -6.0473   -0.2460   -2.1159 H   0  0  0  0  0  0  0  0  0  0  0  0
   -3.7647   -4.3491   -1.0600 H   0  0  0  0  0  0  0  0  0  0  0  0
   -4.4320   -4.2181    0.5922 H   0  0  0  0  0  0  0  0  0  0  0  0
   -2.7036   -3.9736    0.2587 H   0  0  0  0  0  0  0  0  0  0  0  0
   -2.0158   -0.9503    2.1375 H   0  0  0  0  0  0  0  0  0  0  0  0
   -2.6682   -2.5618    2.0676 H   0  0  0  0  0  0  0  0  0  0  0  0
   -1.3453   -2.1015    0.9592 H   0  0  0  0  0  0  0  0  0  0  0  0
    2.9647    0.7174   -1.6427 H   0  0  0  0  0  0  0  0  0  0  0  0
    3.2809    0.0366   -0.0220 H   0  0  0  0  0  0  0  0  0  0  0  0
    3.1346   -2.2554   -0.9554 H   0  0  0  0  0  0  0  0  0  0  0  0
    2.7613   -1.6188   -2.5492 H   0  0  0  0  0  0  0  0  0  0  0  0
    4.9515   -0.4950   -2.6839 H   0  0  0  0  0  0  0  0  0  0  0  0
    5.1609   -2.2231   -2.4257 H   0  0  0  0  0  0  0  0  0  0  0  0
    4.8248   -2.3236    0.5612 H   0  0  0  0  0  0  0  0  0  0  0  0
    6.4856   -1.7815    0.8463 H   0  0  0  0  0  0  0  0  0  0  0  0
    6.1690   -2.9537   -0.4483 H   0  0  0  0  0  0  0  0  0  0  0  0
    3.1337    3.9015    0.9117 H   0  0  0  0  0  0  0  0  0  0  0  0
    2.5963    3.5763    2.5765 H   0  0  0  0  0  0  0  0  0  0  0  0
    2.5521    5.2297    1.9250 H   0  0  0  0  0  0  0  0  0  0  0  0
  1  2  1  0
  2  3  2  0
  3  4  1  0
  4  5  1  0
  5  6  1  0
  6  7  2  0
  7  8  1  0
  8  9  2  0
  9 10  1  0
  9 11  1  0
 11 12  1  0
 11 13  2  0
 13 14  1  0
  4 15  2  0
 15 16  1  0
 16 17  2  3
 17 18  1  0
 18 19  1  0
 19 20  1  0
 20 21  1  0
 21 22  1  0
 16 23  1  0
 23 24  2  0
 24 25  1  0
 25 26  1  0
 25  1  1  0
 24  3  1  0
 13  6  1  0
  1 27  1  0
  2 28  1  0
  5 29  1  0
  7 30  1  0
  8 31  1  0
 12 32  1  0
 12 33  1  0
 12 34  1  0
 14 35  1  0
 14 36  1  0
 14 37  1  0
 18 38  1  0
 18 39  1  0
 19 40  1  0
 19 41  1  0
 20 42  1  0
 20 43  1  0
 22 44  1  0
 22 45  1  0
 22 46  1  0
 26 47  1  0
 26 48  1  0
 26 49  1  0
M  END
>  <ScrubInfo>  (7) 
{"isomerGroup": 0, "isomerId": 6, "confId": 0, "nr_conformers:": 1, "nr_isomers:": 9}

$$$$
_i7
     RDKit          3D

 49 51  0  0  0  0  0  0  0  0999 V2000
   -1.5250    3.3091   -1.0375 N   0  0  0  0  0  0  0  0  0  0  0  0
   -1.8691    2.0902   -0.4645 C   0  0  0  0  0  0  0  0  0  0  0  0
   -0.8572    1.5011    0.1884 C   0  0  0  0  0  0  0  0  0  0  0  0
   -0.5531    0.2661    0.9331 C   0  0  0  0  0  0  0  0  0  0  0  0
   -1.3324   -0.7324    1.2313 N   0  0  0  0  0  0  0  0  0  0  0  0
   -2.6770   -0.7322    0.8393 C   0  0  0  0  0  0  0  0  0  0  0  0
   -3.6215   -0.2097    1.7264 C   0  0  0  0  0  0  0  0  0  0  0  0
   -4.9723   -0.1969    1.3955 C   0  0  0  0  0  0  0  0  0  0  0  0
   -5.3934   -0.7034    0.1648 C   0  0  0  0  0  0  0  0  0  0  0  0
   -7.2646   -0.6545   -0.1786 Br  0  0  0  0  0  0  0  0  0  0  0  0
   -4.4678   -1.2351   -0.7569 C   0  0  0  0  0  0  0  0  0  0  0  0
   -4.9362   -1.7848   -2.0824 C   0  0  0  0  0  0  0  0  0  0  0  0
   -3.0959   -1.2928   -0.3883 C   0  0  0  0  0  0  0  0  0  0  0  0
   -2.0736   -1.9167   -1.3080 C   0  0  0  0  0  0  0  0  0  0  0  0
    0.7536    0.2041    1.3406 N   0  0  0  0  0  0  0  0  0  0  0  0
    1.7380    1.1340    1.1212 C   0  0  0  0  0  0  0  0  0  0  0  0
    2.9727    1.0413    1.4641 N   0  0  0  0  0  0  0  0  0  0  0  0
    3.4784   -0.1217    2.1781 C   0  0  0  0  0  0  0  0  0  0  0  0
    3.8547   -1.2414    1.2139 C   0  0  0  0  0  0  0  0  0  0  0  0
    4.9488   -0.8285    0.2314 C   0  0  0  0  0  0  0  0  0  0  0  0
    5.2978   -1.9270   -0.6162 O   0  0  0  0  0  0  0  0  0  0  0  0
    6.3020   -2.7619   -0.0558 C   0  0  0  0  0  0  0  0  0  0  0  0
    1.4572    2.3169    0.4706 N   0  0  0  0  0  0  0  0  0  0  0  0
    0.2497    2.5079    0.0426 C   0  0  0  0  0  0  0  0  0  0  0  0
   -0.2420    3.6339   -0.6219 N   0  0  0  0  0  0  0  0  0  0  0  0
    0.6122    4.4119   -1.4993 C   0  0  0  0  0  0  0  0  0  0  0  0
   -2.2360    4.0334   -0.9133 H   0  0  0  0  0  0  0  0  0  0  0  0
   -2.8811    1.7358   -0.5921 H   0  0  0  0  0  0  0  0  0  0  0  0
   -3.2974    0.1818    2.6873 H   0  0  0  0  0  0  0  0  0  0  0  0
   -5.6887    0.2053    2.1074 H   0  0  0  0  0  0  0  0  0  0  0  0
   -4.1317   -1.8330   -2.8215 H   0  0  0  0  0  0  0  0  0  0  0  0
   -5.6965   -1.1401   -2.5341 H   0  0  0  0  0  0  0  0  0  0  0  0
   -5.3443   -2.7912   -1.9472 H   0  0  0  0  0  0  0  0  0  0  0  0
   -1.8543   -1.2380   -2.1381 H   0  0  0  0  0  0  0  0  0  0  0  0
   -1.1333   -2.1460   -0.7977 H   0  0  0  0  0  0  0  0  0  0  0  0
   -2.4393   -2.8715   -1.7000 H   0  0  0  0  0  0  0  0  0  0  0  0
    1.0014   -0.6495    1.8122 H   0  0  0  0  0  0  0  0  0  0  0  0
    4.3662    0.1853    2.7436 H   0  0  0  0  0  0  0  0  0  0  0  0
    2.7656   -0.4840    2.9277 H   0  0  0  0  0  0  0  0  0  0  0  0
    2.9776   -1.5802    0.6494 H   0  0  0  0  0  0  0  0  0  0  0  0
    4.1847   -2.1096    1.7955 H   0  0  0  0  0  0  0  0  0  0  0  0
    5.8352   -0.4409    0.7473 H   0  0  0  0  0  0  0  0  0  0  0  0
    4.5771   -0.0342   -0.4244 H   0  0  0  0  0  0  0  0  0  0  0  0
    5.9666   -3.2042    0.8860 H   0  0  0  0  0  0  0  0  0  0  0  0
    7.2253   -2.1961    0.1015 H   0  0  0  0  0  0  0  0  0  0  0  0
    6.5083   -3.5701   -0.7628 H   0  0  0  0  0  0  0  0  0  0  0  0
    0.9231    3.8187   -2.3657 H   0  0  0  0  0  0  0  0  0  0  0  0
    1.5064    4.7511   -0.9667 H   0  0  0  0  0  0  0  0  0  0  0  0
    0.0813    5.2996   -1.8583 H   0  0  0  0  0  0  0  0  0  0  0  0
  1  2  1  0
  2  3  2  0
  3  4  1  0
  4  5  2  3
  5  6  1  0
  6  7  2  0
  7  8  1  0
  8  9  2  0
  9 10  1  0
  9 11  1  0
 11 12  1  0
 11 13  2  0
 13 14  1  0
  4 15  1  0
 15 16  1  0
 16 17  2  3
 17 18  1  0
 18 19  1  0
 19 20  1  0
 20 21  1  0
 21 22  1  0
 16 23  1  0
 23 24  2  0
 24 25  1  0
 25 26  1  0
 25  1  1  0
 24  3  1  0
 13  6  1  0
  1 27  1  0
  2 28  1  0
  7 29  1  0
  8 30  1  0
 12 31  1  0
 12 32  1  0
 12 33  1  0
 14 34  1  0
 14 35  1  0
 14 36  1  0
 15 37  1  0
 18 38  1  0
 18 39  1  0
 19 40  1  0
 19 41  1  0
 20 42  1  0
 20 43  1  0
 22 44  1  0
 22 45  1  0
 22 46  1  0
 26 47  1  0
 26 48  1  0
 26 49  1  0
M  END
>  <ScrubInfo>  (8) 
{"isomerGroup": 0, "isomerId": 7, "confId": 0, "nr_conformers:": 1, "nr_isomers:": 9}

$$$$
_i8
     RDKit          3D

 49 51  0  0  0  0  0  0  0  0999 V2000
    0.9553   -2.2984    0.0775 N   0  0  0  0  0  0  0  0  0  0  0  0
    1.6846   -1.1622    0.3627 C   0  0  0  0  0  0  0  0  0  0  0  0
    2.9713   -1.2272    0.2821 N   0  0  0  0  0  0  0  0  0  0  0  0
    3.7414   -0.0201    0.5796 C   0  0  0  0  0  0  0  0  0  0  0  0
    5.2174   -0.2903    0.2880 C   0  0  0  0  0  0  0  0  0  0  0  0
    5.5144   -0.3631   -1.2094 C   0  0  0  0  0  0  0  0  0  0  0  0
    5.2529    0.8784   -1.8676 O   0  0  0  0  0  0  0  0  0  0  0  0
    6.3298    1.8005   -1.7704 C   0  0  0  0  0  0  0  0  0  0  0  0
    0.8973   -0.0811    0.7096 N   0  0  0  0  0  0  0  0  0  0  0  0
   -0.4738    0.0486    0.8142 C   0  0  0  0  0  0  0  0  0  0  0  0
   -1.0055    1.1837    1.1591 N   0  0  0  0  0  0  0  0  0  0  0  0
   -2.3889    1.3560    1.2722 C   0  0  0  0  0  0  0  0  0  0  0  0
   -2.9760    1.1598    2.5249 C   0  0  0  0  0  0  0  0  0  0  0  0
   -4.3430    1.3438    2.7030 C   0  0  0  0  0  0  0  0  0  0  0  0
   -5.1420    1.7230    1.6231 C   0  0  0  0  0  0  0  0  0  0  0  0
   -6.9947    1.9696    1.9820 Br  0  0  0  0  0  0  0  0  0  0  0  0
   -4.5849    1.9259    0.3436 C   0  0  0  0  0  0  0  0  0  0  0  0
   -5.4595    2.3360   -0.8162 C   0  0  0  0  0  0  0  0  0  0  0  0
   -3.1789    1.7879    0.1828 C   0  0  0  0  0  0  0  0  0  0  0  0
   -2.5228    2.0624   -1.1491 C   0  0  0  0  0  0  0  0  0  0  0  0
   -1.1467   -1.1991    0.4952 C   0  0  0  0  0  0  0  0  0  0  0  0
   -2.4686   -1.6777    0.4322 C   0  0  0  0  0  0  0  0  0  0  0  0
   -2.5401   -2.9678    0.0708 N   0  0  0  0  0  0  0  0  0  0  0  0
   -1.2492   -3.3236   -0.1101 N   0  0  0  0  0  0  0  0  0  0  0  0
   -0.9402   -4.6734   -0.5096 C   0  0  0  0  0  0  0  0  0  0  0  0
   -0.3926   -2.2974    0.1425 C   0  0  0  0  0  0  0  0  0  0  0  0
    1.5187   -3.0994   -0.1821 H   0  0  0  0  0  0  0  0  0  0  0  0
    3.3916    0.8362   -0.0083 H   0  0  0  0  0  0  0  0  0  0  0  0
    3.6362    0.2243    1.6434 H   0  0  0  0  0  0  0  0  0  0  0  0
    5.5241   -1.2305    0.7616 H   0  0  0  0  0  0  0  0  0  0  0  0
    5.8081    0.5122    0.7426 H   0  0  0  0  0  0  0  0  0  0  0  0
    4.8773   -1.1189   -1.6809 H   0  0  0  0  0  0  0  0  0  0  0  0
    6.5528   -0.6702   -1.3816 H   0  0  0  0  0  0  0  0  0  0  0  0
    7.2344    1.3834   -2.2232 H   0  0  0  0  0  0  0  0  0  0  0  0
    6.5208    2.0746   -0.7296 H   0  0  0  0  0  0  0  0  0  0  0  0
    6.0546    2.7054   -2.3191 H   0  0  0  0  0  0  0  0  0  0  0  0
    1.3787    0.7788    0.9195 H   0  0  0  0  0  0  0  0  0  0  0  0
   -2.3571    0.8666    3.3690 H   0  0  0  0  0  0  0  0  0  0  0  0
   -4.7744    1.1916    3.6891 H   0  0  0  0  0  0  0  0  0  0  0  0
   -5.6698    3.4088   -0.7654 H   0  0  0  0  0  0  0  0  0  0  0  0
   -6.4015    1.7790   -0.8205 H   0  0  0  0  0  0  0  0  0  0  0  0
   -4.9984    2.1182   -1.7835 H   0  0  0  0  0  0  0  0  0  0  0  0
   -2.9034    2.9934   -1.5821 H   0  0  0  0  0  0  0  0  0  0  0  0
   -1.4401    2.1954   -1.0650 H   0  0  0  0  0  0  0  0  0  0  0  0
   -2.7122    1.2325   -1.8370 H   0  0  0  0  0  0  0  0  0  0  0  0
   -3.3963   -1.1598    0.6320 H   0  0  0  0  0  0  0  0  0  0  0  0
   -0.9224   -5.2975    0.3869 H   0  0  0  0  0  0  0  0  0  0  0  0
    0.0314   -4.6954   -1.0081 H   0  0  0  0  0  0  0  0  0  0  0  0
   -1.7101   -5.0234   -1.2024 H   0  0  0  0  0  0  0  0  0  0  0  0
  1  2  1  0
  2  3  2  3
  3  4  1  0
  4  5  1  0
  5  6  1  0
  6  7  1  0
  7  8  1  0
  2  9  1  0
  9 10  1  0
 10 11  2  3
 11 12  1  0
 12 13  2  0
 13 14  1  0
 14 15  2  0
 15 16  1  0
 15 17  1  0
 17 18  1  0
 17 19  2  0
 19 20  1  0
 10 21  1  0
 21 22  1  0
 22 23  2  0
 23 24  1  0
 24 25  1  0
 24 26  1  0
 26  1  1  0
 19 12  1  0
 26 21  2  0
  1 27  1  0
  4 28  1  0
  4 29  1  0
  5 30  1  0
  5 31  1  0
  6 32  1  0
  6 33  1  0
  8 34  1  0
  8 35  1  0
  8 36  1  0
  9 37  1  0
 13 38  1  0
 14 39  1  0
 18 40  1  0
 18 41  1  0
 18 42  1  0
 20 43  1  0
 20 44  1  0
 20 45  1  0
 22 46  1  0
 25 47  1  0
 25 48  1  0
 25 49  1  0
M  END
>  <ScrubInfo>  (9) 
{"isomerGroup": 0, "isomerId": 8, "confId": 0, "nr_conformers:": 1, "nr_isomers:": 9}

$$$$
