_i0
     RDKit          3D

 45 47  0  0  0  0  0  0  0  0999 V2000
    6.1923   -1.1747    0.1439 C   0  0  0  0  0  0  0  0  0  0  0  0
    4.7003   -0.9203    0.3785 C   0  0  0  0  0  0  0  0  0  0  0  0
    4.5162    0.3955    1.1326 C   0  0  0  0  0  0  0  0  0  0  0  0
    3.9490   -0.9659   -0.9685 C   0  0  0  0  0  0  0  0  0  0  0  0
    2.4255   -0.8287   -0.8564 C   0  0  0  0  0  0  0  0  0  0  0  0
    2.0282    0.5620   -0.9897 N   0  0  0  0  0  0  0  0  0  0  0  0
    0.6781    0.8103   -0.7737 C   0  0  0  0  0  0  0  0  0  0  0  0
   -0.2347   -0.1164   -1.1263 N   0  0  0  0  0  0  0  0  0  0  0  0
   -1.5547    0.1090   -0.9142 C   0  0  0  0  0  0  0  0  0  0  0  0
   -2.4395   -0.8976   -1.3250 N   0  0  0  0  0  0  0  0  0  0  0  0
   -3.5512   -1.4417   -0.6535 C   0  0  0  0  0  0  0  0  0  0  0  0
   -3.8095   -1.2289    0.7094 C   0  0  0  0  0  0  0  0  0  0  0  0
   -4.9358   -1.7882    1.3235 C   0  0  0  0  0  0  0  0  0  0  0  0
   -5.8089   -2.5675    0.5761 C   0  0  0  0  0  0  0  0  0  0  0  0
   -6.8851   -3.1034    1.1672 F   0  0  0  0  0  0  0  0  0  0  0  0
   -5.5634   -2.7921   -0.7707 C   0  0  0  0  0  0  0  0  0  0  0  0
   -6.4034   -3.5459   -1.4935 F   0  0  0  0  0  0  0  0  0  0  0  0
   -4.4438   -2.2378   -1.3861 C   0  0  0  0  0  0  0  0  0  0  0  0
   -1.9253    1.3401   -0.3701 C   0  0  0  0  0  0  0  0  0  0  0  0
   -3.1020    2.0454   -0.0446 C   0  0  0  0  0  0  0  0  0  0  0  0
   -2.8575    3.2510    0.4823 N   0  0  0  0  0  0  0  0  0  0  0  0
   -1.5065    3.3290    0.4597 N   0  0  0  0  0  0  0  0  0  0  0  0
   -0.8578    4.5257    0.9332 C   0  0  0  0  0  0  0  0  0  0  0  0
   -0.9031    2.2102   -0.0467 C   0  0  0  0  0  0  0  0  0  0  0  0
    0.4107    1.9951   -0.2100 N   0  0  0  0  0  0  0  0  0  0  0  0
    6.7374   -1.2001    1.0935 H   0  0  0  0  0  0  0  0  0  0  0  0
    6.3502   -2.1368   -0.3549 H   0  0  0  0  0  0  0  0  0  0  0  0
    6.6353   -0.3914   -0.4806 H   0  0  0  0  0  0  0  0  0  0  0  0
    4.3214   -1.7308    1.0143 H   0  0  0  0  0  0  0  0  0  0  0  0
    5.1406    0.4185    2.0326 H   0  0  0  0  0  0  0  0  0  0  0  0
    4.7919    1.2533    0.5101 H   0  0  0  0  0  0  0  0  0  0  0  0
    3.4802    0.5222    1.4607 H   0  0  0  0  0  0  0  0  0  0  0  0
    4.3539   -0.2100   -1.6537 H   0  0  0  0  0  0  0  0  0  0  0  0
    4.1574   -1.9423   -1.4263 H   0  0  0  0  0  0  0  0  0  0  0  0
    2.0734   -1.2594    0.0893 H   0  0  0  0  0  0  0  0  0  0  0  0
    1.9771   -1.4062   -1.6748 H   0  0  0  0  0  0  0  0  0  0  0  0
    2.5305    1.2326   -0.4207 H   0  0  0  0  0  0  0  0  0  0  0  0
   -1.8886   -1.6150   -1.7924 H   0  0  0  0  0  0  0  0  0  0  0  0
   -3.1274   -0.6458    1.3234 H   0  0  0  0  0  0  0  0  0  0  0  0
   -5.1303   -1.6238    2.3789 H   0  0  0  0  0  0  0  0  0  0  0  0
   -4.2841   -2.4222   -2.4445 H   0  0  0  0  0  0  0  0  0  0  0  0
   -4.1297    1.7282   -0.1680 H   0  0  0  0  0  0  0  0  0  0  0  0
   -1.1619    4.6953    1.9692 H   0  0  0  0  0  0  0  0  0  0  0  0
    0.2271    4.4094    0.8814 H   0  0  0  0  0  0  0  0  0  0  0  0
   -1.1726    5.3598    0.3010 H   0  0  0  0  0  0  0  0  0  0  0  0
  1  2  1  0
  2  3  1  0
  2  4  1  0
  4  5  1  0
  5  6  1  0
  6  7  1  0
  7  8  2  0
  8  9  1  0
  9 10  1  0
 10 11  1  0
 11 12  2  0
 12 13  1  0
 13 14  2  0
 14 15  1  0
 14 16  1  0
 16 17  1  0
 16 18  2  0
  9 19  2  0
 19 20  1  0
 20 21  2  0
 21 22  1  0
 22 23  1  0
 22 24  1  0
 24 25  2  0
 25  7  1  0
 18 11  1  0
 24 19  1  0
  1 26  1  0
  1 27  1  0
  1 28  1  0
  2 29  1  0
  3 30  1  0
  3 31  1  0
  3 32  1  0
  4 33  1  0
  4 34  1  0
  5 35  1  0
  5 36  1  0
  6 37  1  0
 10 38  1  0
 12 39  1  0
 13 40  1  0
 18 41  1  0
 20 42  1  0
 23 43  1  0
 23 44  1  0
 23 45  1  0
M  END
>  <ScrubInfo>  (1) 
{"isomerGroup": 0, "isomerId": 0, "confId": 0, "nr_conformers:": 1, "nr_isomers:": 9}

$$$$
_i1
     RDKit          3D

 45 47  0  0  0  0  0  0  0  0999 V2000
   -0.7791   -0.5194    0.3679 N   0  0  0  0  0  0  0  0  0  0  0  0
   -1.9988   -0.7896   -0.2212 C   0  0  0  0  0  0  0  0  0  0  0  0
   -3.2003   -0.3457    0.3018 N   0  0  0  0  0  0  0  0  0  0  0  0
   -3.4658    0.8239    1.0413 C   0  0  0  0  0  0  0  0  0  0  0  0
   -2.5876    1.9180    1.1028 C   0  0  0  0  0  0  0  0  0  0  0  0
   -2.8794    3.0361    1.8931 C   0  0  0  0  0  0  0  0  0  0  0  0
   -4.0510    3.0634    2.6368 C   0  0  0  0  0  0  0  0  0  0  0  0
   -4.3292    4.1345    3.3917 F   0  0  0  0  0  0  0  0  0  0  0  0
   -4.9259    1.9882    2.5949 C   0  0  0  0  0  0  0  0  0  0  0  0
   -6.0561    2.0083    3.3148 F   0  0  0  0  0  0  0  0  0  0  0  0
   -4.6398    0.8738    1.8088 C   0  0  0  0  0  0  0  0  0  0  0  0
   -1.9293   -1.5549   -1.3182 C   0  0  0  0  0  0  0  0  0  0  0  0
   -2.8473   -2.1096   -2.3194 C   0  0  0  0  0  0  0  0  0  0  0  0
   -2.2367   -2.7787   -3.2638 N   0  0  0  0  0  0  0  0  0  0  0  0
   -0.8758   -2.7494   -2.9205 N   0  0  0  0  0  0  0  0  0  0  0  0
    0.1042   -3.1469   -3.9018 C   0  0  0  0  0  0  0  0  0  0  0  0
   -0.5970   -1.9983   -1.7902 C   0  0  0  0  0  0  0  0  0  0  0  0
    0.5314   -1.7129   -1.2352 N   0  0  0  0  0  0  0  0  0  0  0  0
    0.4358   -0.9595   -0.0864 C   0  0  0  0  0  0  0  0  0  0  0  0
    1.4920   -0.6598    0.5944 N   0  0  0  0  0  0  0  0  0  0  0  0
    2.7751   -1.1394    0.0828 C   0  0  0  0  0  0  0  0  0  0  0  0
    3.9060   -0.6242    0.9790 C   0  0  0  0  0  0  0  0  0  0  0  0
    4.2894    0.8638    0.8339 C   0  0  0  0  0  0  0  0  0  0  0  0
    4.7924    1.2031   -0.5697 C   0  0  0  0  0  0  0  0  0  0  0  0
    3.1716    1.8215    1.2436 C   0  0  0  0  0  0  0  0  0  0  0  0
   -0.7818   -0.0796    1.2761 H   0  0  0  0  0  0  0  0  0  0  0  0
   -4.0360   -0.7742   -0.0844 H   0  0  0  0  0  0  0  0  0  0  0  0
   -1.6770    1.9389    0.5080 H   0  0  0  0  0  0  0  0  0  0  0  0
   -2.2008    3.8832    1.9261 H   0  0  0  0  0  0  0  0  0  0  0  0
   -5.3397    0.0435    1.8173 H   0  0  0  0  0  0  0  0  0  0  0  0
   -3.9289   -1.9351   -2.2579 H   0  0  0  0  0  0  0  0  0  0  0  0
    1.0237   -3.4918   -3.4181 H   0  0  0  0  0  0  0  0  0  0  0  0
    0.3496   -2.3052   -4.5569 H   0  0  0  0  0  0  0  0  0  0  0  0
   -0.2755   -3.9672   -4.5194 H   0  0  0  0  0  0  0  0  0  0  0  0
    2.9397   -0.8308   -0.9548 H   0  0  0  0  0  0  0  0  0  0  0  0
    2.7918   -2.2360    0.1186 H   0  0  0  0  0  0  0  0  0  0  0  0
    3.6549   -0.8239    2.0289 H   0  0  0  0  0  0  0  0  0  0  0  0
    4.8017   -1.2209    0.7609 H   0  0  0  0  0  0  0  0  0  0  0  0
    5.1259    1.0345    1.5252 H   0  0  0  0  0  0  0  0  0  0  0  0
    5.2033    2.2184   -0.5938 H   0  0  0  0  0  0  0  0  0  0  0  0
    3.9907    1.1554   -1.3132 H   0  0  0  0  0  0  0  0  0  0  0  0
    5.5873    0.5156   -0.8769 H   0  0  0  0  0  0  0  0  0  0  0  0
    3.5526    2.8470    1.3043 H   0  0  0  0  0  0  0  0  0  0  0  0
    2.7703    1.5585    2.2277 H   0  0  0  0  0  0  0  0  0  0  0  0
    2.3496    1.8236    0.5213 H   0  0  0  0  0  0  0  0  0  0  0  0
  1  2  1  0
  2  3  1  0
  3  4  1  0
  4  5  2  0
  5  6  1  0
  6  7  2  0
  7  8  1  0
  7  9  1  0
  9 10  1  0
  9 11  2  0
  2 12  2  0
 12 13  1  0
 13 14  2  0
 14 15  1  0
 15 16  1  0
 15 17  1  0
 17 18  2  0
 18 19  1  0
 19 20  2  3
 20 21  1  0
 21 22  1  0
 22 23  1  0
 23 24  1  0
 23 25  1  0
 19  1  1  0
 11  4  1  0
 17 12  1  0
  1 26  1  0
  3 27  1  0
  5 28  1  0
  6 29  1  0
 11 30  1  0
 13 31  1  0
 16 32  1  0
 16 33  1  0
 16 34  1  0
 21 35  1  0
 21 36  1  0
 22 37  1  0
 22 38  1  0
 23 39  1  0
 24 40  1  0
 24 41  1  0
 24 42  1  0
 25 43  1  0
 25 44  1  0
 25 45  1  0
M  END
>  <ScrubInfo>  (2) 
{"isomerGroup": 0, "isomerId": 1, "confId": 0, "nr_conformers:": 1, "nr_isomers:": 9}

$$$$
_i2
     RDKit          3D

 45 47  0  0  0  0  0  0  0  0999 V2000
   -0.5257   -1.5847    0.1738 N   0  0  0  0  0  0  0  0  0  0  0  0
    0.6356   -0.8643    0.3239 C   0  0  0  0  0  0  0  0  0  0  0  0
    1.7577   -1.6448    0.2193 N   0  0  0  0  0  0  0  0  0  0  0  0
    3.0908   -1.0872    0.4229 C   0  0  0  0  0  0  0  0  0  0  0  0
    3.5710   -0.3787   -0.8468 C   0  0  0  0  0  0  0  0  0  0  0  0
    4.9588    0.2815   -0.7449 C   0  0  0  0  0  0  0  0  0  0  0  0
    4.9832    1.4215    0.2737 C   0  0  0  0  0  0  0  0  0  0  0  0
    6.0663   -0.7282   -0.4453 C   0  0  0  0  0  0  0  0  0  0  0  0
    0.6637    0.4257    0.5344 N   0  0  0  0  0  0  0  0  0  0  0  0
   -0.5884    0.9578    0.5982 C   0  0  0  0  0  0  0  0  0  0  0  0
   -1.8086    0.3153    0.4549 C   0  0  0  0  0  0  0  0  0  0  0  0
   -2.7593    1.3373    0.6208 C   0  0  0  0  0  0  0  0  0  0  0  0
   -2.2022    2.5326    0.8524 N   0  0  0  0  0  0  0  0  0  0  0  0
   -0.8750    2.2745    0.8240 N   0  0  0  0  0  0  0  0  0  0  0  0
    0.0602    3.3513    1.0313 C   0  0  0  0  0  0  0  0  0  0  0  0
   -1.8172   -1.1098    0.1919 C   0  0  0  0  0  0  0  0  0  0  0  0
   -2.8316   -1.8933   -0.0171 N   0  0  0  0  0  0  0  0  0  0  0  0
   -4.1473   -1.4306   -0.0150 C   0  0  0  0  0  0  0  0  0  0  0  0
   -4.9007   -1.4602    1.1662 C   0  0  0  0  0  0  0  0  0  0  0  0
   -6.2350   -1.0464    1.1660 C   0  0  0  0  0  0  0  0  0  0  0  0
   -6.8167   -0.6209   -0.0230 C   0  0  0  0  0  0  0  0  0  0  0  0
   -8.0974   -0.2274   -0.0240 F   0  0  0  0  0  0  0  0  0  0  0  0
   -6.0797   -0.6108   -1.2016 C   0  0  0  0  0  0  0  0  0  0  0  0
   -6.6478   -0.2104   -2.3475 F   0  0  0  0  0  0  0  0  0  0  0  0
   -4.7499   -1.0191   -1.2066 C   0  0  0  0  0  0  0  0  0  0  0  0
   -0.4456   -2.5413   -0.1288 H   0  0  0  0  0  0  0  0  0  0  0  0
    1.6603   -2.5683    0.6240 H   0  0  0  0  0  0  0  0  0  0  0  0
    3.7672   -1.9160    0.6577 H   0  0  0  0  0  0  0  0  0  0  0  0
    3.0919   -0.4192    1.2904 H   0  0  0  0  0  0  0  0  0  0  0  0
    3.5849   -1.1040   -1.6714 H   0  0  0  0  0  0  0  0  0  0  0  0
    2.8443    0.3887   -1.1420 H   0  0  0  0  0  0  0  0  0  0  0  0
    5.1736    0.7196   -1.7288 H   0  0  0  0  0  0  0  0  0  0  0  0
    4.1818    2.1405    0.0740 H   0  0  0  0  0  0  0  0  0  0  0  0
    4.8673    1.0556    1.2986 H   0  0  0  0  0  0  0  0  0  0  0  0
    5.9352    1.9610    0.2218 H   0  0  0  0  0  0  0  0  0  0  0  0
    7.0497   -0.2510   -0.5180 H   0  0  0  0  0  0  0  0  0  0  0  0
    5.9758   -1.1449    0.5628 H   0  0  0  0  0  0  0  0  0  0  0  0
    6.0438   -1.5556   -1.1621 H   0  0  0  0  0  0  0  0  0  0  0  0
   -3.8380    1.2856    0.5889 H   0  0  0  0  0  0  0  0  0  0  0  0
   -0.0459    3.7027    2.0606 H   0  0  0  0  0  0  0  0  0  0  0  0
   -0.1754    4.1540    0.3277 H   0  0  0  0  0  0  0  0  0  0  0  0
    1.0808    3.0021    0.8598 H   0  0  0  0  0  0  0  0  0  0  0  0
   -4.4430   -1.8106    2.0883 H   0  0  0  0  0  0  0  0  0  0  0  0
   -6.8218   -1.0607    2.0790 H   0  0  0  0  0  0  0  0  0  0  0  0
   -4.1916   -1.0189   -2.1369 H   0  0  0  0  0  0  0  0  0  0  0  0
  1  2  1  0
  2  3  1  0
  3  4  1  0
  4  5  1  0
  5  6  1  0
  6  7  1  0
  6  8  1  0
  2  9  2  0
  9 10  1  0
 10 11  2  0
 11 12  1  0
 12 13  2  0
 13 14  1  0
 14 15  1  0
 11 16  1  0
 16 17  2  3
 17 18  1  0
 18 19  2  0
 19 20  1  0
 20 21  2  0
 21 22  1  0
 21 23  1  0
 23 24  1  0
 23 25  2  0
 16  1  1  0
 25 18  1  0
 14 10  1  0
  1 26  1  0
  3 27  1  0
  4 28  1  0
  4 29  1  0
  5 30  1  0
  5 31  1  0
  6 32  1  0
  7 33  1  0
  7 34  1  0
  7 35  1  0
  8 36  1  0
  8 37  1  0
  8 38  1  0
 12 39  1  0
 15 40  1  0
 15 41  1  0
 15 42  1  0
 19 43  1  0
 20 44  1  0
 25 45  1  0
M  END
>  <ScrubInfo>  (3) 
{"isomerGroup": 0, "isomerId": 2, "confId": 0, "nr_conformers:": 1, "nr_isomers:": 9}

$$$$
_i3
     RDKit          3D

 45 47  0  0  0  0  0  0  0  0999 V2000
    0.4192   -0.5901   -1.1823 N   0  0  0  0  0  0  0  0  0  0  0  0
    0.7290    0.4260   -0.2916 C   0  0  0  0  0  0  0  0  0  0  0  0
    1.8231    1.0966   -0.2469 N   0  0  0  0  0  0  0  0  0  0  0  0
    2.9018    0.8600   -1.1943 C   0  0  0  0  0  0  0  0  0  0  0  0
    3.8153   -0.2713   -0.7174 C   0  0  0  0  0  0  0  0  0  0  0  0
    4.4591   -0.0507    0.6661 C   0  0  0  0  0  0  0  0  0  0  0  0
    5.2775   -1.2844    1.0570 C   0  0  0  0  0  0  0  0  0  0  0  0
    5.3487    1.1923    0.7056 C   0  0  0  0  0  0  0  0  0  0  0  0
   -0.1743    0.8201    0.6868 N   0  0  0  0  0  0  0  0  0  0  0  0
   -1.3352    0.2372    0.7688 C   0  0  0  0  0  0  0  0  0  0  0  0
   -2.2670    0.5665    1.7206 N   0  0  0  0  0  0  0  0  0  0  0  0
   -3.5545    1.0886    1.4256 C   0  0  0  0  0  0  0  0  0  0  0  0
   -4.4895    1.1659    2.4730 C   0  0  0  0  0  0  0  0  0  0  0  0
   -5.7686    1.6868    2.2574 C   0  0  0  0  0  0  0  0  0  0  0  0
   -6.1154    2.1434    0.9924 C   0  0  0  0  0  0  0  0  0  0  0  0
   -7.3408    2.6440    0.7865 F   0  0  0  0  0  0  0  0  0  0  0  0
   -5.1970    2.0863   -0.0473 C   0  0  0  0  0  0  0  0  0  0  0  0
   -5.5299    2.5382   -1.2644 F   0  0  0  0  0  0  0  0  0  0  0  0
   -3.9203    1.5676    0.1605 C   0  0  0  0  0  0  0  0  0  0  0  0
   -1.6776   -0.8532   -0.1122 C   0  0  0  0  0  0  0  0  0  0  0  0
   -2.7398   -1.7509   -0.2923 C   0  0  0  0  0  0  0  0  0  0  0  0
   -2.5174   -2.6048   -1.3040 N   0  0  0  0  0  0  0  0  0  0  0  0
   -1.2915   -2.2526   -1.7641 N   0  0  0  0  0  0  0  0  0  0  0  0
   -0.7219   -2.9821   -2.8682 C   0  0  0  0  0  0  0  0  0  0  0  0
   -0.7654   -1.2139   -1.0638 C   0  0  0  0  0  0  0  0  0  0  0  0
    1.1314   -0.8622   -1.8419 H   0  0  0  0  0  0  0  0  0  0  0  0
    2.5233    0.6412   -2.1997 H   0  0  0  0  0  0  0  0  0  0  0  0
    3.4747    1.7869   -1.3047 H   0  0  0  0  0  0  0  0  0  0  0  0
    3.2402   -1.2055   -0.6915 H   0  0  0  0  0  0  0  0  0  0  0  0
    4.6043   -0.4158   -1.4666 H   0  0  0  0  0  0  0  0  0  0  0  0
    3.6671    0.0704    1.4154 H   0  0  0  0  0  0  0  0  0  0  0  0
    4.6474   -2.1800    1.0743 H   0  0  0  0  0  0  0  0  0  0  0  0
    6.0964   -1.4588    0.3507 H   0  0  0  0  0  0  0  0  0  0  0  0
    5.7110   -1.1637    2.0555 H   0  0  0  0  0  0  0  0  0  0  0  0
    4.7641    2.1055    0.5593 H   0  0  0  0  0  0  0  0  0  0  0  0
    6.1213    1.1525   -0.0697 H   0  0  0  0  0  0  0  0  0  0  0  0
    5.8488    1.2811    1.6761 H   0  0  0  0  0  0  0  0  0  0  0  0
   -1.8279    1.1953    2.3929 H   0  0  0  0  0  0  0  0  0  0  0  0
   -4.2265    0.8053    3.4660 H   0  0  0  0  0  0  0  0  0  0  0  0
   -6.4918    1.7379    3.0653 H   0  0  0  0  0  0  0  0  0  0  0  0
   -3.2293    1.5624   -0.6770 H   0  0  0  0  0  0  0  0  0  0  0  0
   -3.6658   -1.8279    0.2627 H   0  0  0  0  0  0  0  0  0  0  0  0
   -1.4260   -2.9507   -3.7036 H   0  0  0  0  0  0  0  0  0  0  0  0
   -0.5539   -4.0133   -2.5478 H   0  0  0  0  0  0  0  0  0  0  0  0
    0.2242   -2.5262   -3.1672 H   0  0  0  0  0  0  0  0  0  0  0  0
  1  2  1  0
  2  3  2  3
  3  4  1  0
  4  5  1  0
  5  6  1  0
  6  7  1  0
  6  8  1  0
  2  9  1  0
  9 10  2  0
 10 11  1  0
 11 12  1  0
 12 13  2  0
 13 14  1  0
 14 15  2  0
 15 16  1  0
 15 17  1  0
 17 18  1  0
 17 19  2  0
 10 20  1  0
 20 21  1  0
 21 22  2  0
 22 23  1  0
 23 24  1  0
 23 25  1  0
 25  1  1  0
 19 12  1  0
 25 20  2  0
  1 26  1  0
  4 27  1  0
  4 28  1  0
  5 29  1  0
  5 30  1  0
  6 31  1  0
  7 32  1  0
  7 33  1  0
  7 34  1  0
  8 35  1  0
  8 36  1  0
  8 37  1  0
 11 38  1  0
 13 39  1  0
 14 40  1  0
 19 41  1  0
 21 42  1  0
 24 43  1  0
 24 44  1  0
 24 45  1  0
M  END
>  <ScrubInfo>  (4) 
{"isomerGroup": 0, "isomerId": 3, "confId": 0, "nr_conformers:": 1, "nr_isomers:": 9}

$$$$
_i4
     RDKit          3D

 45 47  0  0  0  0  0  0  0  0999 V2000
   -1.9541   -4.5504   -0.3997 N   0  0  0  0  0  0  0  0  0  0  0  0
   -2.7427   -3.4446   -0.0971 C   0  0  0  0  0  0  0  0  0  0  0  0
   -2.0397   -2.3063   -0.0396 C   0  0  0  0  0  0  0  0  0  0  0  0
   -2.3016   -0.9041    0.1849 C   0  0  0  0  0  0  0  0  0  0  0  0
   -3.4863   -0.4564    0.4657 N   0  0  0  0  0  0  0  0  0  0  0  0
   -3.6488    0.9207    0.6637 C   0  0  0  0  0  0  0  0  0  0  0  0
   -3.5216    1.4675    1.9479 C   0  0  0  0  0  0  0  0  0  0  0  0
   -3.7057    2.8360    2.1578 C   0  0  0  0  0  0  0  0  0  0  0  0
   -4.0281    3.6521    1.0796 C   0  0  0  0  0  0  0  0  0  0  0  0
   -4.2039    4.9656    1.2792 F   0  0  0  0  0  0  0  0  0  0  0  0
   -4.1711    3.1121   -0.1935 C   0  0  0  0  0  0  0  0  0  0  0  0
   -4.4881    3.9036   -1.2280 F   0  0  0  0  0  0  0  0  0  0  0  0
   -3.9899    1.7502   -0.4074 C   0  0  0  0  0  0  0  0  0  0  0  0
   -1.2018   -0.0960    0.0679 N   0  0  0  0  0  0  0  0  0  0  0  0
   -0.0140   -0.5665   -0.1877 C   0  0  0  0  0  0  0  0  0  0  0  0
    0.9850    0.3582   -0.2748 N   0  0  0  0  0  0  0  0  0  0  0  0
    2.2288    0.1134   -0.9697 C   0  0  0  0  0  0  0  0  0  0  0  0
    3.1927    1.2879   -0.7819 C   0  0  0  0  0  0  0  0  0  0  0  0
    3.6054    1.5670    0.6777 C   0  0  0  0  0  0  0  0  0  0  0  0
    4.3214    0.3786    1.3206 C   0  0  0  0  0  0  0  0  0  0  0  0
    4.5062    2.8039    0.7315 C   0  0  0  0  0  0  0  0  0  0  0  0
    0.2988   -1.8896   -0.3720 N   0  0  0  0  0  0  0  0  0  0  0  0
   -0.6605   -2.7433   -0.2845 C   0  0  0  0  0  0  0  0  0  0  0  0
   -0.6244   -4.1337   -0.4040 N   0  0  0  0  0  0  0  0  0  0  0  0
    0.3150   -4.7824   -1.2976 C   0  0  0  0  0  0  0  0  0  0  0  0
   -2.1671   -5.3670    0.1781 H   0  0  0  0  0  0  0  0  0  0  0  0
   -3.8045   -3.5698    0.0627 H   0  0  0  0  0  0  0  0  0  0  0  0
   -3.2715    0.8186    2.7833 H   0  0  0  0  0  0  0  0  0  0  0  0
   -3.6007    3.2647    3.1488 H   0  0  0  0  0  0  0  0  0  0  0  0
   -4.1088    1.3397   -1.4038 H   0  0  0  0  0  0  0  0  0  0  0  0
    0.6187    1.3010   -0.3305 H   0  0  0  0  0  0  0  0  0  0  0  0
    2.0238   -0.0060   -2.0401 H   0  0  0  0  0  0  0  0  0  0  0  0
    2.6945   -0.8158   -0.6250 H   0  0  0  0  0  0  0  0  0  0  0  0
    2.7292    2.1925   -1.1974 H   0  0  0  0  0  0  0  0  0  0  0  0
    4.0911    1.0960   -1.3826 H   0  0  0  0  0  0  0  0  0  0  0  0
    2.7079    1.7865    1.2690 H   0  0  0  0  0  0  0  0  0  0  0  0
    3.6542   -0.4832    1.4183 H   0  0  0  0  0  0  0  0  0  0  0  0
    4.6689    0.6332    2.3278 H   0  0  0  0  0  0  0  0  0  0  0  0
    5.1919    0.0728    0.7306 H   0  0  0  0  0  0  0  0  0  0  0  0
    3.9948    3.6764    0.3114 H   0  0  0  0  0  0  0  0  0  0  0  0
    4.7774    3.0434    1.7652 H   0  0  0  0  0  0  0  0  0  0  0  0
    5.4312    2.6474    0.1661 H   0  0  0  0  0  0  0  0  0  0  0  0
    0.0991   -4.5282   -2.3406 H   0  0  0  0  0  0  0  0  0  0  0  0
    0.2583   -5.8699   -1.1855 H   0  0  0  0  0  0  0  0  0  0  0  0
    1.3404   -4.4757   -1.0673 H   0  0  0  0  0  0  0  0  0  0  0  0
  1  2  1  0
  2  3  2  0
  3  4  1  0
  4  5  2  3
  5  6  1  0
  6  7  2  0
  7  8  1  0
  8  9  2  0
  9 10  1  0
  9 11  1  0
 11 12  1  0
 11 13  2  0
  4 14  1  0
 14 15  2  0
 15 16  1  0
 16 17  1  0
 17 18  1  0
 18 19  1  0
 19 20  1  0
 19 21  1  0
 15 22  1  0
 22 23  2  0
 23 24  1  0
 24 25  1  0
 24  1  1  0
 23  3  1  0
 13  6  1  0
  1 26  1  0
  2 27  1  0
  7 28  1  0
  8 29  1  0
 13 30  1  0
 16 31  1  0
 17 32  1  0
 17 33  1  0
 18 34  1  0
 18 35  1  0
 19 36  1  0
 20 37  1  0
 20 38  1  0
 20 39  1  0
 21 40  1  0
 21 41  1  0
 21 42  1  0
 25 43  1  0
 25 44  1  0
 25 45  1  0
M  END
>  <ScrubInfo>  (5) 
{"isomerGroup": 0, "isomerId": 4, "confId": 0, "nr_conformers:": 1, "nr_isomers:": 9}

$$$$
_i5
     RDKit          3D

 45 47  0  0  0  0  0  0  0  0999 V2000
   -0.0193   -1.6372   -1.0167 N   0  0  0  0  0  0  0  0  0  0  0  0
   -0.2788   -0.3587   -0.5783 C   0  0  0  0  0  0  0  0  0  0  0  0
    0.8006    0.4780   -0.5518 N   0  0  0  0  0  0  0  0  0  0  0  0
    2.0300    0.1186    0.1465 C   0  0  0  0  0  0  0  0  0  0  0  0
    3.0455    1.2554    0.0092 C   0  0  0  0  0  0  0  0  0  0  0  0
    4.3347    1.0280    0.8195 C   0  0  0  0  0  0  0  0  0  0  0  0
    5.1182   -0.1949    0.3404 C   0  0  0  0  0  0  0  0  0  0  0  0
    5.2226    2.2725    0.7419 C   0  0  0  0  0  0  0  0  0  0  0  0
   -1.4457    0.1006   -0.2153 N   0  0  0  0  0  0  0  0  0  0  0  0
   -2.5451   -0.7484   -0.2525 C   0  0  0  0  0  0  0  0  0  0  0  0
   -3.7403   -0.4066    0.1114 N   0  0  0  0  0  0  0  0  0  0  0  0
   -3.9422    0.8993    0.5740 C   0  0  0  0  0  0  0  0  0  0  0  0
   -3.9632    1.1546    1.9517 C   0  0  0  0  0  0  0  0  0  0  0  0
   -4.1888    2.4471    2.4306 C   0  0  0  0  0  0  0  0  0  0  0  0
   -4.4038    3.4800    1.5256 C   0  0  0  0  0  0  0  0  0  0  0  0
   -4.6182    4.7210    1.9841 F   0  0  0  0  0  0  0  0  0  0  0  0
   -4.4008    3.2294    0.1581 C   0  0  0  0  0  0  0  0  0  0  0  0
   -4.6152    4.2291   -0.7091 F   0  0  0  0  0  0  0  0  0  0  0  0
   -4.1786    1.9442   -0.3236 C   0  0  0  0  0  0  0  0  0  0  0  0
   -2.3257   -2.0881   -0.7332 C   0  0  0  0  0  0  0  0  0  0  0  0
   -3.1205   -3.2181   -0.9656 C   0  0  0  0  0  0  0  0  0  0  0  0
   -2.4093   -4.2469   -1.4568 N   0  0  0  0  0  0  0  0  0  0  0  0
   -1.1461   -3.7584   -1.5385 N   0  0  0  0  0  0  0  0  0  0  0  0
   -0.0964   -4.6103   -2.0354 C   0  0  0  0  0  0  0  0  0  0  0  0
   -1.0673   -2.4744   -1.1025 C   0  0  0  0  0  0  0  0  0  0  0  0
    0.8691   -1.7974   -1.4715 H   0  0  0  0  0  0  0  0  0  0  0  0
    0.4714    1.3951   -0.2517 H   0  0  0  0  0  0  0  0  0  0  0  0
    1.8081   -0.0616    1.2046 H   0  0  0  0  0  0  0  0  0  0  0  0
    2.4424   -0.8020   -0.2770 H   0  0  0  0  0  0  0  0  0  0  0  0
    3.2899    1.3993   -1.0515 H   0  0  0  0  0  0  0  0  0  0  0  0
    2.5778    2.1910    0.3442 H   0  0  0  0  0  0  0  0  0  0  0  0
    4.0658    0.8728    1.8720 H   0  0  0  0  0  0  0  0  0  0  0  0
    5.3527   -0.1230   -0.7270 H   0  0  0  0  0  0  0  0  0  0  0  0
    4.5556   -1.1187    0.5053 H   0  0  0  0  0  0  0  0  0  0  0  0
    6.0623   -0.2899    0.8878 H   0  0  0  0  0  0  0  0  0  0  0  0
    6.1277    2.1435    1.3449 H   0  0  0  0  0  0  0  0  0  0  0  0
    5.5287    2.4789   -0.2894 H   0  0  0  0  0  0  0  0  0  0  0  0
    4.6933    3.1529    1.1215 H   0  0  0  0  0  0  0  0  0  0  0  0
   -3.7999    0.3373    2.6495 H   0  0  0  0  0  0  0  0  0  0  0  0
   -4.2004    2.6503    3.4962 H   0  0  0  0  0  0  0  0  0  0  0  0
   -4.1833    1.7605   -1.3924 H   0  0  0  0  0  0  0  0  0  0  0  0
   -4.1844   -3.3376   -0.8051 H   0  0  0  0  0  0  0  0  0  0  0  0
   -0.3155   -4.8523   -3.0784 H   0  0  0  0  0  0  0  0  0  0  0  0
   -0.0717   -5.5192   -1.4288 H   0  0  0  0  0  0  0  0  0  0  0  0
    0.8643   -4.0957   -1.9668 H   0  0  0  0  0  0  0  0  0  0  0  0
  1  2  1  0
  2  3  1  0
  3  4  1  0
  4  5  1  0
  5  6  1  0
  6  7  1  0
  6  8  1  0
  2  9  2  0
  9 10  1  0
 10 11  2  3
 11 12  1  0
 12 13  2  0
 13 14  1  0
 14 15  2  0
 15 16  1  0
 15 17  1  0
 17 18  1  0
 17 19  2  0
 10 20  1  0
 20 21  1  0
 21 22  2  0
 22 23  1  0
 23 24  1  0
 23 25  1  0
 25  1  1  0
 19 12  1  0
 25 20  2  0
  1 26  1  0
  3 27  1  0
  4 28  1  0
  4 29  1  0
  5 30  1  0
  5 31  1  0
  6 32  1  0
  7 33  1  0
  7 34  1  0
  7 35  1  0
  8 36  1  0
  8 37  1  0
  8 38  1  0
 13 39  1  0
 14 40  1  0
 19 41  1  0
 21 42  1  0
 24 43  1  0
 24 44  1  0
 24 45  1  0
M  END
>  <ScrubInfo>  (6) 
{"isomerGroup": 0, "isomerId": 5, "confId": 0, "nr_conformers:": 1, "nr_isomers:": 9}

$$$$
_i6
     RDKit          3D

 45 47  0  0  0  0  0  0  0  0999 V2000
   -2.0578   -3.0518    1.6750 N   0  0  0  0  0  0  0  0  0  0  0  0
   -2.2908   -1.6938    1.4900 C   0  0  0  0  0  0  0  0  0  0  0  0
   -1.3602   -1.1052    0.7269 C   0  0  0  0  0  0  0  0  0  0  0  0
   -1.0349    0.2236    0.2139 C   0  0  0  0  0  0  0  0  0  0  0  0
   -1.8183    1.3392    0.4226 N   0  0  0  0  0  0  0  0  0  0  0  0
   -3.2058    1.4029    0.1570 C   0  0  0  0  0  0  0  0  0  0  0  0
   -3.8485    0.5499   -0.7553 C   0  0  0  0  0  0  0  0  0  0  0  0
   -5.2181    0.6769   -1.0102 C   0  0  0  0  0  0  0  0  0  0  0  0
   -5.9473    1.6677   -0.3649 C   0  0  0  0  0  0  0  0  0  0  0  0
   -7.2587    1.7861   -0.6109 F   0  0  0  0  0  0  0  0  0  0  0  0
   -5.3189    2.5321    0.5206 C   0  0  0  0  0  0  0  0  0  0  0  0
   -6.0196    3.4937    1.1369 F   0  0  0  0  0  0  0  0  0  0  0  0
   -3.9555    2.4117    0.7774 C   0  0  0  0  0  0  0  0  0  0  0  0
    0.0794    0.3766   -0.4471 N   0  0  0  0  0  0  0  0  0  0  0  0
    0.8897   -0.7226   -0.6549 C   0  0  0  0  0  0  0  0  0  0  0  0
    2.0266   -0.5726   -1.2336 N   0  0  0  0  0  0  0  0  0  0  0  0
    2.4503    0.7512   -1.6769 C   0  0  0  0  0  0  0  0  0  0  0  0
    3.1643    1.5125   -0.5565 C   0  0  0  0  0  0  0  0  0  0  0  0
    4.6321    1.0983   -0.3254 C   0  0  0  0  0  0  0  0  0  0  0  0
    4.7838   -0.3463    0.1505 C   0  0  0  0  0  0  0  0  0  0  0  0
    5.2760    2.0426    0.6946 C   0  0  0  0  0  0  0  0  0  0  0  0
    0.6189   -2.0228   -0.2999 N   0  0  0  0  0  0  0  0  0  0  0  0
   -0.4638   -2.2226    0.3657 C   0  0  0  0  0  0  0  0  0  0  0  0
   -0.9845   -3.4159    0.8676 N   0  0  0  0  0  0  0  0  0  0  0  0
   -0.1027   -4.4838    1.3016 C   0  0  0  0  0  0  0  0  0  0  0  0
   -2.8977   -3.6299    1.5985 H   0  0  0  0  0  0  0  0  0  0  0  0
   -3.1573   -1.2401    1.9494 H   0  0  0  0  0  0  0  0  0  0  0  0
   -1.3583    2.1646    0.0408 H   0  0  0  0  0  0  0  0  0  0  0  0
   -3.2917   -0.2123   -1.2967 H   0  0  0  0  0  0  0  0  0  0  0  0
   -5.7149    0.0165   -1.7147 H   0  0  0  0  0  0  0  0  0  0  0  0
   -3.4908    3.1020    1.4759 H   0  0  0  0  0  0  0  0  0  0  0  0
    1.6069    1.3429   -2.0533 H   0  0  0  0  0  0  0  0  0  0  0  0
    3.1233    0.6313   -2.5338 H   0  0  0  0  0  0  0  0  0  0  0  0
    2.6022    1.4292    0.3819 H   0  0  0  0  0  0  0  0  0  0  0  0
    3.1552    2.5759   -0.8300 H   0  0  0  0  0  0  0  0  0  0  0  0
    5.1796    1.2062   -1.2704 H   0  0  0  0  0  0  0  0  0  0  0  0
    4.1640   -0.5426    1.0318 H   0  0  0  0  0  0  0  0  0  0  0  0
    4.5043   -1.0548   -0.6345 H   0  0  0  0  0  0  0  0  0  0  0  0
    5.8248   -0.5613    0.4159 H   0  0  0  0  0  0  0  0  0  0  0  0
    5.2202    3.0819    0.3536 H   0  0  0  0  0  0  0  0  0  0  0  0
    4.7766    1.9768    1.6673 H   0  0  0  0  0  0  0  0  0  0  0  0
    6.3338    1.7979    0.8391 H   0  0  0  0  0  0  0  0  0  0  0  0
    0.5781   -4.7731    0.4947 H   0  0  0  0  0  0  0  0  0  0  0  0
   -0.6852   -5.3679    1.5805 H   0  0  0  0  0  0  0  0  0  0  0  0
    0.4909   -4.1708    2.1669 H   0  0  0  0  0  0  0  0  0  0  0  0
  1  2  1  0
  2  3  2  0
  3  4  1  0
  4  5  1  0
  5  6  1  0
  6  7  2  0
  7  8  1  0
  8  9  2  0
  9 10  1  0
  9 11  1  0
 11 12  1  0
 11 13  2  0
  4 14  2  0
 14 15  1  0
 15 16  2  3
 16 17  1  0
 17 18  1  0
 18 19  1  0
 19 20  1  0
 19 21  1  0
 15 22  1  0
 22 23  2  0
 23 24  1  0
 24 25  1  0
 24  1  1  0
 23  3  1  0
 13  6  1  0
  1 26  1  0
  2 27  1  0
  5 28  1  0
  7 29  1  0
  8 30  1  0
 13 31  1  0
 17 32  1  0
 17 33  1  0
 18 34  1  0
 18 35  1  0
 19 36  1  0
 20 37  1  0
 20 38  1  0
 20 39  1  0
 21 40  1  0
 21 41  1  0
 21 42  1  0
 25 43  1  0
 25 44  1  0
 25 45  1  0
M  END
>  <ScrubInfo>  (7) 
{"isomerGroup": 0, "isomerId": 6, "confId": 0, "nr_conformers:": 1, "nr_isomers:": 9}

$$$$
_i7
     RDKit          3D

 45 47  0  0  0  0  0  0  0  0999 V2000
   -2.6433   -2.4924    1.3909 N   0  0  0  0  0  0  0  0  0  0  0  0
   -2.7837   -1.2558    0.7716 C   0  0  0  0  0  0  0  0  0  0  0  0
   -1.6562   -0.8141    0.1959 C   0  0  0  0  0  0  0  0  0  0  0  0
   -1.1386    0.3533   -0.5404 C   0  0  0  0  0  0  0  0  0  0  0  0
   -1.7596    1.4324   -0.9188 N   0  0  0  0  0  0  0  0  0  0  0  0
   -3.1167    1.6173   -0.6487 C   0  0  0  0  0  0  0  0  0  0  0  0
   -3.5155    2.2888    0.5147 C   0  0  0  0  0  0  0  0  0  0  0  0
   -4.8698    2.5099    0.7759 C   0  0  0  0  0  0  0  0  0  0  0  0
   -5.8206    2.0705   -0.1383 C   0  0  0  0  0  0  0  0  0  0  0  0
   -7.1199    2.2778    0.1140 F   0  0  0  0  0  0  0  0  0  0  0  0
   -5.4281    1.4233   -1.3044 C   0  0  0  0  0  0  0  0  0  0  0  0
   -6.3482    1.0047   -2.1842 F   0  0  0  0  0  0  0  0  0  0  0  0
   -4.0810    1.2001   -1.5693 C   0  0  0  0  0  0  0  0  0  0  0  0
    0.1938    0.2403   -0.8389 N   0  0  0  0  0  0  0  0  0  0  0  0
    1.0315   -0.8004   -0.5264 C   0  0  0  0  0  0  0  0  0  0  0  0
    2.2897   -0.8737   -0.7717 N   0  0  0  0  0  0  0  0  0  0  0  0
    2.9984    0.1934   -1.4611 C   0  0  0  0  0  0  0  0  0  0  0  0
    3.4322    1.3007   -0.4970 C   0  0  0  0  0  0  0  0  0  0  0  0
    4.5500    0.9604    0.5109 C   0  0  0  0  0  0  0  0  0  0  0  0
    5.8423    0.5139   -0.1726 C   0  0  0  0  0  0  0  0  0  0  0  0
    4.1241   -0.0598    1.5658 C   0  0  0  0  0  0  0  0  0  0  0  0
    0.5515   -1.9198    0.1204 N   0  0  0  0  0  0  0  0  0  0  0  0
   -0.7006   -1.9474    0.4491 C   0  0  0  0  0  0  0  0  0  0  0  0
   -1.3828   -2.9847    1.0880 N   0  0  0  0  0  0  0  0  0  0  0  0
   -0.7078   -3.8475    2.0390 C   0  0  0  0  0  0  0  0  0  0  0  0
   -3.4268   -3.1273    1.2198 H   0  0  0  0  0  0  0  0  0  0  0  0
   -3.7506   -0.7775    0.8108 H   0  0  0  0  0  0  0  0  0  0  0  0
   -2.7635    2.6437    1.2157 H   0  0  0  0  0  0  0  0  0  0  0  0
   -5.1850    3.0258    1.6774 H   0  0  0  0  0  0  0  0  0  0  0  0
   -3.7884    0.7075   -2.4906 H   0  0  0  0  0  0  0  0  0  0  0  0
    0.5870    1.0373   -1.3108 H   0  0  0  0  0  0  0  0  0  0  0  0
    2.3882    0.6201   -2.2661 H   0  0  0  0  0  0  0  0  0  0  0  0
    3.8685   -0.2368   -1.9673 H   0  0  0  0  0  0  0  0  0  0  0  0
    2.5608    1.6706    0.0576 H   0  0  0  0  0  0  0  0  0  0  0  0
    3.7819    2.1455   -1.1053 H   0  0  0  0  0  0  0  0  0  0  0  0
    4.7743    1.8936    1.0455 H   0  0  0  0  0  0  0  0  0  0  0  0
    5.7343   -0.4662   -0.6478 H   0  0  0  0  0  0  0  0  0  0  0  0
    6.6551    0.4375    0.5579 H   0  0  0  0  0  0  0  0  0  0  0  0
    6.1491    1.2350   -0.9373 H   0  0  0  0  0  0  0  0  0  0  0  0
    3.1682    0.2203    2.0203 H   0  0  0  0  0  0  0  0  0  0  0  0
    4.8697   -0.1111    2.3670 H   0  0  0  0  0  0  0  0  0  0  0  0
    4.0292   -1.0666    1.1483 H   0  0  0  0  0  0  0  0  0  0  0  0
    0.1739   -4.3094    1.5834 H   0  0  0  0  0  0  0  0  0  0  0  0
   -1.3755   -4.6521    2.3636 H   0  0  0  0  0  0  0  0  0  0  0  0
   -0.3914   -3.2811    2.9212 H   0  0  0  0  0  0  0  0  0  0  0  0
  1  2  1  0
  2  3  2  0
  3  4  1  0
  4  5  2  3
  5  6  1  0
  6  7  2  0
  7  8  1  0
  8  9  2  0
  9 10  1  0
  9 11  1  0
 11 12  1  0
 11 13  2  0
  4 14  1  0
 14 15  1  0
 15 16  2  3
 16 17  1  0
 17 18  1  0
 18 19  1  0
 19 20  1  0
 19 21  1  0
 15 22  1  0
 22 23  2  0
 23 24  1  0
 24 25  1  0
 24  1  1  0
 23  3  1  0
 13  6  1  0
  1 26  1  0
  2 27  1  0
  7 28  1  0
  8 29  1  0
 13 30  1  0
 14 31  1  0
 17 32  1  0
 17 33  1  0
 18 34  1  0
 18 35  1  0
 19 36  1  0
 20 37  1  0
 20 38  1  0
 20 39  1  0
 21 40  1  0
 21 41  1  0
 21 42  1  0
 25 43  1  0
 25 44  1  0
 25 45  1  0
M  END
>  <ScrubInfo>  (8) 
{"isomerGroup": 0, "isomerId": 7, "confId": 0, "nr_conformers:": 1, "nr_isomers:": 9}

$$$$
_i8
     RDKit          3D

 45 47  0  0  0  0  0  0  0  0999 V2000
    0.4249   -0.6539   -1.2313 N   0  0  0  0  0  0  0  0  0  0  0  0
    0.8588    0.5860   -0.7941 C   0  0  0  0  0  0  0  0  0  0  0  0
    2.0346    1.1027   -0.8975 N   0  0  0  0  0  0  0  0  0  0  0  0
    3.1093    0.3736   -1.5618 C   0  0  0  0  0  0  0  0  0  0  0  0
    3.8184   -0.5692   -0.5873 C   0  0  0  0  0  0  0  0  0  0  0  0
    4.4247    0.1128    0.6555 C   0  0  0  0  0  0  0  0  0  0  0  0
    5.0284   -0.9461    1.5822 C   0  0  0  0  0  0  0  0  0  0  0  0
    5.4896    1.1485    0.2929 C   0  0  0  0  0  0  0  0  0  0  0  0
   -0.1274    1.3178   -0.1697 N   0  0  0  0  0  0  0  0  0  0  0  0
   -1.4507    1.0413    0.0960 C   0  0  0  0  0  0  0  0  0  0  0  0
   -2.2073    1.9016    0.7092 N   0  0  0  0  0  0  0  0  0  0  0  0
   -3.5500    1.6585    0.9944 C   0  0  0  0  0  0  0  0  0  0  0  0
   -3.9156    1.0853    2.2199 C   0  0  0  0  0  0  0  0  0  0  0  0
   -5.2619    0.8847    2.5346 C   0  0  0  0  0  0  0  0  0  0  0  0
   -6.2397    1.2765    1.6271 C   0  0  0  0  0  0  0  0  0  0  0  0
   -7.5309    1.0856    1.9293 F   0  0  0  0  0  0  0  0  0  0  0  0
   -5.8825    1.8667    0.4202 C   0  0  0  0  0  0  0  0  0  0  0  0
   -6.8289    2.2515   -0.4472 F   0  0  0  0  0  0  0  0  0  0  0  0
   -4.5434    2.0667    0.1008 C   0  0  0  0  0  0  0  0  0  0  0  0
   -1.8101   -0.2790   -0.3938 C   0  0  0  0  0  0  0  0  0  0  0  0
   -2.9526   -1.0998   -0.4146 C   0  0  0  0  0  0  0  0  0  0  0  0
   -2.7348   -2.2829   -1.0072 N   0  0  0  0  0  0  0  0  0  0  0  0
   -1.4399   -2.2213   -1.3846 N   0  0  0  0  0  0  0  0  0  0  0  0
   -0.8503   -3.3460   -2.0667 C   0  0  0  0  0  0  0  0  0  0  0  0
   -0.8544   -1.0451   -1.0281 C   0  0  0  0  0  0  0  0  0  0  0  0
    1.1085   -1.2492   -1.6777 H   0  0  0  0  0  0  0  0  0  0  0  0
    2.7454   -0.1862   -2.4314 H   0  0  0  0  0  0  0  0  0  0  0  0
    3.8190    1.1011   -1.9697 H   0  0  0  0  0  0  0  0  0  0  0  0
    3.1077   -1.3363   -0.2547 H   0  0  0  0  0  0  0  0  0  0  0  0
    4.6095   -1.0982   -1.1340 H   0  0  0  0  0  0  0  0  0  0  0  0
    3.6270    0.6210    1.2111 H   0  0  0  0  0  0  0  0  0  0  0  0
    4.2698   -1.6751    1.8863 H   0  0  0  0  0  0  0  0  0  0  0  0
    5.8426   -1.4885    1.0896 H   0  0  0  0  0  0  0  0  0  0  0  0
    5.4294   -0.4851    2.4911 H   0  0  0  0  0  0  0  0  0  0  0  0
    5.0571    1.9876   -0.2604 H   0  0  0  0  0  0  0  0  0  0  0  0
    6.2816    0.7058   -0.3204 H   0  0  0  0  0  0  0  0  0  0  0  0
    5.9527    1.5615    1.1956 H   0  0  0  0  0  0  0  0  0  0  0  0
    0.1816    2.2241    0.1516 H   0  0  0  0  0  0  0  0  0  0  0  0
   -3.1447    0.7994    2.9316 H   0  0  0  0  0  0  0  0  0  0  0  0
   -5.5509    0.4360    3.4796 H   0  0  0  0  0  0  0  0  0  0  0  0
   -4.2799    2.5431   -0.8376 H   0  0  0  0  0  0  0  0  0  0  0  0
   -3.9433   -0.9096   -0.0268 H   0  0  0  0  0  0  0  0  0  0  0  0
   -1.6184   -3.8454   -2.6632 H   0  0  0  0  0  0  0  0  0  0  0  0
   -0.4502   -4.0284   -1.3131 H   0  0  0  0  0  0  0  0  0  0  0  0
   -0.0530   -2.9943   -2.7255 H   0  0  0  0  0  0  0  0  0  0  0  0
  1  2  1  0
  2  3  2  3
  3  4  1  0
  4  5  1  0
  5  6  1  0
  6  7  1  0
  6  8  1  0
  2  9  1  0
  9 10  1  0
 10 11  2  3
 11 12  1  0
 12 13  2  0
 13 14  1  0
 14 15  2  0
 15 16  1  0
 15 17  1  0
 17 18  1  0
 17 19  2  0
 10 20  1  0
 20 21  1  0
 21 22  2  0
 22 23  1  0
 23 24  1  0
 23 25  1  0
 25  1  1  0
 19 12  1  0
 25 20  2  0
  1 26  1  0
  4 27  1  0
  4 28  1  0
  5 29  1  0
  5 30  1  0
  6 31  1  0
  7 32  1  0
  7 33  1  0
  7 34  1  0
  8 35  1  0
  8 36  1  0
  8 37  1  0
  9 38  1  0
 13 39  1  0
 14 40  1  0
 19 41  1  0
 21 42  1  0
 24 43  1  0
 24 44  1  0
 24 45  1  0
M  END
>  <ScrubInfo>  (9) 
{"isomerGroup": 0, "isomerId": 8, "confId": 0, "nr_conformers:": 1, "nr_isomers:": 9}

$$$$
