REMARK SMILES CCCCNc1nc(Nc2ccccc2)c2cnn(C)c2n1
REMARK SMILES IDX 4 1 3 2 2 3 1 4 5 5 6 7 7 8 22 9 8 10 21 11 16 12 19 13
REMARK SMILES IDX 17 14 18 15 20 16 9 17 10 19 11 20 15 21 12 22 14 23 13 24
REMARK H PARENT 5 6 9 18
ROOT
ATOM      1  C   UNL     1       2.533  -1.466   0.204  1.00  0.00     0.116 C 
ENDROOT
BRANCH   1   2
ATOM      2  C   UNL     1       3.985  -1.913   0.395  1.00  0.00     0.021 C 
BRANCH   2   3
ATOM      3  C   UNL     1       4.997  -0.928  -0.196  1.00  0.00    -0.002 C 
ATOM      4  C   UNL     1       6.421  -1.443  -0.054  1.00  0.00     0.004 C 
ENDBRANCH   2   3
ENDBRANCH   1   2
BRANCH   1   5
ATOM      5  N   UNL     1       2.236  -0.332   1.061  1.00  0.00    -0.354 N 
ATOM      6  H   UNL     1       2.857   0.464   0.973  1.00  0.00     0.163 HD
BRANCH   5   7
ATOM      7  C   UNL     1       0.952   0.184   0.916  1.00  0.00     0.226 A 
ATOM      8  N   UNL     1      -0.073  -0.646   0.641  1.00  0.00    -0.195 NA
ATOM      9  N   UNL     1       0.863   1.512   1.067  1.00  0.00    -0.193 NA
ATOM     10  C   UNL     1      -1.329  -0.155   0.488  1.00  0.00     0.147 A 
ATOM     11  C   UNL     1      -0.393   1.968   0.947  1.00  0.00     0.165 A 
ATOM     12  C   UNL     1      -1.517   1.216   0.669  1.00  0.00     0.082 A 
ATOM     13  N   UNL     1      -0.827   3.258   1.082  1.00  0.00    -0.250 N 
ATOM     14  C   UNL     1      -2.575   2.148   0.683  1.00  0.00     0.149 A 
ATOM     15  N   UNL     1      -2.163   3.400   0.917  1.00  0.00    -0.179 NA
ATOM     16  C   UNL     1      -0.024   4.416   1.384  1.00  0.00     0.176 C 
BRANCH  10  17
ATOM     17  N   UNL     1      -2.345  -1.084   0.223  1.00  0.00    -0.339 N 
ATOM     18  H   UNL     1      -1.921  -2.009   0.223  1.00  0.00     0.168 HD
BRANCH  17  19
ATOM     19  C   UNL     1      -3.397  -1.003  -0.709  1.00  0.00     0.040 A 
ATOM     20  C   UNL     1      -4.474  -1.890  -0.574  1.00  0.00     0.026 A 
ATOM     21  C   UNL     1      -3.411  -0.101  -1.780  1.00  0.00     0.026 A 
ATOM     22  C   UNL     1      -5.546  -1.864  -1.469  1.00  0.00     0.002 A 
ATOM     23  C   UNL     1      -4.482  -0.073  -2.678  1.00  0.00     0.002 A 
ATOM     24  C   UNL     1      -5.550  -0.953  -2.521  1.00  0.00     0.000 A 
ENDBRANCH  17  19
ENDBRANCH  10  17
ENDBRANCH   5   7
ENDBRANCH   1   5
TORSDOF 6
