_i0
     RDKit          3D

 42 44  0  0  0  0  0  0  0  0999 V2000
    6.4208   -1.4429   -0.0538 C   0  0  0  0  0  0  0  0  0  0  0  0
    4.9967   -0.9276   -0.1962 C   0  0  0  0  0  0  0  0  0  0  0  0
    3.9854   -1.9131    0.3951 C   0  0  0  0  0  0  0  0  0  0  0  0
    2.5332   -1.4657    0.2039 C   0  0  0  0  0  0  0  0  0  0  0  0
    2.2355   -0.3316    1.0613 N   0  0  0  0  0  0  0  0  0  0  0  0
    0.9516    0.1843    0.9157 C   0  0  0  0  0  0  0  0  0  0  0  0
   -0.0734   -0.6461    0.6412 N   0  0  0  0  0  0  0  0  0  0  0  0
   -1.3286   -0.1552    0.4881 C   0  0  0  0  0  0  0  0  0  0  0  0
   -2.3445   -1.0838    0.2233 N   0  0  0  0  0  0  0  0  0  0  0  0
   -3.3974   -1.0029   -0.7094 C   0  0  0  0  0  0  0  0  0  0  0  0
   -4.4741   -1.8902   -0.5736 C   0  0  0  0  0  0  0  0  0  0  0  0
   -5.5458   -1.8642   -1.4694 C   0  0  0  0  0  0  0  0  0  0  0  0
   -5.5501   -0.9525   -2.5214 C   0  0  0  0  0  0  0  0  0  0  0  0
   -4.4818   -0.0731   -2.6784 C   0  0  0  0  0  0  0  0  0  0  0  0
   -3.4109   -0.1013   -1.7799 C   0  0  0  0  0  0  0  0  0  0  0  0
   -1.5170    1.2162    0.6691 C   0  0  0  0  0  0  0  0  0  0  0  0
   -2.5750    2.1485    0.6829 C   0  0  0  0  0  0  0  0  0  0  0  0
   -2.1625    3.4003    0.9171 N   0  0  0  0  0  0  0  0  0  0  0  0
   -0.8267    3.2582    1.0824 N   0  0  0  0  0  0  0  0  0  0  0  0
   -0.0235    4.4161    1.3836 C   0  0  0  0  0  0  0  0  0  0  0  0
   -0.3927    1.9677    0.9469 C   0  0  0  0  0  0  0  0  0  0  0  0
    0.8634    1.5123    1.0667 N   0  0  0  0  0  0  0  0  0  0  0  0
    6.5473   -2.3967   -0.5759 H   0  0  0  0  0  0  0  0  0  0  0  0
    6.6810   -1.5899    0.9993 H   0  0  0  0  0  0  0  0  0  0  0  0
    7.1279   -0.7254   -0.4816 H   0  0  0  0  0  0  0  0  0  0  0  0
    4.7794   -0.7637   -1.2580 H   0  0  0  0  0  0  0  0  0  0  0  0
    4.9223    0.0437    0.3044 H   0  0  0  0  0  0  0  0  0  0  0  0
    4.1127   -2.8862   -0.0954 H   0  0  0  0  0  0  0  0  0  0  0  0
    4.1936   -2.0619    1.4619 H   0  0  0  0  0  0  0  0  0  0  0  0
    2.3567   -1.2179   -0.8504 H   0  0  0  0  0  0  0  0  0  0  0  0
    1.8867   -2.3126    0.4658 H   0  0  0  0  0  0  0  0  0  0  0  0
    2.8574    0.4642    0.9732 H   0  0  0  0  0  0  0  0  0  0  0  0
   -1.9211   -2.0088    0.2231 H   0  0  0  0  0  0  0  0  0  0  0  0
   -4.4900   -2.6022    0.2485 H   0  0  0  0  0  0  0  0  0  0  0  0
   -6.3761   -2.5538   -1.3425 H   0  0  0  0  0  0  0  0  0  0  0  0
   -6.3824   -0.9295   -3.2199 H   0  0  0  0  0  0  0  0  0  0  0  0
   -4.4766    0.6338   -3.5043 H   0  0  0  0  0  0  0  0  0  0  0  0
   -2.5809    0.5794   -1.9477 H   0  0  0  0  0  0  0  0  0  0  0  0
   -3.6308    1.9643    0.5291 H   0  0  0  0  0  0  0  0  0  0  0  0
   -0.3608    4.8293    2.3374 H   0  0  0  0  0  0  0  0  0  0  0  0
    1.0295    4.1342    1.4529 H   0  0  0  0  0  0  0  0  0  0  0  0
   -0.1581    5.1464    0.5817 H   0  0  0  0  0  0  0  0  0  0  0  0
  1  2  1  0
  2  3  1  0
  3  4  1  0
  4  5  1  0
  5  6  1  0
  6  7  2  0
  7  8  1  0
  8  9  1  0
  9 10  1  0
 10 11  2  0
 11 12  1  0
 12 13  2  0
 13 14  1  0
 14 15  2  0
  8 16  2  0
 16 17  1  0
 17 18  2  0
 18 19  1  0
 19 20  1  0
 19 21  1  0
 21 22  2  0
 22  6  1  0
 15 10  1  0
 21 16  1  0
  1 23  1  0
  1 24  1  0
  1 25  1  0
  2 26  1  0
  2 27  1  0
  3 28  1  0
  3 29  1  0
  4 30  1  0
  4 31  1  0
  5 32  1  0
  9 33  1  0
 11 34  1  0
 12 35  1  0
 13 36  1  0
 14 37  1  0
 15 38  1  0
 17 39  1  0
 20 40  1  0
 20 41  1  0
 20 42  1  0
M  END
>  <ScrubInfo>  (1) 
{"isomerGroup": 0, "isomerId": 0, "confId": 0, "nr_conformers:": 1, "nr_isomers:": 9}

$$$$
_i1
     RDKit          3D

 42 44  0  0  0  0  0  0  0  0999 V2000
    0.2462    0.0428   -0.8151 N   0  0  0  0  0  0  0  0  0  0  0  0
   -1.0640   -0.3423   -1.0352 C   0  0  0  0  0  0  0  0  0  0  0  0
   -2.0174    0.5775   -1.4282 N   0  0  0  0  0  0  0  0  0  0  0  0
   -3.2332    0.8684   -0.7661 C   0  0  0  0  0  0  0  0  0  0  0  0
   -3.5845    0.3374    0.4815 C   0  0  0  0  0  0  0  0  0  0  0  0
   -4.8216    0.6314    1.0634 C   0  0  0  0  0  0  0  0  0  0  0  0
   -5.7293    1.4532    0.4008 C   0  0  0  0  0  0  0  0  0  0  0  0
   -5.4014    1.9812   -0.8444 C   0  0  0  0  0  0  0  0  0  0  0  0
   -4.1643    1.6871   -1.4233 C   0  0  0  0  0  0  0  0  0  0  0  0
   -1.3113   -1.6501   -0.8958 C   0  0  0  0  0  0  0  0  0  0  0  0
   -2.4513   -2.5642   -1.0280 C   0  0  0  0  0  0  0  0  0  0  0  0
   -2.1457   -3.8063   -0.7453 N   0  0  0  0  0  0  0  0  0  0  0  0
   -0.7696   -3.7955   -0.4638 N   0  0  0  0  0  0  0  0  0  0  0  0
   -0.1673   -4.9511    0.1539 C   0  0  0  0  0  0  0  0  0  0  0  0
   -0.2000   -2.5333   -0.4921 C   0  0  0  0  0  0  0  0  0  0  0  0
    1.0022   -2.1514   -0.2310 N   0  0  0  0  0  0  0  0  0  0  0  0
    1.2433   -0.8025   -0.3739 C   0  0  0  0  0  0  0  0  0  0  0  0
    2.4423   -0.4646   -0.0570 N   0  0  0  0  0  0  0  0  0  0  0  0
    2.8456    0.9302   -0.1639 C   0  0  0  0  0  0  0  0  0  0  0  0
    4.3184    1.0336    0.2300 C   0  0  0  0  0  0  0  0  0  0  0  0
    4.8195    2.4743    0.1448 C   0  0  0  0  0  0  0  0  0  0  0  0
    6.2848    2.5786    0.5366 C   0  0  0  0  0  0  0  0  0  0  0  0
    0.4288    1.0317   -0.8061 H   0  0  0  0  0  0  0  0  0  0  0  0
   -1.6246    1.4167   -1.8446 H   0  0  0  0  0  0  0  0  0  0  0  0
   -2.8972   -0.2932    1.0388 H   0  0  0  0  0  0  0  0  0  0  0  0
   -5.0739    0.2176    2.0368 H   0  0  0  0  0  0  0  0  0  0  0  0
   -6.6914    1.6789    0.8534 H   0  0  0  0  0  0  0  0  0  0  0  0
   -6.1103    2.6162   -1.3695 H   0  0  0  0  0  0  0  0  0  0  0  0
   -3.9375    2.0941   -2.4061 H   0  0  0  0  0  0  0  0  0  0  0  0
   -3.4443   -2.1990   -1.3196 H   0  0  0  0  0  0  0  0  0  0  0  0
    0.9007   -5.0073   -0.0799 H   0  0  0  0  0  0  0  0  0  0  0  0
   -0.2842   -4.9057    1.2411 H   0  0  0  0  0  0  0  0  0  0  0  0
   -0.6362   -5.8725   -0.2064 H   0  0  0  0  0  0  0  0  0  0  0  0
    2.2452    1.5553    0.5076 H   0  0  0  0  0  0  0  0  0  0  0  0
    2.7182    1.2915   -1.1914 H   0  0  0  0  0  0  0  0  0  0  0  0
    4.4529    0.6531    1.2504 H   0  0  0  0  0  0  0  0  0  0  0  0
    4.9197    0.3916   -0.4261 H   0  0  0  0  0  0  0  0  0  0  0  0
    4.6925    2.8531   -0.8760 H   0  0  0  0  0  0  0  0  0  0  0  0
    4.2243    3.1154    0.8054 H   0  0  0  0  0  0  0  0  0  0  0  0
    6.4413    2.2372    1.5649 H   0  0  0  0  0  0  0  0  0  0  0  0
    6.6224    3.6175    0.4685 H   0  0  0  0  0  0  0  0  0  0  0  0
    6.9121    1.9735   -0.1258 H   0  0  0  0  0  0  0  0  0  0  0  0
  1  2  1  0
  2  3  1  0
  3  4  1  0
  4  5  2  0
  5  6  1  0
  6  7  2  0
  7  8  1  0
  8  9  2  0
  2 10  2  0
 10 11  1  0
 11 12  2  0
 12 13  1  0
 13 14  1  0
 13 15  1  0
 15 16  2  0
 16 17  1  0
 17 18  2  3
 18 19  1  0
 19 20  1  0
 20 21  1  0
 21 22  1  0
 17  1  1  0
  9  4  1  0
 15 10  1  0
  1 23  1  0
  3 24  1  0
  5 25  1  0
  6 26  1  0
  7 27  1  0
  8 28  1  0
  9 29  1  0
 11 30  1  0
 14 31  1  0
 14 32  1  0
 14 33  1  0
 19 34  1  0
 19 35  1  0
 20 36  1  0
 20 37  1  0
 21 38  1  0
 21 39  1  0
 22 40  1  0
 22 41  1  0
 22 42  1  0
M  END
>  <ScrubInfo>  (2) 
{"isomerGroup": 0, "isomerId": 1, "confId": 0, "nr_conformers:": 1, "nr_isomers:": 9}

$$$$
_i2
     RDKit          3D

 42 44  0  0  0  0  0  0  0  0999 V2000
   -0.5058    0.2306   -0.1532 N   0  0  0  0  0  0  0  0  0  0  0  0
   -1.1564   -0.9763   -0.1475 C   0  0  0  0  0  0  0  0  0  0  0  0
   -2.5216   -0.9284   -0.1703 N   0  0  0  0  0  0  0  0  0  0  0  0
   -3.2864   -0.1006    0.7518 C   0  0  0  0  0  0  0  0  0  0  0  0
   -4.7837   -0.2198    0.4623 C   0  0  0  0  0  0  0  0  0  0  0  0
   -5.2099    0.2550   -0.9308 C   0  0  0  0  0  0  0  0  0  0  0  0
   -4.9232    1.7263   -1.1870 C   0  0  0  0  0  0  0  0  0  0  0  0
   -0.5505   -2.1366   -0.1402 N   0  0  0  0  0  0  0  0  0  0  0  0
    0.8053   -1.9911   -0.1152 C   0  0  0  0  0  0  0  0  0  0  0  0
    1.5494   -0.8201   -0.1205 C   0  0  0  0  0  0  0  0  0  0  0  0
    2.8850   -1.2575   -0.0770 C   0  0  0  0  0  0  0  0  0  0  0  0
    2.9935   -2.5922   -0.0466 N   0  0  0  0  0  0  0  0  0  0  0  0
    1.7095   -3.0150   -0.0771 N   0  0  0  0  0  0  0  0  0  0  0  0
    1.4321   -4.4290   -0.0609 C   0  0  0  0  0  0  0  0  0  0  0  0
    0.8519    0.4508   -0.1683 C   0  0  0  0  0  0  0  0  0  0  0  0
    1.3442    1.6506   -0.2294 N   0  0  0  0  0  0  0  0  0  0  0  0
    2.7199    1.8849   -0.2583 C   0  0  0  0  0  0  0  0  0  0  0  0
    3.4182    2.1244    0.9283 C   0  0  0  0  0  0  0  0  0  0  0  0
    4.7891    2.3874    0.9005 C   0  0  0  0  0  0  0  0  0  0  0  0
    5.4653    2.4285   -0.3184 C   0  0  0  0  0  0  0  0  0  0  0  0
    4.7703    2.2160   -1.5086 C   0  0  0  0  0  0  0  0  0  0  0  0
    3.3994    1.9534   -1.4777 C   0  0  0  0  0  0  0  0  0  0  0  0
   -1.0576    1.0553   -0.3192 H   0  0  0  0  0  0  0  0  0  0  0  0
   -2.8714   -1.8851   -0.1823 H   0  0  0  0  0  0  0  0  0  0  0  0
   -2.9758    0.9472    0.6945 H   0  0  0  0  0  0  0  0  0  0  0  0
   -3.0947   -0.4386    1.7770 H   0  0  0  0  0  0  0  0  0  0  0  0
   -5.3339    0.3528    1.2191 H   0  0  0  0  0  0  0  0  0  0  0  0
   -5.0915   -1.2668    0.5782 H   0  0  0  0  0  0  0  0  0  0  0  0
   -4.7234   -0.3503   -1.7041 H   0  0  0  0  0  0  0  0  0  0  0  0
   -6.2886    0.0869   -1.0364 H   0  0  0  0  0  0  0  0  0  0  0  0
   -5.3684    2.3552   -0.4097 H   0  0  0  0  0  0  0  0  0  0  0  0
   -3.8480    1.9252   -1.2214 H   0  0  0  0  0  0  0  0  0  0  0  0
   -5.3458    2.0287   -2.1506 H   0  0  0  0  0  0  0  0  0  0  0  0
    3.7971   -0.6771   -0.0644 H   0  0  0  0  0  0  0  0  0  0  0  0
    1.9569   -4.8929   -0.9001 H   0  0  0  0  0  0  0  0  0  0  0  0
    1.7915   -4.8377    0.8868 H   0  0  0  0  0  0  0  0  0  0  0  0
    0.3584   -4.6039   -0.1573 H   0  0  0  0  0  0  0  0  0  0  0  0
    2.8901    2.1035    1.8775 H   0  0  0  0  0  0  0  0  0  0  0  0
    5.3267    2.5643    1.8282 H   0  0  0  0  0  0  0  0  0  0  0  0
    6.5325    2.6345   -0.3415 H   0  0  0  0  0  0  0  0  0  0  0  0
    5.2932    2.2588   -2.4603 H   0  0  0  0  0  0  0  0  0  0  0  0
    2.8570    1.7988   -2.4063 H   0  0  0  0  0  0  0  0  0  0  0  0
  1  2  1  0
  2  3  1  0
  3  4  1  0
  4  5  1  0
  5  6  1  0
  6  7  1  0
  2  8  2  0
  8  9  1  0
  9 10  2  0
 10 11  1  0
 11 12  2  0
 12 13  1  0
 13 14  1  0
 10 15  1  0
 15 16  2  3
 16 17  1  0
 17 18  2  0
 18 19  1  0
 19 20  2  0
 20 21  1  0
 21 22  2  0
 15  1  1  0
 22 17  1  0
 13  9  1  0
  1 23  1  0
  3 24  1  0
  4 25  1  0
  4 26  1  0
  5 27  1  0
  5 28  1  0
  6 29  1  0
  6 30  1  0
  7 31  1  0
  7 32  1  0
  7 33  1  0
 11 34  1  0
 14 35  1  0
 14 36  1  0
 14 37  1  0
 18 38  1  0
 19 39  1  0
 20 40  1  0
 21 41  1  0
 22 42  1  0
M  END
>  <ScrubInfo>  (3) 
{"isomerGroup": 0, "isomerId": 2, "confId": 0, "nr_conformers:": 1, "nr_isomers:": 9}

$$$$
_i3
     RDKit          3D

 42 44  0  0  0  0  0  0  0  0999 V2000
   -0.7112   -1.6460    0.0471 N   0  0  0  0  0  0  0  0  0  0  0  0
   -1.0321   -0.3899    0.5391 C   0  0  0  0  0  0  0  0  0  0  0  0
   -2.2158    0.0985    0.6578 N   0  0  0  0  0  0  0  0  0  0  0  0
   -3.3650   -0.6958    0.2487 C   0  0  0  0  0  0  0  0  0  0  0  0
   -4.6412    0.1170    0.4701 C   0  0  0  0  0  0  0  0  0  0  0  0
   -4.7379    1.3224   -0.4679 C   0  0  0  0  0  0  0  0  0  0  0  0
   -6.0349    2.0877   -0.2564 C   0  0  0  0  0  0  0  0  0  0  0  0
   -0.0453    0.4875    0.9661 N   0  0  0  0  0  0  0  0  0  0  0  0
    1.2077    0.1400    0.8890 C   0  0  0  0  0  0  0  0  0  0  0  0
    2.2308    0.9494    1.3135 N   0  0  0  0  0  0  0  0  0  0  0  0
    3.2785    1.4109    0.4740 C   0  0  0  0  0  0  0  0  0  0  0  0
    3.2012    1.4028   -0.9245 C   0  0  0  0  0  0  0  0  0  0  0  0
    4.2508    1.9057   -1.6981 C   0  0  0  0  0  0  0  0  0  0  0  0
    5.3821    2.4363   -1.0823 C   0  0  0  0  0  0  0  0  0  0  0  0
    5.4627    2.4713    0.3074 C   0  0  0  0  0  0  0  0  0  0  0  0
    4.4133    1.9685    1.0797 C   0  0  0  0  0  0  0  0  0  0  0  0
    1.5810   -1.1695    0.4082 C   0  0  0  0  0  0  0  0  0  0  0  0
    2.7546   -1.9178    0.2330 C   0  0  0  0  0  0  0  0  0  0  0  0
    2.5088   -3.1401   -0.2661 N   0  0  0  0  0  0  0  0  0  0  0  0
    1.1600   -3.1717   -0.3985 N   0  0  0  0  0  0  0  0  0  0  0  0
    0.5354   -4.3651   -0.9092 C   0  0  0  0  0  0  0  0  0  0  0  0
    0.5819   -2.0093    0.0018 C   0  0  0  0  0  0  0  0  0  0  0  0
   -1.4742   -2.2455   -0.2265 H   0  0  0  0  0  0  0  0  0  0  0  0
   -3.4265   -1.6079    0.8542 H   0  0  0  0  0  0  0  0  0  0  0  0
   -3.2915   -0.9823   -0.8071 H   0  0  0  0  0  0  0  0  0  0  0  0
   -5.5055   -0.5377    0.3045 H   0  0  0  0  0  0  0  0  0  0  0  0
   -4.6881    0.4563    1.5123 H   0  0  0  0  0  0  0  0  0  0  0  0
   -4.6846    0.9875   -1.5104 H   0  0  0  0  0  0  0  0  0  0  0  0
   -3.8938    2.0013   -0.3017 H   0  0  0  0  0  0  0  0  0  0  0  0
   -6.0848    2.9440   -0.9361 H   0  0  0  0  0  0  0  0  0  0  0  0
   -6.9031    1.4496   -0.4498 H   0  0  0  0  0  0  0  0  0  0  0  0
   -6.1057    2.4634    0.7694 H   0  0  0  0  0  0  0  0  0  0  0  0
    1.8255    1.7679    1.7657 H   0  0  0  0  0  0  0  0  0  0  0  0
    2.3220    1.0174   -1.4351 H   0  0  0  0  0  0  0  0  0  0  0  0
    4.1803    1.8880   -2.7828 H   0  0  0  0  0  0  0  0  0  0  0  0
    6.1973    2.8276   -1.6856 H   0  0  0  0  0  0  0  0  0  0  0  0
    6.3412    2.8900    0.7914 H   0  0  0  0  0  0  0  0  0  0  0  0
    4.4916    2.0008    2.1641 H   0  0  0  0  0  0  0  0  0  0  0  0
    3.7777   -1.6331    0.4430 H   0  0  0  0  0  0  0  0  0  0  0  0
    0.7288   -5.1810   -0.2083 H   0  0  0  0  0  0  0  0  0  0  0  0
   -0.5406   -4.2090   -1.0099 H   0  0  0  0  0  0  0  0  0  0  0  0
    0.9682   -4.5902   -1.8873 H   0  0  0  0  0  0  0  0  0  0  0  0
  1  2  1  0
  2  3  2  3
  3  4  1  0
  4  5  1  0
  5  6  1  0
  6  7  1  0
  2  8  1  0
  8  9  2  0
  9 10  1  0
 10 11  1  0
 11 12  2  0
 12 13  1  0
 13 14  2  0
 14 15  1  0
 15 16  2  0
  9 17  1  0
 17 18  1  0
 18 19  2  0
 19 20  1  0
 20 21  1  0
 20 22  1  0
 22  1  1  0
 16 11  1  0
 22 17  2  0
  1 23  1  0
  4 24  1  0
  4 25  1  0
  5 26  1  0
  5 27  1  0
  6 28  1  0
  6 29  1  0
  7 30  1  0
  7 31  1  0
  7 32  1  0
 10 33  1  0
 12 34  1  0
 13 35  1  0
 14 36  1  0
 15 37  1  0
 16 38  1  0
 18 39  1  0
 21 40  1  0
 21 41  1  0
 21 42  1  0
M  END
>  <ScrubInfo>  (4) 
{"isomerGroup": 0, "isomerId": 3, "confId": 0, "nr_conformers:": 1, "nr_isomers:": 9}

$$$$
_i4
     RDKit          3D

 42 44  0  0  0  0  0  0  0  0999 V2000
    0.9471    3.7641   -2.7737 N   0  0  0  0  0  0  0  0  0  0  0  0
    1.7969    3.0102   -1.9700 C   0  0  0  0  0  0  0  0  0  0  0  0
    1.2299    1.8786   -1.5332 C   0  0  0  0  0  0  0  0  0  0  0  0
    1.5861    0.7718   -0.6770 C   0  0  0  0  0  0  0  0  0  0  0  0
    2.7534    0.6732   -0.1211 N   0  0  0  0  0  0  0  0  0  0  0  0
    3.0035   -0.4306    0.7073 C   0  0  0  0  0  0  0  0  0  0  0  0
    2.7724   -0.3460    2.0832 C   0  0  0  0  0  0  0  0  0  0  0  0
    3.0446   -1.4336    2.9158 C   0  0  0  0  0  0  0  0  0  0  0  0
    3.5615   -2.6108    2.3760 C   0  0  0  0  0  0  0  0  0  0  0  0
    3.8095   -2.6987    1.0065 C   0  0  0  0  0  0  0  0  0  0  0  0
    3.5359   -1.6089    0.1771 C   0  0  0  0  0  0  0  0  0  0  0  0
    0.5857   -0.1439   -0.4986 N   0  0  0  0  0  0  0  0  0  0  0  0
   -0.5783   -0.0352   -1.0648 C   0  0  0  0  0  0  0  0  0  0  0  0
   -1.5445   -0.9729   -0.8454 N   0  0  0  0  0  0  0  0  0  0  0  0
   -1.5097   -1.9255    0.2427 C   0  0  0  0  0  0  0  0  0  0  0  0
   -1.8273   -1.2708    1.5886 C   0  0  0  0  0  0  0  0  0  0  0  0
   -3.2002   -0.5967    1.6777 C   0  0  0  0  0  0  0  0  0  0  0  0
   -4.3631   -1.5537    1.4684 C   0  0  0  0  0  0  0  0  0  0  0  0
   -0.9635    0.9778   -1.9064 N   0  0  0  0  0  0  0  0  0  0  0  0
   -0.0967    1.8958   -2.1607 C   0  0  0  0  0  0  0  0  0  0  0  0
   -0.2070    3.0132   -2.9910 N   0  0  0  0  0  0  0  0  0  0  0  0
   -1.4733    3.7001   -3.1535 C   0  0  0  0  0  0  0  0  0  0  0  0
    1.4075    4.1311   -3.6100 H   0  0  0  0  0  0  0  0  0  0  0  0
    2.7970    3.3648   -1.7632 H   0  0  0  0  0  0  0  0  0  0  0  0
    2.3744    0.5731    2.5026 H   0  0  0  0  0  0  0  0  0  0  0  0
    2.8559   -1.3591    3.9830 H   0  0  0  0  0  0  0  0  0  0  0  0
    3.7752   -3.4578    3.0225 H   0  0  0  0  0  0  0  0  0  0  0  0
    4.2167   -3.6123    0.5827 H   0  0  0  0  0  0  0  0  0  0  0  0
    3.7313   -1.6751   -0.8890 H   0  0  0  0  0  0  0  0  0  0  0  0
   -2.4584   -0.6827   -1.1666 H   0  0  0  0  0  0  0  0  0  0  0  0
   -0.5259   -2.4073    0.2932 H   0  0  0  0  0  0  0  0  0  0  0  0
   -2.2254   -2.7271    0.0324 H   0  0  0  0  0  0  0  0  0  0  0  0
   -1.0619   -0.5198    1.8203 H   0  0  0  0  0  0  0  0  0  0  0  0
   -1.7551   -2.0353    2.3721 H   0  0  0  0  0  0  0  0  0  0  0  0
   -3.2688    0.2244    0.9553 H   0  0  0  0  0  0  0  0  0  0  0  0
   -3.2967   -0.1441    2.6720 H   0  0  0  0  0  0  0  0  0  0  0  0
   -4.3862   -1.9389    0.4448 H   0  0  0  0  0  0  0  0  0  0  0  0
   -4.3036   -2.4018    2.1576 H   0  0  0  0  0  0  0  0  0  0  0  0
   -5.3114   -1.0369    1.6483 H   0  0  0  0  0  0  0  0  0  0  0  0
   -1.3849    4.4883   -3.9081 H   0  0  0  0  0  0  0  0  0  0  0  0
   -1.7931    4.1554   -2.2104 H   0  0  0  0  0  0  0  0  0  0  0  0
   -2.2493    3.0037   -3.4873 H   0  0  0  0  0  0  0  0  0  0  0  0
  1  2  1  0
  2  3  2  0
  3  4  1  0
  4  5  2  3
  5  6  1  0
  6  7  2  0
  7  8  1  0
  8  9  2  0
  9 10  1  0
 10 11  2  0
  4 12  1  0
 12 13  2  0
 13 14  1  0
 14 15  1  0
 15 16  1  0
 16 17  1  0
 17 18  1  0
 13 19  1  0
 19 20  2  0
 20 21  1  0
 21 22  1  0
 21  1  1  0
 20  3  1  0
 11  6  1  0
  1 23  1  0
  2 24  1  0
  7 25  1  0
  8 26  1  0
  9 27  1  0
 10 28  1  0
 11 29  1  0
 14 30  1  0
 15 31  1  0
 15 32  1  0
 16 33  1  0
 16 34  1  0
 17 35  1  0
 17 36  1  0
 18 37  1  0
 18 38  1  0
 18 39  1  0
 22 40  1  0
 22 41  1  0
 22 42  1  0
M  END
>  <ScrubInfo>  (5) 
{"isomerGroup": 0, "isomerId": 4, "confId": 0, "nr_conformers:": 1, "nr_isomers:": 9}

$$$$
_i5
     RDKit          3D

 42 44  0  0  0  0  0  0  0  0999 V2000
    0.3918    1.5986    0.3620 N   0  0  0  0  0  0  0  0  0  0  0  0
    0.2494    0.2620    0.0669 C   0  0  0  0  0  0  0  0  0  0  0  0
    1.4188   -0.4159   -0.1274 N   0  0  0  0  0  0  0  0  0  0  0  0
    2.3987    0.0263   -1.1111 C   0  0  0  0  0  0  0  0  0  0  0  0
    3.6341   -0.8746   -1.0764 C   0  0  0  0  0  0  0  0  0  0  0  0
    4.3923   -0.8763    0.2551 C   0  0  0  0  0  0  0  0  0  0  0  0
    4.9434    0.4868    0.6440 C   0  0  0  0  0  0  0  0  0  0  0  0
   -0.8804   -0.3848   -0.0173 N   0  0  0  0  0  0  0  0  0  0  0  0
   -2.0694    0.3036    0.1896 C   0  0  0  0  0  0  0  0  0  0  0  0
   -3.2478   -0.2247    0.0982 N   0  0  0  0  0  0  0  0  0  0  0  0
   -3.3404   -1.5828   -0.2339 C   0  0  0  0  0  0  0  0  0  0  0  0
   -3.3168   -2.5613    0.7639 C   0  0  0  0  0  0  0  0  0  0  0  0
   -3.4438   -3.9125    0.4345 C   0  0  0  0  0  0  0  0  0  0  0  0
   -3.6076   -4.2917   -0.8973 C   0  0  0  0  0  0  0  0  0  0  0  0
   -3.6487   -3.3210   -1.8976 C   0  0  0  0  0  0  0  0  0  0  0  0
   -3.5211   -1.9708   -1.5643 C   0  0  0  0  0  0  0  0  0  0  0  0
   -1.9668    1.6994    0.5332 C   0  0  0  0  0  0  0  0  0  0  0  0
   -2.8646    2.7257    0.8549 C   0  0  0  0  0  0  0  0  0  0  0  0
   -2.2376    3.8830    1.1267 N   0  0  0  0  0  0  0  0  0  0  0  0
   -0.9232    3.5823    0.9752 N   0  0  0  0  0  0  0  0  0  0  0  0
    0.0603    4.6118    1.1919 C   0  0  0  0  0  0  0  0  0  0  0  0
   -0.7349    2.2874    0.6113 C   0  0  0  0  0  0  0  0  0  0  0  0
    1.3178    1.9186    0.6099 H   0  0  0  0  0  0  0  0  0  0  0  0
    1.1799   -1.3956   -0.2803 H   0  0  0  0  0  0  0  0  0  0  0  0
    1.9492   -0.0240   -2.1099 H   0  0  0  0  0  0  0  0  0  0  0  0
    2.6878    1.0682   -0.9407 H   0  0  0  0  0  0  0  0  0  0  0  0
    4.3173   -0.5640   -1.8765 H   0  0  0  0  0  0  0  0  0  0  0  0
    3.3353   -1.9058   -1.3036 H   0  0  0  0  0  0  0  0  0  0  0  0
    3.7481   -1.2507    1.0588 H   0  0  0  0  0  0  0  0  0  0  0  0
    5.2294   -1.5800    0.1734 H   0  0  0  0  0  0  0  0  0  0  0  0
    5.5627    0.3986    1.5424 H   0  0  0  0  0  0  0  0  0  0  0  0
    4.1402    1.1958    0.8654 H   0  0  0  0  0  0  0  0  0  0  0  0
    5.5640    0.9030   -0.1557 H   0  0  0  0  0  0  0  0  0  0  0  0
   -3.1963   -2.2646    1.8017 H   0  0  0  0  0  0  0  0  0  0  0  0
   -3.4186   -4.6651    1.2175 H   0  0  0  0  0  0  0  0  0  0  0  0
   -3.7091   -5.3426   -1.1548 H   0  0  0  0  0  0  0  0  0  0  0  0
   -3.7845   -3.6120   -2.9354 H   0  0  0  0  0  0  0  0  0  0  0  0
   -3.5616   -1.2134   -2.3415 H   0  0  0  0  0  0  0  0  0  0  0  0
   -3.9450    2.6816    0.9091 H   0  0  0  0  0  0  0  0  0  0  0  0
    1.0570    4.2287    0.9628 H   0  0  0  0  0  0  0  0  0  0  0  0
   -0.1704    5.4547    0.5355 H   0  0  0  0  0  0  0  0  0  0  0  0
    0.0114    4.9183    2.2398 H   0  0  0  0  0  0  0  0  0  0  0  0
  1  2  1  0
  2  3  1  0
  3  4  1  0
  4  5  1  0
  5  6  1  0
  6  7  1  0
  2  8  2  0
  8  9  1  0
  9 10  2  3
 10 11  1  0
 11 12  2  0
 12 13  1  0
 13 14  2  0
 14 15  1  0
 15 16  2  0
  9 17  1  0
 17 18  1  0
 18 19  2  0
 19 20  1  0
 20 21  1  0
 20 22  1  0
 22  1  1  0
 16 11  1  0
 22 17  2  0
  1 23  1  0
  3 24  1  0
  4 25  1  0
  4 26  1  0
  5 27  1  0
  5 28  1  0
  6 29  1  0
  6 30  1  0
  7 31  1  0
  7 32  1  0
  7 33  1  0
 12 34  1  0
 13 35  1  0
 14 36  1  0
 15 37  1  0
 16 38  1  0
 18 39  1  0
 21 40  1  0
 21 41  1  0
 21 42  1  0
M  END
>  <ScrubInfo>  (6) 
{"isomerGroup": 0, "isomerId": 5, "confId": 0, "nr_conformers:": 1, "nr_isomers:": 9}

$$$$
_i6
     RDKit          3D

 42 44  0  0  0  0  0  0  0  0999 V2000
   -0.8748    4.6876    0.4410 N   0  0  0  0  0  0  0  0  0  0  0  0
   -1.6652    3.5695    0.1964 C   0  0  0  0  0  0  0  0  0  0  0  0
   -0.9533    2.4385    0.0896 C   0  0  0  0  0  0  0  0  0  0  0  0
   -1.1886    1.0140   -0.1706 C   0  0  0  0  0  0  0  0  0  0  0  0
   -2.4859    0.5728   -0.3593 N   0  0  0  0  0  0  0  0  0  0  0  0
   -2.9869   -0.7386   -0.4746 C   0  0  0  0  0  0  0  0  0  0  0  0
   -4.3081   -0.9089   -0.9263 C   0  0  0  0  0  0  0  0  0  0  0  0
   -4.8654   -2.1811   -1.0900 C   0  0  0  0  0  0  0  0  0  0  0  0
   -4.1069   -3.3121   -0.8100 C   0  0  0  0  0  0  0  0  0  0  0  0
   -2.7953   -3.1671   -0.3698 C   0  0  0  0  0  0  0  0  0  0  0  0
   -2.2422   -1.8914   -0.2082 C   0  0  0  0  0  0  0  0  0  0  0  0
   -0.1388    0.2449   -0.2261 N   0  0  0  0  0  0  0  0  0  0  0  0
    1.1210    0.7790   -0.0555 C   0  0  0  0  0  0  0  0  0  0  0  0
    2.1547    0.0274   -0.2013 N   0  0  0  0  0  0  0  0  0  0  0  0
    1.9352   -1.3733   -0.5473 C   0  0  0  0  0  0  0  0  0  0  0  0
    3.2892   -2.0731   -0.6835 C   0  0  0  0  0  0  0  0  0  0  0  0
    4.1312   -2.0990    0.5962 C   0  0  0  0  0  0  0  0  0  0  0  0
    3.4771   -2.8581    1.7401 C   0  0  0  0  0  0  0  0  0  0  0  0
    1.4255    2.0789    0.2681 N   0  0  0  0  0  0  0  0  0  0  0  0
    0.4304    2.8886    0.3498 C   0  0  0  0  0  0  0  0  0  0  0  0
    0.4264    4.2488    0.6593 N   0  0  0  0  0  0  0  0  0  0  0  0
    1.5388    5.1001    0.2814 C   0  0  0  0  0  0  0  0  0  0  0  0
   -1.2575    5.3162    1.1514 H   0  0  0  0  0  0  0  0  0  0  0  0
   -2.7345    3.6993    0.1209 H   0  0  0  0  0  0  0  0  0  0  0  0
   -3.2091    1.2780   -0.3954 H   0  0  0  0  0  0  0  0  0  0  0  0
   -4.9237   -0.0455   -1.1661 H   0  0  0  0  0  0  0  0  0  0  0  0
   -5.8886   -2.2861   -1.4409 H   0  0  0  0  0  0  0  0  0  0  0  0
   -4.5332   -4.3035   -0.9370 H   0  0  0  0  0  0  0  0  0  0  0  0
   -2.1935   -4.0453   -0.1500 H   0  0  0  0  0  0  0  0  0  0  0  0
   -1.2190   -1.8286    0.1479 H   0  0  0  0  0  0  0  0  0  0  0  0
    1.4151   -1.4501   -1.5103 H   0  0  0  0  0  0  0  0  0  0  0  0
    1.3284   -1.8806    0.2106 H   0  0  0  0  0  0  0  0  0  0  0  0
    3.8719   -1.5741   -1.4681 H   0  0  0  0  0  0  0  0  0  0  0  0
    3.1212   -3.1024   -1.0231 H   0  0  0  0  0  0  0  0  0  0  0  0
    4.3606   -1.0778    0.9213 H   0  0  0  0  0  0  0  0  0  0  0  0
    5.0915   -2.5762    0.3663 H   0  0  0  0  0  0  0  0  0  0  0  0
    4.1698   -2.9341    2.5845 H   0  0  0  0  0  0  0  0  0  0  0  0
    2.5772   -2.3486    2.0968 H   0  0  0  0  0  0  0  0  0  0  0  0
    3.2039   -3.8727    1.4339 H   0  0  0  0  0  0  0  0  0  0  0  0
    1.4014    6.1076    0.6871 H   0  0  0  0  0  0  0  0  0  0  0  0
    2.4791    4.7052    0.6790 H   0  0  0  0  0  0  0  0  0  0  0  0
    1.6208    5.1720   -0.8082 H   0  0  0  0  0  0  0  0  0  0  0  0
  1  2  1  0
  2  3  2  0
  3  4  1  0
  4  5  1  0
  5  6  1  0
  6  7  2  0
  7  8  1  0
  8  9  2  0
  9 10  1  0
 10 11  2  0
  4 12  2  0
 12 13  1  0
 13 14  2  3
 14 15  1  0
 15 16  1  0
 16 17  1  0
 17 18  1  0
 13 19  1  0
 19 20  2  0
 20 21  1  0
 21 22  1  0
 21  1  1  0
 20  3  1  0
 11  6  1  0
  1 23  1  0
  2 24  1  0
  5 25  1  0
  7 26  1  0
  8 27  1  0
  9 28  1  0
 10 29  1  0
 11 30  1  0
 15 31  1  0
 15 32  1  0
 16 33  1  0
 16 34  1  0
 17 35  1  0
 17 36  1  0
 18 37  1  0
 18 38  1  0
 18 39  1  0
 22 40  1  0
 22 41  1  0
 22 42  1  0
M  END
>  <ScrubInfo>  (7) 
{"isomerGroup": 0, "isomerId": 6, "confId": 0, "nr_conformers:": 1, "nr_isomers:": 9}

$$$$
_i7
     RDKit          3D

 42 44  0  0  0  0  0  0  0  0999 V2000
   -0.7549    3.6914   -2.0193 N   0  0  0  0  0  0  0  0  0  0  0  0
   -1.8040    2.8997   -1.5651 C   0  0  0  0  0  0  0  0  0  0  0  0
   -1.3957    1.7182   -1.0878 C   0  0  0  0  0  0  0  0  0  0  0  0
   -1.9878    0.5315   -0.4665 C   0  0  0  0  0  0  0  0  0  0  0  0
   -3.2768    0.4688   -0.3108 N   0  0  0  0  0  0  0  0  0  0  0  0
   -3.8207   -0.6740    0.2888 C   0  0  0  0  0  0  0  0  0  0  0  0
   -4.0072   -0.7226    1.6724 C   0  0  0  0  0  0  0  0  0  0  0  0
   -4.5404   -1.8643    2.2733 C   0  0  0  0  0  0  0  0  0  0  0  0
   -4.8995   -2.9601    1.4892 C   0  0  0  0  0  0  0  0  0  0  0  0
   -4.7326   -2.9119    0.1056 C   0  0  0  0  0  0  0  0  0  0  0  0
   -4.1991   -1.7688   -0.4923 C   0  0  0  0  0  0  0  0  0  0  0  0
   -1.0386   -0.3942   -0.1136 N   0  0  0  0  0  0  0  0  0  0  0  0
    0.3150   -0.2894   -0.2951 C   0  0  0  0  0  0  0  0  0  0  0  0
    1.0607   -1.2511    0.1403 N   0  0  0  0  0  0  0  0  0  0  0  0
    2.5096   -1.1663   -0.0560 C   0  0  0  0  0  0  0  0  0  0  0  0
    3.1526   -0.4800    1.1489 C   0  0  0  0  0  0  0  0  0  0  0  0
    4.6601   -0.2727    0.9951 C   0  0  0  0  0  0  0  0  0  0  0  0
    5.4483   -1.5717    0.9326 C   0  0  0  0  0  0  0  0  0  0  0  0
    0.8824    0.8043   -0.9183 N   0  0  0  0  0  0  0  0  0  0  0  0
    0.0836    1.7480   -1.3086 C   0  0  0  0  0  0  0  0  0  0  0  0
    0.4139    2.9335   -1.9714 N   0  0  0  0  0  0  0  0  0  0  0  0
    1.6763    3.6013   -1.7181 C   0  0  0  0  0  0  0  0  0  0  0  0
   -0.9546    4.1537   -2.9092 H   0  0  0  0  0  0  0  0  0  0  0  0
   -2.8189    3.2673   -1.6236 H   0  0  0  0  0  0  0  0  0  0  0  0
   -3.7368    0.1350    2.2824 H   0  0  0  0  0  0  0  0  0  0  0  0
   -4.6807   -1.8955    3.3506 H   0  0  0  0  0  0  0  0  0  0  0  0
   -5.3183   -3.8484    1.9556 H   0  0  0  0  0  0  0  0  0  0  0  0
   -5.0228   -3.7605   -0.5083 H   0  0  0  0  0  0  0  0  0  0  0  0
   -4.0784   -1.7276   -1.5714 H   0  0  0  0  0  0  0  0  0  0  0  0
   -1.3324   -1.2429    0.3466 H   0  0  0  0  0  0  0  0  0  0  0  0
    2.8845   -2.1920   -0.1430 H   0  0  0  0  0  0  0  0  0  0  0  0
    2.7844   -0.6684   -0.9934 H   0  0  0  0  0  0  0  0  0  0  0  0
    2.6861    0.5009    1.3035 H   0  0  0  0  0  0  0  0  0  0  0  0
    2.9483   -1.0619    2.0564 H   0  0  0  0  0  0  0  0  0  0  0  0
    4.8647    0.3218    0.0970 H   0  0  0  0  0  0  0  0  0  0  0  0
    5.0194    0.3120    1.8504 H   0  0  0  0  0  0  0  0  0  0  0  0
    6.5221   -1.3589    0.9186 H   0  0  0  0  0  0  0  0  0  0  0  0
    5.2124   -2.1410    0.0288 H   0  0  0  0  0  0  0  0  0  0  0  0
    5.2390   -2.2008    1.8035 H   0  0  0  0  0  0  0  0  0  0  0  0
    1.7968    4.4559   -2.3916 H   0  0  0  0  0  0  0  0  0  0  0  0
    1.7250    3.9623   -0.6854 H   0  0  0  0  0  0  0  0  0  0  0  0
    2.5150    2.9192   -1.8909 H   0  0  0  0  0  0  0  0  0  0  0  0
  1  2  1  0
  2  3  2  0
  3  4  1  0
  4  5  2  3
  5  6  1  0
  6  7  2  0
  7  8  1  0
  8  9  2  0
  9 10  1  0
 10 11  2  0
  4 12  1  0
 12 13  1  0
 13 14  2  3
 14 15  1  0
 15 16  1  0
 16 17  1  0
 17 18  1  0
 13 19  1  0
 19 20  2  0
 20 21  1  0
 21 22  1  0
 21  1  1  0
 20  3  1  0
 11  6  1  0
  1 23  1  0
  2 24  1  0
  7 25  1  0
  8 26  1  0
  9 27  1  0
 10 28  1  0
 11 29  1  0
 12 30  1  0
 15 31  1  0
 15 32  1  0
 16 33  1  0
 16 34  1  0
 17 35  1  0
 17 36  1  0
 18 37  1  0
 18 38  1  0
 18 39  1  0
 22 40  1  0
 22 41  1  0
 22 42  1  0
M  END
>  <ScrubInfo>  (8) 
{"isomerGroup": 0, "isomerId": 7, "confId": 0, "nr_conformers:": 1, "nr_isomers:": 9}

$$$$
_i8
     RDKit          3D

 42 44  0  0  0  0  0  0  0  0999 V2000
    0.6037   -1.3846    0.0483 N   0  0  0  0  0  0  0  0  0  0  0  0
    1.1201   -0.1275    0.3146 C   0  0  0  0  0  0  0  0  0  0  0  0
    2.3469    0.1899    0.5563 N   0  0  0  0  0  0  0  0  0  0  0  0
    3.3535   -0.8665    0.5581 C   0  0  0  0  0  0  0  0  0  0  0  0
    4.7235   -0.2535    0.8495 C   0  0  0  0  0  0  0  0  0  0  0  0
    5.2134    0.6506   -0.2841 C   0  0  0  0  0  0  0  0  0  0  0  0
    6.5951    1.2126    0.0120 C   0  0  0  0  0  0  0  0  0  0  0  0
    0.1667    0.8663    0.3087 N   0  0  0  0  0  0  0  0  0  0  0  0
   -1.1936    0.8354    0.0895 C   0  0  0  0  0  0  0  0  0  0  0  0
   -1.9051    1.9215    0.1348 N   0  0  0  0  0  0  0  0  0  0  0  0
   -3.2832    1.9203   -0.0840 C   0  0  0  0  0  0  0  0  0  0  0  0
   -3.7935    2.1225   -1.3692 C   0  0  0  0  0  0  0  0  0  0  0  0
   -5.1727    2.1508   -1.5853 C   0  0  0  0  0  0  0  0  0  0  0  0
   -6.0487    1.9938   -0.5117 C   0  0  0  0  0  0  0  0  0  0  0  0
   -5.5470    1.8184    0.7775 C   0  0  0  0  0  0  0  0  0  0  0  0
   -4.1674    1.7905    0.9906 C   0  0  0  0  0  0  0  0  0  0  0  0
   -1.6416   -0.5216   -0.1781 C   0  0  0  0  0  0  0  0  0  0  0  0
   -2.8576   -1.1735   -0.4567 C   0  0  0  0  0  0  0  0  0  0  0  0
   -2.7136   -2.4970   -0.6244 N   0  0  0  0  0  0  0  0  0  0  0  0
   -1.3890   -2.7001   -0.4603 N   0  0  0  0  0  0  0  0  0  0  0  0
   -0.8631   -4.0375   -0.5699 C   0  0  0  0  0  0  0  0  0  0  0  0
   -0.7193   -1.5472   -0.1854 C   0  0  0  0  0  0  0  0  0  0  0  0
    1.2552   -2.1570    0.0450 H   0  0  0  0  0  0  0  0  0  0  0  0
    3.1272   -1.5989    1.3422 H   0  0  0  0  0  0  0  0  0  0  0  0
    3.3806   -1.3857   -0.4073 H   0  0  0  0  0  0  0  0  0  0  0  0
    5.4451   -1.0658    0.9991 H   0  0  0  0  0  0  0  0  0  0  0  0
    4.6820    0.3182    1.7849 H   0  0  0  0  0  0  0  0  0  0  0  0
    5.2497    0.0842   -1.2220 H   0  0  0  0  0  0  0  0  0  0  0  0
    4.5163    1.4826   -0.4342 H   0  0  0  0  0  0  0  0  0  0  0  0
    6.9271    1.8547   -0.8098 H   0  0  0  0  0  0  0  0  0  0  0  0
    7.3284    0.4087    0.1323 H   0  0  0  0  0  0  0  0  0  0  0  0
    6.5869    1.8108    0.9287 H   0  0  0  0  0  0  0  0  0  0  0  0
    0.5340    1.7871    0.5013 H   0  0  0  0  0  0  0  0  0  0  0  0
   -3.1115    2.2585   -2.2039 H   0  0  0  0  0  0  0  0  0  0  0  0
   -5.5615    2.3016   -2.5888 H   0  0  0  0  0  0  0  0  0  0  0  0
   -7.1227    2.0188   -0.6783 H   0  0  0  0  0  0  0  0  0  0  0  0
   -6.2279    1.7099    1.6175 H   0  0  0  0  0  0  0  0  0  0  0  0
   -3.7769    1.6675    1.9970 H   0  0  0  0  0  0  0  0  0  0  0  0
   -3.8527   -0.7597   -0.5464 H   0  0  0  0  0  0  0  0  0  0  0  0
   -0.9114   -4.5035    0.4171 H   0  0  0  0  0  0  0  0  0  0  0  0
    0.1702   -3.9942   -0.9217 H   0  0  0  0  0  0  0  0  0  0  0  0
   -1.4657   -4.6014   -1.2869 H   0  0  0  0  0  0  0  0  0  0  0  0
  1  2  1  0
  2  3  2  3
  3  4  1  0
  4  5  1  0
  5  6  1  0
  6  7  1  0
  2  8  1  0
  8  9  1  0
  9 10  2  3
 10 11  1  0
 11 12  2  0
 12 13  1  0
 13 14  2  0
 14 15  1  0
 15 16  2  0
  9 17  1  0
 17 18  1  0
 18 19  2  0
 19 20  1  0
 20 21  1  0
 20 22  1  0
 22  1  1  0
 16 11  1  0
 22 17  2  0
  1 23  1  0
  4 24  1  0
  4 25  1  0
  5 26  1  0
  5 27  1  0
  6 28  1  0
  6 29  1  0
  7 30  1  0
  7 31  1  0
  7 32  1  0
  8 33  1  0
 12 34  1  0
 13 35  1  0
 14 36  1  0
 15 37  1  0
 16 38  1  0
 18 39  1  0
 21 40  1  0
 21 41  1  0
 21 42  1  0
M  END
>  <ScrubInfo>  (9) 
{"isomerGroup": 0, "isomerId": 8, "confId": 0, "nr_conformers:": 1, "nr_isomers:": 9}

$$$$
