REMARK SMILES CCCCNc1nc(Nc2ccc(O)cc2C)c2cnn(C)c2n1
REMARK SMILES IDX 6 1 7 2 8 3 18 4 19 5 20 6 21 7 22 8 23 9 24 10 5 11 4 13
REMARK SMILES IDX 3 14 2 15 1 16 9 17 10 19 11 20 16 21 12 22 15 23 13 24
REMARK SMILES IDX 17 25 14 26
REMARK H PARENT 5 12 9 18 14 27
ROOT
ATOM      1  C   UNL     1       1.174   0.364  -0.276  1.00  0.00     0.226 A 
ATOM      2  N   UNL     1      -0.101   0.015  -0.029  1.00  0.00    -0.195 NA
ATOM      3  C   UNL     1      -1.121   0.890  -0.234  1.00  0.00     0.147 A 
ATOM      4  C   UNL     1      -0.773   2.156  -0.724  1.00  0.00     0.082 A 
ATOM      5  C   UNL     1      -1.415   3.357  -1.093  1.00  0.00     0.149 A 
ATOM      6  N   UNL     1      -0.562   4.296  -1.517  1.00  0.00    -0.179 NA
ATOM      7  N   UNL     1       0.643   3.688  -1.409  1.00  0.00    -0.250 N 
ATOM      8  C   UNL     1       1.837   4.409  -1.772  1.00  0.00     0.176 C 
ATOM      9  C   UNL     1       0.567   2.403  -0.946  1.00  0.00     0.165 A 
ATOM     10  N   UNL     1       1.581   1.551  -0.745  1.00  0.00    -0.193 NA
ENDROOT
BRANCH   1  11
ATOM     11  N   UNL     1       2.104  -0.633  -0.005  1.00  0.00    -0.354 N 
ATOM     12  H   UNL     1       1.561  -1.488   0.066  1.00  0.00     0.163 HD
BRANCH  11  13
ATOM     13  C   UNL     1       3.220  -0.686  -0.932  1.00  0.00     0.116 C 
BRANCH  13  14
ATOM     14  C   UNL     1       4.124  -1.877  -0.602  1.00  0.00     0.021 C 
BRANCH  14  15
ATOM     15  C   UNL     1       4.770  -1.833   0.787  1.00  0.00    -0.002 C 
ATOM     16  C   UNL     1       5.693  -0.642   0.992  1.00  0.00     0.004 C 
ENDBRANCH  14  15
ENDBRANCH  13  14
ENDBRANCH  11  13
ENDBRANCH   1  11
BRANCH   3  17
ATOM     17  N   UNL     1      -2.459   0.536  -0.006  1.00  0.00    -0.339 N 
ATOM     18  H   UNL     1      -3.115   1.259  -0.259  1.00  0.00     0.168 HD
BRANCH  17  19
ATOM     19  C   UNL     1      -3.048  -0.579   0.626  1.00  0.00     0.043 A 
ATOM     20  C   UNL     1      -2.302  -1.479   1.402  1.00  0.00     0.030 A 
ATOM     21  C   UNL     1      -4.425  -0.854   0.429  1.00  0.00    -0.024 A 
ATOM     22  C   UNL     1      -2.893  -2.598   1.995  1.00  0.00     0.048 A 
ATOM     23  C   UNL     1      -5.012  -1.983   1.033  1.00  0.00     0.051 A 
ATOM     24  C   UNL     1      -4.242  -2.841   1.808  1.00  0.00     0.115 A 
ATOM     25  C   UNL     1      -5.295   0.035  -0.419  1.00  0.00     0.047 C 
BRANCH  24  26
ATOM     26  O   UNL     1      -4.782  -3.942   2.404  1.00  0.00    -0.508 OA
ATOM     27  H   UNL     1      -5.726  -3.984   2.182  1.00  0.00     0.293 HD
ENDBRANCH  24  26
ENDBRANCH  17  19
ENDBRANCH   3  17
TORSDOF 7
