_i0
     RDKit          3D

 46 48  0  0  0  0  0  0  0  0999 V2000
    5.6930   -0.6422    0.9920 C   0  0  0  0  0  0  0  0  0  0  0  0
    4.7700   -1.8334    0.7873 C   0  0  0  0  0  0  0  0  0  0  0  0
    4.1239   -1.8775   -0.6015 C   0  0  0  0  0  0  0  0  0  0  0  0
    3.2205   -0.6858   -0.9319 C   0  0  0  0  0  0  0  0  0  0  0  0
    2.1044   -0.6329   -0.0054 N   0  0  0  0  0  0  0  0  0  0  0  0
    1.1739    0.3644   -0.2761 C   0  0  0  0  0  0  0  0  0  0  0  0
   -0.1009    0.0148   -0.0295 N   0  0  0  0  0  0  0  0  0  0  0  0
   -1.1205    0.8904   -0.2337 C   0  0  0  0  0  0  0  0  0  0  0  0
   -2.4593    0.5359   -0.0057 N   0  0  0  0  0  0  0  0  0  0  0  0
   -3.0479   -0.5790    0.6257 C   0  0  0  0  0  0  0  0  0  0  0  0
   -2.3024   -1.4793    1.4019 C   0  0  0  0  0  0  0  0  0  0  0  0
   -2.8929   -2.5983    1.9947 C   0  0  0  0  0  0  0  0  0  0  0  0
   -4.2425   -2.8408    1.8081 C   0  0  0  0  0  0  0  0  0  0  0  0
   -4.7816   -3.9416    2.4038 O   0  0  0  0  0  0  0  0  0  0  0  0
   -5.0123   -1.9826    1.0331 C   0  0  0  0  0  0  0  0  0  0  0  0
   -4.4245   -0.8543    0.4287 C   0  0  0  0  0  0  0  0  0  0  0  0
   -5.2955    0.0355   -0.4192 C   0  0  0  0  0  0  0  0  0  0  0  0
   -0.7734    2.1558   -0.7241 C   0  0  0  0  0  0  0  0  0  0  0  0
   -1.4149    3.3569   -1.0931 C   0  0  0  0  0  0  0  0  0  0  0  0
   -0.5618    4.2960   -1.5169 N   0  0  0  0  0  0  0  0  0  0  0  0
    0.6434    3.6884   -1.4085 N   0  0  0  0  0  0  0  0  0  0  0  0
    1.8373    4.4092   -1.7720 C   0  0  0  0  0  0  0  0  0  0  0  0
    0.5670    2.4034   -0.9455 C   0  0  0  0  0  0  0  0  0  0  0  0
    1.5812    1.5510   -0.7447 N   0  0  0  0  0  0  0  0  0  0  0  0
    6.4550   -0.5954    0.2077 H   0  0  0  0  0  0  0  0  0  0  0  0
    6.2043   -0.7251    1.9564 H   0  0  0  0  0  0  0  0  0  0  0  0
    5.1373    0.3001    0.9932 H   0  0  0  0  0  0  0  0  0  0  0  0
    3.9989   -1.8344    1.5660 H   0  0  0  0  0  0  0  0  0  0  0  0
    5.3526   -2.7523    0.9246 H   0  0  0  0  0  0  0  0  0  0  0  0
    4.9132   -1.9401   -1.3608 H   0  0  0  0  0  0  0  0  0  0  0  0
    3.5405   -2.8038   -0.6801 H   0  0  0  0  0  0  0  0  0  0  0  0
    3.8059    0.2403   -0.9023 H   0  0  0  0  0  0  0  0  0  0  0  0
    2.8502   -0.8094   -1.9579 H   0  0  0  0  0  0  0  0  0  0  0  0
    1.5608   -1.4878    0.0664 H   0  0  0  0  0  0  0  0  0  0  0  0
   -3.1154    1.2590   -0.2592 H   0  0  0  0  0  0  0  0  0  0  0  0
   -1.2447   -1.3139    1.5836 H   0  0  0  0  0  0  0  0  0  0  0  0
   -2.2943   -3.2724    2.6002 H   0  0  0  0  0  0  0  0  0  0  0  0
   -5.7257   -3.9840    2.1819 H   0  0  0  0  0  0  0  0  0  0  0  0
   -6.0694   -2.1832    0.8851 H   0  0  0  0  0  0  0  0  0  0  0  0
   -5.3906    1.0229    0.0438 H   0  0  0  0  0  0  0  0  0  0  0  0
   -6.3040   -0.3759   -0.5340 H   0  0  0  0  0  0  0  0  0  0  0  0
   -4.8720    0.1396   -1.4235 H   0  0  0  0  0  0  0  0  0  0  0  0
   -2.4709    3.5913   -1.0716 H   0  0  0  0  0  0  0  0  0  0  0  0
    2.7172    3.7815   -1.6142 H   0  0  0  0  0  0  0  0  0  0  0  0
    1.9033    5.3028   -1.1462 H   0  0  0  0  0  0  0  0  0  0  0  0
    1.7636    4.6858   -2.8267 H   0  0  0  0  0  0  0  0  0  0  0  0
  1  2  1  0
  2  3  1  0
  3  4  1  0
  4  5  1  0
  5  6  1  0
  6  7  2  0
  7  8  1  0
  8  9  1  0
  9 10  1  0
 10 11  2  0
 11 12  1  0
 12 13  2  0
 13 14  1  0
 13 15  1  0
 15 16  2  0
 16 17  1  0
  8 18  2  0
 18 19  1  0
 19 20  2  0
 20 21  1  0
 21 22  1  0
 21 23  1  0
 23 24  2  0
 24  6  1  0
 16 10  1  0
 23 18  1  0
  1 25  1  0
  1 26  1  0
  1 27  1  0
  2 28  1  0
  2 29  1  0
  3 30  1  0
  3 31  1  0
  4 32  1  0
  4 33  1  0
  5 34  1  0
  9 35  1  0
 11 36  1  0
 12 37  1  0
 14 38  1  0
 15 39  1  0
 17 40  1  0
 17 41  1  0
 17 42  1  0
 19 43  1  0
 22 44  1  0
 22 45  1  0
 22 46  1  0
M  END
>  <ScrubInfo>  (1) 
{"isomerGroup": 0, "isomerId": 0, "confId": 0, "nr_conformers:": 1, "nr_isomers:": 9}

$$$$
_i1
     RDKit          3D

 46 48  0  0  0  0  0  0  0  0999 V2000
   -0.6477    0.2664    0.1697 N   0  0  0  0  0  0  0  0  0  0  0  0
   -1.2810    0.7321   -0.9667 C   0  0  0  0  0  0  0  0  0  0  0  0
   -2.6303    0.5212   -1.2349 N   0  0  0  0  0  0  0  0  0  0  0  0
   -3.5357   -0.0683   -0.3236 C   0  0  0  0  0  0  0  0  0  0  0  0
   -4.4479    0.7603    0.3500 C   0  0  0  0  0  0  0  0  0  0  0  0
   -5.3071    0.2395    1.3173 C   0  0  0  0  0  0  0  0  0  0  0  0
   -5.2508   -1.1108    1.6268 C   0  0  0  0  0  0  0  0  0  0  0  0
   -6.0997   -1.5776    2.5853 O   0  0  0  0  0  0  0  0  0  0  0  0
   -4.3537   -1.9534    0.9781 C   0  0  0  0  0  0  0  0  0  0  0  0
   -3.4947   -1.4441   -0.0120 C   0  0  0  0  0  0  0  0  0  0  0  0
   -2.5496   -2.3928   -0.7003 C   0  0  0  0  0  0  0  0  0  0  0  0
   -0.4937    1.4270   -1.7973 C   0  0  0  0  0  0  0  0  0  0  0  0
   -0.6171    2.1352   -3.0758 C   0  0  0  0  0  0  0  0  0  0  0  0
    0.5022    2.6899   -3.4667 N   0  0  0  0  0  0  0  0  0  0  0  0
    1.4521    2.3354   -2.4951 N   0  0  0  0  0  0  0  0  0  0  0  0
    2.7236    3.0163   -2.4743 C   0  0  0  0  0  0  0  0  0  0  0  0
    0.9284    1.6155   -1.4334 C   0  0  0  0  0  0  0  0  0  0  0  0
    1.4916    1.1918   -0.3537 N   0  0  0  0  0  0  0  0  0  0  0  0
    0.6643    0.4897    0.4951 C   0  0  0  0  0  0  0  0  0  0  0  0
    1.1101    0.0237    1.6139 N   0  0  0  0  0  0  0  0  0  0  0  0
    2.5080    0.2674    1.9709 C   0  0  0  0  0  0  0  0  0  0  0  0
    3.3805   -0.8729    1.4493 C   0  0  0  0  0  0  0  0  0  0  0  0
    4.8432   -0.6811    1.8468 C   0  0  0  0  0  0  0  0  0  0  0  0
    5.7142   -1.8149    1.3299 C   0  0  0  0  0  0  0  0  0  0  0  0
   -1.2069   -0.2119    0.8606 H   0  0  0  0  0  0  0  0  0  0  0  0
   -3.0541    1.2829   -1.7580 H   0  0  0  0  0  0  0  0  0  0  0  0
   -4.4830    1.8263    0.1406 H   0  0  0  0  0  0  0  0  0  0  0  0
   -6.0074    0.8879    1.8361 H   0  0  0  0  0  0  0  0  0  0  0  0
   -5.9401   -2.5278    2.7082 H   0  0  0  0  0  0  0  0  0  0  0  0
   -4.3164   -3.0104    1.2271 H   0  0  0  0  0  0  0  0  0  0  0  0
   -1.5963   -2.4344   -0.1656 H   0  0  0  0  0  0  0  0  0  0  0  0
   -2.3707   -2.0967   -1.7387 H   0  0  0  0  0  0  0  0  0  0  0  0
   -2.9709   -3.4037   -0.7330 H   0  0  0  0  0  0  0  0  0  0  0  0
   -1.5759    2.1862   -3.6071 H   0  0  0  0  0  0  0  0  0  0  0  0
    3.4919    2.3947   -2.0034 H   0  0  0  0  0  0  0  0  0  0  0  0
    2.6438    3.9542   -1.9160 H   0  0  0  0  0  0  0  0  0  0  0  0
    3.0576    3.2459   -3.4913 H   0  0  0  0  0  0  0  0  0  0  0  0
    2.8740    1.2413    1.6244 H   0  0  0  0  0  0  0  0  0  0  0  0
    2.5693    0.3008    3.0652 H   0  0  0  0  0  0  0  0  0  0  0  0
    3.3010   -0.9350    0.3572 H   0  0  0  0  0  0  0  0  0  0  0  0
    3.0104   -1.8272    1.8447 H   0  0  0  0  0  0  0  0  0  0  0  0
    4.9293   -0.6305    2.9384 H   0  0  0  0  0  0  0  0  0  0  0  0
    5.2158    0.2692    1.4471 H   0  0  0  0  0  0  0  0  0  0  0  0
    6.7562   -1.6575    1.6256 H   0  0  0  0  0  0  0  0  0  0  0  0
    5.6761   -1.8722    0.2374 H   0  0  0  0  0  0  0  0  0  0  0  0
    5.3874   -2.7774    1.7363 H   0  0  0  0  0  0  0  0  0  0  0  0
  1  2  1  0
  2  3  1  0
  3  4  1  0
  4  5  2  0
  5  6  1  0
  6  7  2  0
  7  8  1  0
  7  9  1  0
  9 10  2  0
 10 11  1  0
  2 12  2  0
 12 13  1  0
 13 14  2  0
 14 15  1  0
 15 16  1  0
 15 17  1  0
 17 18  2  0
 18 19  1  0
 19 20  2  3
 20 21  1  0
 21 22  1  0
 22 23  1  0
 23 24  1  0
 19  1  1  0
 10  4  1  0
 17 12  1  0
  1 25  1  0
  3 26  1  0
  5 27  1  0
  6 28  1  0
  8 29  1  0
  9 30  1  0
 11 31  1  0
 11 32  1  0
 11 33  1  0
 13 34  1  0
 16 35  1  0
 16 36  1  0
 16 37  1  0
 21 38  1  0
 21 39  1  0
 22 40  1  0
 22 41  1  0
 23 42  1  0
 23 43  1  0
 24 44  1  0
 24 45  1  0
 24 46  1  0
M  END
>  <ScrubInfo>  (2) 
{"isomerGroup": 0, "isomerId": 1, "confId": 0, "nr_conformers:": 1, "nr_isomers:": 9}

$$$$
_i2
     RDKit          3D

 46 48  0  0  0  0  0  0  0  0999 V2000
    0.5102    0.1684    0.4426 N   0  0  0  0  0  0  0  0  0  0  0  0
    1.4902   -0.7191    0.0793 C   0  0  0  0  0  0  0  0  0  0  0  0
    2.7572   -0.4348    0.5049 N   0  0  0  0  0  0  0  0  0  0  0  0
    3.3576    0.8821    0.3442 C   0  0  0  0  0  0  0  0  0  0  0  0
    4.7864    0.8636    0.8867 C   0  0  0  0  0  0  0  0  0  0  0  0
    5.4528    2.2315    0.7470 C   0  0  0  0  0  0  0  0  0  0  0  0
    6.8748    2.2161    1.2849 C   0  0  0  0  0  0  0  0  0  0  0  0
    1.2744   -1.8022   -0.6238 N   0  0  0  0  0  0  0  0  0  0  0  0
   -0.0409   -1.9240   -0.9623 C   0  0  0  0  0  0  0  0  0  0  0  0
   -1.0977   -1.0843   -0.6414 C   0  0  0  0  0  0  0  0  0  0  0  0
   -2.2157   -1.6878   -1.2437 C   0  0  0  0  0  0  0  0  0  0  0  0
   -1.9067   -2.8123   -1.9023 N   0  0  0  0  0  0  0  0  0  0  0  0
   -0.5745   -2.9375   -1.7076 N   0  0  0  0  0  0  0  0  0  0  0  0
    0.1181   -4.0661   -2.2764 C   0  0  0  0  0  0  0  0  0  0  0  0
   -0.8347    0.0922    0.1647 C   0  0  0  0  0  0  0  0  0  0  0  0
   -1.6705    0.9808    0.6096 N   0  0  0  0  0  0  0  0  0  0  0  0
   -3.0407    0.9120    0.3393 C   0  0  0  0  0  0  0  0  0  0  0  0
   -3.5430    1.5731   -0.7900 C   0  0  0  0  0  0  0  0  0  0  0  0
   -4.9068    1.5490   -1.0852 C   0  0  0  0  0  0  0  0  0  0  0  0
   -5.7714    0.8709   -0.2355 C   0  0  0  0  0  0  0  0  0  0  0  0
   -7.1106    0.8133   -0.4837 O   0  0  0  0  0  0  0  0  0  0  0  0
   -5.2965    0.2300    0.9043 C   0  0  0  0  0  0  0  0  0  0  0  0
   -3.9279    0.2574    1.2132 C   0  0  0  0  0  0  0  0  0  0  0  0
   -3.4282   -0.4359    2.4485 C   0  0  0  0  0  0  0  0  0  0  0  0
    0.7518    0.8829    1.1083 H   0  0  0  0  0  0  0  0  0  0  0  0
    3.3759   -1.1702    0.1669 H   0  0  0  0  0  0  0  0  0  0  0  0
    3.3625    1.1549   -0.7175 H   0  0  0  0  0  0  0  0  0  0  0  0
    2.7747    1.6358    0.8846 H   0  0  0  0  0  0  0  0  0  0  0  0
    5.3759    0.1093    0.3504 H   0  0  0  0  0  0  0  0  0  0  0  0
    4.7754    0.5624    1.9418 H   0  0  0  0  0  0  0  0  0  0  0  0
    4.8716    2.9863    1.2893 H   0  0  0  0  0  0  0  0  0  0  0  0
    5.4704    2.5312   -0.3074 H   0  0  0  0  0  0  0  0  0  0  0  0
    7.4920    1.4937    0.7413 H   0  0  0  0  0  0  0  0  0  0  0  0
    6.8896    1.9509    2.3468 H   0  0  0  0  0  0  0  0  0  0  0  0
    7.3323    3.2043    1.1751 H   0  0  0  0  0  0  0  0  0  0  0  0
   -3.2498   -1.3725   -1.2428 H   0  0  0  0  0  0  0  0  0  0  0  0
    0.0169   -4.0182   -3.3636 H   0  0  0  0  0  0  0  0  0  0  0  0
    1.1746   -4.0381   -2.0014 H   0  0  0  0  0  0  0  0  0  0  0  0
   -0.3392   -4.9807   -1.8904 H   0  0  0  0  0  0  0  0  0  0  0  0
   -2.8593    2.1076   -1.4443 H   0  0  0  0  0  0  0  0  0  0  0  0
   -5.2684    2.0614   -1.9706 H   0  0  0  0  0  0  0  0  0  0  0  0
   -7.2949    1.2903   -1.3093 H   0  0  0  0  0  0  0  0  0  0  0  0
   -5.9998   -0.2862    1.5531 H   0  0  0  0  0  0  0  0  0  0  0  0
   -4.2552   -0.7266    3.1050 H   0  0  0  0  0  0  0  0  0  0  0  0
   -2.8773   -1.3417    2.1770 H   0  0  0  0  0  0  0  0  0  0  0  0
   -2.7756    0.2271    3.0258 H   0  0  0  0  0  0  0  0  0  0  0  0
  1  2  1  0
  2  3  1  0
  3  4  1  0
  4  5  1  0
  5  6  1  0
  6  7  1  0
  2  8  2  0
  8  9  1  0
  9 10  2  0
 10 11  1  0
 11 12  2  0
 12 13  1  0
 13 14  1  0
 10 15  1  0
 15 16  2  3
 16 17  1  0
 17 18  2  0
 18 19  1  0
 19 20  2  0
 20 21  1  0
 20 22  1  0
 22 23  2  0
 23 24  1  0
 15  1  1  0
 23 17  1  0
 13  9  1  0
  1 25  1  0
  3 26  1  0
  4 27  1  0
  4 28  1  0
  5 29  1  0
  5 30  1  0
  6 31  1  0
  6 32  1  0
  7 33  1  0
  7 34  1  0
  7 35  1  0
 11 36  1  0
 14 37  1  0
 14 38  1  0
 14 39  1  0
 18 40  1  0
 19 41  1  0
 21 42  1  0
 22 43  1  0
 24 44  1  0
 24 45  1  0
 24 46  1  0
M  END
>  <ScrubInfo>  (3) 
{"isomerGroup": 0, "isomerId": 2, "confId": 0, "nr_conformers:": 1, "nr_isomers:": 9}

$$$$
_i3
     RDKit          3D

 46 48  0  0  0  0  0  0  0  0999 V2000
    1.3297    1.5428    0.7215 N   0  0  0  0  0  0  0  0  0  0  0  0
    1.4803    0.6572   -0.3347 C   0  0  0  0  0  0  0  0  0  0  0  0
    2.5945    0.2248   -0.8093 N   0  0  0  0  0  0  0  0  0  0  0  0
    3.8481    0.6713   -0.2193 C   0  0  0  0  0  0  0  0  0  0  0  0
    5.0128   -0.0018   -0.9465 C   0  0  0  0  0  0  0  0  0  0  0  0
    5.0644   -1.5111   -0.6983 C   0  0  0  0  0  0  0  0  0  0  0  0
    6.2553   -2.1482   -1.3973 C   0  0  0  0  0  0  0  0  0  0  0  0
    0.3779    0.1379   -0.9991 N   0  0  0  0  0  0  0  0  0  0  0  0
   -0.8225    0.4702   -0.6185 C   0  0  0  0  0  0  0  0  0  0  0  0
   -1.9548    0.0107   -1.2425 N   0  0  0  0  0  0  0  0  0  0  0  0
   -2.9744   -0.7319   -0.5826 C   0  0  0  0  0  0  0  0  0  0  0  0
   -2.7130   -1.4702    0.5845 C   0  0  0  0  0  0  0  0  0  0  0  0
   -3.7111   -2.2392    1.1872 C   0  0  0  0  0  0  0  0  0  0  0  0
   -4.9724   -2.2898    0.6106 C   0  0  0  0  0  0  0  0  0  0  0  0
   -5.9772   -3.0276    1.1618 O   0  0  0  0  0  0  0  0  0  0  0  0
   -5.2486   -1.5915   -0.5588 C   0  0  0  0  0  0  0  0  0  0  0  0
   -4.2540   -0.8137   -1.1718 C   0  0  0  0  0  0  0  0  0  0  0  0
   -4.5779   -0.0677   -2.4376 C   0  0  0  0  0  0  0  0  0  0  0  0
   -1.0209    1.4074    0.4617 C   0  0  0  0  0  0  0  0  0  0  0  0
   -2.0948    2.0351    1.1101 C   0  0  0  0  0  0  0  0  0  0  0  0
   -1.6865    2.8569    2.0907 N   0  0  0  0  0  0  0  0  0  0  0  0
   -0.3348    2.7597    2.0545 N   0  0  0  0  0  0  0  0  0  0  0  0
    0.4469    3.5352    2.9833 C   0  0  0  0  0  0  0  0  0  0  0  0
    0.0881    1.9026    1.0889 C   0  0  0  0  0  0  0  0  0  0  0  0
    2.1694    1.9025    1.1482 H   0  0  0  0  0  0  0  0  0  0  0  0
    3.8918    0.4258    0.8484 H   0  0  0  0  0  0  0  0  0  0  0  0
    3.9513    1.7571   -0.3320 H   0  0  0  0  0  0  0  0  0  0  0  0
    4.9386    0.1922   -2.0238 H   0  0  0  0  0  0  0  0  0  0  0  0
    5.9496    0.4518   -0.6006 H   0  0  0  0  0  0  0  0  0  0  0  0
    5.1319   -1.7088    0.3778 H   0  0  0  0  0  0  0  0  0  0  0  0
    4.1451   -1.9866   -1.0585 H   0  0  0  0  0  0  0  0  0  0  0  0
    6.2024   -1.9952   -2.4799 H   0  0  0  0  0  0  0  0  0  0  0  0
    7.1966   -1.7227   -1.0352 H   0  0  0  0  0  0  0  0  0  0  0  0
    6.2744   -3.2258   -1.2069 H   0  0  0  0  0  0  0  0  0  0  0  0
   -1.6709   -0.5334   -2.0563 H   0  0  0  0  0  0  0  0  0  0  0  0
   -1.7233   -1.4650    1.0358 H   0  0  0  0  0  0  0  0  0  0  0  0
   -3.4809   -2.7920    2.0923 H   0  0  0  0  0  0  0  0  0  0  0  0
   -5.6463   -3.4473    1.9728 H   0  0  0  0  0  0  0  0  0  0  0  0
   -6.2447   -1.6583   -0.9899 H   0  0  0  0  0  0  0  0  0  0  0  0
   -3.9498   -0.4251   -3.2599 H   0  0  0  0  0  0  0  0  0  0  0  0
   -5.6229   -0.2102   -2.7325 H   0  0  0  0  0  0  0  0  0  0  0  0
   -4.4189    1.0063   -2.2965 H   0  0  0  0  0  0  0  0  0  0  0  0
   -3.1556    1.9341    0.9185 H   0  0  0  0  0  0  0  0  0  0  0  0
    1.5076    3.3078    2.8587 H   0  0  0  0  0  0  0  0  0  0  0  0
    0.2678    4.5945    2.7827 H   0  0  0  0  0  0  0  0  0  0  0  0
    0.1316    3.2793    3.9981 H   0  0  0  0  0  0  0  0  0  0  0  0
  1  2  1  0
  2  3  2  3
  3  4  1  0
  4  5  1  0
  5  6  1  0
  6  7  1  0
  2  8  1  0
  8  9  2  0
  9 10  1  0
 10 11  1  0
 11 12  2  0
 12 13  1  0
 13 14  2  0
 14 15  1  0
 14 16  1  0
 16 17  2  0
 17 18  1  0
  9 19  1  0
 19 20  1  0
 20 21  2  0
 21 22  1  0
 22 23  1  0
 22 24  1  0
 24  1  1  0
 17 11  1  0
 24 19  2  0
  1 25  1  0
  4 26  1  0
  4 27  1  0
  5 28  1  0
  5 29  1  0
  6 30  1  0
  6 31  1  0
  7 32  1  0
  7 33  1  0
  7 34  1  0
 10 35  1  0
 12 36  1  0
 13 37  1  0
 15 38  1  0
 16 39  1  0
 18 40  1  0
 18 41  1  0
 18 42  1  0
 20 43  1  0
 23 44  1  0
 23 45  1  0
 23 46  1  0
M  END
>  <ScrubInfo>  (4) 
{"isomerGroup": 0, "isomerId": 3, "confId": 0, "nr_conformers:": 1, "nr_isomers:": 9}

$$$$
_i4
     RDKit          3D

 46 48  0  0  0  0  0  0  0  0999 V2000
   -0.8184   -4.9723   -0.4842 N   0  0  0  0  0  0  0  0  0  0  0  0
   -1.7037   -3.8986   -0.4774 C   0  0  0  0  0  0  0  0  0  0  0  0
   -1.0815   -2.7129   -0.4805 C   0  0  0  0  0  0  0  0  0  0  0  0
   -1.4509   -1.3178   -0.4384 C   0  0  0  0  0  0  0  0  0  0  0  0
   -2.6882   -0.9295   -0.4266 N   0  0  0  0  0  0  0  0  0  0  0  0
   -2.9546    0.4492   -0.3749 C   0  0  0  0  0  0  0  0  0  0  0  0
   -2.9990    1.1866   -1.5652 C   0  0  0  0  0  0  0  0  0  0  0  0
   -3.2807    2.5524   -1.5470 C   0  0  0  0  0  0  0  0  0  0  0  0
   -3.5305    3.1815   -0.3356 C   0  0  0  0  0  0  0  0  0  0  0  0
   -3.8001    4.5183   -0.3577 O   0  0  0  0  0  0  0  0  0  0  0  0
   -3.5086    2.4668    0.8595 C   0  0  0  0  0  0  0  0  0  0  0  0
   -3.2304    1.0899    0.8481 C   0  0  0  0  0  0  0  0  0  0  0  0
   -3.2022    0.3192    2.1373 C   0  0  0  0  0  0  0  0  0  0  0  0
   -0.3888   -0.4565   -0.3982 N   0  0  0  0  0  0  0  0  0  0  0  0
    0.8459   -0.8601   -0.4252 C   0  0  0  0  0  0  0  0  0  0  0  0
    1.8695    0.0421   -0.3853 N   0  0  0  0  0  0  0  0  0  0  0  0
    1.6817    1.4078    0.0581 C   0  0  0  0  0  0  0  0  0  0  0  0
    2.9652    2.2207   -0.1168 C   0  0  0  0  0  0  0  0  0  0  0  0
    4.0502    1.8454    0.8960 C   0  0  0  0  0  0  0  0  0  0  0  0
    5.2859    2.7171    0.7326 C   0  0  0  0  0  0  0  0  0  0  0  0
    1.2558   -2.1679   -0.4911 N   0  0  0  0  0  0  0  0  0  0  0  0
    0.3401   -3.0720   -0.5420 C   0  0  0  0  0  0  0  0  0  0  0  0
    0.4681   -4.4590   -0.6405 N   0  0  0  0  0  0  0  0  0  0  0  0
    1.5829   -5.1525   -0.0261 C   0  0  0  0  0  0  0  0  0  0  0  0
   -1.0890   -5.7100   -1.1390 H   0  0  0  0  0  0  0  0  0  0  0  0
   -2.7694   -4.0800   -0.4711 H   0  0  0  0  0  0  0  0  0  0  0  0
   -2.8028    0.6889   -2.5104 H   0  0  0  0  0  0  0  0  0  0  0  0
   -3.3044    3.1181   -2.4731 H   0  0  0  0  0  0  0  0  0  0  0  0
   -3.9735    4.8120    0.5513 H   0  0  0  0  0  0  0  0  0  0  0  0
   -3.7078    2.9659    1.8027 H   0  0  0  0  0  0  0  0  0  0  0  0
   -2.1793    0.0039    2.3667 H   0  0  0  0  0  0  0  0  0  0  0  0
   -3.8490   -0.5618    2.0727 H   0  0  0  0  0  0  0  0  0  0  0  0
   -3.5628    0.9263    2.9744 H   0  0  0  0  0  0  0  0  0  0  0  0
    2.7538   -0.3966   -0.1676 H   0  0  0  0  0  0  0  0  0  0  0  0
    0.8929    1.8801   -0.5394 H   0  0  0  0  0  0  0  0  0  0  0  0
    1.3607    1.4242    1.1060 H   0  0  0  0  0  0  0  0  0  0  0  0
    3.3507    2.0980   -1.1365 H   0  0  0  0  0  0  0  0  0  0  0  0
    2.7197    3.2827    0.0079 H   0  0  0  0  0  0  0  0  0  0  0  0
    4.3406    0.7963    0.7760 H   0  0  0  0  0  0  0  0  0  0  0  0
    3.6629    1.9604    1.9150 H   0  0  0  0  0  0  0  0  0  0  0  0
    5.7165    2.6032   -0.2674 H   0  0  0  0  0  0  0  0  0  0  0  0
    5.0440    3.7739    0.8848 H   0  0  0  0  0  0  0  0  0  0  0  0
    6.0484    2.4347    1.4652 H   0  0  0  0  0  0  0  0  0  0  0  0
    2.5341   -4.7397   -0.3771 H   0  0  0  0  0  0  0  0  0  0  0  0
    1.5624   -6.2150   -0.2893 H   0  0  0  0  0  0  0  0  0  0  0  0
    1.5434   -5.0634    1.0646 H   0  0  0  0  0  0  0  0  0  0  0  0
  1  2  1  0
  2  3  2  0
  3  4  1  0
  4  5  2  3
  5  6  1  0
  6  7  2  0
  7  8  1  0
  8  9  2  0
  9 10  1  0
  9 11  1  0
 11 12  2  0
 12 13  1  0
  4 14  1  0
 14 15  2  0
 15 16  1  0
 16 17  1  0
 17 18  1  0
 18 19  1  0
 19 20  1  0
 15 21  1  0
 21 22  2  0
 22 23  1  0
 23 24  1  0
 23  1  1  0
 22  3  1  0
 12  6  1  0
  1 25  1  0
  2 26  1  0
  7 27  1  0
  8 28  1  0
 10 29  1  0
 11 30  1  0
 13 31  1  0
 13 32  1  0
 13 33  1  0
 16 34  1  0
 17 35  1  0
 17 36  1  0
 18 37  1  0
 18 38  1  0
 19 39  1  0
 19 40  1  0
 20 41  1  0
 20 42  1  0
 20 43  1  0
 24 44  1  0
 24 45  1  0
 24 46  1  0
M  END
>  <ScrubInfo>  (5) 
{"isomerGroup": 0, "isomerId": 4, "confId": 0, "nr_conformers:": 1, "nr_isomers:": 9}

$$$$
_i5
     RDKit          3D

 46 48  0  0  0  0  0  0  0  0999 V2000
    0.9167    2.4945    0.6900 N   0  0  0  0  0  0  0  0  0  0  0  0
    0.8385    1.3416   -0.0647 C   0  0  0  0  0  0  0  0  0  0  0  0
    1.9930    1.1086   -0.7620 N   0  0  0  0  0  0  0  0  0  0  0  0
    2.1697   -0.0944   -1.5662 C   0  0  0  0  0  0  0  0  0  0  0  0
    2.4523   -1.3302   -0.7095 C   0  0  0  0  0  0  0  0  0  0  0  0
    3.7895   -1.2509    0.0306 C   0  0  0  0  0  0  0  0  0  0  0  0
    4.0706   -2.5296    0.8047 C   0  0  0  0  0  0  0  0  0  0  0  0
   -0.1999    0.5567   -0.1300 N   0  0  0  0  0  0  0  0  0  0  0  0
   -1.3357    0.8570    0.6062 C   0  0  0  0  0  0  0  0  0  0  0  0
   -2.4013    0.1218    0.6373 N   0  0  0  0  0  0  0  0  0  0  0  0
   -2.4042   -1.0610   -0.1201 C   0  0  0  0  0  0  0  0  0  0  0  0
   -1.9686   -2.2516    0.4780 C   0  0  0  0  0  0  0  0  0  0  0  0
   -1.9673   -3.4524   -0.2330 C   0  0  0  0  0  0  0  0  0  0  0  0
   -2.4136   -3.4603   -1.5486 C   0  0  0  0  0  0  0  0  0  0  0  0
   -2.4269   -4.6078   -2.2858 O   0  0  0  0  0  0  0  0  0  0  0  0
   -2.8661   -2.2938   -2.1566 C   0  0  0  0  0  0  0  0  0  0  0  0
   -2.8799   -1.0846   -1.4441 C   0  0  0  0  0  0  0  0  0  0  0  0
   -3.3639    0.1706   -2.1114 C   0  0  0  0  0  0  0  0  0  0  0  0
   -1.3104    2.0715    1.3784 C   0  0  0  0  0  0  0  0  0  0  0  0
   -2.2106    2.7607    2.2009 C   0  0  0  0  0  0  0  0  0  0  0  0
   -1.6861    3.8989    2.6858 N   0  0  0  0  0  0  0  0  0  0  0  0
   -0.4353    3.9285    2.1608 N   0  0  0  0  0  0  0  0  0  0  0  0
    0.4311    5.0338    2.4803 C   0  0  0  0  0  0  0  0  0  0  0  0
   -0.1823    2.8438    1.3828 C   0  0  0  0  0  0  0  0  0  0  0  0
    1.6775    3.1304    0.4963 H   0  0  0  0  0  0  0  0  0  0  0  0
    2.8408    1.4063   -0.2981 H   0  0  0  0  0  0  0  0  0  0  0  0
    3.0020    0.0723   -2.2595 H   0  0  0  0  0  0  0  0  0  0  0  0
    1.2812   -0.2660   -2.1854 H   0  0  0  0  0  0  0  0  0  0  0  0
    2.4614   -2.2077   -1.3680 H   0  0  0  0  0  0  0  0  0  0  0  0
    1.6437   -1.4881    0.0138 H   0  0  0  0  0  0  0  0  0  0  0  0
    3.7871   -0.4087    0.7313 H   0  0  0  0  0  0  0  0  0  0  0  0
    4.6018   -1.0780   -0.6848 H   0  0  0  0  0  0  0  0  0  0  0  0
    5.0291   -2.4530    1.3276 H   0  0  0  0  0  0  0  0  0  0  0  0
    3.2908   -2.7161    1.5500 H   0  0  0  0  0  0  0  0  0  0  0  0
    4.1183   -3.3928    0.1332 H   0  0  0  0  0  0  0  0  0  0  0  0
   -1.6219   -2.2321    1.5075 H   0  0  0  0  0  0  0  0  0  0  0  0
   -1.6174   -4.3563    0.2534 H   0  0  0  0  0  0  0  0  0  0  0  0
   -2.1162   -5.3364   -1.7244 H   0  0  0  0  0  0  0  0  0  0  0  0
   -3.2119   -2.3319   -3.1861 H   0  0  0  0  0  0  0  0  0  0  0  0
   -3.8706   -0.0504   -3.0569 H   0  0  0  0  0  0  0  0  0  0  0  0
   -4.0843    0.6939   -1.4742 H   0  0  0  0  0  0  0  0  0  0  0  0
   -2.5200    0.8336   -2.3262 H   0  0  0  0  0  0  0  0  0  0  0  0
   -3.2248    2.4886    2.4642 H   0  0  0  0  0  0  0  0  0  0  0  0
    1.4202    4.8686    2.0478 H   0  0  0  0  0  0  0  0  0  0  0  0
   -0.0084    5.9450    2.0670 H   0  0  0  0  0  0  0  0  0  0  0  0
    0.5123    5.1072    3.5678 H   0  0  0  0  0  0  0  0  0  0  0  0
  1  2  1  0
  2  3  1  0
  3  4  1  0
  4  5  1  0
  5  6  1  0
  6  7  1  0
  2  8  2  0
  8  9  1  0
  9 10  2  3
 10 11  1  0
 11 12  2  0
 12 13  1  0
 13 14  2  0
 14 15  1  0
 14 16  1  0
 16 17  2  0
 17 18  1  0
  9 19  1  0
 19 20  1  0
 20 21  2  0
 21 22  1  0
 22 23  1  0
 22 24  1  0
 24  1  1  0
 17 11  1  0
 24 19  2  0
  1 25  1  0
  3 26  1  0
  4 27  1  0
  4 28  1  0
  5 29  1  0
  5 30  1  0
  6 31  1  0
  6 32  1  0
  7 33  1  0
  7 34  1  0
  7 35  1  0
 12 36  1  0
 13 37  1  0
 15 38  1  0
 16 39  1  0
 18 40  1  0
 18 41  1  0
 18 42  1  0
 20 43  1  0
 23 44  1  0
 23 45  1  0
 23 46  1  0
M  END
>  <ScrubInfo>  (6) 
{"isomerGroup": 0, "isomerId": 5, "confId": 0, "nr_conformers:": 1, "nr_isomers:": 9}

$$$$
_i6
     RDKit          3D

 46 48  0  0  0  0  0  0  0  0999 V2000
   -0.6747    4.9896    0.3157 N   0  0  0  0  0  0  0  0  0  0  0  0
   -1.5266    3.8909    0.3575 C   0  0  0  0  0  0  0  0  0  0  0  0
   -0.8937    2.7313    0.1320 C   0  0  0  0  0  0  0  0  0  0  0  0
   -1.2136    1.3045    0.0628 C   0  0  0  0  0  0  0  0  0  0  0  0
   -2.5240    0.8890    0.2543 N   0  0  0  0  0  0  0  0  0  0  0  0
   -2.9103   -0.4674    0.3533 C   0  0  0  0  0  0  0  0  0  0  0  0
   -3.3911   -0.9335    1.5902 C   0  0  0  0  0  0  0  0  0  0  0  0
   -3.7265   -2.2753    1.7721 C   0  0  0  0  0  0  0  0  0  0  0  0
   -3.5709   -3.1661    0.7223 C   0  0  0  0  0  0  0  0  0  0  0  0
   -3.8972   -4.4712    0.9423 O   0  0  0  0  0  0  0  0  0  0  0  0
   -3.0954   -2.7345   -0.5115 C   0  0  0  0  0  0  0  0  0  0  0  0
   -2.7724   -1.3796   -0.7137 C   0  0  0  0  0  0  0  0  0  0  0  0
   -2.2844   -0.9651   -2.0759 C   0  0  0  0  0  0  0  0  0  0  0  0
   -0.2285    0.4837   -0.1693 N   0  0  0  0  0  0  0  0  0  0  0  0
    1.0526    0.9711   -0.3151 C   0  0  0  0  0  0  0  0  0  0  0  0
    2.0344    0.1487   -0.4372 N   0  0  0  0  0  0  0  0  0  0  0  0
    1.7287   -1.2793   -0.4020 C   0  0  0  0  0  0  0  0  0  0  0  0
    3.0351   -2.0704   -0.4871 C   0  0  0  0  0  0  0  0  0  0  0  0
    3.9035   -1.9022    0.7619 C   0  0  0  0  0  0  0  0  0  0  0  0
    5.1746   -2.7318    0.6700 C   0  0  0  0  0  0  0  0  0  0  0  0
    1.4297    2.2926   -0.3468 N   0  0  0  0  0  0  0  0  0  0  0  0
    0.4965    3.1528   -0.1402 C   0  0  0  0  0  0  0  0  0  0  0  0
    0.5714    4.5454   -0.1155 N   0  0  0  0  0  0  0  0  0  0  0  0
    1.7691    5.2180    0.3508 C   0  0  0  0  0  0  0  0  0  0  0  0
   -1.0608    5.7900   -0.1910 H   0  0  0  0  0  0  0  0  0  0  0  0
   -2.5770    4.0542    0.5486 H   0  0  0  0  0  0  0  0  0  0  0  0
   -3.0765    1.4882    0.8554 H   0  0  0  0  0  0  0  0  0  0  0  0
   -3.4871   -0.2568    2.4351 H   0  0  0  0  0  0  0  0  0  0  0  0
   -4.0908   -2.6253    2.7334 H   0  0  0  0  0  0  0  0  0  0  0  0
   -3.6907   -4.9799    0.1410 H   0  0  0  0  0  0  0  0  0  0  0  0
   -2.9748   -3.4385   -1.3301 H   0  0  0  0  0  0  0  0  0  0  0  0
   -1.2090   -1.1406   -2.1651 H   0  0  0  0  0  0  0  0  0  0  0  0
   -2.7940   -1.5414   -2.8562 H   0  0  0  0  0  0  0  0  0  0  0  0
   -2.4976    0.0882   -2.2816 H   0  0  0  0  0  0  0  0  0  0  0  0
    1.1064   -1.5525   -1.2624 H   0  0  0  0  0  0  0  0  0  0  0  0
    1.1975   -1.5538    0.5176 H   0  0  0  0  0  0  0  0  0  0  0  0
    3.6003   -1.7580   -1.3739 H   0  0  0  0  0  0  0  0  0  0  0  0
    2.7927   -3.1323   -0.6161 H   0  0  0  0  0  0  0  0  0  0  0  0
    4.1755   -0.8491    0.8960 H   0  0  0  0  0  0  0  0  0  0  0  0
    3.3392   -2.2073    1.6509 H   0  0  0  0  0  0  0  0  0  0  0  0
    5.7780   -2.4306   -0.1923 H   0  0  0  0  0  0  0  0  0  0  0  0
    5.7803   -2.5984    1.5718 H   0  0  0  0  0  0  0  0  0  0  0  0
    4.9419   -3.7970    0.5718 H   0  0  0  0  0  0  0  0  0  0  0  0
    2.6451    4.8800   -0.2120 H   0  0  0  0  0  0  0  0  0  0  0  0
    1.6776    6.2997    0.2086 H   0  0  0  0  0  0  0  0  0  0  0  0
    1.9372    5.0199    1.4145 H   0  0  0  0  0  0  0  0  0  0  0  0
  1  2  1  0
  2  3  2  0
  3  4  1  0
  4  5  1  0
  5  6  1  0
  6  7  2  0
  7  8  1  0
  8  9  2  0
  9 10  1  0
  9 11  1  0
 11 12  2  0
 12 13  1  0
  4 14  2  0
 14 15  1  0
 15 16  2  3
 16 17  1  0
 17 18  1  0
 18 19  1  0
 19 20  1  0
 15 21  1  0
 21 22  2  0
 22 23  1  0
 23 24  1  0
 23  1  1  0
 22  3  1  0
 12  6  1  0
  1 25  1  0
  2 26  1  0
  5 27  1  0
  7 28  1  0
  8 29  1  0
 10 30  1  0
 11 31  1  0
 13 32  1  0
 13 33  1  0
 13 34  1  0
 17 35  1  0
 17 36  1  0
 18 37  1  0
 18 38  1  0
 19 39  1  0
 19 40  1  0
 20 41  1  0
 20 42  1  0
 20 43  1  0
 24 44  1  0
 24 45  1  0
 24 46  1  0
M  END
>  <ScrubInfo>  (7) 
{"isomerGroup": 0, "isomerId": 6, "confId": 0, "nr_conformers:": 1, "nr_isomers:": 9}

$$$$
_i7
     RDKit          3D

 46 48  0  0  0  0  0  0  0  0999 V2000
   -0.6777   -4.9366   -0.6116 N   0  0  0  0  0  0  0  0  0  0  0  0
   -1.5772   -3.8770   -0.5676 C   0  0  0  0  0  0  0  0  0  0  0  0
   -0.9750   -2.6892   -0.4370 C   0  0  0  0  0  0  0  0  0  0  0  0
   -1.3536   -1.2780   -0.3719 C   0  0  0  0  0  0  0  0  0  0  0  0
   -2.6124   -0.9515   -0.3943 N   0  0  0  0  0  0  0  0  0  0  0  0
   -2.9531    0.4082   -0.3299 C   0  0  0  0  0  0  0  0  0  0  0  0
   -3.0477    1.1433   -1.5177 C   0  0  0  0  0  0  0  0  0  0  0  0
   -3.3544    2.5028   -1.4876 C   0  0  0  0  0  0  0  0  0  0  0  0
   -3.5790    3.1257   -0.2678 C   0  0  0  0  0  0  0  0  0  0  0  0
   -3.8711    4.4569   -0.2811 O   0  0  0  0  0  0  0  0  0  0  0  0
   -3.5097    2.4100    0.9246 C   0  0  0  0  0  0  0  0  0  0  0  0
   -3.2072    1.0389    0.9024 C   0  0  0  0  0  0  0  0  0  0  0  0
   -3.1318    0.2678    2.1905 C   0  0  0  0  0  0  0  0  0  0  0  0
   -0.2641   -0.4440   -0.2920 N   0  0  0  0  0  0  0  0  0  0  0  0
    1.0581   -0.8243   -0.2607 C   0  0  0  0  0  0  0  0  0  0  0  0
    2.0725   -0.0350   -0.2138 N   0  0  0  0  0  0  0  0  0  0  0  0
    1.8634    1.4065   -0.1916 C   0  0  0  0  0  0  0  0  0  0  0  0
    3.2197    2.1096   -0.1283 C   0  0  0  0  0  0  0  0  0  0  0  0
    3.9401    1.8731    1.2012 C   0  0  0  0  0  0  0  0  0  0  0  0
    5.2651    2.6175    1.2545 C   0  0  0  0  0  0  0  0  0  0  0  0
    1.4173   -2.1583   -0.2727 N   0  0  0  0  0  0  0  0  0  0  0  0
    0.4733   -3.0424   -0.3409 C   0  0  0  0  0  0  0  0  0  0  0  0
    0.5958   -4.4346   -0.3502 N   0  0  0  0  0  0  0  0  0  0  0  0
    1.7473   -5.0750   -0.9565 C   0  0  0  0  0  0  0  0  0  0  0  0
   -0.9684   -5.7381   -0.0474 H   0  0  0  0  0  0  0  0  0  0  0  0
   -2.6384   -4.0704   -0.6371 H   0  0  0  0  0  0  0  0  0  0  0  0
   -2.8804    0.6496   -2.4715 H   0  0  0  0  0  0  0  0  0  0  0  0
   -3.4238    3.0699   -2.4115 H   0  0  0  0  0  0  0  0  0  0  0  0
   -4.0628    4.7453    0.6265 H   0  0  0  0  0  0  0  0  0  0  0  0
   -3.6936    2.9050    1.8739 H   0  0  0  0  0  0  0  0  0  0  0  0
   -3.5322    0.8493    3.0278 H   0  0  0  0  0  0  0  0  0  0  0  0
   -3.7220   -0.6520    2.1243 H   0  0  0  0  0  0  0  0  0  0  0  0
   -2.0913    0.0169    2.4194 H   0  0  0  0  0  0  0  0  0  0  0  0
   -0.4532    0.5439   -0.2670 H   0  0  0  0  0  0  0  0  0  0  0  0
    1.2557    1.7035    0.6714 H   0  0  0  0  0  0  0  0  0  0  0  0
    1.3501    1.7264   -1.1063 H   0  0  0  0  0  0  0  0  0  0  0  0
    3.8530    1.7682   -0.9565 H   0  0  0  0  0  0  0  0  0  0  0  0
    3.0618    3.1863   -0.2650 H   0  0  0  0  0  0  0  0  0  0  0  0
    4.1277    0.8031    1.3460 H   0  0  0  0  0  0  0  0  0  0  0  0
    3.3072    2.2069    2.0316 H   0  0  0  0  0  0  0  0  0  0  0  0
    5.1136    3.6965    1.1496 H   0  0  0  0  0  0  0  0  0  0  0  0
    5.9344    2.2846    0.4547 H   0  0  0  0  0  0  0  0  0  0  0  0
    5.7634    2.4361    2.2120 H   0  0  0  0  0  0  0  0  0  0  0  0
    1.7707   -4.8918   -2.0358 H   0  0  0  0  0  0  0  0  0  0  0  0
    1.7140   -6.1563   -0.7880 H   0  0  0  0  0  0  0  0  0  0  0  0
    2.6756   -4.6972   -0.5161 H   0  0  0  0  0  0  0  0  0  0  0  0
  1  2  1  0
  2  3  2  0
  3  4  1  0
  4  5  2  3
  5  6  1  0
  6  7  2  0
  7  8  1  0
  8  9  2  0
  9 10  1  0
  9 11  1  0
 11 12  2  0
 12 13  1  0
  4 14  1  0
 14 15  1  0
 15 16  2  3
 16 17  1  0
 17 18  1  0
 18 19  1  0
 19 20  1  0
 15 21  1  0
 21 22  2  0
 22 23  1  0
 23 24  1  0
 23  1  1  0
 22  3  1  0
 12  6  1  0
  1 25  1  0
  2 26  1  0
  7 27  1  0
  8 28  1  0
 10 29  1  0
 11 30  1  0
 13 31  1  0
 13 32  1  0
 13 33  1  0
 14 34  1  0
 17 35  1  0
 17 36  1  0
 18 37  1  0
 18 38  1  0
 19 39  1  0
 19 40  1  0
 20 41  1  0
 20 42  1  0
 20 43  1  0
 24 44  1  0
 24 45  1  0
 24 46  1  0
M  END
>  <ScrubInfo>  (8) 
{"isomerGroup": 0, "isomerId": 7, "confId": 0, "nr_conformers:": 1, "nr_isomers:": 9}

$$$$
_i8
     RDKit          3D

 46 48  0  0  0  0  0  0  0  0999 V2000
    1.3924    1.7410    0.2426 N   0  0  0  0  0  0  0  0  0  0  0  0
    0.9450    0.5236    0.7354 C   0  0  0  0  0  0  0  0  0  0  0  0
    1.6410   -0.4343    1.2452 N   0  0  0  0  0  0  0  0  0  0  0  0
    3.0880   -0.3047    1.3822 C   0  0  0  0  0  0  0  0  0  0  0  0
    3.7990   -0.7284    0.0974 C   0  0  0  0  0  0  0  0  0  0  0  0
    3.5888   -2.2088   -0.2289 C   0  0  0  0  0  0  0  0  0  0  0  0
    4.3464   -2.6133   -1.4839 C   0  0  0  0  0  0  0  0  0  0  0  0
   -0.4229    0.3560    0.6400 N   0  0  0  0  0  0  0  0  0  0  0  0
   -1.4068    1.1844    0.1377 C   0  0  0  0  0  0  0  0  0  0  0  0
   -2.6856    1.0289    0.0392 N   0  0  0  0  0  0  0  0  0  0  0  0
   -3.2366   -0.1722    0.5093 C   0  0  0  0  0  0  0  0  0  0  0  0
   -3.6244   -0.2649    1.8514 C   0  0  0  0  0  0  0  0  0  0  0  0
   -4.1607   -1.4492    2.3549 C   0  0  0  0  0  0  0  0  0  0  0  0
   -4.3195   -2.5400    1.5116 C   0  0  0  0  0  0  0  0  0  0  0  0
   -4.8435   -3.6807    2.0430 O   0  0  0  0  0  0  0  0  0  0  0  0
   -3.9579   -2.4648    0.1690 C   0  0  0  0  0  0  0  0  0  0  0  0
   -3.4235   -1.2732   -0.3475 C   0  0  0  0  0  0  0  0  0  0  0  0
   -3.0353   -1.1929   -1.7974 C   0  0  0  0  0  0  0  0  0  0  0  0
   -0.8370    2.4174   -0.3500 C   0  0  0  0  0  0  0  0  0  0  0  0
   -1.3467    3.5776   -0.9502 C   0  0  0  0  0  0  0  0  0  0  0  0
   -0.3833    4.4667   -1.2371 N   0  0  0  0  0  0  0  0  0  0  0  0
    0.7525    3.8655   -0.8066 N   0  0  0  0  0  0  0  0  0  0  0  0
    2.0074    4.5565   -0.9622 C   0  0  0  0  0  0  0  0  0  0  0  0
    0.5171    2.6339   -0.2744 C   0  0  0  0  0  0  0  0  0  0  0  0
    2.3880    1.9101    0.2651 H   0  0  0  0  0  0  0  0  0  0  0  0
    3.4121   -0.9454    2.2106 H   0  0  0  0  0  0  0  0  0  0  0  0
    3.3818    0.7126    1.6649 H   0  0  0  0  0  0  0  0  0  0  0  0
    3.4543   -0.1161   -0.7443 H   0  0  0  0  0  0  0  0  0  0  0  0
    4.8722   -0.5350    0.2144 H   0  0  0  0  0  0  0  0  0  0  0  0
    2.5230   -2.4173   -0.3756 H   0  0  0  0  0  0  0  0  0  0  0  0
    3.9285   -2.8267    0.6105 H   0  0  0  0  0  0  0  0  0  0  0  0
    4.0081   -2.0349   -2.3496 H   0  0  0  0  0  0  0  0  0  0  0  0
    5.4223   -2.4528   -1.3619 H   0  0  0  0  0  0  0  0  0  0  0  0
    4.1836   -3.6740   -1.6995 H   0  0  0  0  0  0  0  0  0  0  0  0
   -0.7359   -0.5334    1.0020 H   0  0  0  0  0  0  0  0  0  0  0  0
   -3.5070    0.5944    2.5065 H   0  0  0  0  0  0  0  0  0  0  0  0
   -4.4566   -1.5172    3.3977 H   0  0  0  0  0  0  0  0  0  0  0  0
   -4.9290   -4.3430    1.3378 H   0  0  0  0  0  0  0  0  0  0  0  0
   -4.0918   -3.3217   -0.4849 H   0  0  0  0  0  0  0  0  0  0  0  0
   -1.9456   -1.1634   -1.8952 H   0  0  0  0  0  0  0  0  0  0  0  0
   -3.4018   -2.0597   -2.3575 H   0  0  0  0  0  0  0  0  0  0  0  0
   -3.4669   -0.3009   -2.2629 H   0  0  0  0  0  0  0  0  0  0  0  0
   -2.3755    3.8122   -1.1926 H   0  0  0  0  0  0  0  0  0  0  0  0
    2.2733    4.5461   -2.0220 H   0  0  0  0  0  0  0  0  0  0  0  0
    1.8869    5.5837   -0.6084 H   0  0  0  0  0  0  0  0  0  0  0  0
    2.7820    4.0583   -0.3756 H   0  0  0  0  0  0  0  0  0  0  0  0
  1  2  1  0
  2  3  2  3
  3  4  1  0
  4  5  1  0
  5  6  1  0
  6  7  1  0
  2  8  1  0
  8  9  1  0
  9 10  2  3
 10 11  1  0
 11 12  2  0
 12 13  1  0
 13 14  2  0
 14 15  1  0
 14 16  1  0
 16 17  2  0
 17 18  1  0
  9 19  1  0
 19 20  1  0
 20 21  2  0
 21 22  1  0
 22 23  1  0
 22 24  1  0
 24  1  1  0
 17 11  1  0
 24 19  2  0
  1 25  1  0
  4 26  1  0
  4 27  1  0
  5 28  1  0
  5 29  1  0
  6 30  1  0
  6 31  1  0
  7 32  1  0
  7 33  1  0
  7 34  1  0
  8 35  1  0
 12 36  1  0
 13 37  1  0
 15 38  1  0
 16 39  1  0
 18 40  1  0
 18 41  1  0
 18 42  1  0
 20 43  1  0
 23 44  1  0
 23 45  1  0
 23 46  1  0
M  END
>  <ScrubInfo>  (9) 
{"isomerGroup": 0, "isomerId": 8, "confId": 0, "nr_conformers:": 1, "nr_isomers:": 9}

$$$$
