_i0
     RDKit          3D

 43 45  0  0  0  0  0  0  0  0999 V2000
    6.3415   -1.3567    0.6453 C   0  0  0  0  0  0  0  0  0  0  0  0
    5.2014   -1.7168   -0.1245 O   0  0  0  0  0  0  0  0  0  0  0  0
    4.0283   -1.9058    0.6653 C   0  0  0  0  0  0  0  0  0  0  0  0
    3.3635   -0.5876    1.0494 C   0  0  0  0  0  0  0  0  0  0  0  0
    3.0195    0.2495   -0.1831 C   0  0  0  0  0  0  0  0  0  0  0  0
    2.3393    1.4776    0.2060 N   0  0  0  0  0  0  0  0  0  0  0  0
    0.9499    1.4289    0.1887 C   0  0  0  0  0  0  0  0  0  0  0  0
    0.3162    0.2936    0.5383 N   0  0  0  0  0  0  0  0  0  0  0  0
   -1.0386    0.2290    0.5234 C   0  0  0  0  0  0  0  0  0  0  0  0
   -1.5974   -1.0139    0.9012 N   0  0  0  0  0  0  0  0  0  0  0  0
   -2.7199   -1.5966    0.2647 C   0  0  0  0  0  0  0  0  0  0  0  0
   -3.9708   -1.4963    0.8893 C   0  0  0  0  0  0  0  0  0  0  0  0
   -5.1138   -2.0184    0.2797 C   0  0  0  0  0  0  0  0  0  0  0  0
   -5.0126   -2.6414   -0.9627 C   0  0  0  0  0  0  0  0  0  0  0  0
   -6.4226   -3.2830   -1.7107 Cl  0  0  0  0  0  0  0  0  0  0  0  0
   -3.7808   -2.7509   -1.6027 C   0  0  0  0  0  0  0  0  0  0  0  0
   -2.6396   -2.2288   -0.9909 C   0  0  0  0  0  0  0  0  0  0  0  0
   -1.1247   -2.4017   -1.8059 Cl  0  0  0  0  0  0  0  0  0  0  0  0
   -1.7409    1.3743    0.1422 C   0  0  0  0  0  0  0  0  0  0  0  0
   -3.0730    1.8065   -0.0210 C   0  0  0  0  0  0  0  0  0  0  0  0
   -3.1659    3.0772   -0.4306 N   0  0  0  0  0  0  0  0  0  0  0  0
   -1.8736    3.4645   -0.5255 N   0  0  0  0  0  0  0  0  0  0  0  0
   -1.5656    4.8091   -0.9426 C   0  0  0  0  0  0  0  0  0  0  0  0
   -0.9832    2.4800   -0.1949 C   0  0  0  0  0  0  0  0  0  0  0  0
    0.3555    2.5644   -0.1948 N   0  0  0  0  0  0  0  0  0  0  0  0
    6.5542   -2.1202    1.3997 H   0  0  0  0  0  0  0  0  0  0  0  0
    7.1997   -1.2878   -0.0289 H   0  0  0  0  0  0  0  0  0  0  0  0
    6.2008   -0.3828    1.1213 H   0  0  0  0  0  0  0  0  0  0  0  0
    4.2619   -2.4991    1.5571 H   0  0  0  0  0  0  0  0  0  0  0  0
    3.3310   -2.4982    0.0624 H   0  0  0  0  0  0  0  0  0  0  0  0
    4.0245   -0.0049    1.7015 H   0  0  0  0  0  0  0  0  0  0  0  0
    2.4643   -0.8069    1.6357 H   0  0  0  0  0  0  0  0  0  0  0  0
    2.4384   -0.3287   -0.9132 H   0  0  0  0  0  0  0  0  0  0  0  0
    3.9494    0.5344   -0.6898 H   0  0  0  0  0  0  0  0  0  0  0  0
    2.5863    2.2895   -0.3505 H   0  0  0  0  0  0  0  0  0  0  0  0
   -0.7917   -1.6400    0.8289 H   0  0  0  0  0  0  0  0  0  0  0  0
   -4.0540   -1.0113    1.8601 H   0  0  0  0  0  0  0  0  0  0  0  0
   -6.0764   -1.9352    0.7786 H   0  0  0  0  0  0  0  0  0  0  0  0
   -3.7094   -3.2401   -2.5703 H   0  0  0  0  0  0  0  0  0  0  0  0
   -3.9875    1.2533    0.1401 H   0  0  0  0  0  0  0  0  0  0  0  0
   -2.0178    5.5024   -0.2289 H   0  0  0  0  0  0  0  0  0  0  0  0
   -0.4836    4.9561   -0.9664 H   0  0  0  0  0  0  0  0  0  0  0  0
   -1.9821    4.9630   -1.9413 H   0  0  0  0  0  0  0  0  0  0  0  0
  1  2  1  0
  2  3  1  0
  3  4  1  0
  4  5  1  0
  5  6  1  0
  6  7  1  0
  7  8  2  0
  8  9  1  0
  9 10  1  0
 10 11  1  0
 11 12  2  0
 12 13  1  0
 13 14  2  0
 14 15  1  0
 14 16  1  0
 16 17  2  0
 17 18  1  0
  9 19  2  0
 19 20  1  0
 20 21  2  0
 21 22  1  0
 22 23  1  0
 22 24  1  0
 24 25  2  0
 25  7  1  0
 17 11  1  0
 24 19  1  0
  1 26  1  0
  1 27  1  0
  1 28  1  0
  3 29  1  0
  3 30  1  0
  4 31  1  0
  4 32  1  0
  5 33  1  0
  5 34  1  0
  6 35  1  0
 10 36  1  0
 12 37  1  0
 13 38  1  0
 16 39  1  0
 20 40  1  0
 23 41  1  0
 23 42  1  0
 23 43  1  0
M  END
>  <ScrubInfo>  (1) 
{"isomerGroup": 0, "isomerId": 0, "confId": 0, "nr_conformers:": 1, "nr_isomers:": 9}

$$$$
_i1
     RDKit          3D

 43 45  0  0  0  0  0  0  0  0999 V2000
   -1.0256    0.0477    0.0981 N   0  0  0  0  0  0  0  0  0  0  0  0
   -2.0985   -0.8211    0.1576 C   0  0  0  0  0  0  0  0  0  0  0  0
   -3.3802   -0.4238    0.4840 N   0  0  0  0  0  0  0  0  0  0  0  0
   -4.0071    0.8365    0.3742 C   0  0  0  0  0  0  0  0  0  0  0  0
   -3.5077    1.8645   -0.4377 C   0  0  0  0  0  0  0  0  0  0  0  0
   -4.1312    3.1169   -0.4817 C   0  0  0  0  0  0  0  0  0  0  0  0
   -5.2640    3.3592    0.2903 C   0  0  0  0  0  0  0  0  0  0  0  0
   -6.0256    4.8998    0.2302 Cl  0  0  0  0  0  0  0  0  0  0  0  0
   -5.7868    2.3610    1.1037 C   0  0  0  0  0  0  0  0  0  0  0  0
   -5.1606    1.1131    1.1427 C   0  0  0  0  0  0  0  0  0  0  0  0
   -5.8461   -0.1083    2.1634 Cl  0  0  0  0  0  0  0  0  0  0  0  0
   -1.7881   -2.1043   -0.0694 C   0  0  0  0  0  0  0  0  0  0  0  0
   -2.4753   -3.4002   -0.1056 C   0  0  0  0  0  0  0  0  0  0  0  0
   -1.6783   -4.3974   -0.3938 N   0  0  0  0  0  0  0  0  0  0  0  0
   -0.4191   -3.8167   -0.6170 N   0  0  0  0  0  0  0  0  0  0  0  0
    0.7452   -4.6685   -0.6515 C   0  0  0  0  0  0  0  0  0  0  0  0
   -0.3839   -2.4506   -0.3870 C   0  0  0  0  0  0  0  0  0  0  0  0
    0.6066   -1.6250   -0.4123 N   0  0  0  0  0  0  0  0  0  0  0  0
    0.2770   -0.3207   -0.1173 C   0  0  0  0  0  0  0  0  0  0  0  0
    1.1949    0.5840   -0.0244 N   0  0  0  0  0  0  0  0  0  0  0  0
    2.5751    0.1573   -0.2580 C   0  0  0  0  0  0  0  0  0  0  0  0
    3.4838    1.3731   -0.1086 C   0  0  0  0  0  0  0  0  0  0  0  0
    4.9429    1.0056   -0.3413 C   0  0  0  0  0  0  0  0  0  0  0  0
    5.7393    2.1803   -0.1869 O   0  0  0  0  0  0  0  0  0  0  0  0
    7.1189    1.9092   -0.3925 C   0  0  0  0  0  0  0  0  0  0  0  0
   -1.1574    0.9787    0.4642 H   0  0  0  0  0  0  0  0  0  0  0  0
   -4.0157   -1.1550    0.7956 H   0  0  0  0  0  0  0  0  0  0  0  0
   -2.6484    1.7020   -1.0838 H   0  0  0  0  0  0  0  0  0  0  0  0
   -3.7284    3.8944   -1.1273 H   0  0  0  0  0  0  0  0  0  0  0  0
   -6.6728    2.5510    1.7031 H   0  0  0  0  0  0  0  0  0  0  0  0
   -3.5481   -3.4814    0.1106 H   0  0  0  0  0  0  0  0  0  0  0  0
    0.5121   -5.6245   -1.1315 H   0  0  0  0  0  0  0  0  0  0  0  0
    1.1011   -4.8683    0.3640 H   0  0  0  0  0  0  0  0  0  0  0  0
    1.5553   -4.1994   -1.2190 H   0  0  0  0  0  0  0  0  0  0  0  0
    2.8707   -0.6065    0.4717 H   0  0  0  0  0  0  0  0  0  0  0  0
    2.6855   -0.2541   -1.2689 H   0  0  0  0  0  0  0  0  0  0  0  0
    3.1852    2.1607   -0.8123 H   0  0  0  0  0  0  0  0  0  0  0  0
    3.3691    1.8141    0.8898 H   0  0  0  0  0  0  0  0  0  0  0  0
    5.0763    0.6059   -1.3533 H   0  0  0  0  0  0  0  0  0  0  0  0
    5.2641    0.2503    0.3854 H   0  0  0  0  0  0  0  0  0  0  0  0
    7.2896    1.5393   -1.4081 H   0  0  0  0  0  0  0  0  0  0  0  0
    7.6763    2.8406   -0.2619 H   0  0  0  0  0  0  0  0  0  0  0  0
    7.4796    1.1805    0.3399 H   0  0  0  0  0  0  0  0  0  0  0  0
  1  2  1  0
  2  3  1  0
  3  4  1  0
  4  5  2  0
  5  6  1  0
  6  7  2  0
  7  8  1  0
  7  9  1  0
  9 10  2  0
 10 11  1  0
  2 12  2  0
 12 13  1  0
 13 14  2  0
 14 15  1  0
 15 16  1  0
 15 17  1  0
 17 18  2  0
 18 19  1  0
 19 20  2  3
 20 21  1  0
 21 22  1  0
 22 23  1  0
 23 24  1  0
 24 25  1  0
 19  1  1  0
 10  4  1  0
 17 12  1  0
  1 26  1  0
  3 27  1  0
  5 28  1  0
  6 29  1  0
  9 30  1  0
 13 31  1  0
 16 32  1  0
 16 33  1  0
 16 34  1  0
 21 35  1  0
 21 36  1  0
 22 37  1  0
 22 38  1  0
 23 39  1  0
 23 40  1  0
 25 41  1  0
 25 42  1  0
 25 43  1  0
M  END
>  <ScrubInfo>  (2) 
{"isomerGroup": 0, "isomerId": 1, "confId": 0, "nr_conformers:": 1, "nr_isomers:": 9}

$$$$
_i2
     RDKit          3D

 43 45  0  0  0  0  0  0  0  0999 V2000
    0.0536    0.3829   -0.6227 N   0  0  0  0  0  0  0  0  0  0  0  0
    0.8532   -0.5907   -0.0713 C   0  0  0  0  0  0  0  0  0  0  0  0
    2.1365   -0.5474   -0.5535 N   0  0  0  0  0  0  0  0  0  0  0  0
    3.1686   -1.4123    0.0110 C   0  0  0  0  0  0  0  0  0  0  0  0
    4.3310   -1.5857   -0.9664 C   0  0  0  0  0  0  0  0  0  0  0  0
    5.0858   -0.2995   -1.2827 C   0  0  0  0  0  0  0  0  0  0  0  0
    5.5126    0.3156   -0.0704 O   0  0  0  0  0  0  0  0  0  0  0  0
    6.2852    1.4842   -0.3156 C   0  0  0  0  0  0  0  0  0  0  0  0
    0.4299   -1.4632    0.8051 N   0  0  0  0  0  0  0  0  0  0  0  0
   -0.8848   -1.2788    1.1110 C   0  0  0  0  0  0  0  0  0  0  0  0
   -1.7665   -0.3368    0.6033 C   0  0  0  0  0  0  0  0  0  0  0  0
   -2.9719   -0.5914    1.2800 C   0  0  0  0  0  0  0  0  0  0  0  0
   -2.8780   -1.6083    2.1457 N   0  0  0  0  0  0  0  0  0  0  0  0
   -1.5956   -2.0182    2.0138 N   0  0  0  0  0  0  0  0  0  0  0  0
   -1.1212   -3.1250    2.8055 C   0  0  0  0  0  0  0  0  0  0  0  0
   -1.2866    0.5964   -0.3965 C   0  0  0  0  0  0  0  0  0  0  0  0
   -1.9441    1.5165   -1.0352 N   0  0  0  0  0  0  0  0  0  0  0  0
   -3.3184    1.7159   -0.8515 C   0  0  0  0  0  0  0  0  0  0  0  0
   -3.7382    2.7002    0.0518 C   0  0  0  0  0  0  0  0  0  0  0  0
   -5.0977    2.9627    0.2374 C   0  0  0  0  0  0  0  0  0  0  0  0
   -6.0460    2.2504   -0.4945 C   0  0  0  0  0  0  0  0  0  0  0  0
   -7.7192    2.5767   -0.2650 Cl  0  0  0  0  0  0  0  0  0  0  0  0
   -5.6508    1.2820   -1.4138 C   0  0  0  0  0  0  0  0  0  0  0  0
   -4.2904    1.0225   -1.5971 C   0  0  0  0  0  0  0  0  0  0  0  0
   -3.8384   -0.1770   -2.7572 Cl  0  0  0  0  0  0  0  0  0  0  0  0
    0.4208    0.8946   -1.4077 H   0  0  0  0  0  0  0  0  0  0  0  0
    2.4783    0.4002   -0.6679 H   0  0  0  0  0  0  0  0  0  0  0  0
    2.7566   -2.4083    0.2132 H   0  0  0  0  0  0  0  0  0  0  0  0
    3.5126   -1.0010    0.9665 H   0  0  0  0  0  0  0  0  0  0  0  0
    3.9713   -2.0290   -1.9025 H   0  0  0  0  0  0  0  0  0  0  0  0
    5.0343   -2.2989   -0.5186 H   0  0  0  0  0  0  0  0  0  0  0  0
    5.9589   -0.5374   -1.9017 H   0  0  0  0  0  0  0  0  0  0  0  0
    4.4482    0.3950   -1.8411 H   0  0  0  0  0  0  0  0  0  0  0  0
    5.6955    2.2241   -0.8652 H   0  0  0  0  0  0  0  0  0  0  0  0
    6.5752    1.9132    0.6472 H   0  0  0  0  0  0  0  0  0  0  0  0
    7.1920    1.2334   -0.8743 H   0  0  0  0  0  0  0  0  0  0  0  0
   -3.9256   -0.0904    1.2001 H   0  0  0  0  0  0  0  0  0  0  0  0
   -0.1252   -3.4255    2.4731 H   0  0  0  0  0  0  0  0  0  0  0  0
   -1.8150   -3.9609    2.6833 H   0  0  0  0  0  0  0  0  0  0  0  0
   -1.0869   -2.8073    3.8505 H   0  0  0  0  0  0  0  0  0  0  0  0
   -2.9980    3.2658    0.6130 H   0  0  0  0  0  0  0  0  0  0  0  0
   -5.4071    3.7253    0.9480 H   0  0  0  0  0  0  0  0  0  0  0  0
   -6.3945    0.7355   -1.9871 H   0  0  0  0  0  0  0  0  0  0  0  0
  1  2  1  0
  2  3  1  0
  3  4  1  0
  4  5  1  0
  5  6  1  0
  6  7  1  0
  7  8  1  0
  2  9  2  0
  9 10  1  0
 10 11  2  0
 11 12  1  0
 12 13  2  0
 13 14  1  0
 14 15  1  0
 11 16  1  0
 16 17  2  3
 17 18  1  0
 18 19  2  0
 19 20  1  0
 20 21  2  0
 21 22  1  0
 21 23  1  0
 23 24  2  0
 24 25  1  0
 16  1  1  0
 24 18  1  0
 14 10  1  0
  1 26  1  0
  3 27  1  0
  4 28  1  0
  4 29  1  0
  5 30  1  0
  5 31  1  0
  6 32  1  0
  6 33  1  0
  8 34  1  0
  8 35  1  0
  8 36  1  0
 12 37  1  0
 15 38  1  0
 15 39  1  0
 15 40  1  0
 19 41  1  0
 20 42  1  0
 23 43  1  0
M  END
>  <ScrubInfo>  (3) 
{"isomerGroup": 0, "isomerId": 2, "confId": 0, "nr_conformers:": 1, "nr_isomers:": 9}

$$$$
_i3
     RDKit          3D

 43 45  0  0  0  0  0  0  0  0999 V2000
    0.3928   -2.3082   -0.4146 N   0  0  0  0  0  0  0  0  0  0  0  0
    0.9336   -1.0504   -0.2490 C   0  0  0  0  0  0  0  0  0  0  0  0
    2.1141   -0.8288   -0.7304 N   0  0  0  0  0  0  0  0  0  0  0  0
    2.6651    0.5164   -0.5381 C   0  0  0  0  0  0  0  0  0  0  0  0
    4.0533    0.5510   -1.1758 C   0  0  0  0  0  0  0  0  0  0  0  0
    4.6837    1.9395   -1.1096 C   0  0  0  0  0  0  0  0  0  0  0  0
    4.7717    2.4563    0.2172 O   0  0  0  0  0  0  0  0  0  0  0  0
    5.7965    1.8480    0.9914 C   0  0  0  0  0  0  0  0  0  0  0  0
    0.2465   -0.0411    0.4111 N   0  0  0  0  0  0  0  0  0  0  0  0
   -0.9469   -0.2851    0.8742 C   0  0  0  0  0  0  0  0  0  0  0  0
   -1.6930    0.6355    1.5600 N   0  0  0  0  0  0  0  0  0  0  0  0
   -2.8453    1.2934    1.0347 C   0  0  0  0  0  0  0  0  0  0  0  0
   -3.4660    0.9007   -0.1609 C   0  0  0  0  0  0  0  0  0  0  0  0
   -4.6302    1.5358   -0.6083 C   0  0  0  0  0  0  0  0  0  0  0  0
   -5.1951    2.5653    0.1394 C   0  0  0  0  0  0  0  0  0  0  0  0
   -6.6261    3.3395   -0.4177 Cl  0  0  0  0  0  0  0  0  0  0  0  0
   -4.6096    2.9705    1.3331 C   0  0  0  0  0  0  0  0  0  0  0  0
   -3.4478    2.3344    1.7764 C   0  0  0  0  0  0  0  0  0  0  0  0
   -2.7486    2.8719    3.2666 Cl  0  0  0  0  0  0  0  0  0  0  0  0
   -1.5310   -1.6019    0.7610 C   0  0  0  0  0  0  0  0  0  0  0  0
   -2.6977   -2.2606    1.1761 C   0  0  0  0  0  0  0  0  0  0  0  0
   -2.7271   -3.5425    0.7774 N   0  0  0  0  0  0  0  0  0  0  0  0
   -1.5494   -3.7076    0.1235 N   0  0  0  0  0  0  0  0  0  0  0  0
   -1.2282   -4.9973   -0.4321 C   0  0  0  0  0  0  0  0  0  0  0  0
   -0.8173   -2.5645    0.1032 C   0  0  0  0  0  0  0  0  0  0  0  0
    0.9939   -2.9676   -0.8903 H   0  0  0  0  0  0  0  0  0  0  0  0
    2.7452    0.7490    0.5304 H   0  0  0  0  0  0  0  0  0  0  0  0
    2.0261    1.2653   -1.0217 H   0  0  0  0  0  0  0  0  0  0  0  0
    3.9872    0.2399   -2.2256 H   0  0  0  0  0  0  0  0  0  0  0  0
    4.6950   -0.1827   -0.6744 H   0  0  0  0  0  0  0  0  0  0  0  0
    4.0672    2.6415   -1.6821 H   0  0  0  0  0  0  0  0  0  0  0  0
    5.6760    1.9361   -1.5760 H   0  0  0  0  0  0  0  0  0  0  0  0
    5.5672    0.7972    1.1869 H   0  0  0  0  0  0  0  0  0  0  0  0
    6.7656    1.9385    0.4916 H   0  0  0  0  0  0  0  0  0  0  0  0
    5.8522    2.3686    1.9514 H   0  0  0  0  0  0  0  0  0  0  0  0
   -1.0887    1.3604    1.9483 H   0  0  0  0  0  0  0  0  0  0  0  0
   -3.0539    0.1079   -0.7802 H   0  0  0  0  0  0  0  0  0  0  0  0
   -5.0887    1.2187   -1.5424 H   0  0  0  0  0  0  0  0  0  0  0  0
   -5.0534    3.7730    1.9157 H   0  0  0  0  0  0  0  0  0  0  0  0
   -3.5306   -1.8702    1.7467 H   0  0  0  0  0  0  0  0  0  0  0  0
   -2.0210   -5.2799   -1.1293 H   0  0  0  0  0  0  0  0  0  0  0  0
   -0.2733   -4.9482   -0.9595 H   0  0  0  0  0  0  0  0  0  0  0  0
   -1.1640   -5.7180    0.3869 H   0  0  0  0  0  0  0  0  0  0  0  0
  1  2  1  0
  2  3  2  3
  3  4  1  0
  4  5  1  0
  5  6  1  0
  6  7  1  0
  7  8  1  0
  2  9  1  0
  9 10  2  0
 10 11  1  0
 11 12  1  0
 12 13  2  0
 13 14  1  0
 14 15  2  0
 15 16  1  0
 15 17  1  0
 17 18  2  0
 18 19  1  0
 10 20  1  0
 20 21  1  0
 21 22  2  0
 22 23  1  0
 23 24  1  0
 23 25  1  0
 25  1  1  0
 18 12  1  0
 25 20  2  0
  1 26  1  0
  4 27  1  0
  4 28  1  0
  5 29  1  0
  5 30  1  0
  6 31  1  0
  6 32  1  0
  8 33  1  0
  8 34  1  0
  8 35  1  0
 11 36  1  0
 13 37  1  0
 14 38  1  0
 17 39  1  0
 21 40  1  0
 24 41  1  0
 24 42  1  0
 24 43  1  0
M  END
>  <ScrubInfo>  (4) 
{"isomerGroup": 0, "isomerId": 3, "confId": 0, "nr_conformers:": 1, "nr_isomers:": 9}

$$$$
_i4
     RDKit          3D

 43 45  0  0  0  0  0  0  0  0999 V2000
   -1.0978   -2.2879    3.8886 N   0  0  0  0  0  0  0  0  0  0  0  0
   -2.0012   -2.0280    2.8631 C   0  0  0  0  0  0  0  0  0  0  0  0
   -1.5542   -1.1076    1.9993 C   0  0  0  0  0  0  0  0  0  0  0  0
   -2.0082   -0.4852    0.7783 C   0  0  0  0  0  0  0  0  0  0  0  0
   -3.1723   -0.7341    0.2633 N   0  0  0  0  0  0  0  0  0  0  0  0
   -3.5083   -0.1022   -0.9480 C   0  0  0  0  0  0  0  0  0  0  0  0
   -4.2900    1.0590   -0.9018 C   0  0  0  0  0  0  0  0  0  0  0  0
   -4.6635    1.7148   -2.0772 C   0  0  0  0  0  0  0  0  0  0  0  0
   -4.2638    1.2030   -3.3099 C   0  0  0  0  0  0  0  0  0  0  0  0
   -4.7227    2.0129   -4.7572 Cl  0  0  0  0  0  0  0  0  0  0  0  0
   -3.5007    0.0406   -3.3816 C   0  0  0  0  0  0  0  0  0  0  0  0
   -3.1290   -0.6123   -2.2033 C   0  0  0  0  0  0  0  0  0  0  0  0
   -2.1980   -2.0643   -2.3392 Cl  0  0  0  0  0  0  0  0  0  0  0  0
   -1.1102    0.3836    0.2157 N   0  0  0  0  0  0  0  0  0  0  0  0
    0.0428    0.6442    0.7633 C   0  0  0  0  0  0  0  0  0  0  0  0
    0.8379    1.5169    0.0807 N   0  0  0  0  0  0  0  0  0  0  0  0
    2.2576    1.6734    0.2965 C   0  0  0  0  0  0  0  0  0  0  0  0
    3.0628    0.4994   -0.2532 C   0  0  0  0  0  0  0  0  0  0  0  0
    2.9994    0.4029   -1.7753 C   0  0  0  0  0  0  0  0  0  0  0  0
    3.7843   -0.6893   -2.2551 O   0  0  0  0  0  0  0  0  0  0  0  0
    5.1603   -0.3702   -2.4079 C   0  0  0  0  0  0  0  0  0  0  0  0
    0.5046    0.1217    1.9443 N   0  0  0  0  0  0  0  0  0  0  0  0
   -0.2570   -0.7137    2.5602 C   0  0  0  0  0  0  0  0  0  0  0  0
   -0.0463   -1.3806    3.7690 N   0  0  0  0  0  0  0  0  0  0  0  0
    1.2863   -1.7970    4.1624 C   0  0  0  0  0  0  0  0  0  0  0  0
   -1.5384   -2.3482    4.8094 H   0  0  0  0  0  0  0  0  0  0  0  0
   -2.9453   -2.5536    2.8323 H   0  0  0  0  0  0  0  0  0  0  0  0
   -4.6021    1.4546    0.0614 H   0  0  0  0  0  0  0  0  0  0  0  0
   -5.2639    2.6189   -2.0213 H   0  0  0  0  0  0  0  0  0  0  0  0
   -3.1989   -0.3583   -4.3456 H   0  0  0  0  0  0  0  0  0  0  0  0
    0.4838    1.7235   -0.8449 H   0  0  0  0  0  0  0  0  0  0  0  0
    2.5852    2.6034   -0.1822 H   0  0  0  0  0  0  0  0  0  0  0  0
    2.4638    1.7918    1.3667 H   0  0  0  0  0  0  0  0  0  0  0  0
    4.1053    0.6160    0.0639 H   0  0  0  0  0  0  0  0  0  0  0  0
    2.7260   -0.4487    0.1835 H   0  0  0  0  0  0  0  0  0  0  0  0
    1.9688    0.2057   -2.0889 H   0  0  0  0  0  0  0  0  0  0  0  0
    3.3119    1.3384   -2.2542 H   0  0  0  0  0  0  0  0  0  0  0  0
    5.6138   -0.1111   -1.4477 H   0  0  0  0  0  0  0  0  0  0  0  0
    5.2866    0.4521   -3.1186 H   0  0  0  0  0  0  0  0  0  0  0  0
    5.6732   -1.2510   -2.8038 H   0  0  0  0  0  0  0  0  0  0  0  0
    1.9695   -0.9416    4.1730 H   0  0  0  0  0  0  0  0  0  0  0  0
    1.6788   -2.5506    3.4717 H   0  0  0  0  0  0  0  0  0  0  0  0
    1.2695   -2.2238    5.1705 H   0  0  0  0  0  0  0  0  0  0  0  0
  1  2  1  0
  2  3  2  0
  3  4  1  0
  4  5  2  3
  5  6  1  0
  6  7  2  0
  7  8  1  0
  8  9  2  0
  9 10  1  0
  9 11  1  0
 11 12  2  0
 12 13  1  0
  4 14  1  0
 14 15  2  0
 15 16  1  0
 16 17  1  0
 17 18  1  0
 18 19  1  0
 19 20  1  0
 20 21  1  0
 15 22  1  0
 22 23  2  0
 23 24  1  0
 24 25  1  0
 24  1  1  0
 23  3  1  0
 12  6  1  0
  1 26  1  0
  2 27  1  0
  7 28  1  0
  8 29  1  0
 11 30  1  0
 16 31  1  0
 17 32  1  0
 17 33  1  0
 18 34  1  0
 18 35  1  0
 19 36  1  0
 19 37  1  0
 21 38  1  0
 21 39  1  0
 21 40  1  0
 25 41  1  0
 25 42  1  0
 25 43  1  0
M  END
>  <ScrubInfo>  (5) 
{"isomerGroup": 0, "isomerId": 4, "confId": 0, "nr_conformers:": 1, "nr_isomers:": 9}

$$$$
_i5
     RDKit          3D

 43 45  0  0  0  0  0  0  0  0999 V2000
   -0.1973    0.7109    2.0908 N   0  0  0  0  0  0  0  0  0  0  0  0
    0.4507   -0.2571    1.3581 C   0  0  0  0  0  0  0  0  0  0  0  0
    1.4847   -0.8129    2.0662 N   0  0  0  0  0  0  0  0  0  0  0  0
    2.2570   -1.9285    1.5203 C   0  0  0  0  0  0  0  0  0  0  0  0
    3.2741   -1.4331    0.4934 C   0  0  0  0  0  0  0  0  0  0  0  0
    4.0701   -2.5894   -0.1030 C   0  0  0  0  0  0  0  0  0  0  0  0
    4.7765   -3.3239    0.8970 O   0  0  0  0  0  0  0  0  0  0  0  0
    6.0162   -2.7263    1.2542 C   0  0  0  0  0  0  0  0  0  0  0  0
    0.1419   -0.6038    0.1427 N   0  0  0  0  0  0  0  0  0  0  0  0
   -0.9295   -0.0061   -0.5058 C   0  0  0  0  0  0  0  0  0  0  0  0
   -1.2156   -0.4777   -1.6778 N   0  0  0  0  0  0  0  0  0  0  0  0
   -2.2908   -0.0119   -2.4413 C   0  0  0  0  0  0  0  0  0  0  0  0
   -2.0302    0.9096   -3.4633 C   0  0  0  0  0  0  0  0  0  0  0  0
   -3.0602    1.3747   -4.2840 C   0  0  0  0  0  0  0  0  0  0  0  0
   -4.3587    0.9051   -4.0963 C   0  0  0  0  0  0  0  0  0  0  0  0
   -5.6263    1.4796   -5.1074 Cl  0  0  0  0  0  0  0  0  0  0  0  0
   -4.6378   -0.0279   -3.1010 C   0  0  0  0  0  0  0  0  0  0  0  0
   -3.6047   -0.4913   -2.2823 C   0  0  0  0  0  0  0  0  0  0  0  0
   -3.9941   -1.6541   -1.0635 Cl  0  0  0  0  0  0  0  0  0  0  0  0
   -1.5912    1.0785    0.1991 C   0  0  0  0  0  0  0  0  0  0  0  0
   -2.6000    2.0254   -0.0527 C   0  0  0  0  0  0  0  0  0  0  0  0
   -2.8109    2.8523    0.9836 N   0  0  0  0  0  0  0  0  0  0  0  0
   -1.9291    2.4283    1.9168 N   0  0  0  0  0  0  0  0  0  0  0  0
   -1.8820    3.0969    3.1920 C   0  0  0  0  0  0  0  0  0  0  0  0
   -1.1863    1.3810    1.4747 C   0  0  0  0  0  0  0  0  0  0  0  0
    0.2671    1.0451    2.9241 H   0  0  0  0  0  0  0  0  0  0  0  0
    1.2541   -0.9683    3.0405 H   0  0  0  0  0  0  0  0  0  0  0  0
    2.7826   -2.4109    2.3524 H   0  0  0  0  0  0  0  0  0  0  0  0
    1.5877   -2.6819    1.0883 H   0  0  0  0  0  0  0  0  0  0  0  0
    3.9471   -0.7152    0.9761 H   0  0  0  0  0  0  0  0  0  0  0  0
    2.7738   -0.8958   -0.3197 H   0  0  0  0  0  0  0  0  0  0  0  0
    4.7617   -2.2307   -0.8743 H   0  0  0  0  0  0  0  0  0  0  0  0
    3.3831   -3.2902   -0.5902 H   0  0  0  0  0  0  0  0  0  0  0  0
    5.8624   -1.7384    1.6963 H   0  0  0  0  0  0  0  0  0  0  0  0
    6.5005   -3.3645    1.9984 H   0  0  0  0  0  0  0  0  0  0  0  0
    6.6725   -2.6524    0.3818 H   0  0  0  0  0  0  0  0  0  0  0  0
   -1.0126    1.2604   -3.6209 H   0  0  0  0  0  0  0  0  0  0  0  0
   -2.8402    2.0936   -5.0693 H   0  0  0  0  0  0  0  0  0  0  0  0
   -5.6507   -0.3969   -2.9654 H   0  0  0  0  0  0  0  0  0  0  0  0
   -3.1961    2.1753   -0.9415 H   0  0  0  0  0  0  0  0  0  0  0  0
   -1.4450    4.0872    3.0425 H   0  0  0  0  0  0  0  0  0  0  0  0
   -2.9008    3.1829    3.5788 H   0  0  0  0  0  0  0  0  0  0  0  0
   -1.2737    2.5199    3.8917 H   0  0  0  0  0  0  0  0  0  0  0  0
  1  2  1  0
  2  3  1  0
  3  4  1  0
  4  5  1  0
  5  6  1  0
  6  7  1  0
  7  8  1  0
  2  9  2  0
  9 10  1  0
 10 11  2  3
 11 12  1  0
 12 13  2  0
 13 14  1  0
 14 15  2  0
 15 16  1  0
 15 17  1  0
 17 18  2  0
 18 19  1  0
 10 20  1  0
 20 21  1  0
 21 22  2  0
 22 23  1  0
 23 24  1  0
 23 25  1  0
 25  1  1  0
 18 12  1  0
 25 20  2  0
  1 26  1  0
  3 27  1  0
  4 28  1  0
  4 29  1  0
  5 30  1  0
  5 31  1  0
  6 32  1  0
  6 33  1  0
  8 34  1  0
  8 35  1  0
  8 36  1  0
 13 37  1  0
 14 38  1  0
 17 39  1  0
 21 40  1  0
 24 41  1  0
 24 42  1  0
 24 43  1  0
M  END
>  <ScrubInfo>  (6) 
{"isomerGroup": 0, "isomerId": 5, "confId": 0, "nr_conformers:": 1, "nr_isomers:": 9}

$$$$
_i6
     RDKit          3D

 43 45  0  0  0  0  0  0  0  0999 V2000
   -1.8853   -2.4369   -1.9893 N   0  0  0  0  0  0  0  0  0  0  0  0
   -2.3952   -1.3636   -1.2667 C   0  0  0  0  0  0  0  0  0  0  0  0
   -1.5098   -0.3705   -1.1088 C   0  0  0  0  0  0  0  0  0  0  0  0
   -1.4186    0.9421   -0.4717 C   0  0  0  0  0  0  0  0  0  0  0  0
   -2.4503    1.5505    0.2151 N   0  0  0  0  0  0  0  0  0  0  0  0
   -3.3218    0.8599    1.0913 C   0  0  0  0  0  0  0  0  0  0  0  0
   -4.6954    1.1200    0.9587 C   0  0  0  0  0  0  0  0  0  0  0  0
   -5.6258    0.5244    1.8134 C   0  0  0  0  0  0  0  0  0  0  0  0
   -5.1874   -0.3169    2.8317 C   0  0  0  0  0  0  0  0  0  0  0  0
   -6.3329   -1.0513    3.8833 Cl  0  0  0  0  0  0  0  0  0  0  0  0
   -3.8285   -0.5556    3.0136 C   0  0  0  0  0  0  0  0  0  0  0  0
   -2.8976    0.0425    2.1582 C   0  0  0  0  0  0  0  0  0  0  0  0
   -1.2252   -0.2372    2.4943 Cl  0  0  0  0  0  0  0  0  0  0  0  0
   -0.2979    1.6025   -0.5727 N   0  0  0  0  0  0  0  0  0  0  0  0
    0.7650    1.0225   -1.2305 C   0  0  0  0  0  0  0  0  0  0  0  0
    1.8489    1.7096   -1.1538 N   0  0  0  0  0  0  0  0  0  0  0  0
    3.0570    1.2182   -1.8118 C   0  0  0  0  0  0  0  0  0  0  0  0
    3.8403    0.2851   -0.8946 C   0  0  0  0  0  0  0  0  0  0  0  0
    4.2878    0.9700    0.3909 C   0  0  0  0  0  0  0  0  0  0  0  0
    5.1084    0.0559    1.1248 O   0  0  0  0  0  0  0  0  0  0  0  0
    5.5352    0.6192    2.3579 C   0  0  0  0  0  0  0  0  0  0  0  0
    0.7581   -0.1692   -1.9171 N   0  0  0  0  0  0  0  0  0  0  0  0
   -0.3358   -0.8465   -1.8720 C   0  0  0  0  0  0  0  0  0  0  0  0
   -0.6331   -2.0709   -2.4718 N   0  0  0  0  0  0  0  0  0  0  0  0
    0.3899   -3.0890   -2.6234 C   0  0  0  0  0  0  0  0  0  0  0  0
   -2.5391   -2.8141   -2.6793 H   0  0  0  0  0  0  0  0  0  0  0  0
   -3.4140   -1.4110   -0.9114 H   0  0  0  0  0  0  0  0  0  0  0  0
   -2.0952    2.3951    0.6625 H   0  0  0  0  0  0  0  0  0  0  0  0
   -5.0473    1.7838    0.1704 H   0  0  0  0  0  0  0  0  0  0  0  0
   -6.6862    0.7262    1.6817 H   0  0  0  0  0  0  0  0  0  0  0  0
   -3.4926   -1.1937    3.8273 H   0  0  0  0  0  0  0  0  0  0  0  0
    3.6785    2.0853   -2.0652 H   0  0  0  0  0  0  0  0  0  0  0  0
    2.8438    0.7251   -2.7679 H   0  0  0  0  0  0  0  0  0  0  0  0
    3.2469   -0.6021   -0.6420 H   0  0  0  0  0  0  0  0  0  0  0  0
    4.7221   -0.0896   -1.4291 H   0  0  0  0  0  0  0  0  0  0  0  0
    3.4214    1.2488    1.0012 H   0  0  0  0  0  0  0  0  0  0  0  0
    4.8694    1.8701    0.1608 H   0  0  0  0  0  0  0  0  0  0  0  0
    4.6741    0.8508    2.9921 H   0  0  0  0  0  0  0  0  0  0  0  0
    6.1605   -0.1147    2.8734 H   0  0  0  0  0  0  0  0  0  0  0  0
    6.1284    1.5218    2.1824 H   0  0  0  0  0  0  0  0  0  0  0  0
    1.2512   -2.6913   -3.1697 H   0  0  0  0  0  0  0  0  0  0  0  0
    0.7295   -3.4478   -1.6461 H   0  0  0  0  0  0  0  0  0  0  0  0
   -0.0015   -3.9400   -3.1901 H   0  0  0  0  0  0  0  0  0  0  0  0
  1  2  1  0
  2  3  2  0
  3  4  1  0
  4  5  1  0
  5  6  1  0
  6  7  2  0
  7  8  1  0
  8  9  2  0
  9 10  1  0
  9 11  1  0
 11 12  2  0
 12 13  1  0
  4 14  2  0
 14 15  1  0
 15 16  2  3
 16 17  1  0
 17 18  1  0
 18 19  1  0
 19 20  1  0
 20 21  1  0
 15 22  1  0
 22 23  2  0
 23 24  1  0
 24 25  1  0
 24  1  1  0
 23  3  1  0
 12  6  1  0
  1 26  1  0
  2 27  1  0
  5 28  1  0
  7 29  1  0
  8 30  1  0
 11 31  1  0
 17 32  1  0
 17 33  1  0
 18 34  1  0
 18 35  1  0
 19 36  1  0
 19 37  1  0
 21 38  1  0
 21 39  1  0
 21 40  1  0
 25 41  1  0
 25 42  1  0
 25 43  1  0
M  END
>  <ScrubInfo>  (7) 
{"isomerGroup": 0, "isomerId": 6, "confId": 0, "nr_conformers:": 1, "nr_isomers:": 9}

$$$$
_i7
     RDKit          3D

 43 45  0  0  0  0  0  0  0  0999 V2000
   -1.3120   -1.2796   -4.2411 N   0  0  0  0  0  0  0  0  0  0  0  0
   -2.2247   -1.0088   -3.2275 C   0  0  0  0  0  0  0  0  0  0  0  0
   -1.6421   -0.5681   -2.1064 C   0  0  0  0  0  0  0  0  0  0  0  0
   -2.0495   -0.1077   -0.7767 C   0  0  0  0  0  0  0  0  0  0  0  0
   -3.3111   -0.1097   -0.4638 N   0  0  0  0  0  0  0  0  0  0  0  0
   -3.6978    0.3140    0.8192 C   0  0  0  0  0  0  0  0  0  0  0  0
   -4.1461    1.6305    0.9779 C   0  0  0  0  0  0  0  0  0  0  0  0
   -4.5607    2.0961    2.2279 C   0  0  0  0  0  0  0  0  0  0  0  0
   -4.5385    1.2398    3.3270 C   0  0  0  0  0  0  0  0  0  0  0  0
   -5.0503    1.8149    4.8652 Cl  0  0  0  0  0  0  0  0  0  0  0  0
   -4.1087   -0.0776    3.1900 C   0  0  0  0  0  0  0  0  0  0  0  0
   -3.6954   -0.5396    1.9381 C   0  0  0  0  0  0  0  0  0  0  0  0
   -3.1688   -2.1814    1.8096 Cl  0  0  0  0  0  0  0  0  0  0  0  0
   -0.9775    0.2870   -0.0177 N   0  0  0  0  0  0  0  0  0  0  0  0
    0.3399    0.2727   -0.3926 C   0  0  0  0  0  0  0  0  0  0  0  0
    1.2095    0.7063    0.4585 N   0  0  0  0  0  0  0  0  0  0  0  0
    2.6274    0.7181    0.0890 C   0  0  0  0  0  0  0  0  0  0  0  0
    3.2926   -0.6045    0.4684 C   0  0  0  0  0  0  0  0  0  0  0  0
    3.4236   -0.7921    1.9796 C   0  0  0  0  0  0  0  0  0  0  0  0
    4.2683    0.1886    2.5846 O   0  0  0  0  0  0  0  0  0  0  0  0
    5.6529   -0.0923    2.4375 C   0  0  0  0  0  0  0  0  0  0  0  0
    0.7425   -0.1970   -1.6261 N   0  0  0  0  0  0  0  0  0  0  0  0
   -0.1828   -0.6110   -2.4347 C   0  0  0  0  0  0  0  0  0  0  0  0
   -0.0277   -1.1455   -3.7166 N   0  0  0  0  0  0  0  0  0  0  0  0
    1.0455   -0.7026   -4.5857 C   0  0  0  0  0  0  0  0  0  0  0  0
   -1.5063   -2.1542   -4.7344 H   0  0  0  0  0  0  0  0  0  0  0  0
   -3.2803   -1.1652   -3.3999 H   0  0  0  0  0  0  0  0  0  0  0  0
   -4.1770    2.2946    0.1170 H   0  0  0  0  0  0  0  0  0  0  0  0
   -4.9045    3.1222    2.3338 H   0  0  0  0  0  0  0  0  0  0  0  0
   -4.0989   -0.7419    4.0499 H   0  0  0  0  0  0  0  0  0  0  0  0
   -1.1294    0.6390    0.9143 H   0  0  0  0  0  0  0  0  0  0  0  0
    3.1112    1.5513    0.6113 H   0  0  0  0  0  0  0  0  0  0  0  0
    2.7745    0.9214   -0.9785 H   0  0  0  0  0  0  0  0  0  0  0  0
    4.2847   -0.6312    0.0055 H   0  0  0  0  0  0  0  0  0  0  0  0
    2.7223   -1.4443    0.0549 H   0  0  0  0  0  0  0  0  0  0  0  0
    3.7970   -1.7972    2.2092 H   0  0  0  0  0  0  0  0  0  0  0  0
    2.4396   -0.7058    2.4527 H   0  0  0  0  0  0  0  0  0  0  0  0
    5.9519   -0.0589    1.3868 H   0  0  0  0  0  0  0  0  0  0  0  0
    6.2154    0.6747    2.9772 H   0  0  0  0  0  0  0  0  0  0  0  0
    5.8969   -1.0675    2.8696 H   0  0  0  0  0  0  0  0  0  0  0  0
    1.0617   -1.2978   -5.5045 H   0  0  0  0  0  0  0  0  0  0  0  0
    2.0155   -0.8231   -4.0928 H   0  0  0  0  0  0  0  0  0  0  0  0
    0.9176    0.3509   -4.8557 H   0  0  0  0  0  0  0  0  0  0  0  0
  1  2  1  0
  2  3  2  0
  3  4  1  0
  4  5  2  3
  5  6  1  0
  6  7  2  0
  7  8  1  0
  8  9  2  0
  9 10  1  0
  9 11  1  0
 11 12  2  0
 12 13  1  0
  4 14  1  0
 14 15  1  0
 15 16  2  3
 16 17  1  0
 17 18  1  0
 18 19  1  0
 19 20  1  0
 20 21  1  0
 15 22  1  0
 22 23  2  0
 23 24  1  0
 24 25  1  0
 24  1  1  0
 23  3  1  0
 12  6  1  0
  1 26  1  0
  2 27  1  0
  7 28  1  0
  8 29  1  0
 11 30  1  0
 14 31  1  0
 17 32  1  0
 17 33  1  0
 18 34  1  0
 18 35  1  0
 19 36  1  0
 19 37  1  0
 21 38  1  0
 21 39  1  0
 21 40  1  0
 25 41  1  0
 25 42  1  0
 25 43  1  0
M  END
>  <ScrubInfo>  (8) 
{"isomerGroup": 0, "isomerId": 7, "confId": 0, "nr_conformers:": 1, "nr_isomers:": 9}

$$$$
_i8
     RDKit          3D

 43 45  0  0  0  0  0  0  0  0999 V2000
    0.3288   -2.6516    0.1999 N   0  0  0  0  0  0  0  0  0  0  0  0
    0.4587   -1.2765    0.2394 C   0  0  0  0  0  0  0  0  0  0  0  0
    1.6473   -0.7779    0.3093 N   0  0  0  0  0  0  0  0  0  0  0  0
    1.7972    0.6733    0.3586 C   0  0  0  0  0  0  0  0  0  0  0  0
    3.2834    0.9975    0.4765 C   0  0  0  0  0  0  0  0  0  0  0  0
    3.5224    2.5041    0.4884 C   0  0  0  0  0  0  0  0  0  0  0  0
    4.8859    2.8274    0.7565 O   0  0  0  0  0  0  0  0  0  0  0  0
    5.7454    2.6243   -0.3567 C   0  0  0  0  0  0  0  0  0  0  0  0
   -0.7506   -0.6001    0.1949 N   0  0  0  0  0  0  0  0  0  0  0  0
   -2.0468   -1.0840    0.1311 C   0  0  0  0  0  0  0  0  0  0  0  0
   -3.1833   -0.4703    0.0881 N   0  0  0  0  0  0  0  0  0  0  0  0
   -3.2002    0.9340    0.1144 C   0  0  0  0  0  0  0  0  0  0  0  0
   -3.4026    1.6127   -1.0931 C   0  0  0  0  0  0  0  0  0  0  0  0
   -3.4477    3.0084   -1.1286 C   0  0  0  0  0  0  0  0  0  0  0  0
   -3.3008    3.7349    0.0511 C   0  0  0  0  0  0  0  0  0  0  0  0
   -3.3508    5.4533    0.0052 Cl  0  0  0  0  0  0  0  0  0  0  0  0
   -3.1127    3.0813    1.2662 C   0  0  0  0  0  0  0  0  0  0  0  0
   -3.0689    1.6852    1.2974 C   0  0  0  0  0  0  0  0  0  0  0  0
   -2.8243    0.9155    2.8253 Cl  0  0  0  0  0  0  0  0  0  0  0  0
   -2.0626   -2.5271    0.1037 C   0  0  0  0  0  0  0  0  0  0  0  0
   -3.0610   -3.5105    0.0465 C   0  0  0  0  0  0  0  0  0  0  0  0
   -2.5525   -4.7524    0.0405 N   0  0  0  0  0  0  0  0  0  0  0  0
   -1.2122   -4.5552    0.1043 N   0  0  0  0  0  0  0  0  0  0  0  0
   -0.3400   -5.7019    0.1259 C   0  0  0  0  0  0  0  0  0  0  0  0
   -0.8866   -3.2340    0.1390 C   0  0  0  0  0  0  0  0  0  0  0  0
    1.2067   -3.1560    0.2422 H   0  0  0  0  0  0  0  0  0  0  0  0
    1.2646    1.0859    1.2239 H   0  0  0  0  0  0  0  0  0  0  0  0
    1.3946    1.1282   -0.5543 H   0  0  0  0  0  0  0  0  0  0  0  0
    3.8281    0.5342   -0.3545 H   0  0  0  0  0  0  0  0  0  0  0  0
    3.6994    0.5502    1.3881 H   0  0  0  0  0  0  0  0  0  0  0  0
    2.9320    2.9587    1.2916 H   0  0  0  0  0  0  0  0  0  0  0  0
    3.2009    2.9693   -0.4511 H   0  0  0  0  0  0  0  0  0  0  0  0
    5.8250    1.5619   -0.6011 H   0  0  0  0  0  0  0  0  0  0  0  0
    5.3937    3.1883   -1.2259 H   0  0  0  0  0  0  0  0  0  0  0  0
    6.7414    2.9875   -0.0885 H   0  0  0  0  0  0  0  0  0  0  0  0
   -0.6815    0.4018    0.2336 H   0  0  0  0  0  0  0  0  0  0  0  0
   -3.5349    1.0451   -2.0119 H   0  0  0  0  0  0  0  0  0  0  0  0
   -3.6067    3.5184   -2.0758 H   0  0  0  0  0  0  0  0  0  0  0  0
   -3.0068    3.6537    2.1840 H   0  0  0  0  0  0  0  0  0  0  0  0
   -4.1346   -3.3775    0.0082 H   0  0  0  0  0  0  0  0  0  0  0  0
   -0.5843   -6.3036    1.0050 H   0  0  0  0  0  0  0  0  0  0  0  0
   -0.5048   -6.2769   -0.7889 H   0  0  0  0  0  0  0  0  0  0  0  0
    0.7018   -5.3795    0.1768 H   0  0  0  0  0  0  0  0  0  0  0  0
  1  2  1  0
  2  3  2  3
  3  4  1  0
  4  5  1  0
  5  6  1  0
  6  7  1  0
  7  8  1  0
  2  9  1  0
  9 10  1  0
 10 11  2  3
 11 12  1  0
 12 13  2  0
 13 14  1  0
 14 15  2  0
 15 16  1  0
 15 17  1  0
 17 18  2  0
 18 19  1  0
 10 20  1  0
 20 21  1  0
 21 22  2  0
 22 23  1  0
 23 24  1  0
 23 25  1  0
 25  1  1  0
 18 12  1  0
 25 20  2  0
  1 26  1  0
  4 27  1  0
  4 28  1  0
  5 29  1  0
  5 30  1  0
  6 31  1  0
  6 32  1  0
  8 33  1  0
  8 34  1  0
  8 35  1  0
  9 36  1  0
 13 37  1  0
 14 38  1  0
 17 39  1  0
 21 40  1  0
 24 41  1  0
 24 42  1  0
 24 43  1  0
M  END
>  <ScrubInfo>  (9) 
{"isomerGroup": 0, "isomerId": 8, "confId": 0, "nr_conformers:": 1, "nr_isomers:": 9}

$$$$
