_i0
     RDKit          3D

 46 48  0  0  0  0  0  0  0  0999 V2000
   -5.7650    0.2347   -3.5681 C   0  0  0  0  0  0  0  0  0  0  0  0
   -5.6136   -0.6807   -2.4909 O   0  0  0  0  0  0  0  0  0  0  0  0
   -4.3230   -1.2849   -2.4423 C   0  0  0  0  0  0  0  0  0  0  0  0
   -3.2816   -0.3781   -1.7926 C   0  0  0  0  0  0  0  0  0  0  0  0
   -3.6872    0.0196   -0.3715 C   0  0  0  0  0  0  0  0  0  0  0  0
   -2.6850    0.8708    0.2503 N   0  0  0  0  0  0  0  0  0  0  0  0
   -1.4930    0.2848    0.6403 C   0  0  0  0  0  0  0  0  0  0  0  0
   -0.4244    1.1026    0.5842 N   0  0  0  0  0  0  0  0  0  0  0  0
    0.8037    0.6446    0.9340 C   0  0  0  0  0  0  0  0  0  0  0  0
    1.8666    1.5585    0.8686 N   0  0  0  0  0  0  0  0  0  0  0  0
    3.1676    1.3486    0.3589 C   0  0  0  0  0  0  0  0  0  0  0  0
    3.4360    0.3576   -0.5989 C   0  0  0  0  0  0  0  0  0  0  0  0
    4.7203    0.1922   -1.1234 C   0  0  0  0  0  0  0  0  0  0  0  0
    5.7479    1.0303   -0.7070 C   0  0  0  0  0  0  0  0  0  0  0  0
    7.3294    0.8316   -1.3539 Cl  0  0  0  0  0  0  0  0  0  0  0  0
    5.5010    2.0357    0.2248 C   0  0  0  0  0  0  0  0  0  0  0  0
    4.2129    2.2084    0.7599 C   0  0  0  0  0  0  0  0  0  0  0  0
    3.9755    3.3005    1.7684 C   0  0  0  0  0  0  0  0  0  0  0  0
    0.9062   -0.6745    1.3784 C   0  0  0  0  0  0  0  0  0  0  0  0
    1.8911   -1.5529    1.8747 C   0  0  0  0  0  0  0  0  0  0  0  0
    1.4087   -2.7696    2.1553 N   0  0  0  0  0  0  0  0  0  0  0  0
    0.0926   -2.6549    1.8601 N   0  0  0  0  0  0  0  0  0  0  0  0
   -0.7813   -3.7821    2.0661 C   0  0  0  0  0  0  0  0  0  0  0  0
   -0.2560   -1.4186    1.3896 C   0  0  0  0  0  0  0  0  0  0  0  0
   -1.4748   -1.0002    1.0199 N   0  0  0  0  0  0  0  0  0  0  0  0
   -5.0855    1.0840   -3.4587 H   0  0  0  0  0  0  0  0  0  0  0  0
   -5.5938   -0.2662   -4.5257 H   0  0  0  0  0  0  0  0  0  0  0  0
   -6.7912    0.6119   -3.5534 H   0  0  0  0  0  0  0  0  0  0  0  0
   -4.4217   -2.2022   -1.8513 H   0  0  0  0  0  0  0  0  0  0  0  0
   -4.0049   -1.5857   -3.4475 H   0  0  0  0  0  0  0  0  0  0  0  0
   -3.1412    0.5292   -2.3913 H   0  0  0  0  0  0  0  0  0  0  0  0
   -2.3188   -0.9021   -1.7856 H   0  0  0  0  0  0  0  0  0  0  0  0
   -4.6222    0.5906   -0.4073 H   0  0  0  0  0  0  0  0  0  0  0  0
   -3.8949   -0.8654    0.2424 H   0  0  0  0  0  0  0  0  0  0  0  0
   -2.4620    1.7299   -0.2374 H   0  0  0  0  0  0  0  0  0  0  0  0
    1.4802    2.4359    0.5260 H   0  0  0  0  0  0  0  0  0  0  0  0
    2.6442   -0.2918   -0.9644 H   0  0  0  0  0  0  0  0  0  0  0  0
    4.9059   -0.5853   -1.8595 H   0  0  0  0  0  0  0  0  0  0  0  0
    6.3139    2.6876    0.5368 H   0  0  0  0  0  0  0  0  0  0  0  0
    3.6019    2.8770    2.7064 H   0  0  0  0  0  0  0  0  0  0  0  0
    4.8981    3.8444    1.9972 H   0  0  0  0  0  0  0  0  0  0  0  0
    3.2519    4.0245    1.3802 H   0  0  0  0  0  0  0  0  0  0  0  0
    2.9426   -1.3551    2.0404 H   0  0  0  0  0  0  0  0  0  0  0  0
   -0.7756   -4.0308    3.1303 H   0  0  0  0  0  0  0  0  0  0  0  0
   -1.7961   -3.5326    1.7486 H   0  0  0  0  0  0  0  0  0  0  0  0
   -0.4055   -4.6215    1.4754 H   0  0  0  0  0  0  0  0  0  0  0  0
  1  2  1  0
  2  3  1  0
  3  4  1  0
  4  5  1  0
  5  6  1  0
  6  7  1  0
  7  8  2  0
  8  9  1  0
  9 10  1  0
 10 11  1  0
 11 12  2  0
 12 13  1  0
 13 14  2  0
 14 15  1  0
 14 16  1  0
 16 17  2  0
 17 18  1  0
  9 19  2  0
 19 20  1  0
 20 21  2  0
 21 22  1  0
 22 23  1  0
 22 24  1  0
 24 25  2  0
 25  7  1  0
 17 11  1  0
 24 19  1  0
  1 26  1  0
  1 27  1  0
  1 28  1  0
  3 29  1  0
  3 30  1  0
  4 31  1  0
  4 32  1  0
  5 33  1  0
  5 34  1  0
  6 35  1  0
 10 36  1  0
 12 37  1  0
 13 38  1  0
 16 39  1  0
 18 40  1  0
 18 41  1  0
 18 42  1  0
 20 43  1  0
 23 44  1  0
 23 45  1  0
 23 46  1  0
M  END
>  <ScrubInfo>  (1) 
{"isomerGroup": 0, "isomerId": 0, "confId": 0, "nr_conformers:": 1, "nr_isomers:": 9}

$$$$
_i1
     RDKit          3D

 46 48  0  0  0  0  0  0  0  0999 V2000
   -0.0606    0.3284   -1.3197 N   0  0  0  0  0  0  0  0  0  0  0  0
   -1.3347   -0.1215   -1.0346 C   0  0  0  0  0  0  0  0  0  0  0  0
   -2.4333    0.4693   -1.6445 N   0  0  0  0  0  0  0  0  0  0  0  0
   -3.6915    0.6545   -1.0218 C   0  0  0  0  0  0  0  0  0  0  0  0
   -4.8199    0.1672   -1.7017 C   0  0  0  0  0  0  0  0  0  0  0  0
   -6.1034    0.3431   -1.1839 C   0  0  0  0  0  0  0  0  0  0  0  0
   -6.2707    1.0327    0.0106 C   0  0  0  0  0  0  0  0  0  0  0  0
   -7.8485    1.2478    0.6606 Cl  0  0  0  0  0  0  0  0  0  0  0  0
   -5.1673    1.5626    0.6782 C   0  0  0  0  0  0  0  0  0  0  0  0
   -3.8693    1.4063    0.1578 C   0  0  0  0  0  0  0  0  0  0  0  0
   -2.7212    2.0301    0.9043 C   0  0  0  0  0  0  0  0  0  0  0  0
   -1.3934   -1.1447   -0.1697 C   0  0  0  0  0  0  0  0  0  0  0  0
   -2.4113   -1.9865    0.4732 C   0  0  0  0  0  0  0  0  0  0  0  0
   -1.9058   -2.8611    1.3075 N   0  0  0  0  0  0  0  0  0  0  0  0
   -0.5165   -2.6902    1.2298 N   0  0  0  0  0  0  0  0  0  0  0  0
    0.3243   -3.3056    2.2272 C   0  0  0  0  0  0  0  0  0  0  0  0
   -0.1235   -1.6555    0.3980 C   0  0  0  0  0  0  0  0  0  0  0  0
    1.0547   -1.1958    0.1451 N   0  0  0  0  0  0  0  0  0  0  0  0
    1.0911   -0.1625   -0.7615 C   0  0  0  0  0  0  0  0  0  0  0  0
    2.2162    0.3705   -1.1112 N   0  0  0  0  0  0  0  0  0  0  0  0
    3.4265   -0.1818   -0.4928 C   0  0  0  0  0  0  0  0  0  0  0  0
    4.6286    0.5728   -1.0590 C   0  0  0  0  0  0  0  0  0  0  0  0
    5.9533    0.0219   -0.5380 C   0  0  0  0  0  0  0  0  0  0  0  0
    6.0463    0.0283    0.8855 O   0  0  0  0  0  0  0  0  0  0  0  0
    6.2579    1.3235    1.4306 C   0  0  0  0  0  0  0  0  0  0  0  0
    0.0668    1.0608   -1.9993 H   0  0  0  0  0  0  0  0  0  0  0  0
   -2.1732    1.3214   -2.1360 H   0  0  0  0  0  0  0  0  0  0  0  0
   -4.6946   -0.3741   -2.6377 H   0  0  0  0  0  0  0  0  0  0  0  0
   -6.9612   -0.0592   -1.7159 H   0  0  0  0  0  0  0  0  0  0  0  0
   -5.3198    2.1132    1.6045 H   0  0  0  0  0  0  0  0  0  0  0  0
   -2.0062    2.4884    0.2140 H   0  0  0  0  0  0  0  0  0  0  0  0
   -3.0700    2.8294    1.5675 H   0  0  0  0  0  0  0  0  0  0  0  0
   -2.2135    1.2797    1.5172 H   0  0  0  0  0  0  0  0  0  0  0  0
   -3.4797   -1.8565    0.2652 H   0  0  0  0  0  0  0  0  0  0  0  0
    1.3322   -3.4779    1.8363 H   0  0  0  0  0  0  0  0  0  0  0  0
    0.3982   -2.6641    3.1108 H   0  0  0  0  0  0  0  0  0  0  0  0
   -0.0836   -4.2738    2.5353 H   0  0  0  0  0  0  0  0  0  0  0  0
    3.3911   -0.0557    0.5959 H   0  0  0  0  0  0  0  0  0  0  0  0
    3.5264   -1.2485   -0.7278 H   0  0  0  0  0  0  0  0  0  0  0  0
    4.5334    1.6358   -0.8092 H   0  0  0  0  0  0  0  0  0  0  0  0
    4.6231    0.5093   -2.1541 H   0  0  0  0  0  0  0  0  0  0  0  0
    6.7971    0.5730   -0.9696 H   0  0  0  0  0  0  0  0  0  0  0  0
    6.0595   -1.0208   -0.8574 H   0  0  0  0  0  0  0  0  0  0  0  0
    7.1488    1.7866    0.9958 H   0  0  0  0  0  0  0  0  0  0  0  0
    5.3840    1.9611    1.2737 H   0  0  0  0  0  0  0  0  0  0  0  0
    6.4133    1.2182    2.5078 H   0  0  0  0  0  0  0  0  0  0  0  0
  1  2  1  0
  2  3  1  0
  3  4  1  0
  4  5  2  0
  5  6  1  0
  6  7  2  0
  7  8  1  0
  7  9  1  0
  9 10  2  0
 10 11  1  0
  2 12  2  0
 12 13  1  0
 13 14  2  0
 14 15  1  0
 15 16  1  0
 15 17  1  0
 17 18  2  0
 18 19  1  0
 19 20  2  3
 20 21  1  0
 21 22  1  0
 22 23  1  0
 23 24  1  0
 24 25  1  0
 19  1  1  0
 10  4  1  0
 17 12  1  0
  1 26  1  0
  3 27  1  0
  5 28  1  0
  6 29  1  0
  9 30  1  0
 11 31  1  0
 11 32  1  0
 11 33  1  0
 13 34  1  0
 16 35  1  0
 16 36  1  0
 16 37  1  0
 21 38  1  0
 21 39  1  0
 22 40  1  0
 22 41  1  0
 23 42  1  0
 23 43  1  0
 25 44  1  0
 25 45  1  0
 25 46  1  0
M  END
>  <ScrubInfo>  (2) 
{"isomerGroup": 0, "isomerId": 1, "confId": 0, "nr_conformers:": 1, "nr_isomers:": 9}

$$$$
_i2
     RDKit          3D

 46 48  0  0  0  0  0  0  0  0999 V2000
    0.4760    0.6344   -0.4543 N   0  0  0  0  0  0  0  0  0  0  0  0
    1.3668   -0.3885   -0.6770 C   0  0  0  0  0  0  0  0  0  0  0  0
    2.6223    0.0675   -0.9824 N   0  0  0  0  0  0  0  0  0  0  0  0
    3.7654   -0.8356   -1.0295 C   0  0  0  0  0  0  0  0  0  0  0  0
    4.3785   -1.0100    0.3612 C   0  0  0  0  0  0  0  0  0  0  0  0
    5.1075    0.2425    0.8476 C   0  0  0  0  0  0  0  0  0  0  0  0
    4.2089    1.3556    0.8744 O   0  0  0  0  0  0  0  0  0  0  0  0
    4.8402    2.5199    1.3970 C   0  0  0  0  0  0  0  0  0  0  0  0
    1.0431   -1.6546   -0.6187 N   0  0  0  0  0  0  0  0  0  0  0  0
   -0.2694   -1.8274   -0.2955 C   0  0  0  0  0  0  0  0  0  0  0  0
   -1.2347   -0.8618   -0.0537 C   0  0  0  0  0  0  0  0  0  0  0  0
   -2.3978   -1.5980    0.2317 C   0  0  0  0  0  0  0  0  0  0  0  0
   -2.2008   -2.9217    0.1798 N   0  0  0  0  0  0  0  0  0  0  0  0
   -0.8933   -3.0338   -0.1476 N   0  0  0  0  0  0  0  0  0  0  0  0
   -0.3140   -4.3442   -0.3015 C   0  0  0  0  0  0  0  0  0  0  0  0
   -0.8609    0.5357   -0.1483 C   0  0  0  0  0  0  0  0  0  0  0  0
   -1.6036    1.5899    0.0058 N   0  0  0  0  0  0  0  0  0  0  0  0
   -2.9641    1.5043    0.3132 C   0  0  0  0  0  0  0  0  0  0  0  0
   -3.3571    1.5132    1.6579 C   0  0  0  0  0  0  0  0  0  0  0  0
   -4.7075    1.4598    2.0064 C   0  0  0  0  0  0  0  0  0  0  0  0
   -5.6731    1.4114    1.0056 C   0  0  0  0  0  0  0  0  0  0  0  0
   -7.3391    1.3411    1.4292 Cl  0  0  0  0  0  0  0  0  0  0  0  0
   -5.3001    1.4252   -0.3384 C   0  0  0  0  0  0  0  0  0  0  0  0
   -3.9435    1.4882   -0.6975 C   0  0  0  0  0  0  0  0  0  0  0  0
   -3.5556    1.5084   -2.1492 C   0  0  0  0  0  0  0  0  0  0  0  0
    0.7967    1.5743   -0.6166 H   0  0  0  0  0  0  0  0  0  0  0  0
    2.8794    0.9145   -0.4714 H   0  0  0  0  0  0  0  0  0  0  0  0
    3.4758   -1.8097   -1.4398 H   0  0  0  0  0  0  0  0  0  0  0  0
    4.5115   -0.4187   -1.7153 H   0  0  0  0  0  0  0  0  0  0  0  0
    3.5917   -1.2719    1.0790 H   0  0  0  0  0  0  0  0  0  0  0  0
    5.0923   -1.8413    0.3368 H   0  0  0  0  0  0  0  0  0  0  0  0
    5.9463    0.4720    0.1802 H   0  0  0  0  0  0  0  0  0  0  0  0
    5.4996    0.0634    1.8554 H   0  0  0  0  0  0  0  0  0  0  0  0
    5.6962    2.8017    0.7765 H   0  0  0  0  0  0  0  0  0  0  0  0
    4.1148    3.3377    1.3851 H   0  0  0  0  0  0  0  0  0  0  0  0
    5.1602    2.3507    2.4295 H   0  0  0  0  0  0  0  0  0  0  0  0
   -3.3900   -1.2467    0.4766 H   0  0  0  0  0  0  0  0  0  0  0  0
   -0.4246   -4.8820    0.6436 H   0  0  0  0  0  0  0  0  0  0  0  0
    0.7445   -4.2616   -0.5573 H   0  0  0  0  0  0  0  0  0  0  0  0
   -0.8481   -4.8640   -1.1010 H   0  0  0  0  0  0  0  0  0  0  0  0
   -2.6008    1.5603    2.4374 H   0  0  0  0  0  0  0  0  0  0  0  0
   -4.9952    1.4590    3.0540 H   0  0  0  0  0  0  0  0  0  0  0  0
   -6.0670    1.3934   -1.1088 H   0  0  0  0  0  0  0  0  0  0  0  0
   -3.1006    0.5542   -2.4323 H   0  0  0  0  0  0  0  0  0  0  0  0
   -4.4267    1.6719   -2.7927 H   0  0  0  0  0  0  0  0  0  0  0  0
   -2.8498    2.3213   -2.3485 H   0  0  0  0  0  0  0  0  0  0  0  0
  1  2  1  0
  2  3  1  0
  3  4  1  0
  4  5  1  0
  5  6  1  0
  6  7  1  0
  7  8  1  0
  2  9  2  0
  9 10  1  0
 10 11  2  0
 11 12  1  0
 12 13  2  0
 13 14  1  0
 14 15  1  0
 11 16  1  0
 16 17  2  3
 17 18  1  0
 18 19  2  0
 19 20  1  0
 20 21  2  0
 21 22  1  0
 21 23  1  0
 23 24  2  0
 24 25  1  0
 16  1  1  0
 24 18  1  0
 14 10  1  0
  1 26  1  0
  3 27  1  0
  4 28  1  0
  4 29  1  0
  5 30  1  0
  5 31  1  0
  6 32  1  0
  6 33  1  0
  8 34  1  0
  8 35  1  0
  8 36  1  0
 12 37  1  0
 15 38  1  0
 15 39  1  0
 15 40  1  0
 19 41  1  0
 20 42  1  0
 23 43  1  0
 25 44  1  0
 25 45  1  0
 25 46  1  0
M  END
>  <ScrubInfo>  (3) 
{"isomerGroup": 0, "isomerId": 2, "confId": 0, "nr_conformers:": 1, "nr_isomers:": 9}

$$$$
_i3
     RDKit          3D

 46 48  0  0  0  0  0  0  0  0999 V2000
    1.1537    1.7433    0.0997 N   0  0  0  0  0  0  0  0  0  0  0  0
    1.2992    0.3738    0.0413 C   0  0  0  0  0  0  0  0  0  0  0  0
    2.4769   -0.1221    0.2461 N   0  0  0  0  0  0  0  0  0  0  0  0
    2.6043   -1.5789    0.1797 C   0  0  0  0  0  0  0  0  0  0  0  0
    4.0581   -1.9620    0.4418 C   0  0  0  0  0  0  0  0  0  0  0  0
    4.9910   -1.4797   -0.6666 C   0  0  0  0  0  0  0  0  0  0  0  0
    6.3135   -1.9976   -0.4977 O   0  0  0  0  0  0  0  0  0  0  0  0
    7.0675   -1.2908    0.4777 C   0  0  0  0  0  0  0  0  0  0  0  0
    0.2268   -0.4653   -0.2281 N   0  0  0  0  0  0  0  0  0  0  0  0
   -0.9536    0.0571   -0.4177 C   0  0  0  0  0  0  0  0  0  0  0  0
   -2.0628   -0.6978   -0.7062 N   0  0  0  0  0  0  0  0  0  0  0  0
   -3.2382   -0.7178    0.0964 C   0  0  0  0  0  0  0  0  0  0  0  0
   -3.2155   -0.3490    1.4519 C   0  0  0  0  0  0  0  0  0  0  0  0
   -4.3696   -0.4258    2.2352 C   0  0  0  0  0  0  0  0  0  0  0  0
   -5.5539   -0.8906    1.6751 C   0  0  0  0  0  0  0  0  0  0  0  0
   -6.9752   -0.9893    2.6389 Cl  0  0  0  0  0  0  0  0  0  0  0  0
   -5.5934   -1.2851    0.3394 C   0  0  0  0  0  0  0  0  0  0  0  0
   -4.4394   -1.2100   -0.4589 C   0  0  0  0  0  0  0  0  0  0  0  0
   -4.5116   -1.6406   -1.8995 C   0  0  0  0  0  0  0  0  0  0  0  0
   -1.1435    1.4901   -0.3954 C   0  0  0  0  0  0  0  0  0  0  0  0
   -2.1864    2.4060   -0.5994 C   0  0  0  0  0  0  0  0  0  0  0  0
   -1.7829    3.6784   -0.4524 N   0  0  0  0  0  0  0  0  0  0  0  0
   -0.4620    3.5699   -0.1640 N   0  0  0  0  0  0  0  0  0  0  0  0
    0.3108    4.7666    0.0502 C   0  0  0  0  0  0  0  0  0  0  0  0
   -0.0561    2.2749   -0.1287 C   0  0  0  0  0  0  0  0  0  0  0  0
    2.0056    2.2543    0.2878 H   0  0  0  0  0  0  0  0  0  0  0  0
    1.9803   -2.0494    0.9493 H   0  0  0  0  0  0  0  0  0  0  0  0
    2.2972   -1.9587   -0.8024 H   0  0  0  0  0  0  0  0  0  0  0  0
    4.1386   -3.0526    0.5275 H   0  0  0  0  0  0  0  0  0  0  0  0
    4.3795   -1.5569    1.4082 H   0  0  0  0  0  0  0  0  0  0  0  0
    4.6326   -1.8547   -1.6315 H   0  0  0  0  0  0  0  0  0  0  0  0
    5.0196   -0.3860   -0.7343 H   0  0  0  0  0  0  0  0  0  0  0  0
    7.1320   -0.2289    0.2216 H   0  0  0  0  0  0  0  0  0  0  0  0
    6.6350   -1.4143    1.4738 H   0  0  0  0  0  0  0  0  0  0  0  0
    8.0796   -1.7047    0.4914 H   0  0  0  0  0  0  0  0  0  0  0  0
   -1.7724   -1.6658   -0.8349 H   0  0  0  0  0  0  0  0  0  0  0  0
   -2.2973   -0.0046    1.9229 H   0  0  0  0  0  0  0  0  0  0  0  0
   -4.3326   -0.1279    3.2797 H   0  0  0  0  0  0  0  0  0  0  0  0
   -6.5266   -1.6524   -0.0819 H   0  0  0  0  0  0  0  0  0  0  0  0
   -3.8431   -2.4893   -2.0755 H   0  0  0  0  0  0  0  0  0  0  0  0
   -4.2316   -0.8118   -2.5578 H   0  0  0  0  0  0  0  0  0  0  0  0
   -5.5242   -1.9531   -2.1758 H   0  0  0  0  0  0  0  0  0  0  0  0
   -3.2220    2.2114   -0.8470 H   0  0  0  0  0  0  0  0  0  0  0  0
   -0.1448    5.3297    0.8687 H   0  0  0  0  0  0  0  0  0  0  0  0
    0.2983    5.3536   -0.8716 H   0  0  0  0  0  0  0  0  0  0  0  0
    1.3386    4.5047    0.3098 H   0  0  0  0  0  0  0  0  0  0  0  0
  1  2  1  0
  2  3  2  3
  3  4  1  0
  4  5  1  0
  5  6  1  0
  6  7  1  0
  7  8  1  0
  2  9  1  0
  9 10  2  0
 10 11  1  0
 11 12  1  0
 12 13  2  0
 13 14  1  0
 14 15  2  0
 15 16  1  0
 15 17  1  0
 17 18  2  0
 18 19  1  0
 10 20  1  0
 20 21  1  0
 21 22  2  0
 22 23  1  0
 23 24  1  0
 23 25  1  0
 25  1  1  0
 18 12  1  0
 25 20  2  0
  1 26  1  0
  4 27  1  0
  4 28  1  0
  5 29  1  0
  5 30  1  0
  6 31  1  0
  6 32  1  0
  8 33  1  0
  8 34  1  0
  8 35  1  0
 11 36  1  0
 13 37  1  0
 14 38  1  0
 17 39  1  0
 19 40  1  0
 19 41  1  0
 19 42  1  0
 21 43  1  0
 24 44  1  0
 24 45  1  0
 24 46  1  0
M  END
>  <ScrubInfo>  (4) 
{"isomerGroup": 0, "isomerId": 3, "confId": 0, "nr_conformers:": 1, "nr_isomers:": 9}

$$$$
_i4
     RDKit          3D

 46 48  0  0  0  0  0  0  0  0999 V2000
   -1.1947   -1.8754   -3.8344 N   0  0  0  0  0  0  0  0  0  0  0  0
   -2.1138   -1.2910   -2.9685 C   0  0  0  0  0  0  0  0  0  0  0  0
   -1.6167   -1.0924   -1.7410 C   0  0  0  0  0  0  0  0  0  0  0  0
   -2.0626   -0.5187   -0.4933 C   0  0  0  0  0  0  0  0  0  0  0  0
   -3.2655   -0.0603   -0.3349 N   0  0  0  0  0  0  0  0  0  0  0  0
   -3.6131    0.4906    0.9087 C   0  0  0  0  0  0  0  0  0  0  0  0
   -4.1213   -0.3479    1.9096 C   0  0  0  0  0  0  0  0  0  0  0  0
   -4.4959    0.1679    3.1510 C   0  0  0  0  0  0  0  0  0  0  0  0
   -4.3715    1.5326    3.3920 C   0  0  0  0  0  0  0  0  0  0  0  0
   -4.8258    2.1741    4.9232 Cl  0  0  0  0  0  0  0  0  0  0  0  0
   -3.8843    2.3851    2.4015 C   0  0  0  0  0  0  0  0  0  0  0  0
   -3.5123    1.8740    1.1472 C   0  0  0  0  0  0  0  0  0  0  0  0
   -2.9837    2.7991    0.0883 C   0  0  0  0  0  0  0  0  0  0  0  0
   -1.1090   -0.4921    0.4894 N   0  0  0  0  0  0  0  0  0  0  0  0
    0.0869   -0.9782    0.3161 C   0  0  0  0  0  0  0  0  0  0  0  0
    0.9306   -0.8726    1.3830 N   0  0  0  0  0  0  0  0  0  0  0  0
    2.3711   -0.9445    1.2855 C   0  0  0  0  0  0  0  0  0  0  0  0
    2.9446    0.3540    0.7321 C   0  0  0  0  0  0  0  0  0  0  0  0
    4.4627    0.2861    0.6353 C   0  0  0  0  0  0  0  0  0  0  0  0
    4.9382    1.5345    0.1346 O   0  0  0  0  0  0  0  0  0  0  0  0
    6.3544    1.5478    0.0127 C   0  0  0  0  0  0  0  0  0  0  0  0
    0.5503   -1.5720   -0.8309 N   0  0  0  0  0  0  0  0  0  0  0  0
   -0.2622   -1.6500   -1.8262 C   0  0  0  0  0  0  0  0  0  0  0  0
   -0.0639   -2.2090   -3.0905 N   0  0  0  0  0  0  0  0  0  0  0  0
    1.2369   -2.1579   -3.7294 C   0  0  0  0  0  0  0  0  0  0  0  0
   -1.5971   -2.6259   -4.4007 H   0  0  0  0  0  0  0  0  0  0  0  0
   -3.1073   -1.0513   -3.3207 H   0  0  0  0  0  0  0  0  0  0  0  0
   -4.2159   -1.4129    1.7159 H   0  0  0  0  0  0  0  0  0  0  0  0
   -4.8796   -0.4982    3.9180 H   0  0  0  0  0  0  0  0  0  0  0  0
   -3.7959    3.4495    2.6038 H   0  0  0  0  0  0  0  0  0  0  0  0
   -3.5192    2.6507   -0.8550 H   0  0  0  0  0  0  0  0  0  0  0  0
   -3.1141    3.8485    0.3732 H   0  0  0  0  0  0  0  0  0  0  0  0
   -1.9149    2.6224   -0.0684 H   0  0  0  0  0  0  0  0  0  0  0  0
    0.5598   -0.2608    2.1006 H   0  0  0  0  0  0  0  0  0  0  0  0
    2.6758   -1.7992    0.6703 H   0  0  0  0  0  0  0  0  0  0  0  0
    2.7733   -1.1249    2.2890 H   0  0  0  0  0  0  0  0  0  0  0  0
    2.5271    0.5739   -0.2586 H   0  0  0  0  0  0  0  0  0  0  0  0
    2.6528    1.2009    1.3664 H   0  0  0  0  0  0  0  0  0  0  0  0
    4.7639   -0.5190   -0.0449 H   0  0  0  0  0  0  0  0  0  0  0  0
    4.8987    0.1007    1.6237 H   0  0  0  0  0  0  0  0  0  0  0  0
    6.8242    1.3961    0.9892 H   0  0  0  0  0  0  0  0  0  0  0  0
    6.6855    0.7763   -0.6892 H   0  0  0  0  0  0  0  0  0  0  0  0
    6.6577    2.5247   -0.3732 H   0  0  0  0  0  0  0  0  0  0  0  0
    2.0006   -2.6038   -3.0841 H   0  0  0  0  0  0  0  0  0  0  0  0
    1.5230   -1.1238   -3.9480 H   0  0  0  0  0  0  0  0  0  0  0  0
    1.2223   -2.7210   -4.6682 H   0  0  0  0  0  0  0  0  0  0  0  0
  1  2  1  0
  2  3  2  0
  3  4  1  0
  4  5  2  3
  5  6  1  0
  6  7  2  0
  7  8  1  0
  8  9  2  0
  9 10  1  0
  9 11  1  0
 11 12  2  0
 12 13  1  0
  4 14  1  0
 14 15  2  0
 15 16  1  0
 16 17  1  0
 17 18  1  0
 18 19  1  0
 19 20  1  0
 20 21  1  0
 15 22  1  0
 22 23  2  0
 23 24  1  0
 24 25  1  0
 24  1  1  0
 23  3  1  0
 12  6  1  0
  1 26  1  0
  2 27  1  0
  7 28  1  0
  8 29  1  0
 11 30  1  0
 13 31  1  0
 13 32  1  0
 13 33  1  0
 16 34  1  0
 17 35  1  0
 17 36  1  0
 18 37  1  0
 18 38  1  0
 19 39  1  0
 19 40  1  0
 21 41  1  0
 21 42  1  0
 21 43  1  0
 25 44  1  0
 25 45  1  0
 25 46  1  0
M  END
>  <ScrubInfo>  (5) 
{"isomerGroup": 0, "isomerId": 4, "confId": 0, "nr_conformers:": 1, "nr_isomers:": 9}

$$$$
_i5
     RDKit          3D

 46 48  0  0  0  0  0  0  0  0999 V2000
    0.5320    0.3422    1.4668 N   0  0  0  0  0  0  0  0  0  0  0  0
    0.7524    1.0682    0.3235 C   0  0  0  0  0  0  0  0  0  0  0  0
    2.0089    1.5872    0.1897 N   0  0  0  0  0  0  0  0  0  0  0  0
    3.2028    0.7569    0.3199 C   0  0  0  0  0  0  0  0  0  0  0  0
    4.4460    1.6120    0.0791 C   0  0  0  0  0  0  0  0  0  0  0  0
    5.7302    0.8349    0.3407 C   0  0  0  0  0  0  0  0  0  0  0  0
    5.7743   -0.3013   -0.5179 O   0  0  0  0  0  0  0  0  0  0  0  0
    6.9802   -1.0382   -0.3563 C   0  0  0  0  0  0  0  0  0  0  0  0
   -0.1327    1.3058   -0.6025 N   0  0  0  0  0  0  0  0  0  0  0  0
   -1.4179    0.7889   -0.4837 C   0  0  0  0  0  0  0  0  0  0  0  0
   -2.2170    1.0278   -1.4748 N   0  0  0  0  0  0  0  0  0  0  0  0
   -3.5354    0.5710   -1.5076 C   0  0  0  0  0  0  0  0  0  0  0  0
   -4.5538    1.4062   -1.0300 C   0  0  0  0  0  0  0  0  0  0  0  0
   -5.8877    0.9977   -1.0686 C   0  0  0  0  0  0  0  0  0  0  0  0
   -6.2089   -0.2473   -1.6012 C   0  0  0  0  0  0  0  0  0  0  0  0
   -7.8509   -0.7598   -1.6440 Cl  0  0  0  0  0  0  0  0  0  0  0  0
   -5.2103   -1.0794   -2.1070 C   0  0  0  0  0  0  0  0  0  0  0  0
   -3.8669   -0.6704   -2.0826 C   0  0  0  0  0  0  0  0  0  0  0  0
   -2.8020   -1.5727   -2.6402 C   0  0  0  0  0  0  0  0  0  0  0  0
   -1.7102    0.0459    0.7316 C   0  0  0  0  0  0  0  0  0  0  0  0
   -2.8113   -0.6006    1.3223 C   0  0  0  0  0  0  0  0  0  0  0  0
   -2.5226   -1.1360    2.5201 N   0  0  0  0  0  0  0  0  0  0  0  0
   -1.2178   -0.8342    2.6989 N   0  0  0  0  0  0  0  0  0  0  0  0
   -0.5433   -1.2552    3.9002 C   0  0  0  0  0  0  0  0  0  0  0  0
   -0.7091   -0.1363    1.6518 C   0  0  0  0  0  0  0  0  0  0  0  0
    1.2307    0.3996    2.1939 H   0  0  0  0  0  0  0  0  0  0  0  0
    2.0275    2.1054   -0.6888 H   0  0  0  0  0  0  0  0  0  0  0  0
    3.2500    0.3205    1.3237 H   0  0  0  0  0  0  0  0  0  0  0  0
    3.1552   -0.0642   -0.4045 H   0  0  0  0  0  0  0  0  0  0  0  0
    4.4250    2.5014    0.7201 H   0  0  0  0  0  0  0  0  0  0  0  0
    4.4373    1.9628   -0.9606 H   0  0  0  0  0  0  0  0  0  0  0  0
    6.5934    1.4806    0.1417 H   0  0  0  0  0  0  0  0  0  0  0  0
    5.7700    0.5068    1.3858 H   0  0  0  0  0  0  0  0  0  0  0  0
    7.8459   -0.4138   -0.5977 H   0  0  0  0  0  0  0  0  0  0  0  0
    6.9596   -1.8874   -1.0448 H   0  0  0  0  0  0  0  0  0  0  0  0
    7.0623   -1.4172    0.6669 H   0  0  0  0  0  0  0  0  0  0  0  0
   -4.2991    2.3851   -0.6301 H   0  0  0  0  0  0  0  0  0  0  0  0
   -6.6645    1.6551   -0.6885 H   0  0  0  0  0  0  0  0  0  0  0  0
   -5.4781   -2.0439   -2.5316 H   0  0  0  0  0  0  0  0  0  0  0  0
   -2.1028   -1.0079   -3.2652 H   0  0  0  0  0  0  0  0  0  0  0  0
   -2.2526   -2.0550   -1.8256 H   0  0  0  0  0  0  0  0  0  0  0  0
   -3.2359   -2.3558   -3.2711 H   0  0  0  0  0  0  0  0  0  0  0  0
   -3.8209   -0.7119    0.9520 H   0  0  0  0  0  0  0  0  0  0  0  0
   -0.5207   -0.4075    4.5928 H   0  0  0  0  0  0  0  0  0  0  0  0
    0.4743   -1.5696    3.6449 H   0  0  0  0  0  0  0  0  0  0  0  0
   -1.0856   -2.0963    4.3452 H   0  0  0  0  0  0  0  0  0  0  0  0
  1  2  1  0
  2  3  1  0
  3  4  1  0
  4  5  1  0
  5  6  1  0
  6  7  1  0
  7  8  1  0
  2  9  2  0
  9 10  1  0
 10 11  2  3
 11 12  1  0
 12 13  2  0
 13 14  1  0
 14 15  2  0
 15 16  1  0
 15 17  1  0
 17 18  2  0
 18 19  1  0
 10 20  1  0
 20 21  1  0
 21 22  2  0
 22 23  1  0
 23 24  1  0
 23 25  1  0
 25  1  1  0
 18 12  1  0
 25 20  2  0
  1 26  1  0
  3 27  1  0
  4 28  1  0
  4 29  1  0
  5 30  1  0
  5 31  1  0
  6 32  1  0
  6 33  1  0
  8 34  1  0
  8 35  1  0
  8 36  1  0
 13 37  1  0
 14 38  1  0
 17 39  1  0
 19 40  1  0
 19 41  1  0
 19 42  1  0
 21 43  1  0
 24 44  1  0
 24 45  1  0
 24 46  1  0
M  END
>  <ScrubInfo>  (6) 
{"isomerGroup": 0, "isomerId": 5, "confId": 0, "nr_conformers:": 1, "nr_isomers:": 9}

$$$$
_i6
     RDKit          3D

 46 48  0  0  0  0  0  0  0  0999 V2000
   -1.6212   -4.7184   -0.3551 N   0  0  0  0  0  0  0  0  0  0  0  0
   -2.0888   -3.4900   -0.8090 C   0  0  0  0  0  0  0  0  0  0  0  0
   -1.3117   -2.4654   -0.4317 C   0  0  0  0  0  0  0  0  0  0  0  0
   -1.2528   -1.0134   -0.5982 C   0  0  0  0  0  0  0  0  0  0  0  0
   -2.2431   -0.3514   -1.3024 N   0  0  0  0  0  0  0  0  0  0  0  0
   -2.5075    1.0300   -1.1797 C   0  0  0  0  0  0  0  0  0  0  0  0
   -2.5689    1.7805   -2.3662 C   0  0  0  0  0  0  0  0  0  0  0  0
   -2.8888    3.1388   -2.3464 C   0  0  0  0  0  0  0  0  0  0  0  0
   -3.1765    3.7559   -1.1356 C   0  0  0  0  0  0  0  0  0  0  0  0
   -3.5660    5.4312   -1.0999 Cl  0  0  0  0  0  0  0  0  0  0  0  0
   -3.1644    3.0209    0.0484 C   0  0  0  0  0  0  0  0  0  0  0  0
   -2.8598    1.6466    0.0383 C   0  0  0  0  0  0  0  0  0  0  0  0
   -2.8837    0.9056    1.3475 C   0  0  0  0  0  0  0  0  0  0  0  0
   -0.2339   -0.3898   -0.0767 N   0  0  0  0  0  0  0  0  0  0  0  0
    0.7317   -1.1025    0.6008 C   0  0  0  0  0  0  0  0  0  0  0  0
    1.7711   -0.4928    1.0521 N   0  0  0  0  0  0  0  0  0  0  0  0
    1.8743    0.9431    0.7916 C   0  0  0  0  0  0  0  0  0  0  0  0
    3.2007    1.4492    1.3596 C   0  0  0  0  0  0  0  0  0  0  0  0
    4.4067    0.9936    0.5381 C   0  0  0  0  0  0  0  0  0  0  0  0
    4.4086    1.5332   -0.7860 O   0  0  0  0  0  0  0  0  0  0  0  0
    4.8614    2.8779   -0.8462 C   0  0  0  0  0  0  0  0  0  0  0  0
    0.7139   -2.4486    0.8803 N   0  0  0  0  0  0  0  0  0  0  0  0
   -0.2701   -3.1166    0.3909 C   0  0  0  0  0  0  0  0  0  0  0  0
   -0.5509   -4.4790    0.5007 N   0  0  0  0  0  0  0  0  0  0  0  0
    0.5232   -5.4514    0.5838 C   0  0  0  0  0  0  0  0  0  0  0  0
   -2.3531   -5.3355    0.0046 H   0  0  0  0  0  0  0  0  0  0  0  0
   -2.9929   -3.4647   -1.3989 H   0  0  0  0  0  0  0  0  0  0  0  0
   -3.0810   -0.8738   -1.5260 H   0  0  0  0  0  0  0  0  0  0  0  0
   -2.3333    1.3074   -3.3173 H   0  0  0  0  0  0  0  0  0  0  0  0
   -2.9038    3.7044   -3.2737 H   0  0  0  0  0  0  0  0  0  0  0  0
   -3.4005    3.5176    0.9871 H   0  0  0  0  0  0  0  0  0  0  0  0
   -3.2708   -0.1103    1.2221 H   0  0  0  0  0  0  0  0  0  0  0  0
   -1.8802    0.8663    1.7808 H   0  0  0  0  0  0  0  0  0  0  0  0
   -3.5456    1.4022    2.0658 H   0  0  0  0  0  0  0  0  0  0  0  0
    1.8158    1.1654   -0.2805 H   0  0  0  0  0  0  0  0  0  0  0  0
    1.0600    1.4714    1.3030 H   0  0  0  0  0  0  0  0  0  0  0  0
    3.3182    1.0975    2.3917 H   0  0  0  0  0  0  0  0  0  0  0  0
    3.1647    2.5431    1.3924 H   0  0  0  0  0  0  0  0  0  0  0  0
    5.3395    1.2620    1.0482 H   0  0  0  0  0  0  0  0  0  0  0  0
    4.4030   -0.0973    0.4409 H   0  0  0  0  0  0  0  0  0  0  0  0
    5.8699    2.9653   -0.4309 H   0  0  0  0  0  0  0  0  0  0  0  0
    4.8938    3.1796   -1.8968 H   0  0  0  0  0  0  0  0  0  0  0  0
    4.1766    3.5480   -0.3205 H   0  0  0  0  0  0  0  0  0  0  0  0
    0.1164   -6.4535    0.7537 H   0  0  0  0  0  0  0  0  0  0  0  0
    1.1921   -5.2165    1.4179 H   0  0  0  0  0  0  0  0  0  0  0  0
    1.1077   -5.4654   -0.3421 H   0  0  0  0  0  0  0  0  0  0  0  0
  1  2  1  0
  2  3  2  0
  3  4  1  0
  4  5  1  0
  5  6  1  0
  6  7  2  0
  7  8  1  0
  8  9  2  0
  9 10  1  0
  9 11  1  0
 11 12  2  0
 12 13  1  0
  4 14  2  0
 14 15  1  0
 15 16  2  3
 16 17  1  0
 17 18  1  0
 18 19  1  0
 19 20  1  0
 20 21  1  0
 15 22  1  0
 22 23  2  0
 23 24  1  0
 24 25  1  0
 24  1  1  0
 23  3  1  0
 12  6  1  0
  1 26  1  0
  2 27  1  0
  5 28  1  0
  7 29  1  0
  8 30  1  0
 11 31  1  0
 13 32  1  0
 13 33  1  0
 13 34  1  0
 17 35  1  0
 17 36  1  0
 18 37  1  0
 18 38  1  0
 19 39  1  0
 19 40  1  0
 21 41  1  0
 21 42  1  0
 21 43  1  0
 25 44  1  0
 25 45  1  0
 25 46  1  0
M  END
>  <ScrubInfo>  (7) 
{"isomerGroup": 0, "isomerId": 6, "confId": 0, "nr_conformers:": 1, "nr_isomers:": 9}

$$$$
_i7
     RDKit          3D

 46 48  0  0  0  0  0  0  0  0999 V2000
   -2.4366   -0.0437    4.8017 N   0  0  0  0  0  0  0  0  0  0  0  0
   -2.9340   -0.0970    3.5042 C   0  0  0  0  0  0  0  0  0  0  0  0
   -1.9686   -0.1661    2.5801 C   0  0  0  0  0  0  0  0  0  0  0  0
   -1.8575   -0.2054    1.1222 C   0  0  0  0  0  0  0  0  0  0  0  0
   -2.9376   -0.2174    0.3978 N   0  0  0  0  0  0  0  0  0  0  0  0
   -2.8133   -0.2503   -0.9984 C   0  0  0  0  0  0  0  0  0  0  0  0
   -2.7582   -1.4907   -1.6462 C   0  0  0  0  0  0  0  0  0  0  0  0
   -2.6157   -1.5644   -3.0325 C   0  0  0  0  0  0  0  0  0  0  0  0
   -2.5360   -0.3918   -3.7776 C   0  0  0  0  0  0  0  0  0  0  0  0
   -2.3472   -0.4764   -5.4852 Cl  0  0  0  0  0  0  0  0  0  0  0  0
   -2.6074    0.8516   -3.1493 C   0  0  0  0  0  0  0  0  0  0  0  0
   -2.7602    0.9341   -1.7558 C   0  0  0  0  0  0  0  0  0  0  0  0
   -2.8418    2.2797   -1.0907 C   0  0  0  0  0  0  0  0  0  0  0  0
   -0.5516   -0.2172    0.6938 N   0  0  0  0  0  0  0  0  0  0  0  0
    0.5714   -0.1958    1.4891 C   0  0  0  0  0  0  0  0  0  0  0  0
    1.7894   -0.1683    1.0770 N   0  0  0  0  0  0  0  0  0  0  0  0
    2.0721   -0.1548   -0.3519 C   0  0  0  0  0  0  0  0  0  0  0  0
    3.5841   -0.1095   -0.5462 C   0  0  0  0  0  0  0  0  0  0  0  0
    3.9543   -0.0961   -2.0236 C   0  0  0  0  0  0  0  0  0  0  0  0
    5.3754   -0.0506   -2.1386 O   0  0  0  0  0  0  0  0  0  0  0  0
    5.7942   -0.0382   -3.4964 C   0  0  0  0  0  0  0  0  0  0  0  0
    0.4702   -0.2064    2.8663 N   0  0  0  0  0  0  0  0  0  0  0  0
   -0.7141   -0.2075    3.3905 C   0  0  0  0  0  0  0  0  0  0  0  0
   -1.0573   -0.2338    4.7447 N   0  0  0  0  0  0  0  0  0  0  0  0
   -0.2125    0.3997    5.7391 C   0  0  0  0  0  0  0  0  0  0  0  0
   -2.9450   -0.6433    5.4555 H   0  0  0  0  0  0  0  0  0  0  0  0
   -4.0019   -0.0802    3.3381 H   0  0  0  0  0  0  0  0  0  0  0  0
   -2.8302   -2.4050   -1.0617 H   0  0  0  0  0  0  0  0  0  0  0  0
   -2.5733   -2.5344   -3.5203 H   0  0  0  0  0  0  0  0  0  0  0  0
   -2.5536    1.7589   -3.7470 H   0  0  0  0  0  0  0  0  0  0  0  0
   -3.6974    2.3215   -0.4089 H   0  0  0  0  0  0  0  0  0  0  0  0
   -2.9745    3.0805   -1.8259 H   0  0  0  0  0  0  0  0  0  0  0  0
   -1.9218    2.4810   -0.5330 H   0  0  0  0  0  0  0  0  0  0  0  0
   -0.4023   -0.2212   -0.3003 H   0  0  0  0  0  0  0  0  0  0  0  0
    1.6710   -1.0567   -0.8296 H   0  0  0  0  0  0  0  0  0  0  0  0
    1.6188    0.7252   -0.8240 H   0  0  0  0  0  0  0  0  0  0  0  0
    4.0571   -0.9699   -0.0558 H   0  0  0  0  0  0  0  0  0  0  0  0
    4.0050    0.7760   -0.0528 H   0  0  0  0  0  0  0  0  0  0  0  0
    3.5777   -1.0001   -2.5162 H   0  0  0  0  0  0  0  0  0  0  0  0
    3.5211    0.7832   -2.5144 H   0  0  0  0  0  0  0  0  0  0  0  0
    6.8867   -0.0028   -3.5197 H   0  0  0  0  0  0  0  0  0  0  0  0
    5.4628   -0.9470   -4.0078 H   0  0  0  0  0  0  0  0  0  0  0  0
    5.4048    0.8464   -4.0093 H   0  0  0  0  0  0  0  0  0  0  0  0
    0.8089    0.0102    5.6825 H   0  0  0  0  0  0  0  0  0  0  0  0
   -0.1836    1.4842    5.5907 H   0  0  0  0  0  0  0  0  0  0  0  0
   -0.5919    0.1965    6.7458 H   0  0  0  0  0  0  0  0  0  0  0  0
  1  2  1  0
  2  3  2  0
  3  4  1  0
  4  5  2  3
  5  6  1  0
  6  7  2  0
  7  8  1  0
  8  9  2  0
  9 10  1  0
  9 11  1  0
 11 12  2  0
 12 13  1  0
  4 14  1  0
 14 15  1  0
 15 16  2  3
 16 17  1  0
 17 18  1  0
 18 19  1  0
 19 20  1  0
 20 21  1  0
 15 22  1  0
 22 23  2  0
 23 24  1  0
 24 25  1  0
 24  1  1  0
 23  3  1  0
 12  6  1  0
  1 26  1  0
  2 27  1  0
  7 28  1  0
  8 29  1  0
 11 30  1  0
 13 31  1  0
 13 32  1  0
 13 33  1  0
 14 34  1  0
 17 35  1  0
 17 36  1  0
 18 37  1  0
 18 38  1  0
 19 39  1  0
 19 40  1  0
 21 41  1  0
 21 42  1  0
 21 43  1  0
 25 44  1  0
 25 45  1  0
 25 46  1  0
M  END
>  <ScrubInfo>  (8) 
{"isomerGroup": 0, "isomerId": 7, "confId": 0, "nr_conformers:": 1, "nr_isomers:": 9}

$$$$
_i8
     RDKit          3D

 46 48  0  0  0  0  0  0  0  0999 V2000
    1.0121    0.7873    0.2101 N   0  0  0  0  0  0  0  0  0  0  0  0
    1.0979   -0.3230   -0.6129 C   0  0  0  0  0  0  0  0  0  0  0  0
    2.1411   -0.8128   -1.1896 N   0  0  0  0  0  0  0  0  0  0  0  0
    3.4455   -0.1731   -1.0327 C   0  0  0  0  0  0  0  0  0  0  0  0
    4.1811   -0.8043    0.1471 C   0  0  0  0  0  0  0  0  0  0  0  0
    5.5135   -0.1170    0.4349 C   0  0  0  0  0  0  0  0  0  0  0  0
    6.3517   -0.0166   -0.7128 O   0  0  0  0  0  0  0  0  0  0  0  0
    6.9727   -1.2467   -1.0641 C   0  0  0  0  0  0  0  0  0  0  0  0
   -0.1120   -0.9551   -0.7998 N   0  0  0  0  0  0  0  0  0  0  0  0
   -1.3760   -0.6856   -0.3222 C   0  0  0  0  0  0  0  0  0  0  0  0
   -2.3878   -1.4365   -0.6392 N   0  0  0  0  0  0  0  0  0  0  0  0
   -3.6809   -1.1921   -0.1701 C   0  0  0  0  0  0  0  0  0  0  0  0
   -4.0975   -1.8020    1.0204 C   0  0  0  0  0  0  0  0  0  0  0  0
   -5.3911   -1.6068    1.5066 C   0  0  0  0  0  0  0  0  0  0  0  0
   -6.2798   -0.8094    0.7919 C   0  0  0  0  0  0  0  0  0  0  0  0
   -7.8740   -0.5609    1.3892 Cl  0  0  0  0  0  0  0  0  0  0  0  0
   -5.8891   -0.2149   -0.4079 C   0  0  0  0  0  0  0  0  0  0  0  0
   -4.5917   -0.4135   -0.9083 C   0  0  0  0  0  0  0  0  0  0  0  0
   -4.1864    0.2237   -2.2076 C   0  0  0  0  0  0  0  0  0  0  0  0
   -1.3651    0.4937    0.5272 C   0  0  0  0  0  0  0  0  0  0  0  0
   -2.2954    1.2378    1.2762 C   0  0  0  0  0  0  0  0  0  0  0  0
   -1.7397    2.2819    1.9089 N   0  0  0  0  0  0  0  0  0  0  0  0
   -0.4384    2.2182    1.5551 N   0  0  0  0  0  0  0  0  0  0  0  0
    0.4785    3.2088    2.0605 C   0  0  0  0  0  0  0  0  0  0  0  0
   -0.1764    1.1598    0.7398 C   0  0  0  0  0  0  0  0  0  0  0  0
    1.8673    1.2910    0.3975 H   0  0  0  0  0  0  0  0  0  0  0  0
    3.3709    0.9143   -0.9241 H   0  0  0  0  0  0  0  0  0  0  0  0
    4.0109   -0.3414   -1.9564 H   0  0  0  0  0  0  0  0  0  0  0  0
    4.3439   -1.8675   -0.0654 H   0  0  0  0  0  0  0  0  0  0  0  0
    3.5598   -0.7610    1.0497 H   0  0  0  0  0  0  0  0  0  0  0  0
    5.3189    0.9070    0.7728 H   0  0  0  0  0  0  0  0  0  0  0  0
    6.0449   -0.6238    1.2490 H   0  0  0  0  0  0  0  0  0  0  0  0
    7.6513   -1.0588   -1.9007 H   0  0  0  0  0  0  0  0  0  0  0  0
    6.2300   -1.9819   -1.3850 H   0  0  0  0  0  0  0  0  0  0  0  0
    7.5562   -1.6382   -0.2254 H   0  0  0  0  0  0  0  0  0  0  0  0
   -0.0596   -1.7660   -1.3996 H   0  0  0  0  0  0  0  0  0  0  0  0
   -3.4047   -2.4340    1.5704 H   0  0  0  0  0  0  0  0  0  0  0  0
   -5.6962   -2.0809    2.4352 H   0  0  0  0  0  0  0  0  0  0  0  0
   -6.5984    0.3981   -0.9592 H   0  0  0  0  0  0  0  0  0  0  0  0
   -3.4682    1.0293   -2.0259 H   0  0  0  0  0  0  0  0  0  0  0  0
   -5.0492    0.6519   -2.7287 H   0  0  0  0  0  0  0  0  0  0  0  0
   -3.7393   -0.5182   -2.8772 H   0  0  0  0  0  0  0  0  0  0  0  0
   -3.3575    1.0808    1.4029 H   0  0  0  0  0  0  0  0  0  0  0  0
   -0.0554    4.1527    2.1999 H   0  0  0  0  0  0  0  0  0  0  0  0
    1.2884    3.3545    1.3421 H   0  0  0  0  0  0  0  0  0  0  0  0
    0.8733    2.8508    3.0142 H   0  0  0  0  0  0  0  0  0  0  0  0
  1  2  1  0
  2  3  2  3
  3  4  1  0
  4  5  1  0
  5  6  1  0
  6  7  1  0
  7  8  1  0
  2  9  1  0
  9 10  1  0
 10 11  2  3
 11 12  1  0
 12 13  2  0
 13 14  1  0
 14 15  2  0
 15 16  1  0
 15 17  1  0
 17 18  2  0
 18 19  1  0
 10 20  1  0
 20 21  1  0
 21 22  2  0
 22 23  1  0
 23 24  1  0
 23 25  1  0
 25  1  1  0
 18 12  1  0
 25 20  2  0
  1 26  1  0
  4 27  1  0
  4 28  1  0
  5 29  1  0
  5 30  1  0
  6 31  1  0
  6 32  1  0
  8 33  1  0
  8 34  1  0
  8 35  1  0
  9 36  1  0
 13 37  1  0
 14 38  1  0
 17 39  1  0
 19 40  1  0
 19 41  1  0
 19 42  1  0
 21 43  1  0
 24 44  1  0
 24 45  1  0
 24 46  1  0
M  END
>  <ScrubInfo>  (9) 
{"isomerGroup": 0, "isomerId": 8, "confId": 0, "nr_conformers:": 1, "nr_isomers:": 9}

$$$$
