_i0
     RDKit          3D

 45 47  0  0  0  0  0  0  0  0999 V2000
   -7.0230    0.1463    0.5594 C   0  0  0  0  0  0  0  0  0  0  0  0
   -5.8059   -0.0679   -0.3276 C   0  0  0  0  0  0  0  0  0  0  0  0
   -4.7310    0.9867   -0.0626 C   0  0  0  0  0  0  0  0  0  0  0  0
   -3.5311    0.8855   -1.0086 C   0  0  0  0  0  0  0  0  0  0  0  0
   -2.7323   -0.4092   -0.8384 C   0  0  0  0  0  0  0  0  0  0  0  0
   -1.5517   -0.3962   -1.6866 N   0  0  0  0  0  0  0  0  0  0  0  0
   -0.3746    0.0409   -1.0914 C   0  0  0  0  0  0  0  0  0  0  0  0
    0.7359   -0.5746   -1.5405 N   0  0  0  0  0  0  0  0  0  0  0  0
    1.9519   -0.2456   -1.0350 C   0  0  0  0  0  0  0  0  0  0  0  0
    3.0614   -0.9176   -1.5663 N   0  0  0  0  0  0  0  0  0  0  0  0
    4.1702   -1.4700   -0.8965 C   0  0  0  0  0  0  0  0  0  0  0  0
    5.3024   -1.8058   -1.6525 C   0  0  0  0  0  0  0  0  0  0  0  0
    6.4358   -2.3589   -1.0490 C   0  0  0  0  0  0  0  0  0  0  0  0
    6.4422   -2.5887    0.3241 C   0  0  0  0  0  0  0  0  0  0  0  0
    8.1213   -3.4104    1.2293 I   0  0  0  0  0  0  0  0  0  0  0  0
    5.3237   -2.2731    1.0918 C   0  0  0  0  0  0  0  0  0  0  0  0
    4.1931   -1.7193    0.4808 C   0  0  0  0  0  0  0  0  0  0  0  0
    2.0065    0.7728   -0.0815 C   0  0  0  0  0  0  0  0  0  0  0  0
    2.9741    1.4875    0.6544 C   0  0  0  0  0  0  0  0  0  0  0  0
    2.4366    2.4028    1.4701 N   0  0  0  0  0  0  0  0  0  0  0  0
    1.1098    2.2899    1.2273 N   0  0  0  0  0  0  0  0  0  0  0  0
    0.1861    3.1545    1.9171 C   0  0  0  0  0  0  0  0  0  0  0  0
    0.8034    1.3294    0.3028 C   0  0  0  0  0  0  0  0  0  0  0  0
   -0.4123    0.9951   -0.1521 N   0  0  0  0  0  0  0  0  0  0  0  0
   -6.7519    0.0860    1.6183 H   0  0  0  0  0  0  0  0  0  0  0  0
   -7.7783   -0.6198    0.3577 H   0  0  0  0  0  0  0  0  0  0  0  0
   -7.4757    1.1258    0.3752 H   0  0  0  0  0  0  0  0  0  0  0  0
   -6.1157   -0.0291   -1.3782 H   0  0  0  0  0  0  0  0  0  0  0  0
   -5.4094   -1.0715   -0.1404 H   0  0  0  0  0  0  0  0  0  0  0  0
   -5.1726    1.9846   -0.1770 H   0  0  0  0  0  0  0  0  0  0  0  0
   -4.3864    0.9122    0.9760 H   0  0  0  0  0  0  0  0  0  0  0  0
   -3.8713    0.9738   -2.0482 H   0  0  0  0  0  0  0  0  0  0  0  0
   -2.8838    1.7518   -0.8269 H   0  0  0  0  0  0  0  0  0  0  0  0
   -3.3532   -1.2542   -1.1570 H   0  0  0  0  0  0  0  0  0  0  0  0
   -2.4827   -0.5917    0.2146 H   0  0  0  0  0  0  0  0  0  0  0  0
   -1.3232   -1.2837   -2.1217 H   0  0  0  0  0  0  0  0  0  0  0  0
    2.7243   -1.5351   -2.3013 H   0  0  0  0  0  0  0  0  0  0  0  0
    5.3128   -1.6214   -2.7248 H   0  0  0  0  0  0  0  0  0  0  0  0
    7.2999   -2.5999   -1.6626 H   0  0  0  0  0  0  0  0  0  0  0  0
    5.3103   -2.4553    2.1635 H   0  0  0  0  0  0  0  0  0  0  0  0
    3.3257   -1.5094    1.1010 H   0  0  0  0  0  0  0  0  0  0  0  0
    4.0508    1.3759    0.6302 H   0  0  0  0  0  0  0  0  0  0  0  0
    0.4132    4.1879    1.6431 H   0  0  0  0  0  0  0  0  0  0  0  0
    0.3144    3.0073    2.9925 H   0  0  0  0  0  0  0  0  0  0  0  0
   -0.8398    2.9117    1.6312 H   0  0  0  0  0  0  0  0  0  0  0  0
  1  2  1  0
  2  3  1  0
  3  4  1  0
  4  5  1  0
  5  6  1  0
  6  7  1  0
  7  8  2  0
  8  9  1  0
  9 10  1  0
 10 11  1  0
 11 12  2  0
 12 13  1  0
 13 14  2  0
 14 15  1  0
 14 16  1  0
 16 17  2  0
  9 18  2  0
 18 19  1  0
 19 20  2  0
 20 21  1  0
 21 22  1  0
 21 23  1  0
 23 24  2  0
 24  7  1  0
 17 11  1  0
 23 18  1  0
  1 25  1  0
  1 26  1  0
  1 27  1  0
  2 28  1  0
  2 29  1  0
  3 30  1  0
  3 31  1  0
  4 32  1  0
  4 33  1  0
  5 34  1  0
  5 35  1  0
  6 36  1  0
 10 37  1  0
 12 38  1  0
 13 39  1  0
 16 40  1  0
 17 41  1  0
 19 42  1  0
 22 43  1  0
 22 44  1  0
 22 45  1  0
M  END
>  <ScrubInfo>  (1) 
{"isomerGroup": 0, "isomerId": 0, "confId": 0, "nr_conformers:": 1, "nr_isomers:": 9}

$$$$
_i1
     RDKit          3D

 45 47  0  0  0  0  0  0  0  0999 V2000
   -0.6750    0.7226   -0.8908 N   0  0  0  0  0  0  0  0  0  0  0  0
   -1.9442    0.1840   -0.9380 C   0  0  0  0  0  0  0  0  0  0  0  0
   -3.0411    0.9714   -1.2327 N   0  0  0  0  0  0  0  0  0  0  0  0
   -4.2083    1.1228   -0.4491 C   0  0  0  0  0  0  0  0  0  0  0  0
   -5.3032    1.7915   -1.0176 C   0  0  0  0  0  0  0  0  0  0  0  0
   -6.5018    1.9452   -0.3139 C   0  0  0  0  0  0  0  0  0  0  0  0
   -6.6183    1.4233    0.9714 C   0  0  0  0  0  0  0  0  0  0  0  0
   -8.3949    1.6468    2.0234 I   0  0  0  0  0  0  0  0  0  0  0  0
   -5.5464    0.7509    1.5529 C   0  0  0  0  0  0  0  0  0  0  0  0
   -4.3499    0.5994    0.8426 C   0  0  0  0  0  0  0  0  0  0  0  0
   -2.0072   -1.1388   -0.7393 C   0  0  0  0  0  0  0  0  0  0  0  0
   -3.0318   -2.1885   -0.7113 C   0  0  0  0  0  0  0  0  0  0  0  0
   -2.5432   -3.3727   -0.4371 N   0  0  0  0  0  0  0  0  0  0  0  0
   -1.1558   -3.1870   -0.3232 N   0  0  0  0  0  0  0  0  0  0  0  0
   -0.3502   -4.2411    0.2418 C   0  0  0  0  0  0  0  0  0  0  0  0
   -0.7529   -1.8683   -0.4525 C   0  0  0  0  0  0  0  0  0  0  0  0
    0.4184   -1.3376   -0.3502 N   0  0  0  0  0  0  0  0  0  0  0  0
    0.4579    0.0233   -0.5591 C   0  0  0  0  0  0  0  0  0  0  0  0
    1.5672    0.6763   -0.4409 N   0  0  0  0  0  0  0  0  0  0  0  0
    2.7567   -0.1001   -0.0864 C   0  0  0  0  0  0  0  0  0  0  0  0
    3.9434    0.8614   -0.0062 C   0  0  0  0  0  0  0  0  0  0  0  0
    5.2331    0.1240    0.3582 C   0  0  0  0  0  0  0  0  0  0  0  0
    6.4302    1.0566    0.5539 C   0  0  0  0  0  0  0  0  0  0  0  0
    6.8582    1.7708   -0.7188 C   0  0  0  0  0  0  0  0  0  0  0  0
   -0.5654    1.7232   -0.9417 H   0  0  0  0  0  0  0  0  0  0  0  0
   -2.7906    1.8502   -1.6784 H   0  0  0  0  0  0  0  0  0  0  0  0
   -5.2355    2.1894   -2.0279 H   0  0  0  0  0  0  0  0  0  0  0  0
   -7.3313    2.4670   -0.7843 H   0  0  0  0  0  0  0  0  0  0  0  0
   -5.6214    0.3409    2.5572 H   0  0  0  0  0  0  0  0  0  0  0  0
   -3.5273    0.0876    1.3349 H   0  0  0  0  0  0  0  0  0  0  0  0
   -4.0896   -1.9581   -0.8909 H   0  0  0  0  0  0  0  0  0  0  0  0
   -0.7410   -5.2236   -0.0423 H   0  0  0  0  0  0  0  0  0  0  0  0
   -0.3462   -4.1728    1.3341 H   0  0  0  0  0  0  0  0  0  0  0  0
    0.6827   -4.1775   -0.1150 H   0  0  0  0  0  0  0  0  0  0  0  0
    2.6220   -0.5903    0.8855 H   0  0  0  0  0  0  0  0  0  0  0  0
    2.9613   -0.8634   -0.8470 H   0  0  0  0  0  0  0  0  0  0  0  0
    4.0566    1.3708   -0.9703 H   0  0  0  0  0  0  0  0  0  0  0  0
    3.7355    1.6382    0.7401 H   0  0  0  0  0  0  0  0  0  0  0  0
    5.4671   -0.6172   -0.4157 H   0  0  0  0  0  0  0  0  0  0  0  0
    5.0767   -0.4321    1.2909 H   0  0  0  0  0  0  0  0  0  0  0  0
    6.2036    1.7974    1.3294 H   0  0  0  0  0  0  0  0  0  0  0  0
    7.2761    0.4629    0.9206 H   0  0  0  0  0  0  0  0  0  0  0  0
    7.0602    1.0555   -1.5222 H   0  0  0  0  0  0  0  0  0  0  0  0
    6.0921    2.4716   -1.0630 H   0  0  0  0  0  0  0  0  0  0  0  0
    7.7732    2.3440   -0.5378 H   0  0  0  0  0  0  0  0  0  0  0  0
  1  2  1  0
  2  3  1  0
  3  4  1  0
  4  5  2  0
  5  6  1  0
  6  7  2  0
  7  8  1  0
  7  9  1  0
  9 10  2  0
  2 11  2  0
 11 12  1  0
 12 13  2  0
 13 14  1  0
 14 15  1  0
 14 16  1  0
 16 17  2  0
 17 18  1  0
 18 19  2  3
 19 20  1  0
 20 21  1  0
 21 22  1  0
 22 23  1  0
 23 24  1  0
 18  1  1  0
 10  4  1  0
 16 11  1  0
  1 25  1  0
  3 26  1  0
  5 27  1  0
  6 28  1  0
  9 29  1  0
 10 30  1  0
 12 31  1  0
 15 32  1  0
 15 33  1  0
 15 34  1  0
 20 35  1  0
 20 36  1  0
 21 37  1  0
 21 38  1  0
 22 39  1  0
 22 40  1  0
 23 41  1  0
 23 42  1  0
 24 43  1  0
 24 44  1  0
 24 45  1  0
M  END
>  <ScrubInfo>  (2) 
{"isomerGroup": 0, "isomerId": 1, "confId": 0, "nr_conformers:": 1, "nr_isomers:": 9}

$$$$
_i2
     RDKit          3D

 45 47  0  0  0  0  0  0  0  0999 V2000
    0.2576    0.8966    0.7649 N   0  0  0  0  0  0  0  0  0  0  0  0
   -0.7061   -0.0808    0.8450 C   0  0  0  0  0  0  0  0  0  0  0  0
   -1.9308    0.4092    1.2120 N   0  0  0  0  0  0  0  0  0  0  0  0
   -3.1213   -0.4274    1.2346 C   0  0  0  0  0  0  0  0  0  0  0  0
   -3.6789   -0.6735   -0.1688 C   0  0  0  0  0  0  0  0  0  0  0  0
   -4.0819    0.5864   -0.9452 C   0  0  0  0  0  0  0  0  0  0  0  0
   -5.1139    1.4863   -0.2620 C   0  0  0  0  0  0  0  0  0  0  0  0
   -6.4367    0.7900    0.0166 C   0  0  0  0  0  0  0  0  0  0  0  0
   -0.4736   -1.3457    0.6078 N   0  0  0  0  0  0  0  0  0  0  0  0
    0.8237   -1.5667    0.2552 C   0  0  0  0  0  0  0  0  0  0  0  0
    1.8586   -0.6502    0.1501 C   0  0  0  0  0  0  0  0  0  0  0  0
    2.9644   -1.4200   -0.2513 C   0  0  0  0  0  0  0  0  0  0  0  0
    2.6693   -2.7187   -0.3922 N   0  0  0  0  0  0  0  0  0  0  0  0
    1.3564   -2.7812   -0.0735 N   0  0  0  0  0  0  0  0  0  0  0  0
    0.6803   -4.0532   -0.1116 C   0  0  0  0  0  0  0  0  0  0  0  0
    1.5882    0.7415    0.4501 C   0  0  0  0  0  0  0  0  0  0  0  0
    2.4076    1.7490    0.4569 N   0  0  0  0  0  0  0  0  0  0  0  0
    3.7610    1.6056    0.1509 C   0  0  0  0  0  0  0  0  0  0  0  0
    4.6889    1.3394    1.1618 C   0  0  0  0  0  0  0  0  0  0  0  0
    6.0496    1.2291    0.8634 C   0  0  0  0  0  0  0  0  0  0  0  0
    6.4842    1.4034   -0.4504 C   0  0  0  0  0  0  0  0  0  0  0  0
    8.5063    1.2400   -0.8996 I   0  0  0  0  0  0  0  0  0  0  0  0
    5.5703    1.6933   -1.4634 C   0  0  0  0  0  0  0  0  0  0  0  0
    4.2110    1.8019   -1.1578 C   0  0  0  0  0  0  0  0  0  0  0  0
    0.0235    1.8190    1.0910 H   0  0  0  0  0  0  0  0  0  0  0  0
   -2.1200    1.3666    0.9449 H   0  0  0  0  0  0  0  0  0  0  0  0
   -3.8757    0.0567    1.8634 H   0  0  0  0  0  0  0  0  0  0  0  0
   -2.8990   -1.3870    1.7165 H   0  0  0  0  0  0  0  0  0  0  0  0
   -4.5440   -1.3423   -0.0884 H   0  0  0  0  0  0  0  0  0  0  0  0
   -2.9361   -1.2153   -0.7674 H   0  0  0  0  0  0  0  0  0  0  0  0
   -4.4757    0.2754   -1.9212 H   0  0  0  0  0  0  0  0  0  0  0  0
   -3.1865    1.1826   -1.1589 H   0  0  0  0  0  0  0  0  0  0  0  0
   -4.7094    1.8925    0.6714 H   0  0  0  0  0  0  0  0  0  0  0  0
   -5.3049    2.3468   -0.9147 H   0  0  0  0  0  0  0  0  0  0  0  0
   -6.3219   -0.0089    0.7550 H   0  0  0  0  0  0  0  0  0  0  0  0
   -7.1620    1.5070    0.4144 H   0  0  0  0  0  0  0  0  0  0  0  0
   -6.8541    0.3589   -0.8988 H   0  0  0  0  0  0  0  0  0  0  0  0
    3.9802   -1.1104   -0.4532 H   0  0  0  0  0  0  0  0  0  0  0  0
    0.7430   -4.4451   -1.1300 H   0  0  0  0  0  0  0  0  0  0  0  0
   -0.3669   -3.9329    0.1740 H   0  0  0  0  0  0  0  0  0  0  0  0
    1.1790   -4.7284    0.5885 H   0  0  0  0  0  0  0  0  0  0  0  0
    4.3486    1.2159    2.1866 H   0  0  0  0  0  0  0  0  0  0  0  0
    6.7526    1.0127    1.6636 H   0  0  0  0  0  0  0  0  0  0  0  0
    5.8972    1.8415   -2.4892 H   0  0  0  0  0  0  0  0  0  0  0  0
    3.4978    2.0397   -1.9424 H   0  0  0  0  0  0  0  0  0  0  0  0
  1  2  1  0
  2  3  1  0
  3  4  1  0
  4  5  1  0
  5  6  1  0
  6  7  1  0
  7  8  1  0
  2  9  2  0
  9 10  1  0
 10 11  2  0
 11 12  1  0
 12 13  2  0
 13 14  1  0
 14 15  1  0
 11 16  1  0
 16 17  2  3
 17 18  1  0
 18 19  2  0
 19 20  1  0
 20 21  2  0
 21 22  1  0
 21 23  1  0
 23 24  2  0
 16  1  1  0
 24 18  1  0
 14 10  1  0
  1 25  1  0
  3 26  1  0
  4 27  1  0
  4 28  1  0
  5 29  1  0
  5 30  1  0
  6 31  1  0
  6 32  1  0
  7 33  1  0
  7 34  1  0
  8 35  1  0
  8 36  1  0
  8 37  1  0
 12 38  1  0
 15 39  1  0
 15 40  1  0
 15 41  1  0
 19 42  1  0
 20 43  1  0
 23 44  1  0
 24 45  1  0
M  END
>  <ScrubInfo>  (3) 
{"isomerGroup": 0, "isomerId": 2, "confId": 0, "nr_conformers:": 1, "nr_isomers:": 9}

$$$$
_i3
     RDKit          3D

 45 47  0  0  0  0  0  0  0  0999 V2000
   -0.3367   -0.6013   -0.6650 N   0  0  0  0  0  0  0  0  0  0  0  0
   -0.5566    0.2654    0.3946 C   0  0  0  0  0  0  0  0  0  0  0  0
   -1.6600    0.8586    0.6795 N   0  0  0  0  0  0  0  0  0  0  0  0
   -2.8469    0.6915   -0.1480 C   0  0  0  0  0  0  0  0  0  0  0  0
   -3.6442   -0.5221    0.3266 C   0  0  0  0  0  0  0  0  0  0  0  0
   -4.8604   -0.8322   -0.5504 C   0  0  0  0  0  0  0  0  0  0  0  0
   -5.9084    0.2789   -0.6486 C   0  0  0  0  0  0  0  0  0  0  0  0
   -6.5132    0.6638    0.6924 C   0  0  0  0  0  0  0  0  0  0  0  0
    0.4594    0.5754    1.2886 N   0  0  0  0  0  0  0  0  0  0  0  0
    1.6440    0.0590    1.1284 C   0  0  0  0  0  0  0  0  0  0  0  0
    2.6855    0.3081    1.9862 N   0  0  0  0  0  0  0  0  0  0  0  0
    3.9117    0.9055    1.5943 C   0  0  0  0  0  0  0  0  0  0  0  0
    4.9918    0.8425    2.4863 C   0  0  0  0  0  0  0  0  0  0  0  0
    6.2178    1.4364    2.1729 C   0  0  0  0  0  0  0  0  0  0  0  0
    6.3673    2.1134    0.9648 C   0  0  0  0  0  0  0  0  0  0  0  0
    8.1863    2.9984    0.4926 I   0  0  0  0  0  0  0  0  0  0  0  0
    5.2991    2.2046    0.0750 C   0  0  0  0  0  0  0  0  0  0  0  0
    4.0744    1.6085    0.3933 C   0  0  0  0  0  0  0  0  0  0  0  0
    1.9025   -0.8746    0.0581 C   0  0  0  0  0  0  0  0  0  0  0  0
    2.9671   -1.6659   -0.3980 C   0  0  0  0  0  0  0  0  0  0  0  0
    2.6374   -2.3858   -1.4825 N   0  0  0  0  0  0  0  0  0  0  0  0
    1.3417   -2.0571   -1.7093 N   0  0  0  0  0  0  0  0  0  0  0  0
    0.6488   -2.6664   -2.8156 C   0  0  0  0  0  0  0  0  0  0  0  0
    0.8784   -1.1593   -0.8010 C   0  0  0  0  0  0  0  0  0  0  0  0
   -1.1262   -0.8307   -1.2483 H   0  0  0  0  0  0  0  0  0  0  0  0
   -2.6047    0.6206   -1.2144 H   0  0  0  0  0  0  0  0  0  0  0  0
   -3.4514    1.5986   -0.0395 H   0  0  0  0  0  0  0  0  0  0  0  0
   -2.9959   -1.4074    0.3301 H   0  0  0  0  0  0  0  0  0  0  0  0
   -3.9537   -0.3775    1.3685 H   0  0  0  0  0  0  0  0  0  0  0  0
   -4.5147   -1.0736   -1.5633 H   0  0  0  0  0  0  0  0  0  0  0  0
   -5.3417   -1.7400   -0.1656 H   0  0  0  0  0  0  0  0  0  0  0  0
   -5.4802    1.1670   -1.1259 H   0  0  0  0  0  0  0  0  0  0  0  0
   -6.7145   -0.0665   -1.3074 H   0  0  0  0  0  0  0  0  0  0  0  0
   -7.3225    1.3863    0.5458 H   0  0  0  0  0  0  0  0  0  0  0  0
   -6.9287   -0.2112    1.2020 H   0  0  0  0  0  0  0  0  0  0  0  0
   -5.7709    1.1275    1.3487 H   0  0  0  0  0  0  0  0  0  0  0  0
    2.3275    0.8411    2.7779 H   0  0  0  0  0  0  0  0  0  0  0  0
    4.8873    0.3135    3.4314 H   0  0  0  0  0  0  0  0  0  0  0  0
    7.0406    1.3613    2.8792 H   0  0  0  0  0  0  0  0  0  0  0  0
    5.3986    2.7393   -0.8665 H   0  0  0  0  0  0  0  0  0  0  0  0
    3.2512    1.7154   -0.3094 H   0  0  0  0  0  0  0  0  0  0  0  0
    3.9678   -1.7546    0.0052 H   0  0  0  0  0  0  0  0  0  0  0  0
    0.5875   -3.7420   -2.6320 H   0  0  0  0  0  0  0  0  0  0  0  0
    1.2131   -2.4657   -3.7299 H   0  0  0  0  0  0  0  0  0  0  0  0
   -0.3553   -2.2463   -2.9033 H   0  0  0  0  0  0  0  0  0  0  0  0
  1  2  1  0
  2  3  2  3
  3  4  1  0
  4  5  1  0
  5  6  1  0
  6  7  1  0
  7  8  1  0
  2  9  1  0
  9 10  2  0
 10 11  1  0
 11 12  1  0
 12 13  2  0
 13 14  1  0
 14 15  2  0
 15 16  1  0
 15 17  1  0
 17 18  2  0
 10 19  1  0
 19 20  1  0
 20 21  2  0
 21 22  1  0
 22 23  1  0
 22 24  1  0
 24  1  1  0
 18 12  1  0
 24 19  2  0
  1 25  1  0
  4 26  1  0
  4 27  1  0
  5 28  1  0
  5 29  1  0
  6 30  1  0
  6 31  1  0
  7 32  1  0
  7 33  1  0
  8 34  1  0
  8 35  1  0
  8 36  1  0
 11 37  1  0
 13 38  1  0
 14 39  1  0
 17 40  1  0
 18 41  1  0
 20 42  1  0
 23 43  1  0
 23 44  1  0
 23 45  1  0
M  END
>  <ScrubInfo>  (4) 
{"isomerGroup": 0, "isomerId": 3, "confId": 0, "nr_conformers:": 1, "nr_isomers:": 9}

$$$$
_i4
     RDKit          3D

 45 47  0  0  0  0  0  0  0  0999 V2000
   -1.4443   -4.4664   -0.4713 N   0  0  0  0  0  0  0  0  0  0  0  0
   -2.4064   -3.4719   -0.6185 C   0  0  0  0  0  0  0  0  0  0  0  0
   -1.9630   -2.2623   -0.2531 C   0  0  0  0  0  0  0  0  0  0  0  0
   -2.4680   -0.9097   -0.2190 C   0  0  0  0  0  0  0  0  0  0  0  0
   -3.6838   -0.6179   -0.5636 N   0  0  0  0  0  0  0  0  0  0  0  0
   -4.0916    0.7213   -0.5065 C   0  0  0  0  0  0  0  0  0  0  0  0
   -4.0400    1.5197   -1.6525 C   0  0  0  0  0  0  0  0  0  0  0  0
   -4.4717    2.8482   -1.6127 C   0  0  0  0  0  0  0  0  0  0  0  0
   -4.9682    3.3762   -0.4211 C   0  0  0  0  0  0  0  0  0  0  0  0
   -5.6096    5.3520   -0.3551 I   0  0  0  0  0  0  0  0  0  0  0  0
   -5.0405    2.5854    0.7254 C   0  0  0  0  0  0  0  0  0  0  0  0
   -4.6072    1.2577    0.6771 C   0  0  0  0  0  0  0  0  0  0  0  0
   -1.5555    0.0239    0.1950 N   0  0  0  0  0  0  0  0  0  0  0  0
   -0.3465   -0.2942    0.5613 C   0  0  0  0  0  0  0  0  0  0  0  0
    0.4494    0.7447    0.9453 N   0  0  0  0  0  0  0  0  0  0  0  0
    1.8941    0.6941    0.9777 C   0  0  0  0  0  0  0  0  0  0  0  0
    2.4667    0.8282   -0.4336 C   0  0  0  0  0  0  0  0  0  0  0  0
    3.9901    0.6865   -0.4874 C   0  0  0  0  0  0  0  0  0  0  0  0
    4.7311    1.8129    0.2340 C   0  0  0  0  0  0  0  0  0  0  0  0
    6.2367    1.6889    0.0556 C   0  0  0  0  0  0  0  0  0  0  0  0
    0.1724   -1.5642    0.5873 N   0  0  0  0  0  0  0  0  0  0  0  0
   -0.5981   -2.5260    0.2162 C   0  0  0  0  0  0  0  0  0  0  0  0
   -0.3412   -3.8973    0.1627 N   0  0  0  0  0  0  0  0  0  0  0  0
    0.9845   -4.3956   -0.1472 C   0  0  0  0  0  0  0  0  0  0  0  0
   -1.8127   -5.3216   -0.0483 H   0  0  0  0  0  0  0  0  0  0  0  0
   -3.3883   -3.7251   -0.9932 H   0  0  0  0  0  0  0  0  0  0  0  0
   -3.6575    1.1008   -2.5788 H   0  0  0  0  0  0  0  0  0  0  0  0
   -4.4158    3.4509   -2.5147 H   0  0  0  0  0  0  0  0  0  0  0  0
   -5.4297    2.9819    1.6590 H   0  0  0  0  0  0  0  0  0  0  0  0
   -4.6642    0.6358    1.5659 H   0  0  0  0  0  0  0  0  0  0  0  0
    0.0371    1.6437    0.7267 H   0  0  0  0  0  0  0  0  0  0  0  0
    2.2436    1.5208    1.6047 H   0  0  0  0  0  0  0  0  0  0  0  0
    2.2411   -0.2303    1.4533 H   0  0  0  0  0  0  0  0  0  0  0  0
    2.1685    1.7922   -0.8646 H   0  0  0  0  0  0  0  0  0  0  0  0
    2.0308    0.0562   -1.0804 H   0  0  0  0  0  0  0  0  0  0  0  0
    4.2950    0.6751   -1.5413 H   0  0  0  0  0  0  0  0  0  0  0  0
    4.2842   -0.2817   -0.0640 H   0  0  0  0  0  0  0  0  0  0  0  0
    4.5033    1.7942    1.3050 H   0  0  0  0  0  0  0  0  0  0  0  0
    4.4022    2.7839   -0.1536 H   0  0  0  0  0  0  0  0  0  0  0  0
    6.5126    1.7429   -1.0023 H   0  0  0  0  0  0  0  0  0  0  0  0
    6.7486    2.5009    0.5816 H   0  0  0  0  0  0  0  0  0  0  0  0
    6.6023    0.7390    0.4587 H   0  0  0  0  0  0  0  0  0  0  0  0
    1.7238   -3.9803    0.5452 H   0  0  0  0  0  0  0  0  0  0  0  0
    1.0133   -5.4859   -0.0523 H   0  0  0  0  0  0  0  0  0  0  0  0
    1.2722   -4.1274   -1.1692 H   0  0  0  0  0  0  0  0  0  0  0  0
  1  2  1  0
  2  3  2  0
  3  4  1  0
  4  5  2  3
  5  6  1  0
  6  7  2  0
  7  8  1  0
  8  9  2  0
  9 10  1  0
  9 11  1  0
 11 12  2  0
  4 13  1  0
 13 14  2  0
 14 15  1  0
 15 16  1  0
 16 17  1  0
 17 18  1  0
 18 19  1  0
 19 20  1  0
 14 21  1  0
 21 22  2  0
 22 23  1  0
 23 24  1  0
 23  1  1  0
 22  3  1  0
 12  6  1  0
  1 25  1  0
  2 26  1  0
  7 27  1  0
  8 28  1  0
 11 29  1  0
 12 30  1  0
 15 31  1  0
 16 32  1  0
 16 33  1  0
 17 34  1  0
 17 35  1  0
 18 36  1  0
 18 37  1  0
 19 38  1  0
 19 39  1  0
 20 40  1  0
 20 41  1  0
 20 42  1  0
 24 43  1  0
 24 44  1  0
 24 45  1  0
M  END
>  <ScrubInfo>  (5) 
{"isomerGroup": 0, "isomerId": 4, "confId": 0, "nr_conformers:": 1, "nr_isomers:": 9}

$$$$
_i5
     RDKit          3D

 45 47  0  0  0  0  0  0  0  0999 V2000
   -0.2703   -2.4177   -0.5779 N   0  0  0  0  0  0  0  0  0  0  0  0
   -0.2293   -1.0638   -0.3148 C   0  0  0  0  0  0  0  0  0  0  0  0
    0.9962   -0.5281   -0.6119 N   0  0  0  0  0  0  0  0  0  0  0  0
    1.2675    0.8762   -0.3216 C   0  0  0  0  0  0  0  0  0  0  0  0
    2.6205    1.3003   -0.8974 C   0  0  0  0  0  0  0  0  0  0  0  0
    3.8070    0.7436   -0.1026 C   0  0  0  0  0  0  0  0  0  0  0  0
    5.1651    1.1265   -0.6967 C   0  0  0  0  0  0  0  0  0  0  0  0
    5.4596    2.6173   -0.6337 C   0  0  0  0  0  0  0  0  0  0  0  0
   -1.2194   -0.3577    0.1550 N   0  0  0  0  0  0  0  0  0  0  0  0
   -2.4303   -0.9764    0.4308 C   0  0  0  0  0  0  0  0  0  0  0  0
   -3.4637   -0.3714    0.9240 N   0  0  0  0  0  0  0  0  0  0  0  0
   -3.3536    0.9972    1.2004 C   0  0  0  0  0  0  0  0  0  0  0  0
   -3.6458    1.9458    0.2158 C   0  0  0  0  0  0  0  0  0  0  0  0
   -3.5582    3.3117    0.4975 C   0  0  0  0  0  0  0  0  0  0  0  0
   -3.1880    3.7295    1.7756 C   0  0  0  0  0  0  0  0  0  0  0  0
   -3.0516    5.7596    2.1994 I   0  0  0  0  0  0  0  0  0  0  0  0
   -2.9119    2.7935    2.7720 C   0  0  0  0  0  0  0  0  0  0  0  0
   -3.0014    1.4294    2.4821 C   0  0  0  0  0  0  0  0  0  0  0  0
   -2.5273   -2.3830    0.1393 C   0  0  0  0  0  0  0  0  0  0  0  0
   -3.5266   -3.3614    0.2188 C   0  0  0  0  0  0  0  0  0  0  0  0
   -3.0989   -4.5603   -0.2116 N   0  0  0  0  0  0  0  0  0  0  0  0
   -1.8095   -4.3352   -0.5687 N   0  0  0  0  0  0  0  0  0  0  0  0
   -1.0252   -5.4281   -1.0837 C   0  0  0  0  0  0  0  0  0  0  0  0
   -1.4403   -3.0445   -0.3605 C   0  0  0  0  0  0  0  0  0  0  0  0
    0.4725   -2.8045   -1.1439 H   0  0  0  0  0  0  0  0  0  0  0  0
    1.7646   -1.1365   -0.3605 H   0  0  0  0  0  0  0  0  0  0  0  0
    0.4898    1.4965   -0.7833 H   0  0  0  0  0  0  0  0  0  0  0  0
    1.2395    1.0513    0.7601 H   0  0  0  0  0  0  0  0  0  0  0  0
    2.6606    2.3954   -0.8825 H   0  0  0  0  0  0  0  0  0  0  0  0
    2.6959    0.9877   -1.9460 H   0  0  0  0  0  0  0  0  0  0  0  0
    3.7519   -0.3504   -0.0730 H   0  0  0  0  0  0  0  0  0  0  0  0
    3.7505    1.0903    0.9364 H   0  0  0  0  0  0  0  0  0  0  0  0
    5.9476    0.5949   -0.1420 H   0  0  0  0  0  0  0  0  0  0  0  0
    5.2272    0.7855   -1.7366 H   0  0  0  0  0  0  0  0  0  0  0  0
    4.7813    3.1883   -1.2742 H   0  0  0  0  0  0  0  0  0  0  0  0
    6.4806    2.8127   -0.9771 H   0  0  0  0  0  0  0  0  0  0  0  0
    5.3692    2.9932    0.3903 H   0  0  0  0  0  0  0  0  0  0  0  0
   -3.9371    1.6141   -0.7768 H   0  0  0  0  0  0  0  0  0  0  0  0
   -3.7826    4.0296   -0.2864 H   0  0  0  0  0  0  0  0  0  0  0  0
   -2.6299    3.1048    3.7738 H   0  0  0  0  0  0  0  0  0  0  0  0
   -2.7928    0.6953    3.2552 H   0  0  0  0  0  0  0  0  0  0  0  0
   -4.5469   -3.2545    0.5647 H   0  0  0  0  0  0  0  0  0  0  0  0
   -1.0426   -6.2411   -0.3534 H   0  0  0  0  0  0  0  0  0  0  0  0
   -1.4680   -5.7529   -2.0285 H   0  0  0  0  0  0  0  0  0  0  0  0
    0.0042   -5.1026   -1.2476 H   0  0  0  0  0  0  0  0  0  0  0  0
  1  2  1  0
  2  3  1  0
  3  4  1  0
  4  5  1  0
  5  6  1  0
  6  7  1  0
  7  8  1  0
  2  9  2  0
  9 10  1  0
 10 11  2  3
 11 12  1  0
 12 13  2  0
 13 14  1  0
 14 15  2  0
 15 16  1  0
 15 17  1  0
 17 18  2  0
 10 19  1  0
 19 20  1  0
 20 21  2  0
 21 22  1  0
 22 23  1  0
 22 24  1  0
 24  1  1  0
 18 12  1  0
 24 19  2  0
  1 25  1  0
  3 26  1  0
  4 27  1  0
  4 28  1  0
  5 29  1  0
  5 30  1  0
  6 31  1  0
  6 32  1  0
  7 33  1  0
  7 34  1  0
  8 35  1  0
  8 36  1  0
  8 37  1  0
 13 38  1  0
 14 39  1  0
 17 40  1  0
 18 41  1  0
 20 42  1  0
 23 43  1  0
 23 44  1  0
 23 45  1  0
M  END
>  <ScrubInfo>  (6) 
{"isomerGroup": 0, "isomerId": 5, "confId": 0, "nr_conformers:": 1, "nr_isomers:": 9}

$$$$
_i6
     RDKit          3D

 45 47  0  0  0  0  0  0  0  0999 V2000
   -1.8418   -4.1492    1.8507 N   0  0  0  0  0  0  0  0  0  0  0  0
   -2.5484   -2.9614    1.6957 C   0  0  0  0  0  0  0  0  0  0  0  0
   -1.8695   -2.0352    1.0039 C   0  0  0  0  0  0  0  0  0  0  0  0
   -2.0490   -0.6494    0.5568 C   0  0  0  0  0  0  0  0  0  0  0  0
   -3.2385   -0.0011    0.8391 N   0  0  0  0  0  0  0  0  0  0  0  0
   -3.6506    1.3130    0.5406 C   0  0  0  0  0  0  0  0  0  0  0  0
   -4.9387    1.7115    0.9449 C   0  0  0  0  0  0  0  0  0  0  0  0
   -5.4251    2.9977    0.6830 C   0  0  0  0  0  0  0  0  0  0  0  0
   -4.6249    3.9115    0.0062 C   0  0  0  0  0  0  0  0  0  0  0  0
   -5.3353    5.8219   -0.3880 I   0  0  0  0  0  0  0  0  0  0  0  0
   -3.3488    3.5439   -0.4065 C   0  0  0  0  0  0  0  0  0  0  0  0
   -2.8703    2.2537   -0.1399 C   0  0  0  0  0  0  0  0  0  0  0  0
   -1.0552   -0.1119   -0.0878 N   0  0  0  0  0  0  0  0  0  0  0  0
    0.0984   -0.8253   -0.3153 C   0  0  0  0  0  0  0  0  0  0  0  0
    1.0192   -0.1436   -0.9002 N   0  0  0  0  0  0  0  0  0  0  0  0
    2.2837   -0.8148   -1.1867 C   0  0  0  0  0  0  0  0  0  0  0  0
    3.2350    0.1790   -1.8580 C   0  0  0  0  0  0  0  0  0  0  0  0
    3.6865    1.2903   -0.9043 C   0  0  0  0  0  0  0  0  0  0  0  0
    4.5837    2.3343   -1.5737 C   0  0  0  0  0  0  0  0  0  0  0  0
    5.9275    1.7828   -2.0244 C   0  0  0  0  0  0  0  0  0  0  0  0
    0.3306   -2.1416    0.0126 N   0  0  0  0  0  0  0  0  0  0  0  0
   -0.6207   -2.7389    0.6397 C   0  0  0  0  0  0  0  0  0  0  0  0
   -0.6822   -4.0583    1.0892 N   0  0  0  0  0  0  0  0  0  0  0  0
    0.5129   -4.7522    1.5310 C   0  0  0  0  0  0  0  0  0  0  0  0
   -2.4080   -4.9887    1.7047 H   0  0  0  0  0  0  0  0  0  0  0  0
   -3.5364   -2.8882    2.1252 H   0  0  0  0  0  0  0  0  0  0  0  0
   -3.9292   -0.5263    1.3570 H   0  0  0  0  0  0  0  0  0  0  0  0
   -5.5885    1.0190    1.4747 H   0  0  0  0  0  0  0  0  0  0  0  0
   -6.4253    3.2662    1.0127 H   0  0  0  0  0  0  0  0  0  0  0  0
   -2.7058    4.2414   -0.9377 H   0  0  0  0  0  0  0  0  0  0  0  0
   -1.8673    2.0165   -0.4833 H   0  0  0  0  0  0  0  0  0  0  0  0
    2.1196   -1.6518   -1.8764 H   0  0  0  0  0  0  0  0  0  0  0  0
    2.7474   -1.2000   -0.2704 H   0  0  0  0  0  0  0  0  0  0  0  0
    2.7488    0.6211   -2.7362 H   0  0  0  0  0  0  0  0  0  0  0  0
    4.1094   -0.3765   -2.2150 H   0  0  0  0  0  0  0  0  0  0  0  0
    4.2111    0.8508   -0.0471 H   0  0  0  0  0  0  0  0  0  0  0  0
    2.8070    1.8085   -0.5037 H   0  0  0  0  0  0  0  0  0  0  0  0
    4.7637    3.1459   -0.8585 H   0  0  0  0  0  0  0  0  0  0  0  0
    4.0647    2.7776   -2.4314 H   0  0  0  0  0  0  0  0  0  0  0  0
    5.8121    1.0527   -2.8306 H   0  0  0  0  0  0  0  0  0  0  0  0
    6.5585    2.5942   -2.4014 H   0  0  0  0  0  0  0  0  0  0  0  0
    6.4541    1.3025   -1.1937 H   0  0  0  0  0  0  0  0  0  0  0  0
    0.9234   -4.2847    2.4320 H   0  0  0  0  0  0  0  0  0  0  0  0
    0.2839   -5.7991    1.7555 H   0  0  0  0  0  0  0  0  0  0  0  0
    1.2783   -4.7380    0.7484 H   0  0  0  0  0  0  0  0  0  0  0  0
  1  2  1  0
  2  3  2  0
  3  4  1  0
  4  5  1  0
  5  6  1  0
  6  7  2  0
  7  8  1  0
  8  9  2  0
  9 10  1  0
  9 11  1  0
 11 12  2  0
  4 13  2  0
 13 14  1  0
 14 15  2  3
 15 16  1  0
 16 17  1  0
 17 18  1  0
 18 19  1  0
 19 20  1  0
 14 21  1  0
 21 22  2  0
 22 23  1  0
 23 24  1  0
 23  1  1  0
 22  3  1  0
 12  6  1  0
  1 25  1  0
  2 26  1  0
  5 27  1  0
  7 28  1  0
  8 29  1  0
 11 30  1  0
 12 31  1  0
 16 32  1  0
 16 33  1  0
 17 34  1  0
 17 35  1  0
 18 36  1  0
 18 37  1  0
 19 38  1  0
 19 39  1  0
 20 40  1  0
 20 41  1  0
 20 42  1  0
 24 43  1  0
 24 44  1  0
 24 45  1  0
M  END
>  <ScrubInfo>  (7) 
{"isomerGroup": 0, "isomerId": 6, "confId": 0, "nr_conformers:": 1, "nr_isomers:": 9}

$$$$
_i7
     RDKit          3D

 45 47  0  0  0  0  0  0  0  0999 V2000
   -2.7435   -2.6237    0.2462 N   0  0  0  0  0  0  0  0  0  0  0  0
   -2.9230   -1.2482    0.1544 C   0  0  0  0  0  0  0  0  0  0  0  0
   -1.7966   -0.5781   -0.1275 C   0  0  0  0  0  0  0  0  0  0  0  0
   -1.3290    0.7989   -0.3837 C   0  0  0  0  0  0  0  0  0  0  0  0
   -1.9978    1.9140   -0.3574 N   0  0  0  0  0  0  0  0  0  0  0  0
   -3.3592    1.9272   -0.0476 C   0  0  0  0  0  0  0  0  0  0  0  0
   -4.3139    1.8480   -1.0651 C   0  0  0  0  0  0  0  0  0  0  0  0
   -5.6774    1.8830   -0.7614 C   0  0  0  0  0  0  0  0  0  0  0  0
   -6.0853    2.0144    0.5660 C   0  0  0  0  0  0  0  0  0  0  0  0
   -8.1114    2.0638    1.0236 I   0  0  0  0  0  0  0  0  0  0  0  0
   -5.1412    2.1192    1.5874 C   0  0  0  0  0  0  0  0  0  0  0  0
   -3.7795    2.0831    1.2762 C   0  0  0  0  0  0  0  0  0  0  0  0
    0.0037    0.8416   -0.6903 N   0  0  0  0  0  0  0  0  0  0  0  0
    0.8753   -0.2074   -0.7608 C   0  0  0  0  0  0  0  0  0  0  0  0
    2.1011    0.0345   -1.0928 N   0  0  0  0  0  0  0  0  0  0  0  0
    3.0170   -1.1049   -1.1511 C   0  0  0  0  0  0  0  0  0  0  0  0
    4.4206   -0.6082   -1.5051 C   0  0  0  0  0  0  0  0  0  0  0  0
    5.2154   -0.0418   -0.3220 C   0  0  0  0  0  0  0  0  0  0  0  0
    4.6347    1.2424    0.2690 C   0  0  0  0  0  0  0  0  0  0  0  0
    5.5640    1.8407    1.3148 C   0  0  0  0  0  0  0  0  0  0  0  0
    0.4751   -1.4973   -0.4832 N   0  0  0  0  0  0  0  0  0  0  0  0
   -0.7700   -1.6801   -0.1702 C   0  0  0  0  0  0  0  0  0  0  0  0
   -1.3845   -2.8890    0.1656 N   0  0  0  0  0  0  0  0  0  0  0  0
   -0.9421   -4.1404   -0.4195 C   0  0  0  0  0  0  0  0  0  0  0  0
   -3.2408   -3.0473    1.0331 H   0  0  0  0  0  0  0  0  0  0  0  0
   -3.9161   -0.8536    0.3094 H   0  0  0  0  0  0  0  0  0  0  0  0
   -3.9912    1.7614   -2.0994 H   0  0  0  0  0  0  0  0  0  0  0  0
   -6.4026    1.8155   -1.5682 H   0  0  0  0  0  0  0  0  0  0  0  0
   -5.4458    2.2383    2.6239 H   0  0  0  0  0  0  0  0  0  0  0  0
   -3.0401    2.1815    2.0667 H   0  0  0  0  0  0  0  0  0  0  0  0
    0.3988    1.7466   -0.8968 H   0  0  0  0  0  0  0  0  0  0  0  0
    2.6909   -1.7939   -1.9400 H   0  0  0  0  0  0  0  0  0  0  0  0
    3.0463   -1.6502   -0.2001 H   0  0  0  0  0  0  0  0  0  0  0  0
    4.3711    0.1357   -2.3096 H   0  0  0  0  0  0  0  0  0  0  0  0
    4.9890   -1.4605   -1.8986 H   0  0  0  0  0  0  0  0  0  0  0  0
    6.2374    0.1562   -0.6692 H   0  0  0  0  0  0  0  0  0  0  0  0
    5.2956   -0.8038    0.4631 H   0  0  0  0  0  0  0  0  0  0  0  0
    3.6689    1.0393    0.7429 H   0  0  0  0  0  0  0  0  0  0  0  0
    4.4667    1.9787   -0.5251 H   0  0  0  0  0  0  0  0  0  0  0  0
    6.5337    2.0986    0.8772 H   0  0  0  0  0  0  0  0  0  0  0  0
    5.1268    2.7532    1.7321 H   0  0  0  0  0  0  0  0  0  0  0  0
    5.7333    1.1379    2.1369 H   0  0  0  0  0  0  0  0  0  0  0  0
    0.1272   -4.2932   -0.2414 H   0  0  0  0  0  0  0  0  0  0  0  0
   -1.4787   -4.9820    0.0306 H   0  0  0  0  0  0  0  0  0  0  0  0
   -1.1230   -4.1501   -1.4994 H   0  0  0  0  0  0  0  0  0  0  0  0
  1  2  1  0
  2  3  2  0
  3  4  1  0
  4  5  2  3
  5  6  1  0
  6  7  2  0
  7  8  1  0
  8  9  2  0
  9 10  1  0
  9 11  1  0
 11 12  2  0
  4 13  1  0
 13 14  1  0
 14 15  2  3
 15 16  1  0
 16 17  1  0
 17 18  1  0
 18 19  1  0
 19 20  1  0
 14 21  1  0
 21 22  2  0
 22 23  1  0
 23 24  1  0
 23  1  1  0
 22  3  1  0
 12  6  1  0
  1 25  1  0
  2 26  1  0
  7 27  1  0
  8 28  1  0
 11 29  1  0
 12 30  1  0
 13 31  1  0
 16 32  1  0
 16 33  1  0
 17 34  1  0
 17 35  1  0
 18 36  1  0
 18 37  1  0
 19 38  1  0
 19 39  1  0
 20 40  1  0
 20 41  1  0
 20 42  1  0
 24 43  1  0
 24 44  1  0
 24 45  1  0
M  END
>  <ScrubInfo>  (8) 
{"isomerGroup": 0, "isomerId": 7, "confId": 0, "nr_conformers:": 1, "nr_isomers:": 9}

$$$$
_i8
     RDKit          3D

 45 47  0  0  0  0  0  0  0  0999 V2000
   -0.0739   -1.2638   -0.7431 N   0  0  0  0  0  0  0  0  0  0  0  0
    0.1401    0.0358   -0.3068 C   0  0  0  0  0  0  0  0  0  0  0  0
   -0.7356    0.9519   -0.0690 N   0  0  0  0  0  0  0  0  0  0  0  0
   -2.1557    0.6864   -0.2828 C   0  0  0  0  0  0  0  0  0  0  0  0
   -2.7657    0.0817    0.9807 C   0  0  0  0  0  0  0  0  0  0  0  0
   -4.2334   -0.3201    0.8151 C   0  0  0  0  0  0  0  0  0  0  0  0
   -5.1655    0.8682    0.5763 C   0  0  0  0  0  0  0  0  0  0  0  0
   -6.6215    0.4300    0.5304 C   0  0  0  0  0  0  0  0  0  0  0  0
    1.4726    0.3416   -0.1079 N   0  0  0  0  0  0  0  0  0  0  0  0
    2.6133   -0.4190   -0.2712 C   0  0  0  0  0  0  0  0  0  0  0  0
    3.8610   -0.1372   -0.0891 N   0  0  0  0  0  0  0  0  0  0  0  0
    4.1855    1.1504    0.3511 C   0  0  0  0  0  0  0  0  0  0  0  0
    4.2787    1.4256    1.7179 C   0  0  0  0  0  0  0  0  0  0  0  0
    4.6025    2.7104    2.1612 C   0  0  0  0  0  0  0  0  0  0  0  0
    4.8444    3.7208    1.2306 C   0  0  0  0  0  0  0  0  0  0  0  0
    5.3267    5.6333    1.8844 I   0  0  0  0  0  0  0  0  0  0  0  0
    4.7702    3.4535   -0.1363 C   0  0  0  0  0  0  0  0  0  0  0  0
    4.4459    2.1663   -0.5723 C   0  0  0  0  0  0  0  0  0  0  0  0
    2.2806   -1.7483   -0.7246 C   0  0  0  0  0  0  0  0  0  0  0  0
    3.0130   -2.9010   -1.0430 C   0  0  0  0  0  0  0  0  0  0  0  0
    2.2228   -3.9153   -1.4269 N   0  0  0  0  0  0  0  0  0  0  0  0
    0.9714   -3.4007   -1.3481 N   0  0  0  0  0  0  0  0  0  0  0  0
   -0.1469   -4.2385   -1.7002 C   0  0  0  0  0  0  0  0  0  0  0  0
    0.9703   -2.1029   -0.9341 C   0  0  0  0  0  0  0  0  0  0  0  0
   -1.0320   -1.5523   -0.8815 H   0  0  0  0  0  0  0  0  0  0  0  0
   -2.3316    0.0506   -1.1578 H   0  0  0  0  0  0  0  0  0  0  0  0
   -2.6363    1.6447   -0.5073 H   0  0  0  0  0  0  0  0  0  0  0  0
   -2.1982   -0.8116    1.2698 H   0  0  0  0  0  0  0  0  0  0  0  0
   -2.6657    0.7891    1.8133 H   0  0  0  0  0  0  0  0  0  0  0  0
   -4.3269   -1.0366   -0.0102 H   0  0  0  0  0  0  0  0  0  0  0  0
   -4.5487   -0.8453    1.7254 H   0  0  0  0  0  0  0  0  0  0  0  0
   -5.0382    1.6085    1.3745 H   0  0  0  0  0  0  0  0  0  0  0  0
   -4.9190    1.3617   -0.3698 H   0  0  0  0  0  0  0  0  0  0  0  0
   -7.2715    1.2929    0.3552 H   0  0  0  0  0  0  0  0  0  0  0  0
   -6.9218   -0.0347    1.4749 H   0  0  0  0  0  0  0  0  0  0  0  0
   -6.7886   -0.2909   -0.2763 H   0  0  0  0  0  0  0  0  0  0  0  0
    1.6127    1.2893    0.2108 H   0  0  0  0  0  0  0  0  0  0  0  0
    4.1023    0.6322    2.4398 H   0  0  0  0  0  0  0  0  0  0  0  0
    4.6681    2.9028    3.2289 H   0  0  0  0  0  0  0  0  0  0  0  0
    4.9674    4.2291   -0.8718 H   0  0  0  0  0  0  0  0  0  0  0  0
    4.3999    1.9507   -1.6368 H   0  0  0  0  0  0  0  0  0  0  0  0
    4.0854   -3.0456   -1.0122 H   0  0  0  0  0  0  0  0  0  0  0  0
   -0.0732   -5.1715   -1.1354 H   0  0  0  0  0  0  0  0  0  0  0  0
   -0.1009   -4.4369   -2.7739 H   0  0  0  0  0  0  0  0  0  0  0  0
   -1.0838   -3.7351   -1.4535 H   0  0  0  0  0  0  0  0  0  0  0  0
  1  2  1  0
  2  3  2  3
  3  4  1  0
  4  5  1  0
  5  6  1  0
  6  7  1  0
  7  8  1  0
  2  9  1  0
  9 10  1  0
 10 11  2  3
 11 12  1  0
 12 13  2  0
 13 14  1  0
 14 15  2  0
 15 16  1  0
 15 17  1  0
 17 18  2  0
 10 19  1  0
 19 20  1  0
 20 21  2  0
 21 22  1  0
 22 23  1  0
 22 24  1  0
 24  1  1  0
 18 12  1  0
 24 19  2  0
  1 25  1  0
  4 26  1  0
  4 27  1  0
  5 28  1  0
  5 29  1  0
  6 30  1  0
  6 31  1  0
  7 32  1  0
  7 33  1  0
  8 34  1  0
  8 35  1  0
  8 36  1  0
  9 37  1  0
 13 38  1  0
 14 39  1  0
 17 40  1  0
 18 41  1  0
 20 42  1  0
 23 43  1  0
 23 44  1  0
 23 45  1  0
M  END
>  <ScrubInfo>  (9) 
{"isomerGroup": 0, "isomerId": 8, "confId": 0, "nr_conformers:": 1, "nr_isomers:": 9}

$$$$
