REMARK SMILES CCCCCNc1nc(Nc2ccc(I)cc2)c2cnn(C)c2n1
REMARK SMILES IDX 5 1 4 2 3 3 2 4 1 5 6 6 7 8 8 9 24 10 9 11 23 12 18 13 21 14
REMARK SMILES IDX 19 15 20 16 22 17 10 18 11 20 12 21 17 22 13 23 16 24 14 25
REMARK SMILES IDX 15 26
REMARK H PARENT 6 7 10 19
ROOT
ATOM      1  C   UNL     1      -2.732  -0.409  -0.838  1.00  0.00     0.116 C 
ENDROOT
BRANCH   1   2
ATOM      2  C   UNL     1      -3.531   0.885  -1.009  1.00  0.00     0.021 C 
BRANCH   2   3
ATOM      3  C   UNL     1      -4.731   0.987  -0.063  1.00  0.00     0.002 C 
BRANCH   3   4
ATOM      4  C   UNL     1      -5.806  -0.068  -0.328  1.00  0.00    -0.003 C 
ATOM      5  C   UNL     1      -7.023   0.146   0.559  1.00  0.00     0.004 C 
ENDBRANCH   3   4
ENDBRANCH   2   3
ENDBRANCH   1   2
BRANCH   1   6
ATOM      6  N   UNL     1      -1.552  -0.396  -1.687  1.00  0.00    -0.354 N 
ATOM      7  H   UNL     1      -1.323  -1.284  -2.122  1.00  0.00     0.163 HD
BRANCH   6   8
ATOM      8  C   UNL     1      -0.375   0.041  -1.091  1.00  0.00     0.226 A 
ATOM      9  N   UNL     1       0.736  -0.575  -1.540  1.00  0.00    -0.195 NA
ATOM     10  N   UNL     1      -0.412   0.995  -0.152  1.00  0.00    -0.193 NA
ATOM     11  C   UNL     1       1.952  -0.246  -1.035  1.00  0.00     0.147 A 
ATOM     12  C   UNL     1       0.803   1.329   0.303  1.00  0.00     0.165 A 
ATOM     13  C   UNL     1       2.006   0.773  -0.082  1.00  0.00     0.082 A 
ATOM     14  N   UNL     1       1.110   2.290   1.227  1.00  0.00    -0.250 N 
ATOM     15  C   UNL     1       2.974   1.488   0.654  1.00  0.00     0.149 A 
ATOM     16  N   UNL     1       2.437   2.403   1.470  1.00  0.00    -0.179 NA
ATOM     17  C   UNL     1       0.186   3.155   1.917  1.00  0.00     0.176 C 
BRANCH  11  18
ATOM     18  N   UNL     1       3.061  -0.918  -1.566  1.00  0.00    -0.339 N 
ATOM     19  H   UNL     1       2.724  -1.535  -2.301  1.00  0.00     0.168 HD
BRANCH  18  20
ATOM     20  C   UNL     1       4.170  -1.470  -0.896  1.00  0.00     0.040 A 
ATOM     21  C   UNL     1       5.302  -1.806  -1.653  1.00  0.00     0.027 A 
ATOM     22  C   UNL     1       4.193  -1.719   0.481  1.00  0.00     0.027 A 
ATOM     23  C   UNL     1       6.436  -2.359  -1.049  1.00  0.00     0.017 A 
ATOM     24  C   UNL     1       5.324  -2.273   1.092  1.00  0.00     0.017 A 
ATOM     25  C   UNL     1       6.442  -2.589   0.324  1.00  0.00     0.013 A 
ATOM     26  I   UNL     1       8.121  -3.410   1.229  1.00  0.00    -0.044 I 
ENDBRANCH  18  20
ENDBRANCH  11  18
ENDBRANCH   6   8
ENDBRANCH   1   6
TORSDOF 7
