REMARK SMILES Cc1ccc(Nc2nc(NCC[NH+](C)C)nc3nccnc23)cc1
REMARK SMILES IDX 10 1 11 3 12 4 13 5 14 6 15 7 9 9 8 10 16 11 7 12 17 13
REMARK SMILES IDX 22 14 18 15 21 16 19 17 20 18 6 19 5 21 4 22 23 23 3 24
REMARK SMILES IDX 24 25 2 26 1 27
REMARK H PARENT 10 2 13 8 6 20
ROOT
ATOM      1  N   UNL     1       1.702   1.242   0.041  1.00  0.00    -0.348 N 
ATOM      2  H   UNL     1       0.950   1.933  -0.040  1.00  0.00     0.163 HD
ENDROOT
BRANCH   1   3
ATOM      3  C   UNL     1       2.731   1.444  -0.995  1.00  0.00     0.177 C 
BRANCH   3   4
ATOM      4  C   UNL     1       4.018   0.625  -0.733  1.00  0.00     0.283 C 
BRANCH   4   5
ATOM      5  N   UNL     1       4.230   0.431   0.758  1.00  0.00    -0.338 N 
ATOM      6  C   UNL     1       4.985  -0.821   1.076  1.00  0.00     0.332 C 
ATOM      7  C   UNL     1       4.775   1.634   1.456  1.00  0.00     0.332 C 
ATOM      8  H   UNL     1       3.266   0.288   1.110  1.00  0.00     0.347 HD
ENDBRANCH   4   5
ENDBRANCH   3   4
ENDBRANCH   1   3
BRANCH   1   9
ATOM      9  C   UNL     1       1.015   0.035  -0.092  1.00  0.00     0.227 A 
ATOM     10  N   UNL     1      -0.306   0.105  -0.124  1.00  0.00    -0.193 NA
ATOM     11  N   UNL     1       1.713  -1.092  -0.102  1.00  0.00    -0.191 NA
ATOM     12  C   UNL     1      -0.994  -1.054  -0.206  1.00  0.00     0.164 A 
ATOM     13  C   UNL     1       1.034  -2.231  -0.177  1.00  0.00     0.185 A 
ATOM     14  C   UNL     1      -0.364  -2.297  -0.239  1.00  0.00     0.150 A 
ATOM     15  N   UNL     1       1.761  -3.352  -0.197  1.00  0.00    -0.233 NA
ATOM     16  N   UNL     1      -1.037  -3.483  -0.337  1.00  0.00    -0.247 NA
ATOM     17  C   UNL     1       1.094  -4.529  -0.284  1.00  0.00     0.133 A 
ATOM     18  C   UNL     1      -0.280  -4.596  -0.354  1.00  0.00     0.132 A 
BRANCH  12  19
ATOM     19  N   UNL     1      -2.414  -1.053  -0.221  1.00  0.00    -0.338 N 
ATOM     20  H   UNL     1      -2.770  -1.931  -0.597  1.00  0.00     0.168 HD
BRANCH  19  21
ATOM     21  C   UNL     1      -3.361  -0.018  -0.161  1.00  0.00     0.040 A 
ATOM     22  C   UNL     1      -4.682  -0.294  -0.547  1.00  0.00     0.026 A 
ATOM     23  C   UNL     1      -3.077   1.270   0.301  1.00  0.00     0.026 A 
ATOM     24  C   UNL     1      -5.677   0.688  -0.497  1.00  0.00     0.005 A 
ATOM     25  C   UNL     1      -4.069   2.257   0.355  1.00  0.00     0.005 A 
ATOM     26  C   UNL     1      -5.380   1.972  -0.035  1.00  0.00    -0.051 A 
ATOM     27  C   UNL     1      -6.436   3.036  -0.007  1.00  0.00     0.044 C 
ENDBRANCH  19  21
ENDBRANCH  12  19
ENDBRANCH   1   9
TORSDOF 6
