_i0
     RDKit          3D

 46 48  0  0  0  0  0  0  0  0999 V2000
    4.0178    0.6248   -0.7334 C   0  0  0  0  0  0  0  0  0  0  0  0
    4.2303    0.4311    0.7579 N   0  0  0  0  0  4  0  0  0  0  0  0
    4.9853   -0.8207    1.0756 C   0  0  0  0  0  0  0  0  0  0  0  0
    4.7747    1.6339    1.4555 C   0  0  0  0  0  0  0  0  0  0  0  0
    2.7306    1.4441   -0.9945 C   0  0  0  0  0  0  0  0  0  0  0  0
    1.7025    1.2416    0.0409 N   0  0  0  0  0  0  0  0  0  0  0  0
    1.0146    0.0353   -0.0916 C   0  0  0  0  0  0  0  0  0  0  0  0
   -0.3058    0.1048   -0.1240 N   0  0  0  0  0  0  0  0  0  0  0  0
    1.7132   -1.0924   -0.1020 N   0  0  0  0  0  0  0  0  0  0  0  0
   -0.9941   -1.0538   -0.2056 C   0  0  0  0  0  0  0  0  0  0  0  0
    1.0345   -2.2308   -0.1773 C   0  0  0  0  0  0  0  0  0  0  0  0
   -2.4139   -1.0533   -0.2211 N   0  0  0  0  0  0  0  0  0  0  0  0
   -0.3636   -2.2967   -0.2391 C   0  0  0  0  0  0  0  0  0  0  0  0
    1.7608   -3.3516   -0.1967 N   0  0  0  0  0  0  0  0  0  0  0  0
   -3.3610   -0.0183   -0.1607 C   0  0  0  0  0  0  0  0  0  0  0  0
   -1.0369   -3.4827   -0.3371 N   0  0  0  0  0  0  0  0  0  0  0  0
    1.0943   -4.5290   -0.2839 C   0  0  0  0  0  0  0  0  0  0  0  0
   -4.6819   -0.2938   -0.5473 C   0  0  0  0  0  0  0  0  0  0  0  0
   -3.0773    1.2697    0.3006 C   0  0  0  0  0  0  0  0  0  0  0  0
   -0.2798   -4.5963   -0.3541 C   0  0  0  0  0  0  0  0  0  0  0  0
   -5.6772    0.6882   -0.4969 C   0  0  0  0  0  0  0  0  0  0  0  0
   -4.0695    2.2572    0.3548 C   0  0  0  0  0  0  0  0  0  0  0  0
   -5.3800    1.9715   -0.0350 C   0  0  0  0  0  0  0  0  0  0  0  0
   -6.4356    3.0364   -0.0072 C   0  0  0  0  0  0  0  0  0  0  0  0
    3.9247   -0.3687   -1.1846 H   0  0  0  0  0  0  0  0  0  0  0  0
    4.9072    1.1084   -1.1512 H   0  0  0  0  0  0  0  0  0  0  0  0
    3.2661    0.2883    1.1104 H   0  0  0  0  0  0  0  0  0  0  0  0
    4.4600   -1.6682    0.6282 H   0  0  0  0  0  0  0  0  0  0  0  0
    5.0119   -0.9364    2.1623 H   0  0  0  0  0  0  0  0  0  0  0  0
    5.9954   -0.7279    0.6679 H   0  0  0  0  0  0  0  0  0  0  0  0
    4.7808    1.4311    2.5298 H   0  0  0  0  0  0  0  0  0  0  0  0
    4.1247    2.4865    1.2456 H   0  0  0  0  0  0  0  0  0  0  0  0
    5.7880    1.8190    1.0893 H   0  0  0  0  0  0  0  0  0  0  0  0
    2.9973    2.5076   -0.9774 H   0  0  0  0  0  0  0  0  0  0  0  0
    2.3409    1.2409   -1.9998 H   0  0  0  0  0  0  0  0  0  0  0  0
    0.9500    1.9327   -0.0400 H   0  0  0  0  0  0  0  0  0  0  0  0
   -2.7697   -1.9306   -0.5968 H   0  0  0  0  0  0  0  0  0  0  0  0
    1.7066   -5.4248   -0.2970 H   0  0  0  0  0  0  0  0  0  0  0  0
   -4.9559   -1.2848   -0.9017 H   0  0  0  0  0  0  0  0  0  0  0  0
   -2.0835    1.5321    0.6453 H   0  0  0  0  0  0  0  0  0  0  0  0
   -0.8072   -5.5415   -0.4250 H   0  0  0  0  0  0  0  0  0  0  0  0
   -6.6868    0.4392   -0.8169 H   0  0  0  0  0  0  0  0  0  0  0  0
   -3.8100    3.2504    0.7143 H   0  0  0  0  0  0  0  0  0  0  0  0
   -6.2448    3.7547    0.7971 H   0  0  0  0  0  0  0  0  0  0  0  0
   -6.4532    3.5707   -0.9620 H   0  0  0  0  0  0  0  0  0  0  0  0
   -7.4243    2.6018    0.1739 H   0  0  0  0  0  0  0  0  0  0  0  0
  1  2  1  0
  2  3  1  0
  2  4  1  0
  5  1  1  0
  6  5  1  0
  7  6  1  0
  8  7  2  0
  7  9  1  0
 10  8  1  0
  9 11  2  0
 12 10  1  0
 13 10  2  0
 11 14  1  0
 13 11  1  0
 15 12  1  0
 16 13  1  0
 14 17  2  0
 18 15  2  0
 15 19  1  0
 20 16  2  0
 17 20  1  0
 21 18  1  0
 19 22  2  0
 23 21  2  0
 22 23  1  0
 24 23  1  0
  1 25  1  0
  1 26  1  0
  2 27  1  0
  3 28  1  0
  3 29  1  0
  3 30  1  0
  4 31  1  0
  4 32  1  0
  4 33  1  0
  5 34  1  0
  5 35  1  0
  6 36  1  0
 12 37  1  0
 17 38  1  0
 18 39  1  0
 19 40  1  0
 20 41  1  0
 21 42  1  0
 22 43  1  0
 24 44  1  0
 24 45  1  0
 24 46  1  0
M  CHG  1   2   1
M  END
>  <ScrubInfo>  (1) 
{"isomerGroup": 0, "isomerId": 0, "confId": 0, "nr_conformers:": 1, "nr_isomers:": 9}

$$$$
_i1
     RDKit          3D

 46 48  0  0  0  0  0  0  0  0999 V2000
    0.0115   -0.9687    1.0670 N   0  0  0  0  0  0  0  0  0  0  0  0
    0.7777   -0.8413   -0.0739 C   0  0  0  0  0  0  0  0  0  0  0  0
    2.0372   -1.4234   -0.0980 N   0  0  0  0  0  0  0  0  0  0  0  0
    3.2754   -0.7366   -0.1613 C   0  0  0  0  0  0  0  0  0  0  0  0
    4.4537   -1.4984   -0.1655 C   0  0  0  0  0  0  0  0  0  0  0  0
    5.7100   -0.8913   -0.2612 C   0  0  0  0  0  0  0  0  0  0  0  0
    5.8176    0.4975   -0.3617 C   0  0  0  0  0  0  0  0  0  0  0  0
    7.1610    1.1501   -0.5002 C   0  0  0  0  0  0  0  0  0  0  0  0
    4.6484    1.2619   -0.3995 C   0  0  0  0  0  0  0  0  0  0  0  0
    3.3926    0.6499   -0.3049 C   0  0  0  0  0  0  0  0  0  0  0  0
    0.2384   -0.1995   -1.1449 C   0  0  0  0  0  0  0  0  0  0  0  0
    0.8661   -0.0423   -2.3593 N   0  0  0  0  0  0  0  0  0  0  0  0
    0.1798    0.5407   -3.2813 C   0  0  0  0  0  0  0  0  0  0  0  0
   -1.2216    1.0059   -3.0653 C   0  0  0  0  0  0  0  0  0  0  0  0
   -1.8420    0.8787   -1.9383 N   0  0  0  0  0  0  0  0  0  0  0  0
   -1.1630    0.3047   -0.8897 C   0  0  0  0  0  0  0  0  0  0  0  0
   -1.8357    0.2442    0.2141 N   0  0  0  0  0  0  0  0  0  0  0  0
   -1.1785   -0.3419    1.2605 C   0  0  0  0  0  0  0  0  0  0  0  0
   -1.7165   -0.3199    2.4287 N   0  0  0  0  0  0  0  0  0  0  0  0
   -2.9353    0.4576    2.6879 C   0  0  0  0  0  0  0  0  0  0  0  0
   -4.2101   -0.2773    2.2477 C   0  0  0  0  0  0  0  0  0  0  0  0
   -4.4397   -0.1344    0.7571 N   0  0  0  0  0  4  0  0  0  0  0  0
   -5.1316    1.1368    0.3751 C   0  0  0  0  0  0  0  0  0  0  0  0
   -5.0742   -1.3389    0.1451 C   0  0  0  0  0  0  0  0  0  0  0  0
    0.5029   -1.2553    1.9037 H   0  0  0  0  0  0  0  0  0  0  0  0
    2.1188   -2.2302    0.5129 H   0  0  0  0  0  0  0  0  0  0  0  0
    4.4061   -2.5832   -0.1063 H   0  0  0  0  0  0  0  0  0  0  0  0
    6.6028   -1.5131   -0.2646 H   0  0  0  0  0  0  0  0  0  0  0  0
    7.1517    2.1574   -0.0707 H   0  0  0  0  0  0  0  0  0  0  0  0
    7.9294    0.5782    0.0306 H   0  0  0  0  0  0  0  0  0  0  0  0
    7.4369    1.2183   -1.5569 H   0  0  0  0  0  0  0  0  0  0  0  0
    4.7052    2.3429   -0.5079 H   0  0  0  0  0  0  0  0  0  0  0  0
    2.5150    1.2863   -0.3401 H   0  0  0  0  0  0  0  0  0  0  0  0
    0.5904    0.7225   -4.2866 H   0  0  0  0  0  0  0  0  0  0  0  0
   -1.7035    1.4660   -3.9417 H   0  0  0  0  0  0  0  0  0  0  0  0
   -2.9885    0.5980    3.7739 H   0  0  0  0  0  0  0  0  0  0  0  0
   -2.8660    1.4653    2.2624 H   0  0  0  0  0  0  0  0  0  0  0  0
   -4.1269   -1.3460    2.4750 H   0  0  0  0  0  0  0  0  0  0  0  0
   -5.0971    0.1230    2.7499 H   0  0  0  0  0  0  0  0  0  0  0  0
   -3.4886   -0.0568    0.3423 H   0  0  0  0  0  0  0  0  0  0  0  0
   -6.1505    1.1108    0.7707 H   0  0  0  0  0  0  0  0  0  0  0  0
   -5.1402    1.2048   -0.7161 H   0  0  0  0  0  0  0  0  0  0  0  0
   -4.5739    1.9783    0.7920 H   0  0  0  0  0  0  0  0  0  0  0  0
   -5.1402   -1.1813   -0.9347 H   0  0  0  0  0  0  0  0  0  0  0  0
   -4.4376   -2.2036    0.3513 H   0  0  0  0  0  0  0  0  0  0  0  0
   -6.0674   -1.4696    0.5827 H   0  0  0  0  0  0  0  0  0  0  0  0
  1  2  1  0
  2  3  1  0
  3  4  1  0
  4  5  2  0
  5  6  1  0
  6  7  2  0
  7  8  1  0
  7  9  1  0
  9 10  2  0
  2 11  2  0
 11 12  1  0
 12 13  2  0
 13 14  1  0
 14 15  2  0
 15 16  1  0
 16 17  2  0
 17 18  1  0
 18 19  2  3
 19 20  1  0
 20 21  1  0
 21 22  1  0
 22 23  1  0
 22 24  1  0
 18  1  1  0
 10  4  1  0
 16 11  1  0
  1 25  1  0
  3 26  1  0
  5 27  1  0
  6 28  1  0
  8 29  1  0
  8 30  1  0
  8 31  1  0
  9 32  1  0
 10 33  1  0
 13 34  1  0
 14 35  1  0
 20 36  1  0
 20 37  1  0
 21 38  1  0
 21 39  1  0
 22 40  1  0
 23 41  1  0
 23 42  1  0
 23 43  1  0
 24 44  1  0
 24 45  1  0
 24 46  1  0
M  CHG  1  22   1
M  END
>  <ScrubInfo>  (2) 
{"isomerGroup": 0, "isomerId": 1, "confId": 0, "nr_conformers:": 1, "nr_isomers:": 9}

$$$$
_i2
     RDKit          3D

 46 48  0  0  0  0  0  0  0  0999 V2000
   -0.1885    1.6691   -0.8262 N   0  0  0  0  0  0  0  0  0  0  0  0
   -1.4329    1.1908   -0.5706 C   0  0  0  0  0  0  0  0  0  0  0  0
   -2.4474    2.0780   -0.8037 N   0  0  0  0  0  0  0  0  0  0  0  0
   -3.8406    1.6357   -0.7755 C   0  0  0  0  0  0  0  0  0  0  0  0
   -4.3074    1.2656    0.6545 C   0  0  0  0  0  0  0  0  0  0  0  0
   -5.1747    0.0102    0.6911 N   0  0  0  0  0  4  0  0  0  0  0  0
   -4.3658   -1.2539    0.4920 C   0  0  0  0  0  0  0  0  0  0  0  0
   -5.9598   -0.0687    1.9720 C   0  0  0  0  0  0  0  0  0  0  0  0
   -1.6539   -0.0071   -0.1203 N   0  0  0  0  0  0  0  0  0  0  0  0
   -0.5162   -0.8210    0.0742 C   0  0  0  0  0  0  0  0  0  0  0  0
   -0.8197   -2.0645    0.5225 N   0  0  0  0  0  0  0  0  0  0  0  0
    0.2476   -2.8801    0.7168 C   0  0  0  0  0  0  0  0  0  0  0  0
    1.5562   -2.4810    0.4798 C   0  0  0  0  0  0  0  0  0  0  0  0
    1.8677   -1.2440    0.0360 N   0  0  0  0  0  0  0  0  0  0  0  0
    0.8110   -0.4226   -0.1621 C   0  0  0  0  0  0  0  0  0  0  0  0
    0.9925    0.9822   -0.6482 C   0  0  0  0  0  0  0  0  0  0  0  0
    2.0914    1.6380   -0.9143 N   0  0  0  0  0  0  0  0  0  0  0  0
    3.3536    1.0529   -0.7665 C   0  0  0  0  0  0  0  0  0  0  0  0
    3.9662    0.4147   -1.8469 C   0  0  0  0  0  0  0  0  0  0  0  0
    5.2477   -0.1276   -1.7168 C   0  0  0  0  0  0  0  0  0  0  0  0
    5.9453   -0.0134   -0.5085 C   0  0  0  0  0  0  0  0  0  0  0  0
    7.3089   -0.6201   -0.3578 C   0  0  0  0  0  0  0  0  0  0  0  0
    5.3336    0.6345    0.5711 C   0  0  0  0  0  0  0  0  0  0  0  0
    4.0518    1.1752    0.4366 C   0  0  0  0  0  0  0  0  0  0  0  0
   -0.0552    2.6382   -1.0806 H   0  0  0  0  0  0  0  0  0  0  0  0
   -2.2540    2.7447   -1.5475 H   0  0  0  0  0  0  0  0  0  0  0  0
   -4.4665    2.4585   -1.1404 H   0  0  0  0  0  0  0  0  0  0  0  0
   -3.9757    0.8115   -1.4840 H   0  0  0  0  0  0  0  0  0  0  0  0
   -4.9315    2.0834    1.0340 H   0  0  0  0  0  0  0  0  0  0  0  0
   -3.4901    1.1151    1.3676 H   0  0  0  0  0  0  0  0  0  0  0  0
   -5.8540    0.0585   -0.0774 H   0  0  0  0  0  0  0  0  0  0  0  0
   -5.0546   -2.1014    0.5515 H   0  0  0  0  0  0  0  0  0  0  0  0
   -3.9230   -1.2289   -0.5044 H   0  0  0  0  0  0  0  0  0  0  0  0
   -3.6148   -1.3165    1.2828 H   0  0  0  0  0  0  0  0  0  0  0  0
   -6.5891   -0.9618    1.9316 H   0  0  0  0  0  0  0  0  0  0  0  0
   -5.2593   -0.1185    2.8100 H   0  0  0  0  0  0  0  0  0  0  0  0
   -6.5899    0.8222    2.0389 H   0  0  0  0  0  0  0  0  0  0  0  0
    0.0240   -3.8804    1.0735 H   0  0  0  0  0  0  0  0  0  0  0  0
    2.3942   -3.1514    0.6424 H   0  0  0  0  0  0  0  0  0  0  0  0
    3.4424    0.3377   -2.7946 H   0  0  0  0  0  0  0  0  0  0  0  0
    5.7000   -0.6317   -2.5675 H   0  0  0  0  0  0  0  0  0  0  0  0
    7.9109   -0.0546    0.3612 H   0  0  0  0  0  0  0  0  0  0  0  0
    7.2216   -1.6542   -0.0106 H   0  0  0  0  0  0  0  0  0  0  0  0
    7.8483   -0.6107   -1.3108 H   0  0  0  0  0  0  0  0  0  0  0  0
    5.8538    0.7305    1.5211 H   0  0  0  0  0  0  0  0  0  0  0  0
    3.5956    1.6937    1.2740 H   0  0  0  0  0  0  0  0  0  0  0  0
  1  2  1  0
  2  3  1  0
  3  4  1  0
  4  5  1  0
  5  6  1  0
  6  7  1  0
  6  8  1  0
  2  9  2  0
  9 10  1  0
 10 11  2  0
 11 12  1  0
 12 13  2  0
 13 14  1  0
 14 15  2  0
 15 16  1  0
 16 17  2  3
 17 18  1  0
 18 19  2  0
 19 20  1  0
 20 21  2  0
 21 22  1  0
 21 23  1  0
 23 24  2  0
 16  1  1  0
 24 18  1  0
 15 10  1  0
  1 25  1  0
  3 26  1  0
  4 27  1  0
  4 28  1  0
  5 29  1  0
  5 30  1  0
  6 31  1  0
  7 32  1  0
  7 33  1  0
  7 34  1  0
  8 35  1  0
  8 36  1  0
  8 37  1  0
 12 38  1  0
 13 39  1  0
 19 40  1  0
 20 41  1  0
 22 42  1  0
 22 43  1  0
 22 44  1  0
 23 45  1  0
 24 46  1  0
M  CHG  1   6   1
M  END
>  <ScrubInfo>  (3) 
{"isomerGroup": 0, "isomerId": 2, "confId": 0, "nr_conformers:": 1, "nr_isomers:": 9}

$$$$
_i3
     RDKit          3D

 46 48  0  0  0  0  0  0  0  0999 V2000
    1.1961   -1.1872    1.8945 N   0  0  0  0  0  0  0  0  0  0  0  0
    0.7935   -0.4520    0.8226 C   0  0  0  0  0  0  0  0  0  0  0  0
    1.5532    0.2156    0.0298 N   0  0  0  0  0  0  0  0  0  0  0  0
    2.9904    0.2450    0.2206 C   0  0  0  0  0  0  0  0  0  0  0  0
    3.5734    1.1284   -0.8949 C   0  0  0  0  0  0  0  0  0  0  0  0
    5.0566    1.3941   -0.7080 N   0  0  0  0  0  4  0  0  0  0  0  0
    5.9088    0.1720   -0.9015 C   0  0  0  0  0  0  0  0  0  0  0  0
    5.5110    2.5171   -1.6045 C   0  0  0  0  0  0  0  0  0  0  0  0
   -0.5284   -0.3530    0.4756 N   0  0  0  0  0  0  0  0  0  0  0  0
   -1.4494   -0.9650    1.1667 C   0  0  0  0  0  0  0  0  0  0  0  0
   -2.8053   -0.9250    0.8946 N   0  0  0  0  0  0  0  0  0  0  0  0
   -3.5238   -0.2615   -0.1138 C   0  0  0  0  0  0  0  0  0  0  0  0
   -2.9434    0.5364   -1.1027 C   0  0  0  0  0  0  0  0  0  0  0  0
   -3.7241    1.1683   -2.0801 C   0  0  0  0  0  0  0  0  0  0  0  0
   -5.1132    1.0246   -2.0862 C   0  0  0  0  0  0  0  0  0  0  0  0
   -5.9444    1.6734   -3.1522 C   0  0  0  0  0  0  0  0  0  0  0  0
   -5.7063    0.2177   -1.1145 C   0  0  0  0  0  0  0  0  0  0  0  0
   -4.9208   -0.4104   -0.1414 C   0  0  0  0  0  0  0  0  0  0  0  0
   -1.0807   -1.7908    2.3571 C   0  0  0  0  0  0  0  0  0  0  0  0
   -2.0729   -2.4124    3.0506 N   0  0  0  0  0  0  0  0  0  0  0  0
   -1.6301   -3.1316    4.1068 C   0  0  0  0  0  0  0  0  0  0  0  0
   -0.2826   -3.2168    4.4388 C   0  0  0  0  0  0  0  0  0  0  0  0
    0.6942   -2.5874    3.7323 N   0  0  0  0  0  0  0  0  0  0  0  0
    0.2706   -1.8634    2.6726 C   0  0  0  0  0  0  0  0  0  0  0  0
    2.1518   -1.2857    2.1819 H   0  0  0  0  0  0  0  0  0  0  0  0
    3.2426    0.6711    1.1985 H   0  0  0  0  0  0  0  0  0  0  0  0
    3.4047   -0.7666    0.1558 H   0  0  0  0  0  0  0  0  0  0  0  0
    3.4360    0.6757   -1.8839 H   0  0  0  0  0  0  0  0  0  0  0  0
    3.0744    2.1048   -0.8871 H   0  0  0  0  0  0  0  0  0  0  0  0
    5.1892    1.7246    0.2566 H   0  0  0  0  0  0  0  0  0  0  0  0
    5.6409   -0.5620   -0.1388 H   0  0  0  0  0  0  0  0  0  0  0  0
    6.9548    0.4628   -0.7711 H   0  0  0  0  0  0  0  0  0  0  0  0
    5.7361   -0.2207   -1.9070 H   0  0  0  0  0  0  0  0  0  0  0  0
    4.9192    3.4047   -1.3656 H   0  0  0  0  0  0  0  0  0  0  0  0
    6.5665    2.7115   -1.3962 H   0  0  0  0  0  0  0  0  0  0  0  0
    5.3652    2.2141   -2.6448 H   0  0  0  0  0  0  0  0  0  0  0  0
   -3.3827   -1.4595    1.5409 H   0  0  0  0  0  0  0  0  0  0  0  0
   -1.8699    0.6875   -1.1437 H   0  0  0  0  0  0  0  0  0  0  0  0
   -3.2321    1.7753   -2.8366 H   0  0  0  0  0  0  0  0  0  0  0  0
   -6.0418    1.0024   -4.0111 H   0  0  0  0  0  0  0  0  0  0  0  0
   -5.4887    2.6117   -3.4857 H   0  0  0  0  0  0  0  0  0  0  0  0
   -6.9441    1.9142   -2.7756 H   0  0  0  0  0  0  0  0  0  0  0  0
   -6.7841    0.0706   -1.1046 H   0  0  0  0  0  0  0  0  0  0  0  0
   -5.4222   -1.0268    0.6013 H   0  0  0  0  0  0  0  0  0  0  0  0
   -2.3886   -3.6452    4.6894 H   0  0  0  0  0  0  0  0  0  0  0  0
    0.0501   -3.8005    5.2917 H   0  0  0  0  0  0  0  0  0  0  0  0
  1  2  1  0
  2  3  2  3
  3  4  1  0
  4  5  1  0
  5  6  1  0
  6  7  1  0
  6  8  1  0
  2  9  1  0
  9 10  2  0
 10 11  1  0
 11 12  1  0
 12 13  2  0
 13 14  1  0
 14 15  2  0
 15 16  1  0
 15 17  1  0
 17 18  2  0
 10 19  1  0
 19 20  2  0
 20 21  1  0
 21 22  2  0
 22 23  1  0
 23 24  2  0
 24  1  1  0
 18 12  1  0
 24 19  1  0
  1 25  1  0
  4 26  1  0
  4 27  1  0
  5 28  1  0
  5 29  1  0
  6 30  1  0
  7 31  1  0
  7 32  1  0
  7 33  1  0
  8 34  1  0
  8 35  1  0
  8 36  1  0
 11 37  1  0
 13 38  1  0
 14 39  1  0
 16 40  1  0
 16 41  1  0
 16 42  1  0
 17 43  1  0
 18 44  1  0
 21 45  1  0
 22 46  1  0
M  CHG  1   6   1
M  END
>  <ScrubInfo>  (4) 
{"isomerGroup": 0, "isomerId": 3, "confId": 0, "nr_conformers:": 1, "nr_isomers:": 9}

$$$$
_i4
     RDKit          3D

 46 48  0  0  0  0  0  0  0  0999 V2000
    0.8397   -2.0013    1.7010 N   0  0  0  0  0  0  0  0  0  0  0  0
    0.3022   -0.8634    1.2099 C   0  0  0  0  0  0  0  0  0  0  0  0
    1.1025    0.2430    1.2411 N   0  0  0  0  0  0  0  0  0  0  0  0
    2.3490    0.2513    0.4813 C   0  0  0  0  0  0  0  0  0  0  0  0
    3.0563    1.6127    0.6264 C   0  0  0  0  0  0  0  0  0  0  0  0
    4.4175    1.6464   -0.0519 N   0  0  0  0  0  4  0  0  0  0  0  0
    4.3432    1.5618   -1.5544 C   0  0  0  0  0  0  0  0  0  0  0  0
    5.2015    2.8629    0.3766 C   0  0  0  0  0  0  0  0  0  0  0  0
   -0.8806   -0.7318    0.7050 N   0  0  0  0  0  0  0  0  0  0  0  0
   -1.7014   -1.8511    0.6405 C   0  0  0  0  0  0  0  0  0  0  0  0
   -2.8526   -1.7903    0.0403 N   0  0  0  0  0  0  0  0  0  0  0  0
   -3.2681   -0.5843   -0.5398 C   0  0  0  0  0  0  0  0  0  0  0  0
   -3.1305   -0.3873   -1.9150 C   0  0  0  0  0  0  0  0  0  0  0  0
   -3.5754    0.7958   -2.5121 C   0  0  0  0  0  0  0  0  0  0  0  0
   -4.1670    1.8005   -1.7372 C   0  0  0  0  0  0  0  0  0  0  0  0
   -4.6931    3.0482   -2.3825 C   0  0  0  0  0  0  0  0  0  0  0  0
   -4.3325    1.5896   -0.3630 C   0  0  0  0  0  0  0  0  0  0  0  0
   -3.8872    0.4042    0.2286 C   0  0  0  0  0  0  0  0  0  0  0  0
   -1.2468   -3.1303    1.2648 C   0  0  0  0  0  0  0  0  0  0  0  0
   -2.0765   -4.2062    1.3048 N   0  0  0  0  0  0  0  0  0  0  0  0
   -1.5666   -5.2909    1.9259 C   0  0  0  0  0  0  0  0  0  0  0  0
   -0.2924   -5.3002    2.4759 C   0  0  0  0  0  0  0  0  0  0  0  0
    0.5383   -4.2265    2.4285 N   0  0  0  0  0  0  0  0  0  0  0  0
    0.0370   -3.1320    1.8093 C   0  0  0  0  0  0  0  0  0  0  0  0
    1.6728   -2.0253    2.2647 H   0  0  0  0  0  0  0  0  0  0  0  0
    0.4908    1.0094    0.9448 H   0  0  0  0  0  0  0  0  0  0  0  0
    3.0136   -0.5415    0.8430 H   0  0  0  0  0  0  0  0  0  0  0  0
    2.1251    0.0501   -0.5717 H   0  0  0  0  0  0  0  0  0  0  0  0
    3.2271    1.8231    1.6887 H   0  0  0  0  0  0  0  0  0  0  0  0
    2.4554    2.4258    0.2028 H   0  0  0  0  0  0  0  0  0  0  0  0
    4.9558    0.8324    0.2759 H   0  0  0  0  0  0  0  0  0  0  0  0
    3.9082    0.5977   -1.8248 H   0  0  0  0  0  0  0  0  0  0  0  0
    5.3612    1.6228   -1.9488 H   0  0  0  0  0  0  0  0  0  0  0  0
    3.7315    2.3903   -1.9208 H   0  0  0  0  0  0  0  0  0  0  0  0
    6.1900    2.8103   -0.0873 H   0  0  0  0  0  0  0  0  0  0  0  0
    5.3023    2.8354    1.4647 H   0  0  0  0  0  0  0  0  0  0  0  0
    4.6612    3.7566    0.0529 H   0  0  0  0  0  0  0  0  0  0  0  0
   -2.6903   -1.1711   -2.5242 H   0  0  0  0  0  0  0  0  0  0  0  0
   -3.4738    0.9179   -3.5878 H   0  0  0  0  0  0  0  0  0  0  0  0
   -5.7323    2.9004   -2.6917 H   0  0  0  0  0  0  0  0  0  0  0  0
   -4.0963    3.3143   -3.2613 H   0  0  0  0  0  0  0  0  0  0  0  0
   -4.6463    3.8952   -1.6900 H   0  0  0  0  0  0  0  0  0  0  0  0
   -4.8241    2.3376    0.2545 H   0  0  0  0  0  0  0  0  0  0  0  0
   -4.0327    0.2406    1.2924 H   0  0  0  0  0  0  0  0  0  0  0  0
   -2.2136   -6.1606    1.9735 H   0  0  0  0  0  0  0  0  0  0  0  0
    0.0979   -6.1822    2.9735 H   0  0  0  0  0  0  0  0  0  0  0  0
  1  2  1  0
  2  3  1  0
  3  4  1  0
  4  5  1  0
  5  6  1  0
  6  7  1  0
  6  8  1  0
  2  9  2  0
  9 10  1  0
 10 11  2  3
 11 12  1  0
 12 13  2  0
 13 14  1  0
 14 15  2  0
 15 16  1  0
 15 17  1  0
 17 18  2  0
 10 19  1  0
 19 20  2  0
 20 21  1  0
 21 22  2  0
 22 23  1  0
 23 24  2  0
 24  1  1  0
 18 12  1  0
 24 19  1  0
  1 25  1  0
  3 26  1  0
  4 27  1  0
  4 28  1  0
  5 29  1  0
  5 30  1  0
  6 31  1  0
  7 32  1  0
  7 33  1  0
  7 34  1  0
  8 35  1  0
  8 36  1  0
  8 37  1  0
 13 38  1  0
 14 39  1  0
 16 40  1  0
 16 41  1  0
 16 42  1  0
 17 43  1  0
 18 44  1  0
 21 45  1  0
 22 46  1  0
M  CHG  1   6   1
M  END
>  <ScrubInfo>  (5) 
{"isomerGroup": 0, "isomerId": 4, "confId": 0, "nr_conformers:": 1, "nr_isomers:": 9}

$$$$
_i5
     RDKit          3D

 46 48  0  0  0  0  0  0  0  0999 V2000
   -0.0031   -2.1117    3.1754 N   0  0  0  0  0  0  0  0  0  0  0  0
    1.2532   -2.4064    3.6343 C   0  0  0  0  0  0  0  0  0  0  0  0
    2.3342   -1.7892    3.1308 C   0  0  0  0  0  0  0  0  0  0  0  0
    2.2792   -0.8462    2.1243 N   0  0  0  0  0  0  0  0  0  0  0  0
    1.0980   -0.5315    1.6638 C   0  0  0  0  0  0  0  0  0  0  0  0
    0.9303    0.4632    0.5400 C   0  0  0  0  0  0  0  0  0  0  0  0
    2.0013    0.9792   -0.1540 N   0  0  0  0  0  0  0  0  0  0  0  0
    3.0009    0.2346   -0.8236 C   0  0  0  0  0  0  0  0  0  0  0  0
    4.0957    0.9337   -1.3544 C   0  0  0  0  0  0  0  0  0  0  0  0
    5.1290    0.2661   -2.0191 C   0  0  0  0  0  0  0  0  0  0  0  0
    5.0896   -1.1214   -2.1716 C   0  0  0  0  0  0  0  0  0  0  0  0
    6.2149   -1.8465   -2.8484 C   0  0  0  0  0  0  0  0  0  0  0  0
    4.0162   -1.8286   -1.6234 C   0  0  0  0  0  0  0  0  0  0  0  0
    2.9832   -1.1571   -0.9581 C   0  0  0  0  0  0  0  0  0  0  0  0
   -0.2729    0.8815    0.2714 N   0  0  0  0  0  0  0  0  0  0  0  0
   -1.3311    0.3610    0.9597 C   0  0  0  0  0  0  0  0  0  0  0  0
   -2.5105    0.8401    0.7583 N   0  0  0  0  0  0  0  0  0  0  0  0
   -2.6375    1.9461   -0.2044 C   0  0  0  0  0  0  0  0  0  0  0  0
   -4.0952    2.4294   -0.1467 C   0  0  0  0  0  0  0  0  0  0  0  0
   -4.9943    1.2237    0.0716 N   0  0  0  0  0  4  0  0  0  0  0  0
   -6.2299    1.5415    0.8452 C   0  0  0  0  0  0  0  0  0  0  0  0
   -5.2710    0.4510   -1.1779 C   0  0  0  0  0  0  0  0  0  0  0  0
   -1.3197   -0.6630    1.8596 N   0  0  0  0  0  0  0  0  0  0  0  0
   -0.1742   -1.1201    2.2426 C   0  0  0  0  0  0  0  0  0  0  0  0
   -0.8070   -2.4954    3.6555 H   0  0  0  0  0  0  0  0  0  0  0  0
    1.3148   -3.1483    4.4240 H   0  0  0  0  0  0  0  0  0  0  0  0
    3.3278   -2.0259    3.5052 H   0  0  0  0  0  0  0  0  0  0  0  0
    1.7547    1.7879   -0.7157 H   0  0  0  0  0  0  0  0  0  0  0  0
    4.1653    2.0131   -1.2397 H   0  0  0  0  0  0  0  0  0  0  0  0
    5.9689    0.8378   -2.4085 H   0  0  0  0  0  0  0  0  0  0  0  0
    6.6713   -1.2222   -3.6238 H   0  0  0  0  0  0  0  0  0  0  0  0
    6.9808   -2.1166   -2.1150 H   0  0  0  0  0  0  0  0  0  0  0  0
    5.8543   -2.7581   -3.3363 H   0  0  0  0  0  0  0  0  0  0  0  0
    3.9776   -2.9130   -1.7054 H   0  0  0  0  0  0  0  0  0  0  0  0
    2.1709   -1.7555   -0.5595 H   0  0  0  0  0  0  0  0  0  0  0  0
   -2.4123    1.5913   -1.2169 H   0  0  0  0  0  0  0  0  0  0  0  0
   -1.9741    2.7851    0.0353 H   0  0  0  0  0  0  0  0  0  0  0  0
   -4.2240    3.0842    0.7222 H   0  0  0  0  0  0  0  0  0  0  0  0
   -4.4138    2.9568   -1.0511 H   0  0  0  0  0  0  0  0  0  0  0  0
   -4.3956    0.6163    0.6690 H   0  0  0  0  0  0  0  0  0  0  0  0
   -5.9341    1.9856    1.7994 H   0  0  0  0  0  0  0  0  0  0  0  0
   -6.8364    2.2379    0.2602 H   0  0  0  0  0  0  0  0  0  0  0  0
   -6.7708    0.6088    1.0261 H   0  0  0  0  0  0  0  0  0  0  0  0
   -5.8653    1.0769   -1.8489 H   0  0  0  0  0  0  0  0  0  0  0  0
   -4.3198    0.1782   -1.6408 H   0  0  0  0  0  0  0  0  0  0  0  0
   -5.8192   -0.4543   -0.9037 H   0  0  0  0  0  0  0  0  0  0  0  0
  1  2  1  0
  2  3  2  0
  3  4  1  0
  4  5  2  0
  5  6  1  0
  6  7  1  0
  7  8  1  0
  8  9  2  0
  9 10  1  0
 10 11  2  0
 11 12  1  0
 11 13  1  0
 13 14  2  0
  6 15  2  0
 15 16  1  0
 16 17  2  3
 17 18  1  0
 18 19  1  0
 19 20  1  0
 20 21  1  0
 20 22  1  0
 16 23  1  0
 23 24  2  0
 24  1  1  0
 24  5  1  0
 14  8  1  0
  1 25  1  0
  2 26  1  0
  3 27  1  0
  7 28  1  0
  9 29  1  0
 10 30  1  0
 12 31  1  0
 12 32  1  0
 12 33  1  0
 13 34  1  0
 14 35  1  0
 18 36  1  0
 18 37  1  0
 19 38  1  0
 19 39  1  0
 20 40  1  0
 21 41  1  0
 21 42  1  0
 21 43  1  0
 22 44  1  0
 22 45  1  0
 22 46  1  0
M  CHG  1  20   1
M  END
>  <ScrubInfo>  (6) 
{"isomerGroup": 0, "isomerId": 5, "confId": 0, "nr_conformers:": 1, "nr_isomers:": 9}

$$$$
_i6
     RDKit          3D

 46 48  0  0  0  0  0  0  0  0999 V2000
    0.2563   -2.7395   -0.7920 N   0  0  0  0  0  0  0  0  0  0  0  0
   -0.9591   -3.3220   -1.0440 C   0  0  0  0  0  0  0  0  0  0  0  0
   -2.1015   -2.7335   -0.6565 C   0  0  0  0  0  0  0  0  0  0  0  0
   -2.1533   -1.5179   -0.0085 N   0  0  0  0  0  0  0  0  0  0  0  0
   -1.0188   -0.9314    0.2630 C   0  0  0  0  0  0  0  0  0  0  0  0
   -0.8847    0.4135    0.9194 C   0  0  0  0  0  0  0  0  0  0  0  0
   -1.7884    1.3395    1.0043 N   0  0  0  0  0  0  0  0  0  0  0  0
   -3.0633    1.1725    0.4566 C   0  0  0  0  0  0  0  0  0  0  0  0
   -3.3135    1.5140   -0.8747 C   0  0  0  0  0  0  0  0  0  0  0  0
   -4.5985    1.3879   -1.4097 C   0  0  0  0  0  0  0  0  0  0  0  0
   -5.6577    0.9438   -0.6097 C   0  0  0  0  0  0  0  0  0  0  0  0
   -7.0313    0.7772   -1.1892 C   0  0  0  0  0  0  0  0  0  0  0  0
   -5.4077    0.6128    0.7271 C   0  0  0  0  0  0  0  0  0  0  0  0
   -4.1216    0.7408    1.2584 C   0  0  0  0  0  0  0  0  0  0  0  0
    0.3269    0.7539    1.4646 N   0  0  0  0  0  0  0  0  0  0  0  0
    1.3717    0.0412    1.1994 C   0  0  0  0  0  0  0  0  0  0  0  0
    2.5317    0.4826    1.7707 N   0  0  0  0  0  0  0  0  0  0  0  0
    3.6667   -0.3820    2.0721 C   0  0  0  0  0  0  0  0  0  0  0  0
    4.9354    0.2301    1.4456 C   0  0  0  0  0  0  0  0  0  0  0  0
    4.6203    0.7363    0.0443 N   0  0  0  0  0  4  0  0  0  0  0  0
    5.4400    1.9248   -0.3501 C   0  0  0  0  0  0  0  0  0  0  0  0
    4.6435   -0.3416   -0.9961 C   0  0  0  0  0  0  0  0  0  0  0  0
    1.4160   -1.0596    0.3915 N   0  0  0  0  0  0  0  0  0  0  0  0
    0.3147   -1.5840   -0.0500 C   0  0  0  0  0  0  0  0  0  0  0  0
    1.0911   -3.2895   -0.9401 H   0  0  0  0  0  0  0  0  0  0  0  0
   -0.9384   -4.2789   -1.5557 H   0  0  0  0  0  0  0  0  0  0  0  0
   -3.0618   -3.2043   -0.8564 H   0  0  0  0  0  0  0  0  0  0  0  0
   -2.5070    1.8853   -1.4988 H   0  0  0  0  0  0  0  0  0  0  0  0
   -4.7694    1.6474   -2.4518 H   0  0  0  0  0  0  0  0  0  0  0  0
   -7.2085    1.5033   -1.9895 H   0  0  0  0  0  0  0  0  0  0  0  0
   -7.7997    0.9414   -0.4264 H   0  0  0  0  0  0  0  0  0  0  0  0
   -7.1457   -0.2324   -1.5955 H   0  0  0  0  0  0  0  0  0  0  0  0
   -6.2131    0.2591    1.3666 H   0  0  0  0  0  0  0  0  0  0  0  0
   -3.9434    0.4984    2.3018 H   0  0  0  0  0  0  0  0  0  0  0  0
    2.3071    1.1615    2.5003 H   0  0  0  0  0  0  0  0  0  0  0  0
    3.5217   -1.3965    1.6859 H   0  0  0  0  0  0  0  0  0  0  0  0
    3.7912   -0.4690    3.1567 H   0  0  0  0  0  0  0  0  0  0  0  0
    5.2427    1.1008    2.0358 H   0  0  0  0  0  0  0  0  0  0  0  0
    5.7676   -0.4785    1.3871 H   0  0  0  0  0  0  0  0  0  0  0  0
    3.6363    1.0546    0.1158 H   0  0  0  0  0  0  0  0  0  0  0  0
    5.2723    2.7152    0.3862 H   0  0  0  0  0  0  0  0  0  0  0  0
    5.1038    2.2606   -1.3347 H   0  0  0  0  0  0  0  0  0  0  0  0
    6.4918    1.6280   -0.3748 H   0  0  0  0  0  0  0  0  0  0  0  0
    5.6749   -0.6836   -1.1173 H   0  0  0  0  0  0  0  0  0  0  0  0
    4.0024   -1.1623   -0.6690 H   0  0  0  0  0  0  0  0  0  0  0  0
    4.2604    0.0797   -1.9293 H   0  0  0  0  0  0  0  0  0  0  0  0
  1  2  1  0
  2  3  2  0
  3  4  1  0
  4  5  2  0
  5  6  1  0
  6  7  2  3
  7  8  1  0
  8  9  2  0
  9 10  1  0
 10 11  2  0
 11 12  1  0
 11 13  1  0
 13 14  2  0
  6 15  1  0
 15 16  2  0
 16 17  1  0
 17 18  1  0
 18 19  1  0
 19 20  1  0
 20 21  1  0
 20 22  1  0
 16 23  1  0
 23 24  2  0
 24  1  1  0
 24  5  1  0
 14  8  1  0
  1 25  1  0
  2 26  1  0
  3 27  1  0
  9 28  1  0
 10 29  1  0
 12 30  1  0
 12 31  1  0
 12 32  1  0
 13 33  1  0
 14 34  1  0
 17 35  1  0
 18 36  1  0
 18 37  1  0
 19 38  1  0
 19 39  1  0
 20 40  1  0
 21 41  1  0
 21 42  1  0
 21 43  1  0
 22 44  1  0
 22 45  1  0
 22 46  1  0
M  CHG  1  20   1
M  END
>  <ScrubInfo>  (7) 
{"isomerGroup": 0, "isomerId": 6, "confId": 0, "nr_conformers:": 1, "nr_isomers:": 9}

$$$$
_i7
     RDKit          3D

 46 48  0  0  0  0  0  0  0  0999 V2000
    0.9540   -1.4096    1.7207 N   0  0  0  0  0  0  0  0  0  0  0  0
    0.5044   -0.5581    0.7517 C   0  0  0  0  0  0  0  0  0  0  0  0
    1.2023    0.2630    0.0392 N   0  0  0  0  0  0  0  0  0  0  0  0
    2.6436    0.3318    0.2501 C   0  0  0  0  0  0  0  0  0  0  0  0
    3.2109    1.3812   -0.7202 C   0  0  0  0  0  0  0  0  0  0  0  0
    4.6797    1.6690   -0.4650 N   0  0  0  0  0  4  0  0  0  0  0  0
    5.5817    0.5146   -0.8025 C   0  0  0  0  0  0  0  0  0  0  0  0
    5.1120    2.9195   -1.1873 C   0  0  0  0  0  0  0  0  0  0  0  0
   -0.8466   -0.6183    0.5490 N   0  0  0  0  0  0  0  0  0  0  0  0
   -1.7972   -1.4045    1.1755 C   0  0  0  0  0  0  0  0  0  0  0  0
   -3.0754   -1.4083    0.9287 N   0  0  0  0  0  0  0  0  0  0  0  0
   -3.5913   -0.5560   -0.0540 C   0  0  0  0  0  0  0  0  0  0  0  0
   -3.6982   -0.9881   -1.3768 C   0  0  0  0  0  0  0  0  0  0  0  0
   -4.2039   -0.1355   -2.3611 C   0  0  0  0  0  0  0  0  0  0  0  0
   -4.6107    1.1630   -2.0316 C   0  0  0  0  0  0  0  0  0  0  0  0
   -5.2022    2.0620   -3.0774 C   0  0  0  0  0  0  0  0  0  0  0  0
   -4.5332    1.5824   -0.6981 C   0  0  0  0  0  0  0  0  0  0  0  0
   -4.0267    0.7264    0.2830 C   0  0  0  0  0  0  0  0  0  0  0  0
   -1.2571   -2.3199    2.2281 C   0  0  0  0  0  0  0  0  0  0  0  0
   -2.0973   -3.1383    2.9097 N   0  0  0  0  0  0  0  0  0  0  0  0
   -1.4981   -3.9182    3.8336 C   0  0  0  0  0  0  0  0  0  0  0  0
   -0.1299   -3.8797    4.0621 C   0  0  0  0  0  0  0  0  0  0  0  0
    0.7103   -3.0590    3.3782 N   0  0  0  0  0  0  0  0  0  0  0  0
    0.1255   -2.2692    2.4468 C   0  0  0  0  0  0  0  0  0  0  0  0
    1.9205   -1.4868    1.9898 H   0  0  0  0  0  0  0  0  0  0  0  0
    2.8661    0.6288    1.2818 H   0  0  0  0  0  0  0  0  0  0  0  0
    3.1002   -0.6442    0.0545 H   0  0  0  0  0  0  0  0  0  0  0  0
    3.1072    1.0651   -1.7646 H   0  0  0  0  0  0  0  0  0  0  0  0
    2.6752    2.3288   -0.5883 H   0  0  0  0  0  0  0  0  0  0  0  0
    4.7850    1.8669    0.5388 H   0  0  0  0  0  0  0  0  0  0  0  0
    5.4416    0.2566   -1.8555 H   0  0  0  0  0  0  0  0  0  0  0  0
    5.3283   -0.3250   -0.1521 H   0  0  0  0  0  0  0  0  0  0  0  0
    6.6134    0.8217   -0.6102 H   0  0  0  0  0  0  0  0  0  0  0  0
    4.9986    2.7579   -2.2626 H   0  0  0  0  0  0  0  0  0  0  0  0
    6.1552    3.1182   -0.9274 H   0  0  0  0  0  0  0  0  0  0  0  0
    4.4832    3.7454   -0.8442 H   0  0  0  0  0  0  0  0  0  0  0  0
   -1.1945    0.0072   -0.1670 H   0  0  0  0  0  0  0  0  0  0  0  0
   -3.4015   -2.0007   -1.6367 H   0  0  0  0  0  0  0  0  0  0  0  0
   -4.2948   -0.4981   -3.3828 H   0  0  0  0  0  0  0  0  0  0  0  0
   -4.7635    1.8586   -4.0600 H   0  0  0  0  0  0  0  0  0  0  0  0
   -6.2843    1.9092   -3.1339 H   0  0  0  0  0  0  0  0  0  0  0  0
   -5.0042    3.1136   -2.8450 H   0  0  0  0  0  0  0  0  0  0  0  0
   -4.8832    2.5717   -0.4111 H   0  0  0  0  0  0  0  0  0  0  0  0
   -3.9865    1.0524    1.3188 H   0  0  0  0  0  0  0  0  0  0  0  0
   -2.1503   -4.5817    4.3919 H   0  0  0  0  0  0  0  0  0  0  0  0
    0.3316   -4.5160    4.8105 H   0  0  0  0  0  0  0  0  0  0  0  0
  1  2  1  0
  2  3  2  3
  3  4  1  0
  4  5  1  0
  5  6  1  0
  6  7  1  0
  6  8  1  0
  2  9  1  0
  9 10  1  0
 10 11  2  3
 11 12  1  0
 12 13  2  0
 13 14  1  0
 14 15  2  0
 15 16  1  0
 15 17  1  0
 17 18  2  0
 10 19  1  0
 19 20  2  0
 20 21  1  0
 21 22  2  0
 22 23  1  0
 23 24  2  0
 24  1  1  0
 18 12  1  0
 24 19  1  0
  1 25  1  0
  4 26  1  0
  4 27  1  0
  5 28  1  0
  5 29  1  0
  6 30  1  0
  7 31  1  0
  7 32  1  0
  7 33  1  0
  8 34  1  0
  8 35  1  0
  8 36  1  0
  9 37  1  0
 13 38  1  0
 14 39  1  0
 16 40  1  0
 16 41  1  0
 16 42  1  0
 17 43  1  0
 18 44  1  0
 21 45  1  0
 22 46  1  0
M  CHG  1   6   1
M  END
>  <ScrubInfo>  (8) 
{"isomerGroup": 0, "isomerId": 7, "confId": 0, "nr_conformers:": 1, "nr_isomers:": 9}

$$$$
_i8
     RDKit          3D

 46 48  0  0  0  0  0  0  0  0999 V2000
   -0.1890   -3.3337   -0.2726 N   0  0  0  0  0  0  0  0  0  0  0  0
   -1.4735   -3.7871   -0.1550 C   0  0  0  0  0  0  0  0  0  0  0  0
   -2.4932   -2.9335    0.0204 C   0  0  0  0  0  0  0  0  0  0  0  0
   -2.3447   -1.5659    0.0959 N   0  0  0  0  0  0  0  0  0  0  0  0
   -1.1413   -1.0731   -0.0136 C   0  0  0  0  0  0  0  0  0  0  0  0
   -0.8588    0.4144    0.0556 C   0  0  0  0  0  0  0  0  0  0  0  0
   -1.6919    1.3988    0.2400 N   0  0  0  0  0  0  0  0  0  0  0  0
   -3.0623    1.1762    0.4090 C   0  0  0  0  0  0  0  0  0  0  0  0
   -3.9214    1.1986   -0.6917 C   0  0  0  0  0  0  0  0  0  0  0  0
   -5.2978    1.0272   -0.5202 C   0  0  0  0  0  0  0  0  0  0  0  0
   -5.8362    0.8584    0.7607 C   0  0  0  0  0  0  0  0  0  0  0  0
   -7.3090    0.6398    0.9435 C   0  0  0  0  0  0  0  0  0  0  0  0
   -4.9748    0.8457    1.8638 C   0  0  0  0  0  0  0  0  0  0  0  0
   -3.5989    1.0174    1.6885 C   0  0  0  0  0  0  0  0  0  0  0  0
    0.4658    0.7072   -0.1006 N   0  0  0  0  0  0  0  0  0  0  0  0
    1.4952   -0.1597   -0.2948 C   0  0  0  0  0  0  0  0  0  0  0  0
    2.7392    0.1333   -0.4434 N   0  0  0  0  0  0  0  0  0  0  0  0
    3.1708    1.5338   -0.4193 C   0  0  0  0  0  0  0  0  0  0  0  0
    4.6541    1.5544   -0.8360 C   0  0  0  0  0  0  0  0  0  0  0  0
    5.3230    0.3014   -0.2965 N   0  0  0  0  0  4  0  0  0  0  0  0
    5.7174    0.4032    1.1421 C   0  0  0  0  0  0  0  0  0  0  0  0
    6.4277   -0.2006   -1.1665 C   0  0  0  0  0  0  0  0  0  0  0  0
    1.2883   -1.5122   -0.3452 N   0  0  0  0  0  0  0  0  0  0  0  0
    0.0835   -1.9892   -0.2236 C   0  0  0  0  0  0  0  0  0  0  0  0
    0.5612   -3.9950   -0.4234 H   0  0  0  0  0  0  0  0  0  0  0  0
   -1.6118   -4.8618   -0.2129 H   0  0  0  0  0  0  0  0  0  0  0  0
   -3.5120   -3.3038    0.1125 H   0  0  0  0  0  0  0  0  0  0  0  0
   -3.5200    1.3456   -1.6894 H   0  0  0  0  0  0  0  0  0  0  0  0
   -5.9469    1.0308   -1.3928 H   0  0  0  0  0  0  0  0  0  0  0  0
   -7.8805    1.1615    0.1686 H   0  0  0  0  0  0  0  0  0  0  0  0
   -7.6445    1.0283    1.9109 H   0  0  0  0  0  0  0  0  0  0  0  0
   -7.5374   -0.4292    0.8928 H   0  0  0  0  0  0  0  0  0  0  0  0
   -5.3698    0.7066    2.8675 H   0  0  0  0  0  0  0  0  0  0  0  0
   -2.9451    1.0229    2.5548 H   0  0  0  0  0  0  0  0  0  0  0  0
    0.6508    1.6971   -0.0581 H   0  0  0  0  0  0  0  0  0  0  0  0
    2.5932    2.1590   -1.1090 H   0  0  0  0  0  0  0  0  0  0  0  0
    3.0684    1.9371    0.5943 H   0  0  0  0  0  0  0  0  0  0  0  0
    4.7212    1.5067   -1.9285 H   0  0  0  0  0  0  0  0  0  0  0  0
    5.1936    2.4356   -0.4754 H   0  0  0  0  0  0  0  0  0  0  0  0
    4.5489   -0.3950   -0.3423 H   0  0  0  0  0  0  0  0  0  0  0  0
    4.8405    0.6920    1.7263 H   0  0  0  0  0  0  0  0  0  0  0  0
    6.5092    1.1515    1.2329 H   0  0  0  0  0  0  0  0  0  0  0  0
    6.0704   -0.5786    1.4687 H   0  0  0  0  0  0  0  0  0  0  0  0
    6.7919   -1.1430   -0.7489 H   0  0  0  0  0  0  0  0  0  0  0  0
    6.0251   -0.3737   -2.1681 H   0  0  0  0  0  0  0  0  0  0  0  0
    7.2214    0.5507   -1.1876 H   0  0  0  0  0  0  0  0  0  0  0  0
  1  2  1  0
  2  3  2  0
  3  4  1  0
  4  5  2  0
  5  6  1  0
  6  7  2  3
  7  8  1  0
  8  9  2  0
  9 10  1  0
 10 11  2  0
 11 12  1  0
 11 13  1  0
 13 14  2  0
  6 15  1  0
 15 16  1  0
 16 17  2  3
 17 18  1  0
 18 19  1  0
 19 20  1  0
 20 21  1  0
 20 22  1  0
 16 23  1  0
 23 24  2  0
 24  1  1  0
 24  5  1  0
 14  8  1  0
  1 25  1  0
  2 26  1  0
  3 27  1  0
  9 28  1  0
 10 29  1  0
 12 30  1  0
 12 31  1  0
 12 32  1  0
 13 33  1  0
 14 34  1  0
 15 35  1  0
 18 36  1  0
 18 37  1  0
 19 38  1  0
 19 39  1  0
 20 40  1  0
 21 41  1  0
 21 42  1  0
 21 43  1  0
 22 44  1  0
 22 45  1  0
 22 46  1  0
M  CHG  1  20   1
M  END
>  <ScrubInfo>  (9) 
{"isomerGroup": 0, "isomerId": 8, "confId": 0, "nr_conformers:": 1, "nr_isomers:": 9}

$$$$
