_i0
     RDKit          3D

 47 50  0  0  0  0  0  0  0  0999 V2000
   -8.4835    2.6937    0.0457 Cl  0  0  0  0  0  0  0  0  0  0  0  0
   -6.8894    2.0482    0.0512 C   0  0  0  0  0  0  0  0  0  0  0  0
   -6.6283    0.8361   -0.5781 C   0  0  0  0  0  0  0  0  0  0  0  0
   -5.3299    0.3113   -0.5722 C   0  0  0  0  0  0  0  0  0  0  0  0
   -4.2778    0.9890    0.0496 C   0  0  0  0  0  0  0  0  0  0  0  0
   -2.9668    0.5014    0.1283 N   0  0  0  0  0  0  0  0  0  0  0  0
   -2.3738   -0.7383   -0.1415 C   0  0  0  0  0  0  0  0  0  0  0  0
   -1.0418   -0.6914   -0.4413 N   0  0  0  0  0  0  0  0  0  0  0  0
   -0.3532   -1.8192   -0.7091 C   0  0  0  0  0  0  0  0  0  0  0  0
    0.9947   -1.7392   -1.0423 N   0  0  0  0  0  0  0  0  0  0  0  0
    1.7253   -0.6815   -0.3558 C   0  0  0  0  0  0  0  0  0  0  0  0
    3.2117   -0.7457   -0.7440 C   0  0  0  0  0  0  0  0  0  0  0  0
    4.1465    0.2752   -0.1182 C   0  0  0  0  0  0  0  0  0  0  0  0
    3.7779    1.2184    0.7700 C   0  0  0  0  0  0  0  0  0  0  0  0
    4.7140    2.2450    1.3437 C   0  0  0  0  0  0  0  0  0  0  0  0
    6.0429    2.3382    0.5968 C   0  0  0  0  0  0  0  0  0  0  0  0
    6.5799    0.9514    0.2702 C   0  0  0  0  0  0  0  0  0  0  0  0
    5.5850    0.1622   -0.5836 C   0  0  0  0  0  0  0  0  0  0  0  0
   -0.8498   -3.0639   -0.6826 N   0  0  0  0  0  0  0  0  0  0  0  0
   -2.1455   -3.0835   -0.3544 C   0  0  0  0  0  0  0  0  0  0  0  0
   -2.9265   -4.1944   -0.2235 N   0  0  0  0  0  0  0  0  0  0  0  0
   -4.1731   -3.7788    0.1483 C   0  0  0  0  0  0  0  0  0  0  0  0
   -4.2364   -2.4694    0.2537 N   0  0  0  0  0  0  0  0  0  0  0  0
   -2.9714   -2.0101   -0.0702 C   0  0  0  0  0  0  0  0  0  0  0  0
   -4.5696    2.2074    0.6865 C   0  0  0  0  0  0  0  0  0  0  0  0
   -5.8635    2.7389    0.6860 C   0  0  0  0  0  0  0  0  0  0  0  0
   -7.4237    0.2878   -1.0750 H   0  0  0  0  0  0  0  0  0  0  0  0
   -5.1600   -0.6287   -1.0876 H   0  0  0  0  0  0  0  0  0  0  0  0
   -2.2521    1.2192    0.0993 H   0  0  0  0  0  0  0  0  0  0  0  0
    1.3649   -2.6748   -0.9125 H   0  0  0  0  0  0  0  0  0  0  0  0
    1.3259    0.3007   -0.6380 H   0  0  0  0  0  0  0  0  0  0  0  0
    1.6229   -0.8026    0.7302 H   0  0  0  0  0  0  0  0  0  0  0  0
    3.2862   -0.6500   -1.8357 H   0  0  0  0  0  0  0  0  0  0  0  0
    3.5899   -1.7467   -0.4960 H   0  0  0  0  0  0  0  0  0  0  0  0
    2.7516    1.2916    1.1195 H   0  0  0  0  0  0  0  0  0  0  0  0
    4.2279    3.2272    1.3288 H   0  0  0  0  0  0  0  0  0  0  0  0
    4.8965    1.9938    2.3954 H   0  0  0  0  0  0  0  0  0  0  0  0
    6.7692    2.8928    1.2015 H   0  0  0  0  0  0  0  0  0  0  0  0
    5.9044    2.9039   -0.3334 H   0  0  0  0  0  0  0  0  0  0  0  0
    7.5363    1.0321   -0.2585 H   0  0  0  0  0  0  0  0  0  0  0  0
    6.7766    0.4073    1.2029 H   0  0  0  0  0  0  0  0  0  0  0  0
    5.8945   -0.8899   -0.5847 H   0  0  0  0  0  0  0  0  0  0  0  0
    5.6392    0.5143   -1.6215 H   0  0  0  0  0  0  0  0  0  0  0  0
   -2.6182   -5.1439   -0.3672 H   0  0  0  0  0  0  0  0  0  0  0  0
   -4.9870   -4.4691    0.3285 H   0  0  0  0  0  0  0  0  0  0  0  0
   -3.7827    2.7515    1.2042 H   0  0  0  0  0  0  0  0  0  0  0  0
   -6.0595    3.6825    1.1869 H   0  0  0  0  0  0  0  0  0  0  0  0
  1  2  1  0
  2  3  2  0
  3  4  1  0
  4  5  2  0
  5  6  1  0
  6  7  1  0
  7  8  2  0
  8  9  1  0
  9 10  1  0
 10 11  1  0
 11 12  1  0
 12 13  1  0
 13 14  2  0
 14 15  1  0
 15 16  1  0
 16 17  1  0
 17 18  1  0
  9 19  2  0
 19 20  1  0
 20 21  1  0
 21 22  1  0
 22 23  2  0
 23 24  1  0
  5 25  1  0
 25 26  2  0
 26  2  1  0
 24  7  1  0
 18 13  1  0
 24 20  2  0
  3 27  1  0
  4 28  1  0
  6 29  1  0
 10 30  1  0
 11 31  1  0
 11 32  1  0
 12 33  1  0
 12 34  1  0
 14 35  1  0
 15 36  1  0
 15 37  1  0
 16 38  1  0
 16 39  1  0
 17 40  1  0
 17 41  1  0
 18 42  1  0
 18 43  1  0
 21 44  1  0
 22 45  1  0
 25 46  1  0
 26 47  1  0
M  END
>  <ScrubInfo>  (1) 
{"isomerGroup": 0, "isomerId": 0, "confId": 0, "nr_conformers:": 1, "nr_isomers:": 14}

$$$$
_i1
     RDKit          3D

 47 50  0  0  0  0  0  0  0  0999 V2000
    0.7615    0.1181    1.2955 N   0  0  0  0  0  0  0  0  0  0  0  0
    0.0032   -1.0337    1.2839 C   0  0  0  0  0  0  0  0  0  0  0  0
   -1.2254   -0.8582    1.8641 N   0  0  0  0  0  0  0  0  0  0  0  0
   -2.2547   -1.8918    1.7850 C   0  0  0  0  0  0  0  0  0  0  0  0
   -2.9381   -1.9120    0.4092 C   0  0  0  0  0  0  0  0  0  0  0  0
   -3.6345   -0.6133    0.0466 C   0  0  0  0  0  0  0  0  0  0  0  0
   -3.1204    0.2265   -0.8717 C   0  0  0  0  0  0  0  0  0  0  0  0
   -3.7912    1.4937   -1.3163 C   0  0  0  0  0  0  0  0  0  0  0  0
   -5.2551    1.5814   -0.8856 C   0  0  0  0  0  0  0  0  0  0  0  0
   -5.4322    1.1142    0.5542 C   0  0  0  0  0  0  0  0  0  0  0  0
   -4.9496   -0.3279    0.7343 C   0  0  0  0  0  0  0  0  0  0  0  0
    0.4131   -2.1734    0.7820 N   0  0  0  0  0  0  0  0  0  0  0  0
    1.6633   -2.0603    0.2668 C   0  0  0  0  0  0  0  0  0  0  0  0
    2.3529   -3.0676   -0.3367 N   0  0  0  0  0  0  0  0  0  0  0  0
    3.5643   -2.5567   -0.7201 C   0  0  0  0  0  0  0  0  0  0  0  0
    3.6896   -1.2862   -0.3967 N   0  0  0  0  0  0  0  0  0  0  0  0
    2.5062   -0.9636    0.2242 C   0  0  0  0  0  0  0  0  0  0  0  0
    2.0431    0.2883    0.8132 C   0  0  0  0  0  0  0  0  0  0  0  0
    2.6793    1.4173    0.9134 N   0  0  0  0  0  0  0  0  0  0  0  0
    3.9810    1.5406    0.4161 C   0  0  0  0  0  0  0  0  0  0  0  0
    4.1970    1.9898   -0.8904 C   0  0  0  0  0  0  0  0  0  0  0  0
    5.4964    2.1513   -1.3776 C   0  0  0  0  0  0  0  0  0  0  0  0
    6.5824    1.8764   -0.5487 C   0  0  0  0  0  0  0  0  0  0  0  0
    8.1844    2.0748   -1.1457 Cl  0  0  0  0  0  0  0  0  0  0  0  0
    6.3807    1.4497    0.7626 C   0  0  0  0  0  0  0  0  0  0  0  0
    5.0792    1.2899    1.2447 C   0  0  0  0  0  0  0  0  0  0  0  0
    0.4150    0.9070    1.8149 H   0  0  0  0  0  0  0  0  0  0  0  0
   -1.6210    0.0658    1.7275 H   0  0  0  0  0  0  0  0  0  0  0  0
   -1.8256   -2.8767    2.0038 H   0  0  0  0  0  0  0  0  0  0  0  0
   -2.9933   -1.6988    2.5708 H   0  0  0  0  0  0  0  0  0  0  0  0
   -2.1977   -2.1647   -0.3604 H   0  0  0  0  0  0  0  0  0  0  0  0
   -3.6766   -2.7232    0.3883 H   0  0  0  0  0  0  0  0  0  0  0  0
   -2.1684   -0.0037   -1.3478 H   0  0  0  0  0  0  0  0  0  0  0  0
   -3.7356    1.5711   -2.4080 H   0  0  0  0  0  0  0  0  0  0  0  0
   -3.2317    2.3424   -0.9051 H   0  0  0  0  0  0  0  0  0  0  0  0
   -5.6113    2.6119   -0.9951 H   0  0  0  0  0  0  0  0  0  0  0  0
   -5.8713    0.9596   -1.5476 H   0  0  0  0  0  0  0  0  0  0  0  0
   -4.8677    1.7761    1.2235 H   0  0  0  0  0  0  0  0  0  0  0  0
   -6.4855    1.1889    0.8474 H   0  0  0  0  0  0  0  0  0  0  0  0
   -5.7043   -1.0163    0.3341 H   0  0  0  0  0  0  0  0  0  0  0  0
   -4.8698   -0.5290    1.8082 H   0  0  0  0  0  0  0  0  0  0  0  0
    2.0201   -4.0106   -0.4685 H   0  0  0  0  0  0  0  0  0  0  0  0
    4.3088   -3.1558   -1.2273 H   0  0  0  0  0  0  0  0  0  0  0  0
    3.3473    2.2037   -1.5318 H   0  0  0  0  0  0  0  0  0  0  0  0
    5.6506    2.4874   -2.3985 H   0  0  0  0  0  0  0  0  0  0  0  0
    7.2250    1.2384    1.4118 H   0  0  0  0  0  0  0  0  0  0  0  0
    4.9167    0.9587    2.2661 H   0  0  0  0  0  0  0  0  0  0  0  0
  1  2  1  0
  2  3  1  0
  3  4  1  0
  4  5  1  0
  5  6  1  0
  6  7  2  0
  7  8  1  0
  8  9  1  0
  9 10  1  0
 10 11  1  0
  2 12  2  0
 12 13  1  0
 13 14  1  0
 14 15  1  0
 15 16  2  0
 16 17  1  0
 17 18  1  0
 18 19  2  3
 19 20  1  0
 20 21  2  0
 21 22  1  0
 22 23  2  0
 23 24  1  0
 23 25  1  0
 25 26  2  0
 18  1  1  0
 26 20  1  0
 11  6  1  0
 17 13  2  0
  1 27  1  0
  3 28  1  0
  4 29  1  0
  4 30  1  0
  5 31  1  0
  5 32  1  0
  7 33  1  0
  8 34  1  0
  8 35  1  0
  9 36  1  0
  9 37  1  0
 10 38  1  0
 10 39  1  0
 11 40  1  0
 11 41  1  0
 14 42  1  0
 15 43  1  0
 21 44  1  0
 22 45  1  0
 25 46  1  0
 26 47  1  0
M  END
>  <ScrubInfo>  (2) 
{"isomerGroup": 0, "isomerId": 1, "confId": 0, "nr_conformers:": 1, "nr_isomers:": 14}

$$$$
_i2
     RDKit          3D

 47 50  0  0  0  0  0  0  0  0999 V2000
   -0.9057   -0.8396    0.7957 N   0  0  0  0  0  0  0  0  0  0  0  0
   -2.2271   -0.4239    0.8909 C   0  0  0  0  0  0  0  0  0  0  0  0
   -3.1698   -0.9856    0.0485 N   0  0  0  0  0  0  0  0  0  0  0  0
   -4.2419   -0.3820   -0.6356 C   0  0  0  0  0  0  0  0  0  0  0  0
   -5.2271   -1.2139   -1.1936 C   0  0  0  0  0  0  0  0  0  0  0  0
   -6.3370   -0.6809   -1.8574 C   0  0  0  0  0  0  0  0  0  0  0  0
   -6.4797    0.6985   -1.9617 C   0  0  0  0  0  0  0  0  0  0  0  0
   -7.8418    1.3605   -2.7767 Cl  0  0  0  0  0  0  0  0  0  0  0  0
   -5.5250    1.5433   -1.4059 C   0  0  0  0  0  0  0  0  0  0  0  0
   -4.4172    1.0027   -0.7423 C   0  0  0  0  0  0  0  0  0  0  0  0
   -2.4920    0.4643    1.8692 C   0  0  0  0  0  0  0  0  0  0  0  0
   -3.6549    1.0742    2.3448 N   0  0  0  0  0  0  0  0  0  0  0  0
   -3.2361    1.8038    3.3498 C   0  0  0  0  0  0  0  0  0  0  0  0
   -1.8976    1.7464    3.5947 N   0  0  0  0  0  0  0  0  0  0  0  0
   -1.3183    0.8962    2.7015 C   0  0  0  0  0  0  0  0  0  0  0  0
   -0.0952    0.5312    2.5811 N   0  0  0  0  0  0  0  0  0  0  0  0
    0.1383   -0.3609    1.5575 C   0  0  0  0  0  0  0  0  0  0  0  0
    1.3800   -0.6619    1.4262 N   0  0  0  0  0  0  0  0  0  0  0  0
    1.7891   -1.5976    0.3832 C   0  0  0  0  0  0  0  0  0  0  0  0
    3.3196   -1.7181    0.3710 C   0  0  0  0  0  0  0  0  0  0  0  0
    4.0286   -0.5109   -0.2086 C   0  0  0  0  0  0  0  0  0  0  0  0
    4.6248    0.4003    0.5826 C   0  0  0  0  0  0  0  0  0  0  0  0
    5.3806    1.5898    0.0696 C   0  0  0  0  0  0  0  0  0  0  0  0
    5.7016    1.4993   -1.4222 C   0  0  0  0  0  0  0  0  0  0  0  0
    4.5030    0.9849   -2.2108 C   0  0  0  0  0  0  0  0  0  0  0  0
    4.0614   -0.3946   -1.7140 C   0  0  0  0  0  0  0  0  0  0  0  0
   -0.6854   -1.4146    0.0013 H   0  0  0  0  0  0  0  0  0  0  0  0
   -2.9138   -1.8910   -0.3234 H   0  0  0  0  0  0  0  0  0  0  0  0
   -5.1448   -2.2945   -1.1029 H   0  0  0  0  0  0  0  0  0  0  0  0
   -7.0848   -1.3464   -2.2791 H   0  0  0  0  0  0  0  0  0  0  0  0
   -5.6328    2.6220   -1.4767 H   0  0  0  0  0  0  0  0  0  0  0  0
   -3.6883    1.6894   -0.3218 H   0  0  0  0  0  0  0  0  0  0  0  0
   -3.8525    2.4434    3.9990 H   0  0  0  0  0  0  0  0  0  0  0  0
   -1.3915    2.2029    4.3346 H   0  0  0  0  0  0  0  0  0  0  0  0
    1.3683   -2.5877    0.5967 H   0  0  0  0  0  0  0  0  0  0  0  0
    1.4286   -1.2763   -0.6005 H   0  0  0  0  0  0  0  0  0  0  0  0
    3.6039   -2.5982   -0.2198 H   0  0  0  0  0  0  0  0  0  0  0  0
    3.6760   -1.9133    1.3910 H   0  0  0  0  0  0  0  0  0  0  0  0
    4.5563    0.3002    1.6643 H   0  0  0  0  0  0  0  0  0  0  0  0
    4.7845    2.4888    0.2669 H   0  0  0  0  0  0  0  0  0  0  0  0
    6.3164    1.6958    0.6299 H   0  0  0  0  0  0  0  0  0  0  0  0
    6.0051    2.4840   -1.7952 H   0  0  0  0  0  0  0  0  0  0  0  0
    6.5536    0.8245   -1.5749 H   0  0  0  0  0  0  0  0  0  0  0  0
    3.6710    1.6940   -2.1120 H   0  0  0  0  0  0  0  0  0  0  0  0
    4.7493    0.9305   -3.2772 H   0  0  0  0  0  0  0  0  0  0  0  0
    3.0727   -0.6093   -2.1345 H   0  0  0  0  0  0  0  0  0  0  0  0
    4.7474   -1.1571   -2.1036 H   0  0  0  0  0  0  0  0  0  0  0  0
  1  2  1  0
  2  3  1  0
  3  4  1  0
  4  5  2  0
  5  6  1  0
  6  7  2  0
  7  8  1  0
  7  9  1  0
  9 10  2  0
  2 11  2  0
 11 12  1  0
 12 13  2  0
 13 14  1  0
 14 15  1  0
 15 16  2  0
 16 17  1  0
 17 18  2  3
 18 19  1  0
 19 20  1  0
 20 21  1  0
 21 22  2  0
 22 23  1  0
 23 24  1  0
 24 25  1  0
 25 26  1  0
 17  1  1  0
 26 21  1  0
 10  4  1  0
 15 11  1  0
  1 27  1  0
  3 28  1  0
  5 29  1  0
  6 30  1  0
  9 31  1  0
 10 32  1  0
 13 33  1  0
 14 34  1  0
 19 35  1  0
 19 36  1  0
 20 37  1  0
 20 38  1  0
 22 39  1  0
 23 40  1  0
 23 41  1  0
 24 42  1  0
 24 43  1  0
 25 44  1  0
 25 45  1  0
 26 46  1  0
 26 47  1  0
M  END
>  <ScrubInfo>  (3) 
{"isomerGroup": 0, "isomerId": 2, "confId": 0, "nr_conformers:": 1, "nr_isomers:": 14}

$$$$
_i3
     RDKit          3D

 47 50  0  0  0  0  0  0  0  0999 V2000
    0.4853    0.3621    1.2726 N   0  0  0  0  0  0  0  0  0  0  0  0
    0.4795   -0.4900    0.1754 C   0  0  0  0  0  0  0  0  0  0  0  0
   -0.5539   -0.8418   -0.5048 N   0  0  0  0  0  0  0  0  0  0  0  0
   -1.8656   -0.3237   -0.1319 C   0  0  0  0  0  0  0  0  0  0  0  0
   -2.9018   -0.8502   -1.1305 C   0  0  0  0  0  0  0  0  0  0  0  0
   -4.3024   -0.3637   -0.8270 C   0  0  0  0  0  0  0  0  0  0  0  0
   -4.8729    0.6287   -1.5354 C   0  0  0  0  0  0  0  0  0  0  0  0
   -6.2790    1.1079   -1.3203 C   0  0  0  0  0  0  0  0  0  0  0  0
   -7.1138    0.1576   -0.4621 C   0  0  0  0  0  0  0  0  0  0  0  0
   -6.3135   -0.3502    0.7314 C   0  0  0  0  0  0  0  0  0  0  0  0
   -5.0435   -1.0769    0.2802 C   0  0  0  0  0  0  0  0  0  0  0  0
    1.6528   -1.0641   -0.2995 N   0  0  0  0  0  0  0  0  0  0  0  0
    2.7959   -0.7839    0.2691 C   0  0  0  0  0  0  0  0  0  0  0  0
    3.9745   -1.3532   -0.1412 N   0  0  0  0  0  0  0  0  0  0  0  0
    5.1500   -0.6674   -0.5307 C   0  0  0  0  0  0  0  0  0  0  0  0
    5.2410    0.7250   -0.6481 C   0  0  0  0  0  0  0  0  0  0  0  0
    6.4405    1.3374   -1.0295 C   0  0  0  0  0  0  0  0  0  0  0  0
    7.5637    0.5596   -1.2934 C   0  0  0  0  0  0  0  0  0  0  0  0
    9.0376    1.3128   -1.7613 Cl  0  0  0  0  0  0  0  0  0  0  0  0
    7.4985   -0.8252   -1.1791 C   0  0  0  0  0  0  0  0  0  0  0  0
    6.2979   -1.4321   -0.7981 C   0  0  0  0  0  0  0  0  0  0  0  0
    2.8409    0.0869    1.4354 C   0  0  0  0  0  0  0  0  0  0  0  0
    3.8673    0.4975    2.2478 N   0  0  0  0  0  0  0  0  0  0  0  0
    3.2923    1.2699    3.1507 C   0  0  0  0  0  0  0  0  0  0  0  0
    1.9342    1.3726    2.9573 N   0  0  0  0  0  0  0  0  0  0  0  0
    1.6573    0.6146    1.8692 C   0  0  0  0  0  0  0  0  0  0  0  0
   -0.4004    0.7334    1.5811 H   0  0  0  0  0  0  0  0  0  0  0  0
   -2.1237   -0.6515    0.8818 H   0  0  0  0  0  0  0  0  0  0  0  0
   -1.8664    0.7731   -0.1559 H   0  0  0  0  0  0  0  0  0  0  0  0
   -2.8935   -1.9478   -1.1397 H   0  0  0  0  0  0  0  0  0  0  0  0
   -2.6070   -0.5469   -2.1440 H   0  0  0  0  0  0  0  0  0  0  0  0
   -4.3121    1.1245   -2.3252 H   0  0  0  0  0  0  0  0  0  0  0  0
   -6.2379    2.0962   -0.8470 H   0  0  0  0  0  0  0  0  0  0  0  0
   -6.7716    1.2371   -2.2907 H   0  0  0  0  0  0  0  0  0  0  0  0
   -7.4406   -0.6959   -1.0698 H   0  0  0  0  0  0  0  0  0  0  0  0
   -8.0202    0.6692   -0.1193 H   0  0  0  0  0  0  0  0  0  0  0  0
   -6.0426    0.4969    1.3747 H   0  0  0  0  0  0  0  0  0  0  0  0
   -6.9283   -1.0254    1.3372 H   0  0  0  0  0  0  0  0  0  0  0  0
   -5.3065   -2.0819   -0.0729 H   0  0  0  0  0  0  0  0  0  0  0  0
   -4.3939   -1.2041    1.1532 H   0  0  0  0  0  0  0  0  0  0  0  0
    3.7849   -2.0926   -0.8113 H   0  0  0  0  0  0  0  0  0  0  0  0
    4.3827    1.3611   -0.4519 H   0  0  0  0  0  0  0  0  0  0  0  0
    6.4865    2.4196   -1.1132 H   0  0  0  0  0  0  0  0  0  0  0  0
    8.3737   -1.4376   -1.3767 H   0  0  0  0  0  0  0  0  0  0  0  0
    6.2662   -2.5147   -0.6960 H   0  0  0  0  0  0  0  0  0  0  0  0
    3.7984    1.7758    3.9627 H   0  0  0  0  0  0  0  0  0  0  0  0
    1.2893    1.9015    3.5269 H   0  0  0  0  0  0  0  0  0  0  0  0
  1  2  1  0
  2  3  2  3
  3  4  1  0
  4  5  1  0
  5  6  1  0
  6  7  2  0
  7  8  1  0
  8  9  1  0
  9 10  1  0
 10 11  1  0
  2 12  1  0
 12 13  2  0
 13 14  1  0
 14 15  1  0
 15 16  2  0
 16 17  1  0
 17 18  2  0
 18 19  1  0
 18 20  1  0
 20 21  2  0
 13 22  1  0
 22 23  1  0
 23 24  2  0
 24 25  1  0
 25 26  1  0
 26  1  1  0
 11  6  1  0
 21 15  1  0
 26 22  2  0
  1 27  1  0
  4 28  1  0
  4 29  1  0
  5 30  1  0
  5 31  1  0
  7 32  1  0
  8 33  1  0
  8 34  1  0
  9 35  1  0
  9 36  1  0
 10 37  1  0
 10 38  1  0
 11 39  1  0
 11 40  1  0
 14 41  1  0
 16 42  1  0
 17 43  1  0
 20 44  1  0
 21 45  1  0
 24 46  1  0
 25 47  1  0
M  END
>  <ScrubInfo>  (4) 
{"isomerGroup": 0, "isomerId": 3, "confId": 0, "nr_conformers:": 1, "nr_isomers:": 14}

$$$$
_i4
     RDKit          3D

 47 50  0  0  0  0  0  0  0  0999 V2000
    0.3813    1.9871    0.1237 N   0  0  0  0  0  0  0  0  0  0  0  0
    0.5312    0.9903   -0.7899 C   0  0  0  0  0  0  0  0  0  0  0  0
   -0.6085    0.4493   -1.3073 N   0  0  0  0  0  0  0  0  0  0  0  0
   -1.7575    0.0856   -0.4853 C   0  0  0  0  0  0  0  0  0  0  0  0
   -2.8675   -0.5044   -1.3646 C   0  0  0  0  0  0  0  0  0  0  0  0
   -4.1073   -0.8702   -0.5799 C   0  0  0  0  0  0  0  0  0  0  0  0
   -5.2205   -0.1149   -0.6297 C   0  0  0  0  0  0  0  0  0  0  0  0
   -6.4987   -0.4608    0.0790 C   0  0  0  0  0  0  0  0  0  0  0  0
   -6.5353   -1.9026    0.5847 C   0  0  0  0  0  0  0  0  0  0  0  0
   -5.2074   -2.2936    1.2217 C   0  0  0  0  0  0  0  0  0  0  0  0
   -4.0506   -2.1462    0.2294 C   0  0  0  0  0  0  0  0  0  0  0  0
    1.6950    0.5494   -1.1920 N   0  0  0  0  0  0  0  0  0  0  0  0
    2.8583    1.1220   -0.6511 C   0  0  0  0  0  0  0  0  0  0  0  0
    4.0723    0.6016   -1.1232 N   0  0  0  0  0  0  0  0  0  0  0  0
    5.0631    0.1431   -0.2197 C   0  0  0  0  0  0  0  0  0  0  0  0
    4.9438   -1.1067    0.4026 C   0  0  0  0  0  0  0  0  0  0  0  0
    5.9080   -1.5354    1.3186 C   0  0  0  0  0  0  0  0  0  0  0  0
    6.9880   -0.7087    1.6234 C   0  0  0  0  0  0  0  0  0  0  0  0
    8.1734   -1.2354    2.7542 Cl  0  0  0  0  0  0  0  0  0  0  0  0
    7.1101    0.5427    1.0244 C   0  0  0  0  0  0  0  0  0  0  0  0
    6.1449    0.9676    0.1085 C   0  0  0  0  0  0  0  0  0  0  0  0
    2.7995    2.1366    0.2454 C   0  0  0  0  0  0  0  0  0  0  0  0
    3.7149    2.9163    0.8987 N   0  0  0  0  0  0  0  0  0  0  0  0
    2.9701    3.7354    1.5832 C   0  0  0  0  0  0  0  0  0  0  0  0
    1.5924    3.5963    1.4643 N   0  0  0  0  0  0  0  0  0  0  0  0
    1.4690    2.6018    0.6410 C   0  0  0  0  0  0  0  0  0  0  0  0
   -0.5188    2.4118    0.2692 H   0  0  0  0  0  0  0  0  0  0  0  0
   -0.3521   -0.2942   -1.9545 H   0  0  0  0  0  0  0  0  0  0  0  0
   -1.4398   -0.6409    0.2710 H   0  0  0  0  0  0  0  0  0  0  0  0
   -2.1424    0.9678    0.0386 H   0  0  0  0  0  0  0  0  0  0  0  0
   -3.1188    0.2177   -2.1532 H   0  0  0  0  0  0  0  0  0  0  0  0
   -2.4994   -1.3950   -1.8902 H   0  0  0  0  0  0  0  0  0  0  0  0
   -5.2351    0.8014   -1.2166 H   0  0  0  0  0  0  0  0  0  0  0  0
   -6.6245    0.2311    0.9203 H   0  0  0  0  0  0  0  0  0  0  0  0
   -7.3449   -0.2995   -0.5985 H   0  0  0  0  0  0  0  0  0  0  0  0
   -6.7510   -2.5805   -0.2512 H   0  0  0  0  0  0  0  0  0  0  0  0
   -7.3505   -2.0200    1.3076 H   0  0  0  0  0  0  0  0  0  0  0  0
   -5.0228   -1.6582    2.0974 H   0  0  0  0  0  0  0  0  0  0  0  0
   -5.2529   -3.3272    1.5830 H   0  0  0  0  0  0  0  0  0  0  0  0
   -4.0584   -2.9952   -0.4656 H   0  0  0  0  0  0  0  0  0  0  0  0
   -3.1111   -2.2004    0.7903 H   0  0  0  0  0  0  0  0  0  0  0  0
    3.7941   -0.1714   -1.7266 H   0  0  0  0  0  0  0  0  0  0  0  0
    4.0952   -1.7487    0.1814 H   0  0  0  0  0  0  0  0  0  0  0  0
    5.8068   -2.5073    1.7929 H   0  0  0  0  0  0  0  0  0  0  0  0
    7.9429    1.1956    1.2680 H   0  0  0  0  0  0  0  0  0  0  0  0
    6.2270    1.9520   -0.3465 H   0  0  0  0  0  0  0  0  0  0  0  0
    3.3942    4.5148    2.2361 H   0  0  0  0  0  0  0  0  0  0  0  0
  1  2  1  0
  2  3  1  0
  3  4  1  0
  4  5  1  0
  5  6  1  0
  6  7  2  0
  7  8  1  0
  8  9  1  0
  9 10  1  0
 10 11  1  0
  2 12  2  0
 12 13  1  0
 13 14  1  0
 14 15  1  0
 15 16  2  0
 16 17  1  0
 17 18  2  0
 18 19  1  0
 18 20  1  0
 20 21  2  0
 13 22  2  0
 22 23  1  0
 23 24  2  0
 24 25  1  0
 25 26  2  0
 26  1  1  0
 11  6  1  0
 21 15  1  0
 26 22  1  0
  1 27  1  0
  3 28  1  0
  4 29  1  0
  4 30  1  0
  5 31  1  0
  5 32  1  0
  7 33  1  0
  8 34  1  0
  8 35  1  0
  9 36  1  0
  9 37  1  0
 10 38  1  0
 10 39  1  0
 11 40  1  0
 11 41  1  0
 14 42  1  0
 16 43  1  0
 17 44  1  0
 20 45  1  0
 21 46  1  0
 24 47  1  0
M  END
>  <ScrubInfo>  (5) 
{"isomerGroup": 0, "isomerId": 4, "confId": 0, "nr_conformers:": 1, "nr_isomers:": 14}

$$$$
_i5
     RDKit          3D

 47 50  0  0  0  0  0  0  0  0999 V2000
    3.2918    2.0562    0.0454 N   0  0  0  0  0  0  0  0  0  0  0  0
    2.5040    3.0493    0.5580 C   0  0  0  0  0  0  0  0  0  0  0  0
    1.2480    2.6717    0.6538 N   0  0  0  0  0  0  0  0  0  0  0  0
    1.2271    1.3845    0.1833 C   0  0  0  0  0  0  0  0  0  0  0  0
    0.1417    0.6055    0.0819 N   0  0  0  0  0  0  0  0  0  0  0  0
    0.3835   -0.6018   -0.4316 C   0  0  0  0  0  0  0  0  0  0  0  0
   -0.6547   -1.5121   -0.5988 N   0  0  0  0  0  0  0  0  0  0  0  0
   -1.9638   -0.9438   -0.9001 C   0  0  0  0  0  0  0  0  0  0  0  0
   -2.7742   -0.6959    0.3827 C   0  0  0  0  0  0  0  0  0  0  0  0
   -4.2150   -0.2351    0.2215 C   0  0  0  0  0  0  0  0  0  0  0  0
   -4.8164    0.0357   -0.9530 C   0  0  0  0  0  0  0  0  0  0  0  0
   -6.2529    0.4578   -1.0838 C   0  0  0  0  0  0  0  0  0  0  0  0
   -7.0663    0.2438    0.1910 C   0  0  0  0  0  0  0  0  0  0  0  0
   -6.2782    0.6838    1.4170 C   0  0  0  0  0  0  0  0  0  0  0  0
   -4.9622   -0.0885    1.5326 C   0  0  0  0  0  0  0  0  0  0  0  0
    1.5876   -1.0635   -0.8284 N   0  0  0  0  0  0  0  0  0  0  0  0
    2.6861   -0.2926   -0.6908 C   0  0  0  0  0  0  0  0  0  0  0  0
    3.9222   -0.8021   -1.1125 N   0  0  0  0  0  0  0  0  0  0  0  0
    5.1556   -0.7198   -0.4328 C   0  0  0  0  0  0  0  0  0  0  0  0
    6.3356   -0.8749   -1.1726 C   0  0  0  0  0  0  0  0  0  0  0  0
    7.5845   -0.8407   -0.5459 C   0  0  0  0  0  0  0  0  0  0  0  0
    7.6595   -0.6722    0.8339 C   0  0  0  0  0  0  0  0  0  0  0  0
    9.1937   -0.6290    1.6091 Cl  0  0  0  0  0  0  0  0  0  0  0  0
    6.4969   -0.5473    1.5898 C   0  0  0  0  0  0  0  0  0  0  0  0
    5.2495   -0.5811    0.9585 C   0  0  0  0  0  0  0  0  0  0  0  0
    2.4888    0.9756   -0.1893 C   0  0  0  0  0  0  0  0  0  0  0  0
    4.2860    2.1042   -0.1316 H   0  0  0  0  0  0  0  0  0  0  0  0
    2.8973    4.0180    0.8378 H   0  0  0  0  0  0  0  0  0  0  0  0
   -0.3187   -2.1942   -1.2696 H   0  0  0  0  0  0  0  0  0  0  0  0
   -2.4988   -1.6786   -1.5147 H   0  0  0  0  0  0  0  0  0  0  0  0
   -1.8811   -0.0335   -1.5079 H   0  0  0  0  0  0  0  0  0  0  0  0
   -2.7850   -1.6284    0.9636 H   0  0  0  0  0  0  0  0  0  0  0  0
   -2.2535    0.0439    1.0026 H   0  0  0  0  0  0  0  0  0  0  0  0
   -4.2749   -0.0389   -1.8915 H   0  0  0  0  0  0  0  0  0  0  0  0
   -6.2754    1.5177   -1.3643 H   0  0  0  0  0  0  0  0  0  0  0  0
   -6.7214   -0.1000   -1.9027 H   0  0  0  0  0  0  0  0  0  0  0  0
   -8.0083    0.7998    0.1267 H   0  0  0  0  0  0  0  0  0  0  0  0
   -7.3285   -0.8176    0.2876 H   0  0  0  0  0  0  0  0  0  0  0  0
   -6.8750    0.5325    2.3236 H   0  0  0  0  0  0  0  0  0  0  0  0
   -6.0686    1.7591    1.3496 H   0  0  0  0  0  0  0  0  0  0  0  0
   -4.3288    0.4232    2.2673 H   0  0  0  0  0  0  0  0  0  0  0  0
   -5.1648   -1.0923    1.9267 H   0  0  0  0  0  0  0  0  0  0  0  0
    3.7463   -1.7591   -1.4181 H   0  0  0  0  0  0  0  0  0  0  0  0
    6.2864   -1.0109   -2.2511 H   0  0  0  0  0  0  0  0  0  0  0  0
    8.4888   -0.9505   -1.1386 H   0  0  0  0  0  0  0  0  0  0  0  0
    6.5510   -0.4381    2.6701 H   0  0  0  0  0  0  0  0  0  0  0  0
    4.3544   -0.5202    1.5739 H   0  0  0  0  0  0  0  0  0  0  0  0
  1  2  1  0
  2  3  2  0
  3  4  1  0
  4  5  2  0
  5  6  1  0
  6  7  1  0
  7  8  1  0
  8  9  1  0
  9 10  1  0
 10 11  2  0
 11 12  1  0
 12 13  1  0
 13 14  1  0
 14 15  1  0
  6 16  2  0
 16 17  1  0
 17 18  1  0
 18 19  1  0
 19 20  2  0
 20 21  1  0
 21 22  2  0
 22 23  1  0
 22 24  1  0
 24 25  2  0
 17 26  2  0
 26  1  1  0
 26  4  1  0
 15 10  1  0
 25 19  1  0
  1 27  1  0
  2 28  1  0
  7 29  1  0
  8 30  1  0
  8 31  1  0
  9 32  1  0
  9 33  1  0
 11 34  1  0
 12 35  1  0
 12 36  1  0
 13 37  1  0
 13 38  1  0
 14 39  1  0
 14 40  1  0
 15 41  1  0
 15 42  1  0
 18 43  1  0
 20 44  1  0
 21 45  1  0
 24 46  1  0
 25 47  1  0
M  END
>  <ScrubInfo>  (6) 
{"isomerGroup": 0, "isomerId": 5, "confId": 0, "nr_conformers:": 1, "nr_isomers:": 14}

$$$$
_i6
     RDKit          3D

 47 50  0  0  0  0  0  0  0  0999 V2000
    1.5427    0.4971   -0.8159 N   0  0  0  0  0  0  0  0  0  0  0  0
    0.3062    0.2639   -0.2761 C   0  0  0  0  0  0  0  0  0  0  0  0
   -0.6631    0.1757   -1.2380 N   0  0  0  0  0  0  0  0  0  0  0  0
   -2.0709    0.0011   -0.8806 C   0  0  0  0  0  0  0  0  0  0  0  0
   -2.3692   -1.4529   -0.4940 C   0  0  0  0  0  0  0  0  0  0  0  0
   -3.8356   -1.6903   -0.2026 C   0  0  0  0  0  0  0  0  0  0  0  0
   -4.2947   -1.7721    1.0601 C   0  0  0  0  0  0  0  0  0  0  0  0
   -5.7241   -2.0624    1.4138 C   0  0  0  0  0  0  0  0  0  0  0  0
   -6.5414   -2.5839    0.2320 C   0  0  0  0  0  0  0  0  0  0  0  0
   -6.2366   -1.7959   -1.0366 C   0  0  0  0  0  0  0  0  0  0  0  0
   -4.7491   -1.8691   -1.3926 C   0  0  0  0  0  0  0  0  0  0  0  0
    0.0792    0.1380    0.9946 N   0  0  0  0  0  0  0  0  0  0  0  0
    1.1766    0.2454    1.7908 C   0  0  0  0  0  0  0  0  0  0  0  0
    1.2122    0.1265    3.0818 N   0  0  0  0  0  0  0  0  0  0  0  0
    2.5608    0.2925    3.3592 C   0  0  0  0  0  0  0  0  0  0  0  0
    3.3657    0.5097    2.3558 N   0  0  0  0  0  0  0  0  0  0  0  0
    2.5235    0.5026    1.2748 C   0  0  0  0  0  0  0  0  0  0  0  0
    2.6971    0.6265   -0.0561 C   0  0  0  0  0  0  0  0  0  0  0  0
    3.9157    0.7927   -0.6913 N   0  0  0  0  0  0  0  0  0  0  0  0
    4.9887    1.6452   -0.3619 C   0  0  0  0  0  0  0  0  0  0  0  0
    6.2236    1.4309   -0.9974 C   0  0  0  0  0  0  0  0  0  0  0  0
    7.3410    2.2164   -0.6963 C   0  0  0  0  0  0  0  0  0  0  0  0
    7.2376    3.2240    0.2566 C   0  0  0  0  0  0  0  0  0  0  0  0
    8.6076    4.1941    0.6306 Cl  0  0  0  0  0  0  0  0  0  0  0  0
    6.0298    3.4468    0.9090 C   0  0  0  0  0  0  0  0  0  0  0  0
    4.9156    2.6564    0.6032 C   0  0  0  0  0  0  0  0  0  0  0  0
    1.6644    0.3976   -1.8101 H   0  0  0  0  0  0  0  0  0  0  0  0
   -0.5463    0.8448   -1.9895 H   0  0  0  0  0  0  0  0  0  0  0  0
   -2.6716    0.2798   -1.7539 H   0  0  0  0  0  0  0  0  0  0  0  0
   -2.3509    0.6914   -0.0755 H   0  0  0  0  0  0  0  0  0  0  0  0
   -2.0498   -2.1279   -1.2987 H   0  0  0  0  0  0  0  0  0  0  0  0
   -1.7668   -1.7375    0.3777 H   0  0  0  0  0  0  0  0  0  0  0  0
   -3.6121   -1.6300    1.8967 H   0  0  0  0  0  0  0  0  0  0  0  0
   -6.1773   -1.1421    1.8012 H   0  0  0  0  0  0  0  0  0  0  0  0
   -5.7559   -2.8011    2.2227 H   0  0  0  0  0  0  0  0  0  0  0  0
   -7.6101   -2.5238    0.4667 H   0  0  0  0  0  0  0  0  0  0  0  0
   -6.3114   -3.6441    0.0650 H   0  0  0  0  0  0  0  0  0  0  0  0
   -6.8340   -2.1801   -1.8711 H   0  0  0  0  0  0  0  0  0  0  0  0
   -6.5282   -0.7477   -0.8924 H   0  0  0  0  0  0  0  0  0  0  0  0
   -4.5404   -1.1060   -2.1506 H   0  0  0  0  0  0  0  0  0  0  0  0
   -4.5328   -2.8427   -1.8499 H   0  0  0  0  0  0  0  0  0  0  0  0
    2.9213    0.2377    4.3989 H   0  0  0  0  0  0  0  0  0  0  0  0
    3.9189    0.5247   -1.6668 H   0  0  0  0  0  0  0  0  0  0  0  0
    6.3301    0.6326   -1.7281 H   0  0  0  0  0  0  0  0  0  0  0  0
    8.2846    2.0289   -1.2009 H   0  0  0  0  0  0  0  0  0  0  0  0
    5.9429    4.2271    1.6600 H   0  0  0  0  0  0  0  0  0  0  0  0
    3.9865    2.8595    1.1278 H   0  0  0  0  0  0  0  0  0  0  0  0
  1  2  1  0
  2  3  1  0
  3  4  1  0
  4  5  1  0
  5  6  1  0
  6  7  2  0
  7  8  1  0
  8  9  1  0
  9 10  1  0
 10 11  1  0
  2 12  2  0
 12 13  1  0
 13 14  2  0
 14 15  1  0
 15 16  2  0
 16 17  1  0
 17 18  2  0
 18 19  1  0
 19 20  1  0
 20 21  2  0
 21 22  1  0
 22 23  2  0
 23 24  1  0
 23 25  1  0
 25 26  2  0
 18  1  1  0
 26 20  1  0
 11  6  1  0
 17 13  1  0
  1 27  1  0
  3 28  1  0
  4 29  1  0
  4 30  1  0
  5 31  1  0
  5 32  1  0
  7 33  1  0
  8 34  1  0
  8 35  1  0
  9 36  1  0
  9 37  1  0
 10 38  1  0
 10 39  1  0
 11 40  1  0
 11 41  1  0
 15 42  1  0
 19 43  1  0
 21 44  1  0
 22 45  1  0
 25 46  1  0
 26 47  1  0
M  END
>  <ScrubInfo>  (7) 
{"isomerGroup": 0, "isomerId": 6, "confId": 0, "nr_conformers:": 1, "nr_isomers:": 14}

$$$$
_i7
     RDKit          3D

 47 50  0  0  0  0  0  0  0  0999 V2000
    0.7557    2.4739    0.2960 N   0  0  0  0  0  0  0  0  0  0  0  0
    1.0590    1.2274   -0.2048 C   0  0  0  0  0  0  0  0  0  0  0  0
    0.0102    0.5524   -0.7611 N   0  0  0  0  0  0  0  0  0  0  0  0
   -1.2311    0.3311   -0.0227 C   0  0  0  0  0  0  0  0  0  0  0  0
   -2.2172   -0.4682   -0.8836 C   0  0  0  0  0  0  0  0  0  0  0  0
   -3.5453   -0.6983   -0.1974 C   0  0  0  0  0  0  0  0  0  0  0  0
   -4.6491   -0.0133   -0.5506 C   0  0  0  0  0  0  0  0  0  0  0  0
   -6.0053   -0.2444    0.0517 C   0  0  0  0  0  0  0  0  0  0  0  0
   -6.0947   -1.5424    0.8536 C   0  0  0  0  0  0  0  0  0  0  0  0
   -4.8575   -1.7364    1.7216 C   0  0  0  0  0  0  0  0  0  0  0  0
   -3.5829   -1.7652    0.8736 C   0  0  0  0  0  0  0  0  0  0  0  0
    2.2382    0.6677   -0.2037 N   0  0  0  0  0  0  0  0  0  0  0  0
    3.3195    1.3513    0.3562 C   0  0  0  0  0  0  0  0  0  0  0  0
    4.5163    0.8587    0.4308 N   0  0  0  0  0  0  0  0  0  0  0  0
    4.7386   -0.4266   -0.0747 C   0  0  0  0  0  0  0  0  0  0  0  0
    5.0852   -0.6107   -1.4169 C   0  0  0  0  0  0  0  0  0  0  0  0
    5.3325   -1.8921   -1.9155 C   0  0  0  0  0  0  0  0  0  0  0  0
    5.2449   -2.9916   -1.0635 C   0  0  0  0  0  0  0  0  0  0  0  0
    5.5459   -4.5721   -1.6744 Cl  0  0  0  0  0  0  0  0  0  0  0  0
    4.9193   -2.8202    0.2808 C   0  0  0  0  0  0  0  0  0  0  0  0
    4.6727   -1.5363    0.7734 C   0  0  0  0  0  0  0  0  0  0  0  0
    3.0547    2.6899    0.8733 C   0  0  0  0  0  0  0  0  0  0  0  0
    3.8828    3.6324    1.4403 N   0  0  0  0  0  0  0  0  0  0  0  0
    3.0992    4.6639    1.6911 C   0  0  0  0  0  0  0  0  0  0  0  0
    1.7985    4.4329    1.3095 N   0  0  0  0  0  0  0  0  0  0  0  0
    1.7771    3.1768    0.8030 C   0  0  0  0  0  0  0  0  0  0  0  0
   -0.1403    2.8696    0.0463 H   0  0  0  0  0  0  0  0  0  0  0  0
    0.3741   -0.3293   -1.1223 H   0  0  0  0  0  0  0  0  0  0  0  0
   -1.0045   -0.2088    0.9037 H   0  0  0  0  0  0  0  0  0  0  0  0
   -1.6843    1.2904    0.2522 H   0  0  0  0  0  0  0  0  0  0  0  0
   -1.7806   -1.4380   -1.1553 H   0  0  0  0  0  0  0  0  0  0  0  0
   -2.3700    0.0606   -1.8340 H   0  0  0  0  0  0  0  0  0  0  0  0
   -4.5954    0.7509   -1.3234 H   0  0  0  0  0  0  0  0  0  0  0  0
   -6.7578   -0.2654   -0.7448 H   0  0  0  0  0  0  0  0  0  0  0  0
   -6.2453    0.6085    0.6977 H   0  0  0  0  0  0  0  0  0  0  0  0
   -6.1940   -2.3930    0.1671 H   0  0  0  0  0  0  0  0  0  0  0  0
   -6.9958   -1.5303    1.4770 H   0  0  0  0  0  0  0  0  0  0  0  0
   -4.7938   -0.9196    2.4521 H   0  0  0  0  0  0  0  0  0  0  0  0
   -4.9405   -2.6679    2.2929 H   0  0  0  0  0  0  0  0  0  0  0  0
   -3.4928   -2.7445    0.3871 H   0  0  0  0  0  0  0  0  0  0  0  0
   -2.7239   -1.6614    1.5455 H   0  0  0  0  0  0  0  0  0  0  0  0
    5.1591    0.2524   -2.0726 H   0  0  0  0  0  0  0  0  0  0  0  0
    5.5946   -2.0211   -2.9614 H   0  0  0  0  0  0  0  0  0  0  0  0
    4.8597   -3.6738    0.9495 H   0  0  0  0  0  0  0  0  0  0  0  0
    4.4275   -1.3928    1.8220 H   0  0  0  0  0  0  0  0  0  0  0  0
    3.4109    5.5972    2.1415 H   0  0  0  0  0  0  0  0  0  0  0  0
    1.0261    5.0757    1.4061 H   0  0  0  0  0  0  0  0  0  0  0  0
  1  2  1  0
  2  3  1  0
  3  4  1  0
  4  5  1  0
  5  6  1  0
  6  7  2  0
  7  8  1  0
  8  9  1  0
  9 10  1  0
 10 11  1  0
  2 12  2  0
 12 13  1  0
 13 14  2  3
 14 15  1  0
 15 16  2  0
 16 17  1  0
 17 18  2  0
 18 19  1  0
 18 20  1  0
 20 21  2  0
 13 22  1  0
 22 23  1  0
 23 24  2  0
 24 25  1  0
 25 26  1  0
 26  1  1  0
 11  6  1  0
 21 15  1  0
 26 22  2  0
  1 27  1  0
  3 28  1  0
  4 29  1  0
  4 30  1  0
  5 31  1  0
  5 32  1  0
  7 33  1  0
  8 34  1  0
  8 35  1  0
  9 36  1  0
  9 37  1  0
 10 38  1  0
 10 39  1  0
 11 40  1  0
 11 41  1  0
 16 42  1  0
 17 43  1  0
 20 44  1  0
 21 45  1  0
 24 46  1  0
 25 47  1  0
M  END
>  <ScrubInfo>  (8) 
{"isomerGroup": 0, "isomerId": 7, "confId": 0, "nr_conformers:": 1, "nr_isomers:": 14}

$$$$
_i8
     RDKit          3D

 47 50  0  0  0  0  0  0  0  0999 V2000
    0.5164    1.9544    0.2620 N   0  0  0  0  0  0  0  0  0  0  0  0
    0.0320    1.0763   -0.6991 C   0  0  0  0  0  0  0  0  0  0  0  0
   -1.1228    1.0785   -1.2701 N   0  0  0  0  0  0  0  0  0  0  0  0
   -2.1187    2.0960   -0.9364 C   0  0  0  0  0  0  0  0  0  0  0  0
   -2.9305    1.7128    0.3117 C   0  0  0  0  0  0  0  0  0  0  0  0
   -3.8690    0.5195    0.2439 C   0  0  0  0  0  0  0  0  0  0  0  0
   -4.0635   -0.2476   -0.8455 C   0  0  0  0  0  0  0  0  0  0  0  0
   -4.9617   -1.4503   -0.8827 C   0  0  0  0  0  0  0  0  0  0  0  0
   -5.3938   -1.9247    0.5034 C   0  0  0  0  0  0  0  0  0  0  0  0
   -5.7726   -0.7442    1.3874 C   0  0  0  0  0  0  0  0  0  0  0  0
   -4.6019    0.2299    1.5383 C   0  0  0  0  0  0  0  0  0  0  0  0
    0.9351    0.0928   -1.0519 N   0  0  0  0  0  0  0  0  0  0  0  0
    2.2212   -0.1759   -0.6246 C   0  0  0  0  0  0  0  0  0  0  0  0
    2.9088   -1.1748   -1.0948 N   0  0  0  0  0  0  0  0  0  0  0  0
    4.2084   -1.4215   -0.6409 C   0  0  0  0  0  0  0  0  0  0  0  0
    4.4269   -2.2883    0.4345 C   0  0  0  0  0  0  0  0  0  0  0  0
    5.7260   -2.5668    0.8664 C   0  0  0  0  0  0  0  0  0  0  0  0
    6.8098   -1.9874    0.2092 C   0  0  0  0  0  0  0  0  0  0  0  0
    8.4115   -2.3274    0.7394 Cl  0  0  0  0  0  0  0  0  0  0  0  0
    6.6065   -1.1408   -0.8790 C   0  0  0  0  0  0  0  0  0  0  0  0
    5.3053   -0.8657   -1.3067 C   0  0  0  0  0  0  0  0  0  0  0  0
    2.6388    0.7992    0.3833 C   0  0  0  0  0  0  0  0  0  0  0  0
    3.8137    0.9339    1.0848 N   0  0  0  0  0  0  0  0  0  0  0  0
    3.6358    1.9857    1.8583 C   0  0  0  0  0  0  0  0  0  0  0  0
    2.3930    2.5443    1.6916 N   0  0  0  0  0  0  0  0  0  0  0  0
    1.7608    1.7918    0.7552 C   0  0  0  0  0  0  0  0  0  0  0  0
   -0.1010    2.6909    0.5725 H   0  0  0  0  0  0  0  0  0  0  0  0
   -2.7875    2.2232   -1.7957 H   0  0  0  0  0  0  0  0  0  0  0  0
   -1.6506    3.0768   -0.7906 H   0  0  0  0  0  0  0  0  0  0  0  0
   -2.2369    1.5462    1.1456 H   0  0  0  0  0  0  0  0  0  0  0  0
   -3.5373    2.5877    0.5801 H   0  0  0  0  0  0  0  0  0  0  0  0
   -3.5418   -0.0322   -1.7749 H   0  0  0  0  0  0  0  0  0  0  0  0
   -5.8457   -1.2012   -1.4817 H   0  0  0  0  0  0  0  0  0  0  0  0
   -4.4481   -2.2714   -1.3958 H   0  0  0  0  0  0  0  0  0  0  0  0
   -6.2394   -2.6156    0.4112 H   0  0  0  0  0  0  0  0  0  0  0  0
   -4.5750   -2.4842    0.9736 H   0  0  0  0  0  0  0  0  0  0  0  0
   -6.6320   -0.2210    0.9489 H   0  0  0  0  0  0  0  0  0  0  0  0
   -6.0867   -1.0986    2.3757 H   0  0  0  0  0  0  0  0  0  0  0  0
   -4.9869    1.1639    1.9652 H   0  0  0  0  0  0  0  0  0  0  0  0
   -3.8809   -0.1789    2.2574 H   0  0  0  0  0  0  0  0  0  0  0  0
    0.5865   -0.5542   -1.7444 H   0  0  0  0  0  0  0  0  0  0  0  0
    3.5786   -2.7395    0.9405 H   0  0  0  0  0  0  0  0  0  0  0  0
    5.8815   -3.2314    1.7107 H   0  0  0  0  0  0  0  0  0  0  0  0
    7.4492   -0.6927   -1.3966 H   0  0  0  0  0  0  0  0  0  0  0  0
    5.1409   -0.2095   -2.1562 H   0  0  0  0  0  0  0  0  0  0  0  0
    4.3616    2.3875    2.5532 H   0  0  0  0  0  0  0  0  0  0  0  0
    2.0362    3.3546    2.1765 H   0  0  0  0  0  0  0  0  0  0  0  0
  1  2  1  0
  2  3  2  3
  3  4  1  0
  4  5  1  0
  5  6  1  0
  6  7  2  0
  7  8  1  0
  8  9  1  0
  9 10  1  0
 10 11  1  0
  2 12  1  0
 12 13  1  0
 13 14  2  3
 14 15  1  0
 15 16  2  0
 16 17  1  0
 17 18  2  0
 18 19  1  0
 18 20  1  0
 20 21  2  0
 13 22  1  0
 22 23  1  0
 23 24  2  0
 24 25  1  0
 25 26  1  0
 26  1  1  0
 11  6  1  0
 21 15  1  0
 26 22  2  0
  1 27  1  0
  4 28  1  0
  4 29  1  0
  5 30  1  0
  5 31  1  0
  7 32  1  0
  8 33  1  0
  8 34  1  0
  9 35  1  0
  9 36  1  0
 10 37  1  0
 10 38  1  0
 11 39  1  0
 11 40  1  0
 12 41  1  0
 16 42  1  0
 17 43  1  0
 20 44  1  0
 21 45  1  0
 24 46  1  0
 25 47  1  0
M  END
>  <ScrubInfo>  (9) 
{"isomerGroup": 0, "isomerId": 8, "confId": 0, "nr_conformers:": 1, "nr_isomers:": 14}

$$$$
_i9
     RDKit          3D

 47 50  0  0  0  0  0  0  0  0999 V2000
    3.5252   -1.4988    1.0031 N   0  0  0  0  0  0  0  0  0  0  0  0
    2.8172   -2.5256    1.5675 C   0  0  0  0  0  0  0  0  0  0  0  0
    1.5400   -2.4652    1.2623 N   0  0  0  0  0  0  0  0  0  0  0  0
    1.4201   -1.3595    0.4701 C   0  0  0  0  0  0  0  0  0  0  0  0
    0.2201   -0.8955   -0.1011 N   0  0  0  0  0  0  0  0  0  0  0  0
    0.3543    0.2040   -0.7926 C   0  0  0  0  0  0  0  0  0  0  0  0
   -0.6957    0.8231   -1.4246 N   0  0  0  0  0  0  0  0  0  0  0  0
   -2.0677    0.3448   -1.2671 C   0  0  0  0  0  0  0  0  0  0  0  0
   -2.6616    0.7909    0.0752 C   0  0  0  0  0  0  0  0  0  0  0  0
   -4.1103    0.3863    0.2427 C   0  0  0  0  0  0  0  0  0  0  0  0
   -4.4734   -0.5782    1.1086 C   0  0  0  0  0  0  0  0  0  0  0  0
   -5.8889   -1.0364    1.3076 C   0  0  0  0  0  0  0  0  0  0  0  0
   -6.8437   -0.5293    0.2269 C   0  0  0  0  0  0  0  0  0  0  0  0
   -6.5706    0.9333   -0.1036 C   0  0  0  0  0  0  0  0  0  0  0  0
   -5.1307    1.1321   -0.5854 C   0  0  0  0  0  0  0  0  0  0  0  0
    1.5375    0.8727   -0.9892 N   0  0  0  0  0  0  0  0  0  0  0  0
    2.7482    0.4482   -0.5033 C   0  0  0  0  0  0  0  0  0  0  0  0
    3.8248    1.1182   -0.8041 N   0  0  0  0  0  0  0  0  0  0  0  0
    5.0876    0.7340   -0.3540 C   0  0  0  0  0  0  0  0  0  0  0  0
    5.8707   -0.1426   -1.1112 C   0  0  0  0  0  0  0  0  0  0  0  0
    7.1426   -0.5152   -0.6692 C   0  0  0  0  0  0  0  0  0  0  0  0
    7.6379    0.0043    0.5256 C   0  0  0  0  0  0  0  0  0  0  0  0
    9.2008   -0.4565    1.0748 Cl  0  0  0  0  0  0  0  0  0  0  0  0
    6.8746    0.8957    1.2778 C   0  0  0  0  0  0  0  0  0  0  0  0
    5.6033    1.2653    0.8319 C   0  0  0  0  0  0  0  0  0  0  0  0
    2.6406   -0.7384    0.2951 C   0  0  0  0  0  0  0  0  0  0  0  0
    4.5184   -1.3457    1.1025 H   0  0  0  0  0  0  0  0  0  0  0  0
    3.2842   -3.2805    2.1861 H   0  0  0  0  0  0  0  0  0  0  0  0
   -0.6357    1.8323   -1.4721 H   0  0  0  0  0  0  0  0  0  0  0  0
   -2.6563    0.7600   -2.0929 H   0  0  0  0  0  0  0  0  0  0  0  0
   -2.1104   -0.7461   -1.3718 H   0  0  0  0  0  0  0  0  0  0  0  0
   -2.0590    0.3819    0.8961 H   0  0  0  0  0  0  0  0  0  0  0  0
   -2.5832    1.8814    0.1737 H   0  0  0  0  0  0  0  0  0  0  0  0
   -3.7181   -1.0835    1.7090 H   0  0  0  0  0  0  0  0  0  0  0  0
   -5.9182   -2.1318    1.3245 H   0  0  0  0  0  0  0  0  0  0  0  0
   -6.2272   -0.6910    2.2918 H   0  0  0  0  0  0  0  0  0  0  0  0
   -6.7266   -1.1349   -0.6810 H   0  0  0  0  0  0  0  0  0  0  0  0
   -7.8798   -0.6545    0.5610 H   0  0  0  0  0  0  0  0  0  0  0  0
   -6.7480    1.5478    0.7884 H   0  0  0  0  0  0  0  0  0  0  0  0
   -7.2678    1.2821   -0.8737 H   0  0  0  0  0  0  0  0  0  0  0  0
   -4.9081    2.2056   -0.5752 H   0  0  0  0  0  0  0  0  0  0  0  0
   -5.0511    0.7952   -1.6261 H   0  0  0  0  0  0  0  0  0  0  0  0
    1.5787    1.6147   -1.6669 H   0  0  0  0  0  0  0  0  0  0  0  0
    5.4873   -0.5329   -2.0509 H   0  0  0  0  0  0  0  0  0  0  0  0
    7.7416   -1.1992   -1.2650 H   0  0  0  0  0  0  0  0  0  0  0  0
    7.2648    1.3139    2.2021 H   0  0  0  0  0  0  0  0  0  0  0  0
    5.0114    1.9736    1.4068 H   0  0  0  0  0  0  0  0  0  0  0  0
  1  2  1  0
  2  3  2  0
  3  4  1  0
  4  5  1  0
  5  6  2  0
  6  7  1  0
  7  8  1  0
  8  9  1  0
  9 10  1  0
 10 11  2  0
 11 12  1  0
 12 13  1  0
 13 14  1  0
 14 15  1  0
  6 16  1  0
 16 17  1  0
 17 18  2  3
 18 19  1  0
 19 20  2  0
 20 21  1  0
 21 22  2  0
 22 23  1  0
 22 24  1  0
 24 25  2  0
 17 26  1  0
 26  1  1  0
 26  4  2  0
 15 10  1  0
 25 19  1  0
  1 27  1  0
  2 28  1  0
  7 29  1  0
  8 30  1  0
  8 31  1  0
  9 32  1  0
  9 33  1  0
 11 34  1  0
 12 35  1  0
 12 36  1  0
 13 37  1  0
 13 38  1  0
 14 39  1  0
 14 40  1  0
 15 41  1  0
 15 42  1  0
 16 43  1  0
 20 44  1  0
 21 45  1  0
 24 46  1  0
 25 47  1  0
M  END
>  <ScrubInfo>  (10) 
{"isomerGroup": 0, "isomerId": 9, "confId": 0, "nr_conformers:": 1, "nr_isomers:": 14}

$$$$
_i10
     RDKit          3D

 47 50  0  0  0  0  0  0  0  0999 V2000
    3.4613   -2.4258   -0.4907 N   0  0  0  0  0  0  0  0  0  0  0  0
    2.6725   -3.2993   -1.1630 C   0  0  0  0  0  0  0  0  0  0  0  0
    1.4046   -2.9978   -1.1923 N   0  0  0  0  0  0  0  0  0  0  0  0
    1.2841   -1.8268   -0.4531 C   0  0  0  0  0  0  0  0  0  0  0  0
    0.1749   -1.2222   -0.2275 N   0  0  0  0  0  0  0  0  0  0  0  0
    0.3165   -0.1017    0.5550 C   0  0  0  0  0  0  0  0  0  0  0  0
   -0.7014    0.6463    0.8319 N   0  0  0  0  0  0  0  0  0  0  0  0
   -1.9937    0.2333    0.2687 C   0  0  0  0  0  0  0  0  0  0  0  0
   -3.0595    1.2386    0.7212 C   0  0  0  0  0  0  0  0  0  0  0  0
   -4.4358    0.9395    0.1675 C   0  0  0  0  0  0  0  0  0  0  0  0
   -4.9726    1.6764   -0.8231 C   0  0  0  0  0  0  0  0  0  0  0  0
   -6.3523    1.4600   -1.3726 C   0  0  0  0  0  0  0  0  0  0  0  0
   -7.2167    0.5599   -0.4901 C   0  0  0  0  0  0  0  0  0  0  0  0
   -6.4239   -0.6419    0.0093 C   0  0  0  0  0  0  0  0  0  0  0  0
   -5.1914   -0.2035    0.8054 C   0  0  0  0  0  0  0  0  0  0  0  0
    1.5387    0.2605    1.0660 N   0  0  0  0  0  0  0  0  0  0  0  0
    2.7372   -0.3653    0.7878 C   0  0  0  0  0  0  0  0  0  0  0  0
    3.9189    0.0864    1.3480 N   0  0  0  0  0  0  0  0  0  0  0  0
    5.1601    0.2968    0.7112 C   0  0  0  0  0  0  0  0  0  0  0  0
    5.3290    0.2968   -0.6796 C   0  0  0  0  0  0  0  0  0  0  0  0
    6.5947    0.4704   -1.2507 C   0  0  0  0  0  0  0  0  0  0  0  0
    7.7076    0.6380   -0.4324 C   0  0  0  0  0  0  0  0  0  0  0  0
    9.2635    0.8472   -1.1334 Cl  0  0  0  0  0  0  0  0  0  0  0  0
    7.5649    0.6350    0.9513 C   0  0  0  0  0  0  0  0  0  0  0  0
    6.2976    0.4631    1.5169 C   0  0  0  0  0  0  0  0  0  0  0  0
    2.6576   -1.4600    0.0132 C   0  0  0  0  0  0  0  0  0  0  0  0
    4.4302   -2.5214   -0.2310 H   0  0  0  0  0  0  0  0  0  0  0  0
    3.1503   -4.1759   -1.6259 H   0  0  0  0  0  0  0  0  0  0  0  0
   -2.2575   -0.7704    0.6221 H   0  0  0  0  0  0  0  0  0  0  0  0
   -1.9477    0.2234   -0.8276 H   0  0  0  0  0  0  0  0  0  0  0  0
   -2.7444    2.2477    0.4234 H   0  0  0  0  0  0  0  0  0  0  0  0
   -3.1103    1.2611    1.8175 H   0  0  0  0  0  0  0  0  0  0  0  0
   -4.3989    2.4854   -1.2702 H   0  0  0  0  0  0  0  0  0  0  0  0
   -6.2604    1.0213   -2.3733 H   0  0  0  0  0  0  0  0  0  0  0  0
   -6.8522    2.4281   -1.4913 H   0  0  0  0  0  0  0  0  0  0  0  0
   -8.0959    0.2256   -1.0523 H   0  0  0  0  0  0  0  0  0  0  0  0
   -7.5873    1.1332    0.3693 H   0  0  0  0  0  0  0  0  0  0  0  0
   -7.0592   -1.2783    0.6356 H   0  0  0  0  0  0  0  0  0  0  0  0
   -6.1091   -1.2514   -0.8476 H   0  0  0  0  0  0  0  0  0  0  0  0
   -4.5376   -1.0739    0.9270 H   0  0  0  0  0  0  0  0  0  0  0  0
   -5.5011    0.1076    1.8110 H   0  0  0  0  0  0  0  0  0  0  0  0
    1.5499    1.1319    1.5728 H   0  0  0  0  0  0  0  0  0  0  0  0
    3.7809    0.7194    2.1302 H   0  0  0  0  0  0  0  0  0  0  0  0
    4.4768    0.1942   -1.3469 H   0  0  0  0  0  0  0  0  0  0  0  0
    6.7000    0.4801   -2.3327 H   0  0  0  0  0  0  0  0  0  0  0  0
    8.4311    0.7614    1.5954 H   0  0  0  0  0  0  0  0  0  0  0  0
    6.2066    0.4474    2.6011 H   0  0  0  0  0  0  0  0  0  0  0  0
  1  2  1  0
  2  3  2  0
  3  4  1  0
  4  5  2  0
  5  6  1  0
  6  7  2  3
  7  8  1  0
  8  9  1  0
  9 10  1  0
 10 11  2  0
 11 12  1  0
 12 13  1  0
 13 14  1  0
 14 15  1  0
  6 16  1  0
 16 17  1  0
 17 18  1  0
 18 19  1  0
 19 20  2  0
 20 21  1  0
 21 22  2  0
 22 23  1  0
 22 24  1  0
 24 25  2  0
 17 26  2  0
 26  1  1  0
 26  4  1  0
 15 10  1  0
 25 19  1  0
  1 27  1  0
  2 28  1  0
  8 29  1  0
  8 30  1  0
  9 31  1  0
  9 32  1  0
 11 33  1  0
 12 34  1  0
 12 35  1  0
 13 36  1  0
 13 37  1  0
 14 38  1  0
 14 39  1  0
 15 40  1  0
 15 41  1  0
 16 42  1  0
 18 43  1  0
 20 44  1  0
 21 45  1  0
 24 46  1  0
 25 47  1  0
M  END
>  <ScrubInfo>  (11) 
{"isomerGroup": 0, "isomerId": 10, "confId": 0, "nr_conformers:": 1, "nr_isomers:": 14}

$$$$
_i11
     RDKit          3D

 47 50  0  0  0  0  0  0  0  0999 V2000
    0.2522   -0.9398    1.0975 N   0  0  0  0  0  0  0  0  0  0  0  0
    1.1181   -1.8873    1.5495 C   0  0  0  0  0  0  0  0  0  0  0  0
    0.9417   -2.9136    2.3261 N   0  0  0  0  0  0  0  0  0  0  0  0
    2.2077   -3.4876    2.3989 C   0  0  0  0  0  0  0  0  0  0  0  0
    3.1687   -2.9109    1.7317 N   0  0  0  0  0  0  0  0  0  0  0  0
    2.5285   -1.8548    1.1528 C   0  0  0  0  0  0  0  0  0  0  0  0
    2.9193   -0.8492    0.3441 C   0  0  0  0  0  0  0  0  0  0  0  0
    4.2397   -0.7882   -0.0763 N   0  0  0  0  0  0  0  0  0  0  0  0
    5.0339    0.3458   -0.3307 C   0  0  0  0  0  0  0  0  0  0  0  0
    6.2418    0.1636   -1.0232 C   0  0  0  0  0  0  0  0  0  0  0  0
    7.0624    1.2486   -1.3469 C   0  0  0  0  0  0  0  0  0  0  0  0
    6.6781    2.5348   -0.9832 C   0  0  0  0  0  0  0  0  0  0  0  0
    7.6830    3.8737   -1.3771 Cl  0  0  0  0  0  0  0  0  0  0  0  0
    5.4833    2.7409   -0.3006 C   0  0  0  0  0  0  0  0  0  0  0  0
    4.6653    1.6509    0.0192 C   0  0  0  0  0  0  0  0  0  0  0  0
    1.9467    0.0570   -0.0811 N   0  0  0  0  0  0  0  0  0  0  0  0
    0.6029    0.0751    0.2357 C   0  0  0  0  0  0  0  0  0  0  0  0
   -0.1466    0.9820   -0.2898 N   0  0  0  0  0  0  0  0  0  0  0  0
   -1.5710    1.0200    0.0457 C   0  0  0  0  0  0  0  0  0  0  0  0
   -2.3626    0.1084   -0.8979 C   0  0  0  0  0  0  0  0  0  0  0  0
   -3.8116   -0.0367   -0.4896 C   0  0  0  0  0  0  0  0  0  0  0  0
   -4.2824   -1.1779    0.0479 C   0  0  0  0  0  0  0  0  0  0  0  0
   -5.7222   -1.3972    0.4138 C   0  0  0  0  0  0  0  0  0  0  0  0
   -6.6613   -0.3494   -0.1829 C   0  0  0  0  0  0  0  0  0  0  0  0
   -6.0726    1.0500   -0.0541 C   0  0  0  0  0  0  0  0  0  0  0  0
   -4.7136    1.1480   -0.7528 C   0  0  0  0  0  0  0  0  0  0  0  0
   -0.7100   -1.0356    1.3801 H   0  0  0  0  0  0  0  0  0  0  0  0
    2.3700   -4.3953    3.0021 H   0  0  0  0  0  0  0  0  0  0  0  0
    4.7839   -1.5879    0.2512 H   0  0  0  0  0  0  0  0  0  0  0  0
    6.5475   -0.8347   -1.3292 H   0  0  0  0  0  0  0  0  0  0  0  0
    7.9915    1.0807   -1.8845 H   0  0  0  0  0  0  0  0  0  0  0  0
    5.1814    3.7431   -0.0081 H   0  0  0  0  0  0  0  0  0  0  0  0
    3.7546    1.8439    0.5798 H   0  0  0  0  0  0  0  0  0  0  0  0
    2.2494    0.7162   -0.7864 H   0  0  0  0  0  0  0  0  0  0  0  0
   -1.9089    2.0563   -0.0698 H   0  0  0  0  0  0  0  0  0  0  0  0
   -1.7503    0.7674    1.0977 H   0  0  0  0  0  0  0  0  0  0  0  0
   -2.3089    0.4964   -1.9230 H   0  0  0  0  0  0  0  0  0  0  0  0
   -1.8881   -0.8807   -0.9359 H   0  0  0  0  0  0  0  0  0  0  0  0
   -3.6131   -2.0163    0.2278 H   0  0  0  0  0  0  0  0  0  0  0  0
   -5.8050   -1.3907    1.5071 H   0  0  0  0  0  0  0  0  0  0  0  0
   -6.0360   -2.3909    0.0742 H   0  0  0  0  0  0  0  0  0  0  0  0
   -6.8372   -0.5737   -1.2428 H   0  0  0  0  0  0  0  0  0  0  0  0
   -7.6347   -0.3977    0.3180 H   0  0  0  0  0  0  0  0  0  0  0  0
   -6.7601    1.7887   -0.4815 H   0  0  0  0  0  0  0  0  0  0  0  0
   -5.9575    1.2998    1.0084 H   0  0  0  0  0  0  0  0  0  0  0  0
   -4.2302    2.0756   -0.4273 H   0  0  0  0  0  0  0  0  0  0  0  0
   -4.8675    1.2294   -1.8361 H   0  0  0  0  0  0  0  0  0  0  0  0
  1  2  1  0
  2  3  2  0
  3  4  1  0
  4  5  2  0
  5  6  1  0
  6  7  2  0
  7  8  1  0
  8  9  1  0
  9 10  2  0
 10 11  1  0
 11 12  2  0
 12 13  1  0
 12 14  1  0
 14 15  2  0
  7 16  1  0
 16 17  1  0
 17 18  2  3
 18 19  1  0
 19 20  1  0
 20 21  1  0
 21 22  2  0
 22 23  1  0
 23 24  1  0
 24 25  1  0
 25 26  1  0
 17  1  1  0
 26 21  1  0
  6  2  1  0
 15  9  1  0
  1 27  1  0
  4 28  1  0
  8 29  1  0
 10 30  1  0
 11 31  1  0
 14 32  1  0
 15 33  1  0
 16 34  1  0
 19 35  1  0
 19 36  1  0
 20 37  1  0
 20 38  1  0
 22 39  1  0
 23 40  1  0
 23 41  1  0
 24 42  1  0
 24 43  1  0
 25 44  1  0
 25 45  1  0
 26 46  1  0
 26 47  1  0
M  END
>  <ScrubInfo>  (12) 
{"isomerGroup": 0, "isomerId": 11, "confId": 0, "nr_conformers:": 1, "nr_isomers:": 14}

$$$$
_i12
     RDKit          3D

 47 50  0  0  0  0  0  0  0  0999 V2000
    3.4281    2.1918   -0.2807 N   0  0  0  0  0  0  0  0  0  0  0  0
    2.6722    3.2931    0.0410 C   0  0  0  0  0  0  0  0  0  0  0  0
    1.3798    3.0609   -0.0905 N   0  0  0  0  0  0  0  0  0  0  0  0
    1.3220    1.7742   -0.5097 C   0  0  0  0  0  0  0  0  0  0  0  0
    0.2266    1.0805   -0.8038 N   0  0  0  0  0  0  0  0  0  0  0  0
    0.3956   -0.2148   -1.2465 C   0  0  0  0  0  0  0  0  0  0  0  0
   -0.5466   -1.0213   -1.5931 N   0  0  0  0  0  0  0  0  0  0  0  0
   -1.9439   -0.5953   -1.5671 C   0  0  0  0  0  0  0  0  0  0  0  0
   -2.5433   -0.8287   -0.1743 C   0  0  0  0  0  0  0  0  0  0  0  0
   -3.9931   -0.4295    0.0379 C   0  0  0  0  0  0  0  0  0  0  0  0
   -4.7947    0.1043   -0.9039 C   0  0  0  0  0  0  0  0  0  0  0  0
   -6.2398    0.4512   -0.6806 C   0  0  0  0  0  0  0  0  0  0  0  0
   -6.8159   -0.1476    0.6008 C   0  0  0  0  0  0  0  0  0  0  0  0
   -5.8353   -0.0019    1.7563 C   0  0  0  0  0  0  0  0  0  0  0  0
   -4.5054   -0.6901    1.4409 C   0  0  0  0  0  0  0  0  0  0  0  0
    1.6423   -0.8169   -1.3624 N   0  0  0  0  0  0  0  0  0  0  0  0
    2.7194   -0.1493   -1.0476 C   0  0  0  0  0  0  0  0  0  0  0  0
    3.9319   -0.7872   -1.1834 N   0  0  0  0  0  0  0  0  0  0  0  0
    4.9348   -0.8139   -0.1886 C   0  0  0  0  0  0  0  0  0  0  0  0
    6.2488   -1.1102   -0.5774 C   0  0  0  0  0  0  0  0  0  0  0  0
    7.2767   -1.1838    0.3670 C   0  0  0  0  0  0  0  0  0  0  0  0
    6.9918   -0.9808    1.7143 C   0  0  0  0  0  0  0  0  0  0  0  0
    8.2534   -1.0688    2.8791 Cl  0  0  0  0  0  0  0  0  0  0  0  0
    5.6878   -0.7143    2.1231 C   0  0  0  0  0  0  0  0  0  0  0  0
    4.6620   -0.6407    1.1752 C   0  0  0  0  0  0  0  0  0  0  0  0
    2.5519    1.2044   -0.6215 C   0  0  0  0  0  0  0  0  0  0  0  0
    4.4373    2.1256   -0.2647 H   0  0  0  0  0  0  0  0  0  0  0  0
    3.1191    4.2265    0.3582 H   0  0  0  0  0  0  0  0  0  0  0  0
   -0.6903    1.4861   -0.7267 H   0  0  0  0  0  0  0  0  0  0  0  0
   -2.4864   -1.1998   -2.3039 H   0  0  0  0  0  0  0  0  0  0  0  0
   -2.0576    0.4455   -1.8910 H   0  0  0  0  0  0  0  0  0  0  0  0
   -2.4433   -1.8950    0.0689 H   0  0  0  0  0  0  0  0  0  0  0  0
   -1.9361   -0.2887    0.5635 H   0  0  0  0  0  0  0  0  0  0  0  0
   -4.4268    0.3027   -1.9067 H   0  0  0  0  0  0  0  0  0  0  0  0
   -6.3306    1.5437   -0.6529 H   0  0  0  0  0  0  0  0  0  0  0  0
   -6.8325    0.1022   -1.5340 H   0  0  0  0  0  0  0  0  0  0  0  0
   -7.7645    0.3435    0.8449 H   0  0  0  0  0  0  0  0  0  0  0  0
   -7.0386   -1.2108    0.4436 H   0  0  0  0  0  0  0  0  0  0  0  0
   -6.2632   -0.4286    2.6704 H   0  0  0  0  0  0  0  0  0  0  0  0
   -5.6600    1.0634    1.9540 H   0  0  0  0  0  0  0  0  0  0  0  0
   -3.7643   -0.3549    2.1765 H   0  0  0  0  0  0  0  0  0  0  0  0
   -4.6187   -1.7739    1.5697 H   0  0  0  0  0  0  0  0  0  0  0  0
    3.7714   -1.7303   -1.5347 H   0  0  0  0  0  0  0  0  0  0  0  0
    6.4823   -1.2748   -1.6277 H   0  0  0  0  0  0  0  0  0  0  0  0
    8.2911   -1.4039    0.0447 H   0  0  0  0  0  0  0  0  0  0  0  0
    5.4582   -0.5763    3.1768 H   0  0  0  0  0  0  0  0  0  0  0  0
    3.6462   -0.4675    1.5249 H   0  0  0  0  0  0  0  0  0  0  0  0
  1  2  1  0
  2  3  2  0
  3  4  1  0
  4  5  1  0
  5  6  1  0
  6  7  2  3
  7  8  1  0
  8  9  1  0
  9 10  1  0
 10 11  2  0
 11 12  1  0
 12 13  1  0
 13 14  1  0
 14 15  1  0
  6 16  1  0
 16 17  2  0
 17 18  1  0
 18 19  1  0
 19 20  2  0
 20 21  1  0
 21 22  2  0
 22 23  1  0
 22 24  1  0
 24 25  2  0
 17 26  1  0
 26  1  1  0
 26  4  2  0
 15 10  1  0
 25 19  1  0
  1 27  1  0
  2 28  1  0
  5 29  1  0
  8 30  1  0
  8 31  1  0
  9 32  1  0
  9 33  1  0
 11 34  1  0
 12 35  1  0
 12 36  1  0
 13 37  1  0
 13 38  1  0
 14 39  1  0
 14 40  1  0
 15 41  1  0
 15 42  1  0
 18 43  1  0
 20 44  1  0
 21 45  1  0
 24 46  1  0
 25 47  1  0
M  END
>  <ScrubInfo>  (13) 
{"isomerGroup": 0, "isomerId": 12, "confId": 0, "nr_conformers:": 1, "nr_isomers:": 14}

$$$$
_i13
     RDKit          3D

 47 50  0  0  0  0  0  0  0  0999 V2000
    2.7726   -3.9568   -0.5581 N   0  0  0  0  0  0  0  0  0  0  0  0
    1.8188   -4.8452   -0.9926 C   0  0  0  0  0  0  0  0  0  0  0  0
    0.7324   -4.2329   -1.4277 N   0  0  0  0  0  0  0  0  0  0  0  0
    1.0116   -2.9183   -1.2542 C   0  0  0  0  0  0  0  0  0  0  0  0
    0.2235   -1.8838   -1.5448 N   0  0  0  0  0  0  0  0  0  0  0  0
    0.7816   -0.6448   -1.3569 C   0  0  0  0  0  0  0  0  0  0  0  0
   -0.0129    0.4099   -1.7158 N   0  0  0  0  0  0  0  0  0  0  0  0
   -1.4187    0.5181   -1.3385 C   0  0  0  0  0  0  0  0  0  0  0  0
   -1.5761    0.6712    0.1805 C   0  0  0  0  0  0  0  0  0  0  0  0
   -3.0157    0.8668    0.6030 C   0  0  0  0  0  0  0  0  0  0  0  0
   -3.4547    2.0393    1.0973 C   0  0  0  0  0  0  0  0  0  0  0  0
   -4.8735    2.2895    1.5216 C   0  0  0  0  0  0  0  0  0  0  0  0
   -5.8423    1.2007    1.0608 C   0  0  0  0  0  0  0  0  0  0  0  0
   -5.2398   -0.1858    1.2537 C   0  0  0  0  0  0  0  0  0  0  0  0
   -3.9291   -0.3317    0.4759 C   0  0  0  0  0  0  0  0  0  0  0  0
    1.9659   -0.3724   -0.8779 N   0  0  0  0  0  0  0  0  0  0  0  0
    2.7880   -1.4166   -0.5056 C   0  0  0  0  0  0  0  0  0  0  0  0
    3.9660   -1.2836    0.0141 N   0  0  0  0  0  0  0  0  0  0  0  0
    4.4482    0.0146    0.2236 C   0  0  0  0  0  0  0  0  0  0  0  0
    5.1659    0.6743   -0.7791 C   0  0  0  0  0  0  0  0  0  0  0  0
    5.6716    1.9582   -0.5601 C   0  0  0  0  0  0  0  0  0  0  0  0
    5.4681    2.5786    0.6712 C   0  0  0  0  0  0  0  0  0  0  0  0
    6.0886    4.1601    0.9440 Cl  0  0  0  0  0  0  0  0  0  0  0  0
    4.7688    1.9254    1.6844 C   0  0  0  0  0  0  0  0  0  0  0  0
    4.2650    0.6417    1.4599 C   0  0  0  0  0  0  0  0  0  0  0  0
    2.2534   -2.7102   -0.7392 C   0  0  0  0  0  0  0  0  0  0  0  0
    3.6899   -4.1719   -0.1896 H   0  0  0  0  0  0  0  0  0  0  0  0
    1.9759   -5.9156   -0.9681 H   0  0  0  0  0  0  0  0  0  0  0  0
   -0.5937   -1.9935   -2.1234 H   0  0  0  0  0  0  0  0  0  0  0  0
    0.4892    1.2767   -1.5319 H   0  0  0  0  0  0  0  0  0  0  0  0
   -1.9802   -0.3466   -1.7082 H   0  0  0  0  0  0  0  0  0  0  0  0
   -1.8364    1.3977   -1.8426 H   0  0  0  0  0  0  0  0  0  0  0  0
   -1.1719   -0.2093    0.6957 H   0  0  0  0  0  0  0  0  0  0  0  0
   -0.9629    1.5171    0.5188 H   0  0  0  0  0  0  0  0  0  0  0  0
   -2.7695    2.8769    1.2107 H   0  0  0  0  0  0  0  0  0  0  0  0
   -5.2069    3.2552    1.1250 H   0  0  0  0  0  0  0  0  0  0  0  0
   -4.8967    2.3664    2.6153 H   0  0  0  0  0  0  0  0  0  0  0  0
   -6.7835    1.2846    1.6157 H   0  0  0  0  0  0  0  0  0  0  0  0
   -6.0838    1.3478    0.0003 H   0  0  0  0  0  0  0  0  0  0  0  0
   -5.9495   -0.9539    0.9264 H   0  0  0  0  0  0  0  0  0  0  0  0
   -5.0547   -0.3575    2.3218 H   0  0  0  0  0  0  0  0  0  0  0  0
   -3.4151   -1.2328    0.8307 H   0  0  0  0  0  0  0  0  0  0  0  0
   -4.1574   -0.4865   -0.5856 H   0  0  0  0  0  0  0  0  0  0  0  0
    5.3239    0.1853   -1.7363 H   0  0  0  0  0  0  0  0  0  0  0  0
    6.2201    2.4629   -1.3501 H   0  0  0  0  0  0  0  0  0  0  0  0
    4.6135    2.4043    2.6468 H   0  0  0  0  0  0  0  0  0  0  0  0
    3.7228    0.1264    2.2476 H   0  0  0  0  0  0  0  0  0  0  0  0
  1  2  1  0
  2  3  2  0
  3  4  1  0
  4  5  1  0
  5  6  1  0
  6  7  1  0
  7  8  1  0
  8  9  1  0
  9 10  1  0
 10 11  2  0
 11 12  1  0
 12 13  1  0
 13 14  1  0
 14 15  1  0
  6 16  2  0
 16 17  1  0
 17 18  2  3
 18 19  1  0
 19 20  2  0
 20 21  1  0
 21 22  2  0
 22 23  1  0
 22 24  1  0
 24 25  2  0
 17 26  1  0
 26  1  1  0
 26  4  2  0
 15 10  1  0
 25 19  1  0
  1 27  1  0
  2 28  1  0
  5 29  1  0
  7 30  1  0
  8 31  1  0
  8 32  1  0
  9 33  1  0
  9 34  1  0
 11 35  1  0
 12 36  1  0
 12 37  1  0
 13 38  1  0
 13 39  1  0
 14 40  1  0
 14 41  1  0
 15 42  1  0
 15 43  1  0
 20 44  1  0
 21 45  1  0
 24 46  1  0
 25 47  1  0
M  END
>  <ScrubInfo>  (14) 
{"isomerGroup": 0, "isomerId": 13, "confId": 0, "nr_conformers:": 1, "nr_isomers:": 14}

$$$$
