REMARK SMILES Clc1ccc(Nc2nc(NCCC3=CCCCC3)nc3[nH]cnc23)cc1
REMARK SMILES IDX 7 1 8 2 9 3 19 4 20 5 21 6 22 7 23 8 24 9 6 11 5 13 2 14
REMARK SMILES IDX 3 15 26 16 4 17 25 18 1 19 10 20 11 22 12 23 13 24 14 25
REMARK SMILES IDX 18 26 15 27 17 28 16 29
REMARK H PARENT 21 10 6 12 10 21
ROOT
ATOM      1  C   UNL     1      -2.374  -0.738  -0.141  1.00  0.00     0.164 A 
ATOM      2  N   UNL     1      -1.042  -0.691  -0.441  1.00  0.00    -0.193 NA
ATOM      3  C   UNL     1      -0.353  -1.819  -0.709  1.00  0.00     0.226 A 
ATOM      4  N   UNL     1      -0.850  -3.064  -0.683  1.00  0.00    -0.193 NA
ATOM      5  C   UNL     1      -2.146  -3.083  -0.354  1.00  0.00     0.165 A 
ATOM      6  N   UNL     1      -2.926  -4.194  -0.224  1.00  0.00    -0.329 N 
ATOM      7  C   UNL     1      -4.173  -3.779   0.148  1.00  0.00     0.199 A 
ATOM      8  N   UNL     1      -4.236  -2.469   0.254  1.00  0.00    -0.231 NA
ATOM      9  C   UNL     1      -2.971  -2.010  -0.070  1.00  0.00     0.150 A 
ATOM     10  H   UNL     1      -2.618  -5.144  -0.367  1.00  0.00     0.169 HD
ENDROOT
BRANCH   1  11
ATOM     11  N   UNL     1      -2.967   0.501   0.128  1.00  0.00    -0.338 N 
ATOM     12  H   UNL     1      -2.252   1.219   0.099  1.00  0.00     0.168 HD
BRANCH  11  13
ATOM     13  C   UNL     1      -4.278   0.989   0.050  1.00  0.00     0.040 A 
ATOM     14  C   UNL     1      -6.889   2.048   0.051  1.00  0.00     0.041 A 
ATOM     15  C   UNL     1      -6.628   0.836  -0.578  1.00  0.00     0.022 A 
ATOM     16  C   UNL     1      -5.864   2.739   0.686  1.00  0.00     0.022 A 
ATOM     17  C   UNL     1      -5.330   0.311  -0.572  1.00  0.00     0.027 A 
ATOM     18  C   UNL     1      -4.570   2.207   0.686  1.00  0.00     0.027 A 
ATOM     19  Cl  UNL     1      -8.483   2.694   0.046  1.00  0.00    -0.084 Cl
ENDBRANCH  11  13
ENDBRANCH   1  11
BRANCH   3  20
ATOM     20  N   UNL     1       0.995  -1.739  -1.042  1.00  0.00    -0.354 N 
ATOM     21  H   UNL     1       1.365  -2.675  -0.912  1.00  0.00     0.163 HD
BRANCH  20  22
ATOM     22  C   UNL     1       1.725  -0.681  -0.356  1.00  0.00     0.120 C 
BRANCH  22  23
ATOM     23  C   UNL     1       3.212  -0.746  -0.744  1.00  0.00     0.052 C 
BRANCH  23  24
ATOM     24  C   UNL     1       4.146   0.275  -0.118  1.00  0.00    -0.072 C 
ATOM     25  C   UNL     1       3.778   1.218   0.770  1.00  0.00    -0.028 C 
ATOM     26  C   UNL     1       5.585   0.162  -0.584  1.00  0.00     0.031 C 
ATOM     27  C   UNL     1       4.714   2.245   1.344  1.00  0.00     0.027 C 
ATOM     28  C   UNL     1       6.580   0.951   0.270  1.00  0.00     0.005 C 
ATOM     29  C   UNL     1       6.043   2.338   0.597  1.00  0.00     0.004 C 
ENDBRANCH  23  24
ENDBRANCH  22  23
ENDBRANCH  20  22
ENDBRANCH   3  20
TORSDOF 6
