_i0
     RDKit          3D

 49 52  0  0  0  0  0  0  0  0999 V2000
   -5.2408   -2.0921    2.1441 C   0  0  0  0  0  0  0  0  0  0  0  0
   -4.7028   -1.3430    0.9397 N   0  0  0  0  0  4  0  0  0  0  0  0
   -4.5472   -2.2298   -0.2910 C   0  0  0  0  0  0  0  0  0  0  0  0
   -5.4798   -0.0916    0.5951 C   0  0  0  0  0  0  0  0  0  0  0  0
   -4.1146   -2.4127    3.1532 C   0  0  0  0  0  0  0  0  0  0  0  0
   -2.9466   -2.9812    2.4814 N   0  0  0  0  0  0  0  0  0  0  0  0
   -1.8512   -2.1281    2.3778 C   0  0  0  0  0  0  0  0  0  0  0  0
   -0.6754   -2.6890    2.6889 N   0  0  0  0  0  0  0  0  0  0  0  0
   -2.0575   -0.8694    1.9306 N   0  0  0  0  0  0  0  0  0  0  0  0
    0.4888   -1.9795    2.5796 C   0  0  0  0  0  0  0  0  0  0  0  0
   -0.8978   -0.1847    1.8806 C   0  0  0  0  0  0  0  0  0  0  0  0
    1.6508   -2.6601    2.9499 N   0  0  0  0  0  0  0  0  0  0  0  0
    0.3765   -0.6408    2.1774 C   0  0  0  0  0  0  0  0  0  0  0  0
   -0.7008    1.1222    1.5384 N   0  0  0  0  0  0  0  0  0  0  0  0
    3.0086   -2.5017    2.6342 C   0  0  0  0  0  0  0  0  0  0  0  0
    1.2637    0.3917    2.0173 N   0  0  0  0  0  0  0  0  0  0  0  0
    0.5930    1.4627    1.6103 N   0  0  0  0  0  0  0  0  0  0  0  0
    3.4809   -1.7228    1.5763 C   0  0  0  0  0  0  0  0  0  0  0  0
    3.9576   -3.1200    3.4631 C   0  0  0  0  0  0  0  0  0  0  0  0
    4.8540   -1.5738    1.3429 C   0  0  0  0  0  0  0  0  0  0  0  0
    5.3302   -2.9752    3.2353 C   0  0  0  0  0  0  0  0  0  0  0  0
    5.7899   -2.1885    2.1779 C   0  0  0  0  0  0  0  0  0  0  0  0
    7.2589   -2.0518    1.9093 C   0  0  0  0  0  0  0  0  0  0  0  0
   -3.9084   -1.4144   -1.4204 C   0  0  0  0  0  0  0  0  0  0  0  0
   -4.6901   -0.2494   -1.7165 O   0  0  0  0  0  0  0  0  0  0  0  0
   -4.8049    0.6185   -0.5840 C   0  0  0  0  0  0  0  0  0  0  0  0
   -5.7148   -3.0101    1.7796 H   0  0  0  0  0  0  0  0  0  0  0  0
   -6.0076   -1.4748    2.6244 H   0  0  0  0  0  0  0  0  0  0  0  0
   -3.7383   -1.0582    1.1939 H   0  0  0  0  0  0  0  0  0  0  0  0
   -5.5544   -2.5610   -0.5662 H   0  0  0  0  0  0  0  0  0  0  0  0
   -3.9270   -3.0883   -0.0212 H   0  0  0  0  0  0  0  0  0  0  0  0
   -5.4927    0.5469    1.4836 H   0  0  0  0  0  0  0  0  0  0  0  0
   -6.4956   -0.4113    0.3394 H   0  0  0  0  0  0  0  0  0  0  0  0
   -4.4992   -3.1453    3.8727 H   0  0  0  0  0  0  0  0  0  0  0  0
   -3.8639   -1.5159    3.7346 H   0  0  0  0  0  0  0  0  0  0  0  0
   -2.5616   -3.7960    2.9670 H   0  0  0  0  0  0  0  0  0  0  0  0
    1.4285   -3.5693    3.3387 H   0  0  0  0  0  0  0  0  0  0  0  0
   -1.3719    1.8263    1.2621 H   0  0  0  0  0  0  0  0  0  0  0  0
    2.7997   -1.2371    0.8860 H   0  0  0  0  0  0  0  0  0  0  0  0
    3.6359   -3.7202    4.3110 H   0  0  0  0  0  0  0  0  0  0  0  0
    5.1847   -0.9687    0.5012 H   0  0  0  0  0  0  0  0  0  0  0  0
    6.0356   -3.4745    3.8959 H   0  0  0  0  0  0  0  0  0  0  0  0
    7.4840   -1.0818    1.4536 H   0  0  0  0  0  0  0  0  0  0  0  0
    7.8337   -2.1144    2.8393 H   0  0  0  0  0  0  0  0  0  0  0  0
    7.5912   -2.8460    1.2337 H   0  0  0  0  0  0  0  0  0  0  0  0
   -3.8569   -2.0199   -2.3305 H   0  0  0  0  0  0  0  0  0  0  0  0
   -2.8876   -1.1086   -1.1630 H   0  0  0  0  0  0  0  0  0  0  0  0
   -5.4040    1.4831   -0.8861 H   0  0  0  0  0  0  0  0  0  0  0  0
   -3.8086    0.9835   -0.3077 H   0  0  0  0  0  0  0  0  0  0  0  0
  1  2  1  0
  2  3  1  0
  2  4  1  0
  5  1  1  0
  6  5  1  0
  7  6  1  0
  8  7  2  0
  7  9  1  0
 10  8  1  0
  9 11  2  0
 12 10  1  0
 13 10  2  0
 11 14  1  0
 13 11  1  0
 15 12  1  0
 16 13  1  0
 14 17  1  0
 18 15  2  0
 15 19  1  0
 17 16  2  0
 20 18  1  0
 19 21  2  0
 22 20  2  0
 21 22  1  0
 23 22  1  0
  3 24  1  0
 24 25  1  0
 25 26  1  0
 26  4  1  0
  1 27  1  0
  1 28  1  0
  2 29  1  0
  3 30  1  0
  3 31  1  0
  4 32  1  0
  4 33  1  0
  5 34  1  0
  5 35  1  0
  6 36  1  0
 12 37  1  0
 14 38  1  0
 18 39  1  0
 19 40  1  0
 20 41  1  0
 21 42  1  0
 23 43  1  0
 23 44  1  0
 23 45  1  0
 24 46  1  0
 24 47  1  0
 26 48  1  0
 26 49  1  0
M  CHG  1   2   1
M  END
>  <ScrubInfo>  (1) 
{"isomerGroup": 0, "isomerId": 0, "confId": 0, "nr_conformers:": 1, "nr_isomers:": 21}

$$$$
_i1
     RDKit          3D

 49 52  0  0  0  0  0  0  0  0999 V2000
   -0.0927   -1.6261   -2.6200 N   0  0  0  0  0  0  0  0  0  0  0  0
    0.3722   -2.0494   -3.8561 C   0  0  0  0  0  0  0  0  0  0  0  0
    1.2109   -1.2814   -4.6421 N   0  0  0  0  0  0  0  0  0  0  0  0
    2.2259   -0.3943   -4.2322 C   0  0  0  0  0  0  0  0  0  0  0  0
    2.6617    0.5804   -5.1396 C   0  0  0  0  0  0  0  0  0  0  0  0
    3.6402    1.5136   -4.7836 C   0  0  0  0  0  0  0  0  0  0  0  0
    4.2149    1.4849   -3.5105 C   0  0  0  0  0  0  0  0  0  0  0  0
    5.2496    2.4985   -3.1195 C   0  0  0  0  0  0  0  0  0  0  0  0
    3.7763    0.5251   -2.5940 C   0  0  0  0  0  0  0  0  0  0  0  0
    2.7932   -0.4042   -2.9530 C   0  0  0  0  0  0  0  0  0  0  0  0
   -0.1009   -3.2351   -4.2692 C   0  0  0  0  0  0  0  0  0  0  0  0
    0.0689   -4.0073   -5.3883 N   0  0  0  0  0  0  0  0  0  0  0  0
   -0.5940   -5.0996   -5.2993 N   0  0  0  0  0  0  0  0  0  0  0  0
   -1.2437   -5.0812   -4.0863 N   0  0  0  0  0  0  0  0  0  0  0  0
   -1.0070   -3.9530   -3.3723 C   0  0  0  0  0  0  0  0  0  0  0  0
   -1.4379   -3.5629   -2.2229 N   0  0  0  0  0  0  0  0  0  0  0  0
   -0.9730   -2.3237   -1.8358 C   0  0  0  0  0  0  0  0  0  0  0  0
   -1.3882   -1.8027   -0.7211 N   0  0  0  0  0  0  0  0  0  0  0  0
   -2.3170   -2.6455    0.0652 C   0  0  0  0  0  0  0  0  0  0  0  0
   -2.6174   -1.9092    1.3780 C   0  0  0  0  0  0  0  0  0  0  0  0
   -2.7341   -0.4288    1.0789 N   0  0  0  0  0  4  0  0  0  0  0  0
   -2.3740    0.4531    2.2542 C   0  0  0  0  0  0  0  0  0  0  0  0
   -2.4509    1.9250    1.8335 C   0  0  0  0  0  0  0  0  0  0  0  0
   -3.7473    2.2467    1.3153 O   0  0  0  0  0  0  0  0  0  0  0  0
   -4.0602    1.4650    0.1559 C   0  0  0  0  0  0  0  0  0  0  0  0
   -4.0745   -0.0307    0.4893 C   0  0  0  0  0  0  0  0  0  0  0  0
    0.1745   -0.6903   -2.3524 H   0  0  0  0  0  0  0  0  0  0  0  0
    1.3820   -1.6613   -5.5736 H   0  0  0  0  0  0  0  0  0  0  0  0
    2.2311    0.6314   -6.1374 H   0  0  0  0  0  0  0  0  0  0  0  0
    3.9522    2.2605   -5.5110 H   0  0  0  0  0  0  0  0  0  0  0  0
    5.9418    2.0844   -2.3789 H   0  0  0  0  0  0  0  0  0  0  0  0
    4.7648    3.3830   -2.6952 H   0  0  0  0  0  0  0  0  0  0  0  0
    5.8457    2.8025   -3.9864 H   0  0  0  0  0  0  0  0  0  0  0  0
    4.2112    0.4830   -1.5976 H   0  0  0  0  0  0  0  0  0  0  0  0
    2.5187   -1.1631   -2.2263 H   0  0  0  0  0  0  0  0  0  0  0  0
   -1.8388   -5.8406   -3.7858 H   0  0  0  0  0  0  0  0  0  0  0  0
   -1.8816   -3.6238    0.3002 H   0  0  0  0  0  0  0  0  0  0  0  0
   -3.2526   -2.7929   -0.4873 H   0  0  0  0  0  0  0  0  0  0  0  0
   -1.7704   -2.0282    2.0624 H   0  0  0  0  0  0  0  0  0  0  0  0
   -3.5343   -2.2517    1.8672 H   0  0  0  0  0  0  0  0  0  0  0  0
   -2.0213   -0.2989    0.3355 H   0  0  0  0  0  0  0  0  0  0  0  0
   -3.0957    0.2287    3.0469 H   0  0  0  0  0  0  0  0  0  0  0  0
   -1.3619    0.1891    2.5752 H   0  0  0  0  0  0  0  0  0  0  0  0
   -2.2705    2.5670    2.7012 H   0  0  0  0  0  0  0  0  0  0  0  0
   -1.6914    2.1616    1.0791 H   0  0  0  0  0  0  0  0  0  0  0  0
   -5.0488    1.7745   -0.1969 H   0  0  0  0  0  0  0  0  0  0  0  0
   -3.3369    1.6880   -0.6373 H   0  0  0  0  0  0  0  0  0  0  0  0
   -4.2462   -0.6309   -0.4082 H   0  0  0  0  0  0  0  0  0  0  0  0
   -4.8305   -0.2576    1.2487 H   0  0  0  0  0  0  0  0  0  0  0  0
  1  2  1  0
  2  3  1  0
  3  4  1  0
  4  5  2  0
  5  6  1  0
  6  7  2  0
  7  8  1  0
  7  9  1  0
  9 10  2  0
  2 11  2  0
 11 12  1  0
 12 13  2  0
 13 14  1  0
 14 15  1  0
 15 16  2  0
 16 17  1  0
 17 18  2  3
 18 19  1  0
 19 20  1  0
 20 21  1  0
 21 22  1  0
 22 23  1  0
 23 24  1  0
 24 25  1  0
 25 26  1  0
 17  1  1  0
 26 21  1  0
 10  4  1  0
 15 11  1  0
  1 27  1  0
  3 28  1  0
  5 29  1  0
  6 30  1  0
  8 31  1  0
  8 32  1  0
  8 33  1  0
  9 34  1  0
 10 35  1  0
 14 36  1  0
 19 37  1  0
 19 38  1  0
 20 39  1  0
 20 40  1  0
 21 41  1  0
 22 42  1  0
 22 43  1  0
 23 44  1  0
 23 45  1  0
 25 46  1  0
 25 47  1  0
 26 48  1  0
 26 49  1  0
M  CHG  1  21   1
M  END
>  <ScrubInfo>  (2) 
{"isomerGroup": 0, "isomerId": 1, "confId": 0, "nr_conformers:": 1, "nr_isomers:": 21}

$$$$
_i2
     RDKit          3D

 49 52  0  0  0  0  0  0  0  0999 V2000
   -0.4811    2.7948    2.8869 N   0  0  0  0  0  0  0  0  0  0  0  0
   -1.3763    1.7850    2.6020 C   0  0  0  0  0  0  0  0  0  0  0  0
   -0.7952    0.5455    2.6020 N   0  0  0  0  0  0  0  0  0  0  0  0
   -1.5379   -0.7119    2.5186 C   0  0  0  0  0  0  0  0  0  0  0  0
   -1.9876   -1.0246    1.0751 C   0  0  0  0  0  0  0  0  0  0  0  0
   -3.1296   -0.1327    0.6419 N   0  0  0  0  0  4  0  0  0  0  0  0
   -3.0878    0.2193   -0.8349 C   0  0  0  0  0  0  0  0  0  0  0  0
   -4.2423    1.1716   -1.1659 C   0  0  0  0  0  0  0  0  0  0  0  0
   -5.5042    0.5969   -0.8050 O   0  0  0  0  0  0  0  0  0  0  0  0
   -5.5822    0.3182    0.5965 C   0  0  0  0  0  0  0  0  0  0  0  0
   -4.4963   -0.6732    1.0250 C   0  0  0  0  0  0  0  0  0  0  0  0
   -2.6449    1.9751    2.3022 N   0  0  0  0  0  0  0  0  0  0  0  0
   -2.9574    3.3041    2.3756 C   0  0  0  0  0  0  0  0  0  0  0  0
   -4.1833    3.8861    2.2249 N   0  0  0  0  0  0  0  0  0  0  0  0
   -4.1084    5.2240    2.3339 N   0  0  0  0  0  0  0  0  0  0  0  0
   -2.8447    5.5405    2.6051 N   0  0  0  0  0  0  0  0  0  0  0  0
   -2.1339    4.3813    2.6477 C   0  0  0  0  0  0  0  0  0  0  0  0
   -0.7344    4.1564    2.9239 C   0  0  0  0  0  0  0  0  0  0  0  0
    0.0511    5.1549    3.1466 N   0  0  0  0  0  0  0  0  0  0  0  0
    1.3982    4.8853    3.4131 C   0  0  0  0  0  0  0  0  0  0  0  0
    1.8258    4.6494    4.7210 C   0  0  0  0  0  0  0  0  0  0  0  0
    3.1658    4.3559    4.9846 C   0  0  0  0  0  0  0  0  0  0  0  0
    4.0959    4.2963    3.9400 C   0  0  0  0  0  0  0  0  0  0  0  0
    5.5458    4.0357    4.2283 C   0  0  0  0  0  0  0  0  0  0  0  0
    3.6710    4.5680    2.6340 C   0  0  0  0  0  0  0  0  0  0  0  0
    2.3301    4.8610    2.3741 C   0  0  0  0  0  0  0  0  0  0  0  0
    0.4911    2.5555    3.0150 H   0  0  0  0  0  0  0  0  0  0  0  0
    0.0064    0.4685    3.2264 H   0  0  0  0  0  0  0  0  0  0  0  0
   -2.3832   -0.7059    3.2152 H   0  0  0  0  0  0  0  0  0  0  0  0
   -0.8657   -1.5157    2.8404 H   0  0  0  0  0  0  0  0  0  0  0  0
   -1.1546   -0.8578    0.3830 H   0  0  0  0  0  0  0  0  0  0  0  0
   -2.3236   -2.0622    0.9776 H   0  0  0  0  0  0  0  0  0  0  0  0
   -3.0050    0.7632    1.1577 H   0  0  0  0  0  0  0  0  0  0  0  0
   -3.1786   -0.7238   -1.3841 H   0  0  0  0  0  0  0  0  0  0  0  0
   -2.1209    0.6894   -1.0384 H   0  0  0  0  0  0  0  0  0  0  0  0
   -4.2619    1.3681   -2.2423 H   0  0  0  0  0  0  0  0  0  0  0  0
   -4.1239    2.1333   -0.6533 H   0  0  0  0  0  0  0  0  0  0  0  0
   -6.5701   -0.1080    0.7965 H   0  0  0  0  0  0  0  0  0  0  0  0
   -5.5066    1.2567    1.1561 H   0  0  0  0  0  0  0  0  0  0  0  0
   -4.6129   -1.6298    0.5042 H   0  0  0  0  0  0  0  0  0  0  0  0
   -4.5060   -0.8276    2.1075 H   0  0  0  0  0  0  0  0  0  0  0  0
   -5.0881    3.4686    2.0534 H   0  0  0  0  0  0  0  0  0  0  0  0
    1.1162    4.7158    5.5419 H   0  0  0  0  0  0  0  0  0  0  0  0
    3.4835    4.1958    6.0131 H   0  0  0  0  0  0  0  0  0  0  0  0
    6.0638    4.9793    4.4252 H   0  0  0  0  0  0  0  0  0  0  0  0
    5.6586    3.3807    5.0986 H   0  0  0  0  0  0  0  0  0  0  0  0
    6.0280    3.5363    3.3814 H   0  0  0  0  0  0  0  0  0  0  0  0
    4.3864    4.5747    1.8139 H   0  0  0  0  0  0  0  0  0  0  0  0
    2.0148    5.0930    1.3602 H   0  0  0  0  0  0  0  0  0  0  0  0
  1  2  1  0
  2  3  1  0
  3  4  1  0
  4  5  1  0
  5  6  1  0
  6  7  1  0
  7  8  1  0
  8  9  1  0
  9 10  1  0
 10 11  1  0
  2 12  2  0
 12 13  1  0
 13 14  1  0
 14 15  1  0
 15 16  2  0
 16 17  1  0
 17 18  1  0
 18 19  2  3
 19 20  1  0
 20 21  2  0
 21 22  1  0
 22 23  2  0
 23 24  1  0
 23 25  1  0
 25 26  2  0
 18  1  1  0
 26 20  1  0
 11  6  1  0
 17 13  2  0
  1 27  1  0
  3 28  1  0
  4 29  1  0
  4 30  1  0
  5 31  1  0
  5 32  1  0
  6 33  1  0
  7 34  1  0
  7 35  1  0
  8 36  1  0
  8 37  1  0
 10 38  1  0
 10 39  1  0
 11 40  1  0
 11 41  1  0
 14 42  1  0
 21 43  1  0
 22 44  1  0
 24 45  1  0
 24 46  1  0
 24 47  1  0
 25 48  1  0
 26 49  1  0
M  CHG  1   6   1
M  END
>  <ScrubInfo>  (3) 
{"isomerGroup": 0, "isomerId": 2, "confId": 0, "nr_conformers:": 1, "nr_isomers:": 21}

$$$$
_i3
     RDKit          3D

 49 52  0  0  0  0  0  0  0  0999 V2000
   -0.3990    3.1037   -0.7837 N   0  0  0  0  0  0  0  0  0  0  0  0
   -1.2404    3.3893   -1.8504 C   0  0  0  0  0  0  0  0  0  0  0  0
   -2.4035    2.8879   -2.0622 N   0  0  0  0  0  0  0  0  0  0  0  0
   -2.9923    1.9147   -1.1633 C   0  0  0  0  0  0  0  0  0  0  0  0
   -4.3664    1.5482   -1.7509 C   0  0  0  0  0  0  0  0  0  0  0  0
   -5.1473    0.5346   -0.9484 N   0  0  0  0  0  4  0  0  0  0  0  0
   -5.5617    1.0117    0.4365 C   0  0  0  0  0  0  0  0  0  0  0  0
   -6.4566   -0.0496    1.0886 C   0  0  0  0  0  0  0  0  0  0  0  0
   -5.7860   -1.3147    1.1475 O   0  0  0  0  0  0  0  0  0  0  0  0
   -5.4555   -1.8071   -0.1572 C   0  0  0  0  0  0  0  0  0  0  0  0
   -4.5049   -0.8437   -0.8786 C   0  0  0  0  0  0  0  0  0  0  0  0
   -0.8820    4.2950   -2.8382 N   0  0  0  0  0  0  0  0  0  0  0  0
    0.2844    4.8874   -2.7998 C   0  0  0  0  0  0  0  0  0  0  0  0
    0.6722    5.8152   -3.7298 N   0  0  0  0  0  0  0  0  0  0  0  0
    1.8494    5.7818   -4.5176 C   0  0  0  0  0  0  0  0  0  0  0  0
    2.1260    6.8926   -5.3293 C   0  0  0  0  0  0  0  0  0  0  0  0
    3.2734    6.9395   -6.1269 C   0  0  0  0  0  0  0  0  0  0  0  0
    4.1719    5.8704   -6.1343 C   0  0  0  0  0  0  0  0  0  0  0  0
    5.4250    5.9331   -6.9562 C   0  0  0  0  0  0  0  0  0  0  0  0
    3.9163    4.7700   -5.3114 C   0  0  0  0  0  0  0  0  0  0  0  0
    2.7662    4.7259   -4.5141 C   0  0  0  0  0  0  0  0  0  0  0  0
    1.1795    4.6387   -1.6890 C   0  0  0  0  0  0  0  0  0  0  0  0
    2.3949    5.1464   -1.3469 N   0  0  0  0  0  0  0  0  0  0  0  0
    2.7666    4.5658   -0.2027 N   0  0  0  0  0  0  0  0  0  0  0  0
    1.7844    3.7204    0.1736 N   0  0  0  0  0  0  0  0  0  0  0  0
    0.7789    3.7477   -0.7346 C   0  0  0  0  0  0  0  0  0  0  0  0
   -0.7086    2.4566   -0.0757 H   0  0  0  0  0  0  0  0  0  0  0  0
   -3.1093    2.3445   -0.1633 H   0  0  0  0  0  0  0  0  0  0  0  0
   -2.3576    1.0252   -1.0981 H   0  0  0  0  0  0  0  0  0  0  0  0
   -4.2583    1.1298   -2.7588 H   0  0  0  0  0  0  0  0  0  0  0  0
   -5.0032    2.4371   -1.8324 H   0  0  0  0  0  0  0  0  0  0  0  0
   -6.0219    0.4108   -1.4766 H   0  0  0  0  0  0  0  0  0  0  0  0
   -4.6437    1.1485    1.0159 H   0  0  0  0  0  0  0  0  0  0  0  0
   -6.0885    1.9630    0.3178 H   0  0  0  0  0  0  0  0  0  0  0  0
   -7.4004   -0.1647    0.5429 H   0  0  0  0  0  0  0  0  0  0  0  0
   -6.6968    0.2485    2.1138 H   0  0  0  0  0  0  0  0  0  0  0  0
   -6.3771   -1.9612   -0.7306 H   0  0  0  0  0  0  0  0  0  0  0  0
   -4.9714   -2.7807   -0.0333 H   0  0  0  0  0  0  0  0  0  0  0  0
   -4.3038   -1.1703   -1.9029 H   0  0  0  0  0  0  0  0  0  0  0  0
   -3.5716   -0.7338   -0.3182 H   0  0  0  0  0  0  0  0  0  0  0  0
   -0.1064    6.0842   -4.3245 H   0  0  0  0  0  0  0  0  0  0  0  0
    1.4533    7.7474   -5.3354 H   0  0  0  0  0  0  0  0  0  0  0  0
    3.4635    7.8214   -6.7350 H   0  0  0  0  0  0  0  0  0  0  0  0
    5.7366    4.9312   -7.2700 H   0  0  0  0  0  0  0  0  0  0  0  0
    5.2668    6.5231   -7.8651 H   0  0  0  0  0  0  0  0  0  0  0  0
    6.2320    6.3889   -6.3743 H   0  0  0  0  0  0  0  0  0  0  0  0
    4.6153    3.9370   -5.2793 H   0  0  0  0  0  0  0  0  0  0  0  0
    2.6114    3.8435   -3.9015 H   0  0  0  0  0  0  0  0  0  0  0  0
    1.8963    3.1993    1.0351 H   0  0  0  0  0  0  0  0  0  0  0  0
  1  2  1  0
  2  3  2  3
  3  4  1  0
  4  5  1  0
  5  6  1  0
  6  7  1  0
  7  8  1  0
  8  9  1  0
  9 10  1  0
 10 11  1  0
  2 12  1  0
 12 13  2  0
 13 14  1  0
 14 15  1  0
 15 16  2  0
 16 17  1  0
 17 18  2  0
 18 19  1  0
 18 20  1  0
 20 21  2  0
 13 22  1  0
 22 23  1  0
 23 24  2  0
 24 25  1  0
 25 26  1  0
 26  1  1  0
 11  6  1  0
 21 15  1  0
 26 22  2  0
  1 27  1  0
  4 28  1  0
  4 29  1  0
  5 30  1  0
  5 31  1  0
  6 32  1  0
  7 33  1  0
  7 34  1  0
  8 35  1  0
  8 36  1  0
 10 37  1  0
 10 38  1  0
 11 39  1  0
 11 40  1  0
 14 41  1  0
 16 42  1  0
 17 43  1  0
 19 44  1  0
 19 45  1  0
 19 46  1  0
 20 47  1  0
 21 48  1  0
 25 49  1  0
M  CHG  1   6   1
M  END
>  <ScrubInfo>  (4) 
{"isomerGroup": 0, "isomerId": 3, "confId": 0, "nr_conformers:": 1, "nr_isomers:": 21}

$$$$
_i4
     RDKit          3D

 49 52  0  0  0  0  0  0  0  0999 V2000
   -3.2840    4.6273   -3.9306 N   0  0  0  0  0  0  0  0  0  0  0  0
   -3.5736    3.6134   -4.7883 C   0  0  0  0  0  0  0  0  0  0  0  0
   -3.8411    2.3927   -4.2348 N   0  0  0  0  0  0  0  0  0  0  0  0
   -4.9337    2.2452   -3.2774 C   0  0  0  0  0  0  0  0  0  0  0  0
   -5.0140    0.7938   -2.7631 C   0  0  0  0  0  0  0  0  0  0  0  0
   -6.2614    0.5319   -1.9360 N   0  0  0  0  0  4  0  0  0  0  0  0
   -6.4493   -0.9728   -1.6979 C   0  0  0  0  0  0  0  0  0  0  0  0
   -7.7133   -1.2121   -0.8662 C   0  0  0  0  0  0  0  0  0  0  0  0
   -7.6421   -0.5099    0.3779 O   0  0  0  0  0  0  0  0  0  0  0  0
   -7.5423    0.9036    0.1861 C   0  0  0  0  0  0  0  0  0  0  0  0
   -6.2706    1.2629   -0.5915 C   0  0  0  0  0  0  0  0  0  0  0  0
   -3.6201    3.7463   -6.0857 N   0  0  0  0  0  0  0  0  0  0  0  0
   -3.3667    5.0153   -6.6396 C   0  0  0  0  0  0  0  0  0  0  0  0
   -3.4042    5.1068   -8.0243 N   0  0  0  0  0  0  0  0  0  0  0  0
   -4.1153    6.0312   -8.8223 C   0  0  0  0  0  0  0  0  0  0  0  0
   -4.9817    7.0056   -8.3174 C   0  0  0  0  0  0  0  0  0  0  0  0
   -5.6285    7.9081   -9.1709 C   0  0  0  0  0  0  0  0  0  0  0  0
   -5.4239    7.8546  -10.5523 C   0  0  0  0  0  0  0  0  0  0  0  0
   -6.0843    8.8486  -11.4605 C   0  0  0  0  0  0  0  0  0  0  0  0
   -4.5405    6.9020  -11.0643 C   0  0  0  0  0  0  0  0  0  0  0  0
   -3.8969    6.0029  -10.2080 C   0  0  0  0  0  0  0  0  0  0  0  0
   -3.0221    6.0628   -5.8561 C   0  0  0  0  0  0  0  0  0  0  0  0
   -2.6495    7.3494   -6.0609 N   0  0  0  0  0  0  0  0  0  0  0  0
   -2.3901    7.8811   -4.9374 N   0  0  0  0  0  0  0  0  0  0  0  0
   -2.5765    6.9415   -3.8545 N   0  0  0  0  0  0  0  0  0  0  0  0
   -2.9647    5.8493   -4.4279 C   0  0  0  0  0  0  0  0  0  0  0  0
   -2.9974    4.4330   -2.9851 H   0  0  0  0  0  0  0  0  0  0  0  0
   -3.9461    1.7526   -5.0259 H   0  0  0  0  0  0  0  0  0  0  0  0
   -4.7793    2.9242   -2.4325 H   0  0  0  0  0  0  0  0  0  0  0  0
   -5.8780    2.5197   -3.7620 H   0  0  0  0  0  0  0  0  0  0  0  0
   -4.1439    0.5371   -2.1481 H   0  0  0  0  0  0  0  0  0  0  0  0
   -5.0552    0.1043   -3.6143 H   0  0  0  0  0  0  0  0  0  0  0  0
   -7.0816    0.8474   -2.4728 H   0  0  0  0  0  0  0  0  0  0  0  0
   -5.5546   -1.3186   -1.1690 H   0  0  0  0  0  0  0  0  0  0  0  0
   -6.5246   -1.4530   -2.6781 H   0  0  0  0  0  0  0  0  0  0  0  0
   -7.8118   -2.2788   -0.6423 H   0  0  0  0  0  0  0  0  0  0  0  0
   -8.6124   -0.8994   -1.4099 H   0  0  0  0  0  0  0  0  0  0  0  0
   -8.4388    1.2645   -0.3314 H   0  0  0  0  0  0  0  0  0  0  0  0
   -7.5153    1.3733    1.1742 H   0  0  0  0  0  0  0  0  0  0  0  0
   -6.2332    2.3360   -0.7943 H   0  0  0  0  0  0  0  0  0  0  0  0
   -5.3722    0.9415   -0.0541 H   0  0  0  0  0  0  0  0  0  0  0  0
   -3.4393    4.1772   -8.4334 H   0  0  0  0  0  0  0  0  0  0  0  0
   -5.1856    7.0823   -7.2547 H   0  0  0  0  0  0  0  0  0  0  0  0
   -6.2906    8.6586   -8.7445 H   0  0  0  0  0  0  0  0  0  0  0  0
   -7.0586    9.1529  -11.0637 H   0  0  0  0  0  0  0  0  0  0  0  0
   -5.4526    9.7358  -11.5670 H   0  0  0  0  0  0  0  0  0  0  0  0
   -6.2583    8.4165  -12.4516 H   0  0  0  0  0  0  0  0  0  0  0  0
   -4.3374    6.8579  -12.1320 H   0  0  0  0  0  0  0  0  0  0  0  0
   -3.2015    5.2840  -10.6352 H   0  0  0  0  0  0  0  0  0  0  0  0
  1  2  1  0
  2  3  1  0
  3  4  1  0
  4  5  1  0
  5  6  1  0
  6  7  1  0
  7  8  1  0
  8  9  1  0
  9 10  1  0
 10 11  1  0
  2 12  2  0
 12 13  1  0
 13 14  1  0
 14 15  1  0
 15 16  2  0
 16 17  1  0
 17 18  2  0
 18 19  1  0
 18 20  1  0
 20 21  2  0
 13 22  2  0
 22 23  1  0
 23 24  2  0
 24 25  1  0
 25 26  2  0
 26  1  1  0
 11  6  1  0
 21 15  1  0
 26 22  1  0
  1 27  1  0
  3 28  1  0
  4 29  1  0
  4 30  1  0
  5 31  1  0
  5 32  1  0
  6 33  1  0
  7 34  1  0
  7 35  1  0
  8 36  1  0
  8 37  1  0
 10 38  1  0
 10 39  1  0
 11 40  1  0
 11 41  1  0
 14 42  1  0
 16 43  1  0
 17 44  1  0
 19 45  1  0
 19 46  1  0
 19 47  1  0
 20 48  1  0
 21 49  1  0
M  CHG  1   6   1
M  END
>  <ScrubInfo>  (5) 
{"isomerGroup": 0, "isomerId": 4, "confId": 0, "nr_conformers:": 1, "nr_isomers:": 21}

$$$$
_i5
     RDKit          3D

 49 52  0  0  0  0  0  0  0  0999 V2000
    2.7169   -1.8229    2.4164 N   0  0  0  0  0  0  0  0  0  0  0  0
    2.5850   -2.7719    3.3599 N   0  0  0  0  0  0  0  0  0  0  0  0
    1.3404   -2.7004    3.8252 N   0  0  0  0  0  0  0  0  0  0  0  0
    0.7000   -1.7007    3.1534 C   0  0  0  0  0  0  0  0  0  0  0  0
   -0.5650   -1.2851    3.3327 N   0  0  0  0  0  0  0  0  0  0  0  0
   -0.9070   -0.2639    2.5572 C   0  0  0  0  0  0  0  0  0  0  0  0
   -2.2313    0.1650    2.7020 N   0  0  0  0  0  0  0  0  0  0  0  0
   -2.3873    1.6260    2.7244 C   0  0  0  0  0  0  0  0  0  0  0  0
   -2.4869    2.1873    1.2881 C   0  0  0  0  0  0  0  0  0  0  0  0
   -3.1721    1.1662    0.4045 N   0  0  0  0  0  4  0  0  0  0  0  0
   -4.6854    1.1592    0.4896 C   0  0  0  0  0  0  0  0  0  0  0  0
   -5.2903    0.3972   -0.6993 C   0  0  0  0  0  0  0  0  0  0  0  0
   -4.4212   -0.6578   -1.1137 O   0  0  0  0  0  0  0  0  0  0  0  0
   -3.2012   -0.1649   -1.6887 C   0  0  0  0  0  0  0  0  0  0  0  0
   -2.6774    1.1159   -1.0150 C   0  0  0  0  0  0  0  0  0  0  0  0
   -0.1311    0.3375    1.6316 N   0  0  0  0  0  0  0  0  0  0  0  0
    1.1336   -0.1081    1.4235 C   0  0  0  0  0  0  0  0  0  0  0  0
    1.9325    0.5401    0.4838 N   0  0  0  0  0  0  0  0  0  0  0  0
    2.8439    0.0055   -0.4461 C   0  0  0  0  0  0  0  0  0  0  0  0
    3.8191    0.8522   -0.9879 C   0  0  0  0  0  0  0  0  0  0  0  0
    4.7712    0.3693   -1.8904 C   0  0  0  0  0  0  0  0  0  0  0  0
    4.7594   -0.9723   -2.2808 C   0  0  0  0  0  0  0  0  0  0  0  0
    5.8017   -1.5013   -3.2221 C   0  0  0  0  0  0  0  0  0  0  0  0
    3.7952   -1.8254   -1.7370 C   0  0  0  0  0  0  0  0  0  0  0  0
    2.8449   -1.3394   -0.8328 C   0  0  0  0  0  0  0  0  0  0  0  0
    1.5526   -1.1422    2.2304 C   0  0  0  0  0  0  0  0  0  0  0  0
    3.6123   -1.7072    1.9527 H   0  0  0  0  0  0  0  0  0  0  0  0
   -2.5136   -0.2825    3.5801 H   0  0  0  0  0  0  0  0  0  0  0  0
   -3.3303    1.8439    3.2400 H   0  0  0  0  0  0  0  0  0  0  0  0
   -1.5956    2.1277    3.2942 H   0  0  0  0  0  0  0  0  0  0  0  0
   -3.0454    3.1276    1.2428 H   0  0  0  0  0  0  0  0  0  0  0  0
   -1.4879    2.3612    0.8768 H   0  0  0  0  0  0  0  0  0  0  0  0
   -2.8817    0.2595    0.8243 H   0  0  0  0  0  0  0  0  0  0  0  0
   -5.0441    2.1930    0.5135 H   0  0  0  0  0  0  0  0  0  0  0  0
   -4.9344    0.6651    1.4342 H   0  0  0  0  0  0  0  0  0  0  0  0
   -5.4748    1.0691   -1.5463 H   0  0  0  0  0  0  0  0  0  0  0  0
   -6.2534   -0.0365   -0.4123 H   0  0  0  0  0  0  0  0  0  0  0  0
   -2.4607   -0.9657   -1.5894 H   0  0  0  0  0  0  0  0  0  0  0  0
   -3.3545    0.0048   -2.7599 H   0  0  0  0  0  0  0  0  0  0  0  0
   -1.5829    1.1353   -1.0161 H   0  0  0  0  0  0  0  0  0  0  0  0
   -3.0540    2.0157   -1.5136 H   0  0  0  0  0  0  0  0  0  0  0  0
    1.5027    1.3955    0.1517 H   0  0  0  0  0  0  0  0  0  0  0  0
    3.8641    1.8988   -0.6946 H   0  0  0  0  0  0  0  0  0  0  0  0
    5.5266    1.0476   -2.2830 H   0  0  0  0  0  0  0  0  0  0  0  0
    6.1230   -0.7253   -3.9249 H   0  0  0  0  0  0  0  0  0  0  0  0
    6.6719   -1.8508   -2.6582 H   0  0  0  0  0  0  0  0  0  0  0  0
    5.4063   -2.3326   -3.8152 H   0  0  0  0  0  0  0  0  0  0  0  0
    3.7736   -2.8764   -2.0207 H   0  0  0  0  0  0  0  0  0  0  0  0
    2.0923   -2.0327   -0.4664 H   0  0  0  0  0  0  0  0  0  0  0  0
  1  2  1  0
  2  3  2  0
  3  4  1  0
  4  5  2  0
  5  6  1  0
  6  7  1  0
  7  8  1  0
  8  9  1  0
  9 10  1  0
 10 11  1  0
 11 12  1  0
 12 13  1  0
 13 14  1  0
 14 15  1  0
  6 16  2  0
 16 17  1  0
 17 18  1  0
 18 19  1  0
 19 20  2  0
 20 21  1  0
 21 22  2  0
 22 23  1  0
 22 24  1  0
 24 25  2  0
 17 26  2  0
 26  1  1  0
 26  4  1  0
 15 10  1  0
 25 19  1  0
  1 27  1  0
  7 28  1  0
  8 29  1  0
  8 30  1  0
  9 31  1  0
  9 32  1  0
 10 33  1  0
 11 34  1  0
 11 35  1  0
 12 36  1  0
 12 37  1  0
 14 38  1  0
 14 39  1  0
 15 40  1  0
 15 41  1  0
 18 42  1  0
 20 43  1  0
 21 44  1  0
 23 45  1  0
 23 46  1  0
 23 47  1  0
 24 48  1  0
 25 49  1  0
M  CHG  1  10   1
M  END
>  <ScrubInfo>  (6) 
{"isomerGroup": 0, "isomerId": 5, "confId": 0, "nr_conformers:": 1, "nr_isomers:": 21}

$$$$
_i6
     RDKit          3D

 49 52  0  0  0  0  0  0  0  0999 V2000
    1.4924   -4.5586    1.6079 N   0  0  0  0  0  0  0  0  0  0  0  0
    2.0751   -3.3248    1.6204 C   0  0  0  0  0  0  0  0  0  0  0  0
    1.2016   -2.2930    1.8290 N   0  0  0  0  0  0  0  0  0  0  0  0
    1.6470   -0.9121    1.6593 C   0  0  0  0  0  0  0  0  0  0  0  0
    2.5712   -0.4631    2.8153 C   0  0  0  0  0  0  0  0  0  0  0  0
    3.5738    0.6123    2.4365 N   0  0  0  0  0  4  0  0  0  0  0  0
    4.7030    0.1332    1.5124 C   0  0  0  0  0  0  0  0  0  0  0  0
    4.6265    0.8293    0.1513 C   0  0  0  0  0  0  0  0  0  0  0  0
    4.6866    2.2579    0.2437 O   0  0  0  0  0  0  0  0  0  0  0  0
    4.0575    2.8201    1.3999 C   0  0  0  0  0  0  0  0  0  0  0  0
    2.9604    1.9284    1.9859 C   0  0  0  0  0  0  0  0  0  0  0  0
    3.3519   -3.1196    1.4791 N   0  0  0  0  0  0  0  0  0  0  0  0
    4.0952   -4.2473    1.2705 C   0  0  0  0  0  0  0  0  0  0  0  0
    5.3736   -4.3072    1.0839 N   0  0  0  0  0  0  0  0  0  0  0  0
    5.6356   -5.7241    0.9011 N   0  0  0  0  0  0  0  0  0  0  0  0
    4.5666   -6.4118    0.9794 N   0  0  0  0  0  0  0  0  0  0  0  0
    3.5292   -5.5721    1.2176 C   0  0  0  0  0  0  0  0  0  0  0  0
    2.2098   -5.7322    1.4061 C   0  0  0  0  0  0  0  0  0  0  0  0
    1.6053   -6.9736    1.3389 N   0  0  0  0  0  0  0  0  0  0  0  0
    0.4650   -7.4337    2.0260 C   0  0  0  0  0  0  0  0  0  0  0  0
   -0.0481   -6.8186    3.1734 C   0  0  0  0  0  0  0  0  0  0  0  0
   -1.2087   -7.2993    3.7905 C   0  0  0  0  0  0  0  0  0  0  0  0
   -1.8925   -8.3969    3.2604 C   0  0  0  0  0  0  0  0  0  0  0  0
   -3.1150   -8.9372    3.9418 C   0  0  0  0  0  0  0  0  0  0  0  0
   -1.3805   -9.0240    2.1217 C   0  0  0  0  0  0  0  0  0  0  0  0
   -0.2186   -8.5428    1.5106 C   0  0  0  0  0  0  0  0  0  0  0  0
    0.4897   -4.6836    1.6468 H   0  0  0  0  0  0  0  0  0  0  0  0
    0.2644   -2.4648    1.4739 H   0  0  0  0  0  0  0  0  0  0  0  0
    0.7646   -0.2622    1.6404 H   0  0  0  0  0  0  0  0  0  0  0  0
    2.1329   -0.8102    0.6838 H   0  0  0  0  0  0  0  0  0  0  0  0
    3.1568   -1.2814    3.2458 H   0  0  0  0  0  0  0  0  0  0  0  0
    1.9679   -0.0452    3.6301 H   0  0  0  0  0  0  0  0  0  0  0  0
    4.0599    0.8219    3.3189 H   0  0  0  0  0  0  0  0  0  0  0  0
    5.6311    0.4103    2.0247 H   0  0  0  0  0  0  0  0  0  0  0  0
    4.6573   -0.9520    1.4260 H   0  0  0  0  0  0  0  0  0  0  0  0
    5.4619    0.5075   -0.4786 H   0  0  0  0  0  0  0  0  0  0  0  0
    3.7050    0.5618   -0.3765 H   0  0  0  0  0  0  0  0  0  0  0  0
    4.8363    3.0116    2.1468 H   0  0  0  0  0  0  0  0  0  0  0  0
    3.6396    3.7888    1.1085 H   0  0  0  0  0  0  0  0  0  0  0  0
    2.2038    1.6988    1.2299 H   0  0  0  0  0  0  0  0  0  0  0  0
    2.4911    2.3815    2.8640 H   0  0  0  0  0  0  0  0  0  0  0  0
    2.2261   -7.7343    1.0615 H   0  0  0  0  0  0  0  0  0  0  0  0
    0.4707   -5.9865    3.6400 H   0  0  0  0  0  0  0  0  0  0  0  0
   -1.5690   -6.8181    4.6974 H   0  0  0  0  0  0  0  0  0  0  0  0
   -3.6674   -8.1365    4.4447 H   0  0  0  0  0  0  0  0  0  0  0  0
   -3.7959   -9.3952    3.2166 H   0  0  0  0  0  0  0  0  0  0  0  0
   -2.8286   -9.6894    4.6831 H   0  0  0  0  0  0  0  0  0  0  0  0
   -1.8825   -9.8925    1.6998 H   0  0  0  0  0  0  0  0  0  0  0  0
    0.1443   -9.0427    0.6151 H   0  0  0  0  0  0  0  0  0  0  0  0
  1  2  1  0
  2  3  1  0
  3  4  1  0
  4  5  1  0
  5  6  1  0
  6  7  1  0
  7  8  1  0
  8  9  1  0
  9 10  1  0
 10 11  1  0
  2 12  2  0
 12 13  1  0
 13 14  2  0
 14 15  1  0
 15 16  2  0
 16 17  1  0
 17 18  2  0
 18 19  1  0
 19 20  1  0
 20 21  2  0
 21 22  1  0
 22 23  2  0
 23 24  1  0
 23 25  1  0
 25 26  2  0
 18  1  1  0
 26 20  1  0
 11  6  1  0
 17 13  1  0
  1 27  1  0
  3 28  1  0
  4 29  1  0
  4 30  1  0
  5 31  1  0
  5 32  1  0
  6 33  1  0
  7 34  1  0
  7 35  1  0
  8 36  1  0
  8 37  1  0
 10 38  1  0
 10 39  1  0
 11 40  1  0
 11 41  1  0
 19 42  1  0
 21 43  1  0
 22 44  1  0
 24 45  1  0
 24 46  1  0
 24 47  1  0
 25 48  1  0
 26 49  1  0
M  CHG  1   6   1
M  END
>  <ScrubInfo>  (7) 
{"isomerGroup": 0, "isomerId": 6, "confId": 0, "nr_conformers:": 1, "nr_isomers:": 21}

$$$$
_i7
     RDKit          3D

 49 52  0  0  0  0  0  0  0  0999 V2000
   -0.8508   -3.2838   -0.5788 N   0  0  0  0  0  0  0  0  0  0  0  0
   -1.4244   -2.6275   -1.6401 C   0  0  0  0  0  0  0  0  0  0  0  0
   -2.1639   -1.5081   -1.3811 N   0  0  0  0  0  0  0  0  0  0  0  0
   -1.7021   -0.4464   -0.4832 C   0  0  0  0  0  0  0  0  0  0  0  0
   -2.7924    0.6443   -0.4079 C   0  0  0  0  0  0  0  0  0  0  0  0
   -4.1606   -0.0179   -0.3044 N   0  0  0  0  0  4  0  0  0  0  0  0
   -4.5290   -0.4326    1.1130 C   0  0  0  0  0  0  0  0  0  0  0  0
   -5.8974   -1.1227    1.1075 C   0  0  0  0  0  0  0  0  0  0  0  0
   -6.8967   -0.2635    0.5496 O   0  0  0  0  0  0  0  0  0  0  0  0
   -6.6055    0.0724   -0.8116 C   0  0  0  0  0  0  0  0  0  0  0  0
   -5.2732    0.8230   -0.9168 C   0  0  0  0  0  0  0  0  0  0  0  0
   -1.3412   -2.9737   -2.8943 N   0  0  0  0  0  0  0  0  0  0  0  0
   -0.6067   -4.1046   -3.2627 C   0  0  0  0  0  0  0  0  0  0  0  0
   -0.5598   -4.3670   -4.5288 N   0  0  0  0  0  0  0  0  0  0  0  0
    0.1495   -5.4749   -5.0044 C   0  0  0  0  0  0  0  0  0  0  0  0
    1.4905   -5.3497   -5.3735 C   0  0  0  0  0  0  0  0  0  0  0  0
    2.1919   -6.4472   -5.8796 C   0  0  0  0  0  0  0  0  0  0  0  0
    1.5512   -7.6802   -6.0479 C   0  0  0  0  0  0  0  0  0  0  0  0
    2.3121   -8.8689   -6.5561 C   0  0  0  0  0  0  0  0  0  0  0  0
    0.2045   -7.8017   -5.6865 C   0  0  0  0  0  0  0  0  0  0  0  0
   -0.4935   -6.7019   -5.1808 C   0  0  0  0  0  0  0  0  0  0  0  0
    0.0098   -4.8434   -2.1718 C   0  0  0  0  0  0  0  0  0  0  0  0
    0.7588   -5.9831   -2.1406 N   0  0  0  0  0  0  0  0  0  0  0  0
    1.0600   -6.2424   -0.8664 N   0  0  0  0  0  0  0  0  0  0  0  0
    0.5067   -5.2785   -0.1050 N   0  0  0  0  0  0  0  0  0  0  0  0
   -0.1523   -4.3906   -0.8888 C   0  0  0  0  0  0  0  0  0  0  0  0
   -1.0852   -3.0267    0.3686 H   0  0  0  0  0  0  0  0  0  0  0  0
   -2.3629   -1.1400   -2.3189 H   0  0  0  0  0  0  0  0  0  0  0  0
   -0.7632   -0.0147   -0.8458 H   0  0  0  0  0  0  0  0  0  0  0  0
   -1.5278   -0.8498    0.5196 H   0  0  0  0  0  0  0  0  0  0  0  0
   -2.6606    1.3232    0.4400 H   0  0  0  0  0  0  0  0  0  0  0  0
   -2.7904    1.2202   -1.3399 H   0  0  0  0  0  0  0  0  0  0  0  0
   -4.0797   -0.8888   -0.8609 H   0  0  0  0  0  0  0  0  0  0  0  0
   -4.5524    0.4845    1.7112 H   0  0  0  0  0  0  0  0  0  0  0  0
   -3.7487   -1.1055    1.4789 H   0  0  0  0  0  0  0  0  0  0  0  0
   -6.1958   -1.3592    2.1334 H   0  0  0  0  0  0  0  0  0  0  0  0
   -5.8673   -2.0616    0.5423 H   0  0  0  0  0  0  0  0  0  0  0  0
   -7.4174    0.7072   -1.1796 H   0  0  0  0  0  0  0  0  0  0  0  0
   -6.5948   -0.8419   -1.4165 H   0  0  0  0  0  0  0  0  0  0  0  0
   -5.0094    1.0120   -1.9617 H   0  0  0  0  0  0  0  0  0  0  0  0
   -5.2994    1.7616   -0.3531 H   0  0  0  0  0  0  0  0  0  0  0  0
    1.9942   -4.3940   -5.2646 H   0  0  0  0  0  0  0  0  0  0  0  0
    3.2403   -6.3321   -6.1444 H   0  0  0  0  0  0  0  0  0  0  0  0
    3.1047   -8.5598   -7.2457 H   0  0  0  0  0  0  0  0  0  0  0  0
    1.6525   -9.5497   -7.1044 H   0  0  0  0  0  0  0  0  0  0  0  0
    2.7627   -9.4103   -5.7187 H   0  0  0  0  0  0  0  0  0  0  0  0
   -0.3110   -8.7526   -5.7993 H   0  0  0  0  0  0  0  0  0  0  0  0
   -1.5426   -6.8046   -4.9207 H   0  0  0  0  0  0  0  0  0  0  0  0
    0.6393   -5.3179    0.8984 H   0  0  0  0  0  0  0  0  0  0  0  0
  1  2  1  0
  2  3  1  0
  3  4  1  0
  4  5  1  0
  5  6  1  0
  6  7  1  0
  7  8  1  0
  8  9  1  0
  9 10  1  0
 10 11  1  0
  2 12  2  0
 12 13  1  0
 13 14  2  3
 14 15  1  0
 15 16  2  0
 16 17  1  0
 17 18  2  0
 18 19  1  0
 18 20  1  0
 20 21  2  0
 13 22  1  0
 22 23  1  0
 23 24  2  0
 24 25  1  0
 25 26  1  0
 26  1  1  0
 11  6  1  0
 21 15  1  0
 26 22  2  0
  1 27  1  0
  3 28  1  0
  4 29  1  0
  4 30  1  0
  5 31  1  0
  5 32  1  0
  6 33  1  0
  7 34  1  0
  7 35  1  0
  8 36  1  0
  8 37  1  0
 10 38  1  0
 10 39  1  0
 11 40  1  0
 11 41  1  0
 16 42  1  0
 17 43  1  0
 19 44  1  0
 19 45  1  0
 19 46  1  0
 20 47  1  0
 21 48  1  0
 25 49  1  0
M  CHG  1   6   1
M  END
>  <ScrubInfo>  (8) 
{"isomerGroup": 0, "isomerId": 7, "confId": 0, "nr_conformers:": 1, "nr_isomers:": 21}

$$$$
_i8
     RDKit          3D

 49 52  0  0  0  0  0  0  0  0999 V2000
    0.7463    2.7954    4.8566 N   0  0  0  0  0  0  0  0  0  0  0  0
   -0.1375    3.3033    5.7938 N   0  0  0  0  0  0  0  0  0  0  0  0
   -1.2513    2.6664    5.6166 C   0  0  0  0  0  0  0  0  0  0  0  0
   -2.5577    2.6994    6.3051 C   0  0  0  0  0  0  0  0  0  0  0  0
   -2.9343    3.5235    7.2293 N   0  0  0  0  0  0  0  0  0  0  0  0
   -2.0713    4.5222    7.6908 C   0  0  0  0  0  0  0  0  0  0  0  0
   -1.2395    4.2858    8.7870 C   0  0  0  0  0  0  0  0  0  0  0  0
   -0.4006    5.2937    9.2700 C   0  0  0  0  0  0  0  0  0  0  0  0
   -0.3889    6.5558    8.6648 C   0  0  0  0  0  0  0  0  0  0  0  0
    0.4827    7.6499    9.2072 C   0  0  0  0  0  0  0  0  0  0  0  0
   -1.2528    6.8031    7.5917 C   0  0  0  0  0  0  0  0  0  0  0  0
   -2.0897    5.7925    7.1110 C   0  0  0  0  0  0  0  0  0  0  0  0
   -3.4903    1.7658    5.9175 N   0  0  0  0  0  0  0  0  0  0  0  0
   -3.2393    0.9601    4.9342 C   0  0  0  0  0  0  0  0  0  0  0  0
   -4.2284    0.0734    4.6211 N   0  0  0  0  0  0  0  0  0  0  0  0
   -3.9898   -1.2257    4.0117 C   0  0  0  0  0  0  0  0  0  0  0  0
   -4.1862   -1.1805    2.4814 C   0  0  0  0  0  0  0  0  0  0  0  0
   -3.4135   -0.0333    1.8575 N   0  0  0  0  0  4  0  0  0  0  0  0
   -2.4978   -0.4501    0.7254 C   0  0  0  0  0  0  0  0  0  0  0  0
   -1.7249    0.7718    0.2155 C   0  0  0  0  0  0  0  0  0  0  0  0
   -2.6181    1.8113   -0.1987 O   0  0  0  0  0  0  0  0  0  0  0  0
   -3.4448    2.2624    0.8816 C   0  0  0  0  0  0  0  0  0  0  0  0
   -4.3111    1.1194    1.4215 C   0  0  0  0  0  0  0  0  0  0  0  0
   -2.0976    0.9400    4.1579 N   0  0  0  0  0  0  0  0  0  0  0  0
   -1.1374    1.7409    4.4755 C   0  0  0  0  0  0  0  0  0  0  0  0
    0.1083    1.9311    3.9310 N   0  0  0  0  0  0  0  0  0  0  0  0
    1.3849    3.4978    4.4647 H   0  0  0  0  0  0  0  0  0  0  0  0
   -1.2482    3.3155    9.2745 H   0  0  0  0  0  0  0  0  0  0  0  0
    0.2377    5.0890   10.1265 H   0  0  0  0  0  0  0  0  0  0  0  0
    1.4022    7.2393    9.6374 H   0  0  0  0  0  0  0  0  0  0  0  0
    0.7777    8.3437    8.4130 H   0  0  0  0  0  0  0  0  0  0  0  0
   -0.0536    8.2061    9.9822 H   0  0  0  0  0  0  0  0  0  0  0  0
   -1.2865    7.7873    7.1300 H   0  0  0  0  0  0  0  0  0  0  0  0
   -2.7679    6.0032    6.2897 H   0  0  0  0  0  0  0  0  0  0  0  0
   -4.9354    0.0712    5.3583 H   0  0  0  0  0  0  0  0  0  0  0  0
   -2.9825   -1.5864    4.2520 H   0  0  0  0  0  0  0  0  0  0  0  0
   -4.6921   -1.9537    4.4328 H   0  0  0  0  0  0  0  0  0  0  0  0
   -5.2435   -1.0474    2.2273 H   0  0  0  0  0  0  0  0  0  0  0  0
   -3.8389   -2.1169    2.0318 H   0  0  0  0  0  0  0  0  0  0  0  0
   -2.8123    0.3518    2.6120 H   0  0  0  0  0  0  0  0  0  0  0  0
   -3.1374   -0.8709   -0.0578 H   0  0  0  0  0  0  0  0  0  0  0  0
   -1.8171   -1.2136    1.1139 H   0  0  0  0  0  0  0  0  0  0  0  0
   -1.1182    0.4894   -0.6504 H   0  0  0  0  0  0  0  0  0  0  0  0
   -1.0477    1.1621    0.9841 H   0  0  0  0  0  0  0  0  0  0  0  0
   -2.8119    2.6895    1.6681 H   0  0  0  0  0  0  0  0  0  0  0  0
   -4.0858    3.0621    0.4980 H   0  0  0  0  0  0  0  0  0  0  0  0
   -4.8981    1.4397    2.2865 H   0  0  0  0  0  0  0  0  0  0  0  0
   -4.9696    0.7234    0.6408 H   0  0  0  0  0  0  0  0  0  0  0  0
    0.6400    1.0744    3.7843 H   0  0  0  0  0  0  0  0  0  0  0  0
  1  2  1  0
  2  3  2  0
  3  4  1  0
  4  5  2  3
  5  6  1  0
  6  7  2  0
  7  8  1  0
  8  9  2  0
  9 10  1  0
  9 11  1  0
 11 12  2  0
  4 13  1  0
 13 14  2  0
 14 15  1  0
 15 16  1  0
 16 17  1  0
 17 18  1  0
 18 19  1  0
 19 20  1  0
 20 21  1  0
 21 22  1  0
 22 23  1  0
 14 24  1  0
 24 25  2  0
 25 26  1  0
 26  1  1  0
 25  3  1  0
 12  6  1  0
 23 18  1  0
  1 27  1  0
  7 28  1  0
  8 29  1  0
 10 30  1  0
 10 31  1  0
 10 32  1  0
 11 33  1  0
 12 34  1  0
 15 35  1  0
 16 36  1  0
 16 37  1  0
 17 38  1  0
 17 39  1  0
 18 40  1  0
 19 41  1  0
 19 42  1  0
 20 43  1  0
 20 44  1  0
 22 45  1  0
 22 46  1  0
 23 47  1  0
 23 48  1  0
 26 49  1  0
M  CHG  1  18   1
M  END
>  <ScrubInfo>  (9) 
{"isomerGroup": 0, "isomerId": 8, "confId": 0, "nr_conformers:": 1, "nr_isomers:": 21}

$$$$
_i9
     RDKit          3D

 49 52  0  0  0  0  0  0  0  0999 V2000
    0.2286   -2.4356   -1.3978 N   0  0  0  0  0  0  0  0  0  0  0  0
   -0.9520   -1.8477   -1.1441 N   0  0  0  0  0  0  0  0  0  0  0  0
   -0.5484   -0.6552   -0.7045 C   0  0  0  0  0  0  0  0  0  0  0  0
   -1.3850    0.3393   -0.3303 N   0  0  0  0  0  0  0  0  0  0  0  0
   -0.7082    1.4481    0.0254 C   0  0  0  0  0  0  0  0  0  0  0  0
   -1.4552    2.5434    0.4447 N   0  0  0  0  0  0  0  0  0  0  0  0
   -2.5894    2.9091   -0.4058 C   0  0  0  0  0  0  0  0  0  0  0  0
   -3.9236    2.4164    0.1975 C   0  0  0  0  0  0  0  0  0  0  0  0
   -4.0257    0.9051    0.1958 N   0  0  0  0  0  4  0  0  0  0  0  0
   -4.7769    0.3666    1.3998 C   0  0  0  0  0  0  0  0  0  0  0  0
   -4.8300   -1.1631    1.3412 C   0  0  0  0  0  0  0  0  0  0  0  0
   -5.4407   -1.6028    0.1227 O   0  0  0  0  0  0  0  0  0  0  0  0
   -4.6745   -1.1900   -1.0156 C   0  0  0  0  0  0  0  0  0  0  0  0
   -4.5940    0.3385   -1.0968 C   0  0  0  0  0  0  0  0  0  0  0  0
    0.6320    1.6309    0.0672 N   0  0  0  0  0  0  0  0  0  0  0  0
    1.5133    0.6302   -0.2658 C   0  0  0  0  0  0  0  0  0  0  0  0
    2.8722    0.9439   -0.2112 N   0  0  0  0  0  0  0  0  0  0  0  0
    4.0359    0.1762   -0.0533 C   0  0  0  0  0  0  0  0  0  0  0  0
    5.2646    0.7552   -0.4062 C   0  0  0  0  0  0  0  0  0  0  0  0
    6.4629    0.0402   -0.3082 C   0  0  0  0  0  0  0  0  0  0  0  0
    6.4593   -1.2848    0.1311 C   0  0  0  0  0  0  0  0  0  0  0  0
    7.7433   -2.0470    0.2702 C   0  0  0  0  0  0  0  0  0  0  0  0
    5.2424   -1.8688    0.4909 C   0  0  0  0  0  0  0  0  0  0  0  0
    4.0459   -1.1477    0.3889 C   0  0  0  0  0  0  0  0  0  0  0  0
    0.8895   -0.5659   -0.6938 C   0  0  0  0  0  0  0  0  0  0  0  0
    1.3511   -1.7446   -1.1610 N   0  0  0  0  0  0  0  0  0  0  0  0
    0.2747   -3.3861   -1.7642 H   0  0  0  0  0  0  0  0  0  0  0  0
   -0.7631    3.2909    0.5373 H   0  0  0  0  0  0  0  0  0  0  0  0
   -2.4657    2.5647   -1.4400 H   0  0  0  0  0  0  0  0  0  0  0  0
   -2.6318    4.0040   -0.4482 H   0  0  0  0  0  0  0  0  0  0  0  0
   -3.9951    2.7484    1.2396 H   0  0  0  0  0  0  0  0  0  0  0  0
   -4.7831    2.8111   -0.3543 H   0  0  0  0  0  0  0  0  0  0  0  0
   -3.0534    0.5456    0.2642 H   0  0  0  0  0  0  0  0  0  0  0  0
   -5.7827    0.7985    1.3581 H   0  0  0  0  0  0  0  0  0  0  0  0
   -4.2525    0.7068    2.2979 H   0  0  0  0  0  0  0  0  0  0  0  0
   -5.4331   -1.5432    2.1716 H   0  0  0  0  0  0  0  0  0  0  0  0
   -3.8285   -1.6009    1.4273 H   0  0  0  0  0  0  0  0  0  0  0  0
   -5.1715   -1.5799   -1.9094 H   0  0  0  0  0  0  0  0  0  0  0  0
   -3.6811   -1.6443   -0.9644 H   0  0  0  0  0  0  0  0  0  0  0  0
   -3.9469    0.6611   -1.9173 H   0  0  0  0  0  0  0  0  0  0  0  0
   -5.5939    0.7709   -1.2120 H   0  0  0  0  0  0  0  0  0  0  0  0
    3.0086    1.9264   -0.0018 H   0  0  0  0  0  0  0  0  0  0  0  0
    5.3023    1.7781   -0.7735 H   0  0  0  0  0  0  0  0  0  0  0  0
    7.3967    0.5252   -0.5843 H   0  0  0  0  0  0  0  0  0  0  0  0
    7.5805   -3.1183    0.1117 H   0  0  0  0  0  0  0  0  0  0  0  0
    8.1613   -1.8966    1.2702 H   0  0  0  0  0  0  0  0  0  0  0  0
    8.4762   -1.7167   -0.4735 H   0  0  0  0  0  0  0  0  0  0  0  0
    5.2134   -2.8935    0.8550 H   0  0  0  0  0  0  0  0  0  0  0  0
    3.1313   -1.6423    0.6967 H   0  0  0  0  0  0  0  0  0  0  0  0
  1  2  1  0
  2  3  2  0
  3  4  1  0
  4  5  2  0
  5  6  1  0
  6  7  1  0
  7  8  1  0
  8  9  1  0
  9 10  1  0
 10 11  1  0
 11 12  1  0
 12 13  1  0
 13 14  1  0
  5 15  1  0
 15 16  2  0
 16 17  1  0
 17 18  1  0
 18 19  2  0
 19 20  1  0
 20 21  2  0
 21 22  1  0
 21 23  1  0
 23 24  2  0
 16 25  1  0
 25 26  2  0
 26  1  1  0
 25  3  1  0
 14  9  1  0
 24 18  1  0
  1 27  1  0
  6 28  1  0
  7 29  1  0
  7 30  1  0
  8 31  1  0
  8 32  1  0
  9 33  1  0
 10 34  1  0
 10 35  1  0
 11 36  1  0
 11 37  1  0
 13 38  1  0
 13 39  1  0
 14 40  1  0
 14 41  1  0
 17 42  1  0
 19 43  1  0
 20 44  1  0
 22 45  1  0
 22 46  1  0
 22 47  1  0
 23 48  1  0
 24 49  1  0
M  CHG  1   9   1
M  END
>  <ScrubInfo>  (10) 
{"isomerGroup": 0, "isomerId": 9, "confId": 0, "nr_conformers:": 1, "nr_isomers:": 21}

$$$$
_i10
     RDKit          3D

 49 52  0  0  0  0  0  0  0  0999 V2000
    1.0902    5.7395   -0.0450 N   0  0  0  0  0  0  0  0  0  0  0  0
    1.7614    5.2646    1.0757 N   0  0  0  0  0  0  0  0  0  0  0  0
    1.1243    4.1894    1.4218 C   0  0  0  0  0  0  0  0  0  0  0  0
    1.4398    3.2513    2.5233 C   0  0  0  0  0  0  0  0  0  0  0  0
    2.4928    3.5970    3.3383 N   0  0  0  0  0  0  0  0  0  0  0  0
    3.0547    2.9076    4.4264 C   0  0  0  0  0  0  0  0  0  0  0  0
    2.6100    1.6640    4.8832 C   0  0  0  0  0  0  0  0  0  0  0  0
    3.2072    1.0390    5.9859 C   0  0  0  0  0  0  0  0  0  0  0  0
    4.2578    1.6528    6.6712 C   0  0  0  0  0  0  0  0  0  0  0  0
    4.9187    0.9669    7.8296 C   0  0  0  0  0  0  0  0  0  0  0  0
    4.7181    2.8908    6.2209 C   0  0  0  0  0  0  0  0  0  0  0  0
    4.1184    3.5101    5.1187 C   0  0  0  0  0  0  0  0  0  0  0  0
    0.6710    2.2111    2.5920 N   0  0  0  0  0  0  0  0  0  0  0  0
   -0.3306    2.0205    1.6750 C   0  0  0  0  0  0  0  0  0  0  0  0
   -0.9387    0.8965    1.8045 N   0  0  0  0  0  0  0  0  0  0  0  0
   -2.0258    0.5483    0.8997 C   0  0  0  0  0  0  0  0  0  0  0  0
   -3.3459    1.1235    1.4264 C   0  0  0  0  0  0  0  0  0  0  0  0
   -4.5459    0.4689    0.7693 N   0  0  0  0  0  4  0  0  0  0  0  0
   -4.6879    0.8141   -0.7088 C   0  0  0  0  0  0  0  0  0  0  0  0
   -5.9412    0.1392   -1.2784 C   0  0  0  0  0  0  0  0  0  0  0  0
   -7.1103    0.5254   -0.5489 O   0  0  0  0  0  0  0  0  0  0  0  0
   -7.0254    0.1421    0.8278 C   0  0  0  0  0  0  0  0  0  0  0  0
   -5.8341    0.8206    1.5115 C   0  0  0  0  0  0  0  0  0  0  0  0
   -0.7502    2.8935    0.6934 N   0  0  0  0  0  0  0  0  0  0  0  0
   -0.0511    3.9628    0.5685 C   0  0  0  0  0  0  0  0  0  0  0  0
   -0.1264    5.0418   -0.2742 N   0  0  0  0  0  0  0  0  0  0  0  0
    1.0352    6.7633   -0.0996 H   0  0  0  0  0  0  0  0  0  0  0  0
    2.9814    4.4539    3.0897 H   0  0  0  0  0  0  0  0  0  0  0  0
    1.7956    1.1397    4.3938 H   0  0  0  0  0  0  0  0  0  0  0  0
    2.8406    0.0650    6.3034 H   0  0  0  0  0  0  0  0  0  0  0  0
    5.7418    0.3399    7.4733 H   0  0  0  0  0  0  0  0  0  0  0  0
    4.2036    0.3387    8.3711 H   0  0  0  0  0  0  0  0  0  0  0  0
    5.3135    1.6980    8.5430 H   0  0  0  0  0  0  0  0  0  0  0  0
    5.5463    3.3851    6.7244 H   0  0  0  0  0  0  0  0  0  0  0  0
    4.5026    4.4787    4.8066 H   0  0  0  0  0  0  0  0  0  0  0  0
   -1.8290    0.8610   -0.1321 H   0  0  0  0  0  0  0  0  0  0  0  0
   -2.0888   -0.5461    0.8714 H   0  0  0  0  0  0  0  0  0  0  0  0
   -3.4217    2.2040    1.2633 H   0  0  0  0  0  0  0  0  0  0  0  0
   -3.4340    0.9256    2.5010 H   0  0  0  0  0  0  0  0  0  0  0  0
   -4.4196   -0.5490    0.8508 H   0  0  0  0  0  0  0  0  0  0  0  0
   -3.7924    0.4612   -1.2263 H   0  0  0  0  0  0  0  0  0  0  0  0
   -4.7627    1.9049   -0.7718 H   0  0  0  0  0  0  0  0  0  0  0  0
   -6.0829    0.4438   -2.3200 H   0  0  0  0  0  0  0  0  0  0  0  0
   -5.8465   -0.9529   -1.2597 H   0  0  0  0  0  0  0  0  0  0  0  0
   -6.9545   -0.9497    0.8969 H   0  0  0  0  0  0  0  0  0  0  0  0
   -7.9554    0.4481    1.3168 H   0  0  0  0  0  0  0  0  0  0  0  0
   -5.7248    0.4781    2.5449 H   0  0  0  0  0  0  0  0  0  0  0  0
   -5.9274    1.9115    1.4777 H   0  0  0  0  0  0  0  0  0  0  0  0
   -0.2840    4.8068   -1.2526 H   0  0  0  0  0  0  0  0  0  0  0  0
  1  2  1  0
  2  3  2  0
  3  4  1  0
  4  5  1  0
  5  6  1  0
  6  7  2  0
  7  8  1  0
  8  9  2  0
  9 10  1  0
  9 11  1  0
 11 12  2  0
  4 13  2  0
 13 14  1  0
 14 15  2  3
 15 16  1  0
 16 17  1  0
 17 18  1  0
 18 19  1  0
 19 20  1  0
 20 21  1  0
 21 22  1  0
 22 23  1  0
 14 24  1  0
 24 25  2  0
 25 26  1  0
 26  1  1  0
 25  3  1  0
 12  6  1  0
 23 18  1  0
  1 27  1  0
  5 28  1  0
  7 29  1  0
  8 30  1  0
 10 31  1  0
 10 32  1  0
 10 33  1  0
 11 34  1  0
 12 35  1  0
 16 36  1  0
 16 37  1  0
 17 38  1  0
 17 39  1  0
 18 40  1  0
 19 41  1  0
 19 42  1  0
 20 43  1  0
 20 44  1  0
 22 45  1  0
 22 46  1  0
 23 47  1  0
 23 48  1  0
 26 49  1  0
M  CHG  1  18   1
M  END
>  <ScrubInfo>  (11) 
{"isomerGroup": 0, "isomerId": 10, "confId": 0, "nr_conformers:": 1, "nr_isomers:": 21}

$$$$
_i11
     RDKit          3D

 49 52  0  0  0  0  0  0  0  0999 V2000
   -6.7413    5.9504    4.3863 N   0  0  0  0  0  0  0  0  0  0  0  0
   -7.2597    4.7086    4.5636 N   0  0  0  0  0  0  0  0  0  0  0  0
   -7.1463    4.0817    3.4590 N   0  0  0  0  0  0  0  0  0  0  0  0
   -6.4885    4.8483    2.5213 C   0  0  0  0  0  0  0  0  0  0  0  0
   -6.1890    4.4455    1.3308 N   0  0  0  0  0  0  0  0  0  0  0  0
   -5.5145    5.4087    0.6114 C   0  0  0  0  0  0  0  0  0  0  0  0
   -5.2728    5.2033   -0.6349 N   0  0  0  0  0  0  0  0  0  0  0  0
   -5.8385    4.0537   -1.3502 C   0  0  0  0  0  0  0  0  0  0  0  0
   -4.9973    2.7834   -1.1650 C   0  0  0  0  0  0  0  0  0  0  0  0
   -5.2897    2.1376    0.1712 N   0  0  0  0  0  4  0  0  0  0  0  0
   -6.4853    1.1979    0.1399 C   0  0  0  0  0  0  0  0  0  0  0  0
   -6.7317    0.6302    1.5420 C   0  0  0  0  0  0  0  0  0  0  0  0
   -5.5620   -0.0311    2.0397 O   0  0  0  0  0  0  0  0  0  0  0  0
   -4.4550    0.8712    2.1467 C   0  0  0  0  0  0  0  0  0  0  0  0
   -4.0831    1.4496    0.7770 C   0  0  0  0  0  0  0  0  0  0  0  0
   -5.0702    6.5589    1.2085 N   0  0  0  0  0  0  0  0  0  0  0  0
   -5.4480    6.9850    2.4726 C   0  0  0  0  0  0  0  0  0  0  0  0
   -5.0069    8.1965    2.9614 N   0  0  0  0  0  0  0  0  0  0  0  0
   -5.6642    9.1174    3.8008 C   0  0  0  0  0  0  0  0  0  0  0  0
   -4.8856   10.0224    4.5353 C   0  0  0  0  0  0  0  0  0  0  0  0
   -5.4739   10.9282    5.4235 C   0  0  0  0  0  0  0  0  0  0  0  0
   -6.8584   10.9395    5.6084 C   0  0  0  0  0  0  0  0  0  0  0  0
   -7.4961   11.9348    6.5324 C   0  0  0  0  0  0  0  0  0  0  0  0
   -7.6437   10.0492    4.8716 C   0  0  0  0  0  0  0  0  0  0  0  0
   -7.0508    9.1433    3.9850 C   0  0  0  0  0  0  0  0  0  0  0  0
   -6.1875    6.1138    3.1772 C   0  0  0  0  0  0  0  0  0  0  0  0
   -6.5215    6.5716    5.1597 H   0  0  0  0  0  0  0  0  0  0  0  0
   -5.8285    4.3121   -2.4156 H   0  0  0  0  0  0  0  0  0  0  0  0
   -6.8922    3.8953   -1.0928 H   0  0  0  0  0  0  0  0  0  0  0  0
   -3.9300    3.0289   -1.1931 H   0  0  0  0  0  0  0  0  0  0  0  0
   -5.2115    2.0413   -1.9410 H   0  0  0  0  0  0  0  0  0  0  0  0
   -5.5530    2.9172    0.8034 H   0  0  0  0  0  0  0  0  0  0  0  0
   -6.2370    0.3987   -0.5668 H   0  0  0  0  0  0  0  0  0  0  0  0
   -7.3509    1.7633   -0.2159 H   0  0  0  0  0  0  0  0  0  0  0  0
   -7.5395   -0.1072    1.5045 H   0  0  0  0  0  0  0  0  0  0  0  0
   -7.0304    1.4160    2.2444 H   0  0  0  0  0  0  0  0  0  0  0  0
   -4.7029    1.6665    2.8597 H   0  0  0  0  0  0  0  0  0  0  0  0
   -3.6072    0.3112    2.5533 H   0  0  0  0  0  0  0  0  0  0  0  0
   -3.2862    2.1937    0.8694 H   0  0  0  0  0  0  0  0  0  0  0  0
   -3.7890    0.6592    0.0782 H   0  0  0  0  0  0  0  0  0  0  0  0
   -4.6800    7.2593    0.5907 H   0  0  0  0  0  0  0  0  0  0  0  0
   -4.2160    8.6053    2.4740 H   0  0  0  0  0  0  0  0  0  0  0  0
   -3.8029   10.0273    4.4323 H   0  0  0  0  0  0  0  0  0  0  0  0
   -4.8415   11.6230    5.9730 H   0  0  0  0  0  0  0  0  0  0  0  0
   -7.7295   12.8548    5.9877 H   0  0  0  0  0  0  0  0  0  0  0  0
   -6.8291   12.1763    7.3667 H   0  0  0  0  0  0  0  0  0  0  0  0
   -8.4200   11.5329    6.9615 H   0  0  0  0  0  0  0  0  0  0  0  0
   -8.7270   10.0591    4.9772 H   0  0  0  0  0  0  0  0  0  0  0  0
   -7.7043    8.4872    3.4170 H   0  0  0  0  0  0  0  0  0  0  0  0
  1  2  1  0
  2  3  2  0
  3  4  1  0
  4  5  2  0
  5  6  1  0
  6  7  2  3
  7  8  1  0
  8  9  1  0
  9 10  1  0
 10 11  1  0
 11 12  1  0
 12 13  1  0
 13 14  1  0
 14 15  1  0
  6 16  1  0
 16 17  1  0
 17 18  1  0
 18 19  1  0
 19 20  2  0
 20 21  1  0
 21 22  2  0
 22 23  1  0
 22 24  1  0
 24 25  2  0
 17 26  2  0
 26  1  1  0
 26  4  1  0
 15 10  1  0
 25 19  1  0
  1 27  1  0
  8 28  1  0
  8 29  1  0
  9 30  1  0
  9 31  1  0
 10 32  1  0
 11 33  1  0
 11 34  1  0
 12 35  1  0
 12 36  1  0
 14 37  1  0
 14 38  1  0
 15 39  1  0
 15 40  1  0
 16 41  1  0
 18 42  1  0
 20 43  1  0
 21 44  1  0
 23 45  1  0
 23 46  1  0
 23 47  1  0
 24 48  1  0
 25 49  1  0
M  CHG  1  10   1
M  END
>  <ScrubInfo>  (12) 
{"isomerGroup": 0, "isomerId": 11, "confId": 0, "nr_conformers:": 1, "nr_isomers:": 21}

$$$$
_i12
     RDKit          3D

 49 52  0  0  0  0  0  0  0  0999 V2000
    0.4907   -0.3871   -2.1448 N   0  0  0  0  0  0  0  0  0  0  0  0
    1.5752   -0.2664   -2.9639 C   0  0  0  0  0  0  0  0  0  0  0  0
    2.3345   -1.1714   -3.4948 N   0  0  0  0  0  0  0  0  0  0  0  0
    3.3075   -0.4375   -4.2717 N   0  0  0  0  0  0  0  0  0  0  0  0
    3.1148    0.8142   -4.1911 N   0  0  0  0  0  0  0  0  0  0  0  0
    2.0534    1.0359   -3.3816 C   0  0  0  0  0  0  0  0  0  0  0  0
    1.3785    2.1158   -2.9327 C   0  0  0  0  0  0  0  0  0  0  0  0
    1.6963    3.4179   -3.2733 N   0  0  0  0  0  0  0  0  0  0  0  0
    2.9552    4.0531   -3.2964 C   0  0  0  0  0  0  0  0  0  0  0  0
    3.0676    5.2805   -3.9665 C   0  0  0  0  0  0  0  0  0  0  0  0
    4.2935    5.9476   -4.0600 C   0  0  0  0  0  0  0  0  0  0  0  0
    5.4454    5.3898   -3.5014 C   0  0  0  0  0  0  0  0  0  0  0  0
    6.7575    6.1127   -3.5754 C   0  0  0  0  0  0  0  0  0  0  0  0
    5.3439    4.1684   -2.8308 C   0  0  0  0  0  0  0  0  0  0  0  0
    4.1148    3.5042   -2.7399 C   0  0  0  0  0  0  0  0  0  0  0  0
    0.2492    1.8896   -2.1289 N   0  0  0  0  0  0  0  0  0  0  0  0
   -0.2312    0.6789   -1.6659 C   0  0  0  0  0  0  0  0  0  0  0  0
   -1.2571    0.6672   -0.8746 N   0  0  0  0  0  0  0  0  0  0  0  0
   -1.7132   -0.6507   -0.3927 C   0  0  0  0  0  0  0  0  0  0  0  0
   -2.8277   -0.4163    0.6419 C   0  0  0  0  0  0  0  0  0  0  0  0
   -3.6846    0.7401    0.1725 N   0  0  0  0  0  4  0  0  0  0  0  0
   -4.6979    0.3579   -0.8923 C   0  0  0  0  0  0  0  0  0  0  0  0
   -5.4597    1.6086   -1.3439 C   0  0  0  0  0  0  0  0  0  0  0  0
   -6.0928    2.2528   -0.2322 O   0  0  0  0  0  0  0  0  0  0  0  0
   -5.1376    2.6798    0.7459 C   0  0  0  0  0  0  0  0  0  0  0  0
   -4.3533    1.4892    1.3080 C   0  0  0  0  0  0  0  0  0  0  0  0
    0.2474   -1.3339   -1.8988 H   0  0  0  0  0  0  0  0  0  0  0  0
    0.9282    4.0771   -3.2496 H   0  0  0  0  0  0  0  0  0  0  0  0
    2.1983    5.7308   -4.4394 H   0  0  0  0  0  0  0  0  0  0  0  0
    4.3437    6.9000   -4.5835 H   0  0  0  0  0  0  0  0  0  0  0  0
    6.8220    6.7127   -4.4892 H   0  0  0  0  0  0  0  0  0  0  0  0
    7.5930    5.4050   -3.5925 H   0  0  0  0  0  0  0  0  0  0  0  0
    6.8702    6.7728   -2.7099 H   0  0  0  0  0  0  0  0  0  0  0  0
    6.2246    3.7178   -2.3774 H   0  0  0  0  0  0  0  0  0  0  0  0
    4.0902    2.5599   -2.2051 H   0  0  0  0  0  0  0  0  0  0  0  0
   -0.1642    2.7266   -1.7431 H   0  0  0  0  0  0  0  0  0  0  0  0
   -0.9008   -1.2141    0.0799 H   0  0  0  0  0  0  0  0  0  0  0  0
   -2.1089   -1.2360   -1.2307 H   0  0  0  0  0  0  0  0  0  0  0  0
   -3.4614   -1.2942    0.8002 H   0  0  0  0  0  0  0  0  0  0  0  0
   -2.3781   -0.1123    1.5935 H   0  0  0  0  0  0  0  0  0  0  0  0
   -2.9906    1.3695   -0.2736 H   0  0  0  0  0  0  0  0  0  0  0  0
   -4.1594   -0.0971   -1.7279 H   0  0  0  0  0  0  0  0  0  0  0  0
   -5.3742   -0.3713   -0.4336 H   0  0  0  0  0  0  0  0  0  0  0  0
   -4.7925    2.3209   -1.8435 H   0  0  0  0  0  0  0  0  0  0  0  0
   -6.2420    1.3279   -2.0557 H   0  0  0  0  0  0  0  0  0  0  0  0
   -5.6861    3.1752    1.5530 H   0  0  0  0  0  0  0  0  0  0  0  0
   -4.4655    3.4197    0.2955 H   0  0  0  0  0  0  0  0  0  0  0  0
   -5.0179    0.7747    1.8054 H   0  0  0  0  0  0  0  0  0  0  0  0
   -3.5709    1.8240    1.9956 H   0  0  0  0  0  0  0  0  0  0  0  0
  1  2  1  0
  2  3  2  0
  3  4  1  0
  4  5  2  0
  5  6  1  0
  6  7  2  0
  7  8  1  0
  8  9  1  0
  9 10  2  0
 10 11  1  0
 11 12  2  0
 12 13  1  0
 12 14  1  0
 14 15  2  0
  7 16  1  0
 16 17  1  0
 17 18  2  3
 18 19  1  0
 19 20  1  0
 20 21  1  0
 21 22  1  0
 22 23  1  0
 23 24  1  0
 24 25  1  0
 25 26  1  0
 17  1  1  0
 26 21  1  0
  6  2  1  0
 15  9  1  0
  1 27  1  0
  8 28  1  0
 10 29  1  0
 11 30  1  0
 13 31  1  0
 13 32  1  0
 13 33  1  0
 14 34  1  0
 15 35  1  0
 16 36  1  0
 19 37  1  0
 19 38  1  0
 20 39  1  0
 20 40  1  0
 21 41  1  0
 22 42  1  0
 22 43  1  0
 23 44  1  0
 23 45  1  0
 25 46  1  0
 25 47  1  0
 26 48  1  0
 26 49  1  0
M  CHG  1  21   1
M  END
>  <ScrubInfo>  (13) 
{"isomerGroup": 0, "isomerId": 12, "confId": 0, "nr_conformers:": 1, "nr_isomers:": 21}

$$$$
_i13
     RDKit          3D

 49 52  0  0  0  0  0  0  0  0999 V2000
    1.1435    0.5517    7.1095 N   0  0  0  0  0  0  0  0  0  0  0  0
    0.4362    1.7411    7.1954 N   0  0  0  0  0  0  0  0  0  0  0  0
   -0.4799    1.6820    6.2808 C   0  0  0  0  0  0  0  0  0  0  0  0
   -1.5814    2.6260    5.9389 C   0  0  0  0  0  0  0  0  0  0  0  0
   -1.8106    3.8076    6.4270 N   0  0  0  0  0  0  0  0  0  0  0  0
   -0.9606    4.3486    7.3987 C   0  0  0  0  0  0  0  0  0  0  0  0
   -1.2434    4.1807    8.7555 C   0  0  0  0  0  0  0  0  0  0  0  0
   -0.4177    4.7527    9.7270 C   0  0  0  0  0  0  0  0  0  0  0  0
    0.7004    5.5063    9.3518 C   0  0  0  0  0  0  0  0  0  0  0  0
    1.5676    6.1494   10.3936 C   0  0  0  0  0  0  0  0  0  0  0  0
    0.9606    5.7049    7.9910 C   0  0  0  0  0  0  0  0  0  0  0  0
    0.1332    5.1309    7.0221 C   0  0  0  0  0  0  0  0  0  0  0  0
   -2.3991    2.0880    4.9813 N   0  0  0  0  0  0  0  0  0  0  0  0
   -2.2689    0.8812    4.3556 C   0  0  0  0  0  0  0  0  0  0  0  0
   -3.1578    0.5277    3.4760 N   0  0  0  0  0  0  0  0  0  0  0  0
   -2.9560   -0.8066    2.8649 C   0  0  0  0  0  0  0  0  0  0  0  0
   -4.1543   -1.0969    1.9502 C   0  0  0  0  0  0  0  0  0  0  0  0
   -4.5246    0.1760    1.2175 N   0  0  0  0  0  4  0  0  0  0  0  0
   -3.6210    0.4816    0.0357 C   0  0  0  0  0  0  0  0  0  0  0  0
   -4.0394    1.8139   -0.5956 C   0  0  0  0  0  0  0  0  0  0  0  0
   -5.4168    1.7859   -0.9878 O   0  0  0  0  0  0  0  0  0  0  0  0
   -6.2809    1.5697    0.1339 C   0  0  0  0  0  0  0  0  0  0  0  0
   -5.9828    0.2264    0.8088 C   0  0  0  0  0  0  0  0  0  0  0  0
   -1.2117    0.0374    4.6178 N   0  0  0  0  0  0  0  0  0  0  0  0
   -0.3460    0.4140    5.5013 C   0  0  0  0  0  0  0  0  0  0  0  0
    0.7913   -0.1963    5.9633 N   0  0  0  0  0  0  0  0  0  0  0  0
    2.1488    0.6555    7.2876 H   0  0  0  0  0  0  0  0  0  0  0  0
   -2.1110    3.6045    9.0619 H   0  0  0  0  0  0  0  0  0  0  0  0
   -0.6551    4.6086   10.7787 H   0  0  0  0  0  0  0  0  0  0  0  0
    1.5928    5.5461   11.3071 H   0  0  0  0  0  0  0  0  0  0  0  0
    1.1843    7.1450   10.6369 H   0  0  0  0  0  0  0  0  0  0  0  0
    2.5993    6.2438   10.0386 H   0  0  0  0  0  0  0  0  0  0  0  0
    1.8068    6.3119    7.6770 H   0  0  0  0  0  0  0  0  0  0  0  0
    0.3418    5.3024    5.9707 H   0  0  0  0  0  0  0  0  0  0  0  0
   -3.1956    2.6567    4.7342 H   0  0  0  0  0  0  0  0  0  0  0  0
   -2.0362   -0.8118    2.2681 H   0  0  0  0  0  0  0  0  0  0  0  0
   -2.8947   -1.5962    3.6230 H   0  0  0  0  0  0  0  0  0  0  0  0
   -5.0193   -1.3718    2.5636 H   0  0  0  0  0  0  0  0  0  0  0  0
   -3.9580   -1.8877    1.2198 H   0  0  0  0  0  0  0  0  0  0  0  0
   -4.3564    0.9067    1.9330 H   0  0  0  0  0  0  0  0  0  0  0  0
   -3.7414   -0.3449   -0.6728 H   0  0  0  0  0  0  0  0  0  0  0  0
   -2.5898    0.5257    0.3960 H   0  0  0  0  0  0  0  0  0  0  0  0
   -3.4416    2.0015   -1.4929 H   0  0  0  0  0  0  0  0  0  0  0  0
   -3.8764    2.6492    0.0956 H   0  0  0  0  0  0  0  0  0  0  0  0
   -6.1711    2.4010    0.8402 H   0  0  0  0  0  0  0  0  0  0  0  0
   -7.3118    1.5779   -0.2333 H   0  0  0  0  0  0  0  0  0  0  0  0
   -6.5886    0.0971    1.7107 H   0  0  0  0  0  0  0  0  0  0  0  0
   -6.1433   -0.6088    0.1188 H   0  0  0  0  0  0  0  0  0  0  0  0
    0.7040   -1.1975    6.1256 H   0  0  0  0  0  0  0  0  0  0  0  0
  1  2  1  0
  2  3  2  0
  3  4  1  0
  4  5  2  3
  5  6  1  0
  6  7  2  0
  7  8  1  0
  8  9  2  0
  9 10  1  0
  9 11  1  0
 11 12  2  0
  4 13  1  0
 13 14  1  0
 14 15  2  3
 15 16  1  0
 16 17  1  0
 17 18  1  0
 18 19  1  0
 19 20  1  0
 20 21  1  0
 21 22  1  0
 22 23  1  0
 14 24  1  0
 24 25  2  0
 25 26  1  0
 26  1  1  0
 25  3  1  0
 12  6  1  0
 23 18  1  0
  1 27  1  0
  7 28  1  0
  8 29  1  0
 10 30  1  0
 10 31  1  0
 10 32  1  0
 11 33  1  0
 12 34  1  0
 13 35  1  0
 16 36  1  0
 16 37  1  0
 17 38  1  0
 17 39  1  0
 18 40  1  0
 19 41  1  0
 19 42  1  0
 20 43  1  0
 20 44  1  0
 22 45  1  0
 22 46  1  0
 23 47  1  0
 23 48  1  0
 26 49  1  0
M  CHG  1  18   1
M  END
>  <ScrubInfo>  (14) 
{"isomerGroup": 0, "isomerId": 13, "confId": 0, "nr_conformers:": 1, "nr_isomers:": 21}

$$$$
_i14
     RDKit          3D

 49 52  0  0  0  0  0  0  0  0999 V2000
   -0.6880   -0.6054   -3.6350 N   0  0  0  0  0  0  0  0  0  0  0  0
   -1.2843    0.4814   -3.0048 C   0  0  0  0  0  0  0  0  0  0  0  0
   -1.9220    0.4982   -1.8768 N   0  0  0  0  0  0  0  0  0  0  0  0
   -2.0362   -0.7657   -1.1310 C   0  0  0  0  0  0  0  0  0  0  0  0
   -2.6713   -0.4462    0.2350 C   0  0  0  0  0  0  0  0  0  0  0  0
   -3.7192    0.6293    0.0402 N   0  0  0  0  0  4  0  0  0  0  0  0
   -5.0423    0.1075   -0.4911 C   0  0  0  0  0  0  0  0  0  0  0  0
   -6.0012    1.2813   -0.7173 C   0  0  0  0  0  0  0  0  0  0  0  0
   -6.1858    2.0302    0.4896 O   0  0  0  0  0  0  0  0  0  0  0  0
   -4.9528    2.5904    0.9563 C   0  0  0  0  0  0  0  0  0  0  0  0
   -3.9322    1.4906    1.2694 C   0  0  0  0  0  0  0  0  0  0  0  0
   -1.1613    1.6639   -3.7097 N   0  0  0  0  0  0  0  0  0  0  0  0
   -0.5563    1.9596   -4.9194 C   0  0  0  0  0  0  0  0  0  0  0  0
   -0.5654    3.1677   -5.3945 N   0  0  0  0  0  0  0  0  0  0  0  0
    0.0514    3.4578   -6.6179 C   0  0  0  0  0  0  0  0  0  0  0  0
   -0.6800    3.4078   -7.8063 C   0  0  0  0  0  0  0  0  0  0  0  0
   -0.0759    3.7316   -9.0241 C   0  0  0  0  0  0  0  0  0  0  0  0
    1.2636    4.1352   -9.0646 C   0  0  0  0  0  0  0  0  0  0  0  0
    1.9246    4.4459  -10.3751 C   0  0  0  0  0  0  0  0  0  0  0  0
    1.9930    4.1922   -7.8715 C   0  0  0  0  0  0  0  0  0  0  0  0
    1.3857    3.8676   -6.6556 C   0  0  0  0  0  0  0  0  0  0  0  0
    0.0336    0.7664   -5.4973 C   0  0  0  0  0  0  0  0  0  0  0  0
    0.7198    0.5633   -6.6567 N   0  0  0  0  0  0  0  0  0  0  0  0
    1.0487   -0.7275   -6.7182 N   0  0  0  0  0  0  0  0  0  0  0  0
    0.5768   -1.3296   -5.6101 N   0  0  0  0  0  0  0  0  0  0  0  0
   -0.0674   -0.4283   -4.8245 C   0  0  0  0  0  0  0  0  0  0  0  0
   -0.7231   -1.5128   -3.1889 H   0  0  0  0  0  0  0  0  0  0  0  0
   -1.0596   -1.2357   -0.9699 H   0  0  0  0  0  0  0  0  0  0  0  0
   -2.6788   -1.4636   -1.6796 H   0  0  0  0  0  0  0  0  0  0  0  0
   -1.9066   -0.0273    0.8982 H   0  0  0  0  0  0  0  0  0  0  0  0
   -3.1315   -1.3171    0.7114 H   0  0  0  0  0  0  0  0  0  0  0  0
   -3.3014    1.2198   -0.7042 H   0  0  0  0  0  0  0  0  0  0  0  0
   -4.8476   -0.4268   -1.4250 H   0  0  0  0  0  0  0  0  0  0  0  0
   -5.4337   -0.5807    0.2657 H   0  0  0  0  0  0  0  0  0  0  0  0
   -5.6337    1.9484   -1.5059 H   0  0  0  0  0  0  0  0  0  0  0  0
   -6.9803    0.9040   -1.0280 H   0  0  0  0  0  0  0  0  0  0  0  0
   -5.1692    3.1627    1.8637 H   0  0  0  0  0  0  0  0  0  0  0  0
   -4.5654    3.2886    0.2051 H   0  0  0  0  0  0  0  0  0  0  0  0
   -2.9656    1.9201    1.5495 H   0  0  0  0  0  0  0  0  0  0  0  0
   -4.2962    0.8239    2.0584 H   0  0  0  0  0  0  0  0  0  0  0  0
   -1.5629    2.4824   -3.2765 H   0  0  0  0  0  0  0  0  0  0  0  0
   -1.7237    3.1100   -7.7883 H   0  0  0  0  0  0  0  0  0  0  0  0
   -0.6580    3.6679   -9.9404 H   0  0  0  0  0  0  0  0  0  0  0  0
    1.2028    4.8562  -11.0890 H   0  0  0  0  0  0  0  0  0  0  0  0
    2.7145    5.1934  -10.2466 H   0  0  0  0  0  0  0  0  0  0  0  0
    2.3629    3.5366  -10.7976 H   0  0  0  0  0  0  0  0  0  0  0  0
    3.0387    4.4908   -7.8809 H   0  0  0  0  0  0  0  0  0  0  0  0
    1.9598    3.9300   -5.7363 H   0  0  0  0  0  0  0  0  0  0  0  0
    0.7416   -2.3220   -5.4911 H   0  0  0  0  0  0  0  0  0  0  0  0
  1  2  1  0
  2  3  2  3
  3  4  1  0
  4  5  1  0
  5  6  1  0
  6  7  1  0
  7  8  1  0
  8  9  1  0
  9 10  1  0
 10 11  1  0
  2 12  1  0
 12 13  1  0
 13 14  2  3
 14 15  1  0
 15 16  2  0
 16 17  1  0
 17 18  2  0
 18 19  1  0
 18 20  1  0
 20 21  2  0
 13 22  1  0
 22 23  1  0
 23 24  2  0
 24 25  1  0
 25 26  1  0
 26  1  1  0
 11  6  1  0
 21 15  1  0
 26 22  2  0
  1 27  1  0
  4 28  1  0
  4 29  1  0
  5 30  1  0
  5 31  1  0
  6 32  1  0
  7 33  1  0
  7 34  1  0
  8 35  1  0
  8 36  1  0
 10 37  1  0
 10 38  1  0
 11 39  1  0
 11 40  1  0
 12 41  1  0
 16 42  1  0
 17 43  1  0
 19 44  1  0
 19 45  1  0
 19 46  1  0
 20 47  1  0
 21 48  1  0
 25 49  1  0
M  CHG  1   6   1
M  END
>  <ScrubInfo>  (15) 
{"isomerGroup": 0, "isomerId": 14, "confId": 0, "nr_conformers:": 1, "nr_isomers:": 21}

$$$$
_i15
     RDKit          3D

 49 52  0  0  0  0  0  0  0  0999 V2000
    1.6774   -3.6766   -0.8300 N   0  0  0  0  0  0  0  0  0  0  0  0
    0.7904   -3.7765   -1.8429 N   0  0  0  0  0  0  0  0  0  0  0  0
   -0.3340   -3.1773   -1.4583 N   0  0  0  0  0  0  0  0  0  0  0  0
   -0.1359   -2.7059   -0.1983 C   0  0  0  0  0  0  0  0  0  0  0  0
   -1.0772   -2.0116    0.5877 N   0  0  0  0  0  0  0  0  0  0  0  0
   -0.6211   -1.6693    1.7647 C   0  0  0  0  0  0  0  0  0  0  0  0
   -1.4161   -0.9919    2.6574 N   0  0  0  0  0  0  0  0  0  0  0  0
   -2.7023   -0.4412    2.2241 C   0  0  0  0  0  0  0  0  0  0  0  0
   -3.7462   -1.5509    1.9399 C   0  0  0  0  0  0  0  0  0  0  0  0
   -4.6049   -1.3215    0.7084 N   0  0  0  0  0  4  0  0  0  0  0  0
   -5.4253   -0.0439    0.7327 C   0  0  0  0  0  0  0  0  0  0  0  0
   -6.3198    0.0107   -0.5107 C   0  0  0  0  0  0  0  0  0  0  0  0
   -5.5360   -0.0708   -1.7052 O   0  0  0  0  0  0  0  0  0  0  0  0
   -4.8089   -1.3040   -1.7856 C   0  0  0  0  0  0  0  0  0  0  0  0
   -3.8329   -1.4506   -0.6108 C   0  0  0  0  0  0  0  0  0  0  0  0
    0.6342   -1.9466    2.2400 N   0  0  0  0  0  0  0  0  0  0  0  0
    1.5875   -2.6384    1.5280 C   0  0  0  0  0  0  0  0  0  0  0  0
    2.7416   -2.8817    2.0755 N   0  0  0  0  0  0  0  0  0  0  0  0
    3.7379   -3.5831    1.3914 C   0  0  0  0  0  0  0  0  0  0  0  0
    4.6764   -2.8982    0.6168 C   0  0  0  0  0  0  0  0  0  0  0  0
    5.6571   -3.5995   -0.0884 C   0  0  0  0  0  0  0  0  0  0  0  0
    5.7140   -4.9966   -0.0213 C   0  0  0  0  0  0  0  0  0  0  0  0
    6.7942   -5.7481   -0.7439 C   0  0  0  0  0  0  0  0  0  0  0  0
    4.7992   -5.6773    0.7906 C   0  0  0  0  0  0  0  0  0  0  0  0
    3.8197   -4.9732    1.4947 C   0  0  0  0  0  0  0  0  0  0  0  0
    1.1347   -3.0142    0.2254 C   0  0  0  0  0  0  0  0  0  0  0  0
    2.6009   -4.0825   -0.9461 H   0  0  0  0  0  0  0  0  0  0  0  0
   -0.9022   -0.3623    3.2694 H   0  0  0  0  0  0  0  0  0  0  0  0
   -2.5365    0.2123    1.3618 H   0  0  0  0  0  0  0  0  0  0  0  0
   -3.0878    0.1980    3.0270 H   0  0  0  0  0  0  0  0  0  0  0  0
   -3.3015   -2.5444    1.8210 H   0  0  0  0  0  0  0  0  0  0  0  0
   -4.4458   -1.6186    2.7816 H   0  0  0  0  0  0  0  0  0  0  0  0
   -5.2726   -2.1033    0.6990 H   0  0  0  0  0  0  0  0  0  0  0  0
   -6.0189   -0.0499    1.6515 H   0  0  0  0  0  0  0  0  0  0  0  0
   -4.7199    0.7925    0.7395 H   0  0  0  0  0  0  0  0  0  0  0  0
   -7.0595   -0.7984   -0.5052 H   0  0  0  0  0  0  0  0  0  0  0  0
   -6.8635    0.9602   -0.5328 H   0  0  0  0  0  0  0  0  0  0  0  0
   -4.2540   -1.3033   -2.7289 H   0  0  0  0  0  0  0  0  0  0  0  0
   -5.5189   -2.1388   -1.8163 H   0  0  0  0  0  0  0  0  0  0  0  0
   -3.3635   -2.4372   -0.6220 H   0  0  0  0  0  0  0  0  0  0  0  0
   -3.0903   -0.6488   -0.6297 H   0  0  0  0  0  0  0  0  0  0  0  0
    0.8855   -1.7430    3.1953 H   0  0  0  0  0  0  0  0  0  0  0  0
    4.6493   -1.8128    0.5651 H   0  0  0  0  0  0  0  0  0  0  0  0
    6.3851   -3.0481   -0.6807 H   0  0  0  0  0  0  0  0  0  0  0  0
    7.0779   -5.2316   -1.6669 H   0  0  0  0  0  0  0  0  0  0  0  0
    7.6770   -5.8417   -0.1041 H   0  0  0  0  0  0  0  0  0  0  0  0
    6.4515   -6.7496   -1.0244 H   0  0  0  0  0  0  0  0  0  0  0  0
    4.8527   -6.7600    0.8896 H   0  0  0  0  0  0  0  0  0  0  0  0
    3.1220   -5.5123    2.1303 H   0  0  0  0  0  0  0  0  0  0  0  0
  1  2  1  0
  2  3  2  0
  3  4  1  0
  4  5  1  0
  5  6  2  0
  6  7  1  0
  7  8  1  0
  8  9  1  0
  9 10  1  0
 10 11  1  0
 11 12  1  0
 12 13  1  0
 13 14  1  0
 14 15  1  0
  6 16  1  0
 16 17  1  0
 17 18  2  3
 18 19  1  0
 19 20  2  0
 20 21  1  0
 21 22  2  0
 22 23  1  0
 22 24  1  0
 24 25  2  0
 17 26  1  0
 26  1  1  0
 26  4  2  0
 15 10  1  0
 25 19  1  0
  1 27  1  0
  7 28  1  0
  8 29  1  0
  8 30  1  0
  9 31  1  0
  9 32  1  0
 10 33  1  0
 11 34  1  0
 11 35  1  0
 12 36  1  0
 12 37  1  0
 14 38  1  0
 14 39  1  0
 15 40  1  0
 15 41  1  0
 16 42  1  0
 20 43  1  0
 21 44  1  0
 23 45  1  0
 23 46  1  0
 23 47  1  0
 24 48  1  0
 25 49  1  0
M  CHG  1  10   1
M  END
>  <ScrubInfo>  (16) 
{"isomerGroup": 0, "isomerId": 15, "confId": 0, "nr_conformers:": 1, "nr_isomers:": 21}

$$$$
_i16
     RDKit          3D

 49 52  0  0  0  0  0  0  0  0999 V2000
   -5.5802    6.1985    6.7700 N   0  0  0  0  0  0  0  0  0  0  0  0
   -5.1919    6.0835    5.4817 N   0  0  0  0  0  0  0  0  0  0  0  0
   -6.3579    5.8172    4.9066 C   0  0  0  0  0  0  0  0  0  0  0  0
   -6.4957    5.6011    3.5282 N   0  0  0  0  0  0  0  0  0  0  0  0
   -7.7224    5.2818    3.2345 C   0  0  0  0  0  0  0  0  0  0  0  0
   -8.0412    4.9909    1.9346 N   0  0  0  0  0  0  0  0  0  0  0  0
   -7.9541    3.5884    1.5053 C   0  0  0  0  0  0  0  0  0  0  0  0
   -6.5262    3.0114    1.6698 C   0  0  0  0  0  0  0  0  0  0  0  0
   -6.4282    1.5516    1.2579 N   0  0  0  0  0  4  0  0  0  0  0  0
   -5.0955    0.9533    1.7338 C   0  0  0  0  0  0  0  0  0  0  0  0
   -5.0111   -0.5180    1.3160 C   0  0  0  0  0  0  0  0  0  0  0  0
   -5.1489   -0.6534   -0.1017 O   0  0  0  0  0  0  0  0  0  0  0  0
   -6.4126   -0.1680   -0.5622 C   0  0  0  0  0  0  0  0  0  0  0  0
   -6.5772    1.3233   -0.2455 C   0  0  0  0  0  0  0  0  0  0  0  0
   -8.7637    5.1460    4.1085 N   0  0  0  0  0  0  0  0  0  0  0  0
   -8.7510    5.3818    5.4637 C   0  0  0  0  0  0  0  0  0  0  0  0
   -9.8273    5.2878    6.1822 N   0  0  0  0  0  0  0  0  0  0  0  0
   -9.8020    5.5529    7.5568 C   0  0  0  0  0  0  0  0  0  0  0  0
  -10.0171    6.8489    8.0310 C   0  0  0  0  0  0  0  0  0  0  0  0
  -10.0414    7.1070    9.4043 C   0  0  0  0  0  0  0  0  0  0  0  0
   -9.8770    6.0644   10.3235 C   0  0  0  0  0  0  0  0  0  0  0  0
   -9.8710    6.3449   11.7972 C   0  0  0  0  0  0  0  0  0  0  0  0
   -9.6692    4.7648    9.8473 C   0  0  0  0  0  0  0  0  0  0  0  0
   -9.6453    4.5108    8.4730 C   0  0  0  0  0  0  0  0  0  0  0  0
   -7.3940    5.7211    5.8599 C   0  0  0  0  0  0  0  0  0  0  0  0
   -6.8725    5.9523    7.0733 N   0  0  0  0  0  0  0  0  0  0  0  0
   -4.9139    6.4509    7.4977 H   0  0  0  0  0  0  0  0  0  0  0  0
   -7.4184    5.5481    1.3432 H   0  0  0  0  0  0  0  0  0  0  0  0
   -8.2616    3.5461    0.4561 H   0  0  0  0  0  0  0  0  0  0  0  0
   -8.6698    2.9855    2.0764 H   0  0  0  0  0  0  0  0  0  0  0  0
   -5.7953    3.5740    1.0781 H   0  0  0  0  0  0  0  0  0  0  0  0
   -6.2289    3.0453    2.7229 H   0  0  0  0  0  0  0  0  0  0  0  0
   -7.1713    1.0273    1.7395 H   0  0  0  0  0  0  0  0  0  0  0  0
   -5.0587    1.0567    2.8224 H   0  0  0  0  0  0  0  0  0  0  0  0
   -4.3025    1.5456    1.2645 H   0  0  0  0  0  0  0  0  0  0  0  0
   -5.7814   -1.1176    1.8148 H   0  0  0  0  0  0  0  0  0  0  0  0
   -4.0355   -0.9266    1.5968 H   0  0  0  0  0  0  0  0  0  0  0  0
   -6.4544   -0.3216   -1.6450 H   0  0  0  0  0  0  0  0  0  0  0  0
   -7.2163   -0.7604   -0.1093 H   0  0  0  0  0  0  0  0  0  0  0  0
   -7.5696    1.6717   -0.5410 H   0  0  0  0  0  0  0  0  0  0  0  0
   -5.7994    1.9206   -0.7328 H   0  0  0  0  0  0  0  0  0  0  0  0
   -9.6915    5.0476    3.7191 H   0  0  0  0  0  0  0  0  0  0  0  0
  -10.1644    7.6645    7.3295 H   0  0  0  0  0  0  0  0  0  0  0  0
  -10.1956    8.1264    9.7506 H   0  0  0  0  0  0  0  0  0  0  0  0
   -8.8537    6.5720   12.1304 H   0  0  0  0  0  0  0  0  0  0  0  0
  -10.2441    5.4831   12.3605 H   0  0  0  0  0  0  0  0  0  0  0  0
  -10.5200    7.1940   12.0360 H   0  0  0  0  0  0  0  0  0  0  0  0
   -9.5309    3.9409   10.5433 H   0  0  0  0  0  0  0  0  0  0  0  0
   -9.5019    3.4957    8.1174 H   0  0  0  0  0  0  0  0  0  0  0  0
  1  2  1  0
  2  3  2  0
  3  4  1  0
  4  5  2  0
  5  6  1  0
  6  7  1  0
  7  8  1  0
  8  9  1  0
  9 10  1  0
 10 11  1  0
 11 12  1  0
 12 13  1  0
 13 14  1  0
  5 15  1  0
 15 16  1  0
 16 17  2  3
 17 18  1  0
 18 19  2  0
 19 20  1  0
 20 21  2  0
 21 22  1  0
 21 23  1  0
 23 24  2  0
 16 25  1  0
 25 26  2  0
 26  1  1  0
 25  3  1  0
 14  9  1  0
 24 18  1  0
  1 27  1  0
  6 28  1  0
  7 29  1  0
  7 30  1  0
  8 31  1  0
  8 32  1  0
  9 33  1  0
 10 34  1  0
 10 35  1  0
 11 36  1  0
 11 37  1  0
 13 38  1  0
 13 39  1  0
 14 40  1  0
 14 41  1  0
 15 42  1  0
 19 43  1  0
 20 44  1  0
 22 45  1  0
 22 46  1  0
 22 47  1  0
 23 48  1  0
 24 49  1  0
M  CHG  1   9   1
M  END
>  <ScrubInfo>  (17) 
{"isomerGroup": 0, "isomerId": 16, "confId": 0, "nr_conformers:": 1, "nr_isomers:": 21}

$$$$
_i17
     RDKit          3D

 49 52  0  0  0  0  0  0  0  0999 V2000
    2.8795   -1.0011   -2.8966 N   0  0  0  0  0  0  0  0  0  0  0  0
    2.2905   -0.3896   -3.9498 N   0  0  0  0  0  0  0  0  0  0  0  0
    0.9788   -0.3412   -3.7111 N   0  0  0  0  0  0  0  0  0  0  0  0
    0.7764   -0.9318   -2.5129 C   0  0  0  0  0  0  0  0  0  0  0  0
   -0.3735   -1.0985   -1.8595 N   0  0  0  0  0  0  0  0  0  0  0  0
   -0.3005   -1.6957   -0.6204 C   0  0  0  0  0  0  0  0  0  0  0  0
   -1.2986   -1.9039    0.1676 N   0  0  0  0  0  0  0  0  0  0  0  0
   -2.6417   -1.5006   -0.2122 C   0  0  0  0  0  0  0  0  0  0  0  0
   -3.5728   -1.8879    0.9479 C   0  0  0  0  0  0  0  0  0  0  0  0
   -5.0264   -1.5367    0.7313 N   0  0  0  0  0  4  0  0  0  0  0  0
   -5.3067   -0.0427    0.6390 C   0  0  0  0  0  0  0  0  0  0  0  0
   -6.8223    0.1807    0.5628 C   0  0  0  0  0  0  0  0  0  0  0  0
   -7.3879   -0.5278   -0.5470 O   0  0  0  0  0  0  0  0  0  0  0  0
   -7.1857   -1.9425   -0.4414 C   0  0  0  0  0  0  0  0  0  0  0  0
   -5.6898   -2.2809   -0.4197 C   0  0  0  0  0  0  0  0  0  0  0  0
    0.8828   -2.1541   -0.0630 N   0  0  0  0  0  0  0  0  0  0  0  0
    2.0099   -2.0205   -0.7150 C   0  0  0  0  0  0  0  0  0  0  0  0
    3.1622   -2.4752   -0.1193 N   0  0  0  0  0  0  0  0  0  0  0  0
    4.1825   -3.1961   -0.7765 C   0  0  0  0  0  0  0  0  0  0  0  0
    5.4756   -3.1578   -0.2427 C   0  0  0  0  0  0  0  0  0  0  0  0
    6.5192   -3.8695   -0.8405 C   0  0  0  0  0  0  0  0  0  0  0  0
    6.2858   -4.6434   -1.9808 C   0  0  0  0  0  0  0  0  0  0  0  0
    7.3975   -5.4368   -2.6027 C   0  0  0  0  0  0  0  0  0  0  0  0
    4.9863   -4.7223   -2.4905 C   0  0  0  0  0  0  0  0  0  0  0  0
    3.9437   -4.0091   -1.8907 C   0  0  0  0  0  0  0  0  0  0  0  0
    1.9464   -1.3683   -1.9799 C   0  0  0  0  0  0  0  0  0  0  0  0
    3.8872   -1.1272   -2.8911 H   0  0  0  0  0  0  0  0  0  0  0  0
   -1.2395   -0.7536   -2.2348 H   0  0  0  0  0  0  0  0  0  0  0  0
   -2.9461   -2.0161   -1.1289 H   0  0  0  0  0  0  0  0  0  0  0  0
   -2.6784   -0.4194   -0.3804 H   0  0  0  0  0  0  0  0  0  0  0  0
   -3.5377   -2.9685    1.1304 H   0  0  0  0  0  0  0  0  0  0  0  0
   -3.2672   -1.3888    1.8751 H   0  0  0  0  0  0  0  0  0  0  0  0
   -5.4983   -1.8601    1.5863 H   0  0  0  0  0  0  0  0  0  0  0  0
   -4.8751    0.4328    1.5244 H   0  0  0  0  0  0  0  0  0  0  0  0
   -4.8187    0.3198   -0.2708 H   0  0  0  0  0  0  0  0  0  0  0  0
   -7.3184   -0.1388    1.4867 H   0  0  0  0  0  0  0  0  0  0  0  0
   -7.0325    1.2452    0.4207 H   0  0  0  0  0  0  0  0  0  0  0  0
   -7.6586   -2.4125   -1.3092 H   0  0  0  0  0  0  0  0  0  0  0  0
   -7.6908   -2.3140    0.4579 H   0  0  0  0  0  0  0  0  0  0  0  0
   -5.5228   -3.3508   -0.2652 H   0  0  0  0  0  0  0  0  0  0  0  0
   -5.2060   -1.9435   -1.3412 H   0  0  0  0  0  0  0  0  0  0  0  0
    2.9654   -2.8934    0.7876 H   0  0  0  0  0  0  0  0  0  0  0  0
    5.6864   -2.5592    0.6413 H   0  0  0  0  0  0  0  0  0  0  0  0
    7.5164   -3.8172   -0.4073 H   0  0  0  0  0  0  0  0  0  0  0  0
    8.3593   -4.9298   -2.4718 H   0  0  0  0  0  0  0  0  0  0  0  0
    7.4536   -6.4276   -2.1415 H   0  0  0  0  0  0  0  0  0  0  0  0
    7.2371   -5.5554   -3.6794 H   0  0  0  0  0  0  0  0  0  0  0  0
    4.7748   -5.3511   -3.3536 H   0  0  0  0  0  0  0  0  0  0  0  0
    2.9425   -4.1228   -2.2993 H   0  0  0  0  0  0  0  0  0  0  0  0
  1  2  1  0
  2  3  2  0
  3  4  1  0
  4  5  1  0
  5  6  1  0
  6  7  2  3
  7  8  1  0
  8  9  1  0
  9 10  1  0
 10 11  1  0
 11 12  1  0
 12 13  1  0
 13 14  1  0
 14 15  1  0
  6 16  1  0
 16 17  2  0
 17 18  1  0
 18 19  1  0
 19 20  2  0
 20 21  1  0
 21 22  2  0
 22 23  1  0
 22 24  1  0
 24 25  2  0
 17 26  1  0
 26  1  1  0
 26  4  2  0
 15 10  1  0
 25 19  1  0
  1 27  1  0
  5 28  1  0
  8 29  1  0
  8 30  1  0
  9 31  1  0
  9 32  1  0
 10 33  1  0
 11 34  1  0
 11 35  1  0
 12 36  1  0
 12 37  1  0
 14 38  1  0
 14 39  1  0
 15 40  1  0
 15 41  1  0
 18 42  1  0
 20 43  1  0
 21 44  1  0
 23 45  1  0
 23 46  1  0
 23 47  1  0
 24 48  1  0
 25 49  1  0
M  CHG  1  10   1
M  END
>  <ScrubInfo>  (18) 
{"isomerGroup": 0, "isomerId": 17, "confId": 0, "nr_conformers:": 1, "nr_isomers:": 21}

$$$$
_i18
     RDKit          3D

 49 52  0  0  0  0  0  0  0  0999 V2000
   -3.0005    8.1636    3.7904 N   0  0  0  0  0  0  0  0  0  0  0  0
   -3.3776    7.3888    2.7471 N   0  0  0  0  0  0  0  0  0  0  0  0
   -3.9429    6.3664    3.3847 C   0  0  0  0  0  0  0  0  0  0  0  0
   -4.4917    5.2546    2.8807 N   0  0  0  0  0  0  0  0  0  0  0  0
   -4.9542    4.3093    3.7650 C   0  0  0  0  0  0  0  0  0  0  0  0
   -5.4622    3.1717    3.4409 N   0  0  0  0  0  0  0  0  0  0  0  0
   -5.5969    2.7751    2.0518 C   0  0  0  0  0  0  0  0  0  0  0  0
   -6.2375    1.3770    2.0397 C   0  0  0  0  0  0  0  0  0  0  0  0
   -6.6097    0.9254    0.6415 N   0  0  0  0  0  4  0  0  0  0  0  0
   -7.5237   -0.3019    0.6992 C   0  0  0  0  0  0  0  0  0  0  0  0
   -7.8902   -0.7393   -0.7225 C   0  0  0  0  0  0  0  0  0  0  0  0
   -6.7151   -1.0194   -1.4899 O   0  0  0  0  0  0  0  0  0  0  0  0
   -5.8746    0.1317   -1.6135 C   0  0  0  0  0  0  0  0  0  0  0  0
   -5.4018    0.6203   -0.2392 C   0  0  0  0  0  0  0  0  0  0  0  0
   -4.9301    4.4703    5.1365 N   0  0  0  0  0  0  0  0  0  0  0  0
   -4.4530    5.5666    5.6532 C   0  0  0  0  0  0  0  0  0  0  0  0
   -4.3712    5.7812    7.0053 N   0  0  0  0  0  0  0  0  0  0  0  0
   -4.9827    6.8482    7.7124 C   0  0  0  0  0  0  0  0  0  0  0  0
   -5.8477    7.7793    7.1282 C   0  0  0  0  0  0  0  0  0  0  0  0
   -6.4152    8.8081    7.8894 C   0  0  0  0  0  0  0  0  0  0  0  0
   -6.1337    8.9238    9.2538 C   0  0  0  0  0  0  0  0  0  0  0  0
   -6.7124   10.0491   10.0592 C   0  0  0  0  0  0  0  0  0  0  0  0
   -5.2540    8.0107    9.8400 C   0  0  0  0  0  0  0  0  0  0  0  0
   -4.6893    6.9839    9.0775 C   0  0  0  0  0  0  0  0  0  0  0  0
   -3.8988    6.5713    4.7693 C   0  0  0  0  0  0  0  0  0  0  0  0
   -3.2779    7.7275    5.0347 N   0  0  0  0  0  0  0  0  0  0  0  0
   -2.5190    9.0493    3.6429 H   0  0  0  0  0  0  0  0  0  0  0  0
   -4.4907    5.0974    1.8886 H   0  0  0  0  0  0  0  0  0  0  0  0
   -6.2388    3.4789    1.5095 H   0  0  0  0  0  0  0  0  0  0  0  0
   -4.6155    2.7425    1.5672 H   0  0  0  0  0  0  0  0  0  0  0  0
   -5.5701    0.6221    2.4712 H   0  0  0  0  0  0  0  0  0  0  0  0
   -7.1664    1.3939    2.6221 H   0  0  0  0  0  0  0  0  0  0  0  0
   -7.1525    1.6796    0.2016 H   0  0  0  0  0  0  0  0  0  0  0  0
   -8.4159   -0.0226    1.2677 H   0  0  0  0  0  0  0  0  0  0  0  0
   -6.9646   -1.0848    1.2231 H   0  0  0  0  0  0  0  0  0  0  0  0
   -8.4829    0.0281   -1.2339 H   0  0  0  0  0  0  0  0  0  0  0  0
   -8.4894   -1.6543   -0.6848 H   0  0  0  0  0  0  0  0  0  0  0  0
   -5.0099   -0.1510   -2.2219 H   0  0  0  0  0  0  0  0  0  0  0  0
   -6.4164    0.9200   -2.1492 H   0  0  0  0  0  0  0  0  0  0  0  0
   -4.8166    1.5379   -0.3378 H   0  0  0  0  0  0  0  0  0  0  0  0
   -4.8214   -0.1516    0.2773 H   0  0  0  0  0  0  0  0  0  0  0  0
   -4.5508    4.9234    7.5199 H   0  0  0  0  0  0  0  0  0  0  0  0
   -6.1070    7.7261    6.0758 H   0  0  0  0  0  0  0  0  0  0  0  0
   -7.0792    9.5214    7.4059 H   0  0  0  0  0  0  0  0  0  0  0  0
   -6.0486   10.9182   10.0187 H   0  0  0  0  0  0  0  0  0  0  0  0
   -6.8449    9.7529   11.1051 H   0  0  0  0  0  0  0  0  0  0  0  0
   -7.6971   10.3371    9.6763 H   0  0  0  0  0  0  0  0  0  0  0  0
   -4.9960    8.0948   10.8936 H   0  0  0  0  0  0  0  0  0  0  0  0
   -3.9992    6.2952    9.5599 H   0  0  0  0  0  0  0  0  0  0  0  0
  1  2  1  0
  2  3  2  0
  3  4  1  0
  4  5  1  0
  5  6  2  3
  6  7  1  0
  7  8  1  0
  8  9  1  0
  9 10  1  0
 10 11  1  0
 11 12  1  0
 12 13  1  0
 13 14  1  0
  5 15  1  0
 15 16  2  0
 16 17  1  0
 17 18  1  0
 18 19  2  0
 19 20  1  0
 20 21  2  0
 21 22  1  0
 21 23  1  0
 23 24  2  0
 16 25  1  0
 25 26  2  0
 26  1  1  0
 25  3  1  0
 14  9  1  0
 24 18  1  0
  1 27  1  0
  4 28  1  0
  7 29  1  0
  7 30  1  0
  8 31  1  0
  8 32  1  0
  9 33  1  0
 10 34  1  0
 10 35  1  0
 11 36  1  0
 11 37  1  0
 13 38  1  0
 13 39  1  0
 14 40  1  0
 14 41  1  0
 17 42  1  0
 19 43  1  0
 20 44  1  0
 22 45  1  0
 22 46  1  0
 22 47  1  0
 23 48  1  0
 24 49  1  0
M  CHG  1   9   1
M  END
>  <ScrubInfo>  (19) 
{"isomerGroup": 0, "isomerId": 18, "confId": 0, "nr_conformers:": 1, "nr_isomers:": 21}

$$$$
_i19
     RDKit          3D

 49 52  0  0  0  0  0  0  0  0999 V2000
    0.4336   -1.3783    4.1174 N   0  0  0  0  0  0  0  0  0  0  0  0
   -0.1786   -0.2171    4.4345 N   0  0  0  0  0  0  0  0  0  0  0  0
   -0.2500    0.3681    3.2426 C   0  0  0  0  0  0  0  0  0  0  0  0
   -0.7688    1.5643    2.9212 N   0  0  0  0  0  0  0  0  0  0  0  0
   -0.6540    1.9481    1.6162 C   0  0  0  0  0  0  0  0  0  0  0  0
   -1.1996    3.1757    1.3511 N   0  0  0  0  0  0  0  0  0  0  0  0
   -0.6939    4.1366    0.3566 C   0  0  0  0  0  0  0  0  0  0  0  0
   -0.1737    3.5826   -0.9919 C   0  0  0  0  0  0  0  0  0  0  0  0
   -0.9959    2.4482   -1.5435 N   0  0  0  0  0  4  0  0  0  0  0  0
   -0.3050    1.7276   -2.6924 C   0  0  0  0  0  0  0  0  0  0  0  0
   -1.1380    0.5118   -3.1112 C   0  0  0  0  0  0  0  0  0  0  0  0
   -2.4724    0.9052   -3.4627 O   0  0  0  0  0  0  0  0  0  0  0  0
   -3.1484    1.5052   -2.3518 C   0  0  0  0  0  0  0  0  0  0  0  0
   -2.4275    2.7763   -1.8873 C   0  0  0  0  0  0  0  0  0  0  0  0
   -0.1606    1.2465    0.6390 N   0  0  0  0  0  0  0  0  0  0  0  0
    0.3455   -0.0214    0.8745 C   0  0  0  0  0  0  0  0  0  0  0  0
    0.7471   -0.6346   -0.1927 N   0  0  0  0  0  0  0  0  0  0  0  0
    1.2633   -1.9330   -0.1192 C   0  0  0  0  0  0  0  0  0  0  0  0
    2.6366   -2.1396    0.0277 C   0  0  0  0  0  0  0  0  0  0  0  0
    3.1596   -3.4354    0.0471 C   0  0  0  0  0  0  0  0  0  0  0  0
    2.3166   -4.5417   -0.1077 C   0  0  0  0  0  0  0  0  0  0  0  0
    2.8696   -5.9355   -0.0543 C   0  0  0  0  0  0  0  0  0  0  0  0
    0.9415   -4.3326   -0.2628 C   0  0  0  0  0  0  0  0  0  0  0  0
    0.4214   -3.0358   -0.2808 C   0  0  0  0  0  0  0  0  0  0  0  0
    0.3186   -0.4577    2.2564 C   0  0  0  0  0  0  0  0  0  0  0  0
    0.7604   -1.5871    2.8268 N   0  0  0  0  0  0  0  0  0  0  0  0
    0.6431   -2.0759    4.8305 H   0  0  0  0  0  0  0  0  0  0  0  0
   -1.1454    2.1563    3.6473 H   0  0  0  0  0  0  0  0  0  0  0  0
   -1.5424    3.6624    2.1766 H   0  0  0  0  0  0  0  0  0  0  0  0
    0.1050    4.7276    0.8194 H   0  0  0  0  0  0  0  0  0  0  0  0
   -1.5092    4.8387    0.1465 H   0  0  0  0  0  0  0  0  0  0  0  0
    0.8450    3.2003   -0.8572 H   0  0  0  0  0  0  0  0  0  0  0  0
   -0.1427    4.3720   -1.7511 H   0  0  0  0  0  0  0  0  0  0  0  0
   -0.9945    1.7587   -0.7657 H   0  0  0  0  0  0  0  0  0  0  0  0
    0.6918    1.4287   -2.3555 H   0  0  0  0  0  0  0  0  0  0  0  0
   -0.2264    2.4532   -3.5090 H   0  0  0  0  0  0  0  0  0  0  0  0
   -1.1812   -0.2408   -2.3161 H   0  0  0  0  0  0  0  0  0  0  0  0
   -0.6883    0.0414   -3.9912 H   0  0  0  0  0  0  0  0  0  0  0  0
   -4.1630    1.7560   -2.6763 H   0  0  0  0  0  0  0  0  0  0  0  0
   -3.2287    0.7752   -1.5377 H   0  0  0  0  0  0  0  0  0  0  0  0
   -2.3941    3.5263   -2.6845 H   0  0  0  0  0  0  0  0  0  0  0  0
   -2.9104    3.1906   -0.9988 H   0  0  0  0  0  0  0  0  0  0  0  0
    3.3063   -1.2915    0.1328 H   0  0  0  0  0  0  0  0  0  0  0  0
    4.2301   -3.5753    0.1803 H   0  0  0  0  0  0  0  0  0  0  0  0
    2.7948   -6.3292    0.9642 H   0  0  0  0  0  0  0  0  0  0  0  0
    3.9205   -5.9536   -0.3624 H   0  0  0  0  0  0  0  0  0  0  0  0
    2.3205   -6.5968   -0.7330 H   0  0  0  0  0  0  0  0  0  0  0  0
    0.2677   -5.1792   -0.3752 H   0  0  0  0  0  0  0  0  0  0  0  0
   -0.6458   -2.8914   -0.4176 H   0  0  0  0  0  0  0  0  0  0  0  0
  1  2  1  0
  2  3  2  0
  3  4  1  0
  4  5  1  0
  5  6  1  0
  6  7  1  0
  7  8  1  0
  8  9  1  0
  9 10  1  0
 10 11  1  0
 11 12  1  0
 12 13  1  0
 13 14  1  0
  5 15  2  0
 15 16  1  0
 16 17  2  3
 17 18  1  0
 18 19  2  0
 19 20  1  0
 20 21  2  0
 21 22  1  0
 21 23  1  0
 23 24  2  0
 16 25  1  0
 25 26  2  0
 26  1  1  0
 25  3  1  0
 14  9  1  0
 24 18  1  0
  1 27  1  0
  4 28  1  0
  6 29  1  0
  7 30  1  0
  7 31  1  0
  8 32  1  0
  8 33  1  0
  9 34  1  0
 10 35  1  0
 10 36  1  0
 11 37  1  0
 11 38  1  0
 13 39  1  0
 13 40  1  0
 14 41  1  0
 14 42  1  0
 19 43  1  0
 20 44  1  0
 22 45  1  0
 22 46  1  0
 22 47  1  0
 23 48  1  0
 24 49  1  0
M  CHG  1   9   1
M  END
>  <ScrubInfo>  (20) 
{"isomerGroup": 0, "isomerId": 19, "confId": 0, "nr_conformers:": 1, "nr_isomers:": 21}

$$$$
_i20
     RDKit          3D

 49 52  0  0  0  0  0  0  0  0999 V2000
   -0.4372    3.3262   -6.1087 N   0  0  0  0  0  0  0  0  0  0  0  0
   -1.1363    3.7069   -7.1998 N   0  0  0  0  0  0  0  0  0  0  0  0
   -2.2411    2.9653   -7.2549 N   0  0  0  0  0  0  0  0  0  0  0  0
   -2.2069    2.1331   -6.1927 C   0  0  0  0  0  0  0  0  0  0  0  0
   -3.1137    1.2125   -5.8472 N   0  0  0  0  0  0  0  0  0  0  0  0
   -2.8016    0.4681   -4.7436 C   0  0  0  0  0  0  0  0  0  0  0  0
   -3.7548   -0.4602   -4.4159 N   0  0  0  0  0  0  0  0  0  0  0  0
   -3.4757   -1.7920   -3.8549 C   0  0  0  0  0  0  0  0  0  0  0  0
   -2.3876   -1.8966   -2.7602 C   0  0  0  0  0  0  0  0  0  0  0  0
   -2.3782   -0.7349   -1.8029 N   0  0  0  0  0  4  0  0  0  0  0  0
   -3.6197   -0.5622   -0.9633 C   0  0  0  0  0  0  0  0  0  0  0  0
   -3.4922    0.7098   -0.1164 C   0  0  0  0  0  0  0  0  0  0  0  0
   -2.3138    0.6720    0.6975 O   0  0  0  0  0  0  0  0  0  0  0  0
   -1.1270    0.5928   -0.1049 C   0  0  0  0  0  0  0  0  0  0  0  0
   -1.1231   -0.6879   -0.9461 C   0  0  0  0  0  0  0  0  0  0  0  0
   -1.7567    0.6161   -3.9780 N   0  0  0  0  0  0  0  0  0  0  0  0
   -0.8121    1.5833   -4.2695 C   0  0  0  0  0  0  0  0  0  0  0  0
    0.1573    1.6701   -3.4190 N   0  0  0  0  0  0  0  0  0  0  0  0
    1.1683    2.6180   -3.5970 C   0  0  0  0  0  0  0  0  0  0  0  0
    1.0390    3.8986   -3.0546 C   0  0  0  0  0  0  0  0  0  0  0  0
    2.0378    4.8538   -3.2552 C   0  0  0  0  0  0  0  0  0  0  0  0
    3.1914    4.5302   -3.9787 C   0  0  0  0  0  0  0  0  0  0  0  0
    4.2536    5.5643   -4.2179 C   0  0  0  0  0  0  0  0  0  0  0  0
    3.3243    3.2422   -4.5101 C   0  0  0  0  0  0  0  0  0  0  0  0
    2.3240    2.2887   -4.3084 C   0  0  0  0  0  0  0  0  0  0  0  0
   -1.0835    2.3291   -5.4445 C   0  0  0  0  0  0  0  0  0  0  0  0
    0.4422    3.7920   -5.9058 H   0  0  0  0  0  0  0  0  0  0  0  0
   -3.9321    1.0558   -6.4177 H   0  0  0  0  0  0  0  0  0  0  0  0
   -4.5219   -0.5089   -5.0826 H   0  0  0  0  0  0  0  0  0  0  0  0
   -4.4178   -2.1679   -3.4388 H   0  0  0  0  0  0  0  0  0  0  0  0
   -3.2123   -2.4698   -4.6752 H   0  0  0  0  0  0  0  0  0  0  0  0
   -1.4001   -1.9240   -3.2354 H   0  0  0  0  0  0  0  0  0  0  0  0
   -2.5088   -2.8140   -2.1736 H   0  0  0  0  0  0  0  0  0  0  0  0
   -2.2941    0.0856   -2.4364 H   0  0  0  0  0  0  0  0  0  0  0  0
   -4.4833   -0.4981   -1.6299 H   0  0  0  0  0  0  0  0  0  0  0  0
   -3.6961   -1.4528   -0.3307 H   0  0  0  0  0  0  0  0  0  0  0  0
   -4.3548    0.7958    0.5516 H   0  0  0  0  0  0  0  0  0  0  0  0
   -3.4681    1.6058   -0.7479 H   0  0  0  0  0  0  0  0  0  0  0  0
   -1.0574    1.4871   -0.7345 H   0  0  0  0  0  0  0  0  0  0  0  0
   -0.2673    0.5931    0.5722 H   0  0  0  0  0  0  0  0  0  0  0  0
   -0.2556   -0.7219   -1.6117 H   0  0  0  0  0  0  0  0  0  0  0  0
   -1.1483   -1.5797   -0.3108 H   0  0  0  0  0  0  0  0  0  0  0  0
    0.1572    4.1611   -2.4759 H   0  0  0  0  0  0  0  0  0  0  0  0
    1.9167    5.8505   -2.8339 H   0  0  0  0  0  0  0  0  0  0  0  0
    4.0397    6.1125   -5.1405 H   0  0  0  0  0  0  0  0  0  0  0  0
    4.3011    6.2749   -3.3860 H   0  0  0  0  0  0  0  0  0  0  0  0
    5.2406    5.0978   -4.3032 H   0  0  0  0  0  0  0  0  0  0  0  0
    4.2148    2.9714   -5.0750 H   0  0  0  0  0  0  0  0  0  0  0  0
    2.4500    1.2873   -4.7121 H   0  0  0  0  0  0  0  0  0  0  0  0
  1  2  1  0
  2  3  2  0
  3  4  1  0
  4  5  1  0
  5  6  1  0
  6  7  1  0
  7  8  1  0
  8  9  1  0
  9 10  1  0
 10 11  1  0
 11 12  1  0
 12 13  1  0
 13 14  1  0
 14 15  1  0
  6 16  2  0
 16 17  1  0
 17 18  2  3
 18 19  1  0
 19 20  2  0
 20 21  1  0
 21 22  2  0
 22 23  1  0
 22 24  1  0
 24 25  2  0
 17 26  1  0
 26  1  1  0
 26  4  2  0
 15 10  1  0
 25 19  1  0
  1 27  1  0
  5 28  1  0
  7 29  1  0
  8 30  1  0
  8 31  1  0
  9 32  1  0
  9 33  1  0
 10 34  1  0
 11 35  1  0
 11 36  1  0
 12 37  1  0
 12 38  1  0
 14 39  1  0
 14 40  1  0
 15 41  1  0
 15 42  1  0
 20 43  1  0
 21 44  1  0
 23 45  1  0
 23 46  1  0
 23 47  1  0
 24 48  1  0
 25 49  1  0
M  CHG  1  10   1
M  END
>  <ScrubInfo>  (21) 
{"isomerGroup": 0, "isomerId": 20, "confId": 0, "nr_conformers:": 1, "nr_isomers:": 21}

$$$$
