REMARK SMILES Cc1ccc(Nc2nc(NCC[NH+]3CCOCC3)nc3[nH]nnc23)cc1
REMARK SMILES IDX 10 1 11 3 12 4 13 5 14 6 18 7 15 8 17 9 16 10 9 12 8 13
REMARK SMILES IDX 19 14 7 15 20 16 24 17 21 18 23 19 22 20 6 22 5 24 4 25
REMARK SMILES IDX 25 26 3 27 26 28 2 29 1 30
REMARK H PARENT 10 2 13 11 21 21 6 23
ROOT
ATOM      1  N   UNL     1      -2.947  -2.981   2.481  1.00  0.00    -0.348 N 
ATOM      2  H   UNL     1      -2.562  -3.796   2.967  1.00  0.00     0.163 HD
ENDROOT
BRANCH   1   3
ATOM      3  C   UNL     1      -4.115  -2.413   3.153  1.00  0.00     0.177 C 
BRANCH   3   4
ATOM      4  C   UNL     1      -5.241  -2.092   2.144  1.00  0.00     0.283 C 
BRANCH   4   5
ATOM      5  N   UNL     1      -4.703  -1.343   0.940  1.00  0.00    -0.330 N 
ATOM      6  C   UNL     1      -4.547  -2.230  -0.291  1.00  0.00     0.291 C 
ATOM      7  C   UNL     1      -5.480  -0.092   0.595  1.00  0.00     0.291 C 
ATOM      8  C   UNL     1      -3.908  -1.414  -1.420  1.00  0.00     0.221 C 
ATOM      9  C   UNL     1      -4.805   0.619  -0.584  1.00  0.00     0.221 C 
ATOM     10  O   UNL     1      -4.690  -0.249  -1.716  1.00  0.00    -0.370 OA
ATOM     11  H   UNL     1      -3.738  -1.058   1.194  1.00  0.00     0.348 HD
ENDBRANCH   4   5
ENDBRANCH   3   4
ENDBRANCH   1   3
BRANCH   1  12
ATOM     12  C   UNL     1      -1.851  -2.128   2.378  1.00  0.00     0.227 A 
ATOM     13  N   UNL     1      -0.675  -2.689   2.689  1.00  0.00    -0.193 NA
ATOM     14  N   UNL     1      -2.058  -0.869   1.931  1.00  0.00    -0.191 NA
ATOM     15  C   UNL     1       0.489  -1.980   2.580  1.00  0.00     0.166 A 
ATOM     16  C   UNL     1      -0.898  -0.185   1.881  1.00  0.00     0.183 A 
ATOM     17  C   UNL     1       0.377  -0.641   2.177  1.00  0.00     0.174 A 
ATOM     18  N   UNL     1      -0.701   1.122   1.538  1.00  0.00    -0.240 N 
ATOM     19  N   UNL     1       1.264   0.392   2.017  1.00  0.00    -0.125 NA
ATOM     20  N   UNL     1       0.593   1.463   1.610  1.00  0.00    -0.067 NA
ATOM     21  H   UNL     1      -1.372   1.826   1.262  1.00  0.00     0.194 HD
BRANCH  15  22
ATOM     22  N   UNL     1       1.651  -2.660   2.950  1.00  0.00    -0.338 N 
ATOM     23  H   UNL     1       1.429  -3.569   3.339  1.00  0.00     0.168 HD
BRANCH  22  24
ATOM     24  C   UNL     1       3.009  -2.502   2.634  1.00  0.00     0.040 A 
ATOM     25  C   UNL     1       3.481  -1.723   1.576  1.00  0.00     0.026 A 
ATOM     26  C   UNL     1       3.958  -3.120   3.463  1.00  0.00     0.026 A 
ATOM     27  C   UNL     1       4.854  -1.574   1.343  1.00  0.00     0.005 A 
ATOM     28  C   UNL     1       5.330  -2.975   3.235  1.00  0.00     0.005 A 
ATOM     29  C   UNL     1       5.790  -2.188   2.178  1.00  0.00    -0.051 A 
ATOM     30  C   UNL     1       7.259  -2.052   1.909  1.00  0.00     0.044 C 
ENDBRANCH  22  24
ENDBRANCH  15  22
ENDBRANCH   1  12
TORSDOF 6
