_i0
     RDKit          3D

 44 46  0  0  0  0  0  0  0  0999 V2000
    6.9682    1.5194    0.5716 C   0  0  0  0  0  0  0  0  0  0  0  0
    6.2163    0.9023    1.6082 O   0  0  0  0  0  0  0  0  0  0  0  0
    4.8053    1.0293    1.4349 C   0  0  0  0  0  0  0  0  0  0  0  0
    4.2734    0.0208    0.4220 C   0  0  0  0  0  0  0  0  0  0  0  0
    2.7485    0.0559    0.3614 C   0  0  0  0  0  0  0  0  0  0  0  0
    2.2869   -0.8834   -0.6460 N   0  0  0  0  0  0  0  0  0  0  0  0
    0.9032   -0.9984   -0.7386 C   0  0  0  0  0  0  0  0  0  0  0  0
    0.1297    0.0798   -0.5090 N   0  0  0  0  0  0  0  0  0  0  0  0
   -1.2234   -0.0170   -0.5733 C   0  0  0  0  0  0  0  0  0  0  0  0
   -1.9501    1.1482   -0.3300 N   0  0  0  0  0  0  0  0  0  0  0  0
   -3.1105    1.3981    0.4278 C   0  0  0  0  0  0  0  0  0  0  0  0
   -3.7828    0.4233    1.1705 C   0  0  0  0  0  0  0  0  0  0  0  0
   -4.9666    0.7291    1.8516 C   0  0  0  0  0  0  0  0  0  0  0  0
   -5.4981    2.0163    1.7965 C   0  0  0  0  0  0  0  0  0  0  0  0
   -4.8451    3.0063    1.0665 C   0  0  0  0  0  0  0  0  0  0  0  0
   -3.6653    2.6916    0.3924 C   0  0  0  0  0  0  0  0  0  0  0  0
   -3.0003    3.6594   -0.3195 O   0  0  0  0  0  0  0  0  0  0  0  0
   -1.7633   -1.2471   -0.9569 C   0  0  0  0  0  0  0  0  0  0  0  0
   -3.0222   -1.8059   -1.2616 C   0  0  0  0  0  0  0  0  0  0  0  0
   -2.9539   -3.1020   -1.5888 N   0  0  0  0  0  0  0  0  0  0  0  0
   -1.6274   -3.3630   -1.5305 N   0  0  0  0  0  0  0  0  0  0  0  0
   -1.1500   -4.6825   -1.8585 C   0  0  0  0  0  0  0  0  0  0  0  0
   -0.8721   -2.2807   -1.1697 C   0  0  0  0  0  0  0  0  0  0  0  0
    0.4632   -2.2223   -1.0559 N   0  0  0  0  0  0  0  0  0  0  0  0
    6.8010    1.0190   -0.3856 H   0  0  0  0  0  0  0  0  0  0  0  0
    6.7174    2.5816    0.4928 H   0  0  0  0  0  0  0  0  0  0  0  0
    8.0291    1.4324    0.8222 H   0  0  0  0  0  0  0  0  0  0  0  0
    4.3530    0.8340    2.4135 H   0  0  0  0  0  0  0  0  0  0  0  0
    4.5453    2.0576    1.1572 H   0  0  0  0  0  0  0  0  0  0  0  0
    4.6892    0.2269   -0.5714 H   0  0  0  0  0  0  0  0  0  0  0  0
    4.6232   -0.9853    0.6858 H   0  0  0  0  0  0  0  0  0  0  0  0
    2.3370   -0.2045    1.3449 H   0  0  0  0  0  0  0  0  0  0  0  0
    2.4266    1.0747    0.1120 H   0  0  0  0  0  0  0  0  0  0  0  0
    2.6360   -1.8317   -0.5541 H   0  0  0  0  0  0  0  0  0  0  0  0
   -1.3443    1.9650   -0.3482 H   0  0  0  0  0  0  0  0  0  0  0  0
   -3.3859   -0.5826    1.2633 H   0  0  0  0  0  0  0  0  0  0  0  0
   -5.4701   -0.0421    2.4301 H   0  0  0  0  0  0  0  0  0  0  0  0
   -6.4176    2.2470    2.3286 H   0  0  0  0  0  0  0  0  0  0  0  0
   -5.2626    4.0075    1.0367 H   0  0  0  0  0  0  0  0  0  0  0  0
   -3.5409    4.4661   -0.3207 H   0  0  0  0  0  0  0  0  0  0  0  0
   -3.9888   -1.3185   -1.2583 H   0  0  0  0  0  0  0  0  0  0  0  0
   -0.0716   -4.7422   -1.6958 H   0  0  0  0  0  0  0  0  0  0  0  0
   -1.3797   -4.8789   -2.9087 H   0  0  0  0  0  0  0  0  0  0  0  0
   -1.6599   -5.4036   -1.2145 H   0  0  0  0  0  0  0  0  0  0  0  0
  1  2  1  0
  2  3  1  0
  3  4  1  0
  4  5  1  0
  5  6  1  0
  6  7  1  0
  7  8  2  0
  8  9  1  0
  9 10  1  0
 10 11  1  0
 11 12  2  0
 12 13  1  0
 13 14  2  0
 14 15  1  0
 15 16  2  0
 16 17  1  0
  9 18  2  0
 18 19  1  0
 19 20  2  0
 20 21  1  0
 21 22  1  0
 21 23  1  0
 23 24  2  0
 24  7  1  0
 16 11  1  0
 23 18  1  0
  1 25  1  0
  1 26  1  0
  1 27  1  0
  3 28  1  0
  3 29  1  0
  4 30  1  0
  4 31  1  0
  5 32  1  0
  5 33  1  0
  6 34  1  0
 10 35  1  0
 12 36  1  0
 13 37  1  0
 14 38  1  0
 15 39  1  0
 17 40  1  0
 19 41  1  0
 22 42  1  0
 22 43  1  0
 22 44  1  0
M  END
>  <ScrubInfo>  (1) 
{"isomerGroup": 0, "isomerId": 0, "confId": 0, "nr_conformers:": 1, "nr_isomers:": 9}

$$$$
_i1
     RDKit          3D

 44 46  0  0  0  0  0  0  0  0999 V2000
   -0.7468   -0.0942    0.1893 N   0  0  0  0  0  0  0  0  0  0  0  0
   -1.9788   -0.7093    0.2597 C   0  0  0  0  0  0  0  0  0  0  0  0
   -3.1890   -0.0361    0.3032 N   0  0  0  0  0  0  0  0  0  0  0  0
   -3.5203    1.3384    0.2774 C   0  0  0  0  0  0  0  0  0  0  0  0
   -4.7395    1.7019    0.8871 C   0  0  0  0  0  0  0  0  0  0  0  0
   -5.1633    3.0323    0.9601 C   0  0  0  0  0  0  0  0  0  0  0  0
   -4.3718    4.0412    0.4269 C   0  0  0  0  0  0  0  0  0  0  0  0
   -3.1611    3.7181   -0.1797 C   0  0  0  0  0  0  0  0  0  0  0  0
   -2.7422    2.3825   -0.2523 C   0  0  0  0  0  0  0  0  0  0  0  0
   -1.5591    2.1207   -0.8920 O   0  0  0  0  0  0  0  0  0  0  0  0
   -1.9160   -2.0478    0.3097 C   0  0  0  0  0  0  0  0  0  0  0  0
   -2.8484   -3.1787    0.3788 C   0  0  0  0  0  0  0  0  0  0  0  0
   -2.2501   -4.3426    0.3979 N   0  0  0  0  0  0  0  0  0  0  0  0
   -0.8756   -4.0544    0.3896 N   0  0  0  0  0  0  0  0  0  0  0  0
    0.0560   -5.1119    0.0793 C   0  0  0  0  0  0  0  0  0  0  0  0
   -0.5877   -2.7028    0.2758 C   0  0  0  0  0  0  0  0  0  0  0  0
    0.5464   -2.1015    0.1510 N   0  0  0  0  0  0  0  0  0  0  0  0
    0.4582   -0.7291    0.0548 C   0  0  0  0  0  0  0  0  0  0  0  0
    1.5177   -0.0239   -0.1732 N   0  0  0  0  0  0  0  0  0  0  0  0
    2.7824   -0.7433   -0.3126 C   0  0  0  0  0  0  0  0  0  0  0  0
    3.8997    0.2589   -0.5924 C   0  0  0  0  0  0  0  0  0  0  0  0
    4.1354    1.2094    0.5795 C   0  0  0  0  0  0  0  0  0  0  0  0
    5.2084    2.1151    0.3025 O   0  0  0  0  0  0  0  0  0  0  0  0
    6.4883    1.5618    0.5746 C   0  0  0  0  0  0  0  0  0  0  0  0
   -0.7662    0.8923   -0.0438 H   0  0  0  0  0  0  0  0  0  0  0  0
   -3.9929   -0.6266    0.4800 H   0  0  0  0  0  0  0  0  0  0  0  0
   -5.3769    0.9403    1.3313 H   0  0  0  0  0  0  0  0  0  0  0  0
   -6.1075    3.2764    1.4404 H   0  0  0  0  0  0  0  0  0  0  0  0
   -4.6947    5.0775    0.4849 H   0  0  0  0  0  0  0  0  0  0  0  0
   -2.5529    4.5191   -0.5904 H   0  0  0  0  0  0  0  0  0  0  0  0
   -1.2434    2.9320   -1.3268 H   0  0  0  0  0  0  0  0  0  0  0  0
   -3.9340   -3.0207    0.3912 H   0  0  0  0  0  0  0  0  0  0  0  0
   -0.2791   -6.0618    0.5086 H   0  0  0  0  0  0  0  0  0  0  0  0
    0.1463   -5.2343   -1.0045 H   0  0  0  0  0  0  0  0  0  0  0  0
    1.0469   -4.8921    0.4893 H   0  0  0  0  0  0  0  0  0  0  0  0
    3.0181   -1.3058    0.5991 H   0  0  0  0  0  0  0  0  0  0  0  0
    2.7315   -1.4446   -1.1544 H   0  0  0  0  0  0  0  0  0  0  0  0
    3.6726    0.8449   -1.4918 H   0  0  0  0  0  0  0  0  0  0  0  0
    4.8189   -0.2930   -0.8175 H   0  0  0  0  0  0  0  0  0  0  0  0
    4.3277    0.6643    1.5112 H   0  0  0  0  0  0  0  0  0  0  0  0
    3.2443    1.8251    0.7413 H   0  0  0  0  0  0  0  0  0  0  0  0
    6.6899    0.6993   -0.0658 H   0  0  0  0  0  0  0  0  0  0  0  0
    7.2417    2.3266    0.3672 H   0  0  0  0  0  0  0  0  0  0  0  0
    6.5672    1.2763    1.6280 H   0  0  0  0  0  0  0  0  0  0  0  0
  1  2  1  0
  2  3  1  0
  3  4  1  0
  4  5  2  0
  5  6  1  0
  6  7  2  0
  7  8  1  0
  8  9  2  0
  9 10  1  0
  2 11  2  0
 11 12  1  0
 12 13  2  0
 13 14  1  0
 14 15  1  0
 14 16  1  0
 16 17  2  0
 17 18  1  0
 18 19  2  3
 19 20  1  0
 20 21  1  0
 21 22  1  0
 22 23  1  0
 23 24  1  0
 18  1  1  0
  9  4  1  0
 16 11  1  0
  1 25  1  0
  3 26  1  0
  5 27  1  0
  6 28  1  0
  7 29  1  0
  8 30  1  0
 10 31  1  0
 12 32  1  0
 15 33  1  0
 15 34  1  0
 15 35  1  0
 20 36  1  0
 20 37  1  0
 21 38  1  0
 21 39  1  0
 22 40  1  0
 22 41  1  0
 24 42  1  0
 24 43  1  0
 24 44  1  0
M  END
>  <ScrubInfo>  (2) 
{"isomerGroup": 0, "isomerId": 1, "confId": 0, "nr_conformers:": 1, "nr_isomers:": 9}

$$$$
_i2
     RDKit          3D

 44 46  0  0  0  0  0  0  0  0999 V2000
   -0.3311   -0.4757   -0.4631 N   0  0  0  0  0  0  0  0  0  0  0  0
   -1.0047    0.7203   -0.5250 C   0  0  0  0  0  0  0  0  0  0  0  0
   -2.2915    0.5769   -0.9644 N   0  0  0  0  0  0  0  0  0  0  0  0
   -3.2285    1.6877   -0.9206 C   0  0  0  0  0  0  0  0  0  0  0  0
   -4.6094    1.2382   -1.4020 C   0  0  0  0  0  0  0  0  0  0  0  0
   -5.2942    0.2838   -0.4245 C   0  0  0  0  0  0  0  0  0  0  0  0
   -4.5184   -0.9112   -0.2928 O   0  0  0  0  0  0  0  0  0  0  0  0
   -5.1372   -1.8376    0.5936 C   0  0  0  0  0  0  0  0  0  0  0  0
   -0.4719    1.8723   -0.2074 N   0  0  0  0  0  0  0  0  0  0  0  0
    0.8208    1.7322    0.2020 C   0  0  0  0  0  0  0  0  0  0  0  0
    1.5805    0.5753    0.2885 C   0  0  0  0  0  0  0  0  0  0  0  0
    2.8165    1.0102    0.7982 C   0  0  0  0  0  0  0  0  0  0  0  0
    2.8566    2.3325    1.0111 N   0  0  0  0  0  0  0  0  0  0  0  0
    1.6287    2.7492    0.6253 N   0  0  0  0  0  0  0  0  0  0  0  0
    1.2963    4.1485    0.7127 C   0  0  0  0  0  0  0  0  0  0  0  0
    0.9812   -0.6850   -0.1065 C   0  0  0  0  0  0  0  0  0  0  0  0
    1.5131   -1.8686   -0.1435 N   0  0  0  0  0  0  0  0  0  0  0  0
    2.8663   -2.0790    0.1484 C   0  0  0  0  0  0  0  0  0  0  0  0
    3.2216   -2.5987    1.3965 C   0  0  0  0  0  0  0  0  0  0  0  0
    4.5599   -2.8517    1.7058 C   0  0  0  0  0  0  0  0  0  0  0  0
    5.5545   -2.6002    0.7605 C   0  0  0  0  0  0  0  0  0  0  0  0
    5.2151   -2.1012   -0.4979 C   0  0  0  0  0  0  0  0  0  0  0  0
    3.8764   -1.8498   -0.8007 C   0  0  0  0  0  0  0  0  0  0  0  0
    3.5336   -1.3553   -2.0317 O   0  0  0  0  0  0  0  0  0  0  0  0
   -0.7773   -1.2825   -0.8668 H   0  0  0  0  0  0  0  0  0  0  0  0
   -2.7442   -0.2974   -0.6920 H   0  0  0  0  0  0  0  0  0  0  0  0
   -2.8679    2.4906   -1.5738 H   0  0  0  0  0  0  0  0  0  0  0  0
   -3.2992    2.0865    0.0981 H   0  0  0  0  0  0  0  0  0  0  0  0
   -5.2451    2.1210   -1.5348 H   0  0  0  0  0  0  0  0  0  0  0  0
   -4.5100    0.7484   -2.3786 H   0  0  0  0  0  0  0  0  0  0  0  0
   -5.4029    0.7604    0.5566 H   0  0  0  0  0  0  0  0  0  0  0  0
   -6.2898    0.0286   -0.8051 H   0  0  0  0  0  0  0  0  0  0  0  0
   -4.5034   -2.7260    0.6583 H   0  0  0  0  0  0  0  0  0  0  0  0
   -5.2346   -1.4033    1.5932 H   0  0  0  0  0  0  0  0  0  0  0  0
   -6.1189   -2.1344    0.2124 H   0  0  0  0  0  0  0  0  0  0  0  0
    3.6993    0.4342    1.0359 H   0  0  0  0  0  0  0  0  0  0  0  0
    2.1108    4.7282    0.2702 H   0  0  0  0  0  0  0  0  0  0  0  0
    1.1756    4.4050    1.7680 H   0  0  0  0  0  0  0  0  0  0  0  0
    0.3704    4.3488    0.1691 H   0  0  0  0  0  0  0  0  0  0  0  0
    2.4470   -2.8065    2.1296 H   0  0  0  0  0  0  0  0  0  0  0  0
    4.8238   -3.2495    2.6824 H   0  0  0  0  0  0  0  0  0  0  0  0
    6.5955   -2.7989    1.0036 H   0  0  0  0  0  0  0  0  0  0  0  0
    6.0001   -1.9162   -1.2242 H   0  0  0  0  0  0  0  0  0  0  0  0
    4.3367   -1.2503   -2.5647 H   0  0  0  0  0  0  0  0  0  0  0  0
  1  2  1  0
  2  3  1  0
  3  4  1  0
  4  5  1  0
  5  6  1  0
  6  7  1  0
  7  8  1  0
  2  9  2  0
  9 10  1  0
 10 11  2  0
 11 12  1  0
 12 13  2  0
 13 14  1  0
 14 15  1  0
 11 16  1  0
 16 17  2  3
 17 18  1  0
 18 19  2  0
 19 20  1  0
 20 21  2  0
 21 22  1  0
 22 23  2  0
 23 24  1  0
 16  1  1  0
 23 18  1  0
 14 10  1  0
  1 25  1  0
  3 26  1  0
  4 27  1  0
  4 28  1  0
  5 29  1  0
  5 30  1  0
  6 31  1  0
  6 32  1  0
  8 33  1  0
  8 34  1  0
  8 35  1  0
 12 36  1  0
 15 37  1  0
 15 38  1  0
 15 39  1  0
 19 40  1  0
 20 41  1  0
 21 42  1  0
 22 43  1  0
 24 44  1  0
M  END
>  <ScrubInfo>  (3) 
{"isomerGroup": 0, "isomerId": 2, "confId": 0, "nr_conformers:": 1, "nr_isomers:": 9}

$$$$
_i3
     RDKit          3D

 44 46  0  0  0  0  0  0  0  0999 V2000
    0.6378   -1.0450   -0.5966 N   0  0  0  0  0  0  0  0  0  0  0  0
    0.8933   -0.0237    0.3054 C   0  0  0  0  0  0  0  0  0  0  0  0
    1.9492    0.1013    1.0303 N   0  0  0  0  0  0  0  0  0  0  0  0
    3.0082   -0.8955    0.9384 C   0  0  0  0  0  0  0  0  0  0  0  0
    4.2093   -0.4103    1.7509 C   0  0  0  0  0  0  0  0  0  0  0  0
    4.9717    0.7072    1.0400 C   0  0  0  0  0  0  0  0  0  0  0  0
    5.6002    0.2312   -0.1544 O   0  0  0  0  0  0  0  0  0  0  0  0
    6.8885   -0.3210    0.0801 C   0  0  0  0  0  0  0  0  0  0  0  0
   -0.0190    1.0013    0.5085 N   0  0  0  0  0  0  0  0  0  0  0  0
   -1.1522    0.9975   -0.1385 C   0  0  0  0  0  0  0  0  0  0  0  0
   -2.0791    2.0021    0.0037 N   0  0  0  0  0  0  0  0  0  0  0  0
   -3.4540    1.7796    0.2865 C   0  0  0  0  0  0  0  0  0  0  0  0
   -4.3754    2.7237   -0.1894 C   0  0  0  0  0  0  0  0  0  0  0  0
   -5.7363    2.6073    0.1014 C   0  0  0  0  0  0  0  0  0  0  0  0
   -6.1908    1.5593    0.8987 C   0  0  0  0  0  0  0  0  0  0  0  0
   -5.2850    0.6353    1.4189 C   0  0  0  0  0  0  0  0  0  0  0  0
   -3.9253    0.7573    1.1263 C   0  0  0  0  0  0  0  0  0  0  0  0
   -3.0363   -0.1207    1.6819 O   0  0  0  0  0  0  0  0  0  0  0  0
   -1.4422   -0.0326   -1.1103 C   0  0  0  0  0  0  0  0  0  0  0  0
   -2.4613   -0.3519   -2.0202 C   0  0  0  0  0  0  0  0  0  0  0  0
   -2.1958   -1.4706   -2.7153 N   0  0  0  0  0  0  0  0  0  0  0  0
   -0.9864   -1.8623   -2.2438 N   0  0  0  0  0  0  0  0  0  0  0  0
   -0.3750   -3.0479   -2.7870 C   0  0  0  0  0  0  0  0  0  0  0  0
   -0.5134   -1.0198   -1.2892 C   0  0  0  0  0  0  0  0  0  0  0  0
    1.3515   -1.7461   -0.7170 H   0  0  0  0  0  0  0  0  0  0  0  0
    3.3083   -1.0791   -0.0994 H   0  0  0  0  0  0  0  0  0  0  0  0
    2.6546   -1.8400    1.3687 H   0  0  0  0  0  0  0  0  0  0  0  0
    4.8757   -1.2628    1.9199 H   0  0  0  0  0  0  0  0  0  0  0  0
    3.8751   -0.0530    2.7321 H   0  0  0  0  0  0  0  0  0  0  0  0
    5.7176    1.1516    1.7096 H   0  0  0  0  0  0  0  0  0  0  0  0
    4.2847    1.5089    0.7491 H   0  0  0  0  0  0  0  0  0  0  0  0
    6.8327   -1.1789    0.7554 H   0  0  0  0  0  0  0  0  0  0  0  0
    7.2938   -0.6608   -0.8769 H   0  0  0  0  0  0  0  0  0  0  0  0
    7.5611    0.4385    0.4901 H   0  0  0  0  0  0  0  0  0  0  0  0
   -1.7243    2.6351    0.7180 H   0  0  0  0  0  0  0  0  0  0  0  0
   -4.0324    3.5496   -0.8090 H   0  0  0  0  0  0  0  0  0  0  0  0
   -6.4394    3.3371   -0.2926 H   0  0  0  0  0  0  0  0  0  0  0  0
   -7.2504    1.4696    1.1253 H   0  0  0  0  0  0  0  0  0  0  0  0
   -5.6531   -0.1629    2.0562 H   0  0  0  0  0  0  0  0  0  0  0  0
   -3.5164   -0.7636    2.2276 H   0  0  0  0  0  0  0  0  0  0  0  0
   -3.3860    0.1752   -2.2143 H   0  0  0  0  0  0  0  0  0  0  0  0
   -1.0715   -3.8818   -2.6681 H   0  0  0  0  0  0  0  0  0  0  0  0
   -0.1658   -2.8724   -3.8452 H   0  0  0  0  0  0  0  0  0  0  0  0
    0.5536   -3.2661   -2.2557 H   0  0  0  0  0  0  0  0  0  0  0  0
  1  2  1  0
  2  3  2  3
  3  4  1  0
  4  5  1  0
  5  6  1  0
  6  7  1  0
  7  8  1  0
  2  9  1  0
  9 10  2  0
 10 11  1  0
 11 12  1  0
 12 13  2  0
 13 14  1  0
 14 15  2  0
 15 16  1  0
 16 17  2  0
 17 18  1  0
 10 19  1  0
 19 20  1  0
 20 21  2  0
 21 22  1  0
 22 23  1  0
 22 24  1  0
 24  1  1  0
 17 12  1  0
 24 19  2  0
  1 25  1  0
  4 26  1  0
  4 27  1  0
  5 28  1  0
  5 29  1  0
  6 30  1  0
  6 31  1  0
  8 32  1  0
  8 33  1  0
  8 34  1  0
 11 35  1  0
 13 36  1  0
 14 37  1  0
 15 38  1  0
 16 39  1  0
 18 40  1  0
 20 41  1  0
 23 42  1  0
 23 43  1  0
 23 44  1  0
M  END
>  <ScrubInfo>  (4) 
{"isomerGroup": 0, "isomerId": 3, "confId": 0, "nr_conformers:": 1, "nr_isomers:": 9}

$$$$
_i4
     RDKit          3D

 44 46  0  0  0  0  0  0  0  0999 V2000
   -2.5840   -2.5801    0.5620 N   0  0  0  0  0  0  0  0  0  0  0  0
   -2.8901   -1.2836    0.1608 C   0  0  0  0  0  0  0  0  0  0  0  0
   -1.8112   -0.4994    0.0136 C   0  0  0  0  0  0  0  0  0  0  0  0
   -1.4801    0.8641   -0.3808 C   0  0  0  0  0  0  0  0  0  0  0  0
   -2.2375    1.8585   -0.7102 N   0  0  0  0  0  0  0  0  0  0  0  0
   -3.6296    1.7079   -0.7456 C   0  0  0  0  0  0  0  0  0  0  0  0
   -4.2798    1.2559   -1.8950 C   0  0  0  0  0  0  0  0  0  0  0  0
   -5.6705    1.1153   -1.9036 C   0  0  0  0  0  0  0  0  0  0  0  0
   -6.4168    1.4401   -0.7672 C   0  0  0  0  0  0  0  0  0  0  0  0
   -5.7784    1.9200    0.3765 C   0  0  0  0  0  0  0  0  0  0  0  0
   -4.3970    2.0620    0.3710 C   0  0  0  0  0  0  0  0  0  0  0  0
   -3.7794    2.5663    1.4837 O   0  0  0  0  0  0  0  0  0  0  0  0
   -0.1369    1.1290   -0.3944 N   0  0  0  0  0  0  0  0  0  0  0  0
    0.7665    0.2545   -0.0632 C   0  0  0  0  0  0  0  0  0  0  0  0
    2.0633    0.6717   -0.1483 N   0  0  0  0  0  0  0  0  0  0  0  0
    3.1314    0.0630    0.6147 C   0  0  0  0  0  0  0  0  0  0  0  0
    4.4673    0.6815    0.2181 C   0  0  0  0  0  0  0  0  0  0  0  0
    5.6200    0.0255    0.9711 C   0  0  0  0  0  0  0  0  0  0  0  0
    6.8558    0.6933    0.7209 O   0  0  0  0  0  0  0  0  0  0  0  0
    7.4444    0.3432   -0.5247 C   0  0  0  0  0  0  0  0  0  0  0  0
    0.5171   -1.0202    0.3675 N   0  0  0  0  0  0  0  0  0  0  0  0
   -0.7128   -1.3952    0.4233 C   0  0  0  0  0  0  0  0  0  0  0  0
   -1.2260   -2.6238    0.8411 N   0  0  0  0  0  0  0  0  0  0  0  0
   -0.4975   -3.8556    0.6063 C   0  0  0  0  0  0  0  0  0  0  0  0
   -3.2058   -2.9305    1.2950 H   0  0  0  0  0  0  0  0  0  0  0  0
   -3.9296   -1.0281    0.0163 H   0  0  0  0  0  0  0  0  0  0  0  0
   -3.7020    1.0152   -2.7830 H   0  0  0  0  0  0  0  0  0  0  0  0
   -6.1731    0.7605   -2.8002 H   0  0  0  0  0  0  0  0  0  0  0  0
   -7.4989    1.3354   -0.7793 H   0  0  0  0  0  0  0  0  0  0  0  0
   -6.3514    2.1963    1.2563 H   0  0  0  0  0  0  0  0  0  0  0  0
   -2.8617    2.7473    1.1918 H   0  0  0  0  0  0  0  0  0  0  0  0
    2.1160    1.6773   -0.2670 H   0  0  0  0  0  0  0  0  0  0  0  0
    3.1612   -1.0165    0.4258 H   0  0  0  0  0  0  0  0  0  0  0  0
    2.9508    0.2145    1.6852 H   0  0  0  0  0  0  0  0  0  0  0  0
    4.4646    1.7607    0.4175 H   0  0  0  0  0  0  0  0  0  0  0  0
    4.6162    0.5816   -0.8635 H   0  0  0  0  0  0  0  0  0  0  0  0
    5.7061   -1.0407    0.7300 H   0  0  0  0  0  0  0  0  0  0  0  0
    5.4386    0.1000    2.0490 H   0  0  0  0  0  0  0  0  0  0  0  0
    8.4129    0.8457   -0.5972 H   0  0  0  0  0  0  0  0  0  0  0  0
    6.8229    0.6769   -1.3597 H   0  0  0  0  0  0  0  0  0  0  0  0
    7.6095   -0.7369   -0.5834 H   0  0  0  0  0  0  0  0  0  0  0  0
   -0.4116   -4.0588   -0.4662 H   0  0  0  0  0  0  0  0  0  0  0  0
   -1.0116   -4.6982    1.0801 H   0  0  0  0  0  0  0  0  0  0  0  0
    0.5087   -3.7957    1.0335 H   0  0  0  0  0  0  0  0  0  0  0  0
  1  2  1  0
  2  3  2  0
  3  4  1  0
  4  5  2  3
  5  6  1  0
  6  7  2  0
  7  8  1  0
  8  9  2  0
  9 10  1  0
 10 11  2  0
 11 12  1  0
  4 13  1  0
 13 14  2  0
 14 15  1  0
 15 16  1  0
 16 17  1  0
 17 18  1  0
 18 19  1  0
 19 20  1  0
 14 21  1  0
 21 22  2  0
 22 23  1  0
 23 24  1  0
 23  1  1  0
 22  3  1  0
 11  6  1  0
  1 25  1  0
  2 26  1  0
  7 27  1  0
  8 28  1  0
  9 29  1  0
 10 30  1  0
 12 31  1  0
 15 32  1  0
 16 33  1  0
 16 34  1  0
 17 35  1  0
 17 36  1  0
 18 37  1  0
 18 38  1  0
 20 39  1  0
 20 40  1  0
 20 41  1  0
 24 42  1  0
 24 43  1  0
 24 44  1  0
M  END
>  <ScrubInfo>  (5) 
{"isomerGroup": 0, "isomerId": 4, "confId": 0, "nr_conformers:": 1, "nr_isomers:": 9}

$$$$
_i5
     RDKit          3D

 44 46  0  0  0  0  0  0  0  0999 V2000
    0.5628   -1.6517    0.0852 N   0  0  0  0  0  0  0  0  0  0  0  0
    0.9241   -0.3919   -0.3335 C   0  0  0  0  0  0  0  0  0  0  0  0
    2.2560   -0.3325   -0.6511 N   0  0  0  0  0  0  0  0  0  0  0  0
    2.8787    0.9487   -0.9685 C   0  0  0  0  0  0  0  0  0  0  0  0
    4.1965    0.7498   -1.7171 C   0  0  0  0  0  0  0  0  0  0  0  0
    5.2225   -0.1094   -0.9817 C   0  0  0  0  0  0  0  0  0  0  0  0
    5.3537    0.2421    0.3933 O   0  0  0  0  0  0  0  0  0  0  0  0
    6.1539    1.4007    0.5974 C   0  0  0  0  0  0  0  0  0  0  0  0
    0.1137    0.6214   -0.4351 N   0  0  0  0  0  0  0  0  0  0  0  0
   -1.2226    0.4860   -0.0859 C   0  0  0  0  0  0  0  0  0  0  0  0
   -1.9286    1.5718   -0.1415 N   0  0  0  0  0  0  0  0  0  0  0  0
   -3.2830    1.6004    0.2064 C   0  0  0  0  0  0  0  0  0  0  0  0
   -3.6920    1.7272    1.5353 C   0  0  0  0  0  0  0  0  0  0  0  0
   -5.0538    1.7674    1.8482 C   0  0  0  0  0  0  0  0  0  0  0  0
   -6.0108    1.6992    0.8318 C   0  0  0  0  0  0  0  0  0  0  0  0
   -5.6114    1.6057   -0.5014 C   0  0  0  0  0  0  0  0  0  0  0  0
   -4.2558    1.5717   -0.8007 C   0  0  0  0  0  0  0  0  0  0  0  0
   -3.8696    1.5160   -2.1130 O   0  0  0  0  0  0  0  0  0  0  0  0
   -1.6663   -0.8471    0.2831 C   0  0  0  0  0  0  0  0  0  0  0  0
   -2.8745   -1.4971    0.5950 C   0  0  0  0  0  0  0  0  0  0  0  0
   -2.7109   -2.8044    0.8559 N   0  0  0  0  0  0  0  0  0  0  0  0
   -1.3833   -3.0003    0.6954 N   0  0  0  0  0  0  0  0  0  0  0  0
   -0.8408   -4.3200    0.8940 C   0  0  0  0  0  0  0  0  0  0  0  0
   -0.7385   -1.8555    0.3527 C   0  0  0  0  0  0  0  0  0  0  0  0
    1.2211   -2.4000   -0.0844 H   0  0  0  0  0  0  0  0  0  0  0  0
    2.8298   -0.8492    0.0091 H   0  0  0  0  0  0  0  0  0  0  0  0
    3.0392    1.5159   -0.0446 H   0  0  0  0  0  0  0  0  0  0  0  0
    2.2188    1.5461   -1.6089 H   0  0  0  0  0  0  0  0  0  0  0  0
    4.0036    0.3007   -2.6991 H   0  0  0  0  0  0  0  0  0  0  0  0
    4.6265    1.7406   -1.9061 H   0  0  0  0  0  0  0  0  0  0  0  0
    4.9032   -1.1571   -1.0097 H   0  0  0  0  0  0  0  0  0  0  0  0
    6.1965   -0.0690   -1.4839 H   0  0  0  0  0  0  0  0  0  0  0  0
    7.1607    1.2472    0.1975 H   0  0  0  0  0  0  0  0  0  0  0  0
    5.6939    2.2791    0.1368 H   0  0  0  0  0  0  0  0  0  0  0  0
    6.2311    1.5766    1.6738 H   0  0  0  0  0  0  0  0  0  0  0  0
   -2.9501    1.7926    2.3261 H   0  0  0  0  0  0  0  0  0  0  0  0
   -5.3687    1.8572    2.8850 H   0  0  0  0  0  0  0  0  0  0  0  0
   -7.0691    1.7327    1.0784 H   0  0  0  0  0  0  0  0  0  0  0  0
   -6.3468    1.5722   -1.2992 H   0  0  0  0  0  0  0  0  0  0  0  0
   -2.8994    1.6490   -2.0871 H   0  0  0  0  0  0  0  0  0  0  0  0
   -3.8779   -1.0961    0.6409 H   0  0  0  0  0  0  0  0  0  0  0  0
   -1.2120   -4.7103    1.8452 H   0  0  0  0  0  0  0  0  0  0  0  0
   -1.1702   -4.9530    0.0664 H   0  0  0  0  0  0  0  0  0  0  0  0
    0.2500   -4.2735    0.9196 H   0  0  0  0  0  0  0  0  0  0  0  0
  1  2  1  0
  2  3  1  0
  3  4  1  0
  4  5  1  0
  5  6  1  0
  6  7  1  0
  7  8  1  0
  2  9  2  0
  9 10  1  0
 10 11  2  3
 11 12  1  0
 12 13  2  0
 13 14  1  0
 14 15  2  0
 15 16  1  0
 16 17  2  0
 17 18  1  0
 10 19  1  0
 19 20  1  0
 20 21  2  0
 21 22  1  0
 22 23  1  0
 22 24  1  0
 24  1  1  0
 17 12  1  0
 24 19  2  0
  1 25  1  0
  3 26  1  0
  4 27  1  0
  4 28  1  0
  5 29  1  0
  5 30  1  0
  6 31  1  0
  6 32  1  0
  8 33  1  0
  8 34  1  0
  8 35  1  0
 13 36  1  0
 14 37  1  0
 15 38  1  0
 16 39  1  0
 18 40  1  0
 20 41  1  0
 23 42  1  0
 23 43  1  0
 23 44  1  0
M  END
>  <ScrubInfo>  (6) 
{"isomerGroup": 0, "isomerId": 5, "confId": 0, "nr_conformers:": 1, "nr_isomers:": 9}

$$$$
_i6
     RDKit          3D

 44 46  0  0  0  0  0  0  0  0999 V2000
   -1.9243   -2.9463   -2.9547 N   0  0  0  0  0  0  0  0  0  0  0  0
   -2.6066   -2.1610   -2.0316 C   0  0  0  0  0  0  0  0  0  0  0  0
   -1.7929   -1.3764   -1.3112 C   0  0  0  0  0  0  0  0  0  0  0  0
   -1.8915   -0.4042   -0.2195 C   0  0  0  0  0  0  0  0  0  0  0  0
   -3.1308   -0.1012    0.3118 N   0  0  0  0  0  0  0  0  0  0  0  0
   -3.5171    1.0438    1.0440 C   0  0  0  0  0  0  0  0  0  0  0  0
   -2.7186    2.1741    1.2304 C   0  0  0  0  0  0  0  0  0  0  0  0
   -3.1917    3.2747    1.9571 C   0  0  0  0  0  0  0  0  0  0  0  0
   -4.4666    3.2550    2.5220 C   0  0  0  0  0  0  0  0  0  0  0  0
   -5.2652    2.1245    2.3838 C   0  0  0  0  0  0  0  0  0  0  0  0
   -4.7749    1.0328    1.6753 C   0  0  0  0  0  0  0  0  0  0  0  0
   -5.5469   -0.1002    1.6327 O   0  0  0  0  0  0  0  0  0  0  0  0
   -0.7768    0.1055    0.2190 N   0  0  0  0  0  0  0  0  0  0  0  0
    0.4225   -0.2570   -0.3492 C   0  0  0  0  0  0  0  0  0  0  0  0
    1.4428    0.3104    0.1911 N   0  0  0  0  0  0  0  0  0  0  0  0
    2.7619   -0.0056   -0.3493 C   0  0  0  0  0  0  0  0  0  0  0  0
    3.7999    0.8044    0.4230 C   0  0  0  0  0  0  0  0  0  0  0  0
    5.2136    0.4814   -0.0501 C   0  0  0  0  0  0  0  0  0  0  0  0
    6.1928    1.3331    0.5460 O   0  0  0  0  0  0  0  0  0  0  0  0
    6.4522    1.0277    1.9093 C   0  0  0  0  0  0  0  0  0  0  0  0
    0.6077   -1.1277   -1.3994 N   0  0  0  0  0  0  0  0  0  0  0  0
   -0.4591   -1.6602   -1.8831 C   0  0  0  0  0  0  0  0  0  0  0  0
   -0.5911   -2.5513   -2.9482 N   0  0  0  0  0  0  0  0  0  0  0  0
    0.4405   -3.5286   -3.2393 C   0  0  0  0  0  0  0  0  0  0  0  0
   -2.3743   -2.9876   -3.8727 H   0  0  0  0  0  0  0  0  0  0  0  0
   -3.6818   -2.2456   -1.9745 H   0  0  0  0  0  0  0  0  0  0  0  0
   -3.9401   -0.5341   -0.1205 H   0  0  0  0  0  0  0  0  0  0  0  0
   -1.7235    2.2401    0.7990 H   0  0  0  0  0  0  0  0  0  0  0  0
   -2.5569    4.1496    2.0775 H   0  0  0  0  0  0  0  0  0  0  0  0
   -4.8275    4.1136    3.0820 H   0  0  0  0  0  0  0  0  0  0  0  0
   -6.2480    2.0846    2.8430 H   0  0  0  0  0  0  0  0  0  0  0  0
   -4.9345   -0.8256    1.8553 H   0  0  0  0  0  0  0  0  0  0  0  0
    2.9781   -1.0747   -0.2333 H   0  0  0  0  0  0  0  0  0  0  0  0
    2.8202    0.2561   -1.4130 H   0  0  0  0  0  0  0  0  0  0  0  0
    3.6074    1.8786    0.3094 H   0  0  0  0  0  0  0  0  0  0  0  0
    3.7026    0.5980    1.4953 H   0  0  0  0  0  0  0  0  0  0  0  0
    5.4682   -0.5689    0.1352 H   0  0  0  0  0  0  0  0  0  0  0  0
    5.2806    0.6427   -1.1317 H   0  0  0  0  0  0  0  0  0  0  0  0
    5.5875    1.2649    2.5343 H   0  0  0  0  0  0  0  0  0  0  0  0
    7.2911    1.6451    2.2425 H   0  0  0  0  0  0  0  0  0  0  0  0
    6.7289   -0.0244    2.0264 H   0  0  0  0  0  0  0  0  0  0  0  0
    0.5283   -4.2553   -2.4249 H   0  0  0  0  0  0  0  0  0  0  0  0
    1.4090   -3.0373   -3.3769 H   0  0  0  0  0  0  0  0  0  0  0  0
    0.2048   -4.0673   -4.1627 H   0  0  0  0  0  0  0  0  0  0  0  0
  1  2  1  0
  2  3  2  0
  3  4  1  0
  4  5  1  0
  5  6  1  0
  6  7  2  0
  7  8  1  0
  8  9  2  0
  9 10  1  0
 10 11  2  0
 11 12  1  0
  4 13  2  0
 13 14  1  0
 14 15  2  3
 15 16  1  0
 16 17  1  0
 17 18  1  0
 18 19  1  0
 19 20  1  0
 14 21  1  0
 21 22  2  0
 22 23  1  0
 23 24  1  0
 23  1  1  0
 22  3  1  0
 11  6  1  0
  1 25  1  0
  2 26  1  0
  5 27  1  0
  7 28  1  0
  8 29  1  0
  9 30  1  0
 10 31  1  0
 12 32  1  0
 16 33  1  0
 16 34  1  0
 17 35  1  0
 17 36  1  0
 18 37  1  0
 18 38  1  0
 20 39  1  0
 20 40  1  0
 20 41  1  0
 24 42  1  0
 24 43  1  0
 24 44  1  0
M  END
>  <ScrubInfo>  (7) 
{"isomerGroup": 0, "isomerId": 6, "confId": 0, "nr_conformers:": 1, "nr_isomers:": 9}

$$$$
_i7
     RDKit          3D

 44 46  0  0  0  0  0  0  0  0999 V2000
   -2.0214   -1.9886    1.5189 N   0  0  0  0  0  0  0  0  0  0  0  0
   -2.4823   -0.9438    0.7245 C   0  0  0  0  0  0  0  0  0  0  0  0
   -1.5289   -0.3818   -0.0320 C   0  0  0  0  0  0  0  0  0  0  0  0
   -1.3666    0.6642   -1.0608 C   0  0  0  0  0  0  0  0  0  0  0  0
   -2.2417    1.4981   -1.5383 N   0  0  0  0  0  0  0  0  0  0  0  0
   -3.5467    1.5396   -1.0277 C   0  0  0  0  0  0  0  0  0  0  0  0
   -4.5836    0.9637   -1.7671 C   0  0  0  0  0  0  0  0  0  0  0  0
   -5.9021    1.0247   -1.3098 C   0  0  0  0  0  0  0  0  0  0  0  0
   -6.1965    1.6772   -0.1125 C   0  0  0  0  0  0  0  0  0  0  0  0
   -5.1761    2.2740    0.6289 C   0  0  0  0  0  0  0  0  0  0  0  0
   -3.8608    2.2077    0.1676 C   0  0  0  0  0  0  0  0  0  0  0  0
   -2.8530    2.7812    0.8974 O   0  0  0  0  0  0  0  0  0  0  0  0
   -0.0906    0.7049   -1.5550 N   0  0  0  0  0  0  0  0  0  0  0  0
    0.9752   -0.0585   -1.1734 C   0  0  0  0  0  0  0  0  0  0  0  0
    2.1127    0.1385   -1.7558 N   0  0  0  0  0  0  0  0  0  0  0  0
    3.2583   -0.6809   -1.3572 C   0  0  0  0  0  0  0  0  0  0  0  0
    4.0024   -0.0122   -0.2056 C   0  0  0  0  0  0  0  0  0  0  0  0
    5.2471   -0.8064    0.1774 C   0  0  0  0  0  0  0  0  0  0  0  0
    5.8901   -0.2732    1.3361 O   0  0  0  0  0  0  0  0  0  0  0  0
    6.6256    0.9144    1.0758 C   0  0  0  0  0  0  0  0  0  0  0  0
    0.8603   -1.0124   -0.1852 N   0  0  0  0  0  0  0  0  0  0  0  0
   -0.3033   -1.1593    0.3684 C   0  0  0  0  0  0  0  0  0  0  0  0
   -0.6408   -2.0478    1.3923 N   0  0  0  0  0  0  0  0  0  0  0  0
    0.0291   -3.3268    1.5257 C   0  0  0  0  0  0  0  0  0  0  0  0
   -2.3814   -1.9529    2.4752 H   0  0  0  0  0  0  0  0  0  0  0  0
   -3.5291   -0.6852    0.7787 H   0  0  0  0  0  0  0  0  0  0  0  0
   -4.3584    0.4710   -2.7092 H   0  0  0  0  0  0  0  0  0  0  0  0
   -6.6986    0.5712   -1.8945 H   0  0  0  0  0  0  0  0  0  0  0  0
   -7.2246    1.7270    0.2382 H   0  0  0  0  0  0  0  0  0  0  0  0
   -5.4207    2.7800    1.5575 H   0  0  0  0  0  0  0  0  0  0  0  0
   -3.2441    3.3742    1.5580 H   0  0  0  0  0  0  0  0  0  0  0  0
    0.1006    1.4027   -2.2573 H   0  0  0  0  0  0  0  0  0  0  0  0
    3.9253   -0.7574   -2.2243 H   0  0  0  0  0  0  0  0  0  0  0  0
    2.9781   -1.7118   -1.1093 H   0  0  0  0  0  0  0  0  0  0  0  0
    3.3514    0.0918    0.6709 H   0  0  0  0  0  0  0  0  0  0  0  0
    4.2762    1.0099   -0.4916 H   0  0  0  0  0  0  0  0  0  0  0  0
    5.9589   -0.8646   -0.6547 H   0  0  0  0  0  0  0  0  0  0  0  0
    4.9590   -1.8334    0.4278 H   0  0  0  0  0  0  0  0  0  0  0  0
    7.1627    1.1887    1.9880 H   0  0  0  0  0  0  0  0  0  0  0  0
    5.9578    1.7391    0.8139 H   0  0  0  0  0  0  0  0  0  0  0  0
    7.3577    0.7510    0.2793 H   0  0  0  0  0  0  0  0  0  0  0  0
   -0.1867   -3.9702    0.6664 H   0  0  0  0  0  0  0  0  0  0  0  0
   -0.3034   -3.8380    2.4350 H   0  0  0  0  0  0  0  0  0  0  0  0
    1.1128   -3.1895    1.5979 H   0  0  0  0  0  0  0  0  0  0  0  0
  1  2  1  0
  2  3  2  0
  3  4  1  0
  4  5  2  3
  5  6  1  0
  6  7  2  0
  7  8  1  0
  8  9  2  0
  9 10  1  0
 10 11  2  0
 11 12  1  0
  4 13  1  0
 13 14  1  0
 14 15  2  3
 15 16  1  0
 16 17  1  0
 17 18  1  0
 18 19  1  0
 19 20  1  0
 14 21  1  0
 21 22  2  0
 22 23  1  0
 23 24  1  0
 23  1  1  0
 22  3  1  0
 11  6  1  0
  1 25  1  0
  2 26  1  0
  7 27  1  0
  8 28  1  0
  9 29  1  0
 10 30  1  0
 12 31  1  0
 13 32  1  0
 16 33  1  0
 16 34  1  0
 17 35  1  0
 17 36  1  0
 18 37  1  0
 18 38  1  0
 20 39  1  0
 20 40  1  0
 20 41  1  0
 24 42  1  0
 24 43  1  0
 24 44  1  0
M  END
>  <ScrubInfo>  (8) 
{"isomerGroup": 0, "isomerId": 7, "confId": 0, "nr_conformers:": 1, "nr_isomers:": 9}

$$$$
_i8
     RDKit          3D

 44 46  0  0  0  0  0  0  0  0999 V2000
    0.7733   -1.0440    0.4158 N   0  0  0  0  0  0  0  0  0  0  0  0
    0.9655    0.3057    0.6557 C   0  0  0  0  0  0  0  0  0  0  0  0
    2.0694    0.9164    0.9266 N   0  0  0  0  0  0  0  0  0  0  0  0
    3.3005    0.1316    0.9958 C   0  0  0  0  0  0  0  0  0  0  0  0
    4.4865    1.0857    1.1401 C   0  0  0  0  0  0  0  0  0  0  0  0
    4.8052    1.8168   -0.1634 C   0  0  0  0  0  0  0  0  0  0  0  0
    5.2332    0.9104   -1.1832 O   0  0  0  0  0  0  0  0  0  0  0  0
    6.6266    0.6348   -1.1323 C   0  0  0  0  0  0  0  0  0  0  0  0
   -0.1973    1.0420    0.5913 N   0  0  0  0  0  0  0  0  0  0  0  0
   -1.5034    0.6781    0.3446 C   0  0  0  0  0  0  0  0  0  0  0  0
   -2.4581    1.5614    0.3588 N   0  0  0  0  0  0  0  0  0  0  0  0
   -3.8006    1.2092    0.1665 C   0  0  0  0  0  0  0  0  0  0  0  0
   -4.5854    0.7544    1.2285 C   0  0  0  0  0  0  0  0  0  0  0  0
   -5.9281    0.4260    1.0194 C   0  0  0  0  0  0  0  0  0  0  0  0
   -6.4962    0.5676   -0.2492 C   0  0  0  0  0  0  0  0  0  0  0  0
   -5.7295    1.0503   -1.3096 C   0  0  0  0  0  0  0  0  0  0  0  0
   -4.3975    1.3777   -1.0896 C   0  0  0  0  0  0  0  0  0  0  0  0
   -3.6655    1.8797   -2.1312 O   0  0  0  0  0  0  0  0  0  0  0  0
   -1.6013   -0.7483    0.0824 C   0  0  0  0  0  0  0  0  0  0  0  0
   -2.6052   -1.6703   -0.2696 C   0  0  0  0  0  0  0  0  0  0  0  0
   -2.1407   -2.9219   -0.4017 N   0  0  0  0  0  0  0  0  0  0  0  0
   -0.8204   -2.8048   -0.1462 N   0  0  0  0  0  0  0  0  0  0  0  0
    0.0185   -3.9744   -0.2216 C   0  0  0  0  0  0  0  0  0  0  0  0
   -0.4614   -1.5228    0.1381 C   0  0  0  0  0  0  0  0  0  0  0  0
    1.5940   -1.6341    0.4286 H   0  0  0  0  0  0  0  0  0  0  0  0
    3.2653   -0.5175    1.8788 H   0  0  0  0  0  0  0  0  0  0  0  0
    3.4311   -0.4984    0.1087 H   0  0  0  0  0  0  0  0  0  0  0  0
    4.2791    1.8218    1.9258 H   0  0  0  0  0  0  0  0  0  0  0  0
    5.3576    0.5026    1.4578 H   0  0  0  0  0  0  0  0  0  0  0  0
    5.5663    2.5883    0.0029 H   0  0  0  0  0  0  0  0  0  0  0  0
    3.9107    2.3263   -0.5371 H   0  0  0  0  0  0  0  0  0  0  0  0
    6.9005    0.1642   -0.1844 H   0  0  0  0  0  0  0  0  0  0  0  0
    6.8676   -0.0577   -1.9435 H   0  0  0  0  0  0  0  0  0  0  0  0
    7.2039    1.5528   -1.2785 H   0  0  0  0  0  0  0  0  0  0  0  0
   -0.0650    2.0241    0.7853 H   0  0  0  0  0  0  0  0  0  0  0  0
   -4.1506    0.6522    2.2187 H   0  0  0  0  0  0  0  0  0  0  0  0
   -6.5325    0.0633    1.8472 H   0  0  0  0  0  0  0  0  0  0  0  0
   -7.5410    0.3127   -0.4089 H   0  0  0  0  0  0  0  0  0  0  0  0
   -6.1672    1.1800   -2.2946 H   0  0  0  0  0  0  0  0  0  0  0  0
   -2.8170    2.1494   -1.7282 H   0  0  0  0  0  0  0  0  0  0  0  0
   -3.6595   -1.5046   -0.4447 H   0  0  0  0  0  0  0  0  0  0  0  0
    0.3768   -4.0698   -1.2493 H   0  0  0  0  0  0  0  0  0  0  0  0
    0.8588   -3.8635    0.4675 H   0  0  0  0  0  0  0  0  0  0  0  0
   -0.5669   -4.8536    0.0605 H   0  0  0  0  0  0  0  0  0  0  0  0
  1  2  1  0
  2  3  2  3
  3  4  1  0
  4  5  1  0
  5  6  1  0
  6  7  1  0
  7  8  1  0
  2  9  1  0
  9 10  1  0
 10 11  2  3
 11 12  1  0
 12 13  2  0
 13 14  1  0
 14 15  2  0
 15 16  1  0
 16 17  2  0
 17 18  1  0
 10 19  1  0
 19 20  1  0
 20 21  2  0
 21 22  1  0
 22 23  1  0
 22 24  1  0
 24  1  1  0
 17 12  1  0
 24 19  2  0
  1 25  1  0
  4 26  1  0
  4 27  1  0
  5 28  1  0
  5 29  1  0
  6 30  1  0
  6 31  1  0
  8 32  1  0
  8 33  1  0
  8 34  1  0
  9 35  1  0
 13 36  1  0
 14 37  1  0
 15 38  1  0
 16 39  1  0
 18 40  1  0
 20 41  1  0
 23 42  1  0
 23 43  1  0
 23 44  1  0
M  END
>  <ScrubInfo>  (9) 
{"isomerGroup": 0, "isomerId": 8, "confId": 0, "nr_conformers:": 1, "nr_isomers:": 9}

$$$$
