_i0
     RDKit          3D

 52 54  0  0  0  0  0  0  0  0999 V2000
    8.3360    2.0073    1.7091 C   0  0  0  0  0  0  0  0  0  0  0  0
    7.1812    1.4449    0.9034 C   0  0  0  0  0  0  0  0  0  0  0  0
    6.6528    0.3213    1.6036 O   0  0  0  0  0  0  0  0  0  0  0  0
    5.5828   -0.3256    0.9163 C   0  0  0  0  0  0  0  0  0  0  0  0
    4.2591    0.3986    1.1398 C   0  0  0  0  0  0  0  0  0  0  0  0
    3.1021   -0.3632    0.4982 C   0  0  0  0  0  0  0  0  0  0  0  0
    1.8614    0.3540    0.7359 N   0  0  0  0  0  0  0  0  0  0  0  0
    0.7446   -0.1928    0.1134 C   0  0  0  0  0  0  0  0  0  0  0  0
   -0.1620    0.7135   -0.2972 N   0  0  0  0  0  0  0  0  0  0  0  0
   -1.3046    0.3072   -0.9066 C   0  0  0  0  0  0  0  0  0  0  0  0
   -2.2059    1.3153   -1.2980 N   0  0  0  0  0  0  0  0  0  0  0  0
   -3.6133    1.1938   -1.2981 C   0  0  0  0  0  0  0  0  0  0  0  0
   -4.2634    1.3980   -2.5207 C   0  0  0  0  0  0  0  0  0  0  0  0
   -5.6474    1.3072   -2.6153 C   0  0  0  0  0  0  0  0  0  0  0  0
   -6.4041    0.9988   -1.4851 C   0  0  0  0  0  0  0  0  0  0  0  0
   -8.2905    0.9190   -1.7259 Br  0  0  0  0  0  0  0  0  0  0  0  0
   -5.7861    0.7833   -0.2363 C   0  0  0  0  0  0  0  0  0  0  0  0
   -6.6121    0.4399    0.9805 C   0  0  0  0  0  0  0  0  0  0  0  0
   -4.3756    0.9490   -0.1309 C   0  0  0  0  0  0  0  0  0  0  0  0
   -3.6956    0.8324    1.2141 C   0  0  0  0  0  0  0  0  0  0  0  0
   -1.4884   -1.0630   -1.1030 C   0  0  0  0  0  0  0  0  0  0  0  0
   -2.4414   -1.9376   -1.6646 C   0  0  0  0  0  0  0  0  0  0  0  0
   -2.0861   -3.2249   -1.5705 N   0  0  0  0  0  0  0  0  0  0  0  0
   -0.8914   -3.1691   -0.9379 N   0  0  0  0  0  0  0  0  0  0  0  0
   -0.1871   -4.3918   -0.6454 C   0  0  0  0  0  0  0  0  0  0  0  0
   -0.4874   -1.8957   -0.6439 C   0  0  0  0  0  0  0  0  0  0  0  0
    0.6462   -1.5210   -0.0330 N   0  0  0  0  0  0  0  0  0  0  0  0
    8.7769    2.8731    1.2071 H   0  0  0  0  0  0  0  0  0  0  0  0
    7.9990    2.3104    2.7059 H   0  0  0  0  0  0  0  0  0  0  0  0
    9.1123    1.2484    1.8522 H   0  0  0  0  0  0  0  0  0  0  0  0
    6.4117    2.2130    0.7814 H   0  0  0  0  0  0  0  0  0  0  0  0
    7.5373    1.1322   -0.0842 H   0  0  0  0  0  0  0  0  0  0  0  0
    5.5153   -1.3390    1.3270 H   0  0  0  0  0  0  0  0  0  0  0  0
    5.8158   -0.4231   -0.1506 H   0  0  0  0  0  0  0  0  0  0  0  0
    4.3081    1.4144    0.7304 H   0  0  0  0  0  0  0  0  0  0  0  0
    4.0858    0.5229    2.2163 H   0  0  0  0  0  0  0  0  0  0  0  0
    3.0517   -1.3692    0.9330 H   0  0  0  0  0  0  0  0  0  0  0  0
    3.2850   -0.4630   -0.5794 H   0  0  0  0  0  0  0  0  0  0  0  0
    1.8641    1.3360    0.4804 H   0  0  0  0  0  0  0  0  0  0  0  0
   -1.9042    2.1626   -0.8210 H   0  0  0  0  0  0  0  0  0  0  0  0
   -3.6813    1.6238   -3.4117 H   0  0  0  0  0  0  0  0  0  0  0  0
   -6.1251    1.4744   -3.5774 H   0  0  0  0  0  0  0  0  0  0  0  0
   -6.9800    1.3551    1.4542 H   0  0  0  0  0  0  0  0  0  0  0  0
   -6.0377   -0.1339    1.7141 H   0  0  0  0  0  0  0  0  0  0  0  0
   -7.4602   -0.2034    0.7288 H   0  0  0  0  0  0  0  0  0  0  0  0
   -2.7546    1.3889    1.2495 H   0  0  0  0  0  0  0  0  0  0  0  0
   -4.3113    1.2698    2.0068 H   0  0  0  0  0  0  0  0  0  0  0  0
   -3.4977   -0.2183    1.4465 H   0  0  0  0  0  0  0  0  0  0  0  0
   -3.3825   -1.6901   -2.1387 H   0  0  0  0  0  0  0  0  0  0  0  0
    0.7512   -4.1704   -0.1320 H   0  0  0  0  0  0  0  0  0  0  0  0
    0.0188   -4.9039   -1.5887 H   0  0  0  0  0  0  0  0  0  0  0  0
   -0.8221   -5.0098   -0.0057 H   0  0  0  0  0  0  0  0  0  0  0  0
  1  2  1  0
  2  3  1  0
  3  4  1  0
  4  5  1  0
  5  6  1  0
  6  7  1  0
  7  8  1  0
  8  9  2  0
  9 10  1  0
 10 11  1  0
 11 12  1  0
 12 13  2  0
 13 14  1  0
 14 15  2  0
 15 16  1  0
 15 17  1  0
 17 18  1  0
 17 19  2  0
 19 20  1  0
 10 21  2  0
 21 22  1  0
 22 23  2  0
 23 24  1  0
 24 25  1  0
 24 26  1  0
 26 27  2  0
 27  8  1  0
 19 12  1  0
 26 21  1  0
  1 28  1  0
  1 29  1  0
  1 30  1  0
  2 31  1  0
  2 32  1  0
  4 33  1  0
  4 34  1  0
  5 35  1  0
  5 36  1  0
  6 37  1  0
  6 38  1  0
  7 39  1  0
 11 40  1  0
 13 41  1  0
 14 42  1  0
 18 43  1  0
 18 44  1  0
 18 45  1  0
 20 46  1  0
 20 47  1  0
 20 48  1  0
 22 49  1  0
 25 50  1  0
 25 51  1  0
 25 52  1  0
M  END
>  <ScrubInfo>  (1) 
{"isomerGroup": 0, "isomerId": 0, "confId": 0, "nr_conformers:": 1, "nr_isomers:": 9}

$$$$
_i1
     RDKit          3D

 52 54  0  0  0  0  0  0  0  0999 V2000
    0.1717    0.3272    0.1102 N   0  0  0  0  0  0  0  0  0  0  0  0
   -1.1122    0.2897   -0.4100 C   0  0  0  0  0  0  0  0  0  0  0  0
   -1.9361    1.4015   -0.2765 N   0  0  0  0  0  0  0  0  0  0  0  0
   -3.3514    1.3477   -0.2209 C   0  0  0  0  0  0  0  0  0  0  0  0
   -4.0459    2.0931   -1.1813 C   0  0  0  0  0  0  0  0  0  0  0  0
   -5.4357    2.1259   -1.1881 C   0  0  0  0  0  0  0  0  0  0  0  0
   -6.1545    1.4081   -0.2325 C   0  0  0  0  0  0  0  0  0  0  0  0
   -8.0508    1.5395   -0.3253 Br  0  0  0  0  0  0  0  0  0  0  0  0
   -5.4911    0.6521    0.7556 C   0  0  0  0  0  0  0  0  0  0  0  0
   -6.2787   -0.1263    1.7831 C   0  0  0  0  0  0  0  0  0  0  0  0
   -4.0681    0.6809    0.8021 C   0  0  0  0  0  0  0  0  0  0  0  0
   -3.3331   -0.0215    1.9208 C   0  0  0  0  0  0  0  0  0  0  0  0
   -1.4420   -0.8463   -1.0413 C   0  0  0  0  0  0  0  0  0  0  0  0
   -2.5760   -1.4076   -1.7892 C   0  0  0  0  0  0  0  0  0  0  0  0
   -2.3608   -2.6272   -2.2163 N   0  0  0  0  0  0  0  0  0  0  0  0
   -1.0875   -2.9691   -1.7393 N   0  0  0  0  0  0  0  0  0  0  0  0
   -0.4184   -4.1204   -2.2957 C   0  0  0  0  0  0  0  0  0  0  0  0
   -0.4423   -1.9366   -1.0787 C   0  0  0  0  0  0  0  0  0  0  0  0
    0.7515   -1.8790   -0.5981 N   0  0  0  0  0  0  0  0  0  0  0  0
    1.0934   -0.6914    0.0043 C   0  0  0  0  0  0  0  0  0  0  0  0
    2.3090   -0.6649    0.4200 N   0  0  0  0  0  0  0  0  0  0  0  0
    2.8220    0.5248    1.0805 C   0  0  0  0  0  0  0  0  0  0  0  0
    4.2381    0.2574    1.5823 C   0  0  0  0  0  0  0  0  0  0  0  0
    5.2163   -0.0515    0.4505 C   0  0  0  0  0  0  0  0  0  0  0  0
    6.5467   -0.1582    0.9655 O   0  0  0  0  0  0  0  0  0  0  0  0
    7.2567    1.0767    1.0068 C   0  0  0  0  0  0  0  0  0  0  0  0
    7.9239    1.3557   -0.3284 C   0  0  0  0  0  0  0  0  0  0  0  0
    0.4871    1.2094    0.4744 H   0  0  0  0  0  0  0  0  0  0  0  0
   -1.5978    2.0381    0.4410 H   0  0  0  0  0  0  0  0  0  0  0  0
   -3.4970    2.6460   -1.9408 H   0  0  0  0  0  0  0  0  0  0  0  0
   -5.9490    2.7119   -1.9466 H   0  0  0  0  0  0  0  0  0  0  0  0
   -6.5506    0.5251    2.6192 H   0  0  0  0  0  0  0  0  0  0  0  0
   -5.7142   -0.9810    2.1680 H   0  0  0  0  0  0  0  0  0  0  0  0
   -7.1853   -0.5635    1.3545 H   0  0  0  0  0  0  0  0  0  0  0  0
   -2.3444    0.4110    2.0993 H   0  0  0  0  0  0  0  0  0  0  0  0
   -3.8649    0.0887    2.8715 H   0  0  0  0  0  0  0  0  0  0  0  0
   -3.2208   -1.0849    1.6891 H   0  0  0  0  0  0  0  0  0  0  0  0
   -3.4869   -0.8275   -1.9756 H   0  0  0  0  0  0  0  0  0  0  0  0
   -1.1354   -4.9203   -2.5075 H   0  0  0  0  0  0  0  0  0  0  0  0
    0.3249   -4.5161   -1.5962 H   0  0  0  0  0  0  0  0  0  0  0  0
    0.0877   -3.8531   -3.2285 H   0  0  0  0  0  0  0  0  0  0  0  0
    2.8336    1.3754    0.3886 H   0  0  0  0  0  0  0  0  0  0  0  0
    2.1960    0.7874    1.9416 H   0  0  0  0  0  0  0  0  0  0  0  0
    4.2387   -0.5793    2.2925 H   0  0  0  0  0  0  0  0  0  0  0  0
    4.5848    1.1291    2.1493 H   0  0  0  0  0  0  0  0  0  0  0  0
    5.1620    0.7000   -0.3447 H   0  0  0  0  0  0  0  0  0  0  0  0
    4.9717   -1.0208    0.0037 H   0  0  0  0  0  0  0  0  0  0  0  0
    8.0300    0.9770    1.7755 H   0  0  0  0  0  0  0  0  0  0  0  0
    6.6030    1.9040    1.3028 H   0  0  0  0  0  0  0  0  0  0  0  0
    7.1842    1.4828   -1.1245 H   0  0  0  0  0  0  0  0  0  0  0  0
    8.5327    2.2628   -0.2739 H   0  0  0  0  0  0  0  0  0  0  0  0
    8.5650    0.5173   -0.6200 H   0  0  0  0  0  0  0  0  0  0  0  0
  1  2  1  0
  2  3  1  0
  3  4  1  0
  4  5  2  0
  5  6  1  0
  6  7  2  0
  7  8  1  0
  7  9  1  0
  9 10  1  0
  9 11  2  0
 11 12  1  0
  2 13  2  0
 13 14  1  0
 14 15  2  0
 15 16  1  0
 16 17  1  0
 16 18  1  0
 18 19  2  0
 19 20  1  0
 20 21  2  3
 21 22  1  0
 22 23  1  0
 23 24  1  0
 24 25  1  0
 25 26  1  0
 26 27  1  0
 20  1  1  0
 11  4  1  0
 18 13  1  0
  1 28  1  0
  3 29  1  0
  5 30  1  0
  6 31  1  0
 10 32  1  0
 10 33  1  0
 10 34  1  0
 12 35  1  0
 12 36  1  0
 12 37  1  0
 14 38  1  0
 17 39  1  0
 17 40  1  0
 17 41  1  0
 22 42  1  0
 22 43  1  0
 23 44  1  0
 23 45  1  0
 24 46  1  0
 24 47  1  0
 26 48  1  0
 26 49  1  0
 27 50  1  0
 27 51  1  0
 27 52  1  0
M  END
>  <ScrubInfo>  (2) 
{"isomerGroup": 0, "isomerId": 1, "confId": 0, "nr_conformers:": 1, "nr_isomers:": 9}

$$$$
_i2
     RDKit          3D

 52 54  0  0  0  0  0  0  0  0999 V2000
    0.4720    0.2336    0.2858 N   0  0  0  0  0  0  0  0  0  0  0  0
    1.2132   -0.8350    0.7296 C   0  0  0  0  0  0  0  0  0  0  0  0
    2.4995   -0.4907    1.0383 N   0  0  0  0  0  0  0  0  0  0  0  0
    3.4943   -1.5048    1.3503 C   0  0  0  0  0  0  0  0  0  0  0  0
    4.8599   -0.8550    1.5827 C   0  0  0  0  0  0  0  0  0  0  0  0
    5.4681   -0.2814    0.3027 C   0  0  0  0  0  0  0  0  0  0  0  0
    4.6166    0.7461   -0.2143 O   0  0  0  0  0  0  0  0  0  0  0  0
    5.1113    1.3278   -1.4216 C   0  0  0  0  0  0  0  0  0  0  0  0
    6.1719    2.3759   -1.1373 C   0  0  0  0  0  0  0  0  0  0  0  0
    0.7360   -2.0462    0.8568 N   0  0  0  0  0  0  0  0  0  0  0  0
   -0.5722   -2.1152    0.4808 C   0  0  0  0  0  0  0  0  0  0  0  0
   -1.3956   -1.0969    0.0244 C   0  0  0  0  0  0  0  0  0  0  0  0
   -2.6272   -1.7298   -0.2193 C   0  0  0  0  0  0  0  0  0  0  0  0
   -2.6017   -3.0402    0.0567 N   0  0  0  0  0  0  0  0  0  0  0  0
   -1.3365   -3.2477    0.4873 N   0  0  0  0  0  0  0  0  0  0  0  0
   -0.9354   -4.5728    0.8868 C   0  0  0  0  0  0  0  0  0  0  0  0
   -0.8534    0.2436   -0.0807 C   0  0  0  0  0  0  0  0  0  0  0  0
   -1.4512    1.3387   -0.4420 N   0  0  0  0  0  0  0  0  0  0  0  0
   -2.8014    1.3617   -0.8071 C   0  0  0  0  0  0  0  0  0  0  0  0
   -3.1179    1.2294   -2.1615 C   0  0  0  0  0  0  0  0  0  0  0  0
   -4.4413    1.2727   -2.5872 C   0  0  0  0  0  0  0  0  0  0  0  0
   -5.4676    1.4438   -1.6567 C   0  0  0  0  0  0  0  0  0  0  0  0
   -7.2393    1.5126   -2.3488 Br  0  0  0  0  0  0  0  0  0  0  0  0
   -5.1862    1.5754   -0.2812 C   0  0  0  0  0  0  0  0  0  0  0  0
   -6.3048    1.7579    0.7155 C   0  0  0  0  0  0  0  0  0  0  0  0
   -3.8277    1.5844    0.1387 C   0  0  0  0  0  0  0  0  0  0  0  0
   -3.4690    1.7914    1.5906 C   0  0  0  0  0  0  0  0  0  0  0  0
    0.8967    1.1450    0.3330 H   0  0  0  0  0  0  0  0  0  0  0  0
    2.9009    0.2465    0.4558 H   0  0  0  0  0  0  0  0  0  0  0  0
    3.1940   -2.0379    2.2595 H   0  0  0  0  0  0  0  0  0  0  0  0
    3.5618   -2.2356    0.5359 H   0  0  0  0  0  0  0  0  0  0  0  0
    4.7574   -0.0547    2.3260 H   0  0  0  0  0  0  0  0  0  0  0  0
    5.5462   -1.6047    1.9926 H   0  0  0  0  0  0  0  0  0  0  0  0
    6.4547    0.1333    0.5325 H   0  0  0  0  0  0  0  0  0  0  0  0
    5.5834   -1.0733   -0.4462 H   0  0  0  0  0  0  0  0  0  0  0  0
    5.4844    0.5538   -2.1015 H   0  0  0  0  0  0  0  0  0  0  0  0
    4.2594    1.8108   -1.9113 H   0  0  0  0  0  0  0  0  0  0  0  0
    5.8033    3.1112   -0.4146 H   0  0  0  0  0  0  0  0  0  0  0  0
    6.4562    2.8954   -2.0570 H   0  0  0  0  0  0  0  0  0  0  0  0
    7.0717    1.9263   -0.7073 H   0  0  0  0  0  0  0  0  0  0  0  0
   -3.5536   -1.3111   -0.5862 H   0  0  0  0  0  0  0  0  0  0  0  0
   -1.0135   -5.2311    0.0178 H   0  0  0  0  0  0  0  0  0  0  0  0
   -1.6047   -4.9101    1.6824 H   0  0  0  0  0  0  0  0  0  0  0  0
    0.0938   -4.5618    1.2519 H   0  0  0  0  0  0  0  0  0  0  0  0
   -2.3214    1.0968   -2.8892 H   0  0  0  0  0  0  0  0  0  0  0  0
   -4.6607    1.1740   -3.6472 H   0  0  0  0  0  0  0  0  0  0  0  0
   -7.1500    1.1003    0.4901 H   0  0  0  0  0  0  0  0  0  0  0  0
   -6.6418    2.7992    0.7136 H   0  0  0  0  0  0  0  0  0  0  0  0
   -6.0041    1.4922    1.7328 H   0  0  0  0  0  0  0  0  0  0  0  0
   -4.0449    2.6198    2.0163 H   0  0  0  0  0  0  0  0  0  0  0  0
   -3.6661    0.8767    2.1584 H   0  0  0  0  0  0  0  0  0  0  0  0
   -2.4174    2.0595    1.7296 H   0  0  0  0  0  0  0  0  0  0  0  0
  1  2  1  0
  2  3  1  0
  3  4  1  0
  4  5  1  0
  5  6  1  0
  6  7  1  0
  7  8  1  0
  8  9  1  0
  2 10  2  0
 10 11  1  0
 11 12  2  0
 12 13  1  0
 13 14  2  0
 14 15  1  0
 15 16  1  0
 12 17  1  0
 17 18  2  3
 18 19  1  0
 19 20  2  0
 20 21  1  0
 21 22  2  0
 22 23  1  0
 22 24  1  0
 24 25  1  0
 24 26  2  0
 26 27  1  0
 17  1  1  0
 26 19  1  0
 15 11  1  0
  1 28  1  0
  3 29  1  0
  4 30  1  0
  4 31  1  0
  5 32  1  0
  5 33  1  0
  6 34  1  0
  6 35  1  0
  8 36  1  0
  8 37  1  0
  9 38  1  0
  9 39  1  0
  9 40  1  0
 13 41  1  0
 16 42  1  0
 16 43  1  0
 16 44  1  0
 20 45  1  0
 21 46  1  0
 25 47  1  0
 25 48  1  0
 25 49  1  0
 27 50  1  0
 27 51  1  0
 27 52  1  0
M  END
>  <ScrubInfo>  (3) 
{"isomerGroup": 0, "isomerId": 2, "confId": 0, "nr_conformers:": 1, "nr_isomers:": 9}

$$$$
_i3
     RDKit          3D

 52 54  0  0  0  0  0  0  0  0999 V2000
    0.8714   -2.0730    0.2683 N   0  0  0  0  0  0  0  0  0  0  0  0
    1.0160   -0.9709    1.0948 C   0  0  0  0  0  0  0  0  0  0  0  0
    2.1206   -0.4683    1.5154 N   0  0  0  0  0  0  0  0  0  0  0  0
    3.4088   -1.0570    1.1678 C   0  0  0  0  0  0  0  0  0  0  0  0
    3.9279   -0.4622   -0.1409 C   0  0  0  0  0  0  0  0  0  0  0  0
    4.3813    0.9854    0.0239 C   0  0  0  0  0  0  0  0  0  0  0  0
    5.5894    1.0044    0.7862 O   0  0  0  0  0  0  0  0  0  0  0  0
    6.0178    2.3232    1.1178 C   0  0  0  0  0  0  0  0  0  0  0  0
    5.3173    2.8255    2.3678 C   0  0  0  0  0  0  0  0  0  0  0  0
   -0.0910   -0.2702    1.5512 N   0  0  0  0  0  0  0  0  0  0  0  0
   -1.2896   -0.6388    1.1934 C   0  0  0  0  0  0  0  0  0  0  0  0
   -2.4115    0.0217    1.6311 N   0  0  0  0  0  0  0  0  0  0  0  0
   -3.4736    0.4377    0.7869 C   0  0  0  0  0  0  0  0  0  0  0  0
   -4.7706    0.1935    1.2581 C   0  0  0  0  0  0  0  0  0  0  0  0
   -5.8835    0.5814    0.5210 C   0  0  0  0  0  0  0  0  0  0  0  0
   -5.7172    1.2217   -0.7062 C   0  0  0  0  0  0  0  0  0  0  0  0
   -7.3095    1.7183   -1.6229 Br  0  0  0  0  0  0  0  0  0  0  0  0
   -4.4296    1.5010   -1.2075 C   0  0  0  0  0  0  0  0  0  0  0  0
   -4.2563    2.1906   -2.5401 C   0  0  0  0  0  0  0  0  0  0  0  0
   -3.2951    1.1732   -0.4099 C   0  0  0  0  0  0  0  0  0  0  0  0
   -1.9122    1.5959   -0.8506 C   0  0  0  0  0  0  0  0  0  0  0  0
   -1.4822   -1.7953    0.3489 C   0  0  0  0  0  0  0  0  0  0  0  0
   -2.5473   -2.5215   -0.2057 C   0  0  0  0  0  0  0  0  0  0  0  0
   -2.1279   -3.5627   -0.9426 N   0  0  0  0  0  0  0  0  0  0  0  0
   -0.7779   -3.5044   -0.8475 N   0  0  0  0  0  0  0  0  0  0  0  0
    0.0140   -4.5006   -1.5227 C   0  0  0  0  0  0  0  0  0  0  0  0
   -0.3671   -2.4619   -0.0793 C   0  0  0  0  0  0  0  0  0  0  0  0
    1.7107   -2.5389   -0.0391 H   0  0  0  0  0  0  0  0  0  0  0  0
    4.1123   -0.8577    1.9843 H   0  0  0  0  0  0  0  0  0  0  0  0
    3.3536   -2.1487    1.0943 H   0  0  0  0  0  0  0  0  0  0  0  0
    3.1520   -0.5144   -0.9129 H   0  0  0  0  0  0  0  0  0  0  0  0
    4.7780   -1.0662   -0.4799 H   0  0  0  0  0  0  0  0  0  0  0  0
    3.6020    1.5854    0.5042 H   0  0  0  0  0  0  0  0  0  0  0  0
    4.5900    1.4128   -0.9634 H   0  0  0  0  0  0  0  0  0  0  0  0
    7.0938    2.2697    1.3130 H   0  0  0  0  0  0  0  0  0  0  0  0
    5.8703    3.0063    0.2736 H   0  0  0  0  0  0  0  0  0  0  0  0
    5.7218    3.7948    2.6733 H   0  0  0  0  0  0  0  0  0  0  0  0
    5.4429    2.1144    3.1908 H   0  0  0  0  0  0  0  0  0  0  0  0
    4.2415    2.9383    2.2049 H   0  0  0  0  0  0  0  0  0  0  0  0
   -2.1198    0.8122    2.2029 H   0  0  0  0  0  0  0  0  0  0  0  0
   -4.9155   -0.3218    2.2058 H   0  0  0  0  0  0  0  0  0  0  0  0
   -6.8769    0.3729    0.9106 H   0  0  0  0  0  0  0  0  0  0  0  0
   -4.2788    3.2764   -2.4066 H   0  0  0  0  0  0  0  0  0  0  0  0
   -3.3144    1.9081   -3.0208 H   0  0  0  0  0  0  0  0  0  0  0  0
   -5.0294    1.8992   -3.2567 H   0  0  0  0  0  0  0  0  0  0  0  0
   -1.9368    2.5449   -1.3956 H   0  0  0  0  0  0  0  0  0  0  0  0
   -1.4654    0.8278   -1.4885 H   0  0  0  0  0  0  0  0  0  0  0  0
   -1.2585    1.7876    0.0051 H   0  0  0  0  0  0  0  0  0  0  0  0
   -3.6113   -2.3486   -0.1133 H   0  0  0  0  0  0  0  0  0  0  0  0
   -0.2222   -5.4770   -1.0924 H   0  0  0  0  0  0  0  0  0  0  0  0
    1.0763   -4.2843   -1.3921 H   0  0  0  0  0  0  0  0  0  0  0  0
   -0.2383   -4.4798   -2.5860 H   0  0  0  0  0  0  0  0  0  0  0  0
  1  2  1  0
  2  3  2  3
  3  4  1  0
  4  5  1  0
  5  6  1  0
  6  7  1  0
  7  8  1  0
  8  9  1  0
  2 10  1  0
 10 11  2  0
 11 12  1  0
 12 13  1  0
 13 14  2  0
 14 15  1  0
 15 16  2  0
 16 17  1  0
 16 18  1  0
 18 19  1  0
 18 20  2  0
 20 21  1  0
 11 22  1  0
 22 23  1  0
 23 24  2  0
 24 25  1  0
 25 26  1  0
 25 27  1  0
 27  1  1  0
 20 13  1  0
 27 22  2  0
  1 28  1  0
  4 29  1  0
  4 30  1  0
  5 31  1  0
  5 32  1  0
  6 33  1  0
  6 34  1  0
  8 35  1  0
  8 36  1  0
  9 37  1  0
  9 38  1  0
  9 39  1  0
 12 40  1  0
 14 41  1  0
 15 42  1  0
 19 43  1  0
 19 44  1  0
 19 45  1  0
 21 46  1  0
 21 47  1  0
 21 48  1  0
 23 49  1  0
 26 50  1  0
 26 51  1  0
 26 52  1  0
M  END
>  <ScrubInfo>  (4) 
{"isomerGroup": 0, "isomerId": 3, "confId": 0, "nr_conformers:": 1, "nr_isomers:": 9}

$$$$
_i4
     RDKit          3D

 52 54  0  0  0  0  0  0  0  0999 V2000
   -1.6069    0.8586   -2.5191 N   0  0  0  0  0  0  0  0  0  0  0  0
   -2.2706    0.5833   -1.3276 C   0  0  0  0  0  0  0  0  0  0  0  0
   -1.4519    0.4818   -0.2690 C   0  0  0  0  0  0  0  0  0  0  0  0
   -1.5183    0.1930    1.1583 C   0  0  0  0  0  0  0  0  0  0  0  0
   -2.5345   -0.0206    1.9275 N   0  0  0  0  0  0  0  0  0  0  0  0
   -3.8367    0.0179    1.4177 C   0  0  0  0  0  0  0  0  0  0  0  0
   -4.5194    1.2367    1.4439 C   0  0  0  0  0  0  0  0  0  0  0  0
   -5.8196    1.3308    0.9594 C   0  0  0  0  0  0  0  0  0  0  0  0
   -6.4514    0.2017    0.4355 C   0  0  0  0  0  0  0  0  0  0  0  0
   -8.2356    0.4370   -0.1838 Br  0  0  0  0  0  0  0  0  0  0  0  0
   -5.7927   -1.0446    0.3911 C   0  0  0  0  0  0  0  0  0  0  0  0
   -6.4890   -2.2604   -0.1699 C   0  0  0  0  0  0  0  0  0  0  0  0
   -4.4840   -1.1428    0.9374 C   0  0  0  0  0  0  0  0  0  0  0  0
   -3.7610   -2.4677    0.9843 C   0  0  0  0  0  0  0  0  0  0  0  0
   -0.2944    0.1319    1.7709 N   0  0  0  0  0  0  0  0  0  0  0  0
    0.8261    0.3642    1.1526 C   0  0  0  0  0  0  0  0  0  0  0  0
    1.9568    0.2570    1.9085 N   0  0  0  0  0  0  0  0  0  0  0  0
    3.2808    0.0381    1.3626 C   0  0  0  0  0  0  0  0  0  0  0  0
    3.9289    1.3646    0.9714 C   0  0  0  0  0  0  0  0  0  0  0  0
    5.4067    1.1966    0.6378 C   0  0  0  0  0  0  0  0  0  0  0  0
    5.5491    0.2797   -0.4446 O   0  0  0  0  0  0  0  0  0  0  0  0
    6.8990    0.1151   -0.8741 C   0  0  0  0  0  0  0  0  0  0  0  0
    7.6603   -0.8324    0.0356 C   0  0  0  0  0  0  0  0  0  0  0  0
    0.9463    0.6966   -0.1684 N   0  0  0  0  0  0  0  0  0  0  0  0
   -0.1337    0.7717   -0.8623 C   0  0  0  0  0  0  0  0  0  0  0  0
   -0.2759    1.0986   -2.2114 N   0  0  0  0  0  0  0  0  0  0  0  0
    0.7497    0.7437   -3.1737 C   0  0  0  0  0  0  0  0  0  0  0  0
   -2.0731    1.5708   -3.0859 H   0  0  0  0  0  0  0  0  0  0  0  0
   -3.3451    0.4793   -1.3555 H   0  0  0  0  0  0  0  0  0  0  0  0
   -4.0308    2.1152    1.8584 H   0  0  0  0  0  0  0  0  0  0  0  0
   -6.3326    2.2882    1.0020 H   0  0  0  0  0  0  0  0  0  0  0  0
   -7.0449   -2.0161   -1.0804 H   0  0  0  0  0  0  0  0  0  0  0  0
   -7.1738   -2.6769    0.5752 H   0  0  0  0  0  0  0  0  0  0  0  0
   -5.7855   -3.0421   -0.4699 H   0  0  0  0  0  0  0  0  0  0  0  0
   -2.9081   -2.4577    1.6695 H   0  0  0  0  0  0  0  0  0  0  0  0
   -4.4261   -3.2573    1.3495 H   0  0  0  0  0  0  0  0  0  0  0  0
   -3.3942   -2.7284   -0.0134 H   0  0  0  0  0  0  0  0  0  0  0  0
    1.7668   -0.1776    2.8034 H   0  0  0  0  0  0  0  0  0  0  0  0
    3.2401   -0.6539    0.5134 H   0  0  0  0  0  0  0  0  0  0  0  0
    3.8884   -0.4471    2.1355 H   0  0  0  0  0  0  0  0  0  0  0  0
    3.8259    2.0911    1.7865 H   0  0  0  0  0  0  0  0  0  0  0  0
    3.4086    1.7809    0.1009 H   0  0  0  0  0  0  0  0  0  0  0  0
    5.9459    0.8287    1.5169 H   0  0  0  0  0  0  0  0  0  0  0  0
    5.8246    2.1686    0.3519 H   0  0  0  0  0  0  0  0  0  0  0  0
    6.8611   -0.3158   -1.8801 H   0  0  0  0  0  0  0  0  0  0  0  0
    7.4027    1.0850   -0.9528 H   0  0  0  0  0  0  0  0  0  0  0  0
    8.6529   -1.0439   -0.3727 H   0  0  0  0  0  0  0  0  0  0  0  0
    7.1166   -1.7755    0.1521 H   0  0  0  0  0  0  0  0  0  0  0  0
    7.7868   -0.4085    1.0361 H   0  0  0  0  0  0  0  0  0  0  0  0
    1.7200    1.1506   -2.8710 H   0  0  0  0  0  0  0  0  0  0  0  0
    0.8385   -0.3439   -3.2648 H   0  0  0  0  0  0  0  0  0  0  0  0
    0.5070    1.1566   -4.1582 H   0  0  0  0  0  0  0  0  0  0  0  0
  1  2  1  0
  2  3  2  0
  3  4  1  0
  4  5  2  3
  5  6  1  0
  6  7  2  0
  7  8  1  0
  8  9  2  0
  9 10  1  0
  9 11  1  0
 11 12  1  0
 11 13  2  0
 13 14  1  0
  4 15  1  0
 15 16  2  0
 16 17  1  0
 17 18  1  0
 18 19  1  0
 19 20  1  0
 20 21  1  0
 21 22  1  0
 22 23  1  0
 16 24  1  0
 24 25  2  0
 25 26  1  0
 26 27  1  0
 26  1  1  0
 25  3  1  0
 13  6  1  0
  1 28  1  0
  2 29  1  0
  7 30  1  0
  8 31  1  0
 12 32  1  0
 12 33  1  0
 12 34  1  0
 14 35  1  0
 14 36  1  0
 14 37  1  0
 17 38  1  0
 18 39  1  0
 18 40  1  0
 19 41  1  0
 19 42  1  0
 20 43  1  0
 20 44  1  0
 22 45  1  0
 22 46  1  0
 23 47  1  0
 23 48  1  0
 23 49  1  0
 27 50  1  0
 27 51  1  0
 27 52  1  0
M  END
>  <ScrubInfo>  (5) 
{"isomerGroup": 0, "isomerId": 4, "confId": 0, "nr_conformers:": 1, "nr_isomers:": 9}

$$$$
_i5
     RDKit          3D

 52 54  0  0  0  0  0  0  0  0999 V2000
   -0.7421   -2.0036    0.0695 N   0  0  0  0  0  0  0  0  0  0  0  0
   -0.7714   -1.3127    1.2547 C   0  0  0  0  0  0  0  0  0  0  0  0
   -1.9661   -1.3474    1.9148 N   0  0  0  0  0  0  0  0  0  0  0  0
   -3.2258   -0.9668    1.2802 C   0  0  0  0  0  0  0  0  0  0  0  0
   -3.2688    0.5388    1.0201 C   0  0  0  0  0  0  0  0  0  0  0  0
   -4.5318    0.9518    0.2740 C   0  0  0  0  0  0  0  0  0  0  0  0
   -5.6731    0.5609    1.0326 O   0  0  0  0  0  0  0  0  0  0  0  0
   -6.9099    0.9332    0.4263 C   0  0  0  0  0  0  0  0  0  0  0  0
   -7.2534    2.3835    0.7152 C   0  0  0  0  0  0  0  0  0  0  0  0
    0.2292   -0.6641    1.7776 N   0  0  0  0  0  0  0  0  0  0  0  0
    1.4497   -0.6209    1.1136 C   0  0  0  0  0  0  0  0  0  0  0  0
    2.3707    0.1003    1.6702 N   0  0  0  0  0  0  0  0  0  0  0  0
    3.6470    0.2450    1.1210 C   0  0  0  0  0  0  0  0  0  0  0  0
    4.6532   -0.6185    1.5620 C   0  0  0  0  0  0  0  0  0  0  0  0
    5.9489   -0.5071    1.0690 C   0  0  0  0  0  0  0  0  0  0  0  0
    6.2521    0.4717    0.1211 C   0  0  0  0  0  0  0  0  0  0  0  0
    8.0594    0.5507   -0.4705 Br  0  0  0  0  0  0  0  0  0  0  0  0
    5.2622    1.3597   -0.3483 C   0  0  0  0  0  0  0  0  0  0  0  0
    5.6029    2.4164   -1.3705 C   0  0  0  0  0  0  0  0  0  0  0  0
    3.9539    1.2738    0.2017 C   0  0  0  0  0  0  0  0  0  0  0  0
    2.8765    2.2490   -0.2080 C   0  0  0  0  0  0  0  0  0  0  0  0
    1.5453   -1.3833   -0.1213 C   0  0  0  0  0  0  0  0  0  0  0  0
    2.5246   -1.6956   -1.0816 C   0  0  0  0  0  0  0  0  0  0  0  0
    2.0625   -2.4927   -2.0589 N   0  0  0  0  0  0  0  0  0  0  0  0
    0.7702   -2.6992   -1.7202 N   0  0  0  0  0  0  0  0  0  0  0  0
   -0.0502   -3.5314   -2.5624 C   0  0  0  0  0  0  0  0  0  0  0  0
    0.4333   -2.0444   -0.5797 C   0  0  0  0  0  0  0  0  0  0  0  0
   -1.5019   -2.6491   -0.0973 H   0  0  0  0  0  0  0  0  0  0  0  0
   -1.8540   -0.8591    2.8030 H   0  0  0  0  0  0  0  0  0  0  0  0
   -4.0406   -1.2565    1.9530 H   0  0  0  0  0  0  0  0  0  0  0  0
   -3.3722   -1.5248    0.3488 H   0  0  0  0  0  0  0  0  0  0  0  0
   -3.2255    1.0639    1.9826 H   0  0  0  0  0  0  0  0  0  0  0  0
   -2.3937    0.8548    0.4404 H   0  0  0  0  0  0  0  0  0  0  0  0
   -4.5628    0.4686   -0.7094 H   0  0  0  0  0  0  0  0  0  0  0  0
   -4.5247    2.0372    0.1319 H   0  0  0  0  0  0  0  0  0  0  0  0
   -7.6831    0.2933    0.8640 H   0  0  0  0  0  0  0  0  0  0  0  0
   -6.8904    0.7335   -0.6510 H   0  0  0  0  0  0  0  0  0  0  0  0
   -7.2183    2.5808    1.7915 H   0  0  0  0  0  0  0  0  0  0  0  0
   -6.5406    3.0644    0.2408 H   0  0  0  0  0  0  0  0  0  0  0  0
   -8.2539    2.6237    0.3438 H   0  0  0  0  0  0  0  0  0  0  0  0
    4.4202   -1.3780    2.3043 H   0  0  0  0  0  0  0  0  0  0  0  0
    6.7148   -1.1861    1.4347 H   0  0  0  0  0  0  0  0  0  0  0  0
    4.7194    2.7832   -1.9004 H   0  0  0  0  0  0  0  0  0  0  0  0
    6.2561    2.0177   -2.1528 H   0  0  0  0  0  0  0  0  0  0  0  0
    6.0930    3.2648   -0.8830 H   0  0  0  0  0  0  0  0  0  0  0  0
    3.2646    3.2729   -0.2139 H   0  0  0  0  0  0  0  0  0  0  0  0
    2.0306    2.2569    0.4858 H   0  0  0  0  0  0  0  0  0  0  0  0
    2.4998    1.9932   -1.2032 H   0  0  0  0  0  0  0  0  0  0  0  0
    3.5615   -1.3927   -1.1280 H   0  0  0  0  0  0  0  0  0  0  0  0
    0.3102   -4.5599   -2.4824 H   0  0  0  0  0  0  0  0  0  0  0  0
   -1.0923   -3.4744   -2.2410 H   0  0  0  0  0  0  0  0  0  0  0  0
    0.0352   -3.1753   -3.5924 H   0  0  0  0  0  0  0  0  0  0  0  0
  1  2  1  0
  2  3  1  0
  3  4  1  0
  4  5  1  0
  5  6  1  0
  6  7  1  0
  7  8  1  0
  8  9  1  0
  2 10  2  0
 10 11  1  0
 11 12  2  3
 12 13  1  0
 13 14  2  0
 14 15  1  0
 15 16  2  0
 16 17  1  0
 16 18  1  0
 18 19  1  0
 18 20  2  0
 20 21  1  0
 11 22  1  0
 22 23  1  0
 23 24  2  0
 24 25  1  0
 25 26  1  0
 25 27  1  0
 27  1  1  0
 20 13  1  0
 27 22  2  0
  1 28  1  0
  3 29  1  0
  4 30  1  0
  4 31  1  0
  5 32  1  0
  5 33  1  0
  6 34  1  0
  6 35  1  0
  8 36  1  0
  8 37  1  0
  9 38  1  0
  9 39  1  0
  9 40  1  0
 14 41  1  0
 15 42  1  0
 19 43  1  0
 19 44  1  0
 19 45  1  0
 21 46  1  0
 21 47  1  0
 21 48  1  0
 23 49  1  0
 26 50  1  0
 26 51  1  0
 26 52  1  0
M  END
>  <ScrubInfo>  (6) 
{"isomerGroup": 0, "isomerId": 5, "confId": 0, "nr_conformers:": 1, "nr_isomers:": 9}

$$$$
_i6
     RDKit          3D

 52 54  0  0  0  0  0  0  0  0999 V2000
   -1.3837   -2.4997    2.3230 N   0  0  0  0  0  0  0  0  0  0  0  0
   -1.9823   -1.4070    1.7058 C   0  0  0  0  0  0  0  0  0  0  0  0
   -1.1466   -0.7439    0.8960 C   0  0  0  0  0  0  0  0  0  0  0  0
   -1.1540    0.4349    0.0335 C   0  0  0  0  0  0  0  0  0  0  0  0
   -2.2672    1.2203   -0.1815 N   0  0  0  0  0  0  0  0  0  0  0  0
   -3.5431    0.6989   -0.5178 C   0  0  0  0  0  0  0  0  0  0  0  0
   -3.6522   -0.4348   -1.3352 C   0  0  0  0  0  0  0  0  0  0  0  0
   -4.8982   -0.9131   -1.7285 C   0  0  0  0  0  0  0  0  0  0  0  0
   -6.0593   -0.2602   -1.3171 C   0  0  0  0  0  0  0  0  0  0  0  0
   -7.7074   -0.9857   -1.9333 Br  0  0  0  0  0  0  0  0  0  0  0  0
   -5.9941    0.8896   -0.5049 C   0  0  0  0  0  0  0  0  0  0  0  0
   -7.2626    1.5899   -0.0789 C   0  0  0  0  0  0  0  0  0  0  0  0
   -4.7158    1.3993   -0.1415 C   0  0  0  0  0  0  0  0  0  0  0  0
   -4.6097    2.6583    0.6900 C   0  0  0  0  0  0  0  0  0  0  0  0
   -0.0376    0.7846   -0.5422 N   0  0  0  0  0  0  0  0  0  0  0  0
    1.0936    0.0262   -0.3293 C   0  0  0  0  0  0  0  0  0  0  0  0
    2.1458    0.5103   -0.8866 N   0  0  0  0  0  0  0  0  0  0  0  0
    3.4177   -0.1969   -0.7602 C   0  0  0  0  0  0  0  0  0  0  0  0
    4.1638    0.2889    0.4832 C   0  0  0  0  0  0  0  0  0  0  0  0
    5.5258   -0.3880    0.6341 C   0  0  0  0  0  0  0  0  0  0  0  0
    6.6176    0.4656    0.2886 O   0  0  0  0  0  0  0  0  0  0  0  0
    6.7325    0.7192   -1.1080 C   0  0  0  0  0  0  0  0  0  0  0  0
    8.0414    1.4448   -1.3531 C   0  0  0  0  0  0  0  0  0  0  0  0
    1.1799   -1.1431    0.3930 N   0  0  0  0  0  0  0  0  0  0  0  0
    0.1026   -1.5275    0.9848 C   0  0  0  0  0  0  0  0  0  0  0  0
   -0.1105   -2.6537    1.7814 N   0  0  0  0  0  0  0  0  0  0  0  0
    0.9497   -3.1845    2.6177 C   0  0  0  0  0  0  0  0  0  0  0  0
   -1.9737   -3.3351    2.3361 H   0  0  0  0  0  0  0  0  0  0  0  0
   -3.0208   -1.1871    1.9100 H   0  0  0  0  0  0  0  0  0  0  0  0
   -2.0327    1.9761   -0.8239 H   0  0  0  0  0  0  0  0  0  0  0  0
   -2.7635   -0.9489   -1.6952 H   0  0  0  0  0  0  0  0  0  0  0  0
   -4.9510   -1.7912   -2.3679 H   0  0  0  0  0  0  0  0  0  0  0  0
   -7.6641    2.1755   -0.9119 H   0  0  0  0  0  0  0  0  0  0  0  0
   -8.0151    0.8705    0.2593 H   0  0  0  0  0  0  0  0  0  0  0  0
   -7.1105    2.2618    0.7698 H   0  0  0  0  0  0  0  0  0  0  0  0
   -3.5932    3.0589    0.7344 H   0  0  0  0  0  0  0  0  0  0  0  0
   -5.2275    3.4532    0.2590 H   0  0  0  0  0  0  0  0  0  0  0  0
   -4.9322    2.4552    1.7163 H   0  0  0  0  0  0  0  0  0  0  0  0
    3.2972   -1.2871   -0.7488 H   0  0  0  0  0  0  0  0  0  0  0  0
    4.0036    0.0206   -1.6592 H   0  0  0  0  0  0  0  0  0  0  0  0
    4.2678    1.3801    0.4620 H   0  0  0  0  0  0  0  0  0  0  0  0
    3.5554    0.0455    1.3631 H   0  0  0  0  0  0  0  0  0  0  0  0
    5.6712   -0.6320    1.6925 H   0  0  0  0  0  0  0  0  0  0  0  0
    5.5958   -1.3328    0.0827 H   0  0  0  0  0  0  0  0  0  0  0  0
    6.7219   -0.2237   -1.6654 H   0  0  0  0  0  0  0  0  0  0  0  0
    5.9028    1.3495   -1.4414 H   0  0  0  0  0  0  0  0  0  0  0  0
    8.1724    1.6649   -2.4162 H   0  0  0  0  0  0  0  0  0  0  0  0
    8.0729    2.3841   -0.7910 H   0  0  0  0  0  0  0  0  0  0  0  0
    8.8874    0.8399   -1.0104 H   0  0  0  0  0  0  0  0  0  0  0  0
    1.8376   -3.4085    2.0178 H   0  0  0  0  0  0  0  0  0  0  0  0
    0.6267   -4.1143    3.0970 H   0  0  0  0  0  0  0  0  0  0  0  0
    1.2255   -2.4677    3.3982 H   0  0  0  0  0  0  0  0  0  0  0  0
  1  2  1  0
  2  3  2  0
  3  4  1  0
  4  5  1  0
  5  6  1  0
  6  7  2  0
  7  8  1  0
  8  9  2  0
  9 10  1  0
  9 11  1  0
 11 12  1  0
 11 13  2  0
 13 14  1  0
  4 15  2  0
 15 16  1  0
 16 17  2  3
 17 18  1  0
 18 19  1  0
 19 20  1  0
 20 21  1  0
 21 22  1  0
 22 23  1  0
 16 24  1  0
 24 25  2  0
 25 26  1  0
 26 27  1  0
 26  1  1  0
 25  3  1  0
 13  6  1  0
  1 28  1  0
  2 29  1  0
  5 30  1  0
  7 31  1  0
  8 32  1  0
 12 33  1  0
 12 34  1  0
 12 35  1  0
 14 36  1  0
 14 37  1  0
 14 38  1  0
 18 39  1  0
 18 40  1  0
 19 41  1  0
 19 42  1  0
 20 43  1  0
 20 44  1  0
 22 45  1  0
 22 46  1  0
 23 47  1  0
 23 48  1  0
 23 49  1  0
 27 50  1  0
 27 51  1  0
 27 52  1  0
M  END
>  <ScrubInfo>  (7) 
{"isomerGroup": 0, "isomerId": 6, "confId": 0, "nr_conformers:": 1, "nr_isomers:": 9}

$$$$
_i7
     RDKit          3D

 52 54  0  0  0  0  0  0  0  0999 V2000
   -2.2411   -3.3501   -0.2659 N   0  0  0  0  0  0  0  0  0  0  0  0
   -2.5226   -1.9967   -0.4114 C   0  0  0  0  0  0  0  0  0  0  0  0
   -1.4272   -1.2269   -0.4812 C   0  0  0  0  0  0  0  0  0  0  0  0
   -1.0410    0.1844   -0.6576 C   0  0  0  0  0  0  0  0  0  0  0  0
   -1.7945    1.2405   -0.7580 N   0  0  0  0  0  0  0  0  0  0  0  0
   -3.1898    1.1319   -0.7014 C   0  0  0  0  0  0  0  0  0  0  0  0
   -3.8882    0.9942   -1.9035 C   0  0  0  0  0  0  0  0  0  0  0  0
   -5.2755    0.8949   -1.9089 C   0  0  0  0  0  0  0  0  0  0  0  0
   -5.9814    0.9267   -0.7052 C   0  0  0  0  0  0  0  0  0  0  0  0
   -7.8764    0.8022   -0.8278 Br  0  0  0  0  0  0  0  0  0  0  0  0
   -5.3096    1.0616    0.5275 C   0  0  0  0  0  0  0  0  0  0  0  0
   -6.0850    1.1022    1.8219 C   0  0  0  0  0  0  0  0  0  0  0  0
   -3.8962    1.2155    0.5197 C   0  0  0  0  0  0  0  0  0  0  0  0
   -3.1356    1.4374    1.8050 C   0  0  0  0  0  0  0  0  0  0  0  0
    0.3171    0.3561   -0.7158 N   0  0  0  0  0  0  0  0  0  0  0  0
    1.2837   -0.6120   -0.6118 C   0  0  0  0  0  0  0  0  0  0  0  0
    2.5543   -0.4425   -0.6912 N   0  0  0  0  0  0  0  0  0  0  0  0
    3.1350    0.8720   -0.9449 C   0  0  0  0  0  0  0  0  0  0  0  0
    3.3914    1.6009    0.3735 C   0  0  0  0  0  0  0  0  0  0  0  0
    4.5520    0.9926    1.1549 C   0  0  0  0  0  0  0  0  0  0  0  0
    5.7736    1.2903    0.4764 O   0  0  0  0  0  0  0  0  0  0  0  0
    6.8888    0.6642    1.1059 C   0  0  0  0  0  0  0  0  0  0  0  0
    8.1428    1.0406    0.3424 C   0  0  0  0  0  0  0  0  0  0  0  0
    0.9391   -1.9282   -0.3836 N   0  0  0  0  0  0  0  0  0  0  0  0
   -0.3187   -2.2278   -0.3099 C   0  0  0  0  0  0  0  0  0  0  0  0
   -0.8739   -3.4883   -0.0770 N   0  0  0  0  0  0  0  0  0  0  0  0
   -0.2111   -4.6907   -0.5459 C   0  0  0  0  0  0  0  0  0  0  0  0
   -2.8408   -3.8210    0.4153 H   0  0  0  0  0  0  0  0  0  0  0  0
   -3.5582   -1.6940   -0.4547 H   0  0  0  0  0  0  0  0  0  0  0  0
   -3.3419    0.9717   -2.8431 H   0  0  0  0  0  0  0  0  0  0  0  0
   -5.7960    0.7977   -2.8584 H   0  0  0  0  0  0  0  0  0  0  0  0
   -6.5120    2.0987    1.9715 H   0  0  0  0  0  0  0  0  0  0  0  0
   -6.8862    0.3567    1.8293 H   0  0  0  0  0  0  0  0  0  0  0  0
   -5.4637    0.8574    2.6878 H   0  0  0  0  0  0  0  0  0  0  0  0
   -2.1231    1.8153    1.6345 H   0  0  0  0  0  0  0  0  0  0  0  0
   -3.6338    2.1918    2.4228 H   0  0  0  0  0  0  0  0  0  0  0  0
   -3.0599    0.4980    2.3613 H   0  0  0  0  0  0  0  0  0  0  0  0
    0.6114    1.3106   -0.8385 H   0  0  0  0  0  0  0  0  0  0  0  0
    4.0723    0.7363   -1.4964 H   0  0  0  0  0  0  0  0  0  0  0  0
    2.5003    1.4808   -1.5984 H   0  0  0  0  0  0  0  0  0  0  0  0
    3.6243    2.6484    0.1474 H   0  0  0  0  0  0  0  0  0  0  0  0
    2.4881    1.5859    0.9938 H   0  0  0  0  0  0  0  0  0  0  0  0
    4.5898    1.4413    2.1541 H   0  0  0  0  0  0  0  0  0  0  0  0
    4.4297   -0.0911    1.2622 H   0  0  0  0  0  0  0  0  0  0  0  0
    6.9678    1.0052    2.1440 H   0  0  0  0  0  0  0  0  0  0  0  0
    6.7584   -0.4235    1.0932 H   0  0  0  0  0  0  0  0  0  0  0  0
    8.0692    0.7195   -0.7020 H   0  0  0  0  0  0  0  0  0  0  0  0
    8.2767    2.1273    0.3328 H   0  0  0  0  0  0  0  0  0  0  0  0
    9.0267    0.5797    0.7920 H   0  0  0  0  0  0  0  0  0  0  0  0
   -0.1754   -4.7136   -1.6401 H   0  0  0  0  0  0  0  0  0  0  0  0
   -0.7454   -5.5804   -0.1969 H   0  0  0  0  0  0  0  0  0  0  0  0
    0.8119   -4.7435   -0.1598 H   0  0  0  0  0  0  0  0  0  0  0  0
  1  2  1  0
  2  3  2  0
  3  4  1  0
  4  5  2  3
  5  6  1  0
  6  7  2  0
  7  8  1  0
  8  9  2  0
  9 10  1  0
  9 11  1  0
 11 12  1  0
 11 13  2  0
 13 14  1  0
  4 15  1  0
 15 16  1  0
 16 17  2  3
 17 18  1  0
 18 19  1  0
 19 20  1  0
 20 21  1  0
 21 22  1  0
 22 23  1  0
 16 24  1  0
 24 25  2  0
 25 26  1  0
 26 27  1  0
 26  1  1  0
 25  3  1  0
 13  6  1  0
  1 28  1  0
  2 29  1  0
  7 30  1  0
  8 31  1  0
 12 32  1  0
 12 33  1  0
 12 34  1  0
 14 35  1  0
 14 36  1  0
 14 37  1  0
 15 38  1  0
 18 39  1  0
 18 40  1  0
 19 41  1  0
 19 42  1  0
 20 43  1  0
 20 44  1  0
 22 45  1  0
 22 46  1  0
 23 47  1  0
 23 48  1  0
 23 49  1  0
 27 50  1  0
 27 51  1  0
 27 52  1  0
M  END
>  <ScrubInfo>  (8) 
{"isomerGroup": 0, "isomerId": 7, "confId": 0, "nr_conformers:": 1, "nr_isomers:": 9}

$$$$
_i8
     RDKit          3D

 52 54  0  0  0  0  0  0  0  0999 V2000
    0.8834   -1.8226    0.0977 N   0  0  0  0  0  0  0  0  0  0  0  0
    1.1801   -0.7489    0.9202 C   0  0  0  0  0  0  0  0  0  0  0  0
    2.3136   -0.4355    1.4474 N   0  0  0  0  0  0  0  0  0  0  0  0
    3.4906   -1.2752    1.2299 C   0  0  0  0  0  0  0  0  0  0  0  0
    4.2270   -0.8443   -0.0379 C   0  0  0  0  0  0  0  0  0  0  0  0
    4.9312    0.4991    0.1281 C   0  0  0  0  0  0  0  0  0  0  0  0
    6.0310    0.3350    1.0243 O   0  0  0  0  0  0  0  0  0  0  0  0
    6.6949    1.5606    1.3243 C   0  0  0  0  0  0  0  0  0  0  0  0
    5.9867    2.3066    2.4411 C   0  0  0  0  0  0  0  0  0  0  0  0
    0.0946    0.0628    1.1668 N   0  0  0  0  0  0  0  0  0  0  0  0
   -1.2177   -0.0027    0.7519 C   0  0  0  0  0  0  0  0  0  0  0  0
   -2.0830    0.8947    1.1189 N   0  0  0  0  0  0  0  0  0  0  0  0
   -3.4210    0.8538    0.7143 C   0  0  0  0  0  0  0  0  0  0  0  0
   -4.3390    0.2028    1.5425 C   0  0  0  0  0  0  0  0  0  0  0  0
   -5.6872    0.1539    1.2047 C   0  0  0  0  0  0  0  0  0  0  0  0
   -6.1328    0.7544    0.0261 C   0  0  0  0  0  0  0  0  0  0  0  0
   -7.9996    0.6480   -0.3289 Br  0  0  0  0  0  0  0  0  0  0  0  0
   -5.2346    1.4173   -0.8358 C   0  0  0  0  0  0  0  0  0  0  0  0
   -5.7294    2.0640   -2.1066 C   0  0  0  0  0  0  0  0  0  0  0  0
   -3.8675    1.5085   -0.4560 C   0  0  0  0  0  0  0  0  0  0  0  0
   -2.8781    2.2678   -1.3067 C   0  0  0  0  0  0  0  0  0  0  0  0
   -1.4313   -1.1596   -0.1016 C   0  0  0  0  0  0  0  0  0  0  0  0
   -2.5025   -1.7459   -0.8012 C   0  0  0  0  0  0  0  0  0  0  0  0
   -2.1469   -2.8568   -1.4640 N   0  0  0  0  0  0  0  0  0  0  0  0
   -0.8307   -2.9866   -1.1928 N   0  0  0  0  0  0  0  0  0  0  0  0
   -0.1038   -4.1021   -1.7448 C   0  0  0  0  0  0  0  0  0  0  0  0
   -0.3709   -1.9963   -0.3797 C   0  0  0  0  0  0  0  0  0  0  0  0
    1.6407   -2.4508   -0.1320 H   0  0  0  0  0  0  0  0  0  0  0  0
    4.1456   -1.1846    2.1039 H   0  0  0  0  0  0  0  0  0  0  0  0
    3.2268   -2.3373    1.1736 H   0  0  0  0  0  0  0  0  0  0  0  0
    3.5279   -0.7861   -0.8797 H   0  0  0  0  0  0  0  0  0  0  0  0
    4.9742   -1.6105   -0.2772 H   0  0  0  0  0  0  0  0  0  0  0  0
    4.2352    1.2594    0.4960 H   0  0  0  0  0  0  0  0  0  0  0  0
    5.3202    0.8242   -0.8436 H   0  0  0  0  0  0  0  0  0  0  0  0
    7.7056    1.3026    1.6572 H   0  0  0  0  0  0  0  0  0  0  0  0
    6.7932    2.1819    0.4269 H   0  0  0  0  0  0  0  0  0  0  0  0
    6.5576    3.1919    2.7359 H   0  0  0  0  0  0  0  0  0  0  0  0
    5.8599    1.6599    3.3155 H   0  0  0  0  0  0  0  0  0  0  0  0
    4.9874    2.6294    2.1348 H   0  0  0  0  0  0  0  0  0  0  0  0
    0.2998    0.8468    1.7694 H   0  0  0  0  0  0  0  0  0  0  0  0
   -3.9963   -0.2634    2.4628 H   0  0  0  0  0  0  0  0  0  0  0  0
   -6.3823   -0.3525    1.8697 H   0  0  0  0  0  0  0  0  0  0  0  0
   -4.9277    2.2230   -2.8331 H   0  0  0  0  0  0  0  0  0  0  0  0
   -6.4547    1.4262   -2.6212 H   0  0  0  0  0  0  0  0  0  0  0  0
   -6.1893    3.0309   -1.8801 H   0  0  0  0  0  0  0  0  0  0  0  0
   -3.2920    3.2354   -1.6092 H   0  0  0  0  0  0  0  0  0  0  0  0
   -1.9513    2.4958   -0.7718 H   0  0  0  0  0  0  0  0  0  0  0  0
   -2.6234    1.6826   -2.1958 H   0  0  0  0  0  0  0  0  0  0  0  0
   -3.5339   -1.4289   -0.8686 H   0  0  0  0  0  0  0  0  0  0  0  0
   -0.1629   -4.9306   -1.0351 H   0  0  0  0  0  0  0  0  0  0  0  0
    0.9367   -3.8118   -1.9080 H   0  0  0  0  0  0  0  0  0  0  0  0
   -0.5539   -4.3862   -2.6997 H   0  0  0  0  0  0  0  0  0  0  0  0
  1  2  1  0
  2  3  2  3
  3  4  1  0
  4  5  1  0
  5  6  1  0
  6  7  1  0
  7  8  1  0
  8  9  1  0
  2 10  1  0
 10 11  1  0
 11 12  2  3
 12 13  1  0
 13 14  2  0
 14 15  1  0
 15 16  2  0
 16 17  1  0
 16 18  1  0
 18 19  1  0
 18 20  2  0
 20 21  1  0
 11 22  1  0
 22 23  1  0
 23 24  2  0
 24 25  1  0
 25 26  1  0
 25 27  1  0
 27  1  1  0
 20 13  1  0
 27 22  2  0
  1 28  1  0
  4 29  1  0
  4 30  1  0
  5 31  1  0
  5 32  1  0
  6 33  1  0
  6 34  1  0
  8 35  1  0
  8 36  1  0
  9 37  1  0
  9 38  1  0
  9 39  1  0
 10 40  1  0
 14 41  1  0
 15 42  1  0
 19 43  1  0
 19 44  1  0
 19 45  1  0
 21 46  1  0
 21 47  1  0
 21 48  1  0
 23 49  1  0
 26 50  1  0
 26 51  1  0
 26 52  1  0
M  END
>  <ScrubInfo>  (9) 
{"isomerGroup": 0, "isomerId": 8, "confId": 0, "nr_conformers:": 1, "nr_isomers:": 9}

$$$$
