_i0
     RDKit          3D

 49 51  0  0  0  0  0  0  0  0999 V2000
    7.6912   -0.0717   -0.4098 C   0  0  0  0  0  0  0  0  0  0  0  0
    6.5022   -0.3082   -1.1505 O   0  0  0  0  0  0  0  0  0  0  0  0
    5.4519    0.6108   -0.8375 C   0  0  0  0  0  0  0  0  0  0  0  0
    4.6535    0.1323    0.3727 C   0  0  0  0  0  0  0  0  0  0  0  0
    3.5779    1.1294    0.8011 C   0  0  0  0  0  0  0  0  0  0  0  0
    2.6094    1.3917   -0.2494 N   0  0  0  0  0  0  0  0  0  0  0  0
    1.4958    0.5599   -0.2804 C   0  0  0  0  0  0  0  0  0  0  0  0
    0.3597    1.1708   -0.6658 N   0  0  0  0  0  0  0  0  0  0  0  0
   -0.7984    0.4669   -0.7501 C   0  0  0  0  0  0  0  0  0  0  0  0
   -1.9418    1.1688   -1.1712 N   0  0  0  0  0  0  0  0  0  0  0  0
   -3.2536    0.9537   -0.6969 C   0  0  0  0  0  0  0  0  0  0  0  0
   -4.2431    0.6617   -1.6462 C   0  0  0  0  0  0  0  0  0  0  0  0
   -5.5692    0.4548   -1.2647 C   0  0  0  0  0  0  0  0  0  0  0  0
   -5.9387    0.5648    0.0765 C   0  0  0  0  0  0  0  0  0  0  0  0
   -7.3528    0.3003    0.5012 C   0  0  0  0  0  0  0  0  0  0  0  0
   -4.9587    0.8769    1.0272 C   0  0  0  0  0  0  0  0  0  0  0  0
   -3.6211    1.1030    0.6534 C   0  0  0  0  0  0  0  0  0  0  0  0
   -2.6276    1.4618    1.7244 C   0  0  0  0  0  0  0  0  0  0  0  0
   -0.7613   -0.8919   -0.4308 C   0  0  0  0  0  0  0  0  0  0  0  0
   -1.6386   -1.9945   -0.3757 C   0  0  0  0  0  0  0  0  0  0  0  0
   -1.0338   -3.1217    0.0206 N   0  0  0  0  0  0  0  0  0  0  0  0
    0.2491   -2.7329    0.2070 N   0  0  0  0  0  0  0  0  0  0  0  0
    1.2307   -3.7021    0.6237 C   0  0  0  0  0  0  0  0  0  0  0  0
    0.4592   -1.4042   -0.0407 C   0  0  0  0  0  0  0  0  0  0  0  0
    1.6119   -0.7281    0.0643 N   0  0  0  0  0  0  0  0  0  0  0  0
    7.5169   -0.1863    0.6633 H   0  0  0  0  0  0  0  0  0  0  0  0
    8.4382   -0.8082   -0.7182 H   0  0  0  0  0  0  0  0  0  0  0  0
    8.0824    0.9277   -0.6231 H   0  0  0  0  0  0  0  0  0  0  0  0
    5.8575    1.6179   -0.6850 H   0  0  0  0  0  0  0  0  0  0  0  0
    4.8004    0.6506   -1.7168 H   0  0  0  0  0  0  0  0  0  0  0  0
    4.2227   -0.8502    0.1489 H   0  0  0  0  0  0  0  0  0  0  0  0
    5.3281   -0.0337    1.2205 H   0  0  0  0  0  0  0  0  0  0  0  0
    4.0671    2.0788    1.0519 H   0  0  0  0  0  0  0  0  0  0  0  0
    3.0900    0.7917    1.7245 H   0  0  0  0  0  0  0  0  0  0  0  0
    2.2335    2.3347   -0.2649 H   0  0  0  0  0  0  0  0  0  0  0  0
   -1.6973    2.1561   -1.1465 H   0  0  0  0  0  0  0  0  0  0  0  0
   -3.9722    0.5743   -2.6963 H   0  0  0  0  0  0  0  0  0  0  0  0
   -6.3080    0.2062   -2.0230 H   0  0  0  0  0  0  0  0  0  0  0  0
   -7.4753   -0.7570    0.7556 H   0  0  0  0  0  0  0  0  0  0  0  0
   -8.0562    0.5554   -0.2985 H   0  0  0  0  0  0  0  0  0  0  0  0
   -7.6185    0.9080    1.3726 H   0  0  0  0  0  0  0  0  0  0  0  0
   -5.2428    0.9544    2.0757 H   0  0  0  0  0  0  0  0  0  0  0  0
   -1.9479    2.2488    1.3826 H   0  0  0  0  0  0  0  0  0  0  0  0
   -3.1316    1.8505    2.6162 H   0  0  0  0  0  0  0  0  0  0  0  0
   -2.0510    0.5800    2.0186 H   0  0  0  0  0  0  0  0  0  0  0  0
   -2.6961   -2.0216   -0.6059 H   0  0  0  0  0  0  0  0  0  0  0  0
    1.2721   -4.4946   -0.1278 H   0  0  0  0  0  0  0  0  0  0  0  0
    0.9236   -4.1080    1.5908 H   0  0  0  0  0  0  0  0  0  0  0  0
    2.2105   -3.2280    0.7154 H   0  0  0  0  0  0  0  0  0  0  0  0
  1  2  1  0
  2  3  1  0
  3  4  1  0
  4  5  1  0
  5  6  1  0
  6  7  1  0
  7  8  2  0
  8  9  1  0
  9 10  1  0
 10 11  1  0
 11 12  2  0
 12 13  1  0
 13 14  2  0
 14 15  1  0
 14 16  1  0
 16 17  2  0
 17 18  1  0
  9 19  2  0
 19 20  1  0
 20 21  2  0
 21 22  1  0
 22 23  1  0
 22 24  1  0
 24 25  2  0
 25  7  1  0
 17 11  1  0
 24 19  1  0
  1 26  1  0
  1 27  1  0
  1 28  1  0
  3 29  1  0
  3 30  1  0
  4 31  1  0
  4 32  1  0
  5 33  1  0
  5 34  1  0
  6 35  1  0
 10 36  1  0
 12 37  1  0
 13 38  1  0
 15 39  1  0
 15 40  1  0
 15 41  1  0
 16 42  1  0
 18 43  1  0
 18 44  1  0
 18 45  1  0
 20 46  1  0
 23 47  1  0
 23 48  1  0
 23 49  1  0
M  END
>  <ScrubInfo>  (1) 
{"isomerGroup": 0, "isomerId": 0, "confId": 0, "nr_conformers:": 1, "nr_isomers:": 9}

$$$$
_i1
     RDKit          3D

 49 51  0  0  0  0  0  0  0  0999 V2000
    0.5350    0.8822    0.0545 N   0  0  0  0  0  0  0  0  0  0  0  0
   -0.6421    0.6014   -0.6083 C   0  0  0  0  0  0  0  0  0  0  0  0
   -1.7074    1.4847   -0.5760 N   0  0  0  0  0  0  0  0  0  0  0  0
   -3.0620    1.1450   -0.3221 C   0  0  0  0  0  0  0  0  0  0  0  0
   -3.4166   -0.0051    0.3992 C   0  0  0  0  0  0  0  0  0  0  0  0
   -4.7552   -0.3073    0.6613 C   0  0  0  0  0  0  0  0  0  0  0  0
   -5.7715    0.5359    0.2098 C   0  0  0  0  0  0  0  0  0  0  0  0
   -7.2074    0.2313    0.5190 C   0  0  0  0  0  0  0  0  0  0  0  0
   -5.4264    1.7025   -0.4817 C   0  0  0  0  0  0  0  0  0  0  0  0
   -4.0832    2.0158   -0.7542 C   0  0  0  0  0  0  0  0  0  0  0  0
   -3.7638    3.2735   -1.5169 C   0  0  0  0  0  0  0  0  0  0  0  0
   -0.6339   -0.5342   -1.3188 C   0  0  0  0  0  0  0  0  0  0  0  0
   -1.5293   -1.2537   -2.2316 C   0  0  0  0  0  0  0  0  0  0  0  0
   -1.0041   -2.3607   -2.6960 N   0  0  0  0  0  0  0  0  0  0  0  0
    0.2565   -2.4648   -2.0833 N   0  0  0  0  0  0  0  0  0  0  0  0
    1.2203   -3.3872   -2.6331 C   0  0  0  0  0  0  0  0  0  0  0  0
    0.5817   -1.3764   -1.2893 C   0  0  0  0  0  0  0  0  0  0  0  0
    1.6727   -1.0999   -0.6580 N   0  0  0  0  0  0  0  0  0  0  0  0
    1.6497    0.0836    0.0460 C   0  0  0  0  0  0  0  0  0  0  0  0
    2.6841    0.4678    0.7198 N   0  0  0  0  0  0  0  0  0  0  0  0
    3.8575   -0.4071    0.6855 C   0  0  0  0  0  0  0  0  0  0  0  0
    4.9527    0.2316    1.5349 C   0  0  0  0  0  0  0  0  0  0  0  0
    6.2030   -0.6415    1.5689 C   0  0  0  0  0  0  0  0  0  0  0  0
    7.2822   -0.0015    2.2511 O   0  0  0  0  0  0  0  0  0  0  0  0
    7.1506   -0.0317    3.6656 C   0  0  0  0  0  0  0  0  0  0  0  0
    0.6053    1.7226    0.6054 H   0  0  0  0  0  0  0  0  0  0  0  0
   -1.4823    2.3491   -0.0904 H   0  0  0  0  0  0  0  0  0  0  0  0
   -2.6555   -0.6760    0.7895 H   0  0  0  0  0  0  0  0  0  0  0  0
   -4.9957   -1.2047    1.2273 H   0  0  0  0  0  0  0  0  0  0  0  0
   -7.4925    0.6956    1.4680 H   0  0  0  0  0  0  0  0  0  0  0  0
   -7.3714   -0.8491    0.5902 H   0  0  0  0  0  0  0  0  0  0  0  0
   -7.8651    0.6074   -0.2718 H   0  0  0  0  0  0  0  0  0  0  0  0
   -6.2148    2.3750   -0.8162 H   0  0  0  0  0  0  0  0  0  0  0  0
   -4.6734    3.7986   -1.8272 H   0  0  0  0  0  0  0  0  0  0  0  0
   -3.1975    3.0354   -2.4232 H   0  0  0  0  0  0  0  0  0  0  0  0
   -3.1821    3.9583   -0.8917 H   0  0  0  0  0  0  0  0  0  0  0  0
   -2.5186   -0.8568   -2.4924 H   0  0  0  0  0  0  0  0  0  0  0  0
    1.9648   -3.6678   -1.8812 H   0  0  0  0  0  0  0  0  0  0  0  0
    0.7285   -4.3042   -2.9734 H   0  0  0  0  0  0  0  0  0  0  0  0
    1.7381   -2.9350   -3.4847 H   0  0  0  0  0  0  0  0  0  0  0  0
    3.6130   -1.3950    1.0949 H   0  0  0  0  0  0  0  0  0  0  0  0
    4.2204   -0.5263   -0.3427 H   0  0  0  0  0  0  0  0  0  0  0  0
    4.5783    0.4000    2.5513 H   0  0  0  0  0  0  0  0  0  0  0  0
    5.2069    1.2255    1.1456 H   0  0  0  0  0  0  0  0  0  0  0  0
    5.9987   -1.6204    2.0186 H   0  0  0  0  0  0  0  0  0  0  0  0
    6.5470   -0.8225    0.5445 H   0  0  0  0  0  0  0  0  0  0  0  0
    8.0580    0.3960    4.1011 H   0  0  0  0  0  0  0  0  0  0  0  0
    6.2995    0.5707    3.9932 H   0  0  0  0  0  0  0  0  0  0  0  0
    7.0473   -1.0606    4.0233 H   0  0  0  0  0  0  0  0  0  0  0  0
  1  2  1  0
  2  3  1  0
  3  4  1  0
  4  5  2  0
  5  6  1  0
  6  7  2  0
  7  8  1  0
  7  9  1  0
  9 10  2  0
 10 11  1  0
  2 12  2  0
 12 13  1  0
 13 14  2  0
 14 15  1  0
 15 16  1  0
 15 17  1  0
 17 18  2  0
 18 19  1  0
 19 20  2  3
 20 21  1  0
 21 22  1  0
 22 23  1  0
 23 24  1  0
 24 25  1  0
 19  1  1  0
 10  4  1  0
 17 12  1  0
  1 26  1  0
  3 27  1  0
  5 28  1  0
  6 29  1  0
  8 30  1  0
  8 31  1  0
  8 32  1  0
  9 33  1  0
 11 34  1  0
 11 35  1  0
 11 36  1  0
 13 37  1  0
 16 38  1  0
 16 39  1  0
 16 40  1  0
 21 41  1  0
 21 42  1  0
 22 43  1  0
 22 44  1  0
 23 45  1  0
 23 46  1  0
 25 47  1  0
 25 48  1  0
 25 49  1  0
M  END
>  <ScrubInfo>  (2) 
{"isomerGroup": 0, "isomerId": 1, "confId": 0, "nr_conformers:": 1, "nr_isomers:": 9}

$$$$
_i2
     RDKit          3D

 49 51  0  0  0  0  0  0  0  0999 V2000
    0.7815   -0.3367    0.8894 N   0  0  0  0  0  0  0  0  0  0  0  0
    1.7198   -0.6498   -0.0652 C   0  0  0  0  0  0  0  0  0  0  0  0
    2.9827   -0.7601    0.4546 N   0  0  0  0  0  0  0  0  0  0  0  0
    4.1154   -1.1885   -0.3598 C   0  0  0  0  0  0  0  0  0  0  0  0
    4.6410   -0.0578   -1.2424 C   0  0  0  0  0  0  0  0  0  0  0  0
    5.2409    1.0919   -0.4412 C   0  0  0  0  0  0  0  0  0  0  0  0
    6.3653    0.6152    0.2996 O   0  0  0  0  0  0  0  0  0  0  0  0
    6.9750    1.6580    1.0498 C   0  0  0  0  0  0  0  0  0  0  0  0
    1.4373   -0.8084   -1.3318 N   0  0  0  0  0  0  0  0  0  0  0  0
    0.1076   -0.6441   -1.5797 C   0  0  0  0  0  0  0  0  0  0  0  0
   -0.9049   -0.3262   -0.6876 C   0  0  0  0  0  0  0  0  0  0  0  0
   -2.0672   -0.2937   -1.4783 C   0  0  0  0  0  0  0  0  0  0  0  0
   -1.8254   -0.5655   -2.7676 N   0  0  0  0  0  0  0  0  0  0  0  0
   -0.4893   -0.7716   -2.8021 N   0  0  0  0  0  0  0  0  0  0  0  0
    0.1430   -1.0965   -4.0556 C   0  0  0  0  0  0  0  0  0  0  0  0
   -0.5655   -0.1226    0.7065 C   0  0  0  0  0  0  0  0  0  0  0  0
   -1.3368    0.2171    1.6942 N   0  0  0  0  0  0  0  0  0  0  0  0
   -2.7051    0.4489    1.5174 C   0  0  0  0  0  0  0  0  0  0  0  0
   -3.1416    1.7409    1.2049 C   0  0  0  0  0  0  0  0  0  0  0  0
   -4.4998    2.0145    1.0362 C   0  0  0  0  0  0  0  0  0  0  0  0
   -5.4461    0.9966    1.1823 C   0  0  0  0  0  0  0  0  0  0  0  0
   -6.9091    1.2910    1.0284 C   0  0  0  0  0  0  0  0  0  0  0  0
   -5.0152   -0.2887    1.5369 C   0  0  0  0  0  0  0  0  0  0  0  0
   -3.6508   -0.5712    1.7171 C   0  0  0  0  0  0  0  0  0  0  0  0
   -3.2189   -1.9608    2.0913 C   0  0  0  0  0  0  0  0  0  0  0  0
    1.1074   -0.1062    1.8130 H   0  0  0  0  0  0  0  0  0  0  0  0
    3.0194   -1.1518    1.3883 H   0  0  0  0  0  0  0  0  0  0  0  0
    3.8270   -2.0456   -0.9798 H   0  0  0  0  0  0  0  0  0  0  0  0
    4.9101   -1.5450    0.3054 H   0  0  0  0  0  0  0  0  0  0  0  0
    3.8470    0.3311   -1.8888 H   0  0  0  0  0  0  0  0  0  0  0  0
    5.4179   -0.4753   -1.8946 H   0  0  0  0  0  0  0  0  0  0  0  0
    4.4998    1.5207    0.2428 H   0  0  0  0  0  0  0  0  0  0  0  0
    5.5725    1.8766   -1.1311 H   0  0  0  0  0  0  0  0  0  0  0  0
    7.8249    1.2383    1.5945 H   0  0  0  0  0  0  0  0  0  0  0  0
    6.2668    2.0735    1.7732 H   0  0  0  0  0  0  0  0  0  0  0  0
    7.3407    2.4457    0.3841 H   0  0  0  0  0  0  0  0  0  0  0  0
   -3.0883   -0.0873   -1.1888 H   0  0  0  0  0  0  0  0  0  0  0  0
    1.2275   -1.1347   -3.9320 H   0  0  0  0  0  0  0  0  0  0  0  0
   -0.1162   -0.3236   -4.7837 H   0  0  0  0  0  0  0  0  0  0  0  0
   -0.2288   -2.0703   -4.3841 H   0  0  0  0  0  0  0  0  0  0  0  0
   -2.4140    2.5397    1.0892 H   0  0  0  0  0  0  0  0  0  0  0  0
   -4.8115    3.0268    0.7900 H   0  0  0  0  0  0  0  0  0  0  0  0
   -7.0712    2.1041    0.3131 H   0  0  0  0  0  0  0  0  0  0  0  0
   -7.4456    0.4145    0.6500 H   0  0  0  0  0  0  0  0  0  0  0  0
   -7.3364    1.5788    1.9939 H   0  0  0  0  0  0  0  0  0  0  0  0
   -5.7509   -1.0786    1.6782 H   0  0  0  0  0  0  0  0  0  0  0  0
   -4.0748   -2.5834    2.3725 H   0  0  0  0  0  0  0  0  0  0  0  0
   -2.7155   -2.4406    1.2461 H   0  0  0  0  0  0  0  0  0  0  0  0
   -2.5415   -1.9352    2.9511 H   0  0  0  0  0  0  0  0  0  0  0  0
  1  2  1  0
  2  3  1  0
  3  4  1  0
  4  5  1  0
  5  6  1  0
  6  7  1  0
  7  8  1  0
  2  9  2  0
  9 10  1  0
 10 11  2  0
 11 12  1  0
 12 13  2  0
 13 14  1  0
 14 15  1  0
 11 16  1  0
 16 17  2  3
 17 18  1  0
 18 19  2  0
 19 20  1  0
 20 21  2  0
 21 22  1  0
 21 23  1  0
 23 24  2  0
 24 25  1  0
 16  1  1  0
 24 18  1  0
 14 10  1  0
  1 26  1  0
  3 27  1  0
  4 28  1  0
  4 29  1  0
  5 30  1  0
  5 31  1  0
  6 32  1  0
  6 33  1  0
  8 34  1  0
  8 35  1  0
  8 36  1  0
 12 37  1  0
 15 38  1  0
 15 39  1  0
 15 40  1  0
 19 41  1  0
 20 42  1  0
 22 43  1  0
 22 44  1  0
 22 45  1  0
 23 46  1  0
 25 47  1  0
 25 48  1  0
 25 49  1  0
M  END
>  <ScrubInfo>  (3) 
{"isomerGroup": 0, "isomerId": 2, "confId": 0, "nr_conformers:": 1, "nr_isomers:": 9}

$$$$
_i3
     RDKit          3D

 49 51  0  0  0  0  0  0  0  0999 V2000
    2.1590   -0.5510    0.5745 N   0  0  0  0  0  0  0  0  0  0  0  0
    1.2223   -1.0048   -0.3350 C   0  0  0  0  0  0  0  0  0  0  0  0
    1.4462   -1.7743   -1.3406 N   0  0  0  0  0  0  0  0  0  0  0  0
    2.7723   -2.3374   -1.5659 C   0  0  0  0  0  0  0  0  0  0  0  0
    3.5938   -1.4550   -2.5078 C   0  0  0  0  0  0  0  0  0  0  0  0
    4.8538   -0.9047   -1.8401 C   0  0  0  0  0  0  0  0  0  0  0  0
    4.5504   -0.0306   -0.7479 O   0  0  0  0  0  0  0  0  0  0  0  0
    4.2934    1.3041   -1.1883 C   0  0  0  0  0  0  0  0  0  0  0  0
   -0.1104   -0.6416   -0.2244 N   0  0  0  0  0  0  0  0  0  0  0  0
   -0.5183    0.1406    0.7310 C   0  0  0  0  0  0  0  0  0  0  0  0
   -1.7947    0.5871    0.9822 N   0  0  0  0  0  0  0  0  0  0  0  0
   -3.0076    0.2570    0.3354 C   0  0  0  0  0  0  0  0  0  0  0  0
   -3.0862   -0.6997   -0.6860 C   0  0  0  0  0  0  0  0  0  0  0  0
   -4.2940   -0.9956   -1.3280 C   0  0  0  0  0  0  0  0  0  0  0  0
   -5.4684   -0.3406   -0.9654 C   0  0  0  0  0  0  0  0  0  0  0  0
   -6.7562   -0.6334   -1.6747 C   0  0  0  0  0  0  0  0  0  0  0  0
   -5.4082    0.6385    0.0289 C   0  0  0  0  0  0  0  0  0  0  0  0
   -4.1968    0.9474    0.6798 C   0  0  0  0  0  0  0  0  0  0  0  0
   -4.2189    2.0211    1.7369 C   0  0  0  0  0  0  0  0  0  0  0  0
    0.4496    0.6605    1.6822 C   0  0  0  0  0  0  0  0  0  0  0  0
    0.4689    1.5298    2.7868 C   0  0  0  0  0  0  0  0  0  0  0  0
    1.6996    1.6868    3.2988 N   0  0  0  0  0  0  0  0  0  0  0  0
    2.4776    0.8994    2.5152 N   0  0  0  0  0  0  0  0  0  0  0  0
    3.8912    0.8079    2.7796 C   0  0  0  0  0  0  0  0  0  0  0  0
    1.7555    0.2813    1.5463 C   0  0  0  0  0  0  0  0  0  0  0  0
    3.1364   -0.6592    0.3130 H   0  0  0  0  0  0  0  0  0  0  0  0
    3.2974   -2.5682   -0.6316 H   0  0  0  0  0  0  0  0  0  0  0  0
    2.6211   -3.3097   -2.0510 H   0  0  0  0  0  0  0  0  0  0  0  0
    2.9827   -0.6364   -2.9032 H   0  0  0  0  0  0  0  0  0  0  0  0
    3.9099   -2.0600   -3.3665 H   0  0  0  0  0  0  0  0  0  0  0  0
    5.4427   -1.7340   -1.4326 H   0  0  0  0  0  0  0  0  0  0  0  0
    5.4899   -0.3939   -2.5728 H   0  0  0  0  0  0  0  0  0  0  0  0
    3.4144    1.3391   -1.8371 H   0  0  0  0  0  0  0  0  0  0  0  0
    4.0976    1.9214   -0.3076 H   0  0  0  0  0  0  0  0  0  0  0  0
    5.1666    1.7106   -1.7074 H   0  0  0  0  0  0  0  0  0  0  0  0
   -1.9266    1.1597    1.7998 H   0  0  0  0  0  0  0  0  0  0  0  0
   -2.2088   -1.2521   -1.0105 H   0  0  0  0  0  0  0  0  0  0  0  0
   -4.2991   -1.7464   -2.1153 H   0  0  0  0  0  0  0  0  0  0  0  0
   -6.7850   -1.6720   -2.0209 H   0  0  0  0  0  0  0  0  0  0  0  0
   -6.8675    0.0300   -2.5379 H   0  0  0  0  0  0  0  0  0  0  0  0
   -7.6114   -0.4910   -1.0056 H   0  0  0  0  0  0  0  0  0  0  0  0
   -6.3174    1.1730    0.2993 H   0  0  0  0  0  0  0  0  0  0  0  0
   -3.9666    1.5955    2.7134 H   0  0  0  0  0  0  0  0  0  0  0  0
   -3.5091    2.8164    1.4868 H   0  0  0  0  0  0  0  0  0  0  0  0
   -5.2075    2.4845    1.8244 H   0  0  0  0  0  0  0  0  0  0  0  0
   -0.3467    2.0705    3.2477 H   0  0  0  0  0  0  0  0  0  0  0  0
    4.3035   -0.0738    2.2844 H   0  0  0  0  0  0  0  0  0  0  0  0
    4.3681    1.7141    2.3988 H   0  0  0  0  0  0  0  0  0  0  0  0
    4.0415    0.7222    3.8589 H   0  0  0  0  0  0  0  0  0  0  0  0
  1  2  1  0
  2  3  2  3
  3  4  1  0
  4  5  1  0
  5  6  1  0
  6  7  1  0
  7  8  1  0
  2  9  1  0
  9 10  2  0
 10 11  1  0
 11 12  1  0
 12 13  2  0
 13 14  1  0
 14 15  2  0
 15 16  1  0
 15 17  1  0
 17 18  2  0
 18 19  1  0
 10 20  1  0
 20 21  1  0
 21 22  2  0
 22 23  1  0
 23 24  1  0
 23 25  1  0
 25  1  1  0
 18 12  1  0
 25 20  2  0
  1 26  1  0
  4 27  1  0
  4 28  1  0
  5 29  1  0
  5 30  1  0
  6 31  1  0
  6 32  1  0
  8 33  1  0
  8 34  1  0
  8 35  1  0
 11 36  1  0
 13 37  1  0
 14 38  1  0
 16 39  1  0
 16 40  1  0
 16 41  1  0
 17 42  1  0
 19 43  1  0
 19 44  1  0
 19 45  1  0
 21 46  1  0
 24 47  1  0
 24 48  1  0
 24 49  1  0
M  END
>  <ScrubInfo>  (4) 
{"isomerGroup": 0, "isomerId": 3, "confId": 0, "nr_conformers:": 1, "nr_isomers:": 9}

$$$$
_i4
     RDKit          3D

 49 51  0  0  0  0  0  0  0  0999 V2000
   -1.2756    1.0714    2.7859 N   0  0  0  0  0  0  0  0  0  0  0  0
   -1.8581    0.6612    1.5910 C   0  0  0  0  0  0  0  0  0  0  0  0
   -0.9687    0.2450    0.6763 C   0  0  0  0  0  0  0  0  0  0  0  0
   -0.9463   -0.2972   -0.6764 C   0  0  0  0  0  0  0  0  0  0  0  0
   -1.9039   -0.4939   -1.5208 N   0  0  0  0  0  0  0  0  0  0  0  0
   -3.2226   -0.1600   -1.1929 C   0  0  0  0  0  0  0  0  0  0  0  0
   -3.6873    1.1309   -1.4675 C   0  0  0  0  0  0  0  0  0  0  0  0
   -4.9969    1.5002   -1.1561 C   0  0  0  0  0  0  0  0  0  0  0  0
   -5.8726    0.5725   -0.5854 C   0  0  0  0  0  0  0  0  0  0  0  0
   -7.2717    0.9719   -0.2197 C   0  0  0  0  0  0  0  0  0  0  0  0
   -5.4141   -0.7251   -0.3211 C   0  0  0  0  0  0  0  0  0  0  0  0
   -4.1004   -1.1077   -0.6397 C   0  0  0  0  0  0  0  0  0  0  0  0
   -3.6410   -2.5120   -0.3647 C   0  0  0  0  0  0  0  0  0  0  0  0
    0.3033   -0.6557   -1.1090 N   0  0  0  0  0  0  0  0  0  0  0  0
    1.3820   -0.4717   -0.4066 C   0  0  0  0  0  0  0  0  0  0  0  0
    2.5468   -0.8917   -0.9818 N   0  0  0  0  0  0  0  0  0  0  0  0
    3.8334   -0.3142   -0.6450 C   0  0  0  0  0  0  0  0  0  0  0  0
    4.9426   -1.1049   -1.3366 C   0  0  0  0  0  0  0  0  0  0  0  0
    6.3258   -0.6114   -0.9325 C   0  0  0  0  0  0  0  0  0  0  0  0
    6.4791    0.7462   -1.3395 O   0  0  0  0  0  0  0  0  0  0  0  0
    7.7634    1.2544   -1.0020 C   0  0  0  0  0  0  0  0  0  0  0  0
    1.4332    0.1041    0.8342 N   0  0  0  0  0  0  0  0  0  0  0  0
    0.3168    0.4601    1.3659 C   0  0  0  0  0  0  0  0  0  0  0  0
    0.1004    1.0617    2.6072 N   0  0  0  0  0  0  0  0  0  0  0  0
    0.9553    0.7575    3.7386 C   0  0  0  0  0  0  0  0  0  0  0  0
   -1.6764    1.9381    3.1517 H   0  0  0  0  0  0  0  0  0  0  0  0
   -2.9334    0.7137    1.5018 H   0  0  0  0  0  0  0  0  0  0  0  0
   -3.0180    1.8520   -1.9296 H   0  0  0  0  0  0  0  0  0  0  0  0
   -5.3284    2.5130   -1.3723 H   0  0  0  0  0  0  0  0  0  0  0  0
   -7.6397    1.7616   -0.8832 H   0  0  0  0  0  0  0  0  0  0  0  0
   -7.9572    0.1232   -0.3145 H   0  0  0  0  0  0  0  0  0  0  0  0
   -7.2986    1.3361    0.8119 H   0  0  0  0  0  0  0  0  0  0  0  0
   -6.0909   -1.4510    0.1263 H   0  0  0  0  0  0  0  0  0  0  0  0
   -3.1686   -2.9437   -1.2531 H   0  0  0  0  0  0  0  0  0  0  0  0
   -4.4811   -3.1616   -0.0970 H   0  0  0  0  0  0  0  0  0  0  0  0
   -2.9292   -2.5210    0.4666 H   0  0  0  0  0  0  0  0  0  0  0  0
    2.4037   -1.0871   -1.9665 H   0  0  0  0  0  0  0  0  0  0  0  0
    3.8558    0.7354   -0.9592 H   0  0  0  0  0  0  0  0  0  0  0  0
    3.9886   -0.3471    0.4396 H   0  0  0  0  0  0  0  0  0  0  0  0
    4.8528   -2.1697   -1.0902 H   0  0  0  0  0  0  0  0  0  0  0  0
    4.8228   -1.0114   -2.4233 H   0  0  0  0  0  0  0  0  0  0  0  0
    6.4567   -0.6897    0.1530 H   0  0  0  0  0  0  0  0  0  0  0  0
    7.0886   -1.2262   -1.4238 H   0  0  0  0  0  0  0  0  0  0  0  0
    7.9132    1.2266    0.0816 H   0  0  0  0  0  0  0  0  0  0  0  0
    7.8210    2.2937   -1.3362 H   0  0  0  0  0  0  0  0  0  0  0  0
    8.5469    0.6808   -1.5063 H   0  0  0  0  0  0  0  0  0  0  0  0
    0.6879    1.3827    4.5966 H   0  0  0  0  0  0  0  0  0  0  0  0
    0.8569   -0.2935    4.0298 H   0  0  0  0  0  0  0  0  0  0  0  0
    2.0036    0.9571    3.4943 H   0  0  0  0  0  0  0  0  0  0  0  0
  1  2  1  0
  2  3  2  0
  3  4  1  0
  4  5  2  3
  5  6  1  0
  6  7  2  0
  7  8  1  0
  8  9  2  0
  9 10  1  0
  9 11  1  0
 11 12  2  0
 12 13  1  0
  4 14  1  0
 14 15  2  0
 15 16  1  0
 16 17  1  0
 17 18  1  0
 18 19  1  0
 19 20  1  0
 20 21  1  0
 15 22  1  0
 22 23  2  0
 23 24  1  0
 24 25  1  0
 24  1  1  0
 23  3  1  0
 12  6  1  0
  1 26  1  0
  2 27  1  0
  7 28  1  0
  8 29  1  0
 10 30  1  0
 10 31  1  0
 10 32  1  0
 11 33  1  0
 13 34  1  0
 13 35  1  0
 13 36  1  0
 16 37  1  0
 17 38  1  0
 17 39  1  0
 18 40  1  0
 18 41  1  0
 19 42  1  0
 19 43  1  0
 21 44  1  0
 21 45  1  0
 21 46  1  0
 25 47  1  0
 25 48  1  0
 25 49  1  0
M  END
>  <ScrubInfo>  (5) 
{"isomerGroup": 0, "isomerId": 4, "confId": 0, "nr_conformers:": 1, "nr_isomers:": 9}

$$$$
_i5
     RDKit          3D

 49 51  0  0  0  0  0  0  0  0999 V2000
    1.3665   -0.9574    0.5422 N   0  0  0  0  0  0  0  0  0  0  0  0
    1.3703   -0.1181   -0.5430 C   0  0  0  0  0  0  0  0  0  0  0  0
    2.6084    0.2325   -1.0025 N   0  0  0  0  0  0  0  0  0  0  0  0
    3.5941    0.8497   -0.1226 C   0  0  0  0  0  0  0  0  0  0  0  0
    4.8629    1.1581   -0.9103 C   0  0  0  0  0  0  0  0  0  0  0  0
    5.9330    1.7697   -0.0117 C   0  0  0  0  0  0  0  0  0  0  0  0
    7.0639    2.2040   -0.7639 O   0  0  0  0  0  0  0  0  0  0  0  0
    7.9392    1.1474   -1.1348 C   0  0  0  0  0  0  0  0  0  0  0  0
    0.3144    0.3370   -1.1533 N   0  0  0  0  0  0  0  0  0  0  0  0
   -0.9529   -0.0137   -0.7002 C   0  0  0  0  0  0  0  0  0  0  0  0
   -1.9472    0.5258   -1.3307 N   0  0  0  0  0  0  0  0  0  0  0  0
   -3.2777    0.2690   -0.9912 C   0  0  0  0  0  0  0  0  0  0  0  0
   -3.9548   -0.7695   -1.6399 C   0  0  0  0  0  0  0  0  0  0  0  0
   -5.2883   -1.0509   -1.3390 C   0  0  0  0  0  0  0  0  0  0  0  0
   -5.9694   -0.2913   -0.3840 C   0  0  0  0  0  0  0  0  0  0  0  0
   -7.4113   -0.5703   -0.0781 C   0  0  0  0  0  0  0  0  0  0  0  0
   -5.3078    0.7783    0.2342 C   0  0  0  0  0  0  0  0  0  0  0  0
   -3.9686    1.0748   -0.0698 C   0  0  0  0  0  0  0  0  0  0  0  0
   -3.2862    2.2303    0.6063 C   0  0  0  0  0  0  0  0  0  0  0  0
   -1.0084   -0.9391    0.4208 C   0  0  0  0  0  0  0  0  0  0  0  0
   -1.9915   -1.6050    1.1756 C   0  0  0  0  0  0  0  0  0  0  0  0
   -1.4712   -2.3956    2.1290 N   0  0  0  0  0  0  0  0  0  0  0  0
   -0.1369   -2.2352    1.9855 N   0  0  0  0  0  0  0  0  0  0  0  0
    0.7519   -2.9501    2.8652 C   0  0  0  0  0  0  0  0  0  0  0  0
    0.1667   -1.3695    0.9847 C   0  0  0  0  0  0  0  0  0  0  0  0
    2.2389   -1.4134    0.7702 H   0  0  0  0  0  0  0  0  0  0  0  0
    2.4645    0.8074   -1.8337 H   0  0  0  0  0  0  0  0  0  0  0  0
    3.8347    0.1760    0.7074 H   0  0  0  0  0  0  0  0  0  0  0  0
    3.1796    1.7721    0.3008 H   0  0  0  0  0  0  0  0  0  0  0  0
    5.2403    0.2415   -1.3786 H   0  0  0  0  0  0  0  0  0  0  0  0
    4.6429    1.8439   -1.7384 H   0  0  0  0  0  0  0  0  0  0  0  0
    5.5271    2.6594    0.4822 H   0  0  0  0  0  0  0  0  0  0  0  0
    6.2434    1.0745    0.7773 H   0  0  0  0  0  0  0  0  0  0  0  0
    8.8058    1.5838   -1.6391 H   0  0  0  0  0  0  0  0  0  0  0  0
    8.2890    0.6075   -0.2498 H   0  0  0  0  0  0  0  0  0  0  0  0
    7.4504    0.4592   -1.8292 H   0  0  0  0  0  0  0  0  0  0  0  0
   -3.4339   -1.3617   -2.3880 H   0  0  0  0  0  0  0  0  0  0  0  0
   -5.7897   -1.8643   -1.8581 H   0  0  0  0  0  0  0  0  0  0  0  0
   -8.0548    0.0148   -0.7421 H   0  0  0  0  0  0  0  0  0  0  0  0
   -7.6400   -1.6332   -0.2095 H   0  0  0  0  0  0  0  0  0  0  0  0
   -7.6463   -0.3141    0.9603 H   0  0  0  0  0  0  0  0  0  0  0  0
   -5.8435    1.3931    0.9554 H   0  0  0  0  0  0  0  0  0  0  0  0
   -2.7907    2.8705   -0.1308 H   0  0  0  0  0  0  0  0  0  0  0  0
   -4.0036    2.8564    1.1474 H   0  0  0  0  0  0  0  0  0  0  0  0
   -2.5471    1.8647    1.3259 H   0  0  0  0  0  0  0  0  0  0  0  0
   -3.0686   -1.5662    1.0851 H   0  0  0  0  0  0  0  0  0  0  0  0
    1.7779   -2.6062    2.7184 H   0  0  0  0  0  0  0  0  0  0  0  0
    0.4464   -2.7605    3.8975 H   0  0  0  0  0  0  0  0  0  0  0  0
    0.6782   -4.0156    2.6343 H   0  0  0  0  0  0  0  0  0  0  0  0
  1  2  1  0
  2  3  1  0
  3  4  1  0
  4  5  1  0
  5  6  1  0
  6  7  1  0
  7  8  1  0
  2  9  2  0
  9 10  1  0
 10 11  2  3
 11 12  1  0
 12 13  2  0
 13 14  1  0
 14 15  2  0
 15 16  1  0
 15 17  1  0
 17 18  2  0
 18 19  1  0
 10 20  1  0
 20 21  1  0
 21 22  2  0
 22 23  1  0
 23 24  1  0
 23 25  1  0
 25  1  1  0
 18 12  1  0
 25 20  2  0
  1 26  1  0
  3 27  1  0
  4 28  1  0
  4 29  1  0
  5 30  1  0
  5 31  1  0
  6 32  1  0
  6 33  1  0
  8 34  1  0
  8 35  1  0
  8 36  1  0
 13 37  1  0
 14 38  1  0
 16 39  1  0
 16 40  1  0
 16 41  1  0
 17 42  1  0
 19 43  1  0
 19 44  1  0
 19 45  1  0
 21 46  1  0
 24 47  1  0
 24 48  1  0
 24 49  1  0
M  END
>  <ScrubInfo>  (6) 
{"isomerGroup": 0, "isomerId": 5, "confId": 0, "nr_conformers:": 1, "nr_isomers:": 9}

$$$$
_i6
     RDKit          3D

 49 51  0  0  0  0  0  0  0  0999 V2000
    0.3326   -4.1465   -2.2169 N   0  0  0  0  0  0  0  0  0  0  0  0
   -0.7822   -3.3558   -1.9583 C   0  0  0  0  0  0  0  0  0  0  0  0
   -0.4755   -2.2085   -1.3373 C   0  0  0  0  0  0  0  0  0  0  0  0
   -1.1624   -1.0125   -0.8451 C   0  0  0  0  0  0  0  0  0  0  0  0
   -2.5390   -0.9159   -0.9881 N   0  0  0  0  0  0  0  0  0  0  0  0
   -3.3009    0.2370   -0.6905 C   0  0  0  0  0  0  0  0  0  0  0  0
   -4.0007    0.8535   -1.7431 C   0  0  0  0  0  0  0  0  0  0  0  0
   -4.7299    2.0278   -1.5425 C   0  0  0  0  0  0  0  0  0  0  0  0
   -4.7599    2.6291   -0.2848 C   0  0  0  0  0  0  0  0  0  0  0  0
   -5.5513    3.8817   -0.0542 C   0  0  0  0  0  0  0  0  0  0  0  0
   -4.0778    2.0165    0.7724 C   0  0  0  0  0  0  0  0  0  0  0  0
   -3.3533    0.8224    0.5882 C   0  0  0  0  0  0  0  0  0  0  0  0
   -2.6641    0.2313    1.7884 C   0  0  0  0  0  0  0  0  0  0  0  0
   -0.4233   -0.0877   -0.3034 N   0  0  0  0  0  0  0  0  0  0  0  0
    0.9401   -0.2521   -0.2155 C   0  0  0  0  0  0  0  0  0  0  0  0
    1.5513    0.7562    0.2962 N   0  0  0  0  0  0  0  0  0  0  0  0
    3.0062    0.7209    0.4378 C   0  0  0  0  0  0  0  0  0  0  0  0
    3.3708    0.1699    1.8143 C   0  0  0  0  0  0  0  0  0  0  0  0
    4.8797    0.0411    2.0032 C   0  0  0  0  0  0  0  0  0  0  0  0
    5.5898    1.2578    1.7784 O   0  0  0  0  0  0  0  0  0  0  0  0
    5.4051    2.2169    2.8110 C   0  0  0  0  0  0  0  0  0  0  0  0
    1.6600   -1.3620   -0.5972 N   0  0  0  0  0  0  0  0  0  0  0  0
    0.9831   -2.3179   -1.1290 C   0  0  0  0  0  0  0  0  0  0  0  0
    1.4279   -3.5554   -1.5951 N   0  0  0  0  0  0  0  0  0  0  0  0
    2.7436   -3.6982   -2.1898 C   0  0  0  0  0  0  0  0  0  0  0  0
    0.1873   -5.1390   -2.0157 H   0  0  0  0  0  0  0  0  0  0  0  0
   -1.7556   -3.7149   -2.2583 H   0  0  0  0  0  0  0  0  0  0  0  0
   -2.9288   -1.4414   -1.7599 H   0  0  0  0  0  0  0  0  0  0  0  0
   -3.9671    0.4329   -2.7448 H   0  0  0  0  0  0  0  0  0  0  0  0
   -5.2576    2.4776   -2.3800 H   0  0  0  0  0  0  0  0  0  0  0  0
   -5.6045    4.4849   -0.9667 H   0  0  0  0  0  0  0  0  0  0  0  0
   -5.0838    4.5021    0.7176 H   0  0  0  0  0  0  0  0  0  0  0  0
   -6.5681    3.6289    0.2617 H   0  0  0  0  0  0  0  0  0  0  0  0
   -4.1059    2.4732    1.7607 H   0  0  0  0  0  0  0  0  0  0  0  0
   -3.2731    0.3767    2.6879 H   0  0  0  0  0  0  0  0  0  0  0  0
   -1.6954    0.7140    1.9473 H   0  0  0  0  0  0  0  0  0  0  0  0
   -2.5207   -0.8485    1.6867 H   0  0  0  0  0  0  0  0  0  0  0  0
    3.5001    0.1564   -0.3620 H   0  0  0  0  0  0  0  0  0  0  0  0
    3.3722    1.7498    0.3422 H   0  0  0  0  0  0  0  0  0  0  0  0
    2.9457    0.8244    2.5840 H   0  0  0  0  0  0  0  0  0  0  0  0
    2.9132   -0.8158    1.9609 H   0  0  0  0  0  0  0  0  0  0  0  0
    5.2696   -0.6890    1.2851 H   0  0  0  0  0  0  0  0  0  0  0  0
    5.1113   -0.3444    3.0032 H   0  0  0  0  0  0  0  0  0  0  0  0
    5.6682    1.7942    3.7853 H   0  0  0  0  0  0  0  0  0  0  0  0
    6.0672    3.0639    2.6108 H   0  0  0  0  0  0  0  0  0  0  0  0
    4.3761    2.5854    2.8224 H   0  0  0  0  0  0  0  0  0  0  0  0
    2.9505   -4.7511   -2.4073 H   0  0  0  0  0  0  0  0  0  0  0  0
    3.5176   -3.3402   -1.5034 H   0  0  0  0  0  0  0  0  0  0  0  0
    2.8121   -3.1298   -3.1232 H   0  0  0  0  0  0  0  0  0  0  0  0
  1  2  1  0
  2  3  2  0
  3  4  1  0
  4  5  1  0
  5  6  1  0
  6  7  2  0
  7  8  1  0
  8  9  2  0
  9 10  1  0
  9 11  1  0
 11 12  2  0
 12 13  1  0
  4 14  2  0
 14 15  1  0
 15 16  2  3
 16 17  1  0
 17 18  1  0
 18 19  1  0
 19 20  1  0
 20 21  1  0
 15 22  1  0
 22 23  2  0
 23 24  1  0
 24 25  1  0
 24  1  1  0
 23  3  1  0
 12  6  1  0
  1 26  1  0
  2 27  1  0
  5 28  1  0
  7 29  1  0
  8 30  1  0
 10 31  1  0
 10 32  1  0
 10 33  1  0
 11 34  1  0
 13 35  1  0
 13 36  1  0
 13 37  1  0
 17 38  1  0
 17 39  1  0
 18 40  1  0
 18 41  1  0
 19 42  1  0
 19 43  1  0
 21 44  1  0
 21 45  1  0
 21 46  1  0
 25 47  1  0
 25 48  1  0
 25 49  1  0
M  END
>  <ScrubInfo>  (7) 
{"isomerGroup": 0, "isomerId": 6, "confId": 0, "nr_conformers:": 1, "nr_isomers:": 9}

$$$$
_i7
     RDKit          3D

 49 51  0  0  0  0  0  0  0  0999 V2000
   -0.8046   -5.3063    1.3335 N   0  0  0  0  0  0  0  0  0  0  0  0
   -1.6157   -4.2153    1.0409 C   0  0  0  0  0  0  0  0  0  0  0  0
   -0.9176   -3.1176    0.7279 C   0  0  0  0  0  0  0  0  0  0  0  0
   -1.1830   -1.7409    0.3122 C   0  0  0  0  0  0  0  0  0  0  0  0
   -2.4118   -1.3243    0.2222 N   0  0  0  0  0  0  0  0  0  0  0  0
   -2.6365    0.0011   -0.1831 C   0  0  0  0  0  0  0  0  0  0  0  0
   -2.7962    0.2748   -1.5453 C   0  0  0  0  0  0  0  0  0  0  0  0
   -2.9771    1.5837   -1.9937 C   0  0  0  0  0  0  0  0  0  0  0  0
   -3.0190    2.6406   -1.0804 C   0  0  0  0  0  0  0  0  0  0  0  0
   -3.1717    4.0543   -1.5594 C   0  0  0  0  0  0  0  0  0  0  0  0
   -2.8669    2.3679    0.2856 C   0  0  0  0  0  0  0  0  0  0  0  0
   -2.6964    1.0524    0.7470 C   0  0  0  0  0  0  0  0  0  0  0  0
   -2.5392    0.7929    2.2188 C   0  0  0  0  0  0  0  0  0  0  0  0
   -0.0302   -1.0370    0.0577 N   0  0  0  0  0  0  0  0  0  0  0  0
    1.2586   -1.5053    0.1729 C   0  0  0  0  0  0  0  0  0  0  0  0
    2.3320   -0.8449   -0.0883 N   0  0  0  0  0  0  0  0  0  0  0  0
    2.2231    0.5335   -0.5545 C   0  0  0  0  0  0  0  0  0  0  0  0
    3.6343    1.0846   -0.7466 C   0  0  0  0  0  0  0  0  0  0  0  0
    3.6224    2.4970   -1.3244 C   0  0  0  0  0  0  0  0  0  0  0  0
    2.8341    3.4044   -0.5548 O   0  0  0  0  0  0  0  0  0  0  0  0
    3.4797    3.8310    0.6383 C   0  0  0  0  0  0  0  0  0  0  0  0
    1.5143   -2.7920    0.6075 N   0  0  0  0  0  0  0  0  0  0  0  0
    0.5030   -3.5521    0.8857 C   0  0  0  0  0  0  0  0  0  0  0  0
    0.5185   -4.8686    1.3549 N   0  0  0  0  0  0  0  0  0  0  0  0
    1.5731   -5.7844    0.9643 C   0  0  0  0  0  0  0  0  0  0  0  0
   -1.1158   -5.8324    2.1531 H   0  0  0  0  0  0  0  0  0  0  0  0
   -2.6909   -4.3186    1.0830 H   0  0  0  0  0  0  0  0  0  0  0  0
   -2.7723   -0.5418   -2.2625 H   0  0  0  0  0  0  0  0  0  0  0  0
   -3.0869    1.7708   -3.0594 H   0  0  0  0  0  0  0  0  0  0  0  0
   -3.7477    4.0923   -2.4899 H   0  0  0  0  0  0  0  0  0  0  0  0
   -3.7074    4.6605   -0.8214 H   0  0  0  0  0  0  0  0  0  0  0  0
   -2.1867    4.4977   -1.7350 H   0  0  0  0  0  0  0  0  0  0  0  0
   -2.8882    3.1897    0.9996 H   0  0  0  0  0  0  0  0  0  0  0  0
   -2.8456    1.6618    2.8110 H   0  0  0  0  0  0  0  0  0  0  0  0
   -3.1667   -0.0473    2.5334 H   0  0  0  0  0  0  0  0  0  0  0  0
   -1.4930    0.5726    2.4530 H   0  0  0  0  0  0  0  0  0  0  0  0
   -0.1436   -0.0829   -0.2437 H   0  0  0  0  0  0  0  0  0  0  0  0
    1.6835    0.5708   -1.5084 H   0  0  0  0  0  0  0  0  0  0  0  0
    1.6866    1.1441    0.1812 H   0  0  0  0  0  0  0  0  0  0  0  0
    4.1557    1.0734    0.2177 H   0  0  0  0  0  0  0  0  0  0  0  0
    4.2043    0.4290   -1.4163 H   0  0  0  0  0  0  0  0  0  0  0  0
    3.1829    2.4701   -2.3278 H   0  0  0  0  0  0  0  0  0  0  0  0
    4.6431    2.8817   -1.4344 H   0  0  0  0  0  0  0  0  0  0  0  0
    4.4445    4.2946    0.4115 H   0  0  0  0  0  0  0  0  0  0  0  0
    2.8425    4.5766    1.1219 H   0  0  0  0  0  0  0  0  0  0  0  0
    3.6136    2.9958    1.3307 H   0  0  0  0  0  0  0  0  0  0  0  0
    2.5557   -5.3690    1.2100 H   0  0  0  0  0  0  0  0  0  0  0  0
    1.4694   -6.7343    1.4986 H   0  0  0  0  0  0  0  0  0  0  0  0
    1.5356   -5.9846   -0.1116 H   0  0  0  0  0  0  0  0  0  0  0  0
  1  2  1  0
  2  3  2  0
  3  4  1  0
  4  5  2  3
  5  6  1  0
  6  7  2  0
  7  8  1  0
  8  9  2  0
  9 10  1  0
  9 11  1  0
 11 12  2  0
 12 13  1  0
  4 14  1  0
 14 15  1  0
 15 16  2  3
 16 17  1  0
 17 18  1  0
 18 19  1  0
 19 20  1  0
 20 21  1  0
 15 22  1  0
 22 23  2  0
 23 24  1  0
 24 25  1  0
 24  1  1  0
 23  3  1  0
 12  6  1  0
  1 26  1  0
  2 27  1  0
  7 28  1  0
  8 29  1  0
 10 30  1  0
 10 31  1  0
 10 32  1  0
 11 33  1  0
 13 34  1  0
 13 35  1  0
 13 36  1  0
 14 37  1  0
 17 38  1  0
 17 39  1  0
 18 40  1  0
 18 41  1  0
 19 42  1  0
 19 43  1  0
 21 44  1  0
 21 45  1  0
 21 46  1  0
 25 47  1  0
 25 48  1  0
 25 49  1  0
M  END
>  <ScrubInfo>  (8) 
{"isomerGroup": 0, "isomerId": 7, "confId": 0, "nr_conformers:": 1, "nr_isomers:": 9}

$$$$
_i8
     RDKit          3D

 49 51  0  0  0  0  0  0  0  0999 V2000
    1.4497   -0.0085   -1.5887 N   0  0  0  0  0  0  0  0  0  0  0  0
    0.7914   -0.1326   -0.3732 C   0  0  0  0  0  0  0  0  0  0  0  0
    1.3127   -0.2029    0.8060 N   0  0  0  0  0  0  0  0  0  0  0  0
    2.7696   -0.1490    0.9197 C   0  0  0  0  0  0  0  0  0  0  0  0
    3.1342   -0.1152    2.4024 C   0  0  0  0  0  0  0  0  0  0  0  0
    4.6359   -0.2446    2.6269 C   0  0  0  0  0  0  0  0  0  0  0  0
    5.3182    0.8028    1.9391 O   0  0  0  0  0  0  0  0  0  0  0  0
    6.7200    0.7559    2.1726 C   0  0  0  0  0  0  0  0  0  0  0  0
   -0.5839   -0.1854   -0.4893 N   0  0  0  0  0  0  0  0  0  0  0  0
   -1.4037   -0.1307   -1.5993 C   0  0  0  0  0  0  0  0  0  0  0  0
   -2.6900   -0.1746   -1.7129 N   0  0  0  0  0  0  0  0  0  0  0  0
   -3.4440   -0.3007   -0.5363 C   0  0  0  0  0  0  0  0  0  0  0  0
   -3.7587   -1.5793   -0.0646 C   0  0  0  0  0  0  0  0  0  0  0  0
   -4.4874   -1.7462    1.1138 C   0  0  0  0  0  0  0  0  0  0  0  0
   -4.9301   -0.6315    1.8311 C   0  0  0  0  0  0  0  0  0  0  0  0
   -5.6827   -0.8045    3.1174 C   0  0  0  0  0  0  0  0  0  0  0  0
   -4.6202    0.6506    1.3582 C   0  0  0  0  0  0  0  0  0  0  0  0
   -3.8961    0.8279    0.1677 C   0  0  0  0  0  0  0  0  0  0  0  0
   -3.5868    2.2158   -0.3189 C   0  0  0  0  0  0  0  0  0  0  0  0
   -0.6230    0.0020   -2.8060 C   0  0  0  0  0  0  0  0  0  0  0  0
   -0.9178    0.1069   -4.1729 C   0  0  0  0  0  0  0  0  0  0  0  0
    0.1883    0.2203   -4.9246 N   0  0  0  0  0  0  0  0  0  0  0  0
    1.1993    0.1838   -4.0223 N   0  0  0  0  0  0  0  0  0  0  0  0
    2.5569    0.2901   -4.4933 C   0  0  0  0  0  0  0  0  0  0  0  0
    0.7480    0.0555   -2.7436 C   0  0  0  0  0  0  0  0  0  0  0  0
    2.4587    0.0478   -1.5613 H   0  0  0  0  0  0  0  0  0  0  0  0
    3.2127   -1.0356    0.4509 H   0  0  0  0  0  0  0  0  0  0  0  0
    3.1637    0.7476    0.4271 H   0  0  0  0  0  0  0  0  0  0  0  0
    2.7798    0.8319    2.8283 H   0  0  0  0  0  0  0  0  0  0  0  0
    2.6189   -0.9217    2.9376 H   0  0  0  0  0  0  0  0  0  0  0  0
    4.9903   -1.2139    2.2573 H   0  0  0  0  0  0  0  0  0  0  0  0
    4.8490   -0.1793    3.7001 H   0  0  0  0  0  0  0  0  0  0  0  0
    7.1887    1.5728    1.6175 H   0  0  0  0  0  0  0  0  0  0  0  0
    6.9356    0.8878    3.2372 H   0  0  0  0  0  0  0  0  0  0  0  0
    7.1357   -0.1921    1.8177 H   0  0  0  0  0  0  0  0  0  0  0  0
   -1.0525   -0.2707    0.4013 H   0  0  0  0  0  0  0  0  0  0  0  0
   -3.4285   -2.4522   -0.6220 H   0  0  0  0  0  0  0  0  0  0  0  0
   -4.7097   -2.7517    1.4634 H   0  0  0  0  0  0  0  0  0  0  0  0
   -4.9838   -0.8295    3.9590 H   0  0  0  0  0  0  0  0  0  0  0  0
   -6.2613   -1.7343    3.1104 H   0  0  0  0  0  0  0  0  0  0  0  0
   -6.3910    0.0169    3.2685 H   0  0  0  0  0  0  0  0  0  0  0  0
   -4.9540    1.5221    1.9188 H   0  0  0  0  0  0  0  0  0  0  0  0
   -3.8285    2.3153   -1.3822 H   0  0  0  0  0  0  0  0  0  0  0  0
   -2.5272    2.4422   -0.1643 H   0  0  0  0  0  0  0  0  0  0  0  0
   -4.1765    2.9670    0.2171 H   0  0  0  0  0  0  0  0  0  0  0  0
   -1.8884    0.1077   -4.6524 H   0  0  0  0  0  0  0  0  0  0  0  0
    3.2507    0.0226   -3.6937 H   0  0  0  0  0  0  0  0  0  0  0  0
    2.7281    1.3218   -4.8102 H   0  0  0  0  0  0  0  0  0  0  0  0
    2.6894   -0.3951   -5.3347 H   0  0  0  0  0  0  0  0  0  0  0  0
  1  2  1  0
  2  3  2  3
  3  4  1  0
  4  5  1  0
  5  6  1  0
  6  7  1  0
  7  8  1  0
  2  9  1  0
  9 10  1  0
 10 11  2  3
 11 12  1  0
 12 13  2  0
 13 14  1  0
 14 15  2  0
 15 16  1  0
 15 17  1  0
 17 18  2  0
 18 19  1  0
 10 20  1  0
 20 21  1  0
 21 22  2  0
 22 23  1  0
 23 24  1  0
 23 25  1  0
 25  1  1  0
 18 12  1  0
 25 20  2  0
  1 26  1  0
  4 27  1  0
  4 28  1  0
  5 29  1  0
  5 30  1  0
  6 31  1  0
  6 32  1  0
  8 33  1  0
  8 34  1  0
  8 35  1  0
  9 36  1  0
 13 37  1  0
 14 38  1  0
 16 39  1  0
 16 40  1  0
 16 41  1  0
 17 42  1  0
 19 43  1  0
 19 44  1  0
 19 45  1  0
 21 46  1  0
 24 47  1  0
 24 48  1  0
 24 49  1  0
M  END
>  <ScrubInfo>  (9) 
{"isomerGroup": 0, "isomerId": 8, "confId": 0, "nr_conformers:": 1, "nr_isomers:": 9}

$$$$
