_i0
     RDKit          3D

 48 51  0  0  0  0  0  0  0  0999 V2000
   -5.2125    0.3604   -2.0155 C   0  0  0  0  0  0  0  0  0  0  0  0
   -5.1456    1.4403   -0.9569 N   0  0  0  0  0  4  0  0  0  0  0  0
   -5.6634    2.8124   -1.3793 C   0  0  0  0  0  0  0  0  0  0  0  0
   -5.5693    1.0508    0.4463 C   0  0  0  0  0  0  0  0  0  0  0  0
   -6.6130   -0.2180   -2.3073 C   0  0  0  0  0  0  0  0  0  0  0  0
   -6.5722   -1.0949   -3.4633 N   0  0  0  0  0  0  0  0  0  0  0  0
   -6.6255   -0.4860   -4.7074 C   0  0  0  0  0  0  0  0  0  0  0  0
   -6.3268    0.8068   -4.8166 N   0  0  0  0  0  0  0  0  0  0  0  0
   -6.9577   -1.2614   -5.7285 N   0  0  0  0  0  0  0  0  0  0  0  0
   -6.3263    1.3366   -6.0585 C   0  0  0  0  0  0  0  0  0  0  0  0
   -6.9370   -0.7358   -6.9509 C   0  0  0  0  0  0  0  0  0  0  0  0
   -5.9416    2.7028   -6.2108 N   0  0  0  0  0  0  0  0  0  0  0  0
   -6.6040    0.6002   -7.2027 C   0  0  0  0  0  0  0  0  0  0  0  0
   -7.2524   -1.5340   -7.9758 N   0  0  0  0  0  0  0  0  0  0  0  0
   -6.3097    3.7482   -5.3332 C   0  0  0  0  0  0  0  0  0  0  0  0
   -6.5841    1.1448   -8.4560 N   0  0  0  0  0  0  0  0  0  0  0  0
   -7.2291   -1.0096   -9.2239 C   0  0  0  0  0  0  0  0  0  0  0  0
   -5.4605    4.8545   -5.2149 C   0  0  0  0  0  0  0  0  0  0  0  0
   -7.5608    3.7921   -4.7039 C   0  0  0  0  0  0  0  0  0  0  0  0
   -6.9001    0.3063   -9.4626 C   0  0  0  0  0  0  0  0  0  0  0  0
   -5.8251    5.9553   -4.4362 C   0  0  0  0  0  0  0  0  0  0  0  0
   -7.9343    4.8992   -3.9373 C   0  0  0  0  0  0  0  0  0  0  0  0
   -7.0618    5.9761   -3.7955 C   0  0  0  0  0  0  0  0  0  0  0  0
   -7.1189    3.0407   -0.9636 C   0  0  0  0  0  0  0  0  0  0  0  0
   -7.3253    2.7389    0.4202 O   0  0  0  0  0  0  0  0  0  0  0  0
   -7.0436    1.3674    0.7051 C   0  0  0  0  0  0  0  0  0  0  0  0
   -4.7343    0.7842   -2.9039 H   0  0  0  0  0  0  0  0  0  0  0  0
   -4.5523   -0.4442   -1.6676 H   0  0  0  0  0  0  0  0  0  0  0  0
   -4.1317    1.5944   -0.8769 H   0  0  0  0  0  0  0  0  0  0  0  0
   -5.5072    2.9246   -2.4547 H   0  0  0  0  0  0  0  0  0  0  0  0
   -5.0207    3.5283   -0.8542 H   0  0  0  0  0  0  0  0  0  0  0  0
   -5.3362   -0.0077    0.5952 H   0  0  0  0  0  0  0  0  0  0  0  0
   -4.9404    1.6514    1.1132 H   0  0  0  0  0  0  0  0  0  0  0  0
   -7.3669    0.5620   -2.4412 H   0  0  0  0  0  0  0  0  0  0  0  0
   -6.9288   -0.8168   -1.4460 H   0  0  0  0  0  0  0  0  0  0  0  0
   -7.2067   -1.8907   -3.4894 H   0  0  0  0  0  0  0  0  0  0  0  0
   -6.1670    2.9763   -7.1746 H   0  0  0  0  0  0  0  0  0  0  0  0
   -7.4862   -1.6893  -10.0296 H   0  0  0  0  0  0  0  0  0  0  0  0
   -4.5062    4.8644   -5.7378 H   0  0  0  0  0  0  0  0  0  0  0  0
   -8.2727    2.9807   -4.8333 H   0  0  0  0  0  0  0  0  0  0  0  0
   -6.8836    0.7201  -10.4650 H   0  0  0  0  0  0  0  0  0  0  0  0
   -5.1561    6.8095   -4.3574 H   0  0  0  0  0  0  0  0  0  0  0  0
   -8.9184    4.9342   -3.4750 H   0  0  0  0  0  0  0  0  0  0  0  0
   -7.3594    6.8476   -3.2160 H   0  0  0  0  0  0  0  0  0  0  0  0
   -7.8199    2.4599   -1.5691 H   0  0  0  0  0  0  0  0  0  0  0  0
   -7.3724    4.0959   -1.1024 H   0  0  0  0  0  0  0  0  0  0  0  0
   -7.2714    1.1964    1.7621 H   0  0  0  0  0  0  0  0  0  0  0  0
   -7.7138    0.7288    0.1218 H   0  0  0  0  0  0  0  0  0  0  0  0
  1  2  1  0
  2  3  1  0
  2  4  1  0
  5  1  1  0
  6  5  1  0
  7  6  1  0
  8  7  2  0
  7  9  1  0
 10  8  1  0
  9 11  2  0
 12 10  1  0
 13 10  2  0
 11 14  1  0
 13 11  1  0
 15 12  1  0
 16 13  1  0
 14 17  2  0
 18 15  2  0
 15 19  1  0
 20 16  2  0
 17 20  1  0
 21 18  1  0
 19 22  2  0
 23 21  2  0
 22 23  1  0
  3 24  1  0
 24 25  1  0
 25 26  1  0
 26  4  1  0
  1 27  1  0
  1 28  1  0
  2 29  1  0
  3 30  1  0
  3 31  1  0
  4 32  1  0
  4 33  1  0
  5 34  1  0
  5 35  1  0
  6 36  1  0
 12 37  1  0
 17 38  1  0
 18 39  1  0
 19 40  1  0
 20 41  1  0
 21 42  1  0
 22 43  1  0
 23 44  1  0
 24 45  1  0
 24 46  1  0
 26 47  1  0
 26 48  1  0
M  CHG  1   2   1
M  END
>  <ScrubInfo>  (1) 
{"isomerGroup": 0, "isomerId": 0, "confId": 0, "nr_conformers:": 1, "nr_isomers:": 9}

$$$$
_i1
     RDKit          3D

 48 51  0  0  0  0  0  0  0  0999 V2000
   -6.9325    5.2897   -5.5895 N   0  0  0  0  0  0  0  0  0  0  0  0
   -7.1827    5.4609   -6.9320 C   0  0  0  0  0  0  0  0  0  0  0  0
   -7.4806    6.7048   -7.4705 N   0  0  0  0  0  0  0  0  0  0  0  0
   -8.2393    7.7508   -6.9095 C   0  0  0  0  0  0  0  0  0  0  0  0
   -9.0532    7.6041   -5.7798 C   0  0  0  0  0  0  0  0  0  0  0  0
   -9.7537    8.6937   -5.2519 C   0  0  0  0  0  0  0  0  0  0  0  0
   -9.6430    9.9492   -5.8431 C   0  0  0  0  0  0  0  0  0  0  0  0
   -8.8354   10.1153   -6.9640 C   0  0  0  0  0  0  0  0  0  0  0  0
   -8.1395    9.0240   -7.4903 C   0  0  0  0  0  0  0  0  0  0  0  0
   -7.0655    4.3857   -7.7500 C   0  0  0  0  0  0  0  0  0  0  0  0
   -7.2600    4.4543   -9.1137 N   0  0  0  0  0  0  0  0  0  0  0  0
   -7.1467    3.3297   -9.7389 C   0  0  0  0  0  0  0  0  0  0  0  0
   -6.8259    2.0461   -9.0467 C   0  0  0  0  0  0  0  0  0  0  0  0
   -6.6225    1.9630   -7.7753 N   0  0  0  0  0  0  0  0  0  0  0  0
   -6.7082    3.1097   -7.0219 C   0  0  0  0  0  0  0  0  0  0  0  0
   -6.4688    2.9744   -5.7590 N   0  0  0  0  0  0  0  0  0  0  0  0
   -6.5482    4.1195   -5.0163 C   0  0  0  0  0  0  0  0  0  0  0  0
   -6.2486    4.0851   -3.7567 N   0  0  0  0  0  0  0  0  0  0  0  0
   -5.8445    2.7818   -3.2272 C   0  0  0  0  0  0  0  0  0  0  0  0
   -5.5369    2.9428   -1.7348 C   0  0  0  0  0  0  0  0  0  0  0  0
   -4.9260    1.6828   -1.1482 N   0  0  0  0  0  4  0  0  0  0  0  0
   -4.2535    1.9262    0.1999 C   0  0  0  0  0  0  0  0  0  0  0  0
   -5.3009    2.0460    1.3125 C   0  0  0  0  0  0  0  0  0  0  0  0
   -6.1277    0.8776    1.3645 O   0  0  0  0  0  0  0  0  0  0  0  0
   -6.8419    0.6746    0.1393 C   0  0  0  0  0  0  0  0  0  0  0  0
   -5.8759    0.4942   -1.0375 C   0  0  0  0  0  0  0  0  0  0  0  0
   -6.8738    6.1357   -5.0402 H   0  0  0  0  0  0  0  0  0  0  0  0
   -7.5480    6.6764   -8.4903 H   0  0  0  0  0  0  0  0  0  0  0  0
   -9.1930    6.6336   -5.3135 H   0  0  0  0  0  0  0  0  0  0  0  0
  -10.3945    8.5591   -4.3842 H   0  0  0  0  0  0  0  0  0  0  0  0
  -10.1890   10.7960   -5.4347 H   0  0  0  0  0  0  0  0  0  0  0  0
   -8.7442   11.0936   -7.4294 H   0  0  0  0  0  0  0  0  0  0  0  0
   -7.5034    9.1788   -8.3591 H   0  0  0  0  0  0  0  0  0  0  0  0
   -7.2817    3.2566  -10.8292 H   0  0  0  0  0  0  0  0  0  0  0  0
   -6.7716    1.1615   -9.6996 H   0  0  0  0  0  0  0  0  0  0  0  0
   -4.9457    2.4195   -3.7416 H   0  0  0  0  0  0  0  0  0  0  0  0
   -6.6523    2.0537   -3.3588 H   0  0  0  0  0  0  0  0  0  0  0  0
   -4.8008    3.7433   -1.5972 H   0  0  0  0  0  0  0  0  0  0  0  0
   -6.4343    3.1964   -1.1624 H   0  0  0  0  0  0  0  0  0  0  0  0
   -4.1759    1.4035   -1.7941 H   0  0  0  0  0  0  0  0  0  0  0  0
   -3.6105    1.0553    0.3686 H   0  0  0  0  0  0  0  0  0  0  0  0
   -3.6295    2.8207    0.1140 H   0  0  0  0  0  0  0  0  0  0  0  0
   -4.7977    2.1368    2.2803 H   0  0  0  0  0  0  0  0  0  0  0  0
   -5.9315    2.9327    1.1842 H   0  0  0  0  0  0  0  0  0  0  0  0
   -7.4460   -0.2306    0.2574 H   0  0  0  0  0  0  0  0  0  0  0  0
   -7.5315    1.5101   -0.0222 H   0  0  0  0  0  0  0  0  0  0  0  0
   -5.2323   -0.3768   -0.8707 H   0  0  0  0  0  0  0  0  0  0  0  0
   -6.3963    0.3689   -1.9893 H   0  0  0  0  0  0  0  0  0  0  0  0
  1  2  1  0
  2  3  1  0
  3  4  1  0
  4  5  2  0
  5  6  1  0
  6  7  2  0
  7  8  1  0
  8  9  2  0
  2 10  2  0
 10 11  1  0
 11 12  2  0
 12 13  1  0
 13 14  2  0
 14 15  1  0
 15 16  2  0
 16 17  1  0
 17 18  2  3
 18 19  1  0
 19 20  1  0
 20 21  1  0
 21 22  1  0
 22 23  1  0
 23 24  1  0
 24 25  1  0
 25 26  1  0
 17  1  1  0
 26 21  1  0
  9  4  1  0
 15 10  1  0
  1 27  1  0
  3 28  1  0
  5 29  1  0
  6 30  1  0
  7 31  1  0
  8 32  1  0
  9 33  1  0
 12 34  1  0
 13 35  1  0
 19 36  1  0
 19 37  1  0
 20 38  1  0
 20 39  1  0
 21 40  1  0
 22 41  1  0
 22 42  1  0
 23 43  1  0
 23 44  1  0
 25 45  1  0
 25 46  1  0
 26 47  1  0
 26 48  1  0
M  CHG  1  21   1
M  END
>  <ScrubInfo>  (2) 
{"isomerGroup": 0, "isomerId": 1, "confId": 0, "nr_conformers:": 1, "nr_isomers:": 9}

$$$$
_i2
     RDKit          3D

 48 51  0  0  0  0  0  0  0  0999 V2000
    1.6345   -0.9415    4.5899 N   0  0  0  0  0  0  0  0  0  0  0  0
    0.8898   -0.3734    3.6095 C   0  0  0  0  0  0  0  0  0  0  0  0
    1.5259    0.5006    2.7742 N   0  0  0  0  0  0  0  0  0  0  0  0
    2.7016    0.0804    2.0200 C   0  0  0  0  0  0  0  0  0  0  0  0
    3.2749    1.2601    1.2106 C   0  0  0  0  0  0  0  0  0  0  0  0
    4.3794    0.8353    0.2575 N   0  0  0  0  0  4  0  0  0  0  0  0
    5.6621    0.3932    0.9657 C   0  0  0  0  0  0  0  0  0  0  0  0
    6.7285    0.0269   -0.0733 C   0  0  0  0  0  0  0  0  0  0  0  0
    6.9872    1.1259   -0.9511 O   0  0  0  0  0  0  0  0  0  0  0  0
    5.8190    1.5094   -1.6823 C   0  0  0  0  0  0  0  0  0  0  0  0
    4.7066    1.9618   -0.7313 C   0  0  0  0  0  0  0  0  0  0  0  0
   -0.3690   -0.6209    3.4241 N   0  0  0  0  0  0  0  0  0  0  0  0
   -0.9531   -1.5508    4.3174 C   0  0  0  0  0  0  0  0  0  0  0  0
   -2.2568   -1.8114    4.0648 N   0  0  0  0  0  0  0  0  0  0  0  0
   -2.8475   -2.7029    4.8971 C   0  0  0  0  0  0  0  0  0  0  0  0
   -2.1702   -3.3235    5.9368 C   0  0  0  0  0  0  0  0  0  0  0  0
   -0.8666   -3.0844    6.1989 N   0  0  0  0  0  0  0  0  0  0  0  0
   -0.2760   -2.1854    5.3756 C   0  0  0  0  0  0  0  0  0  0  0  0
    1.1665   -1.8165    5.5435 C   0  0  0  0  0  0  0  0  0  0  0  0
    2.0292   -2.1882    6.4542 N   0  0  0  0  0  0  0  0  0  0  0  0
    1.6725   -3.0568    7.4918 C   0  0  0  0  0  0  0  0  0  0  0  0
    1.8778   -4.4330    7.3617 C   0  0  0  0  0  0  0  0  0  0  0  0
    1.5713   -5.2969    8.4155 C   0  0  0  0  0  0  0  0  0  0  0  0
    1.0723   -4.7850    9.6126 C   0  0  0  0  0  0  0  0  0  0  0  0
    0.8856   -3.4110    9.7584 C   0  0  0  0  0  0  0  0  0  0  0  0
    1.1929   -2.5498    8.7028 C   0  0  0  0  0  0  0  0  0  0  0  0
    2.5385   -0.5542    4.8129 H   0  0  0  0  0  0  0  0  0  0  0  0
    0.7941    0.8721    2.1625 H   0  0  0  0  0  0  0  0  0  0  0  0
    3.4669   -0.2980    2.7051 H   0  0  0  0  0  0  0  0  0  0  0  0
    2.4241   -0.7353    1.3421 H   0  0  0  0  0  0  0  0  0  0  0  0
    3.6798    2.0389    1.8668 H   0  0  0  0  0  0  0  0  0  0  0  0
    2.4834    1.7009    0.5934 H   0  0  0  0  0  0  0  0  0  0  0  0
    4.0382    0.0422   -0.3035 H   0  0  0  0  0  0  0  0  0  0  0  0
    5.9845    1.2366    1.5853 H   0  0  0  0  0  0  0  0  0  0  0  0
    5.4194   -0.4706    1.5893 H   0  0  0  0  0  0  0  0  0  0  0  0
    7.6658   -0.2236    0.4329 H   0  0  0  0  0  0  0  0  0  0  0  0
    6.4238   -0.8454   -0.6634 H   0  0  0  0  0  0  0  0  0  0  0  0
    6.0964    2.3345   -2.3455 H   0  0  0  0  0  0  0  0  0  0  0  0
    5.4907    0.6719   -2.3088 H   0  0  0  0  0  0  0  0  0  0  0  0
    5.0228    2.8216   -0.1308 H   0  0  0  0  0  0  0  0  0  0  0  0
    3.7887    2.1941   -1.2795 H   0  0  0  0  0  0  0  0  0  0  0  0
   -3.8950   -2.9089    4.7033 H   0  0  0  0  0  0  0  0  0  0  0  0
   -2.6640   -4.0349    6.5907 H   0  0  0  0  0  0  0  0  0  0  0  0
    2.2747   -4.8333    6.4344 H   0  0  0  0  0  0  0  0  0  0  0  0
    1.7250   -6.3666    8.3035 H   0  0  0  0  0  0  0  0  0  0  0  0
    0.8346   -5.4561   10.4342 H   0  0  0  0  0  0  0  0  0  0  0  0
    0.5051   -3.0094   10.6936 H   0  0  0  0  0  0  0  0  0  0  0  0
    1.0565   -1.4796    8.8234 H   0  0  0  0  0  0  0  0  0  0  0  0
  1  2  1  0
  2  3  1  0
  3  4  1  0
  4  5  1  0
  5  6  1  0
  6  7  1  0
  7  8  1  0
  8  9  1  0
  9 10  1  0
 10 11  1  0
  2 12  2  0
 12 13  1  0
 13 14  2  0
 14 15  1  0
 15 16  2  0
 16 17  1  0
 17 18  2  0
 18 19  1  0
 19 20  2  3
 20 21  1  0
 21 22  2  0
 22 23  1  0
 23 24  2  0
 24 25  1  0
 25 26  2  0
 19  1  1  0
 26 21  1  0
 11  6  1  0
 18 13  1  0
  1 27  1  0
  3 28  1  0
  4 29  1  0
  4 30  1  0
  5 31  1  0
  5 32  1  0
  6 33  1  0
  7 34  1  0
  7 35  1  0
  8 36  1  0
  8 37  1  0
 10 38  1  0
 10 39  1  0
 11 40  1  0
 11 41  1  0
 15 42  1  0
 16 43  1  0
 22 44  1  0
 23 45  1  0
 24 46  1  0
 25 47  1  0
 26 48  1  0
M  CHG  1   6   1
M  END
>  <ScrubInfo>  (3) 
{"isomerGroup": 0, "isomerId": 2, "confId": 0, "nr_conformers:": 1, "nr_isomers:": 9}

$$$$
_i3
     RDKit          3D

 48 51  0  0  0  0  0  0  0  0999 V2000
    3.9937   -3.6685   -4.7094 N   0  0  0  0  0  0  0  0  0  0  0  0
    4.9142   -2.9906   -3.9754 C   0  0  0  0  0  0  0  0  0  0  0  0
    4.8167   -2.6637   -2.7362 N   0  0  0  0  0  0  0  0  0  0  0  0
    3.6332   -3.0135   -1.9687 C   0  0  0  0  0  0  0  0  0  0  0  0
    3.9112   -2.7293   -0.4826 C   0  0  0  0  0  0  0  0  0  0  0  0
    3.9438   -1.2427   -0.1439 N   0  0  0  0  0  4  0  0  0  0  0  0
    5.0164   -0.4048   -0.8470 C   0  0  0  0  0  0  0  0  0  0  0  0
    6.4038   -0.7374   -0.2961 C   0  0  0  0  0  0  0  0  0  0  0  0
    6.4511   -0.4803    1.1168 O   0  0  0  0  0  0  0  0  0  0  0  0
    5.4990   -1.2686    1.8400 C   0  0  0  0  0  0  0  0  0  0  0  0
    4.0637   -1.0034    1.3600 C   0  0  0  0  0  0  0  0  0  0  0  0
    6.0983   -2.5617   -4.5191 N   0  0  0  0  0  0  0  0  0  0  0  0
    6.3673   -2.8145   -5.7782 C   0  0  0  0  0  0  0  0  0  0  0  0
    7.5789   -2.3590   -6.2641 N   0  0  0  0  0  0  0  0  0  0  0  0
    8.5481   -3.1672   -6.9108 C   0  0  0  0  0  0  0  0  0  0  0  0
    8.5591   -4.5656   -6.8398 C   0  0  0  0  0  0  0  0  0  0  0  0
    9.5654   -5.3042   -7.4696 C   0  0  0  0  0  0  0  0  0  0  0  0
   10.5775   -4.6529   -8.1706 C   0  0  0  0  0  0  0  0  0  0  0  0
   10.5868   -3.2626   -8.2403 C   0  0  0  0  0  0  0  0  0  0  0  0
    9.5812   -2.5261   -7.6100 C   0  0  0  0  0  0  0  0  0  0  0  0
    5.3836   -3.5081   -6.6670 C   0  0  0  0  0  0  0  0  0  0  0  0
    5.6470   -3.6775   -7.9851 N   0  0  0  0  0  0  0  0  0  0  0  0
    4.6742   -4.3083   -8.6777 C   0  0  0  0  0  0  0  0  0  0  0  0
    3.4972   -4.7355   -8.0795 C   0  0  0  0  0  0  0  0  0  0  0  0
    3.2338   -4.5484   -6.7599 N   0  0  0  0  0  0  0  0  0  0  0  0
    4.2020   -3.9180   -6.0572 C   0  0  0  0  0  0  0  0  0  0  0  0
    3.1091   -3.9857   -4.3548 H   0  0  0  0  0  0  0  0  0  0  0  0
    2.7650   -2.4368   -2.3069 H   0  0  0  0  0  0  0  0  0  0  0  0
    3.4083   -4.0814   -2.0727 H   0  0  0  0  0  0  0  0  0  0  0  0
    3.0995   -3.1545    0.1177 H   0  0  0  0  0  0  0  0  0  0  0  0
    4.8589   -3.1737   -0.1650 H   0  0  0  0  0  0  0  0  0  0  0  0
    3.0447   -0.8512   -0.4459 H   0  0  0  0  0  0  0  0  0  0  0  0
    4.7633    0.6356   -0.6086 H   0  0  0  0  0  0  0  0  0  0  0  0
    4.9225   -0.5154   -1.9256 H   0  0  0  0  0  0  0  0  0  0  0  0
    7.1507   -0.0921   -0.7689 H   0  0  0  0  0  0  0  0  0  0  0  0
    6.6926   -1.7758   -0.4889 H   0  0  0  0  0  0  0  0  0  0  0  0
    5.7681   -2.3268    1.7542 H   0  0  0  0  0  0  0  0  0  0  0  0
    5.5836   -0.9968    2.8971 H   0  0  0  0  0  0  0  0  0  0  0  0
    3.7921    0.0465    1.5156 H   0  0  0  0  0  0  0  0  0  0  0  0
    3.3315   -1.6408    1.8646 H   0  0  0  0  0  0  0  0  0  0  0  0
    8.0587   -1.7921   -5.5694 H   0  0  0  0  0  0  0  0  0  0  0  0
    7.7962   -5.1053   -6.2879 H   0  0  0  0  0  0  0  0  0  0  0  0
    9.5601   -6.3897   -7.4108 H   0  0  0  0  0  0  0  0  0  0  0  0
   11.3583   -5.2281   -8.6619 H   0  0  0  0  0  0  0  0  0  0  0  0
   11.3739   -2.7506   -8.7880 H   0  0  0  0  0  0  0  0  0  0  0  0
    9.5991   -1.4412   -7.6828 H   0  0  0  0  0  0  0  0  0  0  0  0
    4.8647   -4.4637   -9.7346 H   0  0  0  0  0  0  0  0  0  0  0  0
    2.7265   -5.2420   -8.6519 H   0  0  0  0  0  0  0  0  0  0  0  0
  1  2  1  0
  2  3  2  3
  3  4  1  0
  4  5  1  0
  5  6  1  0
  6  7  1  0
  7  8  1  0
  8  9  1  0
  9 10  1  0
 10 11  1  0
  2 12  1  0
 12 13  2  0
 13 14  1  0
 14 15  1  0
 15 16  2  0
 16 17  1  0
 17 18  2  0
 18 19  1  0
 19 20  2  0
 13 21  1  0
 21 22  2  0
 22 23  1  0
 23 24  2  0
 24 25  1  0
 25 26  2  0
 26  1  1  0
 11  6  1  0
 20 15  1  0
 26 21  1  0
  1 27  1  0
  4 28  1  0
  4 29  1  0
  5 30  1  0
  5 31  1  0
  6 32  1  0
  7 33  1  0
  7 34  1  0
  8 35  1  0
  8 36  1  0
 10 37  1  0
 10 38  1  0
 11 39  1  0
 11 40  1  0
 14 41  1  0
 16 42  1  0
 17 43  1  0
 18 44  1  0
 19 45  1  0
 20 46  1  0
 23 47  1  0
 24 48  1  0
M  CHG  1   6   1
M  END
>  <ScrubInfo>  (4) 
{"isomerGroup": 0, "isomerId": 3, "confId": 0, "nr_conformers:": 1, "nr_isomers:": 9}

$$$$
_i4
     RDKit          3D

 48 51  0  0  0  0  0  0  0  0999 V2000
   -8.3165   -5.6481    5.1741 N   0  0  0  0  0  0  0  0  0  0  0  0
   -7.9120   -4.6820    4.3220 C   0  0  0  0  0  0  0  0  0  0  0  0
   -8.6455   -4.5935    3.1754 N   0  0  0  0  0  0  0  0  0  0  0  0
   -8.1992   -3.8514    1.9904 C   0  0  0  0  0  0  0  0  0  0  0  0
   -8.1703   -2.3123    2.1809 C   0  0  0  0  0  0  0  0  0  0  0  0
   -6.9590   -1.8225    2.9417 N   0  0  0  0  0  4  0  0  0  0  0  0
   -5.6477   -1.7848    2.1834 C   0  0  0  0  0  0  0  0  0  0  0  0
   -5.5853   -0.5429    1.2845 C   0  0  0  0  0  0  0  0  0  0  0  0
   -5.7955    0.6625    2.0296 O   0  0  0  0  0  0  0  0  0  0  0  0
   -7.0555    0.6612    2.7129 C   0  0  0  0  0  0  0  0  0  0  0  0
   -7.1560   -0.5164    3.6873 C   0  0  0  0  0  0  0  0  0  0  0  0
   -6.9360   -3.8614    4.5430 N   0  0  0  0  0  0  0  0  0  0  0  0
   -6.2342   -3.9382    5.7354 C   0  0  0  0  0  0  0  0  0  0  0  0
   -5.3846   -2.9584    5.8170 N   0  0  0  0  0  0  0  0  0  0  0  0
   -4.5616   -2.7964    6.9361 C   0  0  0  0  0  0  0  0  0  0  0  0
   -3.2682   -3.3258    6.9397 C   0  0  0  0  0  0  0  0  0  0  0  0
   -2.4235   -3.1209    8.0326 C   0  0  0  0  0  0  0  0  0  0  0  0
   -2.8640   -2.3707    9.1220 C   0  0  0  0  0  0  0  0  0  0  0  0
   -4.1451   -1.8209    9.1168 C   0  0  0  0  0  0  0  0  0  0  0  0
   -4.9880   -2.0270    8.0227 C   0  0  0  0  0  0  0  0  0  0  0  0
   -6.5429   -5.0399    6.6994 C   0  0  0  0  0  0  0  0  0  0  0  0
   -5.8205   -5.2040    7.8339 N   0  0  0  0  0  0  0  0  0  0  0  0
   -6.2177   -6.2245    8.6255 C   0  0  0  0  0  0  0  0  0  0  0  0
   -7.2882   -7.0416    8.2976 C   0  0  0  0  0  0  0  0  0  0  0  0
   -8.0107   -6.8779    7.1607 N   0  0  0  0  0  0  0  0  0  0  0  0
   -7.6202   -5.8613    6.3591 C   0  0  0  0  0  0  0  0  0  0  0  0
   -9.0866   -6.2794    5.0173 H   0  0  0  0  0  0  0  0  0  0  0  0
   -9.1461   -5.4453    2.9338 H   0  0  0  0  0  0  0  0  0  0  0  0
   -8.9187   -4.0664    1.1916 H   0  0  0  0  0  0  0  0  0  0  0  0
   -7.2315   -4.2359    1.6523 H   0  0  0  0  0  0  0  0  0  0  0  0
   -9.0581   -1.9955    2.7392 H   0  0  0  0  0  0  0  0  0  0  0  0
   -8.1677   -1.8072    1.2105 H   0  0  0  0  0  0  0  0  0  0  0  0
   -6.8080   -2.5261    3.6990 H   0  0  0  0  0  0  0  0  0  0  0  0
   -5.5486   -2.7115    1.6126 H   0  0  0  0  0  0  0  0  0  0  0  0
   -4.8608   -1.7461    2.9447 H   0  0  0  0  0  0  0  0  0  0  0  0
   -4.5953   -0.4759    0.8224 H   0  0  0  0  0  0  0  0  0  0  0  0
   -6.3211   -0.5948    0.4745 H   0  0  0  0  0  0  0  0  0  0  0  0
   -7.1318    1.6031    3.2650 H   0  0  0  0  0  0  0  0  0  0  0  0
   -7.8653    0.6426    1.9747 H   0  0  0  0  0  0  0  0  0  0  0  0
   -6.3545   -0.4689    4.4326 H   0  0  0  0  0  0  0  0  0  0  0  0
   -8.1212   -0.5553    4.2008 H   0  0  0  0  0  0  0  0  0  0  0  0
   -2.9167   -3.9036    6.0905 H   0  0  0  0  0  0  0  0  0  0  0  0
   -1.4221   -3.5435    8.0330 H   0  0  0  0  0  0  0  0  0  0  0  0
   -2.2063   -2.2101    9.9730 H   0  0  0  0  0  0  0  0  0  0  0  0
   -4.4854   -1.2297    9.9631 H   0  0  0  0  0  0  0  0  0  0  0  0
   -5.9808   -1.5886    8.0216 H   0  0  0  0  0  0  0  0  0  0  0  0
   -5.6498   -6.3695    9.5389 H   0  0  0  0  0  0  0  0  0  0  0  0
   -7.5960   -7.8567    8.9449 H   0  0  0  0  0  0  0  0  0  0  0  0
  1  2  1  0
  2  3  1  0
  3  4  1  0
  4  5  1  0
  5  6  1  0
  6  7  1  0
  7  8  1  0
  8  9  1  0
  9 10  1  0
 10 11  1  0
  2 12  2  0
 12 13  1  0
 13 14  2  3
 14 15  1  0
 15 16  2  0
 16 17  1  0
 17 18  2  0
 18 19  1  0
 19 20  2  0
 13 21  1  0
 21 22  2  0
 22 23  1  0
 23 24  2  0
 24 25  1  0
 25 26  2  0
 26  1  1  0
 11  6  1  0
 20 15  1  0
 26 21  1  0
  1 27  1  0
  3 28  1  0
  4 29  1  0
  4 30  1  0
  5 31  1  0
  5 32  1  0
  6 33  1  0
  7 34  1  0
  7 35  1  0
  8 36  1  0
  8 37  1  0
 10 38  1  0
 10 39  1  0
 11 40  1  0
 11 41  1  0
 16 42  1  0
 17 43  1  0
 18 44  1  0
 19 45  1  0
 20 46  1  0
 23 47  1  0
 24 48  1  0
M  CHG  1   6   1
M  END
>  <ScrubInfo>  (5) 
{"isomerGroup": 0, "isomerId": 4, "confId": 0, "nr_conformers:": 1, "nr_isomers:": 9}

$$$$
_i5
     RDKit          3D

 48 51  0  0  0  0  0  0  0  0999 V2000
   12.2072   -0.1912   -3.4540 N   0  0  0  0  0  0  0  0  0  0  0  0
   13.2109    0.7396   -3.5054 C   0  0  0  0  0  0  0  0  0  0  0  0
   12.9775    1.9876   -3.9447 C   0  0  0  0  0  0  0  0  0  0  0  0
   11.7412    2.4337   -4.3727 N   0  0  0  0  0  0  0  0  0  0  0  0
   10.7631    1.5641   -4.3402 C   0  0  0  0  0  0  0  0  0  0  0  0
    9.3874    1.9828   -4.7921 C   0  0  0  0  0  0  0  0  0  0  0  0
    9.2734    3.2938   -5.1995 N   0  0  0  0  0  0  0  0  0  0  0  0
    8.1854    3.9819   -5.7588 C   0  0  0  0  0  0  0  0  0  0  0  0
    6.9655    3.3840   -6.0918 C   0  0  0  0  0  0  0  0  0  0  0  0
    5.9115    4.1356   -6.6249 C   0  0  0  0  0  0  0  0  0  0  0  0
    6.0579    5.5045   -6.8251 C   0  0  0  0  0  0  0  0  0  0  0  0
    7.2577    6.1226   -6.4919 C   0  0  0  0  0  0  0  0  0  0  0  0
    8.3080    5.3674   -5.9618 C   0  0  0  0  0  0  0  0  0  0  0  0
    8.4537    1.0891   -4.7434 N   0  0  0  0  0  0  0  0  0  0  0  0
    8.7312   -0.1712   -4.3059 C   0  0  0  0  0  0  0  0  0  0  0  0
    7.7016   -0.9422   -4.3210 N   0  0  0  0  0  0  0  0  0  0  0  0
    7.8517   -2.3159   -3.8585 C   0  0  0  0  0  0  0  0  0  0  0  0
    6.5500   -3.0751   -4.1286 C   0  0  0  0  0  0  0  0  0  0  0  0
    5.3466   -2.6379   -3.3135 N   0  0  0  0  0  4  0  0  0  0  0  0
    4.8503   -1.2097   -3.5369 C   0  0  0  0  0  0  0  0  0  0  0  0
    5.3146   -0.2282   -2.4536 C   0  0  0  0  0  0  0  0  0  0  0  0
    5.0592   -0.7447   -1.1417 O   0  0  0  0  0  0  0  0  0  0  0  0
    5.8169   -1.9362   -0.9227 C   0  0  0  0  0  0  0  0  0  0  0  0
    5.3398   -3.0512   -1.8528 C   0  0  0  0  0  0  0  0  0  0  0  0
    9.9268   -0.6610   -3.8589 N   0  0  0  0  0  0  0  0  0  0  0  0
   10.9401    0.1403   -3.8615 C   0  0  0  0  0  0  0  0  0  0  0  0
   12.4133   -1.1281   -3.1327 H   0  0  0  0  0  0  0  0  0  0  0  0
   14.1899    0.4074   -3.1745 H   0  0  0  0  0  0  0  0  0  0  0  0
   13.7858    2.7153   -3.9798 H   0  0  0  0  0  0  0  0  0  0  0  0
   10.1386    3.8299   -5.1479 H   0  0  0  0  0  0  0  0  0  0  0  0
    6.8079    2.3190   -5.9606 H   0  0  0  0  0  0  0  0  0  0  0  0
    4.9760    3.6481   -6.8863 H   0  0  0  0  0  0  0  0  0  0  0  0
    5.2399    6.0882   -7.2398 H   0  0  0  0  0  0  0  0  0  0  0  0
    7.3791    7.1925   -6.6425 H   0  0  0  0  0  0  0  0  0  0  0  0
    9.2316    5.8821   -5.7056 H   0  0  0  0  0  0  0  0  0  0  0  0
    8.6489   -2.8213   -4.4176 H   0  0  0  0  0  0  0  0  0  0  0  0
    8.1039   -2.3543   -2.7948 H   0  0  0  0  0  0  0  0  0  0  0  0
    6.6852   -4.1435   -3.9270 H   0  0  0  0  0  0  0  0  0  0  0  0
    6.2550   -2.9707   -5.1796 H   0  0  0  0  0  0  0  0  0  0  0  0
    4.5963   -3.2030   -3.7280 H   0  0  0  0  0  0  0  0  0  0  0  0
    3.7578   -1.2918   -3.4850 H   0  0  0  0  0  0  0  0  0  0  0  0
    5.1147   -0.8955   -4.5506 H   0  0  0  0  0  0  0  0  0  0  0  0
    6.3721    0.0310   -2.5266 H   0  0  0  0  0  0  0  0  0  0  0  0
    4.7525    0.7064   -2.5524 H   0  0  0  0  0  0  0  0  0  0  0  0
    6.8842   -1.7243   -1.0391 H   0  0  0  0  0  0  0  0  0  0  0  0
    5.6591   -2.2401    0.1172 H   0  0  0  0  0  0  0  0  0  0  0  0
    5.9359   -3.9624   -1.7468 H   0  0  0  0  0  0  0  0  0  0  0  0
    4.2929   -3.2879   -1.6299 H   0  0  0  0  0  0  0  0  0  0  0  0
  1  2  1  0
  2  3  2  0
  3  4  1  0
  4  5  2  0
  5  6  1  0
  6  7  1  0
  7  8  1  0
  8  9  2  0
  9 10  1  0
 10 11  2  0
 11 12  1  0
 12 13  2  0
  6 14  2  0
 14 15  1  0
 15 16  2  3
 16 17  1  0
 17 18  1  0
 18 19  1  0
 19 20  1  0
 20 21  1  0
 21 22  1  0
 22 23  1  0
 23 24  1  0
 15 25  1  0
 25 26  2  0
 26  1  1  0
 26  5  1  0
 13  8  1  0
 24 19  1  0
  1 27  1  0
  2 28  1  0
  3 29  1  0
  7 30  1  0
  9 31  1  0
 10 32  1  0
 11 33  1  0
 12 34  1  0
 13 35  1  0
 17 36  1  0
 17 37  1  0
 18 38  1  0
 18 39  1  0
 19 40  1  0
 20 41  1  0
 20 42  1  0
 21 43  1  0
 21 44  1  0
 23 45  1  0
 23 46  1  0
 24 47  1  0
 24 48  1  0
M  CHG  1  19   1
M  END
>  <ScrubInfo>  (6) 
{"isomerGroup": 0, "isomerId": 5, "confId": 0, "nr_conformers:": 1, "nr_isomers:": 9}

$$$$
_i6
     RDKit          3D

 48 51  0  0  0  0  0  0  0  0999 V2000
   -1.2371    2.2658    5.3105 N   0  0  0  0  0  0  0  0  0  0  0  0
   -0.6661    3.0676    6.2658 C   0  0  0  0  0  0  0  0  0  0  0  0
    0.1744    4.0576    5.9269 C   0  0  0  0  0  0  0  0  0  0  0  0
    0.5130    4.3603    4.6255 N   0  0  0  0  0  0  0  0  0  0  0  0
    0.0043    3.6147    3.6824 C   0  0  0  0  0  0  0  0  0  0  0  0
    0.2230    3.8258    2.2113 C   0  0  0  0  0  0  0  0  0  0  0  0
    0.6093    4.9147    1.6231 N   0  0  0  0  0  0  0  0  0  0  0  0
    0.8802    6.0805    2.3447 C   0  0  0  0  0  0  0  0  0  0  0  0
   -0.1410    6.9929    2.6272 C   0  0  0  0  0  0  0  0  0  0  0  0
    0.1387    8.1788    3.3097 C   0  0  0  0  0  0  0  0  0  0  0  0
    1.4464    8.4661    3.6987 C   0  0  0  0  0  0  0  0  0  0  0  0
    2.4744    7.5736    3.3980 C   0  0  0  0  0  0  0  0  0  0  0  0
    2.1918    6.3889    2.7150 C   0  0  0  0  0  0  0  0  0  0  0  0
   -0.0497    2.7870    1.3585 N   0  0  0  0  0  0  0  0  0  0  0  0
   -0.7100    1.7628    1.7872 C   0  0  0  0  0  0  0  0  0  0  0  0
   -0.9537    0.7984    0.8505 N   0  0  0  0  0  0  0  0  0  0  0  0
   -1.1740   -0.6088    1.1671 C   0  0  0  0  0  0  0  0  0  0  0  0
   -2.5403   -1.0370    0.5938 C   0  0  0  0  0  0  0  0  0  0  0  0
   -3.5654    0.0467    0.8737 N   0  0  0  0  0  4  0  0  0  0  0  0
   -4.1717   -0.0358    2.2646 C   0  0  0  0  0  0  0  0  0  0  0  0
   -5.1089    1.1565    2.4786 C   0  0  0  0  0  0  0  0  0  0  0  0
   -6.1336    1.1802    1.4774 O   0  0  0  0  0  0  0  0  0  0  0  0
   -5.5851    1.3176    0.1608 C   0  0  0  0  0  0  0  0  0  0  0  0
   -4.6561    0.1446   -0.1767 C   0  0  0  0  0  0  0  0  0  0  0  0
   -1.2069    1.5907    3.0487 N   0  0  0  0  0  0  0  0  0  0  0  0
   -0.8681    2.4128    3.9942 C   0  0  0  0  0  0  0  0  0  0  0  0
   -1.7021    1.4222    5.6163 H   0  0  0  0  0  0  0  0  0  0  0  0
   -0.9215    2.8455    7.2972 H   0  0  0  0  0  0  0  0  0  0  0  0
    0.6262    4.6859    6.6917 H   0  0  0  0  0  0  0  0  0  0  0  0
   -1.1568    6.7848    2.3068 H   0  0  0  0  0  0  0  0  0  0  0  0
   -0.6599    8.8821    3.5293 H   0  0  0  0  0  0  0  0  0  0  0  0
    1.6669    9.3905    4.2267 H   0  0  0  0  0  0  0  0  0  0  0  0
    3.4963    7.8015    3.6889 H   0  0  0  0  0  0  0  0  0  0  0  0
    2.9969    5.7022    2.4707 H   0  0  0  0  0  0  0  0  0  0  0  0
   -0.3550    0.9616    0.0384 H   0  0  0  0  0  0  0  0  0  0  0  0
   -1.1530   -0.7911    2.2468 H   0  0  0  0  0  0  0  0  0  0  0  0
   -0.3787   -1.2185    0.7252 H   0  0  0  0  0  0  0  0  0  0  0  0
   -2.4621   -1.1248   -0.4956 H   0  0  0  0  0  0  0  0  0  0  0  0
   -2.8999   -1.9838    1.0082 H   0  0  0  0  0  0  0  0  0  0  0  0
   -3.0161    0.9242    0.8326 H   0  0  0  0  0  0  0  0  0  0  0  0
   -3.3597   -0.0426    2.9950 H   0  0  0  0  0  0  0  0  0  0  0  0
   -4.7222   -0.9818    2.3089 H   0  0  0  0  0  0  0  0  0  0  0  0
   -5.5985    1.0719    3.4536 H   0  0  0  0  0  0  0  0  0  0  0  0
   -4.5592    2.1049    2.4600 H   0  0  0  0  0  0  0  0  0  0  0  0
   -6.4195    1.3433   -0.5468 H   0  0  0  0  0  0  0  0  0  0  0  0
   -5.0558    2.2751    0.0887 H   0  0  0  0  0  0  0  0  0  0  0  0
   -4.1734    0.2923   -1.1474 H   0  0  0  0  0  0  0  0  0  0  0  0
   -5.1942   -0.8090   -0.1586 H   0  0  0  0  0  0  0  0  0  0  0  0
  1  2  1  0
  2  3  2  0
  3  4  1  0
  4  5  2  0
  5  6  1  0
  6  7  2  3
  7  8  1  0
  8  9  2  0
  9 10  1  0
 10 11  2  0
 11 12  1  0
 12 13  2  0
  6 14  1  0
 14 15  2  0
 15 16  1  0
 16 17  1  0
 17 18  1  0
 18 19  1  0
 19 20  1  0
 20 21  1  0
 21 22  1  0
 22 23  1  0
 23 24  1  0
 15 25  1  0
 25 26  2  0
 26  1  1  0
 26  5  1  0
 13  8  1  0
 24 19  1  0
  1 27  1  0
  2 28  1  0
  3 29  1  0
  9 30  1  0
 10 31  1  0
 11 32  1  0
 12 33  1  0
 13 34  1  0
 16 35  1  0
 17 36  1  0
 17 37  1  0
 18 38  1  0
 18 39  1  0
 19 40  1  0
 20 41  1  0
 20 42  1  0
 21 43  1  0
 21 44  1  0
 23 45  1  0
 23 46  1  0
 24 47  1  0
 24 48  1  0
M  CHG  1  19   1
M  END
>  <ScrubInfo>  (7) 
{"isomerGroup": 0, "isomerId": 6, "confId": 0, "nr_conformers:": 1, "nr_isomers:": 9}

$$$$
_i7
     RDKit          3D

 48 51  0  0  0  0  0  0  0  0999 V2000
    4.5461   -6.4402   -2.1195 N   0  0  0  0  0  0  0  0  0  0  0  0
    5.6876   -5.6916   -2.0728 C   0  0  0  0  0  0  0  0  0  0  0  0
    6.1153   -4.9542   -1.0971 N   0  0  0  0  0  0  0  0  0  0  0  0
    5.2990   -4.9147    0.1286 C   0  0  0  0  0  0  0  0  0  0  0  0
    6.0883   -4.1231    1.1873 C   0  0  0  0  0  0  0  0  0  0  0  0
    6.8093   -2.9817    0.4958 N   0  0  0  0  0  4  0  0  0  0  0  0
    8.1122   -2.5674    1.1488 C   0  0  0  0  0  0  0  0  0  0  0  0
    7.8312   -1.6888    2.3718 C   0  0  0  0  0  0  0  0  0  0  0  0
    7.0575   -0.5385    2.0077 O   0  0  0  0  0  0  0  0  0  0  0  0
    5.7875   -0.9020    1.4529 C   0  0  0  0  0  0  0  0  0  0  0  0
    5.9531   -1.7652    0.1957 C   0  0  0  0  0  0  0  0  0  0  0  0
    6.4247   -5.7596   -3.2199 N   0  0  0  0  0  0  0  0  0  0  0  0
    6.1921   -6.4587   -4.3844 C   0  0  0  0  0  0  0  0  0  0  0  0
    7.0985   -6.3206   -5.3179 N   0  0  0  0  0  0  0  0  0  0  0  0
    6.9959   -6.9726   -6.5515 C   0  0  0  0  0  0  0  0  0  0  0  0
    7.5863   -8.2257   -6.7382 C   0  0  0  0  0  0  0  0  0  0  0  0
    7.5302   -8.8559   -7.9832 C   0  0  0  0  0  0  0  0  0  0  0  0
    6.8963   -8.2268   -9.0540 C   0  0  0  0  0  0  0  0  0  0  0  0
    6.3254   -6.9664   -8.8822 C   0  0  0  0  0  0  0  0  0  0  0  0
    6.3831   -6.3387   -7.6359 C   0  0  0  0  0  0  0  0  0  0  0  0
    4.9320   -7.2685   -4.3939 C   0  0  0  0  0  0  0  0  0  0  0  0
    4.5774   -8.0025   -5.4732 N   0  0  0  0  0  0  0  0  0  0  0  0
    3.4198   -8.6857   -5.3506 C   0  0  0  0  0  0  0  0  0  0  0  0
    2.6497   -8.6351   -4.1997 C   0  0  0  0  0  0  0  0  0  0  0  0
    3.0003   -7.8981   -3.1149 N   0  0  0  0  0  0  0  0  0  0  0  0
    4.1606   -7.2089   -3.2225 C   0  0  0  0  0  0  0  0  0  0  0  0
    3.8874   -6.5082   -1.3596 H   0  0  0  0  0  0  0  0  0  0  0  0
    4.3484   -4.4084   -0.0743 H   0  0  0  0  0  0  0  0  0  0  0  0
    5.0905   -5.9188    0.5145 H   0  0  0  0  0  0  0  0  0  0  0  0
    5.4549   -3.7295    1.9866 H   0  0  0  0  0  0  0  0  0  0  0  0
    6.8591   -4.7709    1.6183 H   0  0  0  0  0  0  0  0  0  0  0  0
    7.0449   -3.4070   -0.4220 H   0  0  0  0  0  0  0  0  0  0  0  0
    8.6608   -2.0038    0.3862 H   0  0  0  0  0  0  0  0  0  0  0  0
    8.6755   -3.4705    1.4012 H   0  0  0  0  0  0  0  0  0  0  0  0
    8.7758   -1.3315    2.7933 H   0  0  0  0  0  0  0  0  0  0  0  0
    7.3059   -2.2455    3.1562 H   0  0  0  0  0  0  0  0  0  0  0  0
    5.1935   -1.4126    2.2189 H   0  0  0  0  0  0  0  0  0  0  0  0
    5.2632    0.0235    1.1946 H   0  0  0  0  0  0  0  0  0  0  0  0
    6.4900   -1.2111   -0.5819 H   0  0  0  0  0  0  0  0  0  0  0  0
    4.9931   -2.1042   -0.2030 H   0  0  0  0  0  0  0  0  0  0  0  0
    7.2913   -5.2387   -3.2407 H   0  0  0  0  0  0  0  0  0  0  0  0
    8.0919   -8.7120   -5.9100 H   0  0  0  0  0  0  0  0  0  0  0  0
    7.9860   -9.8330   -8.1184 H   0  0  0  0  0  0  0  0  0  0  0  0
    6.8552   -8.7148  -10.0245 H   0  0  0  0  0  0  0  0  0  0  0  0
    5.8413   -6.4697   -9.7187 H   0  0  0  0  0  0  0  0  0  0  0  0
    5.9493   -5.3520   -7.5086 H   0  0  0  0  0  0  0  0  0  0  0  0
    3.1244   -9.2802   -6.2090 H   0  0  0  0  0  0  0  0  0  0  0  0
    1.7213   -9.1912   -4.1185 H   0  0  0  0  0  0  0  0  0  0  0  0
  1  2  1  0
  2  3  2  3
  3  4  1  0
  4  5  1  0
  5  6  1  0
  6  7  1  0
  7  8  1  0
  8  9  1  0
  9 10  1  0
 10 11  1  0
  2 12  1  0
 12 13  1  0
 13 14  2  3
 14 15  1  0
 15 16  2  0
 16 17  1  0
 17 18  2  0
 18 19  1  0
 19 20  2  0
 13 21  1  0
 21 22  2  0
 22 23  1  0
 23 24  2  0
 24 25  1  0
 25 26  2  0
 26  1  1  0
 11  6  1  0
 20 15  1  0
 26 21  1  0
  1 27  1  0
  4 28  1  0
  4 29  1  0
  5 30  1  0
  5 31  1  0
  6 32  1  0
  7 33  1  0
  7 34  1  0
  8 35  1  0
  8 36  1  0
 10 37  1  0
 10 38  1  0
 11 39  1  0
 11 40  1  0
 12 41  1  0
 16 42  1  0
 17 43  1  0
 18 44  1  0
 19 45  1  0
 20 46  1  0
 23 47  1  0
 24 48  1  0
M  CHG  1   6   1
M  END
>  <ScrubInfo>  (8) 
{"isomerGroup": 0, "isomerId": 7, "confId": 0, "nr_conformers:": 1, "nr_isomers:": 9}

$$$$
_i8
     RDKit          3D

 48 51  0  0  0  0  0  0  0  0999 V2000
    0.6070    0.5618    6.0223 N   0  0  0  0  0  0  0  0  0  0  0  0
    1.5301    1.2268    6.7810 C   0  0  0  0  0  0  0  0  0  0  0  0
    2.0936    2.3631    6.3448 C   0  0  0  0  0  0  0  0  0  0  0  0
    1.8050    2.9457    5.1305 N   0  0  0  0  0  0  0  0  0  0  0  0
    0.9343    2.3560    4.3580 C   0  0  0  0  0  0  0  0  0  0  0  0
    0.5425    2.9062    2.9995 C   0  0  0  0  0  0  0  0  0  0  0  0
    0.9740    3.9764    2.3957 N   0  0  0  0  0  0  0  0  0  0  0  0
    1.9325    4.8111    2.9790 C   0  0  0  0  0  0  0  0  0  0  0  0
    1.5374    5.9101    3.7469 C   0  0  0  0  0  0  0  0  0  0  0  0
    2.4915    6.7748    4.2876 C   0  0  0  0  0  0  0  0  0  0  0  0
    3.8469    6.5534    4.0481 C   0  0  0  0  0  0  0  0  0  0  0  0
    4.2480    5.4733    3.2632 C   0  0  0  0  0  0  0  0  0  0  0  0
    3.2920    4.6101    2.7237 C   0  0  0  0  0  0  0  0  0  0  0  0
   -0.3899    2.1306    2.3760 N   0  0  0  0  0  0  0  0  0  0  0  0
   -0.9569    0.9808    2.8178 C   0  0  0  0  0  0  0  0  0  0  0  0
   -1.8306    0.3798    2.0672 N   0  0  0  0  0  0  0  0  0  0  0  0
   -2.3800   -0.8846    2.6076 C   0  0  0  0  0  0  0  0  0  0  0  0
   -3.2736   -1.5119    1.5279 C   0  0  0  0  0  0  0  0  0  0  0  0
   -4.0506   -0.4079    0.8410 N   0  0  0  0  0  4  0  0  0  0  0  0
   -5.2527    0.0740    1.6338 C   0  0  0  0  0  0  0  0  0  0  0  0
   -5.9281    1.2284    0.8856 C   0  0  0  0  0  0  0  0  0  0  0  0
   -6.3036    0.8314   -0.4385 O   0  0  0  0  0  0  0  0  0  0  0  0
   -5.1647    0.4446   -1.2163 C   0  0  0  0  0  0  0  0  0  0  0  0
   -4.4434   -0.7496   -0.5817 C   0  0  0  0  0  0  0  0  0  0  0  0
   -0.6383    0.4441    4.0367 N   0  0  0  0  0  0  0  0  0  0  0  0
    0.2383    1.0443    4.7909 C   0  0  0  0  0  0  0  0  0  0  0  0
    0.2040   -0.2968    6.3731 H   0  0  0  0  0  0  0  0  0  0  0  0
    1.7733    0.7837    7.7414 H   0  0  0  0  0  0  0  0  0  0  0  0
    2.8271    2.8842    6.9562 H   0  0  0  0  0  0  0  0  0  0  0  0
    0.4829    6.0945    3.9260 H   0  0  0  0  0  0  0  0  0  0  0  0
    2.1774    7.6222    4.8909 H   0  0  0  0  0  0  0  0  0  0  0  0
    4.5904    7.2267    4.4674 H   0  0  0  0  0  0  0  0  0  0  0  0
    5.3038    5.3056    3.0676 H   0  0  0  0  0  0  0  0  0  0  0  0
    3.6092    3.7782    2.1027 H   0  0  0  0  0  0  0  0  0  0  0  0
   -0.6537    2.4545    1.4574 H   0  0  0  0  0  0  0  0  0  0  0  0
   -2.9808   -0.6803    3.5017 H   0  0  0  0  0  0  0  0  0  0  0  0
   -1.5882   -1.5980    2.8645 H   0  0  0  0  0  0  0  0  0  0  0  0
   -2.6432   -1.9782    0.7629 H   0  0  0  0  0  0  0  0  0  0  0  0
   -3.9751   -2.2521    1.9246 H   0  0  0  0  0  0  0  0  0  0  0  0
   -3.3648    0.3692    0.8168 H   0  0  0  0  0  0  0  0  0  0  0  0
   -4.9057    0.3955    2.6194 H   0  0  0  0  0  0  0  0  0  0  0  0
   -5.9287   -0.7824    1.7293 H   0  0  0  0  0  0  0  0  0  0  0  0
   -6.8384    1.5286    1.4138 H   0  0  0  0  0  0  0  0  0  0  0  0
   -5.2702    2.1035    0.8287 H   0  0  0  0  0  0  0  0  0  0  0  0
   -5.5201    0.1731   -2.2152 H   0  0  0  0  0  0  0  0  0  0  0  0
   -4.4914    1.3032   -1.3231 H   0  0  0  0  0  0  0  0  0  0  0  0
   -3.5302   -0.9945   -1.1323 H   0  0  0  0  0  0  0  0  0  0  0  0
   -5.0997   -1.6245   -0.5235 H   0  0  0  0  0  0  0  0  0  0  0  0
  1  2  1  0
  2  3  2  0
  3  4  1  0
  4  5  2  0
  5  6  1  0
  6  7  2  3
  7  8  1  0
  8  9  2  0
  9 10  1  0
 10 11  2  0
 11 12  1  0
 12 13  2  0
  6 14  1  0
 14 15  1  0
 15 16  2  3
 16 17  1  0
 17 18  1  0
 18 19  1  0
 19 20  1  0
 20 21  1  0
 21 22  1  0
 22 23  1  0
 23 24  1  0
 15 25  1  0
 25 26  2  0
 26  1  1  0
 26  5  1  0
 13  8  1  0
 24 19  1  0
  1 27  1  0
  2 28  1  0
  3 29  1  0
  9 30  1  0
 10 31  1  0
 11 32  1  0
 12 33  1  0
 13 34  1  0
 14 35  1  0
 17 36  1  0
 17 37  1  0
 18 38  1  0
 18 39  1  0
 19 40  1  0
 20 41  1  0
 20 42  1  0
 21 43  1  0
 21 44  1  0
 23 45  1  0
 23 46  1  0
 24 47  1  0
 24 48  1  0
M  CHG  1  19   1
M  END
>  <ScrubInfo>  (9) 
{"isomerGroup": 0, "isomerId": 8, "confId": 0, "nr_conformers:": 1, "nr_isomers:": 9}

$$$$
