REMARK SMILES c1ccc(Nc2nc(NCC[NH+]3CCOCC3)nc3nccnc23)cc1
REMARK SMILES IDX 10 1 11 2 12 3 13 4 17 5 14 6 16 7 15 8 9 10 8 12 7 13 18 14
REMARK SMILES IDX 6 15 19 16 24 17 20 18 23 19 21 20 22 21 5 22 4 24 3 25
REMARK SMILES IDX 25 26 2 27 26 28 1 29
REMARK H PARENT 12 9 9 11 5 23
ROOT
ATOM      1  C   UNL     1      -6.613  -0.218  -2.307  1.00  0.00     0.177 C 
ENDROOT
BRANCH   1   2
ATOM      2  C   UNL     1      -5.213   0.360  -2.015  1.00  0.00     0.283 C 
BRANCH   2   3
ATOM      3  N   UNL     1      -5.146   1.440  -0.957  1.00  0.00    -0.330 N 
ATOM      4  C   UNL     1      -5.663   2.812  -1.379  1.00  0.00     0.291 C 
ATOM      5  C   UNL     1      -5.569   1.051   0.446  1.00  0.00     0.291 C 
ATOM      6  C   UNL     1      -7.119   3.041  -0.964  1.00  0.00     0.221 C 
ATOM      7  C   UNL     1      -7.044   1.367   0.705  1.00  0.00     0.221 C 
ATOM      8  O   UNL     1      -7.325   2.739   0.420  1.00  0.00    -0.370 OA
ATOM      9  H   UNL     1      -4.132   1.594  -0.877  1.00  0.00     0.348 HD
ENDBRANCH   2   3
ENDBRANCH   1   2
BRANCH   1  10
ATOM     10  N   UNL     1      -6.572  -1.095  -3.463  1.00  0.00    -0.348 N 
ATOM     11  H   UNL     1      -7.207  -1.891  -3.489  1.00  0.00     0.163 HD
BRANCH  10  12
ATOM     12  C   UNL     1      -6.625  -0.486  -4.707  1.00  0.00     0.227 A 
ATOM     13  N   UNL     1      -6.327   0.807  -4.817  1.00  0.00    -0.193 NA
ATOM     14  N   UNL     1      -6.958  -1.261  -5.729  1.00  0.00    -0.191 NA
ATOM     15  C   UNL     1      -6.326   1.337  -6.059  1.00  0.00     0.164 A 
ATOM     16  C   UNL     1      -6.937  -0.736  -6.951  1.00  0.00     0.185 A 
ATOM     17  C   UNL     1      -6.604   0.600  -7.203  1.00  0.00     0.150 A 
ATOM     18  N   UNL     1      -7.252  -1.534  -7.976  1.00  0.00    -0.233 NA
ATOM     19  N   UNL     1      -6.584   1.145  -8.456  1.00  0.00    -0.247 NA
ATOM     20  C   UNL     1      -7.229  -1.010  -9.224  1.00  0.00     0.133 A 
ATOM     21  C   UNL     1      -6.900   0.306  -9.463  1.00  0.00     0.132 A 
BRANCH  15  22
ATOM     22  N   UNL     1      -5.942   2.703  -6.211  1.00  0.00    -0.338 N 
ATOM     23  H   UNL     1      -6.167   2.976  -7.175  1.00  0.00     0.168 HD
BRANCH  22  24
ATOM     24  C   UNL     1      -6.310   3.748  -5.333  1.00  0.00     0.040 A 
ATOM     25  C   UNL     1      -5.460   4.854  -5.215  1.00  0.00     0.026 A 
ATOM     26  C   UNL     1      -7.561   3.792  -4.704  1.00  0.00     0.026 A 
ATOM     27  C   UNL     1      -5.825   5.955  -4.436  1.00  0.00     0.002 A 
ATOM     28  C   UNL     1      -7.934   4.899  -3.937  1.00  0.00     0.002 A 
ATOM     29  C   UNL     1      -7.062   5.976  -3.796  1.00  0.00     0.000 A 
ENDBRANCH  22  24
ENDBRANCH  15  22
ENDBRANCH  10  12
ENDBRANCH   1  10
TORSDOF 6
