REMARK SMILES COCCCNc1nc(Nc2ccccc2OC)c2cnn(C)c2n1
REMARK SMILES IDX 6 1 5 3 4 4 3 5 2 6 1 7 7 8 8 9 25 10 9 11 24 12 19 13 22 14
REMARK SMILES IDX 20 15 21 16 23 17 10 18 11 20 12 21 16 22 13 23 15 24 14 25
REMARK SMILES IDX 17 26 18 27
REMARK H PARENT 6 2 10 19
ROOT
ATOM      1  N   UNL     1       2.743  -0.671  -0.305  1.00  0.00    -0.354 N 
ATOM      2  H   UNL     1       3.243  -1.336  -0.886  1.00  0.00     0.163 HD
ENDROOT
BRANCH   1   3
ATOM      3  C   UNL     1       2.898   0.724  -0.677  1.00  0.00     0.118 C 
BRANCH   3   4
ATOM      4  C   UNL     1       4.378   1.091  -0.757  1.00  0.00     0.050 C 
BRANCH   4   5
ATOM      5  C   UNL     1       5.066   1.040   0.605  1.00  0.00     0.161 C 
BRANCH   5   6
ATOM      6  O   UNL     1       6.444   1.401   0.486  1.00  0.00    -0.385 OA
ATOM      7  C   UNL     1       6.662   2.803   0.555  1.00  0.00     0.194 C 
ENDBRANCH   5   6
ENDBRANCH   4   5
ENDBRANCH   3   4
ENDBRANCH   1   3
BRANCH   1   8
ATOM      8  C   UNL     1       1.426  -1.118  -0.270  1.00  0.00     0.226 A 
ATOM      9  N   UNL     1       0.449  -0.278   0.120  1.00  0.00    -0.195 NA
ATOM     10  N   UNL     1       1.258  -2.393  -0.643  1.00  0.00    -0.193 NA
ATOM     11  C   UNL     1      -0.845  -0.691   0.143  1.00  0.00     0.147 A 
ATOM     12  C   UNL     1      -0.018  -2.795  -0.558  1.00  0.00     0.165 A 
ATOM     13  C   UNL     1      -1.101  -2.026  -0.177  1.00  0.00     0.082 A 
ATOM     14  N   UNL     1      -0.514  -4.044  -0.815  1.00  0.00    -0.250 N 
ATOM     15  C   UNL     1      -2.189  -2.924  -0.199  1.00  0.00     0.149 A 
ATOM     16  N   UNL     1      -1.847  -4.151  -0.610  1.00  0.00    -0.179 NA
ATOM     17  C   UNL     1       0.231  -5.201  -1.243  1.00  0.00     0.176 C 
BRANCH  11  18
ATOM     18  N   UNL     1      -1.794   0.239   0.568  1.00  0.00    -0.336 N 
ATOM     19  H   UNL     1      -1.344   1.042   1.000  1.00  0.00     0.168 HD
BRANCH  18  20
ATOM     20  C   UNL     1      -3.078   0.574   0.084  1.00  0.00     0.082 A 
ATOM     21  C   UNL     1      -3.629   0.008  -1.072  1.00  0.00     0.030 A 
ATOM     22  C   UNL     1      -3.864   1.481   0.835  1.00  0.00     0.142 A 
ATOM     23  C   UNL     1      -4.926   0.329  -1.479  1.00  0.00     0.002 A 
ATOM     24  C   UNL     1      -5.161   1.799   0.420  1.00  0.00     0.048 A 
ATOM     25  C   UNL     1      -5.691   1.219  -0.733  1.00  0.00     0.004 A 
BRANCH  22  26
ATOM     26  O   UNL     1      -3.246   2.011   1.945  1.00  0.00    -0.495 OA
ATOM     27  C   UNL     1      -4.044   2.806   2.813  1.00  0.00     0.278 C 
ENDBRANCH  22  26
ENDBRANCH  18  20
ENDBRANCH  11  18
ENDBRANCH   1   8
TORSDOF 8
