_i0
     RDKit          3D

 47 49  0  0  0  0  0  0  0  0999 V2000
    6.6618    2.8032    0.5554 C   0  0  0  0  0  0  0  0  0  0  0  0
    6.4444    1.4005    0.4856 O   0  0  0  0  0  0  0  0  0  0  0  0
    5.0658    1.0405    0.6051 C   0  0  0  0  0  0  0  0  0  0  0  0
    4.3779    1.0909   -0.7573 C   0  0  0  0  0  0  0  0  0  0  0  0
    2.8979    0.7244   -0.6772 C   0  0  0  0  0  0  0  0  0  0  0  0
    2.7433   -0.6706   -0.3053 N   0  0  0  0  0  0  0  0  0  0  0  0
    1.4263   -1.1184   -0.2697 C   0  0  0  0  0  0  0  0  0  0  0  0
    0.4489   -0.2780    0.1197 N   0  0  0  0  0  0  0  0  0  0  0  0
   -0.8447   -0.6906    0.1431 C   0  0  0  0  0  0  0  0  0  0  0  0
   -1.7937    0.2391    0.5678 N   0  0  0  0  0  0  0  0  0  0  0  0
   -3.0775    0.5739    0.0840 C   0  0  0  0  0  0  0  0  0  0  0  0
   -3.6291    0.0082   -1.0722 C   0  0  0  0  0  0  0  0  0  0  0  0
   -4.9258    0.3286   -1.4794 C   0  0  0  0  0  0  0  0  0  0  0  0
   -5.6908    1.2193   -0.7334 C   0  0  0  0  0  0  0  0  0  0  0  0
   -5.1614    1.7994    0.4199 C   0  0  0  0  0  0  0  0  0  0  0  0
   -3.8637    1.4814    0.8348 C   0  0  0  0  0  0  0  0  0  0  0  0
   -3.2461    2.0115    1.9449 O   0  0  0  0  0  0  0  0  0  0  0  0
   -4.0441    2.8056    2.8129 C   0  0  0  0  0  0  0  0  0  0  0  0
   -1.1008   -2.0262   -0.1772 C   0  0  0  0  0  0  0  0  0  0  0  0
   -2.1892   -2.9235   -0.1988 C   0  0  0  0  0  0  0  0  0  0  0  0
   -1.8471   -4.1505   -0.6099 N   0  0  0  0  0  0  0  0  0  0  0  0
   -0.5138   -4.0442   -0.8154 N   0  0  0  0  0  0  0  0  0  0  0  0
    0.2314   -5.2011   -1.2429 C   0  0  0  0  0  0  0  0  0  0  0  0
   -0.0185   -2.7950   -0.5582 C   0  0  0  0  0  0  0  0  0  0  0  0
    1.2584   -2.3929   -0.6431 N   0  0  0  0  0  0  0  0  0  0  0  0
    7.7359    2.9874    0.4658 H   0  0  0  0  0  0  0  0  0  0  0  0
    6.3230    3.1952    1.5192 H   0  0  0  0  0  0  0  0  0  0  0  0
    6.1536    3.3218   -0.2617 H   0  0  0  0  0  0  0  0  0  0  0  0
    5.0442    0.0169    0.9936 H   0  0  0  0  0  0  0  0  0  0  0  0
    4.5619    1.6798    1.3396 H   0  0  0  0  0  0  0  0  0  0  0  0
    4.4685    2.0982   -1.1796 H   0  0  0  0  0  0  0  0  0  0  0  0
    4.9037    0.4264   -1.4545 H   0  0  0  0  0  0  0  0  0  0  0  0
    2.4063    1.3839    0.0488 H   0  0  0  0  0  0  0  0  0  0  0  0
    2.4415    0.9027   -1.6591 H   0  0  0  0  0  0  0  0  0  0  0  0
    3.2431   -1.3364   -0.8862 H   0  0  0  0  0  0  0  0  0  0  0  0
   -1.3441    1.0420    1.0003 H   0  0  0  0  0  0  0  0  0  0  0  0
   -3.0503   -0.6654   -1.6962 H   0  0  0  0  0  0  0  0  0  0  0  0
   -5.3342   -0.1153   -2.3841 H   0  0  0  0  0  0  0  0  0  0  0  0
   -6.6993    1.4690   -1.0537 H   0  0  0  0  0  0  0  0  0  0  0  0
   -5.7841    2.4977    0.9684 H   0  0  0  0  0  0  0  0  0  0  0  0
   -3.4286    3.0785    3.6755 H   0  0  0  0  0  0  0  0  0  0  0  0
   -4.3554    3.7328    2.3209 H   0  0  0  0  0  0  0  0  0  0  0  0
   -4.9074    2.2440    3.1849 H   0  0  0  0  0  0  0  0  0  0  0  0
   -3.2202   -2.7311    0.0695 H   0  0  0  0  0  0  0  0  0  0  0  0
   -0.2165   -5.5779   -2.1660 H   0  0  0  0  0  0  0  0  0  0  0  0
    1.2738   -4.9298   -1.4238 H   0  0  0  0  0  0  0  0  0  0  0  0
    0.1746   -5.9561   -0.4547 H   0  0  0  0  0  0  0  0  0  0  0  0
  1  2  1  0
  2  3  1  0
  3  4  1  0
  4  5  1  0
  5  6  1  0
  6  7  1  0
  7  8  2  0
  8  9  1  0
  9 10  1  0
 10 11  1  0
 11 12  2  0
 12 13  1  0
 13 14  2  0
 14 15  1  0
 15 16  2  0
 16 17  1  0
 17 18  1  0
  9 19  2  0
 19 20  1  0
 20 21  2  0
 21 22  1  0
 22 23  1  0
 22 24  1  0
 24 25  2  0
 25  7  1  0
 16 11  1  0
 24 19  1  0
  1 26  1  0
  1 27  1  0
  1 28  1  0
  3 29  1  0
  3 30  1  0
  4 31  1  0
  4 32  1  0
  5 33  1  0
  5 34  1  0
  6 35  1  0
 10 36  1  0
 12 37  1  0
 13 38  1  0
 14 39  1  0
 15 40  1  0
 18 41  1  0
 18 42  1  0
 18 43  1  0
 20 44  1  0
 23 45  1  0
 23 46  1  0
 23 47  1  0
M  END
>  <ScrubInfo>  (1) 
{"isomerGroup": 0, "isomerId": 0, "confId": 0, "nr_conformers:": 1, "nr_isomers:": 9}

$$$$
_i1
     RDKit          3D

 47 49  0  0  0  0  0  0  0  0999 V2000
    0.0859   -0.3267    0.5561 N   0  0  0  0  0  0  0  0  0  0  0  0
   -0.8884   -0.7704   -0.3152 C   0  0  0  0  0  0  0  0  0  0  0  0
   -2.1771   -0.2814   -0.3379 N   0  0  0  0  0  0  0  0  0  0  0  0
   -2.7278    0.9012    0.2032 C   0  0  0  0  0  0  0  0  0  0  0  0
   -1.9645    2.0435    0.4753 C   0  0  0  0  0  0  0  0  0  0  0  0
   -2.5500    3.1751    1.0461 C   0  0  0  0  0  0  0  0  0  0  0  0
   -3.9084    3.1800    1.3486 C   0  0  0  0  0  0  0  0  0  0  0  0
   -4.6914    2.0575    1.0747 C   0  0  0  0  0  0  0  0  0  0  0  0
   -4.1113    0.9200    0.5043 C   0  0  0  0  0  0  0  0  0  0  0  0
   -4.7906   -0.2349    0.1842 O   0  0  0  0  0  0  0  0  0  0  0  0
   -6.1625   -0.2981    0.5552 C   0  0  0  0  0  0  0  0  0  0  0  0
   -0.4928   -1.7545   -1.1324 C   0  0  0  0  0  0  0  0  0  0  0  0
   -1.0601   -2.5472   -2.2280 C   0  0  0  0  0  0  0  0  0  0  0  0
   -0.2009   -3.3813   -2.7575 N   0  0  0  0  0  0  0  0  0  0  0  0
    0.9788   -3.2244   -2.0112 N   0  0  0  0  0  0  0  0  0  0  0  0
    2.2082   -3.7831   -2.5175 C   0  0  0  0  0  0  0  0  0  0  0  0
    0.9046   -2.2338   -1.0450 C   0  0  0  0  0  0  0  0  0  0  0  0
    1.8050   -1.7863   -0.2371 N   0  0  0  0  0  0  0  0  0  0  0  0
    1.3671   -0.8052    0.6254 C   0  0  0  0  0  0  0  0  0  0  0  0
    2.1549   -0.3148    1.5208 N   0  0  0  0  0  0  0  0  0  0  0  0
    3.5293   -0.7993    1.6099 C   0  0  0  0  0  0  0  0  0  0  0  0
    4.4550   -0.0748    0.6310 C   0  0  0  0  0  0  0  0  0  0  0  0
    4.7557    1.3778    1.0116 C   0  0  0  0  0  0  0  0  0  0  0  0
    3.6418    2.2650    0.9502 O   0  0  0  0  0  0  0  0  0  0  0  0
    3.1861    2.5166   -0.3702 C   0  0  0  0  0  0  0  0  0  0  0  0
   -0.1926    0.2970    1.2986 H   0  0  0  0  0  0  0  0  0  0  0  0
   -2.9000   -0.9003   -0.6988 H   0  0  0  0  0  0  0  0  0  0  0  0
   -0.9111    2.0881    0.2132 H   0  0  0  0  0  0  0  0  0  0  0  0
   -1.9436    4.0552    1.2468 H   0  0  0  0  0  0  0  0  0  0  0  0
   -4.3613    4.0636    1.7918 H   0  0  0  0  0  0  0  0  0  0  0  0
   -5.7476    2.1052    1.3158 H   0  0  0  0  0  0  0  0  0  0  0  0
   -6.5382   -1.2869    0.2747 H   0  0  0  0  0  0  0  0  0  0  0  0
   -6.7516    0.4474    0.0113 H   0  0  0  0  0  0  0  0  0  0  0  0
   -6.2860   -0.1905    1.6379 H   0  0  0  0  0  0  0  0  0  0  0  0
   -2.0979   -2.4041   -2.5550 H   0  0  0  0  0  0  0  0  0  0  0  0
    2.0214   -4.7333   -3.0285 H   0  0  0  0  0  0  0  0  0  0  0  0
    2.9142   -3.9757   -1.7034 H   0  0  0  0  0  0  0  0  0  0  0  0
    2.6753   -3.0940   -3.2279 H   0  0  0  0  0  0  0  0  0  0  0  0
    3.5865   -1.8828    1.4479 H   0  0  0  0  0  0  0  0  0  0  0  0
    3.8817   -0.6414    2.6360 H   0  0  0  0  0  0  0  0  0  0  0  0
    5.4099   -0.6148    0.6154 H   0  0  0  0  0  0  0  0  0  0  0  0
    4.0479   -0.1286   -0.3835 H   0  0  0  0  0  0  0  0  0  0  0  0
    5.1333    1.4112    2.0396 H   0  0  0  0  0  0  0  0  0  0  0  0
    5.5569    1.7701    0.3736 H   0  0  0  0  0  0  0  0  0  0  0  0
    4.0043    2.8733   -1.0031 H   0  0  0  0  0  0  0  0  0  0  0  0
    2.7309    1.6246   -0.8073 H   0  0  0  0  0  0  0  0  0  0  0  0
    2.4207    3.2963   -0.3229 H   0  0  0  0  0  0  0  0  0  0  0  0
  1  2  1  0
  2  3  1  0
  3  4  1  0
  4  5  2  0
  5  6  1  0
  6  7  2  0
  7  8  1  0
  8  9  2  0
  9 10  1  0
 10 11  1  0
  2 12  2  0
 12 13  1  0
 13 14  2  0
 14 15  1  0
 15 16  1  0
 15 17  1  0
 17 18  2  0
 18 19  1  0
 19 20  2  3
 20 21  1  0
 21 22  1  0
 22 23  1  0
 23 24  1  0
 24 25  1  0
 19  1  1  0
  9  4  1  0
 17 12  1  0
  1 26  1  0
  3 27  1  0
  5 28  1  0
  6 29  1  0
  7 30  1  0
  8 31  1  0
 11 32  1  0
 11 33  1  0
 11 34  1  0
 13 35  1  0
 16 36  1  0
 16 37  1  0
 16 38  1  0
 21 39  1  0
 21 40  1  0
 22 41  1  0
 22 42  1  0
 23 43  1  0
 23 44  1  0
 25 45  1  0
 25 46  1  0
 25 47  1  0
M  END
>  <ScrubInfo>  (2) 
{"isomerGroup": 0, "isomerId": 1, "confId": 0, "nr_conformers:": 1, "nr_isomers:": 9}

$$$$
_i2
     RDKit          3D

 47 49  0  0  0  0  0  0  0  0999 V2000
   -0.1635    1.0397   -1.1461 N   0  0  0  0  0  0  0  0  0  0  0  0
    1.0361    0.3836   -1.0096 C   0  0  0  0  0  0  0  0  0  0  0  0
    2.1050    1.1409   -1.4084 N   0  0  0  0  0  0  0  0  0  0  0  0
    3.4793    0.6892   -1.2286 C   0  0  0  0  0  0  0  0  0  0  0  0
    3.9290    0.8908    0.2175 C   0  0  0  0  0  0  0  0  0  0  0  0
    5.3436    0.3733    0.4416 C   0  0  0  0  0  0  0  0  0  0  0  0
    6.2486    1.1148   -0.3741 O   0  0  0  0  0  0  0  0  0  0  0  0
    7.5910    0.6803   -0.1957 C   0  0  0  0  0  0  0  0  0  0  0  0
    1.1445   -0.8394   -0.5570 N   0  0  0  0  0  0  0  0  0  0  0  0
   -0.0684   -1.3660   -0.2268 C   0  0  0  0  0  0  0  0  0  0  0  0
   -1.3213   -0.7797   -0.3233 C   0  0  0  0  0  0  0  0  0  0  0  0
   -2.2049   -1.7742    0.1315 C   0  0  0  0  0  0  0  0  0  0  0  0
   -1.5776   -2.8991    0.5004 N   0  0  0  0  0  0  0  0  0  0  0  0
   -0.2739   -2.6214    0.2714 N   0  0  0  0  0  0  0  0  0  0  0  0
    0.7211   -3.6270    0.5449 C   0  0  0  0  0  0  0  0  0  0  0  0
   -1.4206    0.5710   -0.8406 C   0  0  0  0  0  0  0  0  0  0  0  0
   -2.4778    1.2971   -1.0406 N   0  0  0  0  0  0  0  0  0  0  0  0
   -3.7589    0.8516   -0.6845 C   0  0  0  0  0  0  0  0  0  0  0  0
   -4.5927    0.3460   -1.6888 C   0  0  0  0  0  0  0  0  0  0  0  0
   -5.8861   -0.0793   -1.3903 C   0  0  0  0  0  0  0  0  0  0  0  0
   -6.3604    0.0138   -0.0845 C   0  0  0  0  0  0  0  0  0  0  0  0
   -5.5466    0.5354    0.9258 C   0  0  0  0  0  0  0  0  0  0  0  0
   -4.2454    0.9612    0.6364 C   0  0  0  0  0  0  0  0  0  0  0  0
   -3.3704    1.4831    1.5571 O   0  0  0  0  0  0  0  0  0  0  0  0
   -3.7829    1.4949    2.9160 C   0  0  0  0  0  0  0  0  0  0  0  0
   -0.1663    1.9411   -1.5921 H   0  0  0  0  0  0  0  0  0  0  0  0
    2.0024    2.1414   -1.2926 H   0  0  0  0  0  0  0  0  0  0  0  0
    4.1156    1.2706   -1.9050 H   0  0  0  0  0  0  0  0  0  0  0  0
    3.5785   -0.3609   -1.5279 H   0  0  0  0  0  0  0  0  0  0  0  0
    3.2481    0.3787    0.9067 H   0  0  0  0  0  0  0  0  0  0  0  0
    3.8868    1.9608    0.4565 H   0  0  0  0  0  0  0  0  0  0  0  0
    5.4048   -0.6920    0.1902 H   0  0  0  0  0  0  0  0  0  0  0  0
    5.6157    0.5027    1.4954 H   0  0  0  0  0  0  0  0  0  0  0  0
    8.2359    1.2809   -0.8427 H   0  0  0  0  0  0  0  0  0  0  0  0
    7.9053    0.8243    0.8425 H   0  0  0  0  0  0  0  0  0  0  0  0
    7.6935   -0.3717   -0.4788 H   0  0  0  0  0  0  0  0  0  0  0  0
   -3.2821   -1.7484    0.2129 H   0  0  0  0  0  0  0  0  0  0  0  0
    1.7224   -3.1999    0.4555 H   0  0  0  0  0  0  0  0  0  0  0  0
    0.5946   -4.4378   -0.1768 H   0  0  0  0  0  0  0  0  0  0  0  0
    0.5708   -3.9956    1.5630 H   0  0  0  0  0  0  0  0  0  0  0  0
   -4.2250    0.2860   -2.7097 H   0  0  0  0  0  0  0  0  0  0  0  0
   -6.5227   -0.4761   -2.1768 H   0  0  0  0  0  0  0  0  0  0  0  0
   -7.3705   -0.3142    0.1493 H   0  0  0  0  0  0  0  0  0  0  0  0
   -5.9601    0.5993    1.9265 H   0  0  0  0  0  0  0  0  0  0  0  0
   -2.9557    1.8910    3.5129 H   0  0  0  0  0  0  0  0  0  0  0  0
   -4.6431    2.1566    3.0605 H   0  0  0  0  0  0  0  0  0  0  0  0
   -3.9961    0.4825    3.2748 H   0  0  0  0  0  0  0  0  0  0  0  0
  1  2  1  0
  2  3  1  0
  3  4  1  0
  4  5  1  0
  5  6  1  0
  6  7  1  0
  7  8  1  0
  2  9  2  0
  9 10  1  0
 10 11  2  0
 11 12  1  0
 12 13  2  0
 13 14  1  0
 14 15  1  0
 11 16  1  0
 16 17  2  3
 17 18  1  0
 18 19  2  0
 19 20  1  0
 20 21  2  0
 21 22  1  0
 22 23  2  0
 23 24  1  0
 24 25  1  0
 16  1  1  0
 23 18  1  0
 14 10  1  0
  1 26  1  0
  3 27  1  0
  4 28  1  0
  4 29  1  0
  5 30  1  0
  5 31  1  0
  6 32  1  0
  6 33  1  0
  8 34  1  0
  8 35  1  0
  8 36  1  0
 12 37  1  0
 15 38  1  0
 15 39  1  0
 15 40  1  0
 19 41  1  0
 20 42  1  0
 21 43  1  0
 22 44  1  0
 25 45  1  0
 25 46  1  0
 25 47  1  0
M  END
>  <ScrubInfo>  (3) 
{"isomerGroup": 0, "isomerId": 2, "confId": 0, "nr_conformers:": 1, "nr_isomers:": 9}

$$$$
_i3
     RDKit          3D

 47 49  0  0  0  0  0  0  0  0999 V2000
   -1.3047   -0.4926   -1.4814 N   0  0  0  0  0  0  0  0  0  0  0  0
   -1.1864   -0.4063   -0.1018 C   0  0  0  0  0  0  0  0  0  0  0  0
   -2.1461   -0.1976    0.7289 N   0  0  0  0  0  0  0  0  0  0  0  0
   -3.5041   -0.0246    0.2355 C   0  0  0  0  0  0  0  0  0  0  0  0
   -4.4296    0.1585    1.4353 C   0  0  0  0  0  0  0  0  0  0  0  0
   -5.8640    0.4282    0.9915 C   0  0  0  0  0  0  0  0  0  0  0  0
   -6.7822    0.4212    2.0837 O   0  0  0  0  0  0  0  0  0  0  0  0
   -6.6804    1.5676    2.9174 C   0  0  0  0  0  0  0  0  0  0  0  0
    0.0442   -0.5465    0.5239 N   0  0  0  0  0  0  0  0  0  0  0  0
    1.1152   -0.7424   -0.1898 C   0  0  0  0  0  0  0  0  0  0  0  0
    2.3639   -0.9224    0.3389 N   0  0  0  0  0  0  0  0  0  0  0  0
    3.3917    0.0724    0.3275 C   0  0  0  0  0  0  0  0  0  0  0  0
    3.3798    1.1780   -0.5337 C   0  0  0  0  0  0  0  0  0  0  0  0
    4.4469    2.0784   -0.5516 C   0  0  0  0  0  0  0  0  0  0  0  0
    5.5436    1.8791    0.2816 C   0  0  0  0  0  0  0  0  0  0  0  0
    5.5812    0.7787    1.1391 C   0  0  0  0  0  0  0  0  0  0  0  0
    4.5174   -0.1283    1.1634 C   0  0  0  0  0  0  0  0  0  0  0  0
    4.4466   -1.2356    1.9768 O   0  0  0  0  0  0  0  0  0  0  0  0
    5.5812   -1.5192    2.7859 C   0  0  0  0  0  0  0  0  0  0  0  0
    1.0265   -0.8807   -1.6239 C   0  0  0  0  0  0  0  0  0  0  0  0
    1.8894   -1.1646   -2.6924 C   0  0  0  0  0  0  0  0  0  0  0  0
    1.2494   -1.1742   -3.8730 N   0  0  0  0  0  0  0  0  0  0  0  0
   -0.0412   -0.9163   -3.5449 N   0  0  0  0  0  0  0  0  0  0  0  0
   -1.0323   -0.8708   -4.5892 C   0  0  0  0  0  0  0  0  0  0  0  0
   -0.2013   -0.7411   -2.2072 C   0  0  0  0  0  0  0  0  0  0  0  0
   -2.2290   -0.4089   -1.8746 H   0  0  0  0  0  0  0  0  0  0  0  0
   -3.8239   -0.9036   -0.3368 H   0  0  0  0  0  0  0  0  0  0  0  0
   -3.5642    0.8590   -0.4110 H   0  0  0  0  0  0  0  0  0  0  0  0
   -4.0659    0.9851    2.0571 H   0  0  0  0  0  0  0  0  0  0  0  0
   -4.4005   -0.7307    2.0775 H   0  0  0  0  0  0  0  0  0  0  0  0
   -6.1889   -0.3656    0.3097 H   0  0  0  0  0  0  0  0  0  0  0  0
   -5.9415    1.3746    0.4433 H   0  0  0  0  0  0  0  0  0  0  0  0
   -7.4972    1.5337    3.6437 H   0  0  0  0  0  0  0  0  0  0  0  0
   -5.7364    1.5668    3.4684 H   0  0  0  0  0  0  0  0  0  0  0  0
   -6.7772    2.4857    2.3299 H   0  0  0  0  0  0  0  0  0  0  0  0
    2.3043   -1.2324    1.3097 H   0  0  0  0  0  0  0  0  0  0  0  0
    2.5402    1.3723   -1.1941 H   0  0  0  0  0  0  0  0  0  0  0  0
    4.4194    2.9363   -1.2192 H   0  0  0  0  0  0  0  0  0  0  0  0
    6.3720    2.5832    0.2650 H   0  0  0  0  0  0  0  0  0  0  0  0
    6.4518    0.6603    1.7749 H   0  0  0  0  0  0  0  0  0  0  0  0
    5.7465   -0.7268    3.5231 H   0  0  0  0  0  0  0  0  0  0  0  0
    6.4735   -1.6845    2.1731 H   0  0  0  0  0  0  0  0  0  0  0  0
    5.3778   -2.4447    3.3331 H   0  0  0  0  0  0  0  0  0  0  0  0
    2.9538   -1.3613   -2.6680 H   0  0  0  0  0  0  0  0  0  0  0  0
   -2.0017   -0.5917   -4.1711 H   0  0  0  0  0  0  0  0  0  0  0  0
   -1.0956   -1.8614   -5.0463 H   0  0  0  0  0  0  0  0  0  0  0  0
   -0.7221   -0.1275   -5.3281 H   0  0  0  0  0  0  0  0  0  0  0  0
  1  2  1  0
  2  3  2  3
  3  4  1  0
  4  5  1  0
  5  6  1  0
  6  7  1  0
  7  8  1  0
  2  9  1  0
  9 10  2  0
 10 11  1  0
 11 12  1  0
 12 13  2  0
 13 14  1  0
 14 15  2  0
 15 16  1  0
 16 17  2  0
 17 18  1  0
 18 19  1  0
 10 20  1  0
 20 21  1  0
 21 22  2  0
 22 23  1  0
 23 24  1  0
 23 25  1  0
 25  1  1  0
 17 12  1  0
 25 20  2  0
  1 26  1  0
  4 27  1  0
  4 28  1  0
  5 29  1  0
  5 30  1  0
  6 31  1  0
  6 32  1  0
  8 33  1  0
  8 34  1  0
  8 35  1  0
 11 36  1  0
 13 37  1  0
 14 38  1  0
 15 39  1  0
 16 40  1  0
 19 41  1  0
 19 42  1  0
 19 43  1  0
 21 44  1  0
 24 45  1  0
 24 46  1  0
 24 47  1  0
M  END
>  <ScrubInfo>  (4) 
{"isomerGroup": 0, "isomerId": 3, "confId": 0, "nr_conformers:": 1, "nr_isomers:": 9}

$$$$
_i4
     RDKit          3D

 47 49  0  0  0  0  0  0  0  0999 V2000
   -0.9484   -3.1998   -1.5565 N   0  0  0  0  0  0  0  0  0  0  0  0
   -1.7826   -2.1714   -1.1300 C   0  0  0  0  0  0  0  0  0  0  0  0
   -1.1204   -1.1086   -0.6475 C   0  0  0  0  0  0  0  0  0  0  0  0
   -1.3992    0.1932   -0.0543 C   0  0  0  0  0  0  0  0  0  0  0  0
   -2.5162    0.8046    0.1620 N   0  0  0  0  0  0  0  0  0  0  0  0
   -3.7340    0.2074   -0.1882 C   0  0  0  0  0  0  0  0  0  0  0  0
   -4.2933    0.5257   -1.4331 C   0  0  0  0  0  0  0  0  0  0  0  0
   -5.4896   -0.0591   -1.8533 C   0  0  0  0  0  0  0  0  0  0  0  0
   -6.1443   -0.9692   -1.0274 C   0  0  0  0  0  0  0  0  0  0  0  0
   -5.6125   -1.2783    0.2246 C   0  0  0  0  0  0  0  0  0  0  0  0
   -4.4289   -0.6734    0.6609 C   0  0  0  0  0  0  0  0  0  0  0  0
   -4.0035   -1.0690    1.9042 O   0  0  0  0  0  0  0  0  0  0  0  0
   -3.5902    0.0099    2.7421 C   0  0  0  0  0  0  0  0  0  0  0  0
   -0.2778    0.8748    0.3408 N   0  0  0  0  0  0  0  0  0  0  0  0
    0.9293    0.4268    0.1634 C   0  0  0  0  0  0  0  0  0  0  0  0
    1.9368    1.2304    0.6138 N   0  0  0  0  0  0  0  0  0  0  0  0
    3.2465    0.7249    0.9596 C   0  0  0  0  0  0  0  0  0  0  0  0
    4.2045    1.8692    1.2726 C   0  0  0  0  0  0  0  0  0  0  0  0
    4.5189    2.7175    0.0423 C   0  0  0  0  0  0  0  0  0  0  0  0
    5.4208    3.7745    0.3776 O   0  0  0  0  0  0  0  0  0  0  0  0
    6.7858    3.3834    0.3197 C   0  0  0  0  0  0  0  0  0  0  0  0
    1.2572   -0.7629   -0.4276 N   0  0  0  0  0  0  0  0  0  0  0  0
    0.2883   -1.5035   -0.8392 C   0  0  0  0  0  0  0  0  0  0  0  0
    0.3572   -2.7385   -1.4865 N   0  0  0  0  0  0  0  0  0  0  0  0
    1.4207   -3.6782   -1.1889 C   0  0  0  0  0  0  0  0  0  0  0  0
   -1.2370   -3.6100   -2.4475 H   0  0  0  0  0  0  0  0  0  0  0  0
   -2.8495   -2.3111   -1.2201 H   0  0  0  0  0  0  0  0  0  0  0  0
   -3.7834    1.2357   -2.0800 H   0  0  0  0  0  0  0  0  0  0  0  0
   -5.9073    0.1976   -2.8233 H   0  0  0  0  0  0  0  0  0  0  0  0
   -7.0737   -1.4305   -1.3515 H   0  0  0  0  0  0  0  0  0  0  0  0
   -6.1280   -1.9814    0.8739 H   0  0  0  0  0  0  0  0  0  0  0  0
   -2.5080    0.1498    2.6746 H   0  0  0  0  0  0  0  0  0  0  0  0
   -3.8183   -0.2711    3.7751 H   0  0  0  0  0  0  0  0  0  0  0  0
   -4.1232    0.9439    2.5301 H   0  0  0  0  0  0  0  0  0  0  0  0
    1.5727    1.9704    1.2043 H   0  0  0  0  0  0  0  0  0  0  0  0
    3.6582    0.1186    0.1443 H   0  0  0  0  0  0  0  0  0  0  0  0
    3.1596    0.0796    1.8413 H   0  0  0  0  0  0  0  0  0  0  0  0
    3.7962    2.5118    2.0628 H   0  0  0  0  0  0  0  0  0  0  0  0
    5.1323    1.4503    1.6785 H   0  0  0  0  0  0  0  0  0  0  0  0
    3.6030    3.1937   -0.3230 H   0  0  0  0  0  0  0  0  0  0  0  0
    4.9218    2.1115   -0.7778 H   0  0  0  0  0  0  0  0  0  0  0  0
    7.4008    4.2498    0.5775 H   0  0  0  0  0  0  0  0  0  0  0  0
    6.9974    2.5849    1.0357 H   0  0  0  0  0  0  0  0  0  0  0  0
    7.0488    3.0614   -0.6925 H   0  0  0  0  0  0  0  0  0  0  0  0
    1.3585   -4.5465   -1.8529 H   0  0  0  0  0  0  0  0  0  0  0  0
    1.3539   -4.0268   -0.1530 H   0  0  0  0  0  0  0  0  0  0  0  0
    2.3999   -3.2124   -1.3395 H   0  0  0  0  0  0  0  0  0  0  0  0
  1  2  1  0
  2  3  2  0
  3  4  1  0
  4  5  2  3
  5  6  1  0
  6  7  2  0
  7  8  1  0
  8  9  2  0
  9 10  1  0
 10 11  2  0
 11 12  1  0
 12 13  1  0
  4 14  1  0
 14 15  2  0
 15 16  1  0
 16 17  1  0
 17 18  1  0
 18 19  1  0
 19 20  1  0
 20 21  1  0
 15 22  1  0
 22 23  2  0
 23 24  1  0
 24 25  1  0
 24  1  1  0
 23  3  1  0
 11  6  1  0
  1 26  1  0
  2 27  1  0
  7 28  1  0
  8 29  1  0
  9 30  1  0
 10 31  1  0
 13 32  1  0
 13 33  1  0
 13 34  1  0
 16 35  1  0
 17 36  1  0
 17 37  1  0
 18 38  1  0
 18 39  1  0
 19 40  1  0
 19 41  1  0
 21 42  1  0
 21 43  1  0
 21 44  1  0
 25 45  1  0
 25 46  1  0
 25 47  1  0
M  END
>  <ScrubInfo>  (5) 
{"isomerGroup": 0, "isomerId": 4, "confId": 0, "nr_conformers:": 1, "nr_isomers:": 9}

$$$$
_i5
     RDKit          3D

 47 49  0  0  0  0  0  0  0  0999 V2000
    1.0079   -1.2124    0.3065 N   0  0  0  0  0  0  0  0  0  0  0  0
    1.1400    0.1465    0.4322 C   0  0  0  0  0  0  0  0  0  0  0  0
    2.4255    0.6068    0.4869 N   0  0  0  0  0  0  0  0  0  0  0  0
    3.3670    0.1071    1.4814 C   0  0  0  0  0  0  0  0  0  0  0  0
    4.7376    0.7456    1.2832 C   0  0  0  0  0  0  0  0  0  0  0  0
    5.3969    0.3042   -0.0214 C   0  0  0  0  0  0  0  0  0  0  0  0
    6.7497    0.7568   -0.0885 O   0  0  0  0  0  0  0  0  0  0  0  0
    6.8662    2.1038   -0.5290 C   0  0  0  0  0  0  0  0  0  0  0  0
    0.1611    1.0023    0.4878 N   0  0  0  0  0  0  0  0  0  0  0  0
   -1.1557    0.5561    0.4159 C   0  0  0  0  0  0  0  0  0  0  0  0
   -2.0648    1.4743    0.4939 N   0  0  0  0  0  0  0  0  0  0  0  0
   -3.4323    1.1896    0.3914 C   0  0  0  0  0  0  0  0  0  0  0  0
   -4.1931    1.1554    1.5662 C   0  0  0  0  0  0  0  0  0  0  0  0
   -5.5653    0.9154    1.5182 C   0  0  0  0  0  0  0  0  0  0  0  0
   -6.1903    0.7220    0.2892 C   0  0  0  0  0  0  0  0  0  0  0  0
   -5.4484    0.7741   -0.8946 C   0  0  0  0  0  0  0  0  0  0  0  0
   -4.0703    1.0156   -0.8560 C   0  0  0  0  0  0  0  0  0  0  0  0
   -3.2565    1.0692   -1.9601 O   0  0  0  0  0  0  0  0  0  0  0  0
   -3.8791    1.0159   -3.2350 C   0  0  0  0  0  0  0  0  0  0  0  0
   -1.3466   -0.8803    0.2807 C   0  0  0  0  0  0  0  0  0  0  0  0
   -2.4191   -1.7858    0.1865 C   0  0  0  0  0  0  0  0  0  0  0  0
   -2.0182   -3.0617    0.0585 N   0  0  0  0  0  0  0  0  0  0  0  0
   -0.6692   -2.9751    0.0722 N   0  0  0  0  0  0  0  0  0  0  0  0
    0.1093   -4.1814   -0.0438 C   0  0  0  0  0  0  0  0  0  0  0  0
   -0.2430   -1.6948    0.2221 C   0  0  0  0  0  0  0  0  0  0  0  0
    1.8366   -1.7384    0.0680 H   0  0  0  0  0  0  0  0  0  0  0  0
    2.3670    1.6249    0.5330 H   0  0  0  0  0  0  0  0  0  0  0  0
    3.4567   -0.9833    1.4238 H   0  0  0  0  0  0  0  0  0  0  0  0
    2.9949    0.3554    2.4822 H   0  0  0  0  0  0  0  0  0  0  0  0
    5.3896    0.4716    2.1219 H   0  0  0  0  0  0  0  0  0  0  0  0
    4.6529    1.8382    1.3124 H   0  0  0  0  0  0  0  0  0  0  0  0
    5.4333   -0.7901   -0.0576 H   0  0  0  0  0  0  0  0  0  0  0  0
    4.8366    0.6401   -0.9017 H   0  0  0  0  0  0  0  0  0  0  0  0
    6.3910    2.7900    0.1769 H   0  0  0  0  0  0  0  0  0  0  0  0
    6.4276    2.2217   -1.5245 H   0  0  0  0  0  0  0  0  0  0  0  0
    7.9293    2.3527   -0.5876 H   0  0  0  0  0  0  0  0  0  0  0  0
   -3.7048    1.3242    2.5225 H   0  0  0  0  0  0  0  0  0  0  0  0
   -6.1442    0.8876    2.4375 H   0  0  0  0  0  0  0  0  0  0  0  0
   -7.2610    0.5361    0.2495 H   0  0  0  0  0  0  0  0  0  0  0  0
   -5.9754    0.6198   -1.8300 H   0  0  0  0  0  0  0  0  0  0  0  0
   -4.5967    1.8333   -3.3620 H   0  0  0  0  0  0  0  0  0  0  0  0
   -3.0996    1.1376   -3.9933 H   0  0  0  0  0  0  0  0  0  0  0  0
   -4.3532    0.0429   -3.4001 H   0  0  0  0  0  0  0  0  0  0  0  0
   -3.4823   -1.5920    0.2032 H   0  0  0  0  0  0  0  0  0  0  0  0
   -0.0836   -4.6212   -1.0256 H   0  0  0  0  0  0  0  0  0  0  0  0
   -0.1963   -4.8684    0.7495 H   0  0  0  0  0  0  0  0  0  0  0  0
    1.1720   -3.9519    0.0578 H   0  0  0  0  0  0  0  0  0  0  0  0
  1  2  1  0
  2  3  1  0
  3  4  1  0
  4  5  1  0
  5  6  1  0
  6  7  1  0
  7  8  1  0
  2  9  2  0
  9 10  1  0
 10 11  2  3
 11 12  1  0
 12 13  2  0
 13 14  1  0
 14 15  2  0
 15 16  1  0
 16 17  2  0
 17 18  1  0
 18 19  1  0
 10 20  1  0
 20 21  1  0
 21 22  2  0
 22 23  1  0
 23 24  1  0
 23 25  1  0
 25  1  1  0
 17 12  1  0
 25 20  2  0
  1 26  1  0
  3 27  1  0
  4 28  1  0
  4 29  1  0
  5 30  1  0
  5 31  1  0
  6 32  1  0
  6 33  1  0
  8 34  1  0
  8 35  1  0
  8 36  1  0
 13 37  1  0
 14 38  1  0
 15 39  1  0
 16 40  1  0
 19 41  1  0
 19 42  1  0
 19 43  1  0
 21 44  1  0
 24 45  1  0
 24 46  1  0
 24 47  1  0
M  END
>  <ScrubInfo>  (6) 
{"isomerGroup": 0, "isomerId": 5, "confId": 0, "nr_conformers:": 1, "nr_isomers:": 9}

$$$$
_i6
     RDKit          3D

 47 49  0  0  0  0  0  0  0  0999 V2000
   -1.6737   -3.4944   -1.2802 N   0  0  0  0  0  0  0  0  0  0  0  0
   -2.0701   -2.1784   -1.0719 C   0  0  0  0  0  0  0  0  0  0  0  0
   -1.0807   -1.4022   -0.6098 C   0  0  0  0  0  0  0  0  0  0  0  0
   -0.8571   -0.0033   -0.2521 C   0  0  0  0  0  0  0  0  0  0  0  0
   -1.8404    0.9548   -0.2757 N   0  0  0  0  0  0  0  0  0  0  0  0
   -3.0622    0.9471    0.4485 C   0  0  0  0  0  0  0  0  0  0  0  0
   -3.4450   -0.0988    1.2988 C   0  0  0  0  0  0  0  0  0  0  0  0
   -4.6828   -0.0785    1.9451 C   0  0  0  0  0  0  0  0  0  0  0  0
   -5.5568    0.9854    1.7457 C   0  0  0  0  0  0  0  0  0  0  0  0
   -5.1961    2.0392    0.9051 C   0  0  0  0  0  0  0  0  0  0  0  0
   -3.9575    2.0274    0.2555 C   0  0  0  0  0  0  0  0  0  0  0  0
   -3.5007    3.0214   -0.5787 O   0  0  0  0  0  0  0  0  0  0  0  0
   -4.3812    4.1062   -0.8424 C   0  0  0  0  0  0  0  0  0  0  0  0
    0.3601    0.3656    0.0395 N   0  0  0  0  0  0  0  0  0  0  0  0
    1.3648   -0.5769    0.0513 C   0  0  0  0  0  0  0  0  0  0  0  0
    2.5259   -0.0876    0.3132 N   0  0  0  0  0  0  0  0  0  0  0  0
    3.6582   -1.0090    0.3511 C   0  0  0  0  0  0  0  0  0  0  0  0
    4.9244   -0.2217    0.6775 C   0  0  0  0  0  0  0  0  0  0  0  0
    5.2972    0.7583   -0.4326 C   0  0  0  0  0  0  0  0  0  0  0  0
    6.5703    1.3630   -0.1842 O   0  0  0  0  0  0  0  0  0  0  0  0
    6.4970    2.4401    0.7406 C   0  0  0  0  0  0  0  0  0  0  0  0
    1.2350   -1.9285   -0.1796 N   0  0  0  0  0  0  0  0  0  0  0  0
    0.0563   -2.3386   -0.4968 C   0  0  0  0  0  0  0  0  0  0  0  0
   -0.3740   -3.6315   -0.8013 N   0  0  0  0  0  0  0  0  0  0  0  0
    0.5171   -4.5768   -1.4481 C   0  0  0  0  0  0  0  0  0  0  0  0
   -2.3529   -4.1848   -0.9525 H   0  0  0  0  0  0  0  0  0  0  0  0
   -3.0901   -1.8913   -1.2860 H   0  0  0  0  0  0  0  0  0  0  0  0
   -1.4698    1.9042   -0.2724 H   0  0  0  0  0  0  0  0  0  0  0  0
   -2.7787   -0.9306    1.5044 H   0  0  0  0  0  0  0  0  0  0  0  0
   -4.9596   -0.8917    2.6117 H   0  0  0  0  0  0  0  0  0  0  0  0
   -6.5186    1.0002    2.2527 H   0  0  0  0  0  0  0  0  0  0  0  0
   -5.9010    2.8545    0.7825 H   0  0  0  0  0  0  0  0  0  0  0  0
   -4.5974    4.6690    0.0715 H   0  0  0  0  0  0  0  0  0  0  0  0
   -5.3021    3.7605   -1.3236 H   0  0  0  0  0  0  0  0  0  0  0  0
   -3.8769    4.7838   -1.5381 H   0  0  0  0  0  0  0  0  0  0  0  0
    3.7846   -1.5220   -0.6101 H   0  0  0  0  0  0  0  0  0  0  0  0
    3.5106   -1.7627    1.1342 H   0  0  0  0  0  0  0  0  0  0  0  0
    5.7572   -0.9180    0.8347 H   0  0  0  0  0  0  0  0  0  0  0  0
    4.7938    0.3137    1.6250 H   0  0  0  0  0  0  0  0  0  0  0  0
    4.5325    1.5302   -0.5769 H   0  0  0  0  0  0  0  0  0  0  0  0
    5.3919    0.2148   -1.3791 H   0  0  0  0  0  0  0  0  0  0  0  0
    5.8099    3.2119    0.3807 H   0  0  0  0  0  0  0  0  0  0  0  0
    6.1885    2.0897    1.7289 H   0  0  0  0  0  0  0  0  0  0  0  0
    7.4940    2.8802    0.8300 H   0  0  0  0  0  0  0  0  0  0  0  0
    0.0377   -5.5577   -1.5282 H   0  0  0  0  0  0  0  0  0  0  0  0
    1.4357   -4.7004   -0.8655 H   0  0  0  0  0  0  0  0  0  0  0  0
    0.7828   -4.2357   -2.4542 H   0  0  0  0  0  0  0  0  0  0  0  0
  1  2  1  0
  2  3  2  0
  3  4  1  0
  4  5  1  0
  5  6  1  0
  6  7  2  0
  7  8  1  0
  8  9  2  0
  9 10  1  0
 10 11  2  0
 11 12  1  0
 12 13  1  0
  4 14  2  0
 14 15  1  0
 15 16  2  3
 16 17  1  0
 17 18  1  0
 18 19  1  0
 19 20  1  0
 20 21  1  0
 15 22  1  0
 22 23  2  0
 23 24  1  0
 24 25  1  0
 24  1  1  0
 23  3  1  0
 11  6  1  0
  1 26  1  0
  2 27  1  0
  5 28  1  0
  7 29  1  0
  8 30  1  0
  9 31  1  0
 10 32  1  0
 13 33  1  0
 13 34  1  0
 13 35  1  0
 17 36  1  0
 17 37  1  0
 18 38  1  0
 18 39  1  0
 19 40  1  0
 19 41  1  0
 21 42  1  0
 21 43  1  0
 21 44  1  0
 25 45  1  0
 25 46  1  0
 25 47  1  0
M  END
>  <ScrubInfo>  (7) 
{"isomerGroup": 0, "isomerId": 6, "confId": 0, "nr_conformers:": 1, "nr_isomers:": 9}

$$$$
_i7
     RDKit          3D

 47 49  0  0  0  0  0  0  0  0999 V2000
   -2.1990   -2.9803   -0.9556 N   0  0  0  0  0  0  0  0  0  0  0  0
   -2.2922   -1.5946   -0.8787 C   0  0  0  0  0  0  0  0  0  0  0  0
   -1.2107   -1.0128   -0.3410 C   0  0  0  0  0  0  0  0  0  0  0  0
   -0.6765    0.3265   -0.0369 C   0  0  0  0  0  0  0  0  0  0  0  0
   -1.2309    1.4936   -0.1832 N   0  0  0  0  0  0  0  0  0  0  0  0
   -2.5569    1.6049   -0.6327 C   0  0  0  0  0  0  0  0  0  0  0  0
   -2.7794    1.9673   -1.9661 C   0  0  0  0  0  0  0  0  0  0  0  0
   -4.0763    2.1230   -2.4528 C   0  0  0  0  0  0  0  0  0  0  0  0
   -5.1621    1.9287   -1.6030 C   0  0  0  0  0  0  0  0  0  0  0  0
   -4.9560    1.5847   -0.2637 C   0  0  0  0  0  0  0  0  0  0  0  0
   -3.6574    1.4293    0.2341 C   0  0  0  0  0  0  0  0  0  0  0  0
   -3.3559    1.0787    1.5270 O   0  0  0  0  0  0  0  0  0  0  0  0
   -4.4160    1.1034    2.4722 C   0  0  0  0  0  0  0  0  0  0  0  0
    0.6008    0.2830    0.4577 N   0  0  0  0  0  0  0  0  0  0  0  0
    1.3625   -0.8313    0.7021 C   0  0  0  0  0  0  0  0  0  0  0  0
    2.5665   -0.8573    1.1494 N   0  0  0  0  0  0  0  0  0  0  0  0
    3.2837    0.3669    1.4872 C   0  0  0  0  0  0  0  0  0  0  0  0
    4.0152    0.9112    0.2603 C   0  0  0  0  0  0  0  0  0  0  0  0
    5.2431    0.0770   -0.1058 C   0  0  0  0  0  0  0  0  0  0  0  0
    6.2720    0.1893    0.8797 O   0  0  0  0  0  0  0  0  0  0  0  0
    7.1088    1.3214    0.6903 C   0  0  0  0  0  0  0  0  0  0  0  0
    0.8598   -2.0936    0.4630 N   0  0  0  0  0  0  0  0  0  0  0  0
   -0.3434   -2.1934   -0.0061 C   0  0  0  0  0  0  0  0  0  0  0  0
   -1.0385   -3.3688   -0.3013 N   0  0  0  0  0  0  0  0  0  0  0  0
   -0.3363   -4.5578   -0.7447 C   0  0  0  0  0  0  0  0  0  0  0  0
   -3.0556   -3.4573   -0.6661 H   0  0  0  0  0  0  0  0  0  0  0  0
   -3.1901   -1.1228   -1.2483 H   0  0  0  0  0  0  0  0  0  0  0  0
   -1.9303    2.1323   -2.6240 H   0  0  0  0  0  0  0  0  0  0  0  0
   -4.2369    2.4027   -3.4908 H   0  0  0  0  0  0  0  0  0  0  0  0
   -6.1744    2.0524   -1.9809 H   0  0  0  0  0  0  0  0  0  0  0  0
   -5.8293    1.4432    0.3641 H   0  0  0  0  0  0  0  0  0  0  0  0
   -4.8987    2.0859    2.5054 H   0  0  0  0  0  0  0  0  0  0  0  0
   -3.9874    0.9099    3.4603 H   0  0  0  0  0  0  0  0  0  0  0  0
   -5.1430    0.3116    2.2651 H   0  0  0  0  0  0  0  0  0  0  0  0
    0.9916    1.1855    0.6674 H   0  0  0  0  0  0  0  0  0  0  0  0
    3.9958    0.1435    2.2898 H   0  0  0  0  0  0  0  0  0  0  0  0
    2.6143    1.1302    1.8993 H   0  0  0  0  0  0  0  0  0  0  0  0
    3.3351    0.9437   -0.5985 H   0  0  0  0  0  0  0  0  0  0  0  0
    4.3191    1.9413    0.4745 H   0  0  0  0  0  0  0  0  0  0  0  0
    5.6296    0.3742   -1.0879 H   0  0  0  0  0  0  0  0  0  0  0  0
    4.9729   -0.9819   -0.1768 H   0  0  0  0  0  0  0  0  0  0  0  0
    7.6166    1.2645   -0.2774 H   0  0  0  0  0  0  0  0  0  0  0  0
    6.5378    2.2508    0.7616 H   0  0  0  0  0  0  0  0  0  0  0  0
    7.8668    1.3216    1.4783 H   0  0  0  0  0  0  0  0  0  0  0  0
   -1.0323   -5.3975   -0.8402 H   0  0  0  0  0  0  0  0  0  0  0  0
    0.4339   -4.8441   -0.0214 H   0  0  0  0  0  0  0  0  0  0  0  0
    0.1396   -4.3887   -1.7163 H   0  0  0  0  0  0  0  0  0  0  0  0
  1  2  1  0
  2  3  2  0
  3  4  1  0
  4  5  2  3
  5  6  1  0
  6  7  2  0
  7  8  1  0
  8  9  2  0
  9 10  1  0
 10 11  2  0
 11 12  1  0
 12 13  1  0
  4 14  1  0
 14 15  1  0
 15 16  2  3
 16 17  1  0
 17 18  1  0
 18 19  1  0
 19 20  1  0
 20 21  1  0
 15 22  1  0
 22 23  2  0
 23 24  1  0
 24 25  1  0
 24  1  1  0
 23  3  1  0
 11  6  1  0
  1 26  1  0
  2 27  1  0
  7 28  1  0
  8 29  1  0
  9 30  1  0
 10 31  1  0
 13 32  1  0
 13 33  1  0
 13 34  1  0
 14 35  1  0
 17 36  1  0
 17 37  1  0
 18 38  1  0
 18 39  1  0
 19 40  1  0
 19 41  1  0
 21 42  1  0
 21 43  1  0
 21 44  1  0
 25 45  1  0
 25 46  1  0
 25 47  1  0
M  END
>  <ScrubInfo>  (8) 
{"isomerGroup": 0, "isomerId": 7, "confId": 0, "nr_conformers:": 1, "nr_isomers:": 9}

$$$$
_i8
     RDKit          3D

 47 49  0  0  0  0  0  0  0  0999 V2000
   -1.2147   -0.8499   -1.0426 N   0  0  0  0  0  0  0  0  0  0  0  0
   -1.4148   -0.0293    0.0553 C   0  0  0  0  0  0  0  0  0  0  0  0
   -2.5164    0.1830    0.6942 N   0  0  0  0  0  0  0  0  0  0  0  0
   -3.7238   -0.5028    0.2455 C   0  0  0  0  0  0  0  0  0  0  0  0
   -4.8846   -0.1172    1.1569 C   0  0  0  0  0  0  0  0  0  0  0  0
   -5.2504    1.3605    1.0357 C   0  0  0  0  0  0  0  0  0  0  0  0
   -6.4537    1.6537    1.7503 O   0  0  0  0  0  0  0  0  0  0  0  0
   -6.2407    1.8296    3.1448 C   0  0  0  0  0  0  0  0  0  0  0  0
   -0.2704    0.6130    0.4720 N   0  0  0  0  0  0  0  0  0  0  0  0
    1.0276    0.5752    0.0091 C   0  0  0  0  0  0  0  0  0  0  0  0
    1.9620    1.2684    0.5861 N   0  0  0  0  0  0  0  0  0  0  0  0
    3.3009    1.2043    0.1748 C   0  0  0  0  0  0  0  0  0  0  0  0
    3.8068    2.2470   -0.6105 C   0  0  0  0  0  0  0  0  0  0  0  0
    5.1403    2.2482   -1.0158 C   0  0  0  0  0  0  0  0  0  0  0  0
    5.9827    1.2110   -0.6242 C   0  0  0  0  0  0  0  0  0  0  0  0
    5.4977    0.1733    0.1776 C   0  0  0  0  0  0  0  0  0  0  0  0
    4.1600    0.1631    0.5888 C   0  0  0  0  0  0  0  0  0  0  0  0
    3.5889   -0.8119    1.3688 O   0  0  0  0  0  0  0  0  0  0  0  0
    4.4256   -1.8715    1.8090 C   0  0  0  0  0  0  0  0  0  0  0  0
    1.1348   -0.2957   -1.1501 C   0  0  0  0  0  0  0  0  0  0  0  0
    2.1358   -0.6928   -2.0561 C   0  0  0  0  0  0  0  0  0  0  0  0
    1.6863   -1.5422   -2.9928 N   0  0  0  0  0  0  0  0  0  0  0  0
    0.3812   -1.6985   -2.6839 N   0  0  0  0  0  0  0  0  0  0  0  0
   -0.4370   -2.5597   -3.5001 C   0  0  0  0  0  0  0  0  0  0  0  0
    0.0128   -0.9582   -1.6025 C   0  0  0  0  0  0  0  0  0  0  0  0
   -2.0187   -1.3468   -1.3995 H   0  0  0  0  0  0  0  0  0  0  0  0
   -3.5845   -1.5889    0.3021 H   0  0  0  0  0  0  0  0  0  0  0  0
   -3.9633   -0.2360   -0.7908 H   0  0  0  0  0  0  0  0  0  0  0  0
   -4.6361   -0.3587    2.1968 H   0  0  0  0  0  0  0  0  0  0  0  0
   -5.7626   -0.7249    0.9057 H   0  0  0  0  0  0  0  0  0  0  0  0
   -5.4478    1.6003   -0.0149 H   0  0  0  0  0  0  0  0  0  0  0  0
   -4.4386    2.0159    1.3715 H   0  0  0  0  0  0  0  0  0  0  0  0
   -7.1955    2.1007    3.6036 H   0  0  0  0  0  0  0  0  0  0  0  0
   -5.8889    0.9042    3.6083 H   0  0  0  0  0  0  0  0  0  0  0  0
   -5.5275    2.6392    3.3268 H   0  0  0  0  0  0  0  0  0  0  0  0
   -0.3965    1.1986    1.2845 H   0  0  0  0  0  0  0  0  0  0  0  0
    3.1510    3.0629   -0.9027 H   0  0  0  0  0  0  0  0  0  0  0  0
    5.5210    3.0604   -1.6295 H   0  0  0  0  0  0  0  0  0  0  0  0
    7.0241    1.2116   -0.9374 H   0  0  0  0  0  0  0  0  0  0  0  0
    6.1903   -0.6107    0.4644 H   0  0  0  0  0  0  0  0  0  0  0  0
    5.2413   -1.4974    2.4363 H   0  0  0  0  0  0  0  0  0  0  0  0
    4.8093   -2.4492    0.9616 H   0  0  0  0  0  0  0  0  0  0  0  0
    3.8180   -2.5449    2.4212 H   0  0  0  0  0  0  0  0  0  0  0  0
    3.1773   -0.4059   -2.0945 H   0  0  0  0  0  0  0  0  0  0  0  0
   -1.2400   -2.9815   -2.8914 H   0  0  0  0  0  0  0  0  0  0  0  0
    0.1806   -3.3703   -3.8958 H   0  0  0  0  0  0  0  0  0  0  0  0
   -0.8497   -1.9625   -4.3166 H   0  0  0  0  0  0  0  0  0  0  0  0
  1  2  1  0
  2  3  2  3
  3  4  1  0
  4  5  1  0
  5  6  1  0
  6  7  1  0
  7  8  1  0
  2  9  1  0
  9 10  1  0
 10 11  2  3
 11 12  1  0
 12 13  2  0
 13 14  1  0
 14 15  2  0
 15 16  1  0
 16 17  2  0
 17 18  1  0
 18 19  1  0
 10 20  1  0
 20 21  1  0
 21 22  2  0
 22 23  1  0
 23 24  1  0
 23 25  1  0
 25  1  1  0
 17 12  1  0
 25 20  2  0
  1 26  1  0
  4 27  1  0
  4 28  1  0
  5 29  1  0
  5 30  1  0
  6 31  1  0
  6 32  1  0
  8 33  1  0
  8 34  1  0
  8 35  1  0
  9 36  1  0
 13 37  1  0
 14 38  1  0
 15 39  1  0
 16 40  1  0
 19 41  1  0
 19 42  1  0
 19 43  1  0
 21 44  1  0
 24 45  1  0
 24 46  1  0
 24 47  1  0
M  END
>  <ScrubInfo>  (9) 
{"isomerGroup": 0, "isomerId": 8, "confId": 0, "nr_conformers:": 1, "nr_isomers:": 9}

$$$$
