_i0
     RDKit          3D

 49 51  0  0  0  0  0  0  0  0999 V2000
    7.2212    1.0041   -1.2494 C   0  0  0  0  0  0  0  0  0  0  0  0
    5.7952    1.4266   -0.9300 C   0  0  0  0  0  0  0  0  0  0  0  0
    5.1731    0.5257    0.1373 C   0  0  0  0  0  0  0  0  0  0  0  0
    3.7777    0.9766    0.5783 C   0  0  0  0  0  0  0  0  0  0  0  0
    2.7321    0.8906   -0.5364 C   0  0  0  0  0  0  0  0  0  0  0  0
    1.4137    1.2307   -0.0270 N   0  0  0  0  0  0  0  0  0  0  0  0
    0.6201    0.1565    0.3616 C   0  0  0  0  0  0  0  0  0  0  0  0
   -0.6906    0.3152    0.1029 N   0  0  0  0  0  0  0  0  0  0  0  0
   -1.5908   -0.6505    0.4296 C   0  0  0  0  0  0  0  0  0  0  0  0
   -2.9566   -0.5150    0.1664 N   0  0  0  0  0  0  0  0  0  0  0  0
   -3.7451    0.5164   -0.3858 C   0  0  0  0  0  0  0  0  0  0  0  0
   -3.2389    1.7662   -0.7550 C   0  0  0  0  0  0  0  0  0  0  0  0
   -4.0719    2.7448   -1.3033 C   0  0  0  0  0  0  0  0  0  0  0  0
   -5.4258    2.4853   -1.4911 C   0  0  0  0  0  0  0  0  0  0  0  0
   -5.9558    1.2464   -1.1300 C   0  0  0  0  0  0  0  0  0  0  0  0
   -5.1265    0.2633   -0.5799 C   0  0  0  0  0  0  0  0  0  0  0  0
   -5.5454   -0.9905   -0.1872 O   0  0  0  0  0  0  0  0  0  0  0  0
   -6.9230   -1.2947   -0.3674 C   0  0  0  0  0  0  0  0  0  0  0  0
   -1.0818   -1.8056    1.0361 C   0  0  0  0  0  0  0  0  0  0  0  0
   -1.5641   -3.0322    1.5396 C   0  0  0  0  0  0  0  0  0  0  0  0
   -0.5948   -3.8110    2.0339 N   0  0  0  0  0  0  0  0  0  0  0  0
    0.5211   -3.0667    1.8495 N   0  0  0  0  0  0  0  0  0  0  0  0
    1.7970   -3.5816    2.2781 C   0  0  0  0  0  0  0  0  0  0  0  0
    0.2807   -1.8611    1.2498 C   0  0  0  0  0  0  0  0  0  0  0  0
    1.1783   -0.9189    0.9314 N   0  0  0  0  0  0  0  0  0  0  0  0
    7.2509   -0.0242   -1.6236 H   0  0  0  0  0  0  0  0  0  0  0  0
    7.8573    1.0654   -0.3606 H   0  0  0  0  0  0  0  0  0  0  0  0
    7.6470    1.6577   -2.0171 H   0  0  0  0  0  0  0  0  0  0  0  0
    5.2049    1.3889   -1.8517 H   0  0  0  0  0  0  0  0  0  0  0  0
    5.7974    2.4669   -0.5850 H   0  0  0  0  0  0  0  0  0  0  0  0
    5.8236    0.5155    1.0208 H   0  0  0  0  0  0  0  0  0  0  0  0
    5.1256   -0.5066   -0.2304 H   0  0  0  0  0  0  0  0  0  0  0  0
    3.8247    2.0045    0.9599 H   0  0  0  0  0  0  0  0  0  0  0  0
    3.4733    0.3521    1.4267 H   0  0  0  0  0  0  0  0  0  0  0  0
    2.7466   -0.0919   -1.0254 H   0  0  0  0  0  0  0  0  0  0  0  0
    2.9801    1.6229   -1.3132 H   0  0  0  0  0  0  0  0  0  0  0  0
    0.8319    1.7628   -0.6666 H   0  0  0  0  0  0  0  0  0  0  0  0
   -3.5273   -1.3190    0.4040 H   0  0  0  0  0  0  0  0  0  0  0  0
   -2.1905    2.0065   -0.6153 H   0  0  0  0  0  0  0  0  0  0  0  0
   -3.6576    3.7108   -1.5804 H   0  0  0  0  0  0  0  0  0  0  0  0
   -6.0703    3.2497   -1.9175 H   0  0  0  0  0  0  0  0  0  0  0  0
   -7.0155    1.0822   -1.2899 H   0  0  0  0  0  0  0  0  0  0  0  0
   -7.0876   -2.3168   -0.0128 H   0  0  0  0  0  0  0  0  0  0  0  0
   -7.5556   -0.6302    0.2302 H   0  0  0  0  0  0  0  0  0  0  0  0
   -7.1997   -1.2621   -1.4263 H   0  0  0  0  0  0  0  0  0  0  0  0
   -2.5839   -3.3931    1.5674 H   0  0  0  0  0  0  0  0  0  0  0  0
    1.7492   -3.7662    3.3543 H   0  0  0  0  0  0  0  0  0  0  0  0
    1.9905   -4.5123    1.7389 H   0  0  0  0  0  0  0  0  0  0  0  0
    2.5858   -2.8576    2.0617 H   0  0  0  0  0  0  0  0  0  0  0  0
  1  2  1  0
  2  3  1  0
  3  4  1  0
  4  5  1  0
  5  6  1  0
  6  7  1  0
  7  8  2  0
  8  9  1  0
  9 10  1  0
 10 11  1  0
 11 12  2  0
 12 13  1  0
 13 14  2  0
 14 15  1  0
 15 16  2  0
 16 17  1  0
 17 18  1  0
  9 19  2  0
 19 20  1  0
 20 21  2  0
 21 22  1  0
 22 23  1  0
 22 24  1  0
 24 25  2  0
 25  7  1  0
 16 11  1  0
 24 19  1  0
  1 26  1  0
  1 27  1  0
  1 28  1  0
  2 29  1  0
  2 30  1  0
  3 31  1  0
  3 32  1  0
  4 33  1  0
  4 34  1  0
  5 35  1  0
  5 36  1  0
  6 37  1  0
 10 38  1  0
 12 39  1  0
 13 40  1  0
 14 41  1  0
 15 42  1  0
 18 43  1  0
 18 44  1  0
 18 45  1  0
 20 46  1  0
 23 47  1  0
 23 48  1  0
 23 49  1  0
M  END
>  <ScrubInfo>  (1) 
{"isomerGroup": 0, "isomerId": 0, "confId": 0, "nr_conformers:": 1, "nr_isomers:": 9}

$$$$
_i1
     RDKit          3D

 49 51  0  0  0  0  0  0  0  0999 V2000
   -0.3891   -0.2874   -0.4160 N   0  0  0  0  0  0  0  0  0  0  0  0
   -1.5175   -0.7751    0.2144 C   0  0  0  0  0  0  0  0  0  0  0  0
   -2.7454   -0.1485    0.1818 N   0  0  0  0  0  0  0  0  0  0  0  0
   -3.2412    0.8695   -0.6620 C   0  0  0  0  0  0  0  0  0  0  0  0
   -2.7466    1.0972   -1.9523 C   0  0  0  0  0  0  0  0  0  0  0  0
   -3.2455    2.1399   -2.7350 C   0  0  0  0  0  0  0  0  0  0  0  0
   -4.2482    2.9670   -2.2376 C   0  0  0  0  0  0  0  0  0  0  0  0
   -4.7647    2.7513   -0.9588 C   0  0  0  0  0  0  0  0  0  0  0  0
   -4.2695    1.7088   -0.1691 C   0  0  0  0  0  0  0  0  0  0  0  0
   -4.7121    1.4010    1.0984 O   0  0  0  0  0  0  0  0  0  0  0  0
   -5.6871    2.2666    1.6677 C   0  0  0  0  0  0  0  0  0  0  0  0
   -1.3225   -1.9058    0.9045 C   0  0  0  0  0  0  0  0  0  0  0  0
   -2.1249   -2.8442    1.6960 C   0  0  0  0  0  0  0  0  0  0  0  0
   -1.4362   -3.8688    2.1319 N   0  0  0  0  0  0  0  0  0  0  0  0
   -0.1202   -3.6466    1.6934 N   0  0  0  0  0  0  0  0  0  0  0  0
    0.8288   -4.7316    1.7467 C   0  0  0  0  0  0  0  0  0  0  0  0
    0.0271   -2.5123    0.9110 C   0  0  0  0  0  0  0  0  0  0  0  0
    1.0645   -2.0453    0.3037 N   0  0  0  0  0  0  0  0  0  0  0  0
    0.8559   -0.8572   -0.3627 C   0  0  0  0  0  0  0  0  0  0  0  0
    1.8384   -0.2484   -0.9412 N   0  0  0  0  0  0  0  0  0  0  0  0
    3.1550   -0.8800   -0.8545 C   0  0  0  0  0  0  0  0  0  0  0  0
    4.1818    0.0071   -1.5610 C   0  0  0  0  0  0  0  0  0  0  0  0
    4.3444    1.4096   -0.9617 C   0  0  0  0  0  0  0  0  0  0  0  0
    4.7371    1.4594    0.5167 C   0  0  0  0  0  0  0  0  0  0  0  0
    6.0597    0.7722    0.8174 C   0  0  0  0  0  0  0  0  0  0  0  0
   -0.4333    0.6462   -0.7949 H   0  0  0  0  0  0  0  0  0  0  0  0
   -3.3754   -0.3293    0.9607 H   0  0  0  0  0  0  0  0  0  0  0  0
   -1.9952    0.4426   -2.3851 H   0  0  0  0  0  0  0  0  0  0  0  0
   -2.8556    2.2989   -3.7375 H   0  0  0  0  0  0  0  0  0  0  0  0
   -4.6360    3.7772   -2.8505 H   0  0  0  0  0  0  0  0  0  0  0  0
   -5.5523    3.4114   -0.6123 H   0  0  0  0  0  0  0  0  0  0  0  0
   -5.8989    1.9097    2.6802 H   0  0  0  0  0  0  0  0  0  0  0  0
   -6.6230    2.2318    1.1007 H   0  0  0  0  0  0  0  0  0  0  0  0
   -5.3086    3.2909    1.7488 H   0  0  0  0  0  0  0  0  0  0  0  0
   -3.1973   -2.6778    1.8592 H   0  0  0  0  0  0  0  0  0  0  0  0
    1.8542   -4.3516    1.7971 H   0  0  0  0  0  0  0  0  0  0  0  0
    0.6594   -5.3521    2.6327 H   0  0  0  0  0  0  0  0  0  0  0  0
    0.7346   -5.3637    0.8583 H   0  0  0  0  0  0  0  0  0  0  0  0
    3.4542   -1.0408    0.1873 H   0  0  0  0  0  0  0  0  0  0  0  0
    3.1397   -1.8534   -1.3603 H   0  0  0  0  0  0  0  0  0  0  0  0
    3.8903    0.1198   -2.6133 H   0  0  0  0  0  0  0  0  0  0  0  0
    5.1508   -0.5053   -1.5651 H   0  0  0  0  0  0  0  0  0  0  0  0
    5.1015    1.9466   -1.5469 H   0  0  0  0  0  0  0  0  0  0  0  0
    3.4097    1.9689   -1.0911 H   0  0  0  0  0  0  0  0  0  0  0  0
    3.9470    1.0224    1.1370 H   0  0  0  0  0  0  0  0  0  0  0  0
    4.8161    2.5117    0.8157 H   0  0  0  0  0  0  0  0  0  0  0  0
    5.9996   -0.3064    0.6456 H   0  0  0  0  0  0  0  0  0  0  0  0
    6.8638    1.1783    0.1956 H   0  0  0  0  0  0  0  0  0  0  0  0
    6.3326    0.9257    1.8664 H   0  0  0  0  0  0  0  0  0  0  0  0
  1  2  1  0
  2  3  1  0
  3  4  1  0
  4  5  2  0
  5  6  1  0
  6  7  2  0
  7  8  1  0
  8  9  2  0
  9 10  1  0
 10 11  1  0
  2 12  2  0
 12 13  1  0
 13 14  2  0
 14 15  1  0
 15 16  1  0
 15 17  1  0
 17 18  2  0
 18 19  1  0
 19 20  2  3
 20 21  1  0
 21 22  1  0
 22 23  1  0
 23 24  1  0
 24 25  1  0
 19  1  1  0
  9  4  1  0
 17 12  1  0
  1 26  1  0
  3 27  1  0
  5 28  1  0
  6 29  1  0
  7 30  1  0
  8 31  1  0
 11 32  1  0
 11 33  1  0
 11 34  1  0
 13 35  1  0
 16 36  1  0
 16 37  1  0
 16 38  1  0
 21 39  1  0
 21 40  1  0
 22 41  1  0
 22 42  1  0
 23 43  1  0
 23 44  1  0
 24 45  1  0
 24 46  1  0
 25 47  1  0
 25 48  1  0
 25 49  1  0
M  END
>  <ScrubInfo>  (2) 
{"isomerGroup": 0, "isomerId": 1, "confId": 0, "nr_conformers:": 1, "nr_isomers:": 9}

$$$$
_i2
     RDKit          3D

 49 51  0  0  0  0  0  0  0  0999 V2000
    0.2916    0.0830   -1.1679 N   0  0  0  0  0  0  0  0  0  0  0  0
    1.1997    0.8734   -0.5049 C   0  0  0  0  0  0  0  0  0  0  0  0
    2.4967    0.5523   -0.8074 N   0  0  0  0  0  0  0  0  0  0  0  0
    3.5984    1.3463   -0.2838 C   0  0  0  0  0  0  0  0  0  0  0  0
    4.9434    0.6888   -0.5989 C   0  0  0  0  0  0  0  0  0  0  0  0
    5.3353   -0.4539    0.3464 C   0  0  0  0  0  0  0  0  0  0  0  0
    4.4431   -1.6905    0.2437 C   0  0  0  0  0  0  0  0  0  0  0  0
    4.9964   -2.8430    1.0687 C   0  0  0  0  0  0  0  0  0  0  0  0
    0.8639    1.8229    0.3293 N   0  0  0  0  0  0  0  0  0  0  0  0
   -0.4893    1.9380    0.4439 C   0  0  0  0  0  0  0  0  0  0  0  0
   -1.4764    1.1836   -0.1717 C   0  0  0  0  0  0  0  0  0  0  0  0
   -2.6800    1.7553    0.2766 C   0  0  0  0  0  0  0  0  0  0  0  0
   -2.4880    2.7797    1.1184 N   0  0  0  0  0  0  0  0  0  0  0  0
   -1.1409    2.8620    1.2111 N   0  0  0  0  0  0  0  0  0  0  0  0
   -0.5500    3.8748    2.0485 C   0  0  0  0  0  0  0  0  0  0  0  0
   -1.0801    0.1048   -1.0552 C   0  0  0  0  0  0  0  0  0  0  0  0
   -1.8225   -0.7545   -1.6842 N   0  0  0  0  0  0  0  0  0  0  0  0
   -3.2146   -0.7900   -1.5168 C   0  0  0  0  0  0  0  0  0  0  0  0
   -4.0210   -0.2438   -2.5222 C   0  0  0  0  0  0  0  0  0  0  0  0
   -5.4104   -0.2812   -2.4164 C   0  0  0  0  0  0  0  0  0  0  0  0
   -6.0038   -0.8817   -1.3090 C   0  0  0  0  0  0  0  0  0  0  0  0
   -5.2122   -1.4499   -0.3065 C   0  0  0  0  0  0  0  0  0  0  0  0
   -3.8166   -1.4125   -0.4017 C   0  0  0  0  0  0  0  0  0  0  0  0
   -2.9560   -1.9425    0.5278 O   0  0  0  0  0  0  0  0  0  0  0  0
   -3.5174   -2.3933    1.7521 C   0  0  0  0  0  0  0  0  0  0  0  0
    0.6397   -0.7335   -1.6423 H   0  0  0  0  0  0  0  0  0  0  0  0
    2.6375    0.2660   -1.7686 H   0  0  0  0  0  0  0  0  0  0  0  0
    3.5691    2.3350   -0.7567 H   0  0  0  0  0  0  0  0  0  0  0  0
    3.4970    1.4897    0.7982 H   0  0  0  0  0  0  0  0  0  0  0  0
    5.7194    1.4600   -0.5116 H   0  0  0  0  0  0  0  0  0  0  0  0
    4.9686    0.3370   -1.6376 H   0  0  0  0  0  0  0  0  0  0  0  0
    5.3397   -0.0886    1.3807 H   0  0  0  0  0  0  0  0  0  0  0  0
    6.3686   -0.7409    0.1134 H   0  0  0  0  0  0  0  0  0  0  0  0
    4.3579   -2.0063   -0.8023 H   0  0  0  0  0  0  0  0  0  0  0  0
    3.4350   -1.4628    0.6046 H   0  0  0  0  0  0  0  0  0  0  0  0
    4.3393   -3.7148    0.9899 H   0  0  0  0  0  0  0  0  0  0  0  0
    5.9912   -3.1354    0.7177 H   0  0  0  0  0  0  0  0  0  0  0  0
    5.0713   -2.5680    2.1256 H   0  0  0  0  0  0  0  0  0  0  0  0
   -3.6981    1.4867    0.0328 H   0  0  0  0  0  0  0  0  0  0  0  0
    0.5191    3.6863    2.1681 H   0  0  0  0  0  0  0  0  0  0  0  0
   -1.0371    3.8448    3.0267 H   0  0  0  0  0  0  0  0  0  0  0  0
   -0.7089    4.8459    1.5731 H   0  0  0  0  0  0  0  0  0  0  0  0
   -3.5561    0.2126   -3.3919 H   0  0  0  0  0  0  0  0  0  0  0  0
   -6.0269    0.1512   -3.2001 H   0  0  0  0  0  0  0  0  0  0  0  0
   -7.0876   -0.9160   -1.2274 H   0  0  0  0  0  0  0  0  0  0  0  0
   -5.7152   -1.9198    0.5318 H   0  0  0  0  0  0  0  0  0  0  0  0
   -2.6938   -2.6964    2.4057 H   0  0  0  0  0  0  0  0  0  0  0  0
   -4.1542   -3.2694    1.5926 H   0  0  0  0  0  0  0  0  0  0  0  0
   -4.0653   -1.5915    2.2582 H   0  0  0  0  0  0  0  0  0  0  0  0
  1  2  1  0
  2  3  1  0
  3  4  1  0
  4  5  1  0
  5  6  1  0
  6  7  1  0
  7  8  1  0
  2  9  2  0
  9 10  1  0
 10 11  2  0
 11 12  1  0
 12 13  2  0
 13 14  1  0
 14 15  1  0
 11 16  1  0
 16 17  2  3
 17 18  1  0
 18 19  2  0
 19 20  1  0
 20 21  2  0
 21 22  1  0
 22 23  2  0
 23 24  1  0
 24 25  1  0
 16  1  1  0
 23 18  1  0
 14 10  1  0
  1 26  1  0
  3 27  1  0
  4 28  1  0
  4 29  1  0
  5 30  1  0
  5 31  1  0
  6 32  1  0
  6 33  1  0
  7 34  1  0
  7 35  1  0
  8 36  1  0
  8 37  1  0
  8 38  1  0
 12 39  1  0
 15 40  1  0
 15 41  1  0
 15 42  1  0
 19 43  1  0
 20 44  1  0
 21 45  1  0
 22 46  1  0
 25 47  1  0
 25 48  1  0
 25 49  1  0
M  END
>  <ScrubInfo>  (3) 
{"isomerGroup": 0, "isomerId": 2, "confId": 0, "nr_conformers:": 1, "nr_isomers:": 9}

$$$$
_i3
     RDKit          3D

 49 51  0  0  0  0  0  0  0  0999 V2000
    1.0061   -2.0175    0.0963 N   0  0  0  0  0  0  0  0  0  0  0  0
    1.0839   -0.6376   -0.0241 C   0  0  0  0  0  0  0  0  0  0  0  0
    2.1354    0.0373   -0.3293 N   0  0  0  0  0  0  0  0  0  0  0  0
    3.3885   -0.6584   -0.5820 C   0  0  0  0  0  0  0  0  0  0  0  0
    4.4725    0.3672   -0.9197 C   0  0  0  0  0  0  0  0  0  0  0  0
    4.8254    1.2582    0.2760 C   0  0  0  0  0  0  0  0  0  0  0  0
    6.0074    2.1921    0.0053 C   0  0  0  0  0  0  0  0  0  0  0  0
    5.7219    3.2385   -1.0608 C   0  0  0  0  0  0  0  0  0  0  0  0
   -0.0275    0.1658    0.1888 N   0  0  0  0  0  0  0  0  0  0  0  0
   -1.1725   -0.3782    0.4847 C   0  0  0  0  0  0  0  0  0  0  0  0
   -2.3130    0.3325    0.7408 N   0  0  0  0  0  0  0  0  0  0  0  0
   -3.4060    0.4534   -0.1739 C   0  0  0  0  0  0  0  0  0  0  0  0
   -3.6040   -0.4196   -1.2524 C   0  0  0  0  0  0  0  0  0  0  0  0
   -4.7291   -0.2977   -2.0703 C   0  0  0  0  0  0  0  0  0  0  0  0
   -5.6757    0.6898   -1.8140 C   0  0  0  0  0  0  0  0  0  0  0  0
   -5.5040    1.5627   -0.7389 C   0  0  0  0  0  0  0  0  0  0  0  0
   -4.3806    1.4479    0.0856 C   0  0  0  0  0  0  0  0  0  0  0  0
   -4.1080    2.2617    1.1609 O   0  0  0  0  0  0  0  0  0  0  0  0
   -5.0873    3.2345    1.5024 C   0  0  0  0  0  0  0  0  0  0  0  0
   -1.2837   -1.8069    0.6589 C   0  0  0  0  0  0  0  0  0  0  0  0
   -2.2687   -2.7310    1.0371 C   0  0  0  0  0  0  0  0  0  0  0  0
   -1.8090   -3.9928    1.0342 N   0  0  0  0  0  0  0  0  0  0  0  0
   -0.5085   -3.8637    0.6710 N   0  0  0  0  0  0  0  0  0  0  0  0
    0.3131   -5.0435    0.5809 C   0  0  0  0  0  0  0  0  0  0  0  0
   -0.1688   -2.5676    0.4466 C   0  0  0  0  0  0  0  0  0  0  0  0
    1.8530   -2.5438   -0.0514 H   0  0  0  0  0  0  0  0  0  0  0  0
    3.2776   -1.3376   -1.4358 H   0  0  0  0  0  0  0  0  0  0  0  0
    3.6973   -1.2447    0.2915 H   0  0  0  0  0  0  0  0  0  0  0  0
    5.3711   -0.1695   -1.2468 H   0  0  0  0  0  0  0  0  0  0  0  0
    4.1365    0.9830   -1.7618 H   0  0  0  0  0  0  0  0  0  0  0  0
    3.9534    1.8529    0.5732 H   0  0  0  0  0  0  0  0  0  0  0  0
    5.0813    0.6226    1.1329 H   0  0  0  0  0  0  0  0  0  0  0  0
    6.2633    2.7073    0.9389 H   0  0  0  0  0  0  0  0  0  0  0  0
    6.8876    1.6065   -0.2845 H   0  0  0  0  0  0  0  0  0  0  0  0
    4.8275    3.8186   -0.8128 H   0  0  0  0  0  0  0  0  0  0  0  0
    6.5646    3.9329   -1.1402 H   0  0  0  0  0  0  0  0  0  0  0  0
    5.5770    2.7810   -2.0437 H   0  0  0  0  0  0  0  0  0  0  0  0
   -2.0881    1.2898    1.0146 H   0  0  0  0  0  0  0  0  0  0  0  0
   -2.8854   -1.1981   -1.4898 H   0  0  0  0  0  0  0  0  0  0  0  0
   -4.8643   -0.9768   -2.9086 H   0  0  0  0  0  0  0  0  0  0  0  0
   -6.5498    0.7817   -2.4541 H   0  0  0  0  0  0  0  0  0  0  0  0
   -6.2623    2.3206   -0.5745 H   0  0  0  0  0  0  0  0  0  0  0  0
   -4.7357    3.7633    2.3935 H   0  0  0  0  0  0  0  0  0  0  0  0
   -5.2040    3.9729    0.7024 H   0  0  0  0  0  0  0  0  0  0  0  0
   -6.0440    2.7634    1.7512 H   0  0  0  0  0  0  0  0  0  0  0  0
   -3.2997   -2.5460    1.3108 H   0  0  0  0  0  0  0  0  0  0  0  0
    1.3086   -4.7778    0.2193 H   0  0  0  0  0  0  0  0  0  0  0  0
   -0.1584   -5.7404   -0.1168 H   0  0  0  0  0  0  0  0  0  0  0  0
    0.3853   -5.4887    1.5763 H   0  0  0  0  0  0  0  0  0  0  0  0
  1  2  1  0
  2  3  2  3
  3  4  1  0
  4  5  1  0
  5  6  1  0
  6  7  1  0
  7  8  1  0
  2  9  1  0
  9 10  2  0
 10 11  1  0
 11 12  1  0
 12 13  2  0
 13 14  1  0
 14 15  2  0
 15 16  1  0
 16 17  2  0
 17 18  1  0
 18 19  1  0
 10 20  1  0
 20 21  1  0
 21 22  2  0
 22 23  1  0
 23 24  1  0
 23 25  1  0
 25  1  1  0
 17 12  1  0
 25 20  2  0
  1 26  1  0
  4 27  1  0
  4 28  1  0
  5 29  1  0
  5 30  1  0
  6 31  1  0
  6 32  1  0
  7 33  1  0
  7 34  1  0
  8 35  1  0
  8 36  1  0
  8 37  1  0
 11 38  1  0
 13 39  1  0
 14 40  1  0
 15 41  1  0
 16 42  1  0
 19 43  1  0
 19 44  1  0
 19 45  1  0
 21 46  1  0
 24 47  1  0
 24 48  1  0
 24 49  1  0
M  END
>  <ScrubInfo>  (4) 
{"isomerGroup": 0, "isomerId": 3, "confId": 0, "nr_conformers:": 1, "nr_isomers:": 9}

$$$$
_i4
     RDKit          3D

 49 51  0  0  0  0  0  0  0  0999 V2000
   -0.7631   -3.2778   -3.6914 N   0  0  0  0  0  0  0  0  0  0  0  0
   -1.6388   -2.2083   -3.5284 C   0  0  0  0  0  0  0  0  0  0  0  0
   -1.3422   -1.4512   -2.4646 C   0  0  0  0  0  0  0  0  0  0  0  0
   -1.8507   -0.2538   -1.8377 C   0  0  0  0  0  0  0  0  0  0  0  0
   -2.9009    0.3617   -2.2824 N   0  0  0  0  0  0  0  0  0  0  0  0
   -3.3548    1.4971   -1.5870 C   0  0  0  0  0  0  0  0  0  0  0  0
   -3.0714    2.7663   -2.1028 C   0  0  0  0  0  0  0  0  0  0  0  0
   -3.5308    3.9175   -1.4583 C   0  0  0  0  0  0  0  0  0  0  0  0
   -4.2959    3.8089   -0.2977 C   0  0  0  0  0  0  0  0  0  0  0  0
   -4.6002    2.5503    0.2221 C   0  0  0  0  0  0  0  0  0  0  0  0
   -4.1215    1.3993   -0.4123 C   0  0  0  0  0  0  0  0  0  0  0  0
   -4.4494    0.1514    0.0620 O   0  0  0  0  0  0  0  0  0  0  0  0
   -3.9387   -0.0593    1.3766 C   0  0  0  0  0  0  0  0  0  0  0  0
   -1.1176    0.1733   -0.7609 N   0  0  0  0  0  0  0  0  0  0  0  0
   -0.0829   -0.4808   -0.3165 C   0  0  0  0  0  0  0  0  0  0  0  0
    0.5437    0.0673    0.7655 N   0  0  0  0  0  0  0  0  0  0  0  0
    1.9241   -0.2162    1.0949 C   0  0  0  0  0  0  0  0  0  0  0  0
    2.2905    0.4805    2.4056 C   0  0  0  0  0  0  0  0  0  0  0  0
    3.6938    0.1326    2.9088 C   0  0  0  0  0  0  0  0  0  0  0  0
    4.8091    0.6324    1.9898 C   0  0  0  0  0  0  0  0  0  0  0  0
    6.1820    0.3617    2.5866 C   0  0  0  0  0  0  0  0  0  0  0  0
    0.4144   -1.6465   -0.8423 N   0  0  0  0  0  0  0  0  0  0  0  0
   -0.1919   -2.1376   -1.8664 C   0  0  0  0  0  0  0  0  0  0  0  0
    0.0811   -3.3050   -2.5823 N   0  0  0  0  0  0  0  0  0  0  0  0
    1.4405   -3.7814   -2.7433 C   0  0  0  0  0  0  0  0  0  0  0  0
   -1.2426   -4.1544   -3.9100 H   0  0  0  0  0  0  0  0  0  0  0  0
   -2.4557   -2.0701   -4.2229 H   0  0  0  0  0  0  0  0  0  0  0  0
   -2.4889    2.8516   -3.0156 H   0  0  0  0  0  0  0  0  0  0  0  0
   -3.3009    4.8962   -1.8708 H   0  0  0  0  0  0  0  0  0  0  0  0
   -4.6678    4.7039    0.1940 H   0  0  0  0  0  0  0  0  0  0  0  0
   -5.2251    2.4716    1.1059 H   0  0  0  0  0  0  0  0  0  0  0  0
   -2.9223    0.3326    1.4965 H   0  0  0  0  0  0  0  0  0  0  0  0
   -3.9063   -1.1386    1.5535 H   0  0  0  0  0  0  0  0  0  0  0  0
   -4.6071    0.3836    2.1217 H   0  0  0  0  0  0  0  0  0  0  0  0
    0.2349    1.0200    0.9199 H   0  0  0  0  0  0  0  0  0  0  0  0
    2.0716   -1.2968    1.2037 H   0  0  0  0  0  0  0  0  0  0  0  0
    2.5674    0.1361    0.2817 H   0  0  0  0  0  0  0  0  0  0  0  0
    1.5664    0.1938    3.1793 H   0  0  0  0  0  0  0  0  0  0  0  0
    2.1991    1.5676    2.2873 H   0  0  0  0  0  0  0  0  0  0  0  0
    3.7792   -0.9531    3.0388 H   0  0  0  0  0  0  0  0  0  0  0  0
    3.8211    0.5798    3.9026 H   0  0  0  0  0  0  0  0  0  0  0  0
    4.7486    0.1389    1.0140 H   0  0  0  0  0  0  0  0  0  0  0  0
    4.6975    1.7093    1.8193 H   0  0  0  0  0  0  0  0  0  0  0  0
    6.3365   -0.7105    2.7439 H   0  0  0  0  0  0  0  0  0  0  0  0
    6.2996    0.8712    3.5483 H   0  0  0  0  0  0  0  0  0  0  0  0
    6.9656    0.7229    1.9133 H   0  0  0  0  0  0  0  0  0  0  0  0
    2.0325   -3.0764   -3.3363 H   0  0  0  0  0  0  0  0  0  0  0  0
    1.9219   -3.9097   -1.7685 H   0  0  0  0  0  0  0  0  0  0  0  0
    1.4465   -4.7523   -3.2491 H   0  0  0  0  0  0  0  0  0  0  0  0
  1  2  1  0
  2  3  2  0
  3  4  1  0
  4  5  2  3
  5  6  1  0
  6  7  2  0
  7  8  1  0
  8  9  2  0
  9 10  1  0
 10 11  2  0
 11 12  1  0
 12 13  1  0
  4 14  1  0
 14 15  2  0
 15 16  1  0
 16 17  1  0
 17 18  1  0
 18 19  1  0
 19 20  1  0
 20 21  1  0
 15 22  1  0
 22 23  2  0
 23 24  1  0
 24 25  1  0
 24  1  1  0
 23  3  1  0
 11  6  1  0
  1 26  1  0
  2 27  1  0
  7 28  1  0
  8 29  1  0
  9 30  1  0
 10 31  1  0
 13 32  1  0
 13 33  1  0
 13 34  1  0
 16 35  1  0
 17 36  1  0
 17 37  1  0
 18 38  1  0
 18 39  1  0
 19 40  1  0
 19 41  1  0
 20 42  1  0
 20 43  1  0
 21 44  1  0
 21 45  1  0
 21 46  1  0
 25 47  1  0
 25 48  1  0
 25 49  1  0
M  END
>  <ScrubInfo>  (5) 
{"isomerGroup": 0, "isomerId": 4, "confId": 0, "nr_conformers:": 1, "nr_isomers:": 9}

$$$$
_i5
     RDKit          3D

 49 51  0  0  0  0  0  0  0  0999 V2000
    0.6756    0.9697    0.4359 N   0  0  0  0  0  0  0  0  0  0  0  0
    0.7989   -0.3594    0.1178 C   0  0  0  0  0  0  0  0  0  0  0  0
    2.0728   -0.7735   -0.1510 N   0  0  0  0  0  0  0  0  0  0  0  0
    2.8686   -0.1324   -1.1909 C   0  0  0  0  0  0  0  0  0  0  0  0
    4.2538   -0.7762   -1.2776 C   0  0  0  0  0  0  0  0  0  0  0  0
    5.1108   -0.4883   -0.0400 C   0  0  0  0  0  0  0  0  0  0  0  0
    6.4783   -1.1750   -0.0782 C   0  0  0  0  0  0  0  0  0  0  0  0
    7.3891   -0.6568   -1.1804 C   0  0  0  0  0  0  0  0  0  0  0  0
   -0.1722   -1.2254    0.0822 N   0  0  0  0  0  0  0  0  0  0  0  0
   -1.4756   -0.8135    0.3448 C   0  0  0  0  0  0  0  0  0  0  0  0
   -2.3936   -1.7136    0.1926 N   0  0  0  0  0  0  0  0  0  0  0  0
   -3.7551   -1.4351    0.3696 C   0  0  0  0  0  0  0  0  0  0  0  0
   -4.3777   -1.8966    1.5357 C   0  0  0  0  0  0  0  0  0  0  0  0
   -5.7379   -1.6804    1.7495 C   0  0  0  0  0  0  0  0  0  0  0  0
   -6.4905   -1.0116    0.7880 C   0  0  0  0  0  0  0  0  0  0  0  0
   -5.8886   -0.5634   -0.3917 C   0  0  0  0  0  0  0  0  0  0  0  0
   -4.5234   -0.7770   -0.6154 C   0  0  0  0  0  0  0  0  0  0  0  0
   -3.8423   -0.3653   -1.7341 O   0  0  0  0  0  0  0  0  0  0  0  0
   -4.5984    0.2258   -2.7803 C   0  0  0  0  0  0  0  0  0  0  0  0
   -1.6426    0.5656    0.7774 C   0  0  0  0  0  0  0  0  0  0  0  0
   -2.6768    1.3890    1.2586 C   0  0  0  0  0  0  0  0  0  0  0  0
   -2.2629    2.6337    1.5497 N   0  0  0  0  0  0  0  0  0  0  0  0
   -0.9438    2.6081    1.2536 N   0  0  0  0  0  0  0  0  0  0  0  0
   -0.1584    3.7997    1.4480 C   0  0  0  0  0  0  0  0  0  0  0  0
   -0.5474    1.3922    0.7981 C   0  0  0  0  0  0  0  0  0  0  0  0
    1.5298    1.4641    0.6533 H   0  0  0  0  0  0  0  0  0  0  0  0
    2.0298   -1.7802   -0.3102 H   0  0  0  0  0  0  0  0  0  0  0  0
    2.9736    0.9410   -0.9980 H   0  0  0  0  0  0  0  0  0  0  0  0
    2.3581   -0.2488   -2.1541 H   0  0  0  0  0  0  0  0  0  0  0  0
    4.1547   -1.8599   -1.4146 H   0  0  0  0  0  0  0  0  0  0  0  0
    4.7540   -0.3821   -2.1693 H   0  0  0  0  0  0  0  0  0  0  0  0
    5.2466    0.5943    0.0715 H   0  0  0  0  0  0  0  0  0  0  0  0
    4.5849   -0.8343    0.8579 H   0  0  0  0  0  0  0  0  0  0  0  0
    6.3493   -2.2578   -0.1899 H   0  0  0  0  0  0  0  0  0  0  0  0
    6.9741   -1.0131    0.8865 H   0  0  0  0  0  0  0  0  0  0  0  0
    8.3808   -1.1122   -1.0926 H   0  0  0  0  0  0  0  0  0  0  0  0
    6.9995   -0.9032   -2.1724 H   0  0  0  0  0  0  0  0  0  0  0  0
    7.5082    0.4292   -1.1141 H   0  0  0  0  0  0  0  0  0  0  0  0
   -3.7900   -2.4329    2.2764 H   0  0  0  0  0  0  0  0  0  0  0  0
   -6.2081   -2.0403    2.6607 H   0  0  0  0  0  0  0  0  0  0  0  0
   -7.5522   -0.8434    0.9519 H   0  0  0  0  0  0  0  0  0  0  0  0
   -6.5129   -0.0505   -1.1153 H   0  0  0  0  0  0  0  0  0  0  0  0
   -3.9133    0.4460   -3.6046 H   0  0  0  0  0  0  0  0  0  0  0  0
   -5.3614   -0.4632   -3.1575 H   0  0  0  0  0  0  0  0  0  0  0  0
   -5.0436    1.1725   -2.4573 H   0  0  0  0  0  0  0  0  0  0  0  0
   -3.7178    1.1510    1.4273 H   0  0  0  0  0  0  0  0  0  0  0  0
    0.8218    3.6789    0.9818 H   0  0  0  0  0  0  0  0  0  0  0  0
   -0.0455    3.9631    2.5225 H   0  0  0  0  0  0  0  0  0  0  0  0
   -0.6809    4.6414    0.9862 H   0  0  0  0  0  0  0  0  0  0  0  0
  1  2  1  0
  2  3  1  0
  3  4  1  0
  4  5  1  0
  5  6  1  0
  6  7  1  0
  7  8  1  0
  2  9  2  0
  9 10  1  0
 10 11  2  3
 11 12  1  0
 12 13  2  0
 13 14  1  0
 14 15  2  0
 15 16  1  0
 16 17  2  0
 17 18  1  0
 18 19  1  0
 10 20  1  0
 20 21  1  0
 21 22  2  0
 22 23  1  0
 23 24  1  0
 23 25  1  0
 25  1  1  0
 17 12  1  0
 25 20  2  0
  1 26  1  0
  3 27  1  0
  4 28  1  0
  4 29  1  0
  5 30  1  0
  5 31  1  0
  6 32  1  0
  6 33  1  0
  7 34  1  0
  7 35  1  0
  8 36  1  0
  8 37  1  0
  8 38  1  0
 13 39  1  0
 14 40  1  0
 15 41  1  0
 16 42  1  0
 19 43  1  0
 19 44  1  0
 19 45  1  0
 21 46  1  0
 24 47  1  0
 24 48  1  0
 24 49  1  0
M  END
>  <ScrubInfo>  (6) 
{"isomerGroup": 0, "isomerId": 5, "confId": 0, "nr_conformers:": 1, "nr_isomers:": 9}

$$$$
_i6
     RDKit          3D

 49 51  0  0  0  0  0  0  0  0999 V2000
   -1.6328    0.4998   -3.2949 N   0  0  0  0  0  0  0  0  0  0  0  0
   -2.1128   -0.4163   -2.3640 C   0  0  0  0  0  0  0  0  0  0  0  0
   -1.2564   -0.6409   -1.3586 C   0  0  0  0  0  0  0  0  0  0  0  0
   -1.1774   -1.4289   -0.1297 C   0  0  0  0  0  0  0  0  0  0  0  0
   -2.1623   -2.2958    0.3008 N   0  0  0  0  0  0  0  0  0  0  0  0
   -3.5479   -1.9814    0.2748 C   0  0  0  0  0  0  0  0  0  0  0  0
   -4.4346   -3.0286   -0.0215 C   0  0  0  0  0  0  0  0  0  0  0  0
   -5.8131   -2.8238   -0.0084 C   0  0  0  0  0  0  0  0  0  0  0  0
   -6.3221   -1.5746    0.3308 C   0  0  0  0  0  0  0  0  0  0  0  0
   -5.4565   -0.5328    0.6738 C   0  0  0  0  0  0  0  0  0  0  0  0
   -4.0704   -0.7289    0.6675 C   0  0  0  0  0  0  0  0  0  0  0  0
   -3.1557    0.2222    1.0386 O   0  0  0  0  0  0  0  0  0  0  0  0
   -3.6429    1.4948    1.4401 C   0  0  0  0  0  0  0  0  0  0  0  0
   -0.0935   -1.3380    0.5926 N   0  0  0  0  0  0  0  0  0  0  0  0
    0.9036   -0.4729    0.1987 C   0  0  0  0  0  0  0  0  0  0  0  0
    1.8749   -0.3904    1.0392 N   0  0  0  0  0  0  0  0  0  0  0  0
    2.9851    0.4993    0.7060 C   0  0  0  0  0  0  0  0  0  0  0  0
    4.0010    0.4342    1.8470 C   0  0  0  0  0  0  0  0  0  0  0  0
    5.1604    1.4219    1.6904 C   0  0  0  0  0  0  0  0  0  0  0  0
    6.0132    1.2498    0.4312 C   0  0  0  0  0  0  0  0  0  0  0  0
    6.6745   -0.1155    0.3269 C   0  0  0  0  0  0  0  0  0  0  0  0
    0.9474    0.2664   -0.9631 N   0  0  0  0  0  0  0  0  0  0  0  0
   -0.0848    0.1799   -1.7284 C   0  0  0  0  0  0  0  0  0  0  0  0
   -0.3129    0.7902   -2.9632 N   0  0  0  0  0  0  0  0  0  0  0  0
    0.2142    2.1101   -3.2501 C   0  0  0  0  0  0  0  0  0  0  0  0
   -1.7981    0.2137   -4.2625 H   0  0  0  0  0  0  0  0  0  0  0  0
   -3.0874   -0.8581   -2.5134 H   0  0  0  0  0  0  0  0  0  0  0  0
   -1.9170   -2.6262    1.2327 H   0  0  0  0  0  0  0  0  0  0  0  0
   -4.0439   -4.0105   -0.2800 H   0  0  0  0  0  0  0  0  0  0  0  0
   -6.4870   -3.6399   -0.2566 H   0  0  0  0  0  0  0  0  0  0  0  0
   -7.3974   -1.4126    0.3449 H   0  0  0  0  0  0  0  0  0  0  0  0
   -5.8982    0.4175    0.9550 H   0  0  0  0  0  0  0  0  0  0  0  0
   -2.7798    2.1177    1.6941 H   0  0  0  0  0  0  0  0  0  0  0  0
   -4.2695    1.4137    2.3342 H   0  0  0  0  0  0  0  0  0  0  0  0
   -4.1791    1.9876    0.6225 H   0  0  0  0  0  0  0  0  0  0  0  0
    2.6332    1.5321    0.5954 H   0  0  0  0  0  0  0  0  0  0  0  0
    3.4598    0.1795   -0.2285 H   0  0  0  0  0  0  0  0  0  0  0  0
    3.4901    0.6543    2.7936 H   0  0  0  0  0  0  0  0  0  0  0  0
    4.3836   -0.5887    1.9459 H   0  0  0  0  0  0  0  0  0  0  0  0
    4.7604    2.4434    1.7012 H   0  0  0  0  0  0  0  0  0  0  0  0
    5.8085    1.3366    2.5716 H   0  0  0  0  0  0  0  0  0  0  0  0
    6.7975    2.0165    0.4400 H   0  0  0  0  0  0  0  0  0  0  0  0
    5.4120    1.4352   -0.4656 H   0  0  0  0  0  0  0  0  0  0  0  0
    7.3471   -0.1419   -0.5364 H   0  0  0  0  0  0  0  0  0  0  0  0
    7.2641   -0.3361    1.2223 H   0  0  0  0  0  0  0  0  0  0  0  0
    5.9347   -0.9103    0.1941 H   0  0  0  0  0  0  0  0  0  0  0  0
    1.2986    2.1328   -3.1018 H   0  0  0  0  0  0  0  0  0  0  0  0
    0.0138    2.3820   -4.2915 H   0  0  0  0  0  0  0  0  0  0  0  0
   -0.2444    2.8621   -2.5996 H   0  0  0  0  0  0  0  0  0  0  0  0
  1  2  1  0
  2  3  2  0
  3  4  1  0
  4  5  1  0
  5  6  1  0
  6  7  2  0
  7  8  1  0
  8  9  2  0
  9 10  1  0
 10 11  2  0
 11 12  1  0
 12 13  1  0
  4 14  2  0
 14 15  1  0
 15 16  2  3
 16 17  1  0
 17 18  1  0
 18 19  1  0
 19 20  1  0
 20 21  1  0
 15 22  1  0
 22 23  2  0
 23 24  1  0
 24 25  1  0
 24  1  1  0
 23  3  1  0
 11  6  1  0
  1 26  1  0
  2 27  1  0
  5 28  1  0
  7 29  1  0
  8 30  1  0
  9 31  1  0
 10 32  1  0
 13 33  1  0
 13 34  1  0
 13 35  1  0
 17 36  1  0
 17 37  1  0
 18 38  1  0
 18 39  1  0
 19 40  1  0
 19 41  1  0
 20 42  1  0
 20 43  1  0
 21 44  1  0
 21 45  1  0
 21 46  1  0
 25 47  1  0
 25 48  1  0
 25 49  1  0
M  END
>  <ScrubInfo>  (7) 
{"isomerGroup": 0, "isomerId": 6, "confId": 0, "nr_conformers:": 1, "nr_isomers:": 9}

$$$$
_i7
     RDKit          3D

 49 51  0  0  0  0  0  0  0  0999 V2000
   -2.0138   -2.2990   -3.4448 N   0  0  0  0  0  0  0  0  0  0  0  0
   -2.7255   -1.4134   -2.6431 C   0  0  0  0  0  0  0  0  0  0  0  0
   -1.9750   -0.8632   -1.6815 C   0  0  0  0  0  0  0  0  0  0  0  0
   -2.1326    0.1211   -0.6079 C   0  0  0  0  0  0  0  0  0  0  0  0
   -3.3002    0.6576   -0.4077 N   0  0  0  0  0  0  0  0  0  0  0  0
   -3.4325    1.6099    0.6184 C   0  0  0  0  0  0  0  0  0  0  0  0
   -3.4967    2.9612    0.2592 C   0  0  0  0  0  0  0  0  0  0  0  0
   -3.5761    3.9585    1.2337 C   0  0  0  0  0  0  0  0  0  0  0  0
   -3.5913    3.6128    2.5832 C   0  0  0  0  0  0  0  0  0  0  0  0
   -3.5449    2.2703    2.9571 C   0  0  0  0  0  0  0  0  0  0  0  0
   -3.4953    1.2703    1.9821 C   0  0  0  0  0  0  0  0  0  0  0  0
   -3.4331   -0.0159    2.4560 O   0  0  0  0  0  0  0  0  0  0  0  0
   -4.4519   -0.8523    1.9079 C   0  0  0  0  0  0  0  0  0  0  0  0
   -0.9556    0.3471    0.0596 N   0  0  0  0  0  0  0  0  0  0  0  0
    0.2523   -0.2506   -0.1841 C   0  0  0  0  0  0  0  0  0  0  0  0
    1.2638    0.0997    0.5423 N   0  0  0  0  0  0  0  0  0  0  0  0
    2.5430   -0.5576    0.2655 C   0  0  0  0  0  0  0  0  0  0  0  0
    3.5820    0.0059    1.2353 C   0  0  0  0  0  0  0  0  0  0  0  0
    4.9432   -0.6891    1.1443 C   0  0  0  0  0  0  0  0  0  0  0  0
    5.6361   -0.6153   -0.2184 C   0  0  0  0  0  0  0  0  0  0  0  0
    5.9149    0.8057   -0.6824 C   0  0  0  0  0  0  0  0  0  0  0  0
    0.4076   -1.2058   -1.1706 N   0  0  0  0  0  0  0  0  0  0  0  0
   -0.6406   -1.5133   -1.8688 C   0  0  0  0  0  0  0  0  0  0  0  0
   -0.7424   -2.4560   -2.8960 N   0  0  0  0  0  0  0  0  0  0  0  0
    0.3781   -2.7212   -3.7778 C   0  0  0  0  0  0  0  0  0  0  0  0
   -2.5250   -3.1610   -3.6475 H   0  0  0  0  0  0  0  0  0  0  0  0
   -3.7738   -1.2367   -2.8381 H   0  0  0  0  0  0  0  0  0  0  0  0
   -3.4724    3.2363   -0.7923 H   0  0  0  0  0  0  0  0  0  0  0  0
   -3.6184    5.0037    0.9379 H   0  0  0  0  0  0  0  0  0  0  0  0
   -3.6422    4.3873    3.3443 H   0  0  0  0  0  0  0  0  0  0  0  0
   -3.5583    1.9987    4.0095 H   0  0  0  0  0  0  0  0  0  0  0  0
   -5.3620   -0.3006    1.6445 H   0  0  0  0  0  0  0  0  0  0  0  0
   -4.7201   -1.5891    2.6715 H   0  0  0  0  0  0  0  0  0  0  0  0
   -4.0684   -1.4005    1.0431 H   0  0  0  0  0  0  0  0  0  0  0  0
   -0.9495    0.9926    0.8352 H   0  0  0  0  0  0  0  0  0  0  0  0
    2.4597   -1.6409    0.4144 H   0  0  0  0  0  0  0  0  0  0  0  0
    2.8547   -0.3587   -0.7660 H   0  0  0  0  0  0  0  0  0  0  0  0
    3.2096   -0.1047    2.2622 H   0  0  0  0  0  0  0  0  0  0  0  0
    3.6942    1.0847    1.0739 H   0  0  0  0  0  0  0  0  0  0  0  0
    4.8212   -1.7454    1.4144 H   0  0  0  0  0  0  0  0  0  0  0  0
    5.6055   -0.2528    1.9026 H   0  0  0  0  0  0  0  0  0  0  0  0
    6.5901   -1.1519   -0.1483 H   0  0  0  0  0  0  0  0  0  0  0  0
    5.0439   -1.1388   -0.9769 H   0  0  0  0  0  0  0  0  0  0  0  0
    6.4867    1.3594    0.0689 H   0  0  0  0  0  0  0  0  0  0  0  0
    4.9881    1.3507   -0.8842 H   0  0  0  0  0  0  0  0  0  0  0  0
    6.4982    0.7906   -1.6086 H   0  0  0  0  0  0  0  0  0  0  0  0
    0.6173   -1.8379   -4.3792 H   0  0  0  0  0  0  0  0  0  0  0  0
    1.2647   -3.0033   -3.2009 H   0  0  0  0  0  0  0  0  0  0  0  0
    0.1427   -3.5493   -4.4541 H   0  0  0  0  0  0  0  0  0  0  0  0
  1  2  1  0
  2  3  2  0
  3  4  1  0
  4  5  2  3
  5  6  1  0
  6  7  2  0
  7  8  1  0
  8  9  2  0
  9 10  1  0
 10 11  2  0
 11 12  1  0
 12 13  1  0
  4 14  1  0
 14 15  1  0
 15 16  2  3
 16 17  1  0
 17 18  1  0
 18 19  1  0
 19 20  1  0
 20 21  1  0
 15 22  1  0
 22 23  2  0
 23 24  1  0
 24 25  1  0
 24  1  1  0
 23  3  1  0
 11  6  1  0
  1 26  1  0
  2 27  1  0
  7 28  1  0
  8 29  1  0
  9 30  1  0
 10 31  1  0
 13 32  1  0
 13 33  1  0
 13 34  1  0
 14 35  1  0
 17 36  1  0
 17 37  1  0
 18 38  1  0
 18 39  1  0
 19 40  1  0
 19 41  1  0
 20 42  1  0
 20 43  1  0
 21 44  1  0
 21 45  1  0
 21 46  1  0
 25 47  1  0
 25 48  1  0
 25 49  1  0
M  END
>  <ScrubInfo>  (8) 
{"isomerGroup": 0, "isomerId": 7, "confId": 0, "nr_conformers:": 1, "nr_isomers:": 9}

$$$$
_i8
     RDKit          3D

 49 51  0  0  0  0  0  0  0  0999 V2000
    1.0401   -1.4215    0.2367 N   0  0  0  0  0  0  0  0  0  0  0  0
    1.1838   -0.4160    1.1781 C   0  0  0  0  0  0  0  0  0  0  0  0
    2.2728    0.0416    1.6944 N   0  0  0  0  0  0  0  0  0  0  0  0
    3.5647   -0.5209    1.3160 C   0  0  0  0  0  0  0  0  0  0  0  0
    4.1044    0.1466    0.0504 C   0  0  0  0  0  0  0  0  0  0  0  0
    4.4138    1.6328    0.2588 C   0  0  0  0  0  0  0  0  0  0  0  0
    4.8947    2.3346   -1.0137 C   0  0  0  0  0  0  0  0  0  0  0  0
    6.2391    1.8310   -1.5157 C   0  0  0  0  0  0  0  0  0  0  0  0
   -0.0154    0.1341    1.5730 N   0  0  0  0  0  0  0  0  0  0  0  0
   -1.3159   -0.1183    1.1918 C   0  0  0  0  0  0  0  0  0  0  0  0
   -2.3038    0.5533    1.7015 N   0  0  0  0  0  0  0  0  0  0  0  0
   -3.6301    0.3581    1.2910 C   0  0  0  0  0  0  0  0  0  0  0  0
   -4.4726   -0.4098    2.1035 C   0  0  0  0  0  0  0  0  0  0  0  0
   -5.8089   -0.6037    1.7578 C   0  0  0  0  0  0  0  0  0  0  0  0
   -6.3162   -0.0163    0.6019 C   0  0  0  0  0  0  0  0  0  0  0  0
   -5.4926    0.7708   -0.2088 C   0  0  0  0  0  0  0  0  0  0  0  0
   -4.1494    0.9705    0.1296 C   0  0  0  0  0  0  0  0  0  0  0  0
   -3.2609    1.7180   -0.6032 O   0  0  0  0  0  0  0  0  0  0  0  0
   -3.7515    2.3577   -1.7721 C   0  0  0  0  0  0  0  0  0  0  0  0
   -1.3649   -1.1910    0.2115 C   0  0  0  0  0  0  0  0  0  0  0  0
   -2.3513   -1.8929   -0.5059 C   0  0  0  0  0  0  0  0  0  0  0  0
   -1.8398   -2.8314   -1.3176 N   0  0  0  0  0  0  0  0  0  0  0  0
   -0.5082   -2.7406   -1.1125 N   0  0  0  0  0  0  0  0  0  0  0  0
    0.3780   -3.6159   -1.8374 C   0  0  0  0  0  0  0  0  0  0  0  0
   -0.1883   -1.7764   -0.2065 C   0  0  0  0  0  0  0  0  0  0  0  0
    1.8857   -1.8494   -0.1121 H   0  0  0  0  0  0  0  0  0  0  0  0
    3.5122   -1.6076    1.1828 H   0  0  0  0  0  0  0  0  0  0  0  0
    4.2647   -0.3596    2.1442 H   0  0  0  0  0  0  0  0  0  0  0  0
    5.0183   -0.3806   -0.2451 H   0  0  0  0  0  0  0  0  0  0  0  0
    3.3874    0.0335   -0.7711 H   0  0  0  0  0  0  0  0  0  0  0  0
    3.5112    2.1490    0.6072 H   0  0  0  0  0  0  0  0  0  0  0  0
    5.1671    1.7464    1.0479 H   0  0  0  0  0  0  0  0  0  0  0  0
    4.9816    3.4077   -0.8056 H   0  0  0  0  0  0  0  0  0  0  0  0
    4.1450    2.2256   -1.8060 H   0  0  0  0  0  0  0  0  0  0  0  0
    7.0007    1.8955   -0.7322 H   0  0  0  0  0  0  0  0  0  0  0  0
    6.5736    2.4370   -2.3639 H   0  0  0  0  0  0  0  0  0  0  0  0
    6.1778    0.7931   -1.8555 H   0  0  0  0  0  0  0  0  0  0  0  0
    0.0767    0.8822    2.2446 H   0  0  0  0  0  0  0  0  0  0  0  0
   -4.0780   -0.8551    3.0128 H   0  0  0  0  0  0  0  0  0  0  0  0
   -6.4526   -1.2060    2.3935 H   0  0  0  0  0  0  0  0  0  0  0  0
   -7.3592   -0.1645    0.3320 H   0  0  0  0  0  0  0  0  0  0  0  0
   -5.9308    1.2143   -1.0964 H   0  0  0  0  0  0  0  0  0  0  0  0
   -2.9235    2.9147   -2.2209 H   0  0  0  0  0  0  0  0  0  0  0  0
   -4.5416    3.0757   -1.5287 H   0  0  0  0  0  0  0  0  0  0  0  0
   -4.0953    1.6239   -2.5085 H   0  0  0  0  0  0  0  0  0  0  0  0
   -3.4257   -1.7765   -0.4852 H   0  0  0  0  0  0  0  0  0  0  0  0
    0.6641   -3.1162   -2.7659 H   0  0  0  0  0  0  0  0  0  0  0  0
   -0.1413   -4.5530   -2.0545 H   0  0  0  0  0  0  0  0  0  0  0  0
    1.2603   -3.8245   -1.2280 H   0  0  0  0  0  0  0  0  0  0  0  0
  1  2  1  0
  2  3  2  3
  3  4  1  0
  4  5  1  0
  5  6  1  0
  6  7  1  0
  7  8  1  0
  2  9  1  0
  9 10  1  0
 10 11  2  3
 11 12  1  0
 12 13  2  0
 13 14  1  0
 14 15  2  0
 15 16  1  0
 16 17  2  0
 17 18  1  0
 18 19  1  0
 10 20  1  0
 20 21  1  0
 21 22  2  0
 22 23  1  0
 23 24  1  0
 23 25  1  0
 25  1  1  0
 17 12  1  0
 25 20  2  0
  1 26  1  0
  4 27  1  0
  4 28  1  0
  5 29  1  0
  5 30  1  0
  6 31  1  0
  6 32  1  0
  7 33  1  0
  7 34  1  0
  8 35  1  0
  8 36  1  0
  8 37  1  0
  9 38  1  0
 13 39  1  0
 14 40  1  0
 15 41  1  0
 16 42  1  0
 19 43  1  0
 19 44  1  0
 19 45  1  0
 21 46  1  0
 24 47  1  0
 24 48  1  0
 24 49  1  0
M  END
>  <ScrubInfo>  (9) 
{"isomerGroup": 0, "isomerId": 8, "confId": 0, "nr_conformers:": 1, "nr_isomers:": 9}

$$$$
