REMARK SMILES COCCNc1nc(Nc2ccccc2Br)c2cnn(C)c2n1
REMARK SMILES IDX 5 1 4 3 3 4 2 5 1 6 6 7 7 8 23 9 8 10 22 11 17 12 20 13
REMARK SMILES IDX 18 14 19 15 21 16 9 17 10 19 11 20 15 21 12 22 14 23 13 24
REMARK SMILES IDX 16 25
REMARK H PARENT 5 2 9 18
ROOT
ATOM      1  N   UNL     1      -2.307   0.180   0.565  1.00  0.00    -0.352 N 
ATOM      2  H   UNL     1      -3.119  -0.243   0.124  1.00  0.00     0.163 HD
ENDROOT
BRANCH   1   3
ATOM      3  C   UNL     1      -2.082   1.563   0.166  1.00  0.00     0.144 C 
BRANCH   3   4
ATOM      4  C   UNL     1      -3.421   2.316   0.149  1.00  0.00     0.181 C 
BRANCH   4   5
ATOM      5  O   UNL     1      -4.371   1.719  -0.745  1.00  0.00    -0.383 OA
ATOM      6  C   UNL     1      -4.127   2.026  -2.111  1.00  0.00     0.194 C 
ENDBRANCH   4   5
ENDBRANCH   3   4
ENDBRANCH   1   3
BRANCH   1   7
ATOM      7  C   UNL     1      -1.232  -0.667   0.330  1.00  0.00     0.226 A 
ATOM      8  N   UNL     1       0.022  -0.197   0.477  1.00  0.00    -0.195 NA
ATOM      9  N   UNL     1      -1.560  -1.909  -0.042  1.00  0.00    -0.193 NA
ATOM     10  C   UNL     1       1.099  -0.996   0.258  1.00  0.00     0.147 A 
ATOM     11  C   UNL     1      -0.489  -2.686  -0.257  1.00  0.00     0.165 A 
ATOM     12  C   UNL     1       0.835  -2.314  -0.135  1.00  0.00     0.082 A 
ATOM     13  N   UNL     1      -0.479  -3.999  -0.639  1.00  0.00    -0.250 N 
ATOM     14  C   UNL     1       1.557  -3.478  -0.473  1.00  0.00     0.149 A 
ATOM     15  N   UNL     1       0.766  -4.510  -0.787  1.00  0.00    -0.179 NA
ATOM     16  C   UNL     1      -1.625  -4.839  -0.886  1.00  0.00     0.176 C 
BRANCH  10  17
ATOM     17  N   UNL     1       2.411  -0.524   0.389  1.00  0.00    -0.339 N 
ATOM     18  H   UNL     1       3.122  -1.185   0.097  1.00  0.00     0.168 HD
BRANCH  17  19
ATOM     19  C   UNL     1       2.954   0.698   0.835  1.00  0.00     0.054 A 
ATOM     20  C   UNL     1       2.184   1.700   1.438  1.00  0.00     0.027 A 
ATOM     21  C   UNL     1       4.330   0.960   0.660  1.00  0.00     0.041 A 
ATOM     22  C   UNL     1       2.756   2.909   1.852  1.00  0.00     0.002 A 
ATOM     23  C   UNL     1       4.906   2.167   1.071  1.00  0.00     0.018 A 
ATOM     24  C   UNL     1       4.115   3.143   1.668  1.00  0.00     0.001 A 
ATOM     25  Br  UNL     1       5.473  -0.331  -0.150  1.00  0.00    -0.049 Br
ENDBRANCH  17  19
ENDBRANCH  10  17
ENDBRANCH   1   7
TORSDOF 6
