_i0
     RDKit          3D

 40 42  0  0  0  0  0  0  0  0999 V2000
   -4.1267    2.0259   -2.1112 C   0  0  0  0  0  0  0  0  0  0  0  0
   -4.3708    1.7188   -0.7452 O   0  0  0  0  0  0  0  0  0  0  0  0
   -3.4211    2.3158    0.1490 C   0  0  0  0  0  0  0  0  0  0  0  0
   -2.0823    1.5634    0.1657 C   0  0  0  0  0  0  0  0  0  0  0  0
   -2.3065    0.1804    0.5652 N   0  0  0  0  0  0  0  0  0  0  0  0
   -1.2321   -0.6669    0.3300 C   0  0  0  0  0  0  0  0  0  0  0  0
    0.0218   -0.1973    0.4775 N   0  0  0  0  0  0  0  0  0  0  0  0
    1.0988   -0.9957    0.2582 C   0  0  0  0  0  0  0  0  0  0  0  0
    2.4112   -0.5243    0.3888 N   0  0  0  0  0  0  0  0  0  0  0  0
    2.9536    0.6976    0.8353 C   0  0  0  0  0  0  0  0  0  0  0  0
    2.1840    1.7004    1.4376 C   0  0  0  0  0  0  0  0  0  0  0  0
    2.7559    2.9094    1.8520 C   0  0  0  0  0  0  0  0  0  0  0  0
    4.1150    3.1433    1.6679 C   0  0  0  0  0  0  0  0  0  0  0  0
    4.9064    2.1669    1.0707 C   0  0  0  0  0  0  0  0  0  0  0  0
    4.3299    0.9599    0.6599 C   0  0  0  0  0  0  0  0  0  0  0  0
    5.4732   -0.3314   -0.1500 Br  0  0  0  0  0  0  0  0  0  0  0  0
    0.8353   -2.3137   -0.1354 C   0  0  0  0  0  0  0  0  0  0  0  0
    1.5572   -3.4780   -0.4730 C   0  0  0  0  0  0  0  0  0  0  0  0
    0.7658   -4.5097   -0.7873 N   0  0  0  0  0  0  0  0  0  0  0  0
   -0.4794   -3.9992   -0.6393 N   0  0  0  0  0  0  0  0  0  0  0  0
   -1.6246   -4.8388   -0.8859 C   0  0  0  0  0  0  0  0  0  0  0  0
   -0.4889   -2.6857   -0.2569 C   0  0  0  0  0  0  0  0  0  0  0  0
   -1.5600   -1.9094   -0.0418 N   0  0  0  0  0  0  0  0  0  0  0  0
   -4.9412    1.6034   -2.7060 H   0  0  0  0  0  0  0  0  0  0  0  0
   -4.1095    3.1087   -2.2673 H   0  0  0  0  0  0  0  0  0  0  0  0
   -3.1891    1.5790   -2.4514 H   0  0  0  0  0  0  0  0  0  0  0  0
   -3.2734    3.3710   -0.1078 H   0  0  0  0  0  0  0  0  0  0  0  0
   -3.8686    2.2816    1.1486 H   0  0  0  0  0  0  0  0  0  0  0  0
   -1.4074    2.0575    0.8741 H   0  0  0  0  0  0  0  0  0  0  0  0
   -1.6276    1.6063   -0.8309 H   0  0  0  0  0  0  0  0  0  0  0  0
   -3.1195   -0.2431    0.1243 H   0  0  0  0  0  0  0  0  0  0  0  0
    3.1215   -1.1845    0.0967 H   0  0  0  0  0  0  0  0  0  0  0  0
    1.1230    1.5556    1.6160 H   0  0  0  0  0  0  0  0  0  0  0  0
    2.1320    3.6649    2.3233 H   0  0  0  0  0  0  0  0  0  0  0  0
    4.5560    4.0826    1.9913 H   0  0  0  0  0  0  0  0  0  0  0  0
    5.9678    2.3523    0.9291 H   0  0  0  0  0  0  0  0  0  0  0  0
    2.6294   -3.6210   -0.5040 H   0  0  0  0  0  0  0  0  0  0  0  0
   -1.5886   -5.1715   -1.9264 H   0  0  0  0  0  0  0  0  0  0  0  0
   -1.5751   -5.6954   -0.2089 H   0  0  0  0  0  0  0  0  0  0  0  0
   -2.5455   -4.2793   -0.7075 H   0  0  0  0  0  0  0  0  0  0  0  0
  1  2  1  0
  2  3  1  0
  3  4  1  0
  4  5  1  0
  5  6  1  0
  6  7  2  0
  7  8  1  0
  8  9  1  0
  9 10  1  0
 10 11  2  0
 11 12  1  0
 12 13  2  0
 13 14  1  0
 14 15  2  0
 15 16  1  0
  8 17  2  0
 17 18  1  0
 18 19  2  0
 19 20  1  0
 20 21  1  0
 20 22  1  0
 22 23  2  0
 23  6  1  0
 15 10  1  0
 22 17  1  0
  1 24  1  0
  1 25  1  0
  1 26  1  0
  3 27  1  0
  3 28  1  0
  4 29  1  0
  4 30  1  0
  5 31  1  0
  9 32  1  0
 11 33  1  0
 12 34  1  0
 13 35  1  0
 14 36  1  0
 18 37  1  0
 21 38  1  0
 21 39  1  0
 21 40  1  0
M  END
>  <ScrubInfo>  (1) 
{"isomerGroup": 0, "isomerId": 0, "confId": 0, "nr_conformers:": 1, "nr_isomers:": 9}

$$$$
_i1
     RDKit          3D

 40 42  0  0  0  0  0  0  0  0999 V2000
   -0.2542   -0.3162   -1.3690 N   0  0  0  0  0  0  0  0  0  0  0  0
    0.9142    0.2054   -0.8540 C   0  0  0  0  0  0  0  0  0  0  0  0
    2.1402   -0.3128   -1.2138 N   0  0  0  0  0  0  0  0  0  0  0  0
    3.1624   -0.8073   -0.3646 C   0  0  0  0  0  0  0  0  0  0  0  0
    3.0273   -0.8626    1.0310 C   0  0  0  0  0  0  0  0  0  0  0  0
    4.0783   -1.3016    1.8436 C   0  0  0  0  0  0  0  0  0  0  0  0
    5.2900   -1.6864    1.2776 C   0  0  0  0  0  0  0  0  0  0  0  0
    5.4541   -1.6360   -0.1040 C   0  0  0  0  0  0  0  0  0  0  0  0
    4.4021   -1.1975   -0.9146 C   0  0  0  0  0  0  0  0  0  0  0  0
    4.6961   -1.1540   -2.7948 Br  0  0  0  0  0  0  0  0  0  0  0  0
    0.7572    1.2778   -0.0681 C   0  0  0  0  0  0  0  0  0  0  0  0
    1.6069    2.2451    0.6345 C   0  0  0  0  0  0  0  0  0  0  0  0
    0.9198    3.1612    1.2704 N   0  0  0  0  0  0  0  0  0  0  0  0
   -0.4307    2.8326    1.0598 N   0  0  0  0  0  0  0  0  0  0  0  0
   -1.4380    3.8275    1.3405 C   0  0  0  0  0  0  0  0  0  0  0  0
   -0.6153    1.7516    0.2124 C   0  0  0  0  0  0  0  0  0  0  0  0
   -1.6989    1.2384   -0.2642 N   0  0  0  0  0  0  0  0  0  0  0  0
   -1.5126    0.1490   -1.0854 C   0  0  0  0  0  0  0  0  0  0  0  0
   -2.5247   -0.4696   -1.5968 N   0  0  0  0  0  0  0  0  0  0  0  0
   -3.8734    0.0439   -1.3022 C   0  0  0  0  0  0  0  0  0  0  0  0
   -4.3863   -0.4491    0.0568 C   0  0  0  0  0  0  0  0  0  0  0  0
   -4.9906   -1.7473    0.0039 O   0  0  0  0  0  0  0  0  0  0  0  0
   -4.0587   -2.7892   -0.2482 C   0  0  0  0  0  0  0  0  0  0  0  0
   -0.2092   -1.1470   -1.9381 H   0  0  0  0  0  0  0  0  0  0  0  0
    2.1366   -0.8083   -2.1028 H   0  0  0  0  0  0  0  0  0  0  0  0
    2.0939   -0.5929    1.5173 H   0  0  0  0  0  0  0  0  0  0  0  0
    3.9456   -1.3445    2.9226 H   0  0  0  0  0  0  0  0  0  0  0  0
    6.1050   -2.0266    1.9120 H   0  0  0  0  0  0  0  0  0  0  0  0
    6.4034   -1.9370   -0.5400 H   0  0  0  0  0  0  0  0  0  0  0  0
    2.7015    2.1844    0.5846 H   0  0  0  0  0  0  0  0  0  0  0  0
   -1.1754    4.4031    2.2340 H   0  0  0  0  0  0  0  0  0  0  0  0
   -2.4104    3.3579    1.5203 H   0  0  0  0  0  0  0  0  0  0  0  0
   -1.5353    4.5196    0.4983 H   0  0  0  0  0  0  0  0  0  0  0  0
   -3.8921    1.1397   -1.3429 H   0  0  0  0  0  0  0  0  0  0  0  0
   -4.5415   -0.3055   -2.0975 H   0  0  0  0  0  0  0  0  0  0  0  0
   -5.1807    0.2295    0.3863 H   0  0  0  0  0  0  0  0  0  0  0  0
   -3.6121   -0.4365    0.8320 H   0  0  0  0  0  0  0  0  0  0  0  0
   -4.5584   -3.7433   -0.0581 H   0  0  0  0  0  0  0  0  0  0  0  0
   -3.7441   -2.7806   -1.2948 H   0  0  0  0  0  0  0  0  0  0  0  0
   -3.1923   -2.7151    0.4161 H   0  0  0  0  0  0  0  0  0  0  0  0
  1  2  1  0
  2  3  1  0
  3  4  1  0
  4  5  2  0
  5  6  1  0
  6  7  2  0
  7  8  1  0
  8  9  2  0
  9 10  1  0
  2 11  2  0
 11 12  1  0
 12 13  2  0
 13 14  1  0
 14 15  1  0
 14 16  1  0
 16 17  2  0
 17 18  1  0
 18 19  2  3
 19 20  1  0
 20 21  1  0
 21 22  1  0
 22 23  1  0
 18  1  1  0
  9  4  1  0
 16 11  1  0
  1 24  1  0
  3 25  1  0
  5 26  1  0
  6 27  1  0
  7 28  1  0
  8 29  1  0
 12 30  1  0
 15 31  1  0
 15 32  1  0
 15 33  1  0
 20 34  1  0
 20 35  1  0
 21 36  1  0
 21 37  1  0
 23 38  1  0
 23 39  1  0
 23 40  1  0
M  END
>  <ScrubInfo>  (2) 
{"isomerGroup": 0, "isomerId": 1, "confId": 0, "nr_conformers:": 1, "nr_isomers:": 9}

$$$$
_i2
     RDKit          3D

 40 42  0  0  0  0  0  0  0  0999 V2000
    0.4085    0.6845    0.4436 N   0  0  0  0  0  0  0  0  0  0  0  0
    1.2887   -0.3329    0.1649 C   0  0  0  0  0  0  0  0  0  0  0  0
    2.5865   -0.0011    0.4410 N   0  0  0  0  0  0  0  0  0  0  0  0
    3.6799   -0.8802    0.0329 C   0  0  0  0  0  0  0  0  0  0  0  0
    5.0092   -0.3039    0.5271 C   0  0  0  0  0  0  0  0  0  0  0  0
    5.1840    1.0065   -0.0300 O   0  0  0  0  0  0  0  0  0  0  0  0
    6.4148    1.5866    0.3842 C   0  0  0  0  0  0  0  0  0  0  0  0
    0.9236   -1.5021   -0.2944 N   0  0  0  0  0  0  0  0  0  0  0  0
   -0.4245   -1.5725   -0.4825 C   0  0  0  0  0  0  0  0  0  0  0  0
   -1.3842   -0.6026   -0.2340 C   0  0  0  0  0  0  0  0  0  0  0  0
   -2.5960   -1.2117   -0.6042 C   0  0  0  0  0  0  0  0  0  0  0  0
   -2.4336   -2.4637   -1.0514 N   0  0  0  0  0  0  0  0  0  0  0  0
   -1.0975   -2.6569   -0.9701 N   0  0  0  0  0  0  0  0  0  0  0  0
   -0.5413   -3.9216   -1.3798 C   0  0  0  0  0  0  0  0  0  0  0  0
   -0.9596    0.6759    0.3023 C   0  0  0  0  0  0  0  0  0  0  0  0
   -1.6826    1.7014    0.6367 N   0  0  0  0  0  0  0  0  0  0  0  0
   -3.0752    1.7117    0.4819 C   0  0  0  0  0  0  0  0  0  0  0  0
   -3.8740    1.3130    1.5612 C   0  0  0  0  0  0  0  0  0  0  0  0
   -5.2672    1.3339    1.4662 C   0  0  0  0  0  0  0  0  0  0  0  0
   -5.8787    1.7709    0.2929 C   0  0  0  0  0  0  0  0  0  0  0  0
   -5.0990    2.1953   -0.7833 C   0  0  0  0  0  0  0  0  0  0  0  0
   -3.7040    2.1738   -0.6867 C   0  0  0  0  0  0  0  0  0  0  0  0
   -2.6963    2.7745   -2.1806 Br  0  0  0  0  0  0  0  0  0  0  0  0
    0.7719    1.5119    0.8861 H   0  0  0  0  0  0  0  0  0  0  0  0
    2.8305    0.9672    0.2463 H   0  0  0  0  0  0  0  0  0  0  0  0
    3.5399   -1.8843    0.4474 H   0  0  0  0  0  0  0  0  0  0  0  0
    3.6932   -0.9458   -1.0611 H   0  0  0  0  0  0  0  0  0  0  0  0
    5.0079   -0.2329    1.6211 H   0  0  0  0  0  0  0  0  0  0  0  0
    5.8336   -0.9513    0.2081 H   0  0  0  0  0  0  0  0  0  0  0  0
    6.4404    1.6931    1.4729 H   0  0  0  0  0  0  0  0  0  0  0  0
    7.2582    0.9779    0.0442 H   0  0  0  0  0  0  0  0  0  0  0  0
    6.4960    2.5794   -0.0663 H   0  0  0  0  0  0  0  0  0  0  0  0
   -3.6014   -0.8168   -0.5735 H   0  0  0  0  0  0  0  0  0  0  0  0
   -0.9494   -4.7015   -0.7321 H   0  0  0  0  0  0  0  0  0  0  0  0
    0.5472   -3.9008   -1.2941 H   0  0  0  0  0  0  0  0  0  0  0  0
   -0.8254   -4.1019   -2.4198 H   0  0  0  0  0  0  0  0  0  0  0  0
   -3.4026    0.9816    2.4832 H   0  0  0  0  0  0  0  0  0  0  0  0
   -5.8729    1.0130    2.3102 H   0  0  0  0  0  0  0  0  0  0  0  0
   -6.9635    1.7885    0.2185 H   0  0  0  0  0  0  0  0  0  0  0  0
   -5.5854    2.5439   -1.6908 H   0  0  0  0  0  0  0  0  0  0  0  0
  1  2  1  0
  2  3  1  0
  3  4  1  0
  4  5  1  0
  5  6  1  0
  6  7  1  0
  2  8  2  0
  8  9  1  0
  9 10  2  0
 10 11  1  0
 11 12  2  0
 12 13  1  0
 13 14  1  0
 10 15  1  0
 15 16  2  3
 16 17  1  0
 17 18  2  0
 18 19  1  0
 19 20  2  0
 20 21  1  0
 21 22  2  0
 22 23  1  0
 15  1  1  0
 22 17  1  0
 13  9  1  0
  1 24  1  0
  3 25  1  0
  4 26  1  0
  4 27  1  0
  5 28  1  0
  5 29  1  0
  7 30  1  0
  7 31  1  0
  7 32  1  0
 11 33  1  0
 14 34  1  0
 14 35  1  0
 14 36  1  0
 18 37  1  0
 19 38  1  0
 20 39  1  0
 21 40  1  0
M  END
>  <ScrubInfo>  (3) 
{"isomerGroup": 0, "isomerId": 2, "confId": 0, "nr_conformers:": 1, "nr_isomers:": 9}

$$$$
_i3
     RDKit          3D

 40 42  0  0  0  0  0  0  0  0999 V2000
    1.1735   -1.5921   -0.3368 N   0  0  0  0  0  0  0  0  0  0  0  0
    1.4491   -0.2813   -0.0158 C   0  0  0  0  0  0  0  0  0  0  0  0
    2.6535    0.0114    0.3527 N   0  0  0  0  0  0  0  0  0  0  0  0
    2.9261    1.4199    0.6712 C   0  0  0  0  0  0  0  0  0  0  0  0
    4.4045    1.5786    1.0371 C   0  0  0  0  0  0  0  0  0  0  0  0
    5.2091    1.5507   -0.1471 O   0  0  0  0  0  0  0  0  0  0  0  0
    6.5934    1.6205    0.1612 C   0  0  0  0  0  0  0  0  0  0  0  0
    0.4758    0.7057   -0.0750 N   0  0  0  0  0  0  0  0  0  0  0  0
   -0.7366    0.3814   -0.4376 C   0  0  0  0  0  0  0  0  0  0  0  0
   -1.7390    1.3170   -0.5204 N   0  0  0  0  0  0  0  0  0  0  0  0
   -3.0423    1.1449    0.0144 C   0  0  0  0  0  0  0  0  0  0  0  0
   -4.1143    1.5365   -0.8065 C   0  0  0  0  0  0  0  0  0  0  0  0
   -5.4348    1.4528   -0.3616 C   0  0  0  0  0  0  0  0  0  0  0  0
   -5.7050    1.0036    0.9267 C   0  0  0  0  0  0  0  0  0  0  0  0
   -4.6543    0.6565    1.7749 C   0  0  0  0  0  0  0  0  0  0  0  0
   -3.3281    0.7412    1.3316 C   0  0  0  0  0  0  0  0  0  0  0  0
   -1.9777    0.3435    2.6084 Br  0  0  0  0  0  0  0  0  0  0  0  0
   -1.0590   -0.9773   -0.8191 C   0  0  0  0  0  0  0  0  0  0  0  0
   -2.1617   -1.6975   -1.3048 C   0  0  0  0  0  0  0  0  0  0  0  0
   -1.8806   -2.9959   -1.5028 N   0  0  0  0  0  0  0  0  0  0  0  0
   -0.5771   -3.1024   -1.1451 N   0  0  0  0  0  0  0  0  0  0  0  0
    0.0750   -4.3834   -1.2380 C   0  0  0  0  0  0  0  0  0  0  0  0
   -0.0634   -1.9126   -0.7420 C   0  0  0  0  0  0  0  0  0  0  0  0
    1.9681   -2.2146   -0.2808 H   0  0  0  0  0  0  0  0  0  0  0  0
    2.6957    2.0602   -0.1886 H   0  0  0  0  0  0  0  0  0  0  0  0
    2.3213    1.7255    1.5331 H   0  0  0  0  0  0  0  0  0  0  0  0
    4.5504    2.5473    1.5287 H   0  0  0  0  0  0  0  0  0  0  0  0
    4.7189    0.7809    1.7204 H   0  0  0  0  0  0  0  0  0  0  0  0
    7.1563    1.6083   -0.7760 H   0  0  0  0  0  0  0  0  0  0  0  0
    6.8218    2.5487    0.6939 H   0  0  0  0  0  0  0  0  0  0  0  0
    6.8967    0.7571    0.7612 H   0  0  0  0  0  0  0  0  0  0  0  0
   -1.3711    2.2080   -0.1925 H   0  0  0  0  0  0  0  0  0  0  0  0
   -3.9189    1.8933   -1.8164 H   0  0  0  0  0  0  0  0  0  0  0  0
   -6.2500    1.7405   -1.0212 H   0  0  0  0  0  0  0  0  0  0  0  0
   -6.7322    0.9371    1.2773 H   0  0  0  0  0  0  0  0  0  0  0  0
   -4.8788    0.3322    2.7886 H   0  0  0  0  0  0  0  0  0  0  0  0
   -3.1599   -1.3465   -1.5292 H   0  0  0  0  0  0  0  0  0  0  0  0
   -0.4946   -5.1049   -0.6466 H   0  0  0  0  0  0  0  0  0  0  0  0
    1.0934   -4.3124   -0.8504 H   0  0  0  0  0  0  0  0  0  0  0  0
    0.0966   -4.6824   -2.2889 H   0  0  0  0  0  0  0  0  0  0  0  0
  1  2  1  0
  2  3  2  3
  3  4  1  0
  4  5  1  0
  5  6  1  0
  6  7  1  0
  2  8  1  0
  8  9  2  0
  9 10  1  0
 10 11  1  0
 11 12  2  0
 12 13  1  0
 13 14  2  0
 14 15  1  0
 15 16  2  0
 16 17  1  0
  9 18  1  0
 18 19  1  0
 19 20  2  0
 20 21  1  0
 21 22  1  0
 21 23  1  0
 23  1  1  0
 16 11  1  0
 23 18  2  0
  1 24  1  0
  4 25  1  0
  4 26  1  0
  5 27  1  0
  5 28  1  0
  7 29  1  0
  7 30  1  0
  7 31  1  0
 10 32  1  0
 12 33  1  0
 13 34  1  0
 14 35  1  0
 15 36  1  0
 19 37  1  0
 22 38  1  0
 22 39  1  0
 22 40  1  0
M  END
>  <ScrubInfo>  (4) 
{"isomerGroup": 0, "isomerId": 3, "confId": 0, "nr_conformers:": 1, "nr_isomers:": 9}

$$$$
_i4
     RDKit          3D

 40 42  0  0  0  0  0  0  0  0999 V2000
   -0.8402   -4.3842    1.1873 N   0  0  0  0  0  0  0  0  0  0  0  0
   -1.7407   -3.3306    1.0679 C   0  0  0  0  0  0  0  0  0  0  0  0
   -1.1644   -2.2024    0.6346 C   0  0  0  0  0  0  0  0  0  0  0  0
   -1.5739   -0.8575    0.3061 C   0  0  0  0  0  0  0  0  0  0  0  0
   -2.7933   -0.4473    0.4697 N   0  0  0  0  0  0  0  0  0  0  0  0
   -3.1047    0.8733    0.0947 C   0  0  0  0  0  0  0  0  0  0  0  0
   -3.0696    1.8748    1.0735 C   0  0  0  0  0  0  0  0  0  0  0  0
   -3.3904    3.1974    0.7587 C   0  0  0  0  0  0  0  0  0  0  0  0
   -3.7621    3.5327   -0.5415 C   0  0  0  0  0  0  0  0  0  0  0  0
   -3.8190    2.5456   -1.5256 C   0  0  0  0  0  0  0  0  0  0  0  0
   -3.4977    1.2213   -1.2083 C   0  0  0  0  0  0  0  0  0  0  0  0
   -3.6221   -0.0798   -2.5882 Br  0  0  0  0  0  0  0  0  0  0  0  0
   -0.5707   -0.0653   -0.1856 N   0  0  0  0  0  0  0  0  0  0  0  0
    0.6549   -0.4868   -0.3104 C   0  0  0  0  0  0  0  0  0  0  0  0
    1.5470    0.4028   -0.8293 N   0  0  0  0  0  0  0  0  0  0  0  0
    2.9723    0.3223   -0.5788 C   0  0  0  0  0  0  0  0  0  0  0  0
    3.6851    1.5147   -1.2286 C   0  0  0  0  0  0  0  0  0  0  0  0
    3.1650    2.7748   -0.7847 O   0  0  0  0  0  0  0  0  0  0  0  0
    3.5885    3.1301    0.5246 C   0  0  0  0  0  0  0  0  0  0  0  0
    1.1132   -1.7311    0.0460 N   0  0  0  0  0  0  0  0  0  0  0  0
    0.2511   -2.5673    0.5099 C   0  0  0  0  0  0  0  0  0  0  0  0
    0.4380   -3.8807    0.9481 N   0  0  0  0  0  0  0  0  0  0  0  0
    1.4184   -4.7392    0.3107 C   0  0  0  0  0  0  0  0  0  0  0  0
   -0.9595   -4.9212    2.0492 H   0  0  0  0  0  0  0  0  0  0  0  0
   -2.7814   -3.4805    1.3192 H   0  0  0  0  0  0  0  0  0  0  0  0
   -2.7834    1.6162    2.0893 H   0  0  0  0  0  0  0  0  0  0  0  0
   -3.3501    3.9624    1.5295 H   0  0  0  0  0  0  0  0  0  0  0  0
   -4.0113    4.5615   -0.7886 H   0  0  0  0  0  0  0  0  0  0  0  0
   -4.1166    2.8143   -2.5356 H   0  0  0  0  0  0  0  0  0  0  0  0
    1.1780    1.3497   -0.8591 H   0  0  0  0  0  0  0  0  0  0  0  0
    3.1507    0.3192    0.5015 H   0  0  0  0  0  0  0  0  0  0  0  0
    3.3783   -0.6072   -0.9928 H   0  0  0  0  0  0  0  0  0  0  0  0
    3.5315    1.4797   -2.3130 H   0  0  0  0  0  0  0  0  0  0  0  0
    4.7655    1.4695   -1.0501 H   0  0  0  0  0  0  0  0  0  0  0  0
    4.6806    3.1345    0.5905 H   0  0  0  0  0  0  0  0  0  0  0  0
    3.1663    2.4508    1.2696 H   0  0  0  0  0  0  0  0  0  0  0  0
    3.2245    4.1389    0.7382 H   0  0  0  0  0  0  0  0  0  0  0  0
    2.4100   -4.2759    0.3359 H   0  0  0  0  0  0  0  0  0  0  0  0
    1.4839   -5.6974    0.8363 H   0  0  0  0  0  0  0  0  0  0  0  0
    1.1479   -4.9322   -0.7327 H   0  0  0  0  0  0  0  0  0  0  0  0
  1  2  1  0
  2  3  2  0
  3  4  1  0
  4  5  2  3
  5  6  1  0
  6  7  2  0
  7  8  1  0
  8  9  2  0
  9 10  1  0
 10 11  2  0
 11 12  1  0
  4 13  1  0
 13 14  2  0
 14 15  1  0
 15 16  1  0
 16 17  1  0
 17 18  1  0
 18 19  1  0
 14 20  1  0
 20 21  2  0
 21 22  1  0
 22 23  1  0
 22  1  1  0
 21  3  1  0
 11  6  1  0
  1 24  1  0
  2 25  1  0
  7 26  1  0
  8 27  1  0
  9 28  1  0
 10 29  1  0
 15 30  1  0
 16 31  1  0
 16 32  1  0
 17 33  1  0
 17 34  1  0
 19 35  1  0
 19 36  1  0
 19 37  1  0
 23 38  1  0
 23 39  1  0
 23 40  1  0
M  END
>  <ScrubInfo>  (5) 
{"isomerGroup": 0, "isomerId": 4, "confId": 0, "nr_conformers:": 1, "nr_isomers:": 9}

$$$$
_i5
     RDKit          3D

 40 42  0  0  0  0  0  0  0  0999 V2000
    1.3984   -0.3722   -0.6106 N   0  0  0  0  0  0  0  0  0  0  0  0
    0.5218    0.6681   -0.4278 C   0  0  0  0  0  0  0  0  0  0  0  0
    1.1280    1.8823   -0.2836 N   0  0  0  0  0  0  0  0  0  0  0  0
    1.8265    2.2639    0.9533 C   0  0  0  0  0  0  0  0  0  0  0  0
    2.6580    1.1637    1.6254 C   0  0  0  0  0  0  0  0  0  0  0  0
    3.6592    0.6582    0.7298 O   0  0  0  0  0  0  0  0  0  0  0  0
    4.5102   -0.2769    1.3847 C   0  0  0  0  0  0  0  0  0  0  0  0
   -0.7789    0.5825   -0.4503 N   0  0  0  0  0  0  0  0  0  0  0  0
   -1.3626   -0.6694   -0.6183 C   0  0  0  0  0  0  0  0  0  0  0  0
   -2.6395   -0.8843   -0.6043 N   0  0  0  0  0  0  0  0  0  0  0  0
   -3.4891    0.2161   -0.3896 C   0  0  0  0  0  0  0  0  0  0  0  0
   -4.0683    0.8384   -1.5029 C   0  0  0  0  0  0  0  0  0  0  0  0
   -4.9399    1.9190   -1.3489 C   0  0  0  0  0  0  0  0  0  0  0  0
   -5.2525    2.3847   -0.0736 C   0  0  0  0  0  0  0  0  0  0  0  0
   -4.6978    1.7677    1.0479 C   0  0  0  0  0  0  0  0  0  0  0  0
   -3.8245    0.6854    0.8916 C   0  0  0  0  0  0  0  0  0  0  0  0
   -3.1229   -0.1234    2.4624 Br  0  0  0  0  0  0  0  0  0  0  0  0
   -0.4776   -1.7904   -0.8146 C   0  0  0  0  0  0  0  0  0  0  0  0
   -0.6215   -3.1683   -1.0247 C   0  0  0  0  0  0  0  0  0  0  0  0
    0.5636   -3.7919   -1.1465 N   0  0  0  0  0  0  0  0  0  0  0  0
    1.4702   -2.7895   -1.0192 N   0  0  0  0  0  0  0  0  0  0  0  0
    2.8751   -3.0916   -1.1109 C   0  0  0  0  0  0  0  0  0  0  0  0
    0.8741   -1.5898   -0.8057 C   0  0  0  0  0  0  0  0  0  0  0  0
    2.3892   -0.1386   -0.5933 H   0  0  0  0  0  0  0  0  0  0  0  0
    0.4154    2.5893   -0.4600 H   0  0  0  0  0  0  0  0  0  0  0  0
    1.0867    2.6349    1.6723 H   0  0  0  0  0  0  0  0  0  0  0  0
    2.4860    3.1013    0.6998 H   0  0  0  0  0  0  0  0  0  0  0  0
    2.0157    0.3400    1.9579 H   0  0  0  0  0  0  0  0  0  0  0  0
    3.1496    1.5890    2.5086 H   0  0  0  0  0  0  0  0  0  0  0  0
    5.2416   -0.6414    0.6585 H   0  0  0  0  0  0  0  0  0  0  0  0
    5.0448    0.2037    2.2095 H   0  0  0  0  0  0  0  0  0  0  0  0
    3.9298   -1.1281    1.7534 H   0  0  0  0  0  0  0  0  0  0  0  0
   -3.8315    0.4740   -2.4992 H   0  0  0  0  0  0  0  0  0  0  0  0
   -5.3751    2.3918   -2.2255 H   0  0  0  0  0  0  0  0  0  0  0  0
   -5.9328    3.2238    0.0477 H   0  0  0  0  0  0  0  0  0  0  0  0
   -4.9545    2.1314    2.0391 H   0  0  0  0  0  0  0  0  0  0  0  0
   -1.5343   -3.7461   -1.0928 H   0  0  0  0  0  0  0  0  0  0  0  0
    3.1678   -3.6331   -0.2080 H   0  0  0  0  0  0  0  0  0  0  0  0
    3.0428   -3.7080   -1.9978 H   0  0  0  0  0  0  0  0  0  0  0  0
    3.4488   -2.1662   -1.1956 H   0  0  0  0  0  0  0  0  0  0  0  0
  1  2  1  0
  2  3  1  0
  3  4  1  0
  4  5  1  0
  5  6  1  0
  6  7  1  0
  2  8  2  0
  8  9  1  0
  9 10  2  3
 10 11  1  0
 11 12  2  0
 12 13  1  0
 13 14  2  0
 14 15  1  0
 15 16  2  0
 16 17  1  0
  9 18  1  0
 18 19  1  0
 19 20  2  0
 20 21  1  0
 21 22  1  0
 21 23  1  0
 23  1  1  0
 16 11  1  0
 23 18  2  0
  1 24  1  0
  3 25  1  0
  4 26  1  0
  4 27  1  0
  5 28  1  0
  5 29  1  0
  7 30  1  0
  7 31  1  0
  7 32  1  0
 12 33  1  0
 13 34  1  0
 14 35  1  0
 15 36  1  0
 19 37  1  0
 22 38  1  0
 22 39  1  0
 22 40  1  0
M  END
>  <ScrubInfo>  (6) 
{"isomerGroup": 0, "isomerId": 5, "confId": 0, "nr_conformers:": 1, "nr_isomers:": 9}

$$$$
_i6
     RDKit          3D

 40 42  0  0  0  0  0  0  0  0999 V2000
   -1.2138   -2.8469   -1.7242 N   0  0  0  0  0  0  0  0  0  0  0  0
   -1.6253   -1.5222   -1.6330 C   0  0  0  0  0  0  0  0  0  0  0  0
   -0.7064   -0.7289   -1.0664 C   0  0  0  0  0  0  0  0  0  0  0  0
   -0.5232    0.6834   -0.7394 C   0  0  0  0  0  0  0  0  0  0  0  0
   -1.4795    1.6488   -0.9496 N   0  0  0  0  0  0  0  0  0  0  0  0
   -2.8184    1.6246   -0.4864 C   0  0  0  0  0  0  0  0  0  0  0  0
   -3.2743    0.6828    0.4486 C   0  0  0  0  0  0  0  0  0  0  0  0
   -4.6070    0.6724    0.8735 C   0  0  0  0  0  0  0  0  0  0  0  0
   -5.5099    1.6054    0.3722 C   0  0  0  0  0  0  0  0  0  0  0  0
   -5.0810    2.5565   -0.5500 C   0  0  0  0  0  0  0  0  0  0  0  0
   -3.7477    2.5667   -0.9728 C   0  0  0  0  0  0  0  0  0  0  0  0
   -3.2319    3.8975   -2.2308 Br  0  0  0  0  0  0  0  0  0  0  0  0
    0.6357    1.0605   -0.2748 N   0  0  0  0  0  0  0  0  0  0  0  0
    1.6171    0.1152   -0.0688 C   0  0  0  0  0  0  0  0  0  0  0  0
    2.7242    0.6116    0.3582 N   0  0  0  0  0  0  0  0  0  0  0  0
    3.8268   -0.3202    0.6219 C   0  0  0  0  0  0  0  0  0  0  0  0
    5.0362    0.4554    1.1595 C   0  0  0  0  0  0  0  0  0  0  0  0
    5.0007    0.6625    2.5766 O   0  0  0  0  0  0  0  0  0  0  0  0
    3.9904    1.5779    2.9795 C   0  0  0  0  0  0  0  0  0  0  0  0
    1.5122   -1.2431   -0.2676 N   0  0  0  0  0  0  0  0  0  0  0  0
    0.3918   -1.6632   -0.7431 C   0  0  0  0  0  0  0  0  0  0  0  0
   -0.0005   -2.9662   -1.0534 N   0  0  0  0  0  0  0  0  0  0  0  0
    0.9666   -3.9444   -1.5151 C   0  0  0  0  0  0  0  0  0  0  0  0
   -1.9396   -3.5219   -1.4726 H   0  0  0  0  0  0  0  0  0  0  0  0
   -2.6009   -1.2446   -2.0064 H   0  0  0  0  0  0  0  0  0  0  0  0
   -1.0966    2.5875   -0.8484 H   0  0  0  0  0  0  0  0  0  0  0  0
   -2.5958   -0.0418    0.8915 H   0  0  0  0  0  0  0  0  0  0  0  0
   -4.9356   -0.0614    1.6063 H   0  0  0  0  0  0  0  0  0  0  0  0
   -6.5447    1.5977    0.7061 H   0  0  0  0  0  0  0  0  0  0  0  0
   -5.7898    3.2866   -0.9328 H   0  0  0  0  0  0  0  0  0  0  0  0
    3.5293   -1.0815    1.3527 H   0  0  0  0  0  0  0  0  0  0  0  0
    4.1211   -0.8049   -0.3167 H   0  0  0  0  0  0  0  0  0  0  0  0
    5.1724    1.4140    0.6450 H   0  0  0  0  0  0  0  0  0  0  0  0
    5.9355   -0.1420    0.9736 H   0  0  0  0  0  0  0  0  0  0  0  0
    3.0028    1.1134    2.9190 H   0  0  0  0  0  0  0  0  0  0  0  0
    4.0249    2.4946    2.3830 H   0  0  0  0  0  0  0  0  0  0  0  0
    4.1710    1.8408    4.0257 H   0  0  0  0  0  0  0  0  0  0  0  0
    1.7862   -4.0445   -0.7964 H   0  0  0  0  0  0  0  0  0  0  0  0
    0.4936   -4.9261   -1.6215 H   0  0  0  0  0  0  0  0  0  0  0  0
    1.3836   -3.6519   -2.4845 H   0  0  0  0  0  0  0  0  0  0  0  0
  1  2  1  0
  2  3  2  0
  3  4  1  0
  4  5  1  0
  5  6  1  0
  6  7  2  0
  7  8  1  0
  8  9  2  0
  9 10  1  0
 10 11  2  0
 11 12  1  0
  4 13  2  0
 13 14  1  0
 14 15  2  3
 15 16  1  0
 16 17  1  0
 17 18  1  0
 18 19  1  0
 14 20  1  0
 20 21  2  0
 21 22  1  0
 22 23  1  0
 22  1  1  0
 21  3  1  0
 11  6  1  0
  1 24  1  0
  2 25  1  0
  5 26  1  0
  7 27  1  0
  8 28  1  0
  9 29  1  0
 10 30  1  0
 16 31  1  0
 16 32  1  0
 17 33  1  0
 17 34  1  0
 19 35  1  0
 19 36  1  0
 19 37  1  0
 23 38  1  0
 23 39  1  0
 23 40  1  0
M  END
>  <ScrubInfo>  (7) 
{"isomerGroup": 0, "isomerId": 6, "confId": 0, "nr_conformers:": 1, "nr_isomers:": 9}

$$$$
_i7
     RDKit          3D

 40 42  0  0  0  0  0  0  0  0999 V2000
   -0.5136   -4.1972    1.1906 N   0  0  0  0  0  0  0  0  0  0  0  0
   -1.5059   -3.2290    1.0861 C   0  0  0  0  0  0  0  0  0  0  0  0
   -1.0399   -2.0510    0.6556 C   0  0  0  0  0  0  0  0  0  0  0  0
   -1.5718   -0.7275    0.3226 C   0  0  0  0  0  0  0  0  0  0  0  0
   -2.8387   -0.4909    0.4906 N   0  0  0  0  0  0  0  0  0  0  0  0
   -3.3383    0.7780    0.1476 C   0  0  0  0  0  0  0  0  0  0  0  0
   -3.4102    1.7603    1.1426 C   0  0  0  0  0  0  0  0  0  0  0  0
   -3.8974    3.0367    0.8537 C   0  0  0  0  0  0  0  0  0  0  0  0
   -4.3295    3.3419   -0.4353 C   0  0  0  0  0  0  0  0  0  0  0  0
   -4.2812    2.3700   -1.4349 C   0  0  0  0  0  0  0  0  0  0  0  0
   -3.7931    1.0923   -1.1439 C   0  0  0  0  0  0  0  0  0  0  0  0
   -3.7541   -0.1886   -2.5459 Br  0  0  0  0  0  0  0  0  0  0  0  0
   -0.5972    0.1156   -0.1473 N   0  0  0  0  0  0  0  0  0  0  0  0
    0.7318   -0.1758   -0.3005 C   0  0  0  0  0  0  0  0  0  0  0  0
    1.5012    0.7436   -0.7821 N   0  0  0  0  0  0  0  0  0  0  0  0
    2.9256    0.4227   -0.9243 C   0  0  0  0  0  0  0  0  0  0  0  0
    3.6799    1.6574   -1.4377 C   0  0  0  0  0  0  0  0  0  0  0  0
    3.6590    2.7799   -0.5490 O   0  0  0  0  0  0  0  0  0  0  0  0
    4.3652    2.5621    0.6622 C   0  0  0  0  0  0  0  0  0  0  0  0
    1.2562   -1.4058    0.0467 N   0  0  0  0  0  0  0  0  0  0  0  0
    0.4303   -2.2910    0.5125 C   0  0  0  0  0  0  0  0  0  0  0  0
    0.7166   -3.5888    0.9468 N   0  0  0  0  0  0  0  0  0  0  0  0
    1.7720   -4.3657    0.3254 C   0  0  0  0  0  0  0  0  0  0  0  0
   -0.5802   -4.7536    2.0458 H   0  0  0  0  0  0  0  0  0  0  0  0
   -2.5268   -3.4756    1.3420 H   0  0  0  0  0  0  0  0  0  0  0  0
   -3.0841    1.5246    2.1527 H   0  0  0  0  0  0  0  0  0  0  0  0
   -3.9436    3.7897    1.6368 H   0  0  0  0  0  0  0  0  0  0  0  0
   -4.7111    4.3350   -0.6606 H   0  0  0  0  0  0  0  0  0  0  0  0
   -4.6287    2.6154   -2.4353 H   0  0  0  0  0  0  0  0  0  0  0  0
   -0.8465    1.0520   -0.4278 H   0  0  0  0  0  0  0  0  0  0  0  0
    3.3464    0.1003    0.0339 H   0  0  0  0  0  0  0  0  0  0  0  0
    3.0548   -0.3853   -1.6544 H   0  0  0  0  0  0  0  0  0  0  0  0
    3.2268    1.9939   -2.3769 H   0  0  0  0  0  0  0  0  0  0  0  0
    4.7220    1.3977   -1.6580 H   0  0  0  0  0  0  0  0  0  0  0  0
    3.8208    1.8702    1.3101 H   0  0  0  0  0  0  0  0  0  0  0  0
    4.4465    3.5190    1.1855 H   0  0  0  0  0  0  0  0  0  0  0  0
    5.3745    2.1877    0.4665 H   0  0  0  0  0  0  0  0  0  0  0  0
    2.7226   -3.8240    0.3626 H   0  0  0  0  0  0  0  0  0  0  0  0
    1.9079   -5.3148    0.8541 H   0  0  0  0  0  0  0  0  0  0  0  0
    1.5319   -4.5815   -0.7209 H   0  0  0  0  0  0  0  0  0  0  0  0
  1  2  1  0
  2  3  2  0
  3  4  1  0
  4  5  2  3
  5  6  1  0
  6  7  2  0
  7  8  1  0
  8  9  2  0
  9 10  1  0
 10 11  2  0
 11 12  1  0
  4 13  1  0
 13 14  1  0
 14 15  2  3
 15 16  1  0
 16 17  1  0
 17 18  1  0
 18 19  1  0
 14 20  1  0
 20 21  2  0
 21 22  1  0
 22 23  1  0
 22  1  1  0
 21  3  1  0
 11  6  1  0
  1 24  1  0
  2 25  1  0
  7 26  1  0
  8 27  1  0
  9 28  1  0
 10 29  1  0
 13 30  1  0
 16 31  1  0
 16 32  1  0
 17 33  1  0
 17 34  1  0
 19 35  1  0
 19 36  1  0
 19 37  1  0
 23 38  1  0
 23 39  1  0
 23 40  1  0
M  END
>  <ScrubInfo>  (8) 
{"isomerGroup": 0, "isomerId": 7, "confId": 0, "nr_conformers:": 1, "nr_isomers:": 9}

$$$$
_i8
     RDKit          3D

 40 42  0  0  0  0  0  0  0  0999 V2000
    1.1461   -1.4858   -0.1794 N   0  0  0  0  0  0  0  0  0  0  0  0
    1.5038   -0.2241    0.2491 C   0  0  0  0  0  0  0  0  0  0  0  0
    2.7562    0.0223    0.4359 N   0  0  0  0  0  0  0  0  0  0  0  0
    3.1401    1.3667    0.8802 C   0  0  0  0  0  0  0  0  0  0  0  0
    4.6660    1.4953    0.8523 C   0  0  0  0  0  0  0  0  0  0  0  0
    5.1054    1.7079   -0.4933 O   0  0  0  0  0  0  0  0  0  0  0  0
    6.5225    1.7486   -0.5793 C   0  0  0  0  0  0  0  0  0  0  0  0
    0.4235    0.6185    0.4266 N   0  0  0  0  0  0  0  0  0  0  0  0
   -0.9309    0.4077    0.2574 C   0  0  0  0  0  0  0  0  0  0  0  0
   -1.7817    1.3602    0.4992 N   0  0  0  0  0  0  0  0  0  0  0  0
   -3.1646    1.1796    0.3646 C   0  0  0  0  0  0  0  0  0  0  0  0
   -3.7714    1.5282   -0.8487 C   0  0  0  0  0  0  0  0  0  0  0  0
   -5.1507    1.3957   -1.0225 C   0  0  0  0  0  0  0  0  0  0  0  0
   -5.9428    0.9274    0.0239 C   0  0  0  0  0  0  0  0  0  0  0  0
   -5.3587    0.5995    1.2477 C   0  0  0  0  0  0  0  0  0  0  0  0
   -3.9773    0.7329    1.4203 C   0  0  0  0  0  0  0  0  0  0  0  0
   -3.2415    0.2822    3.1126 Br  0  0  0  0  0  0  0  0  0  0  0  0
   -1.2009   -0.9454   -0.1988 C   0  0  0  0  0  0  0  0  0  0  0  0
   -2.3244   -1.7208   -0.5408 C   0  0  0  0  0  0  0  0  0  0  0  0
   -2.0042   -2.9687   -0.9156 N   0  0  0  0  0  0  0  0  0  0  0  0
   -0.6564   -2.9971   -0.8202 N   0  0  0  0  0  0  0  0  0  0  0  0
    0.0480   -4.2108   -1.1480 C   0  0  0  0  0  0  0  0  0  0  0  0
   -0.1460   -1.8109   -0.3925 C   0  0  0  0  0  0  0  0  0  0  0  0
    1.9301   -2.1113   -0.3235 H   0  0  0  0  0  0  0  0  0  0  0  0
    2.7015    2.1308    0.2278 H   0  0  0  0  0  0  0  0  0  0  0  0
    2.7909    1.5176    1.9079 H   0  0  0  0  0  0  0  0  0  0  0  0
    4.9651    2.3623    1.4522 H   0  0  0  0  0  0  0  0  0  0  0  0
    5.1376    0.5951    1.2636 H   0  0  0  0  0  0  0  0  0  0  0  0
    6.7995    1.9265   -1.6218 H   0  0  0  0  0  0  0  0  0  0  0  0
    6.9209    2.5639    0.0323 H   0  0  0  0  0  0  0  0  0  0  0  0
    6.9533    0.7940   -0.2621 H   0  0  0  0  0  0  0  0  0  0  0  0
    0.6263    1.5522    0.7456 H   0  0  0  0  0  0  0  0  0  0  0  0
   -3.1602    1.9062   -1.6647 H   0  0  0  0  0  0  0  0  0  0  0  0
   -5.6055    1.6636   -1.9732 H   0  0  0  0  0  0  0  0  0  0  0  0
   -7.0172    0.8259   -0.1101 H   0  0  0  0  0  0  0  0  0  0  0  0
   -5.9865    0.2455    2.0614 H   0  0  0  0  0  0  0  0  0  0  0  0
   -3.3712   -1.4510   -0.5405 H   0  0  0  0  0  0  0  0  0  0  0  0
    0.0440   -4.8548   -0.2654 H   0  0  0  0  0  0  0  0  0  0  0  0
    1.0729   -3.9726   -1.4409 H   0  0  0  0  0  0  0  0  0  0  0  0
   -0.4611   -4.7029   -1.9810 H   0  0  0  0  0  0  0  0  0  0  0  0
  1  2  1  0
  2  3  2  3
  3  4  1  0
  4  5  1  0
  5  6  1  0
  6  7  1  0
  2  8  1  0
  8  9  1  0
  9 10  2  3
 10 11  1  0
 11 12  2  0
 12 13  1  0
 13 14  2  0
 14 15  1  0
 15 16  2  0
 16 17  1  0
  9 18  1  0
 18 19  1  0
 19 20  2  0
 20 21  1  0
 21 22  1  0
 21 23  1  0
 23  1  1  0
 16 11  1  0
 23 18  2  0
  1 24  1  0
  4 25  1  0
  4 26  1  0
  5 27  1  0
  5 28  1  0
  7 29  1  0
  7 30  1  0
  7 31  1  0
  8 32  1  0
 12 33  1  0
 13 34  1  0
 14 35  1  0
 15 36  1  0
 19 37  1  0
 22 38  1  0
 22 39  1  0
 22 40  1  0
M  END
>  <ScrubInfo>  (9) 
{"isomerGroup": 0, "isomerId": 8, "confId": 0, "nr_conformers:": 1, "nr_isomers:": 9}

$$$$
