REMARK SMILES COc1ccc(CNc2nc(NCCO)c3nccnc3n2)cc1
REMARK SMILES IDX 9 1 10 2 11 3 16 4 17 5 18 6 19 7 20 8 21 9 22 10 8 11 7 13
REMARK SMILES IDX 6 14 3 15 4 16 24 17 5 18 23 19 2 20 1 21 12 22 13 24 14 25
REMARK SMILES IDX 15 26
REMARK H PARENT 8 12 12 23 15 27
ROOT
ATOM      1  C   UNL     1      -0.739  -0.119  -1.056  1.00  0.00     0.227 A 
ATOM      2  N   UNL     1      -1.926   0.102  -0.490  1.00  0.00    -0.193 NA
ATOM      3  C   UNL     1      -3.025  -0.102  -1.240  1.00  0.00     0.160 A 
ATOM      4  C   UNL     1      -2.966  -0.506  -2.573  1.00  0.00     0.150 A 
ATOM      5  N   UNL     1      -4.081  -0.721  -3.341  1.00  0.00    -0.247 NA
ATOM      6  C   UNL     1      -3.858  -1.118  -4.606  1.00  0.00     0.132 A 
ATOM      7  C   UNL     1      -2.582  -1.311  -5.084  1.00  0.00     0.133 A 
ATOM      8  N   UNL     1      -1.486  -1.115  -4.316  1.00  0.00    -0.233 NA
ATOM      9  C   UNL     1      -1.666  -0.707  -3.053  1.00  0.00     0.185 A 
ATOM     10  N   UNL     1      -0.580  -0.525  -2.312  1.00  0.00    -0.191 NA
ENDROOT
BRANCH   1  11
ATOM     11  N   UNL     1       0.358   0.117  -0.249  1.00  0.00    -0.350 N 
ATOM     12  H   UNL     1       0.058   0.106   0.719  1.00  0.00     0.164 HD
BRANCH  11  13
ATOM     13  C   UNL     1       1.524  -0.690  -0.544  1.00  0.00     0.152 C 
BRANCH  13  14
ATOM     14  C   UNL     1       2.572  -0.452   0.519  1.00  0.00    -0.029 A 
ATOM     15  C   UNL     1       4.515   0.018   2.506  1.00  0.00     0.118 A 
ATOM     16  C   UNL     1       4.184   1.023   1.598  1.00  0.00     0.047 A 
ATOM     17  C   UNL     1       3.871  -1.218   2.420  1.00  0.00     0.047 A 
ATOM     18  C   UNL     1       3.219   0.789   0.612  1.00  0.00     0.009 A 
ATOM     19  C   UNL     1       2.905  -1.454   1.438  1.00  0.00     0.009 A 
BRANCH  15  20
ATOM     20  O   UNL     1       5.436   0.114   3.513  1.00  0.00    -0.497 OA
ATOM     21  C   UNL     1       6.100   1.363   3.658  1.00  0.00     0.278 C 
ENDBRANCH  15  20
ENDBRANCH  13  14
ENDBRANCH  11  13
ENDBRANCH   1  11
BRANCH   3  22
ATOM     22  N   UNL     1      -4.293   0.198  -0.686  1.00  0.00    -0.366 N 
ATOM     23  H   UNL     1      -4.979  -0.403  -1.148  1.00  0.00     0.162 HD
BRANCH  22  24
ATOM     24  C   UNL     1      -4.423   0.189   0.774  1.00  0.00     0.142 C 
BRANCH  24  25
ATOM     25  C   UNL     1      -4.069   1.548   1.396  1.00  0.00     0.177 C 
BRANCH  25  26
ATOM     26  O   UNL     1      -2.666   1.695   1.599  1.00  0.00    -0.395 OA
ATOM     27  H   UNL     1      -2.248   1.369   0.773  1.00  0.00     0.210 HD
ENDBRANCH  25  26
ENDBRANCH  24  25
ENDBRANCH  22  24
ENDBRANCH   3  22
TORSDOF 8
