_i0
     RDKit          3D

 42 44  0  0  0  0  0  0  0  0999 V2000
    6.1004    1.3628    3.6575 C   0  0  0  0  0  0  0  0  0  0  0  0
    5.4360    0.1140    3.5130 O   0  0  0  0  0  0  0  0  0  0  0  0
    4.5152    0.0184    2.5061 C   0  0  0  0  0  0  0  0  0  0  0  0
    4.1843    1.0230    1.5976 C   0  0  0  0  0  0  0  0  0  0  0  0
    3.2187    0.7890    0.6121 C   0  0  0  0  0  0  0  0  0  0  0  0
    2.5719   -0.4518    0.5193 C   0  0  0  0  0  0  0  0  0  0  0  0
    1.5240   -0.6896   -0.5440 C   0  0  0  0  0  0  0  0  0  0  0  0
    0.3580    0.1175   -0.2493 N   0  0  0  0  0  0  0  0  0  0  0  0
   -0.7389   -0.1190   -1.0560 C   0  0  0  0  0  0  0  0  0  0  0  0
   -1.9263    0.1023   -0.4900 N   0  0  0  0  0  0  0  0  0  0  0  0
   -3.0247   -0.1017   -1.2400 C   0  0  0  0  0  0  0  0  0  0  0  0
   -4.2932    0.1975   -0.6865 N   0  0  0  0  0  0  0  0  0  0  0  0
   -4.4228    0.1888    0.7742 C   0  0  0  0  0  0  0  0  0  0  0  0
   -4.0689    1.5478    1.3957 C   0  0  0  0  0  0  0  0  0  0  0  0
   -2.6663    1.6947    1.5985 O   0  0  0  0  0  0  0  0  0  0  0  0
   -2.9663   -0.5058   -2.5728 C   0  0  0  0  0  0  0  0  0  0  0  0
   -4.0810   -0.7211   -3.3405 N   0  0  0  0  0  0  0  0  0  0  0  0
   -3.8579   -1.1184   -4.6065 C   0  0  0  0  0  0  0  0  0  0  0  0
   -2.5816   -1.3109   -5.0836 C   0  0  0  0  0  0  0  0  0  0  0  0
   -1.4858   -1.1148   -4.3160 N   0  0  0  0  0  0  0  0  0  0  0  0
   -1.6660   -0.7069   -3.0532 C   0  0  0  0  0  0  0  0  0  0  0  0
   -0.5803   -0.5253   -2.3119 N   0  0  0  0  0  0  0  0  0  0  0  0
    2.9052   -1.4543    1.4378 C   0  0  0  0  0  0  0  0  0  0  0  0
    3.8709   -1.2178    2.4197 C   0  0  0  0  0  0  0  0  0  0  0  0
    6.6936    1.5994    2.7680 H   0  0  0  0  0  0  0  0  0  0  0  0
    6.7890    1.2790    4.5037 H   0  0  0  0  0  0  0  0  0  0  0  0
    5.3900    2.1647    3.8848 H   0  0  0  0  0  0  0  0  0  0  0  0
    4.6533    2.0006    1.6271 H   0  0  0  0  0  0  0  0  0  0  0  0
    2.9628    1.5858   -0.0845 H   0  0  0  0  0  0  0  0  0  0  0  0
    1.9533   -0.4281   -1.5198 H   0  0  0  0  0  0  0  0  0  0  0  0
    1.2644   -1.7560   -0.5722 H   0  0  0  0  0  0  0  0  0  0  0  0
    0.0583    0.1059    0.7194 H   0  0  0  0  0  0  0  0  0  0  0  0
   -4.9793   -0.4033   -1.1479 H   0  0  0  0  0  0  0  0  0  0  0  0
   -3.8385   -0.6243    1.2213 H   0  0  0  0  0  0  0  0  0  0  0  0
   -5.4780   -0.0113    0.9939 H   0  0  0  0  0  0  0  0  0  0  0  0
   -4.4192    2.3782    0.7740 H   0  0  0  0  0  0  0  0  0  0  0  0
   -4.5403    1.6351    2.3794 H   0  0  0  0  0  0  0  0  0  0  0  0
   -2.2475    1.3686    0.7733 H   0  0  0  0  0  0  0  0  0  0  0  0
   -4.7327   -1.2785   -5.2260 H   0  0  0  0  0  0  0  0  0  0  0  0
   -2.3951   -1.6318   -6.1024 H   0  0  0  0  0  0  0  0  0  0  0  0
    2.4186   -2.4260    1.3993 H   0  0  0  0  0  0  0  0  0  0  0  0
    4.1227   -2.0042    3.1273 H   0  0  0  0  0  0  0  0  0  0  0  0
  1  2  1  0
  2  3  1  0
  3  4  2  0
  4  5  1  0
  5  6  2  0
  6  7  1  0
  7  8  1  0
  8  9  1  0
  9 10  2  0
 10 11  1  0
 11 12  1  0
 12 13  1  0
 13 14  1  0
 14 15  1  0
 11 16  2  0
 16 17  1  0
 17 18  2  0
 18 19  1  0
 19 20  2  0
 20 21  1  0
 21 22  2  0
  6 23  1  0
 23 24  2  0
 24  3  1  0
 22  9  1  0
 21 16  1  0
  1 25  1  0
  1 26  1  0
  1 27  1  0
  4 28  1  0
  5 29  1  0
  7 30  1  0
  7 31  1  0
  8 32  1  0
 12 33  1  0
 13 34  1  0
 13 35  1  0
 14 36  1  0
 14 37  1  0
 15 38  1  0
 18 39  1  0
 19 40  1  0
 23 41  1  0
 24 42  1  0
M  END
>  <ScrubInfo>  (1) 
{"isomerGroup": 0, "isomerId": 0, "confId": 0, "nr_conformers:": 1, "nr_isomers:": 9}

$$$$
_i1
     RDKit          3D

 42 44  0  0  0  0  0  0  0  0999 V2000
   -1.8222   -0.6649    0.4837 N   0  0  0  0  0  0  0  0  0  0  0  0
   -2.6796    0.3271    0.0884 C   0  0  0  0  0  0  0  0  0  0  0  0
   -3.8345    0.0511   -0.6420 N   0  0  0  0  0  0  0  0  0  0  0  0
   -3.9370   -1.0042   -1.6424 C   0  0  0  0  0  0  0  0  0  0  0  0
   -5.3792   -1.1425   -2.1360 C   0  0  0  0  0  0  0  0  0  0  0  0
   -5.4602   -2.1484   -3.1399 O   0  0  0  0  0  0  0  0  0  0  0  0
   -2.3878    1.6057    0.4358 C   0  0  0  0  0  0  0  0  0  0  0  0
   -3.1793    2.6799    0.0771 N   0  0  0  0  0  0  0  0  0  0  0  0
   -2.7498    3.8272    0.4843 C   0  0  0  0  0  0  0  0  0  0  0  0
   -1.4959    3.9940    1.2755 C   0  0  0  0  0  0  0  0  0  0  0  0
   -0.7406    3.0072    1.6155 N   0  0  0  0  0  0  0  0  0  0  0  0
   -1.1084    1.7370    1.2341 C   0  0  0  0  0  0  0  0  0  0  0  0
   -0.3195    0.7845    1.6020 N   0  0  0  0  0  0  0  0  0  0  0  0
   -0.6915   -0.4756    1.2203 C   0  0  0  0  0  0  0  0  0  0  0  0
    0.0106   -1.5073    1.5495 N   0  0  0  0  0  0  0  0  0  0  0  0
    1.2305   -1.2979    2.3279 C   0  0  0  0  0  0  0  0  0  0  0  0
    2.4549   -1.1810    1.4517 C   0  0  0  0  0  0  0  0  0  0  0  0
    3.0337    0.0683    1.1967 C   0  0  0  0  0  0  0  0  0  0  0  0
    4.1610    0.1804    0.3748 C   0  0  0  0  0  0  0  0  0  0  0  0
    4.7192   -0.9568   -0.2091 C   0  0  0  0  0  0  0  0  0  0  0  0
    5.8150   -0.9863   -1.0281 O   0  0  0  0  0  0  0  0  0  0  0  0
    6.4456    0.2589   -1.2974 C   0  0  0  0  0  0  0  0  0  0  0  0
    4.1358   -2.2027    0.0317 C   0  0  0  0  0  0  0  0  0  0  0  0
    3.0102   -2.3165    0.8512 C   0  0  0  0  0  0  0  0  0  0  0  0
   -2.0741   -1.6196    0.2865 H   0  0  0  0  0  0  0  0  0  0  0  0
   -4.2607    0.9349   -0.9359 H   0  0  0  0  0  0  0  0  0  0  0  0
   -3.6126   -1.9675   -1.2323 H   0  0  0  0  0  0  0  0  0  0  0  0
   -3.2763   -0.7833   -2.4891 H   0  0  0  0  0  0  0  0  0  0  0  0
   -5.7339   -0.1983   -2.5629 H   0  0  0  0  0  0  0  0  0  0  0  0
   -6.0425   -1.4184   -1.3093 H   0  0  0  0  0  0  0  0  0  0  0  0
   -6.3973   -2.2245   -3.3904 H   0  0  0  0  0  0  0  0  0  0  0  0
   -3.2938    4.7585    0.2643 H   0  0  0  0  0  0  0  0  0  0  0  0
   -1.2515    5.0302    1.5545 H   0  0  0  0  0  0  0  0  0  0  0  0
    1.3618   -2.1681    2.9842 H   0  0  0  0  0  0  0  0  0  0  0  0
    1.1646   -0.4505    3.0223 H   0  0  0  0  0  0  0  0  0  0  0  0
    2.5986    0.9655    1.6336 H   0  0  0  0  0  0  0  0  0  0  0  0
    4.5707    1.1706    0.2101 H   0  0  0  0  0  0  0  0  0  0  0  0
    7.2989    0.0660   -1.9547 H   0  0  0  0  0  0  0  0  0  0  0  0
    6.8300    0.7144   -0.3787 H   0  0  0  0  0  0  0  0  0  0  0  0
    5.7679    0.9393   -1.8236 H   0  0  0  0  0  0  0  0  0  0  0  0
    4.5579   -3.0931   -0.4268 H   0  0  0  0  0  0  0  0  0  0  0  0
    2.5612   -3.2931    1.0155 H   0  0  0  0  0  0  0  0  0  0  0  0
  1  2  1  0
  2  3  1  0
  3  4  1  0
  4  5  1  0
  5  6  1  0
  2  7  2  0
  7  8  1  0
  8  9  2  0
  9 10  1  0
 10 11  2  0
 11 12  1  0
 12 13  2  0
 13 14  1  0
 14 15  2  3
 15 16  1  0
 16 17  1  0
 17 18  2  0
 18 19  1  0
 19 20  2  0
 20 21  1  0
 21 22  1  0
 20 23  1  0
 23 24  2  0
 14  1  1  0
 24 17  1  0
 12  7  1  0
  1 25  1  0
  3 26  1  0
  4 27  1  0
  4 28  1  0
  5 29  1  0
  5 30  1  0
  6 31  1  0
  9 32  1  0
 10 33  1  0
 16 34  1  0
 16 35  1  0
 18 36  1  0
 19 37  1  0
 22 38  1  0
 22 39  1  0
 22 40  1  0
 23 41  1  0
 24 42  1  0
M  END
>  <ScrubInfo>  (2) 
{"isomerGroup": 0, "isomerId": 1, "confId": 0, "nr_conformers:": 1, "nr_isomers:": 9}

$$$$
_i2
     RDKit          3D

 42 44  0  0  0  0  0  0  0  0999 V2000
   -1.6896   -0.0766   -0.3569 N   0  0  0  0  0  0  0  0  0  0  0  0
   -0.7337    0.4224   -1.1904 C   0  0  0  0  0  0  0  0  0  0  0  0
    0.5558    0.2860   -0.7723 N   0  0  0  0  0  0  0  0  0  0  0  0
    0.9894    0.7749    0.5272 C   0  0  0  0  0  0  0  0  0  0  0  0
    2.4825    0.6072    0.6570 C   0  0  0  0  0  0  0  0  0  0  0  0
    3.0455   -0.6691    0.8003 C   0  0  0  0  0  0  0  0  0  0  0  0
    4.4310   -0.8331    0.9118 C   0  0  0  0  0  0  0  0  0  0  0  0
    5.2731    0.2776    0.8778 C   0  0  0  0  0  0  0  0  0  0  0  0
    6.6368    0.2585    0.9761 O   0  0  0  0  0  0  0  0  0  0  0  0
    7.2538   -1.0156    1.1107 C   0  0  0  0  0  0  0  0  0  0  0  0
    4.7166    1.5498    0.7286 C   0  0  0  0  0  0  0  0  0  0  0  0
    3.3341    1.7174    0.6158 C   0  0  0  0  0  0  0  0  0  0  0  0
   -0.9926    0.9823   -2.3329 N   0  0  0  0  0  0  0  0  0  0  0  0
   -2.3581    1.0765   -2.6801 C   0  0  0  0  0  0  0  0  0  0  0  0
   -2.5980    1.6924   -3.8621 N   0  0  0  0  0  0  0  0  0  0  0  0
   -3.9024    1.7945   -4.2147 C   0  0  0  0  0  0  0  0  0  0  0  0
   -4.9390    1.3087   -3.4280 C   0  0  0  0  0  0  0  0  0  0  0  0
   -4.7281    0.6937   -2.2447 N   0  0  0  0  0  0  0  0  0  0  0  0
   -3.4165    0.5918   -1.8958 C   0  0  0  0  0  0  0  0  0  0  0  0
   -3.0450   -0.0739   -0.6066 C   0  0  0  0  0  0  0  0  0  0  0  0
   -3.9715   -0.5797    0.1390 N   0  0  0  0  0  0  0  0  0  0  0  0
   -3.5928   -1.2191    1.3947 C   0  0  0  0  0  0  0  0  0  0  0  0
   -4.8506   -1.6751    2.1282 C   0  0  0  0  0  0  0  0  0  0  0  0
   -4.4866   -2.2942    3.3588 O   0  0  0  0  0  0  0  0  0  0  0  0
   -1.3627   -0.6460    0.4067 H   0  0  0  0  0  0  0  0  0  0  0  0
    1.1714    0.6481   -1.5010 H   0  0  0  0  0  0  0  0  0  0  0  0
    0.4989    0.2235    1.3380 H   0  0  0  0  0  0  0  0  0  0  0  0
    0.7129    1.8301    0.6403 H   0  0  0  0  0  0  0  0  0  0  0  0
    2.4049   -1.5489    0.8172 H   0  0  0  0  0  0  0  0  0  0  0  0
    4.8175   -1.8410    1.0200 H   0  0  0  0  0  0  0  0  0  0  0  0
    8.3351   -0.8588    1.1698 H   0  0  0  0  0  0  0  0  0  0  0  0
    6.9383   -1.5111    2.0348 H   0  0  0  0  0  0  0  0  0  0  0  0
    7.0559   -1.6447    0.2365 H   0  0  0  0  0  0  0  0  0  0  0  0
    5.3686    2.4198    0.6968 H   0  0  0  0  0  0  0  0  0  0  0  0
    2.9340    2.7217    0.4941 H   0  0  0  0  0  0  0  0  0  0  0  0
   -4.0963    2.2854   -5.1623 H   0  0  0  0  0  0  0  0  0  0  0  0
   -5.9745    1.4044   -3.7359 H   0  0  0  0  0  0  0  0  0  0  0  0
   -3.0356   -0.5278    2.0391 H   0  0  0  0  0  0  0  0  0  0  0  0
   -2.9509   -2.0900    1.2131 H   0  0  0  0  0  0  0  0  0  0  0  0
   -5.4105   -2.3972    1.5244 H   0  0  0  0  0  0  0  0  0  0  0  0
   -5.5032   -0.8228    2.3445 H   0  0  0  0  0  0  0  0  0  0  0  0
   -5.3179   -2.5702    3.7823 H   0  0  0  0  0  0  0  0  0  0  0  0
  1  2  1  0
  2  3  1  0
  3  4  1  0
  4  5  1  0
  5  6  2  0
  6  7  1  0
  7  8  2  0
  8  9  1  0
  9 10  1  0
  8 11  1  0
 11 12  2  0
  2 13  2  0
 13 14  1  0
 14 15  2  0
 15 16  1  0
 16 17  2  0
 17 18  1  0
 18 19  2  0
 19 20  1  0
 20 21  2  3
 21 22  1  0
 22 23  1  0
 23 24  1  0
 20  1  1  0
 12  5  1  0
 19 14  1  0
  1 25  1  0
  3 26  1  0
  4 27  1  0
  4 28  1  0
  6 29  1  0
  7 30  1  0
 10 31  1  0
 10 32  1  0
 10 33  1  0
 11 34  1  0
 12 35  1  0
 16 36  1  0
 17 37  1  0
 22 38  1  0
 22 39  1  0
 23 40  1  0
 23 41  1  0
 24 42  1  0
M  END
>  <ScrubInfo>  (3) 
{"isomerGroup": 0, "isomerId": 2, "confId": 0, "nr_conformers:": 1, "nr_isomers:": 9}

$$$$
_i3
     RDKit          3D

 42 44  0  0  0  0  0  0  0  0999 V2000
   -0.0183   -1.0592    0.3919 N   0  0  0  0  0  0  0  0  0  0  0  0
    0.5333   -1.2689   -0.8380 C   0  0  0  0  0  0  0  0  0  0  0  0
    1.7799   -1.4410   -1.0981 N   0  0  0  0  0  0  0  0  0  0  0  0
    2.7599   -1.4534   -0.0155 C   0  0  0  0  0  0  0  0  0  0  0  0
    3.0116   -0.1093    0.6294 C   0  0  0  0  0  0  0  0  0  0  0  0
    3.0280    1.0650   -0.1321 C   0  0  0  0  0  0  0  0  0  0  0  0
    3.2729    2.2990    0.4745 C   0  0  0  0  0  0  0  0  0  0  0  0
    3.5198    2.3829    1.8459 C   0  0  0  0  0  0  0  0  0  0  0  0
    3.7433    3.6493    2.3110 O   0  0  0  0  0  0  0  0  0  0  0  0
    4.0174    3.7856    3.6992 C   0  0  0  0  0  0  0  0  0  0  0  0
    3.5240    1.2150    2.6082 C   0  0  0  0  0  0  0  0  0  0  0  0
    3.2771   -0.0231    2.0028 C   0  0  0  0  0  0  0  0  0  0  0  0
   -0.2508   -1.3266   -1.9690 N   0  0  0  0  0  0  0  0  0  0  0  0
   -1.5397   -1.1353   -1.8772 C   0  0  0  0  0  0  0  0  0  0  0  0
   -2.2557   -1.2140   -3.0585 N   0  0  0  0  0  0  0  0  0  0  0  0
   -3.4080   -2.1032   -3.2168 C   0  0  0  0  0  0  0  0  0  0  0  0
   -4.5986   -1.3247   -3.7874 C   0  0  0  0  0  0  0  0  0  0  0  0
   -5.1980   -0.4817   -2.8061 O   0  0  0  0  0  0  0  0  0  0  0  0
   -2.1991   -0.8095   -0.5812 C   0  0  0  0  0  0  0  0  0  0  0  0
   -3.5279   -0.5218   -0.5559 N   0  0  0  0  0  0  0  0  0  0  0  0
   -3.9994   -0.2079    0.6717 C   0  0  0  0  0  0  0  0  0  0  0  0
   -3.1867   -0.1802    1.7972 C   0  0  0  0  0  0  0  0  0  0  0  0
   -1.8598   -0.4628    1.7539 N   0  0  0  0  0  0  0  0  0  0  0  0
   -1.3661   -0.7738    0.5323 C   0  0  0  0  0  0  0  0  0  0  0  0
    0.5445   -0.9207    1.2129 H   0  0  0  0  0  0  0  0  0  0  0  0
    2.4669   -2.1944    0.7396 H   0  0  0  0  0  0  0  0  0  0  0  0
    3.7138   -1.8063   -0.4261 H   0  0  0  0  0  0  0  0  0  0  0  0
    2.8451    1.0238   -1.2047 H   0  0  0  0  0  0  0  0  0  0  0  0
    3.2748    3.2024   -0.1305 H   0  0  0  0  0  0  0  0  0  0  0  0
    4.9336    3.2530    3.9752 H   0  0  0  0  0  0  0  0  0  0  0  0
    3.1678    3.4518    4.3041 H   0  0  0  0  0  0  0  0  0  0  0  0
    4.1756    4.8485    3.9061 H   0  0  0  0  0  0  0  0  0  0  0  0
    3.7208    1.2304    3.6748 H   0  0  0  0  0  0  0  0  0  0  0  0
    3.2987   -0.9216    2.6161 H   0  0  0  0  0  0  0  0  0  0  0  0
   -1.5979   -1.3363   -3.8276 H   0  0  0  0  0  0  0  0  0  0  0  0
   -3.6812   -2.5758   -2.2673 H   0  0  0  0  0  0  0  0  0  0  0  0
   -3.1302   -2.9013   -3.9141 H   0  0  0  0  0  0  0  0  0  0  0  0
   -5.3694   -2.0211   -4.1310 H   0  0  0  0  0  0  0  0  0  0  0  0
   -4.2960   -0.7012   -4.6348 H   0  0  0  0  0  0  0  0  0  0  0  0
   -4.4836   -0.2320   -2.1802 H   0  0  0  0  0  0  0  0  0  0  0  0
   -5.0577    0.0254    0.7312 H   0  0  0  0  0  0  0  0  0  0  0  0
   -3.5846    0.0749    2.7739 H   0  0  0  0  0  0  0  0  0  0  0  0
  1  2  1  0
  2  3  2  3
  3  4  1  0
  4  5  1  0
  5  6  2  0
  6  7  1  0
  7  8  2  0
  8  9  1  0
  9 10  1  0
  8 11  1  0
 11 12  2  0
  2 13  1  0
 13 14  2  0
 14 15  1  0
 15 16  1  0
 16 17  1  0
 17 18  1  0
 14 19  1  0
 19 20  2  0
 20 21  1  0
 21 22  2  0
 22 23  1  0
 23 24  2  0
 24  1  1  0
 12  5  1  0
 24 19  1  0
  1 25  1  0
  4 26  1  0
  4 27  1  0
  6 28  1  0
  7 29  1  0
 10 30  1  0
 10 31  1  0
 10 32  1  0
 11 33  1  0
 12 34  1  0
 15 35  1  0
 16 36  1  0
 16 37  1  0
 17 38  1  0
 17 39  1  0
 18 40  1  0
 21 41  1  0
 22 42  1  0
M  END
>  <ScrubInfo>  (4) 
{"isomerGroup": 0, "isomerId": 3, "confId": 0, "nr_conformers:": 1, "nr_isomers:": 9}

$$$$
_i4
     RDKit          3D

 42 44  0  0  0  0  0  0  0  0999 V2000
   -2.3611   -4.1746    0.4136 N   0  0  0  0  0  0  0  0  0  0  0  0
   -3.6551   -4.5421    0.1627 C   0  0  0  0  0  0  0  0  0  0  0  0
   -4.5729   -3.6323   -0.2055 C   0  0  0  0  0  0  0  0  0  0  0  0
   -4.3053   -2.2841   -0.3551 N   0  0  0  0  0  0  0  0  0  0  0  0
   -3.0731   -1.9051   -0.1218 C   0  0  0  0  0  0  0  0  0  0  0  0
   -2.6964   -0.4545   -0.2507 C   0  0  0  0  0  0  0  0  0  0  0  0
   -3.6898    0.4505   -0.5500 N   0  0  0  0  0  0  0  0  0  0  0  0
   -3.4129    1.7737   -1.0761 C   0  0  0  0  0  0  0  0  0  0  0  0
   -4.7271    2.5247   -1.3052 C   0  0  0  0  0  0  0  0  0  0  0  0
   -5.5577    1.8169   -2.2279 O   0  0  0  0  0  0  0  0  0  0  0  0
   -1.4573   -0.1251   -0.0766 N   0  0  0  0  0  0  0  0  0  0  0  0
   -0.5354   -1.0940    0.2308 C   0  0  0  0  0  0  0  0  0  0  0  0
    0.7016   -0.7732    0.3608 N   0  0  0  0  0  0  0  0  0  0  0  0
    1.0538    0.6342    0.1743 C   0  0  0  0  0  0  0  0  0  0  0  0
    2.5368    0.8907    0.3495 C   0  0  0  0  0  0  0  0  0  0  0  0
    3.3036    0.1523    1.2608 C   0  0  0  0  0  0  0  0  0  0  0  0
    4.6646    0.4246    1.4445 C   0  0  0  0  0  0  0  0  0  0  0  0
    5.2774    1.4502    0.7261 C   0  0  0  0  0  0  0  0  0  0  0  0
    6.5919    1.8199    0.8106 O   0  0  0  0  0  0  0  0  0  0  0  0
    7.4117    1.0660    1.6944 C   0  0  0  0  0  0  0  0  0  0  0  0
    4.5158    2.2003   -0.1721 C   0  0  0  0  0  0  0  0  0  0  0  0
    3.1573    1.9288   -0.3573 C   0  0  0  0  0  0  0  0  0  0  0  0
   -0.7754   -2.4284    0.4283 N   0  0  0  0  0  0  0  0  0  0  0  0
   -1.9764   -2.8662    0.2677 C   0  0  0  0  0  0  0  0  0  0  0  0
   -1.6664   -4.8710    0.6500 H   0  0  0  0  0  0  0  0  0  0  0  0
   -3.8825   -5.5965    0.2767 H   0  0  0  0  0  0  0  0  0  0  0  0
   -5.5979   -3.9371   -0.4024 H   0  0  0  0  0  0  0  0  0  0  0  0
   -4.5734    0.0378   -0.8602 H   0  0  0  0  0  0  0  0  0  0  0  0
   -2.8804    1.6725   -2.0284 H   0  0  0  0  0  0  0  0  0  0  0  0
   -2.7831    2.3372   -0.3797 H   0  0  0  0  0  0  0  0  0  0  0  0
   -5.2843    2.6261   -0.3683 H   0  0  0  0  0  0  0  0  0  0  0  0
   -4.5383    3.5256   -1.7054 H   0  0  0  0  0  0  0  0  0  0  0  0
   -5.0876    1.7799   -3.0791 H   0  0  0  0  0  0  0  0  0  0  0  0
    0.7687    0.9518   -0.8372 H   0  0  0  0  0  0  0  0  0  0  0  0
    0.5286    1.2640    0.9038 H   0  0  0  0  0  0  0  0  0  0  0  0
    2.8400   -0.6507    1.8312 H   0  0  0  0  0  0  0  0  0  0  0  0
    5.2103   -0.1841    2.1567 H   0  0  0  0  0  0  0  0  0  0  0  0
    8.4260    1.4730    1.6381 H   0  0  0  0  0  0  0  0  0  0  0  0
    7.0708    1.1652    2.7303 H   0  0  0  0  0  0  0  0  0  0  0  0
    7.4582    0.0147    1.3913 H   0  0  0  0  0  0  0  0  0  0  0  0
    4.9846    3.0049   -0.7326 H   0  0  0  0  0  0  0  0  0  0  0  0
    2.5884    2.5331   -1.0593 H   0  0  0  0  0  0  0  0  0  0  0  0
  1  2  1  0
  2  3  2  0
  3  4  1  0
  4  5  2  0
  5  6  1  0
  6  7  1  0
  7  8  1  0
  8  9  1  0
  9 10  1  0
  6 11  2  0
 11 12  1  0
 12 13  2  3
 13 14  1  0
 14 15  1  0
 15 16  2  0
 16 17  1  0
 17 18  2  0
 18 19  1  0
 19 20  1  0
 18 21  1  0
 21 22  2  0
 12 23  1  0
 23 24  2  0
 24  1  1  0
 24  5  1  0
 22 15  1  0
  1 25  1  0
  2 26  1  0
  3 27  1  0
  7 28  1  0
  8 29  1  0
  8 30  1  0
  9 31  1  0
  9 32  1  0
 10 33  1  0
 14 34  1  0
 14 35  1  0
 16 36  1  0
 17 37  1  0
 20 38  1  0
 20 39  1  0
 20 40  1  0
 21 41  1  0
 22 42  1  0
M  END
>  <ScrubInfo>  (5) 
{"isomerGroup": 0, "isomerId": 4, "confId": 0, "nr_conformers:": 1, "nr_isomers:": 9}

$$$$
_i5
     RDKit          3D

 42 44  0  0  0  0  0  0  0  0999 V2000
   -1.4040   -2.2145   -0.2905 N   0  0  0  0  0  0  0  0  0  0  0  0
   -1.1002   -0.9894    0.1998 C   0  0  0  0  0  0  0  0  0  0  0  0
    0.2269   -0.7049    0.3091 N   0  0  0  0  0  0  0  0  0  0  0  0
    1.1796   -0.9780   -0.7514 C   0  0  0  0  0  0  0  0  0  0  0  0
    2.5066   -0.3466   -0.4122 C   0  0  0  0  0  0  0  0  0  0  0  0
    3.3466   -0.9301    0.5445 C   0  0  0  0  0  0  0  0  0  0  0  0
    4.5672   -0.3340    0.8696 C   0  0  0  0  0  0  0  0  0  0  0  0
    4.9676    0.8539    0.2545 C   0  0  0  0  0  0  0  0  0  0  0  0
    6.1827    1.3283    0.6647 O   0  0  0  0  0  0  0  0  0  0  0  0
    6.6296    2.5447    0.0795 C   0  0  0  0  0  0  0  0  0  0  0  0
    4.1311    1.4456   -0.6914 C   0  0  0  0  0  0  0  0  0  0  0  0
    2.9069    0.8511   -1.0202 C   0  0  0  0  0  0  0  0  0  0  0  0
   -1.9612   -0.0916    0.5699 N   0  0  0  0  0  0  0  0  0  0  0  0
   -3.3120   -0.3779    0.4521 C   0  0  0  0  0  0  0  0  0  0  0  0
   -4.1927    0.5223    0.7391 N   0  0  0  0  0  0  0  0  0  0  0  0
   -3.7339    1.8253    1.2184 C   0  0  0  0  0  0  0  0  0  0  0  0
   -3.4054    2.7574    0.0528 C   0  0  0  0  0  0  0  0  0  0  0  0
   -2.8892    3.9999    0.5261 O   0  0  0  0  0  0  0  0  0  0  0  0
   -3.7444   -1.7292   -0.0154 C   0  0  0  0  0  0  0  0  0  0  0  0
   -5.0680   -2.0428   -0.0728 N   0  0  0  0  0  0  0  0  0  0  0  0
   -5.3313   -3.3020   -0.4802 C   0  0  0  0  0  0  0  0  0  0  0  0
   -4.3275   -4.2004   -0.8118 C   0  0  0  0  0  0  0  0  0  0  0  0
   -3.0093   -3.8837   -0.7567 N   0  0  0  0  0  0  0  0  0  0  0  0
   -2.7290   -2.6216   -0.3511 C   0  0  0  0  0  0  0  0  0  0  0  0
   -0.7206   -2.9407   -0.4220 H   0  0  0  0  0  0  0  0  0  0  0  0
    0.3446    0.2372    0.6768 H   0  0  0  0  0  0  0  0  0  0  0  0
    1.3194   -2.0574   -0.8823 H   0  0  0  0  0  0  0  0  0  0  0  0
    0.8073   -0.5828   -1.7044 H   0  0  0  0  0  0  0  0  0  0  0  0
    3.0526   -1.8482    1.0488 H   0  0  0  0  0  0  0  0  0  0  0  0
    5.2111   -0.7971    1.6137 H   0  0  0  0  0  0  0  0  0  0  0  0
    7.6046    2.7862    0.5137 H   0  0  0  0  0  0  0  0  0  0  0  0
    5.9478    3.3692    0.3129 H   0  0  0  0  0  0  0  0  0  0  0  0
    6.7644    2.4363   -1.0018 H   0  0  0  0  0  0  0  0  0  0  0  0
    4.3986    2.3709   -1.1910 H   0  0  0  0  0  0  0  0  0  0  0  0
    2.2683    1.3357   -1.7564 H   0  0  0  0  0  0  0  0  0  0  0  0
   -2.8873    1.7465    1.9122 H   0  0  0  0  0  0  0  0  0  0  0  0
   -4.5356    2.2758    1.8162 H   0  0  0  0  0  0  0  0  0  0  0  0
   -4.3040    2.9643   -0.5373 H   0  0  0  0  0  0  0  0  0  0  0  0
   -2.6628    2.3177   -0.6204 H   0  0  0  0  0  0  0  0  0  0  0  0
   -2.1056    3.7901    1.0624 H   0  0  0  0  0  0  0  0  0  0  0  0
   -6.3795   -3.5757   -0.5326 H   0  0  0  0  0  0  0  0  0  0  0  0
   -4.5596   -5.2096   -1.1353 H   0  0  0  0  0  0  0  0  0  0  0  0
  1  2  1  0
  2  3  1  0
  3  4  1  0
  4  5  1  0
  5  6  2  0
  6  7  1  0
  7  8  2  0
  8  9  1  0
  9 10  1  0
  8 11  1  0
 11 12  2  0
  2 13  2  0
 13 14  1  0
 14 15  2  3
 15 16  1  0
 16 17  1  0
 17 18  1  0
 14 19  1  0
 19 20  2  0
 20 21  1  0
 21 22  2  0
 22 23  1  0
 23 24  2  0
 24  1  1  0
 12  5  1  0
 24 19  1  0
  1 25  1  0
  3 26  1  0
  4 27  1  0
  4 28  1  0
  6 29  1  0
  7 30  1  0
 10 31  1  0
 10 32  1  0
 10 33  1  0
 11 34  1  0
 12 35  1  0
 16 36  1  0
 16 37  1  0
 17 38  1  0
 17 39  1  0
 18 40  1  0
 21 41  1  0
 22 42  1  0
M  END
>  <ScrubInfo>  (6) 
{"isomerGroup": 0, "isomerId": 5, "confId": 0, "nr_conformers:": 1, "nr_isomers:": 9}

$$$$
_i6
     RDKit          3D

 42 44  0  0  0  0  0  0  0  0999 V2000
   -3.0053   -2.9854    0.8135 N   0  0  0  0  0  0  0  0  0  0  0  0
   -4.3421   -3.1899    0.6128 C   0  0  0  0  0  0  0  0  0  0  0  0
   -5.1463   -2.1745    0.2606 C   0  0  0  0  0  0  0  0  0  0  0  0
   -4.7120   -0.8753    0.0884 N   0  0  0  0  0  0  0  0  0  0  0  0
   -3.4371   -0.6379    0.2705 C   0  0  0  0  0  0  0  0  0  0  0  0
   -2.7985    0.7166    0.1383 C   0  0  0  0  0  0  0  0  0  0  0  0
   -3.3956    1.8469   -0.0113 N   0  0  0  0  0  0  0  0  0  0  0  0
   -4.8481    1.9967   -0.0336 C   0  0  0  0  0  0  0  0  0  0  0  0
   -5.3510    1.8840   -1.4725 C   0  0  0  0  0  0  0  0  0  0  0  0
   -4.6824    2.8468   -2.2890 O   0  0  0  0  0  0  0  0  0  0  0  0
   -1.4345    0.8102    0.1740 N   0  0  0  0  0  0  0  0  0  0  0  0
   -0.7142   -0.2342    0.4411 C   0  0  0  0  0  0  0  0  0  0  0  0
    0.6311   -0.0422    0.4770 N   0  0  0  0  0  0  0  0  0  0  0  0
    1.5874   -1.1069    0.3109 C   0  0  0  0  0  0  0  0  0  0  0  0
    2.9855   -0.5411    0.3557 C   0  0  0  0  0  0  0  0  0  0  0  0
    3.5872   -0.2343    1.5824 C   0  0  0  0  0  0  0  0  0  0  0  0
    4.8738    0.3079    1.6218 C   0  0  0  0  0  0  0  0  0  0  0  0
    5.5776    0.5615    0.4427 C   0  0  0  0  0  0  0  0  0  0  0  0
    6.8247    1.0923    0.6244 O   0  0  0  0  0  0  0  0  0  0  0  0
    7.5729    1.3923   -0.5469 C   0  0  0  0  0  0  0  0  0  0  0  0
    4.9795    0.2692   -0.7829 C   0  0  0  0  0  0  0  0  0  0  0  0
    3.6903   -0.2750   -0.8262 C   0  0  0  0  0  0  0  0  0  0  0  0
   -1.1948   -1.4920    0.6802 N   0  0  0  0  0  0  0  0  0  0  0  0
   -2.4598   -1.7423    0.6114 C   0  0  0  0  0  0  0  0  0  0  0  0
   -2.3967   -3.7687    1.0103 H   0  0  0  0  0  0  0  0  0  0  0  0
   -4.6983   -4.2055    0.7477 H   0  0  0  0  0  0  0  0  0  0  0  0
   -6.2079   -2.3460    0.0990 H   0  0  0  0  0  0  0  0  0  0  0  0
   -5.0631    3.0090    0.3299 H   0  0  0  0  0  0  0  0  0  0  0  0
   -5.3712    1.3239    0.6499 H   0  0  0  0  0  0  0  0  0  0  0  0
   -6.4263    2.0766   -1.5244 H   0  0  0  0  0  0  0  0  0  0  0  0
   -5.1520    0.8963   -1.8969 H   0  0  0  0  0  0  0  0  0  0  0  0
   -3.7735    2.8931   -1.9276 H   0  0  0  0  0  0  0  0  0  0  0  0
    0.9113    0.8649    0.1220 H   0  0  0  0  0  0  0  0  0  0  0  0
    1.4238   -1.6201   -0.6446 H   0  0  0  0  0  0  0  0  0  0  0  0
    1.4772   -1.8586    1.1019 H   0  0  0  0  0  0  0  0  0  0  0  0
    3.0541   -0.4097    2.5147 H   0  0  0  0  0  0  0  0  0  0  0  0
    5.3303    0.5406    2.5810 H   0  0  0  0  0  0  0  0  0  0  0  0
    7.7808    0.4860   -1.1251 H   0  0  0  0  0  0  0  0  0  0  0  0
    7.0642    2.1446   -1.1588 H   0  0  0  0  0  0  0  0  0  0  0  0
    8.5325    1.8133   -0.2318 H   0  0  0  0  0  0  0  0  0  0  0  0
    5.4860    0.4545   -1.7242 H   0  0  0  0  0  0  0  0  0  0  0  0
    3.2401   -0.4876   -1.7939 H   0  0  0  0  0  0  0  0  0  0  0  0
  1  2  1  0
  2  3  2  0
  3  4  1  0
  4  5  2  0
  5  6  1  0
  6  7  2  3
  7  8  1  0
  8  9  1  0
  9 10  1  0
  6 11  1  0
 11 12  2  0
 12 13  1  0
 13 14  1  0
 14 15  1  0
 15 16  2  0
 16 17  1  0
 17 18  2  0
 18 19  1  0
 19 20  1  0
 18 21  1  0
 21 22  2  0
 12 23  1  0
 23 24  2  0
 24  1  1  0
 24  5  1  0
 22 15  1  0
  1 25  1  0
  2 26  1  0
  3 27  1  0
  8 28  1  0
  8 29  1  0
  9 30  1  0
  9 31  1  0
 10 32  1  0
 13 33  1  0
 14 34  1  0
 14 35  1  0
 16 36  1  0
 17 37  1  0
 20 38  1  0
 20 39  1  0
 20 40  1  0
 21 41  1  0
 22 42  1  0
M  END
>  <ScrubInfo>  (7) 
{"isomerGroup": 0, "isomerId": 6, "confId": 0, "nr_conformers:": 1, "nr_isomers:": 9}

$$$$
_i7
     RDKit          3D

 42 44  0  0  0  0  0  0  0  0999 V2000
   -1.0824   -2.1613   -0.0378 N   0  0  0  0  0  0  0  0  0  0  0  0
   -0.7305   -0.8418   -0.0828 C   0  0  0  0  0  0  0  0  0  0  0  0
    0.4535   -0.3326   -0.1104 N   0  0  0  0  0  0  0  0  0  0  0  0
    1.5965   -1.2455   -0.0976 C   0  0  0  0  0  0  0  0  0  0  0  0
    2.9100   -0.4993   -0.1068 C   0  0  0  0  0  0  0  0  0  0  0  0
    3.9310   -0.8578   -0.9946 C   0  0  0  0  0  0  0  0  0  0  0  0
    5.1545   -0.1824   -0.9748 C   0  0  0  0  0  0  0  0  0  0  0  0
    5.3834    0.8557   -0.0693 C   0  0  0  0  0  0  0  0  0  0  0  0
    6.6219    1.4296   -0.1578 O   0  0  0  0  0  0  0  0  0  0  0  0
    6.8924    2.5088    0.7274 C   0  0  0  0  0  0  0  0  0  0  0  0
    4.3740    1.2134    0.8232 C   0  0  0  0  0  0  0  0  0  0  0  0
    3.1483    0.5377    0.8057 C   0  0  0  0  0  0  0  0  0  0  0  0
   -1.7976    0.0158   -0.0998 N   0  0  0  0  0  0  0  0  0  0  0  0
   -3.1487   -0.2606   -0.0788 C   0  0  0  0  0  0  0  0  0  0  0  0
   -4.1135    0.5989   -0.0977 N   0  0  0  0  0  0  0  0  0  0  0  0
   -3.7994    2.0219   -0.1421 C   0  0  0  0  0  0  0  0  0  0  0  0
   -5.0952    2.8271   -0.0542 C   0  0  0  0  0  0  0  0  0  0  0  0
   -4.8266    4.2171   -0.2183 O   0  0  0  0  0  0  0  0  0  0  0  0
   -3.4838   -1.7217   -0.0305 C   0  0  0  0  0  0  0  0  0  0  0  0
   -4.7856   -2.1122   -0.0084 N   0  0  0  0  0  0  0  0  0  0  0  0
   -4.9694   -3.4479    0.0359 C   0  0  0  0  0  0  0  0  0  0  0  0
   -3.9103   -4.3438    0.0558 C   0  0  0  0  0  0  0  0  0  0  0  0
   -2.6114   -3.9507    0.0322 N   0  0  0  0  0  0  0  0  0  0  0  0
   -2.4024   -2.6129   -0.0115 C   0  0  0  0  0  0  0  0  0  0  0  0
   -0.4005   -2.9027   -0.0190 H   0  0  0  0  0  0  0  0  0  0  0  0
    1.5786   -1.8760    0.8004 H   0  0  0  0  0  0  0  0  0  0  0  0
    1.5481   -1.9027   -0.9750 H   0  0  0  0  0  0  0  0  0  0  0  0
    3.7848   -1.6616   -1.7118 H   0  0  0  0  0  0  0  0  0  0  0  0
    5.9375   -0.4677   -1.6731 H   0  0  0  0  0  0  0  0  0  0  0  0
    7.9083    2.8611    0.5242 H   0  0  0  0  0  0  0  0  0  0  0  0
    6.2086    3.3458    0.5513 H   0  0  0  0  0  0  0  0  0  0  0  0
    6.8568    2.1810    1.7717 H   0  0  0  0  0  0  0  0  0  0  0  0
    4.5033    2.0117    1.5457 H   0  0  0  0  0  0  0  0  0  0  0  0
    2.3688    0.8295    1.5070 H   0  0  0  0  0  0  0  0  0  0  0  0
   -1.5166    0.9855   -0.1344 H   0  0  0  0  0  0  0  0  0  0  0  0
   -3.2806    2.2744   -1.0749 H   0  0  0  0  0  0  0  0  0  0  0  0
   -3.1460    2.3152    0.6887 H   0  0  0  0  0  0  0  0  0  0  0  0
   -5.5700    2.6831    0.9217 H   0  0  0  0  0  0  0  0  0  0  0  0
   -5.8115    2.5168   -0.8227 H   0  0  0  0  0  0  0  0  0  0  0  0
   -4.5980    4.3519   -1.1539 H   0  0  0  0  0  0  0  0  0  0  0  0
   -5.9998   -3.7859    0.0555 H   0  0  0  0  0  0  0  0  0  0  0  0
   -4.0803   -5.4148    0.0917 H   0  0  0  0  0  0  0  0  0  0  0  0
  1  2  1  0
  2  3  2  3
  3  4  1  0
  4  5  1  0
  5  6  2  0
  6  7  1  0
  7  8  2  0
  8  9  1  0
  9 10  1  0
  8 11  1  0
 11 12  2  0
  2 13  1  0
 13 14  1  0
 14 15  2  3
 15 16  1  0
 16 17  1  0
 17 18  1  0
 14 19  1  0
 19 20  2  0
 20 21  1  0
 21 22  2  0
 22 23  1  0
 23 24  2  0
 24  1  1  0
 12  5  1  0
 24 19  1  0
  1 25  1  0
  4 26  1  0
  4 27  1  0
  6 28  1  0
  7 29  1  0
 10 30  1  0
 10 31  1  0
 10 32  1  0
 11 33  1  0
 12 34  1  0
 13 35  1  0
 16 36  1  0
 16 37  1  0
 17 38  1  0
 17 39  1  0
 18 40  1  0
 21 41  1  0
 22 42  1  0
M  END
>  <ScrubInfo>  (8) 
{"isomerGroup": 0, "isomerId": 7, "confId": 0, "nr_conformers:": 1, "nr_isomers:": 9}

$$$$
_i8
     RDKit          3D

 42 44  0  0  0  0  0  0  0  0999 V2000
   -2.6660   -3.1776    0.2663 N   0  0  0  0  0  0  0  0  0  0  0  0
   -4.0090   -3.4190    0.2065 C   0  0  0  0  0  0  0  0  0  0  0  0
   -4.8844   -2.4132    0.0596 C   0  0  0  0  0  0  0  0  0  0  0  0
   -4.5235   -1.0865   -0.0412 N   0  0  0  0  0  0  0  0  0  0  0  0
   -3.2502   -0.7932    0.0101 C   0  0  0  0  0  0  0  0  0  0  0  0
   -2.7394    0.6344   -0.0903 C   0  0  0  0  0  0  0  0  0  0  0  0
   -3.4256    1.7208   -0.2307 N   0  0  0  0  0  0  0  0  0  0  0  0
   -4.8821    1.6827   -0.3131 C   0  0  0  0  0  0  0  0  0  0  0  0
   -5.4030    3.1120   -0.4720 C   0  0  0  0  0  0  0  0  0  0  0  0
   -6.8241    3.1110   -0.5573 O   0  0  0  0  0  0  0  0  0  0  0  0
   -1.3820    0.6943   -0.0150 N   0  0  0  0  0  0  0  0  0  0  0  0
   -0.4967   -0.3241    0.1332 C   0  0  0  0  0  0  0  0  0  0  0  0
    0.7606   -0.0392    0.1822 N   0  0  0  0  0  0  0  0  0  0  0  0
    1.6949   -1.1520    0.3465 C   0  0  0  0  0  0  0  0  0  0  0  0
    3.1196   -0.6497    0.3861 C   0  0  0  0  0  0  0  0  0  0  0  0
    3.8130   -0.5505    1.5973 C   0  0  0  0  0  0  0  0  0  0  0  0
    5.1272   -0.0766    1.6208 C   0  0  0  0  0  0  0  0  0  0  0  0
    5.7669    0.3139    0.4422 C   0  0  0  0  0  0  0  0  0  0  0  0
    7.0504    0.7574    0.6078 O   0  0  0  0  0  0  0  0  0  0  0  0
    7.7368    1.1833   -0.5621 C   0  0  0  0  0  0  0  0  0  0  0  0
    5.0764    0.2295   -0.7666 C   0  0  0  0  0  0  0  0  0  0  0  0
    3.7603   -0.2459   -0.7928 C   0  0  0  0  0  0  0  0  0  0  0  0
   -0.9101   -1.6282    0.2288 N   0  0  0  0  0  0  0  0  0  0  0  0
   -2.1810   -1.8965    0.1771 C   0  0  0  0  0  0  0  0  0  0  0  0
   -2.0171   -3.9455    0.3773 H   0  0  0  0  0  0  0  0  0  0  0  0
   -4.3135   -4.4571    0.2842 H   0  0  0  0  0  0  0  0  0  0  0  0
   -5.9516   -2.6173    0.0132 H   0  0  0  0  0  0  0  0  0  0  0  0
   -5.2175    1.0959   -1.1759 H   0  0  0  0  0  0  0  0  0  0  0  0
   -5.3221    1.2549    0.5950 H   0  0  0  0  0  0  0  0  0  0  0  0
   -5.1053    3.7268    0.3842 H   0  0  0  0  0  0  0  0  0  0  0  0
   -4.9992    3.5693   -1.3816 H   0  0  0  0  0  0  0  0  0  0  0  0
   -7.0973    4.0389   -0.6543 H   0  0  0  0  0  0  0  0  0  0  0  0
   -0.9689    1.6145   -0.0709 H   0  0  0  0  0  0  0  0  0  0  0  0
    1.6080   -1.8640   -0.4850 H   0  0  0  0  0  0  0  0  0  0  0  0
    1.4842   -1.7016    1.2731 H   0  0  0  0  0  0  0  0  0  0  0  0
    3.3343   -0.8365    2.5305 H   0  0  0  0  0  0  0  0  0  0  0  0
    5.6559   -0.0061    2.5680 H   0  0  0  0  0  0  0  0  0  0  0  0
    7.8547    0.3588   -1.2730 H   0  0  0  0  0  0  0  0  0  0  0  0
    8.7375    1.5092   -0.2624 H   0  0  0  0  0  0  0  0  0  0  0  0
    7.2339    2.0380   -1.0264 H   0  0  0  0  0  0  0  0  0  0  0  0
    5.5271    0.5286   -1.7063 H   0  0  0  0  0  0  0  0  0  0  0  0
    3.2282   -0.2942   -1.7404 H   0  0  0  0  0  0  0  0  0  0  0  0
  1  2  1  0
  2  3  2  0
  3  4  1  0
  4  5  2  0
  5  6  1  0
  6  7  2  3
  7  8  1  0
  8  9  1  0
  9 10  1  0
  6 11  1  0
 11 12  1  0
 12 13  2  3
 13 14  1  0
 14 15  1  0
 15 16  2  0
 16 17  1  0
 17 18  2  0
 18 19  1  0
 19 20  1  0
 18 21  1  0
 21 22  2  0
 12 23  1  0
 23 24  2  0
 24  1  1  0
 24  5  1  0
 22 15  1  0
  1 25  1  0
  2 26  1  0
  3 27  1  0
  8 28  1  0
  8 29  1  0
  9 30  1  0
  9 31  1  0
 10 32  1  0
 11 33  1  0
 14 34  1  0
 14 35  1  0
 16 36  1  0
 17 37  1  0
 20 38  1  0
 20 39  1  0
 20 40  1  0
 21 41  1  0
 22 42  1  0
M  END
>  <ScrubInfo>  (9) 
{"isomerGroup": 0, "isomerId": 8, "confId": 0, "nr_conformers:": 1, "nr_isomers:": 9}

$$$$
