_i0
     RDKit          3D

 49 51  0  0  0  0  0  0  0  0999 V2000
    7.7757   -1.0106    0.7316 C   0  0  0  0  0  0  0  0  0  0  0  0
    7.0256   -0.0453    0.0052 O   0  0  0  0  0  0  0  0  0  0  0  0
    6.0556   -0.6267   -0.8645 C   0  0  0  0  0  0  0  0  0  0  0  0
    4.7985   -1.0742   -0.1254 C   0  0  0  0  0  0  0  0  0  0  0  0
    4.1658    0.0755    0.6595 C   0  0  0  0  0  0  0  0  0  0  0  0
    2.9374   -0.3640    1.3059 N   0  0  0  0  0  0  0  0  0  0  0  0
    1.7628   -0.1313    0.5998 C   0  0  0  0  0  0  0  0  0  0  0  0
    0.7014    0.1644    1.3711 N   0  0  0  0  0  0  0  0  0  0  0  0
   -0.5130    0.4069    0.8114 C   0  0  0  0  0  0  0  0  0  0  0  0
   -1.5532    0.7032    1.7196 N   0  0  0  0  0  0  0  0  0  0  0  0
   -2.9187    0.4097    1.5074 C   0  0  0  0  0  0  0  0  0  0  0  0
   -3.7457    1.4123    0.9816 C   0  0  0  0  0  0  0  0  0  0  0  0
   -5.1016    1.1755    0.6983 C   0  0  0  0  0  0  0  0  0  0  0  0
   -5.9399    2.2904    0.1343 C   0  0  0  0  0  0  0  0  0  0  0  0
   -5.6433   -0.1009    0.9421 C   0  0  0  0  0  0  0  0  0  0  0  0
   -7.0877   -0.4086    0.6540 C   0  0  0  0  0  0  0  0  0  0  0  0
   -4.8181   -1.1073    1.4683 C   0  0  0  0  0  0  0  0  0  0  0  0
   -3.4714   -0.8557    1.7455 C   0  0  0  0  0  0  0  0  0  0  0  0
   -2.4284   -2.2719    2.4633 Br  0  0  0  0  0  0  0  0  0  0  0  0
   -0.6108    0.3377   -0.5814 C   0  0  0  0  0  0  0  0  0  0  0  0
   -1.5796    0.4866   -1.5964 C   0  0  0  0  0  0  0  0  0  0  0  0
   -1.0858    0.2982   -2.8265 N   0  0  0  0  0  0  0  0  0  0  0  0
    0.2152    0.0149   -2.5938 N   0  0  0  0  0  0  0  0  0  0  0  0
    1.0894   -0.2640   -3.7048 C   0  0  0  0  0  0  0  0  0  0  0  0
    0.5487    0.0290   -1.2676 C   0  0  0  0  0  0  0  0  0  0  0  0
    1.7560   -0.2103   -0.7360 N   0  0  0  0  0  0  0  0  0  0  0  0
    8.2885   -1.6944    0.0484 H   0  0  0  0  0  0  0  0  0  0  0  0
    8.5288   -0.4823    1.3227 H   0  0  0  0  0  0  0  0  0  0  0  0
    7.1336   -1.5705    1.4166 H   0  0  0  0  0  0  0  0  0  0  0  0
    5.7867    0.1409   -1.5988 H   0  0  0  0  0  0  0  0  0  0  0  0
    6.4972   -1.4604   -1.4228 H   0  0  0  0  0  0  0  0  0  0  0  0
    4.0912   -1.4846   -0.8548 H   0  0  0  0  0  0  0  0  0  0  0  0
    5.0361   -1.8894    0.5680 H   0  0  0  0  0  0  0  0  0  0  0  0
    4.8591    0.3911    1.4484 H   0  0  0  0  0  0  0  0  0  0  0  0
    4.0040    0.9559    0.0242 H   0  0  0  0  0  0  0  0  0  0  0  0
    2.7773    0.0330    2.2264 H   0  0  0  0  0  0  0  0  0  0  0  0
   -1.2251    0.2949    2.5960 H   0  0  0  0  0  0  0  0  0  0  0  0
   -3.3176    2.3962    0.7938 H   0  0  0  0  0  0  0  0  0  0  0  0
   -5.3624    3.2151    0.0302 H   0  0  0  0  0  0  0  0  0  0  0  0
   -6.7849    2.5040    0.7964 H   0  0  0  0  0  0  0  0  0  0  0  0
   -6.3121    2.0200   -0.8589 H   0  0  0  0  0  0  0  0  0  0  0  0
   -7.3067   -0.2489   -0.4065 H   0  0  0  0  0  0  0  0  0  0  0  0
   -7.7398    0.2263    1.2621 H   0  0  0  0  0  0  0  0  0  0  0  0
   -7.3314   -1.4507    0.8864 H   0  0  0  0  0  0  0  0  0  0  0  0
   -5.2300   -2.0958    1.6615 H   0  0  0  0  0  0  0  0  0  0  0  0
   -2.6299    0.7234   -1.4988 H   0  0  0  0  0  0  0  0  0  0  0  0
    1.0997    0.6094   -4.3618 H   0  0  0  0  0  0  0  0  0  0  0  0
    2.1005   -0.4679   -3.3451 H   0  0  0  0  0  0  0  0  0  0  0  0
    0.7024   -1.1372   -4.2360 H   0  0  0  0  0  0  0  0  0  0  0  0
  1  2  1  0
  2  3  1  0
  3  4  1  0
  4  5  1  0
  5  6  1  0
  6  7  1  0
  7  8  2  0
  8  9  1  0
  9 10  1  0
 10 11  1  0
 11 12  2  0
 12 13  1  0
 13 14  1  0
 13 15  2  0
 15 16  1  0
 15 17  1  0
 17 18  2  0
 18 19  1  0
  9 20  2  0
 20 21  1  0
 21 22  2  0
 22 23  1  0
 23 24  1  0
 23 25  1  0
 25 26  2  0
 26  7  1  0
 18 11  1  0
 25 20  1  0
  1 27  1  0
  1 28  1  0
  1 29  1  0
  3 30  1  0
  3 31  1  0
  4 32  1  0
  4 33  1  0
  5 34  1  0
  5 35  1  0
  6 36  1  0
 10 37  1  0
 12 38  1  0
 14 39  1  0
 14 40  1  0
 14 41  1  0
 16 42  1  0
 16 43  1  0
 16 44  1  0
 17 45  1  0
 21 46  1  0
 24 47  1  0
 24 48  1  0
 24 49  1  0
M  END
>  <ScrubInfo>  (1) 
{"isomerGroup": 0, "isomerId": 0, "confId": 0, "nr_conformers:": 1, "nr_isomers:": 9}

$$$$
_i1
     RDKit          3D

 49 51  0  0  0  0  0  0  0  0999 V2000
    0.4494   -1.4099   -0.3570 N   0  0  0  0  0  0  0  0  0  0  0  0
   -0.5803   -0.6412   -0.8582 C   0  0  0  0  0  0  0  0  0  0  0  0
   -1.6249   -1.2207   -1.5465 N   0  0  0  0  0  0  0  0  0  0  0  0
   -3.0153   -1.0914   -1.3036 C   0  0  0  0  0  0  0  0  0  0  0  0
   -3.5304   -0.3627   -0.2210 C   0  0  0  0  0  0  0  0  0  0  0  0
   -4.9150   -0.1904   -0.0286 C   0  0  0  0  0  0  0  0  0  0  0  0
   -5.3981    0.5951    1.1618 C   0  0  0  0  0  0  0  0  0  0  0  0
   -5.8183   -0.7599   -0.9441 C   0  0  0  0  0  0  0  0  0  0  0  0
   -7.3059   -0.6044   -0.7825 C   0  0  0  0  0  0  0  0  0  0  0  0
   -5.3169   -1.4869   -2.0318 C   0  0  0  0  0  0  0  0  0  0  0  0
   -3.9388   -1.6458   -2.2084 C   0  0  0  0  0  0  0  0  0  0  0  0
   -3.3518   -2.6488   -3.7164 Br  0  0  0  0  0  0  0  0  0  0  0  0
   -0.4305    0.6794   -0.6956 C   0  0  0  0  0  0  0  0  0  0  0  0
   -1.1231    1.9100   -1.0923 C   0  0  0  0  0  0  0  0  0  0  0  0
   -0.5160    2.9946   -0.6791 N   0  0  0  0  0  0  0  0  0  0  0  0
    0.5976    2.5466    0.0538 N   0  0  0  0  0  0  0  0  0  0  0  0
    1.6641    3.4797    0.3295 C   0  0  0  0  0  0  0  0  0  0  0  0
    0.7572    1.1695    0.0363 C   0  0  0  0  0  0  0  0  0  0  0  0
    1.7012    0.4324    0.5156 N   0  0  0  0  0  0  0  0  0  0  0  0
    1.5404   -0.9203    0.3146 C   0  0  0  0  0  0  0  0  0  0  0  0
    2.4166   -1.7619    0.7532 N   0  0  0  0  0  0  0  0  0  0  0  0
    3.5810   -1.2469    1.4757 C   0  0  0  0  0  0  0  0  0  0  0  0
    4.7108   -0.9441    0.4981 C   0  0  0  0  0  0  0  0  0  0  0  0
    5.9493   -0.4402    1.2262 C   0  0  0  0  0  0  0  0  0  0  0  0
    6.9710   -0.1804    0.2632 O   0  0  0  0  0  0  0  0  0  0  0  0
    8.1618    0.2928    0.8774 C   0  0  0  0  0  0  0  0  0  0  0  0
    0.3879   -2.4138   -0.4209 H   0  0  0  0  0  0  0  0  0  0  0  0
   -1.4065   -2.1305   -1.9465 H   0  0  0  0  0  0  0  0  0  0  0  0
   -2.8550    0.0647    0.5164 H   0  0  0  0  0  0  0  0  0  0  0  0
   -5.9917   -0.0446    1.8224 H   0  0  0  0  0  0  0  0  0  0  0  0
   -6.0031    1.4470    0.8358 H   0  0  0  0  0  0  0  0  0  0  0  0
   -4.5631    0.9926    1.7486 H   0  0  0  0  0  0  0  0  0  0  0  0
   -7.8536   -1.1297   -1.5723 H   0  0  0  0  0  0  0  0  0  0  0  0
   -7.5850    0.4527   -0.8345 H   0  0  0  0  0  0  0  0  0  0  0  0
   -7.6308   -1.0223    0.1756 H   0  0  0  0  0  0  0  0  0  0  0  0
   -6.0057   -1.9302   -2.7481 H   0  0  0  0  0  0  0  0  0  0  0  0
   -2.0391    1.8795   -1.6960 H   0  0  0  0  0  0  0  0  0  0  0  0
    2.3274    3.5677   -0.5366 H   0  0  0  0  0  0  0  0  0  0  0  0
    2.2559    3.1523    1.1903 H   0  0  0  0  0  0  0  0  0  0  0  0
    1.2608    4.4711    0.5598 H   0  0  0  0  0  0  0  0  0  0  0  0
    3.9056   -2.0258    2.1760 H   0  0  0  0  0  0  0  0  0  0  0  0
    3.3433   -0.3741    2.0958 H   0  0  0  0  0  0  0  0  0  0  0  0
    4.9628   -1.8418   -0.0808 H   0  0  0  0  0  0  0  0  0  0  0  0
    4.3950   -0.1991   -0.2427 H   0  0  0  0  0  0  0  0  0  0  0  0
    6.3038   -1.1946    1.9381 H   0  0  0  0  0  0  0  0  0  0  0  0
    5.7192    0.4833    1.7702 H   0  0  0  0  0  0  0  0  0  0  0  0
    7.9734    1.2328    1.4050 H   0  0  0  0  0  0  0  0  0  0  0  0
    8.5592   -0.4554    1.5700 H   0  0  0  0  0  0  0  0  0  0  0  0
    8.9042    0.4740    0.0955 H   0  0  0  0  0  0  0  0  0  0  0  0
  1  2  1  0
  2  3  1  0
  3  4  1  0
  4  5  2  0
  5  6  1  0
  6  7  1  0
  6  8  2  0
  8  9  1  0
  8 10  1  0
 10 11  2  0
 11 12  1  0
  2 13  2  0
 13 14  1  0
 14 15  2  0
 15 16  1  0
 16 17  1  0
 16 18  1  0
 18 19  2  0
 19 20  1  0
 20 21  2  3
 21 22  1  0
 22 23  1  0
 23 24  1  0
 24 25  1  0
 25 26  1  0
 20  1  1  0
 11  4  1  0
 18 13  1  0
  1 27  1  0
  3 28  1  0
  5 29  1  0
  7 30  1  0
  7 31  1  0
  7 32  1  0
  9 33  1  0
  9 34  1  0
  9 35  1  0
 10 36  1  0
 14 37  1  0
 17 38  1  0
 17 39  1  0
 17 40  1  0
 22 41  1  0
 22 42  1  0
 23 43  1  0
 23 44  1  0
 24 45  1  0
 24 46  1  0
 26 47  1  0
 26 48  1  0
 26 49  1  0
M  END
>  <ScrubInfo>  (2) 
{"isomerGroup": 0, "isomerId": 1, "confId": 0, "nr_conformers:": 1, "nr_isomers:": 9}

$$$$
_i2
     RDKit          3D

 49 51  0  0  0  0  0  0  0  0999 V2000
    0.9815    0.2296    1.2047 N   0  0  0  0  0  0  0  0  0  0  0  0
    1.8573   -0.8005    1.4311 C   0  0  0  0  0  0  0  0  0  0  0  0
    3.0713   -0.4643    1.9610 N   0  0  0  0  0  0  0  0  0  0  0  0
    3.8948    0.6277    1.4595 C   0  0  0  0  0  0  0  0  0  0  0  0
    4.4583    0.3016    0.0816 C   0  0  0  0  0  0  0  0  0  0  0  0
    5.3462    1.4275   -0.4324 C   0  0  0  0  0  0  0  0  0  0  0  0
    5.8666    1.0425   -1.7024 O   0  0  0  0  0  0  0  0  0  0  0  0
    6.6880    2.0564   -2.2666 C   0  0  0  0  0  0  0  0  0  0  0  0
    1.5885   -2.0578    1.1845 N   0  0  0  0  0  0  0  0  0  0  0  0
    0.3443   -2.2066    0.6466 C   0  0  0  0  0  0  0  0  0  0  0  0
   -0.6039   -1.2303    0.3771 C   0  0  0  0  0  0  0  0  0  0  0  0
   -1.6881   -1.9413   -0.1668 C   0  0  0  0  0  0  0  0  0  0  0  0
   -1.4608   -3.2590   -0.2414 N   0  0  0  0  0  0  0  0  0  0  0  0
   -0.2107   -3.3930    0.2569 N   0  0  0  0  0  0  0  0  0  0  0  0
    0.3839   -4.7038    0.3275 C   0  0  0  0  0  0  0  0  0  0  0  0
   -0.2934    0.1501    0.6958 C   0  0  0  0  0  0  0  0  0  0  0  0
   -1.0391    1.2058    0.5701 N   0  0  0  0  0  0  0  0  0  0  0  0
   -2.3326    1.1398    0.0348 C   0  0  0  0  0  0  0  0  0  0  0  0
   -3.4141    0.9656    0.9068 C   0  0  0  0  0  0  0  0  0  0  0  0
   -4.7374    0.9137    0.4360 C   0  0  0  0  0  0  0  0  0  0  0  0
   -5.8583    0.7048    1.4175 C   0  0  0  0  0  0  0  0  0  0  0  0
   -4.9839    1.0549   -0.9435 C   0  0  0  0  0  0  0  0  0  0  0  0
   -6.3809    1.0058   -1.5001 C   0  0  0  0  0  0  0  0  0  0  0  0
   -3.9035    1.2600   -1.8162 C   0  0  0  0  0  0  0  0  0  0  0  0
   -2.5931    1.3093   -1.3314 C   0  0  0  0  0  0  0  0  0  0  0  0
   -1.1884    1.5972   -2.5777 Br  0  0  0  0  0  0  0  0  0  0  0  0
    1.2262    1.1390    1.5568 H   0  0  0  0  0  0  0  0  0  0  0  0
    3.6174   -1.3156    2.0843 H   0  0  0  0  0  0  0  0  0  0  0  0
    3.3280    1.5647    1.4351 H   0  0  0  0  0  0  0  0  0  0  0  0
    4.7185    0.7804    2.1664 H   0  0  0  0  0  0  0  0  0  0  0  0
    3.6481    0.1219   -0.6364 H   0  0  0  0  0  0  0  0  0  0  0  0
    5.0321   -0.6335    0.1154 H   0  0  0  0  0  0  0  0  0  0  0  0
    4.7642    2.3504   -0.5380 H   0  0  0  0  0  0  0  0  0  0  0  0
    6.1759    1.6055    0.2614 H   0  0  0  0  0  0  0  0  0  0  0  0
    6.1101    2.9715   -2.4275 H   0  0  0  0  0  0  0  0  0  0  0  0
    7.5446    2.2605   -1.6171 H   0  0  0  0  0  0  0  0  0  0  0  0
    7.0579    1.7022   -3.2324 H   0  0  0  0  0  0  0  0  0  0  0  0
   -2.6437   -1.5767   -0.5161 H   0  0  0  0  0  0  0  0  0  0  0  0
    1.4009   -4.6364    0.7195 H   0  0  0  0  0  0  0  0  0  0  0  0
    0.4045   -5.1270   -0.6801 H   0  0  0  0  0  0  0  0  0  0  0  0
   -0.2279   -5.3226    0.9888 H   0  0  0  0  0  0  0  0  0  0  0  0
   -3.2112    0.8649    1.9712 H   0  0  0  0  0  0  0  0  0  0  0  0
   -5.4870    0.6486    2.4463 H   0  0  0  0  0  0  0  0  0  0  0  0
   -6.3803   -0.2330    1.2028 H   0  0  0  0  0  0  0  0  0  0  0  0
   -6.5669    1.5376    1.3697 H   0  0  0  0  0  0  0  0  0  0  0  0
   -6.9758    1.8350   -1.1046 H   0  0  0  0  0  0  0  0  0  0  0  0
   -6.3819    1.0880   -2.5922 H   0  0  0  0  0  0  0  0  0  0  0  0
   -6.8606    0.0560   -1.2435 H   0  0  0  0  0  0  0  0  0  0  0  0
   -4.0858    1.3831   -2.8819 H   0  0  0  0  0  0  0  0  0  0  0  0
  1  2  1  0
  2  3  1  0
  3  4  1  0
  4  5  1  0
  5  6  1  0
  6  7  1  0
  7  8  1  0
  2  9  2  0
  9 10  1  0
 10 11  2  0
 11 12  1  0
 12 13  2  0
 13 14  1  0
 14 15  1  0
 11 16  1  0
 16 17  2  3
 17 18  1  0
 18 19  2  0
 19 20  1  0
 20 21  1  0
 20 22  2  0
 22 23  1  0
 22 24  1  0
 24 25  2  0
 25 26  1  0
 16  1  1  0
 25 18  1  0
 14 10  1  0
  1 27  1  0
  3 28  1  0
  4 29  1  0
  4 30  1  0
  5 31  1  0
  5 32  1  0
  6 33  1  0
  6 34  1  0
  8 35  1  0
  8 36  1  0
  8 37  1  0
 12 38  1  0
 15 39  1  0
 15 40  1  0
 15 41  1  0
 19 42  1  0
 21 43  1  0
 21 44  1  0
 21 45  1  0
 23 46  1  0
 23 47  1  0
 23 48  1  0
 24 49  1  0
M  END
>  <ScrubInfo>  (3) 
{"isomerGroup": 0, "isomerId": 2, "confId": 0, "nr_conformers:": 1, "nr_isomers:": 9}

$$$$
_i3
     RDKit          3D

 49 51  0  0  0  0  0  0  0  0999 V2000
    1.3811   -0.2556   -2.5118 N   0  0  0  0  0  0  0  0  0  0  0  0
    1.9351    0.2619   -1.3616 C   0  0  0  0  0  0  0  0  0  0  0  0
    3.2236    0.2335   -1.2430 N   0  0  0  0  0  0  0  0  0  0  0  0
    3.7857    0.7742   -0.0025 C   0  0  0  0  0  0  0  0  0  0  0  0
    5.3071    0.6281   -0.0472 C   0  0  0  0  0  0  0  0  0  0  0  0
    5.7685   -0.8205    0.1108 C   0  0  0  0  0  0  0  0  0  0  0  0
    5.4258   -1.3731    1.3831 O   0  0  0  0  0  0  0  0  0  0  0  0
    6.3041   -0.9760    2.4261 C   0  0  0  0  0  0  0  0  0  0  0  0
    1.1515    0.8047   -0.3542 N   0  0  0  0  0  0  0  0  0  0  0  0
   -0.1482    0.7978   -0.4851 C   0  0  0  0  0  0  0  0  0  0  0  0
   -0.9719    1.3195    0.4830 N   0  0  0  0  0  0  0  0  0  0  0  0
   -2.1365    0.6744    0.9748 C   0  0  0  0  0  0  0  0  0  0  0  0
   -3.2874    1.4698    1.1082 C   0  0  0  0  0  0  0  0  0  0  0  0
   -4.4900    0.9582    1.6240 C   0  0  0  0  0  0  0  0  0  0  0  0
   -5.6959    1.8543    1.7067 C   0  0  0  0  0  0  0  0  0  0  0  0
   -4.5418   -0.3838    2.0388 C   0  0  0  0  0  0  0  0  0  0  0  0
   -5.8018   -0.9875    2.5971 C   0  0  0  0  0  0  0  0  0  0  0  0
   -3.3807   -1.1680    1.9602 C   0  0  0  0  0  0  0  0  0  0  0  0
   -2.1864   -0.6447    1.4494 C   0  0  0  0  0  0  0  0  0  0  0  0
   -0.6677   -1.7864    1.4910 Br  0  0  0  0  0  0  0  0  0  0  0  0
   -0.7697    0.2840   -1.6875 C   0  0  0  0  0  0  0  0  0  0  0  0
   -2.0580    0.1520   -2.2295 C   0  0  0  0  0  0  0  0  0  0  0  0
   -2.0483   -0.4199   -3.4448 N   0  0  0  0  0  0  0  0  0  0  0  0
   -0.7340   -0.6542   -3.6809 N   0  0  0  0  0  0  0  0  0  0  0  0
   -0.3426   -1.2751   -4.9202 C   0  0  0  0  0  0  0  0  0  0  0  0
    0.0484   -0.2314   -2.6556 C   0  0  0  0  0  0  0  0  0  0  0  0
    2.0495   -0.6269   -3.1728 H   0  0  0  0  0  0  0  0  0  0  0  0
    3.3832    0.2597    0.8780 H   0  0  0  0  0  0  0  0  0  0  0  0
    3.5483    1.8422    0.0771 H   0  0  0  0  0  0  0  0  0  0  0  0
    5.7338    1.2425    0.7525 H   0  0  0  0  0  0  0  0  0  0  0  0
    5.6878    1.0223   -0.9971 H   0  0  0  0  0  0  0  0  0  0  0  0
    5.2941   -1.4485   -0.6508 H   0  0  0  0  0  0  0  0  0  0  0  0
    6.8509   -0.8961   -0.0472 H   0  0  0  0  0  0  0  0  0  0  0  0
    6.2392    0.0998    2.6072 H   0  0  0  0  0  0  0  0  0  0  0  0
    7.3348   -1.2589    2.1919 H   0  0  0  0  0  0  0  0  0  0  0  0
    6.0034   -1.4946    3.3407 H   0  0  0  0  0  0  0  0  0  0  0  0
   -0.3947    1.5885    1.2777 H   0  0  0  0  0  0  0  0  0  0  0  0
   -3.2448    2.5087    0.7818 H   0  0  0  0  0  0  0  0  0  0  0  0
   -5.4529    2.8831    1.4202 H   0  0  0  0  0  0  0  0  0  0  0  0
   -6.0808    1.8841    2.7310 H   0  0  0  0  0  0  0  0  0  0  0  0
   -6.4796    1.4968    1.0315 H   0  0  0  0  0  0  0  0  0  0  0  0
   -6.6327   -0.8565    1.8966 H   0  0  0  0  0  0  0  0  0  0  0  0
   -6.0530   -0.5196    3.5541 H   0  0  0  0  0  0  0  0  0  0  0  0
   -5.6898   -2.0633    2.7692 H   0  0  0  0  0  0  0  0  0  0  0  0
   -3.4065   -2.1981    2.3120 H   0  0  0  0  0  0  0  0  0  0  0  0
   -3.0094    0.4441   -1.8055 H   0  0  0  0  0  0  0  0  0  0  0  0
   -0.8680   -2.2293   -5.0096 H   0  0  0  0  0  0  0  0  0  0  0  0
   -0.6185   -0.6082   -5.7408 H   0  0  0  0  0  0  0  0  0  0  0  0
    0.7358   -1.4467   -4.9272 H   0  0  0  0  0  0  0  0  0  0  0  0
  1  2  1  0
  2  3  2  3
  3  4  1  0
  4  5  1  0
  5  6  1  0
  6  7  1  0
  7  8  1  0
  2  9  1  0
  9 10  2  0
 10 11  1  0
 11 12  1  0
 12 13  2  0
 13 14  1  0
 14 15  1  0
 14 16  2  0
 16 17  1  0
 16 18  1  0
 18 19  2  0
 19 20  1  0
 10 21  1  0
 21 22  1  0
 22 23  2  0
 23 24  1  0
 24 25  1  0
 24 26  1  0
 26  1  1  0
 19 12  1  0
 26 21  2  0
  1 27  1  0
  4 28  1  0
  4 29  1  0
  5 30  1  0
  5 31  1  0
  6 32  1  0
  6 33  1  0
  8 34  1  0
  8 35  1  0
  8 36  1  0
 11 37  1  0
 13 38  1  0
 15 39  1  0
 15 40  1  0
 15 41  1  0
 17 42  1  0
 17 43  1  0
 17 44  1  0
 18 45  1  0
 22 46  1  0
 25 47  1  0
 25 48  1  0
 25 49  1  0
M  END
>  <ScrubInfo>  (4) 
{"isomerGroup": 0, "isomerId": 3, "confId": 0, "nr_conformers:": 1, "nr_isomers:": 9}

$$$$
_i4
     RDKit          3D

 49 51  0  0  0  0  0  0  0  0999 V2000
   -1.0705    2.5616   -1.3987 N   0  0  0  0  0  0  0  0  0  0  0  0
   -1.6573    1.5005   -0.7170 C   0  0  0  0  0  0  0  0  0  0  0  0
   -0.7880    0.5372   -0.3740 C   0  0  0  0  0  0  0  0  0  0  0  0
   -0.7705   -0.7343    0.3386 C   0  0  0  0  0  0  0  0  0  0  0  0
   -1.7279   -1.4076    0.8851 N   0  0  0  0  0  0  0  0  0  0  0  0
   -3.0466   -0.9340    0.8555 C   0  0  0  0  0  0  0  0  0  0  0  0
   -3.8860   -1.3609   -0.1810 C   0  0  0  0  0  0  0  0  0  0  0  0
   -5.2244   -0.9406   -0.2665 C   0  0  0  0  0  0  0  0  0  0  0  0
   -6.0766   -1.4314   -1.4049 C   0  0  0  0  0  0  0  0  0  0  0  0
   -5.7397   -0.0798    0.7215 C   0  0  0  0  0  0  0  0  0  0  0  0
   -7.1679    0.3920    0.6844 C   0  0  0  0  0  0  0  0  0  0  0  0
   -4.9084    0.3281    1.7770 C   0  0  0  0  0  0  0  0  0  0  0  0
   -3.5787   -0.0997    1.8471 C   0  0  0  0  0  0  0  0  0  0  0  0
   -2.5251    0.5019    3.3086 Br  0  0  0  0  0  0  0  0  0  0  0  0
    0.4744   -1.2960    0.4412 N   0  0  0  0  0  0  0  0  0  0  0  0
    1.5436   -0.7637   -0.0724 C   0  0  0  0  0  0  0  0  0  0  0  0
    2.7068   -1.4494    0.1287 N   0  0  0  0  0  0  0  0  0  0  0  0
    4.0053   -0.8053    0.1095 C   0  0  0  0  0  0  0  0  0  0  0  0
    5.1009   -1.8652    0.2081 C   0  0  0  0  0  0  0  0  0  0  0  0
    6.4908   -1.2566    0.0743 C   0  0  0  0  0  0  0  0  0  0  0  0
    6.7085   -0.3384    1.1430 O   0  0  0  0  0  0  0  0  0  0  0  0
    8.0037    0.2448    1.0792 C   0  0  0  0  0  0  0  0  0  0  0  0
    1.5851    0.4045   -0.7845 N   0  0  0  0  0  0  0  0  0  0  0  0
    0.4747    1.0319   -0.9542 C   0  0  0  0  0  0  0  0  0  0  0  0
    0.2490    2.2190   -1.6534 N   0  0  0  0  0  0  0  0  0  0  0  0
    1.2548    3.2635   -1.6872 C   0  0  0  0  0  0  0  0  0  0  0  0
   -1.6172    2.8776   -2.2030 H   0  0  0  0  0  0  0  0  0  0  0  0
   -2.7200    1.5421   -0.5303 H   0  0  0  0  0  0  0  0  0  0  0  0
   -3.4784   -2.0408   -0.9273 H   0  0  0  0  0  0  0  0  0  0  0  0
   -6.4316   -0.5877   -2.0049 H   0  0  0  0  0  0  0  0  0  0  0  0
   -6.9333   -1.9953   -1.0229 H   0  0  0  0  0  0  0  0  0  0  0  0
   -5.5151   -2.0955   -2.0707 H   0  0  0  0  0  0  0  0  0  0  0  0
   -7.3718    0.9174   -0.2539 H   0  0  0  0  0  0  0  0  0  0  0  0
   -7.3828    1.0883    1.5020 H   0  0  0  0  0  0  0  0  0  0  0  0
   -7.8505   -0.4578    0.7840 H   0  0  0  0  0  0  0  0  0  0  0  0
   -5.3027    0.9793    2.5545 H   0  0  0  0  0  0  0  0  0  0  0  0
    2.5821   -2.1583    0.8428 H   0  0  0  0  0  0  0  0  0  0  0  0
    4.0756   -0.1005    0.9456 H   0  0  0  0  0  0  0  0  0  0  0  0
    4.1313   -0.2406   -0.8216 H   0  0  0  0  0  0  0  0  0  0  0  0
    4.9616   -2.6222   -0.5730 H   0  0  0  0  0  0  0  0  0  0  0  0
    5.0159   -2.3766    1.1752 H   0  0  0  0  0  0  0  0  0  0  0  0
    7.2421   -2.0533    0.1210 H   0  0  0  0  0  0  0  0  0  0  0  0
    6.5889   -0.7368   -0.8858 H   0  0  0  0  0  0  0  0  0  0  0  0
    8.1262    0.8038    0.1466 H   0  0  0  0  0  0  0  0  0  0  0  0
    8.1110    0.9371    1.9185 H   0  0  0  0  0  0  0  0  0  0  0  0
    8.7754   -0.5266    1.1612 H   0  0  0  0  0  0  0  0  0  0  0  0
    1.4221    3.6755   -0.6865 H   0  0  0  0  0  0  0  0  0  0  0  0
    2.2036    2.8729   -2.0688 H   0  0  0  0  0  0  0  0  0  0  0  0
    0.9379    4.0758   -2.3494 H   0  0  0  0  0  0  0  0  0  0  0  0
  1  2  1  0
  2  3  2  0
  3  4  1  0
  4  5  2  3
  5  6  1  0
  6  7  2  0
  7  8  1  0
  8  9  1  0
  8 10  2  0
 10 11  1  0
 10 12  1  0
 12 13  2  0
 13 14  1  0
  4 15  1  0
 15 16  2  0
 16 17  1  0
 17 18  1  0
 18 19  1  0
 19 20  1  0
 20 21  1  0
 21 22  1  0
 16 23  1  0
 23 24  2  0
 24 25  1  0
 25 26  1  0
 25  1  1  0
 24  3  1  0
 13  6  1  0
  1 27  1  0
  2 28  1  0
  7 29  1  0
  9 30  1  0
  9 31  1  0
  9 32  1  0
 11 33  1  0
 11 34  1  0
 11 35  1  0
 12 36  1  0
 17 37  1  0
 18 38  1  0
 18 39  1  0
 19 40  1  0
 19 41  1  0
 20 42  1  0
 20 43  1  0
 22 44  1  0
 22 45  1  0
 22 46  1  0
 26 47  1  0
 26 48  1  0
 26 49  1  0
M  END
>  <ScrubInfo>  (5) 
{"isomerGroup": 0, "isomerId": 4, "confId": 0, "nr_conformers:": 1, "nr_isomers:": 9}

$$$$
_i5
     RDKit          3D

 49 51  0  0  0  0  0  0  0  0999 V2000
    1.8768   -0.0069   -0.4681 N   0  0  0  0  0  0  0  0  0  0  0  0
    1.8276    1.3504   -0.2605 C   0  0  0  0  0  0  0  0  0  0  0  0
    2.9621    2.0612   -0.5159 N   0  0  0  0  0  0  0  0  0  0  0  0
    4.3167    1.5581   -0.4740 C   0  0  0  0  0  0  0  0  0  0  0  0
    4.7258    1.0088   -1.8433 C   0  0  0  0  0  0  0  0  0  0  0  0
    5.4540   -0.3217   -1.7168 C   0  0  0  0  0  0  0  0  0  0  0  0
    4.5491   -1.2930   -1.1785 O   0  0  0  0  0  0  0  0  0  0  0  0
    5.2044   -2.5458   -0.9943 C   0  0  0  0  0  0  0  0  0  0  0  0
    0.7749    2.0090    0.1435 N   0  0  0  0  0  0  0  0  0  0  0  0
   -0.4076    1.3346    0.4199 C   0  0  0  0  0  0  0  0  0  0  0  0
   -1.3784    2.0605    0.8774 N   0  0  0  0  0  0  0  0  0  0  0  0
   -2.6221    1.5206    1.2239 C   0  0  0  0  0  0  0  0  0  0  0  0
   -3.6521    1.5556    0.2758 C   0  0  0  0  0  0  0  0  0  0  0  0
   -4.9336    1.0540    0.5606 C   0  0  0  0  0  0  0  0  0  0  0  0
   -5.9945    1.1045   -0.5046 C   0  0  0  0  0  0  0  0  0  0  0  0
   -5.1925    0.5102    1.8334 C   0  0  0  0  0  0  0  0  0  0  0  0
   -6.5466   -0.0381    2.1928 C   0  0  0  0  0  0  0  0  0  0  0  0
   -4.1717    0.5052    2.7974 C   0  0  0  0  0  0  0  0  0  0  0  0
   -2.9028    1.0115    2.4986 C   0  0  0  0  0  0  0  0  0  0  0  0
   -1.5822    0.9682    3.8636 Br  0  0  0  0  0  0  0  0  0  0  0  0
   -0.4161   -0.0954    0.1612 C   0  0  0  0  0  0  0  0  0  0  0  0
   -1.3303   -1.1637    0.2175 C   0  0  0  0  0  0  0  0  0  0  0  0
   -0.7891   -2.3364   -0.1525 N   0  0  0  0  0  0  0  0  0  0  0  0
    0.4882   -2.0143   -0.4574 N   0  0  0  0  0  0  0  0  0  0  0  0
    1.3927   -3.0354   -0.9179 C   0  0  0  0  0  0  0  0  0  0  0  0
    0.7389   -0.6935   -0.2728 C   0  0  0  0  0  0  0  0  0  0  0  0
    2.7392   -0.4305   -0.8011 H   0  0  0  0  0  0  0  0  0  0  0  0
    2.8529    3.0301   -0.2284 H   0  0  0  0  0  0  0  0  0  0  0  0
    4.9888    2.3838   -0.2119 H   0  0  0  0  0  0  0  0  0  0  0  0
    4.4192    0.8199    0.3297 H   0  0  0  0  0  0  0  0  0  0  0  0
    3.8485    0.8707   -2.4875 H   0  0  0  0  0  0  0  0  0  0  0  0
    5.3781    1.7336   -2.3443 H   0  0  0  0  0  0  0  0  0  0  0  0
    5.7904   -0.6531   -2.7057 H   0  0  0  0  0  0  0  0  0  0  0  0
    6.3262   -0.2184   -1.0606 H   0  0  0  0  0  0  0  0  0  0  0  0
    6.0378   -2.4418   -0.2929 H   0  0  0  0  0  0  0  0  0  0  0  0
    4.4849   -3.2539   -0.5765 H   0  0  0  0  0  0  0  0  0  0  0  0
    5.5616   -2.9337   -1.9530 H   0  0  0  0  0  0  0  0  0  0  0  0
   -3.4394    1.9865   -0.7011 H   0  0  0  0  0  0  0  0  0  0  0  0
   -5.6405    1.6255   -1.4005 H   0  0  0  0  0  0  0  0  0  0  0  0
   -6.8756    1.6428   -0.1414 H   0  0  0  0  0  0  0  0  0  0  0  0
   -6.2814    0.0907   -0.8010 H   0  0  0  0  0  0  0  0  0  0  0  0
   -6.5403   -0.5075    3.1823 H   0  0  0  0  0  0  0  0  0  0  0  0
   -7.2878    0.7671    2.2090 H   0  0  0  0  0  0  0  0  0  0  0  0
   -6.8536   -0.8033    1.4728 H   0  0  0  0  0  0  0  0  0  0  0  0
   -4.3686    0.1056    3.7900 H   0  0  0  0  0  0  0  0  0  0  0  0
   -2.3722   -1.1609    0.5055 H   0  0  0  0  0  0  0  0  0  0  0  0
    0.8183   -3.8827   -1.3015 H   0  0  0  0  0  0  0  0  0  0  0  0
    2.0135   -2.6271   -1.7187 H   0  0  0  0  0  0  0  0  0  0  0  0
    2.0081   -3.3500   -0.0723 H   0  0  0  0  0  0  0  0  0  0  0  0
  1  2  1  0
  2  3  1  0
  3  4  1  0
  4  5  1  0
  5  6  1  0
  6  7  1  0
  7  8  1  0
  2  9  2  0
  9 10  1  0
 10 11  2  3
 11 12  1  0
 12 13  2  0
 13 14  1  0
 14 15  1  0
 14 16  2  0
 16 17  1  0
 16 18  1  0
 18 19  2  0
 19 20  1  0
 10 21  1  0
 21 22  1  0
 22 23  2  0
 23 24  1  0
 24 25  1  0
 24 26  1  0
 26  1  1  0
 19 12  1  0
 26 21  2  0
  1 27  1  0
  3 28  1  0
  4 29  1  0
  4 30  1  0
  5 31  1  0
  5 32  1  0
  6 33  1  0
  6 34  1  0
  8 35  1  0
  8 36  1  0
  8 37  1  0
 13 38  1  0
 15 39  1  0
 15 40  1  0
 15 41  1  0
 17 42  1  0
 17 43  1  0
 17 44  1  0
 18 45  1  0
 22 46  1  0
 25 47  1  0
 25 48  1  0
 25 49  1  0
M  END
>  <ScrubInfo>  (6) 
{"isomerGroup": 0, "isomerId": 5, "confId": 0, "nr_conformers:": 1, "nr_isomers:": 9}

$$$$
_i6
     RDKit          3D

 49 51  0  0  0  0  0  0  0  0999 V2000
   -0.9474   -2.6920   -2.3894 N   0  0  0  0  0  0  0  0  0  0  0  0
   -1.4124   -1.5214   -1.7989 C   0  0  0  0  0  0  0  0  0  0  0  0
   -0.4354   -0.7822   -1.2559 C   0  0  0  0  0  0  0  0  0  0  0  0
   -0.2656    0.4883   -0.5511 C   0  0  0  0  0  0  0  0  0  0  0  0
   -1.3005    1.3315   -0.1920 N   0  0  0  0  0  0  0  0  0  0  0  0
   -2.5529    0.8489    0.2548 C   0  0  0  0  0  0  0  0  0  0  0  0
   -3.6849    1.1847   -0.5029 C   0  0  0  0  0  0  0  0  0  0  0  0
   -4.9736    0.7667   -0.1304 C   0  0  0  0  0  0  0  0  0  0  0  0
   -6.1475    1.1445   -0.9928 C   0  0  0  0  0  0  0  0  0  0  0  0
   -5.1370    0.0014    1.0391 C   0  0  0  0  0  0  0  0  0  0  0  0
   -6.4943   -0.4686    1.4876 C   0  0  0  0  0  0  0  0  0  0  0  0
   -4.0112   -0.3066    1.8188 C   0  0  0  0  0  0  0  0  0  0  0  0
   -2.7344    0.1187    1.4377 C   0  0  0  0  0  0  0  0  0  0  0  0
   -1.2889   -0.3053    2.5953 Br  0  0  0  0  0  0  0  0  0  0  0  0
    0.9462    0.8704   -0.2479 N   0  0  0  0  0  0  0  0  0  0  0  0
    2.0099    0.0623   -0.5955 C   0  0  0  0  0  0  0  0  0  0  0  0
    3.2100    0.4635   -0.3625 N   0  0  0  0  0  0  0  0  0  0  0  0
    3.3828    1.7706    0.2642 C   0  0  0  0  0  0  0  0  0  0  0  0
    4.8726    2.0611    0.4189 C   0  0  0  0  0  0  0  0  0  0  0  0
    5.5679    1.0686    1.3429 C   0  0  0  0  0  0  0  0  0  0  0  0
    6.9141    1.5089    1.5465 O   0  0  0  0  0  0  0  0  0  0  0  0
    7.6391    0.5981    2.3615 C   0  0  0  0  0  0  0  0  0  0  0  0
    1.9458   -1.1791   -1.1798 N   0  0  0  0  0  0  0  0  0  0  0  0
    0.7722   -1.6020   -1.4959 C   0  0  0  0  0  0  0  0  0  0  0  0
    0.4066   -2.8078   -2.0951 N   0  0  0  0  0  0  0  0  0  0  0  0
    1.2860   -3.4609   -3.0463 C   0  0  0  0  0  0  0  0  0  0  0  0
   -1.5227   -3.5103   -2.1768 H   0  0  0  0  0  0  0  0  0  0  0  0
   -2.4722   -1.3144   -1.8203 H   0  0  0  0  0  0  0  0  0  0  0  0
   -0.9452    2.0371    0.4510 H   0  0  0  0  0  0  0  0  0  0  0  0
   -3.5519    1.7782   -1.4070 H   0  0  0  0  0  0  0  0  0  0  0  0
   -6.8862    1.7023   -0.4087 H   0  0  0  0  0  0  0  0  0  0  0  0
   -6.6137    0.2473   -1.4120 H   0  0  0  0  0  0  0  0  0  0  0  0
   -5.8432    1.7820   -1.8298 H   0  0  0  0  0  0  0  0  0  0  0  0
   -6.4251   -1.1134    2.3702 H   0  0  0  0  0  0  0  0  0  0  0  0
   -6.9780   -1.0509    0.6970 H   0  0  0  0  0  0  0  0  0  0  0  0
   -7.1238    0.3878    1.7488 H   0  0  0  0  0  0  0  0  0  0  0  0
   -4.1344   -0.8770    2.7379 H   0  0  0  0  0  0  0  0  0  0  0  0
    2.9038    1.7985    1.2506 H   0  0  0  0  0  0  0  0  0  0  0  0
    2.9430    2.5576   -0.3605 H   0  0  0  0  0  0  0  0  0  0  0  0
    5.3678    2.0507   -0.5603 H   0  0  0  0  0  0  0  0  0  0  0  0
    5.0049    3.0766    0.8124 H   0  0  0  0  0  0  0  0  0  0  0  0
    5.0558    1.0257    2.3110 H   0  0  0  0  0  0  0  0  0  0  0  0
    5.5757    0.0674    0.8973 H   0  0  0  0  0  0  0  0  0  0  0  0
    7.1708    0.5081    3.3464 H   0  0  0  0  0  0  0  0  0  0  0  0
    7.6985   -0.3831    1.8808 H   0  0  0  0  0  0  0  0  0  0  0  0
    8.6535    0.9846    2.4914 H   0  0  0  0  0  0  0  0  0  0  0  0
    0.8745   -4.4320   -3.3399 H   0  0  0  0  0  0  0  0  0  0  0  0
    2.2715   -3.6360   -2.6030 H   0  0  0  0  0  0  0  0  0  0  0  0
    1.4093   -2.8489   -3.9459 H   0  0  0  0  0  0  0  0  0  0  0  0
  1  2  1  0
  2  3  2  0
  3  4  1  0
  4  5  1  0
  5  6  1  0
  6  7  2  0
  7  8  1  0
  8  9  1  0
  8 10  2  0
 10 11  1  0
 10 12  1  0
 12 13  2  0
 13 14  1  0
  4 15  2  0
 15 16  1  0
 16 17  2  3
 17 18  1  0
 18 19  1  0
 19 20  1  0
 20 21  1  0
 21 22  1  0
 16 23  1  0
 23 24  2  0
 24 25  1  0
 25 26  1  0
 25  1  1  0
 24  3  1  0
 13  6  1  0
  1 27  1  0
  2 28  1  0
  5 29  1  0
  7 30  1  0
  9 31  1  0
  9 32  1  0
  9 33  1  0
 11 34  1  0
 11 35  1  0
 11 36  1  0
 12 37  1  0
 18 38  1  0
 18 39  1  0
 19 40  1  0
 19 41  1  0
 20 42  1  0
 20 43  1  0
 22 44  1  0
 22 45  1  0
 22 46  1  0
 26 47  1  0
 26 48  1  0
 26 49  1  0
M  END
>  <ScrubInfo>  (7) 
{"isomerGroup": 0, "isomerId": 6, "confId": 0, "nr_conformers:": 1, "nr_isomers:": 9}

$$$$
_i7
     RDKit          3D

 49 51  0  0  0  0  0  0  0  0999 V2000
   -0.3281    2.3817   -0.7271 N   0  0  0  0  0  0  0  0  0  0  0  0
   -1.1181    1.3084   -0.3305 C   0  0  0  0  0  0  0  0  0  0  0  0
   -0.4370    0.1611   -0.1974 C   0  0  0  0  0  0  0  0  0  0  0  0
   -0.6474   -1.2456    0.1984 C   0  0  0  0  0  0  0  0  0  0  0  0
   -1.7442   -1.8458    0.5561 N   0  0  0  0  0  0  0  0  0  0  0  0
   -2.9591   -1.1469    0.6212 C   0  0  0  0  0  0  0  0  0  0  0  0
   -3.7973   -1.1561   -0.5003 C   0  0  0  0  0  0  0  0  0  0  0  0
   -5.0365   -0.4928   -0.4990 C   0  0  0  0  0  0  0  0  0  0  0  0
   -5.8927   -0.5338   -1.7355 C   0  0  0  0  0  0  0  0  0  0  0  0
   -5.4525    0.1867    0.6622 C   0  0  0  0  0  0  0  0  0  0  0  0
   -6.7735    0.9048    0.7208 C   0  0  0  0  0  0  0  0  0  0  0  0
   -4.6261    0.1748    1.7972 C   0  0  0  0  0  0  0  0  0  0  0  0
   -3.3962   -0.4904    1.7791 C   0  0  0  0  0  0  0  0  0  0  0  0
   -2.3405   -0.4583    3.3579 Br  0  0  0  0  0  0  0  0  0  0  0  0
    0.5136   -1.9686    0.1684 N   0  0  0  0  0  0  0  0  0  0  0  0
    1.7615   -1.5277   -0.1695 C   0  0  0  0  0  0  0  0  0  0  0  0
    2.7443   -2.3631   -0.0957 N   0  0  0  0  0  0  0  0  0  0  0  0
    4.0893   -1.9136   -0.4657 C   0  0  0  0  0  0  0  0  0  0  0  0
    4.8233   -1.4362    0.7851 C   0  0  0  0  0  0  0  0  0  0  0  0
    6.2775   -1.0728    0.4972 C   0  0  0  0  0  0  0  0  0  0  0  0
    6.4230   -0.0756   -0.5128 O   0  0  0  0  0  0  0  0  0  0  0  0
    6.0562    1.2252   -0.0755 C   0  0  0  0  0  0  0  0  0  0  0  0
    1.9784   -0.2292   -0.5773 N   0  0  0  0  0  0  0  0  0  0  0  0
    0.9534    0.5638   -0.6144 C   0  0  0  0  0  0  0  0  0  0  0  0
    0.9369    1.8988   -1.0242 N   0  0  0  0  0  0  0  0  0  0  0  0
    2.0890    2.7577   -0.8348 C   0  0  0  0  0  0  0  0  0  0  0  0
   -0.7672    2.9666   -1.4417 H   0  0  0  0  0  0  0  0  0  0  0  0
   -2.1712    1.4852   -0.1707 H   0  0  0  0  0  0  0  0  0  0  0  0
   -3.4703   -1.6980   -1.3859 H   0  0  0  0  0  0  0  0  0  0  0  0
   -6.0572    0.4787   -2.1173 H   0  0  0  0  0  0  0  0  0  0  0  0
   -6.8566   -1.0033   -1.5153 H   0  0  0  0  0  0  0  0  0  0  0  0
   -5.4185   -1.1140   -2.5343 H   0  0  0  0  0  0  0  0  0  0  0  0
   -6.8285    1.6666   -0.0632 H   0  0  0  0  0  0  0  0  0  0  0  0
   -6.9126    1.4133    1.6808 H   0  0  0  0  0  0  0  0  0  0  0  0
   -7.5969    0.1941    0.5992 H   0  0  0  0  0  0  0  0  0  0  0  0
   -4.9469    0.6830    2.7043 H   0  0  0  0  0  0  0  0  0  0  0  0
    0.4587   -2.9346    0.4537 H   0  0  0  0  0  0  0  0  0  0  0  0
    4.6182   -2.7739   -0.8926 H   0  0  0  0  0  0  0  0  0  0  0  0
    4.0849   -1.1488   -1.2507 H   0  0  0  0  0  0  0  0  0  0  0  0
    4.7990   -2.2223    1.5499 H   0  0  0  0  0  0  0  0  0  0  0  0
    4.2948   -0.5756    1.2100 H   0  0  0  0  0  0  0  0  0  0  0  0
    6.7826   -0.7486    1.4147 H   0  0  0  0  0  0  0  0  0  0  0  0
    6.8077   -1.9633    0.1416 H   0  0  0  0  0  0  0  0  0  0  0  0
    6.2905    1.9324   -0.8760 H   0  0  0  0  0  0  0  0  0  0  0  0
    4.9833    1.2831    0.1248 H   0  0  0  0  0  0  0  0  0  0  0  0
    6.6242    1.5098    0.8153 H   0  0  0  0  0  0  0  0  0  0  0  0
    2.9752    2.3236   -1.3086 H   0  0  0  0  0  0  0  0  0  0  0  0
    2.2958    2.9020    0.2307 H   0  0  0  0  0  0  0  0  0  0  0  0
    1.9140    3.7375   -1.2910 H   0  0  0  0  0  0  0  0  0  0  0  0
  1  2  1  0
  2  3  2  0
  3  4  1  0
  4  5  2  3
  5  6  1  0
  6  7  2  0
  7  8  1  0
  8  9  1  0
  8 10  2  0
 10 11  1  0
 10 12  1  0
 12 13  2  0
 13 14  1  0
  4 15  1  0
 15 16  1  0
 16 17  2  3
 17 18  1  0
 18 19  1  0
 19 20  1  0
 20 21  1  0
 21 22  1  0
 16 23  1  0
 23 24  2  0
 24 25  1  0
 25 26  1  0
 25  1  1  0
 24  3  1  0
 13  6  1  0
  1 27  1  0
  2 28  1  0
  7 29  1  0
  9 30  1  0
  9 31  1  0
  9 32  1  0
 11 33  1  0
 11 34  1  0
 11 35  1  0
 12 36  1  0
 15 37  1  0
 18 38  1  0
 18 39  1  0
 19 40  1  0
 19 41  1  0
 20 42  1  0
 20 43  1  0
 22 44  1  0
 22 45  1  0
 22 46  1  0
 26 47  1  0
 26 48  1  0
 26 49  1  0
M  END
>  <ScrubInfo>  (8) 
{"isomerGroup": 0, "isomerId": 7, "confId": 0, "nr_conformers:": 1, "nr_isomers:": 9}

$$$$
_i8
     RDKit          3D

 49 51  0  0  0  0  0  0  0  0999 V2000
    1.4589   -0.0043   -1.6624 N   0  0  0  0  0  0  0  0  0  0  0  0
    1.9357    0.0303   -0.3626 C   0  0  0  0  0  0  0  0  0  0  0  0
    3.1644    0.0799    0.0297 N   0  0  0  0  0  0  0  0  0  0  0  0
    4.2165    0.1040   -0.9815 C   0  0  0  0  0  0  0  0  0  0  0  0
    5.5733    0.1778   -0.2883 C   0  0  0  0  0  0  0  0  0  0  0  0
    5.8849   -1.0852    0.5116 C   0  0  0  0  0  0  0  0  0  0  0  0
    7.2309   -1.0698    0.9933 O   0  0  0  0  0  0  0  0  0  0  0  0
    7.3867   -0.2986    2.1773 C   0  0  0  0  0  0  0  0  0  0  0  0
    0.9371    0.0066    0.5854 N   0  0  0  0  0  0  0  0  0  0  0  0
   -0.4350   -0.0572    0.4748 C   0  0  0  0  0  0  0  0  0  0  0  0
   -1.1912   -0.0829    1.5311 N   0  0  0  0  0  0  0  0  0  0  0  0
   -2.5870   -0.1748    1.4504 C   0  0  0  0  0  0  0  0  0  0  0  0
   -3.3387    1.0063    1.4669 C   0  0  0  0  0  0  0  0  0  0  0  0
   -4.7431    0.9856    1.4136 C   0  0  0  0  0  0  0  0  0  0  0  0
   -5.4975    2.2872    1.4189 C   0  0  0  0  0  0  0  0  0  0  0  0
   -5.4120   -0.2525    1.3571 C   0  0  0  0  0  0  0  0  0  0  0  0
   -6.9135   -0.3315    1.3005 C   0  0  0  0  0  0  0  0  0  0  0  0
   -4.6617   -1.4391    1.3712 C   0  0  0  0  0  0  0  0  0  0  0  0
   -3.2651   -1.4008    1.4249 C   0  0  0  0  0  0  0  0  0  0  0  0
   -2.3263   -3.0522    1.4459 Br  0  0  0  0  0  0  0  0  0  0  0  0
   -0.8396   -0.0849   -0.9213 C   0  0  0  0  0  0  0  0  0  0  0  0
   -2.0428   -0.1351   -1.6498 C   0  0  0  0  0  0  0  0  0  0  0  0
   -1.8496   -0.1406   -2.9773 N   0  0  0  0  0  0  0  0  0  0  0  0
   -0.5068   -0.0896   -3.1075 N   0  0  0  0  0  0  0  0  0  0  0  0
    0.0736   -0.0908   -4.4268 C   0  0  0  0  0  0  0  0  0  0  0  0
    0.1282   -0.0557   -1.9037 C   0  0  0  0  0  0  0  0  0  0  0  0
    2.1442    0.0068   -2.4050 H   0  0  0  0  0  0  0  0  0  0  0  0
    4.1727   -0.7909   -1.6136 H   0  0  0  0  0  0  0  0  0  0  0  0
    4.1051    0.9877   -1.6210 H   0  0  0  0  0  0  0  0  0  0  0  0
    6.3584    0.3280   -1.0394 H   0  0  0  0  0  0  0  0  0  0  0  0
    5.6085    1.0560    0.3668 H   0  0  0  0  0  0  0  0  0  0  0  0
    5.1843   -1.2317    1.3418 H   0  0  0  0  0  0  0  0  0  0  0  0
    5.7999   -1.9594   -0.1432 H   0  0  0  0  0  0  0  0  0  0  0  0
    7.1690    0.7562    1.9907 H   0  0  0  0  0  0  0  0  0  0  0  0
    8.4273   -0.3811    2.5031 H   0  0  0  0  0  0  0  0  0  0  0  0
    6.7434   -0.6826    2.9748 H   0  0  0  0  0  0  0  0  0  0  0  0
    1.2733    0.0192    1.5375 H   0  0  0  0  0  0  0  0  0  0  0  0
   -2.8102    1.9561    1.5216 H   0  0  0  0  0  0  0  0  0  0  0  0
   -4.8201    3.1447    1.4924 H   0  0  0  0  0  0  0  0  0  0  0  0
   -6.1762    2.3305    2.2765 H   0  0  0  0  0  0  0  0  0  0  0  0
   -6.0702    2.3975    0.4927 H   0  0  0  0  0  0  0  0  0  0  0  0
   -7.3498    0.0897    2.2117 H   0  0  0  0  0  0  0  0  0  0  0  0
   -7.2589   -1.3673    1.2151 H   0  0  0  0  0  0  0  0  0  0  0  0
   -7.2914    0.2117    0.4286 H   0  0  0  0  0  0  0  0  0  0  0  0
   -5.1708   -2.4003    1.3427 H   0  0  0  0  0  0  0  0  0  0  0  0
   -3.0622   -0.1681   -1.2915 H   0  0  0  0  0  0  0  0  0  0  0  0
    0.2442   -1.1288   -4.7218 H   0  0  0  0  0  0  0  0  0  0  0  0
   -0.6167    0.3938   -5.1224 H   0  0  0  0  0  0  0  0  0  0  0  0
    1.0159    0.4616   -4.4094 H   0  0  0  0  0  0  0  0  0  0  0  0
  1  2  1  0
  2  3  2  3
  3  4  1  0
  4  5  1  0
  5  6  1  0
  6  7  1  0
  7  8  1  0
  2  9  1  0
  9 10  1  0
 10 11  2  3
 11 12  1  0
 12 13  2  0
 13 14  1  0
 14 15  1  0
 14 16  2  0
 16 17  1  0
 16 18  1  0
 18 19  2  0
 19 20  1  0
 10 21  1  0
 21 22  1  0
 22 23  2  0
 23 24  1  0
 24 25  1  0
 24 26  1  0
 26  1  1  0
 19 12  1  0
 26 21  2  0
  1 27  1  0
  4 28  1  0
  4 29  1  0
  5 30  1  0
  5 31  1  0
  6 32  1  0
  6 33  1  0
  8 34  1  0
  8 35  1  0
  8 36  1  0
  9 37  1  0
 13 38  1  0
 15 39  1  0
 15 40  1  0
 15 41  1  0
 17 42  1  0
 17 43  1  0
 17 44  1  0
 18 45  1  0
 22 46  1  0
 25 47  1  0
 25 48  1  0
 25 49  1  0
M  END
>  <ScrubInfo>  (9) 
{"isomerGroup": 0, "isomerId": 8, "confId": 0, "nr_conformers:": 1, "nr_isomers:": 9}

$$$$
