REMARK SMILES CC(C)CCNc1nc(Nc2ccc(Br)cc2)c2cnn(C)c2n1
REMARK SMILES IDX 6 1 5 3 4 4 2 5 1 6 3 7 7 8 8 9 24 10 9 11 23 12 18 13 21 14
REMARK SMILES IDX 19 15 20 16 22 17 10 18 11 20 12 21 17 22 13 23 16 24 14 25
REMARK SMILES IDX 15 26
REMARK H PARENT 6 2 10 19
ROOT
ATOM      1  N   UNL     1       1.689   0.908   0.059  1.00  0.00    -0.354 N 
ATOM      2  H   UNL     1       2.298   1.706  -0.086  1.00  0.00     0.163 HD
ENDROOT
BRANCH   1   3
ATOM      3  C   UNL     1       1.898  -0.202  -0.854  1.00  0.00     0.116 C 
BRANCH   3   4
ATOM      4  C   UNL     1       3.362  -0.652  -0.810  1.00  0.00     0.024 C 
BRANCH   4   5
ATOM      5  C   UNL     1       3.843  -1.176   0.559  1.00  0.00    -0.016 C 
ATOM      6  C   UNL     1       5.332  -1.524   0.484  1.00  0.00     0.007 C 
ATOM      7  C   UNL     1       3.050  -2.396   1.030  1.00  0.00     0.007 C 
ENDBRANCH   4   5
ENDBRANCH   3   4
ENDBRANCH   1   3
BRANCH   1   8
ATOM      8  C   UNL     1       0.394   1.415   0.063  1.00  0.00     0.226 A 
ATOM      9  N   UNL     1      -0.647   0.577  -0.094  1.00  0.00    -0.195 NA
ATOM     10  N   UNL     1       0.308   2.740   0.229  1.00  0.00    -0.193 NA
ATOM     11  C   UNL     1      -1.926   1.034  -0.082  1.00  0.00     0.147 A 
ATOM     12  C   UNL     1      -0.959   3.180   0.233  1.00  0.00     0.165 A 
ATOM     13  C   UNL     1      -2.098   2.414   0.084  1.00  0.00     0.082 A 
ATOM     14  N   UNL     1      -1.388   4.471   0.383  1.00  0.00    -0.250 N 
ATOM     15  C   UNL     1      -3.156   3.344   0.156  1.00  0.00     0.149 A 
ATOM     16  N   UNL     1      -2.735   4.601   0.333  1.00  0.00    -0.179 NA
ATOM     17  C   UNL     1      -0.569   5.640   0.580  1.00  0.00     0.176 C 
BRANCH  11  18
ATOM     18  N   UNL     1      -3.020   0.173  -0.261  1.00  0.00    -0.339 N 
ATOM     19  H   UNL     1      -3.910   0.649  -0.305  1.00  0.00     0.168 HD
BRANCH  18  20
ATOM     20  C   UNL     1      -3.116  -1.228  -0.301  1.00  0.00     0.040 A 
ATOM     21  C   UNL     1      -2.063  -2.092   0.023  1.00  0.00     0.027 A 
ATOM     22  C   UNL     1      -4.320  -1.804  -0.742  1.00  0.00     0.027 A 
ATOM     23  C   UNL     1      -2.207  -3.481  -0.070  1.00  0.00     0.018 A 
ATOM     24  C   UNL     1      -4.472  -3.192  -0.839  1.00  0.00     0.018 A 
ATOM     25  C   UNL     1      -3.412  -4.025  -0.500  1.00  0.00     0.018 A 
ATOM     26  Br  UNL     1      -3.608  -5.900  -0.629  1.00  0.00    -0.051 Br
ENDBRANCH  18  20
ENDBRANCH  11  18
ENDBRANCH   1   8
TORSDOF 6
