_i0
     RDKit          3D

 45 47  0  0  0  0  0  0  0  0999 V2000
    5.3317   -1.5240    0.4844 C   0  0  0  0  0  0  0  0  0  0  0  0
    3.8426   -1.1759    0.5593 C   0  0  0  0  0  0  0  0  0  0  0  0
    3.0503   -2.3964    1.0303 C   0  0  0  0  0  0  0  0  0  0  0  0
    3.3622   -0.6524   -0.8097 C   0  0  0  0  0  0  0  0  0  0  0  0
    1.8978   -0.2023   -0.8536 C   0  0  0  0  0  0  0  0  0  0  0  0
    1.6894    0.9085    0.0592 N   0  0  0  0  0  0  0  0  0  0  0  0
    0.3940    1.4152    0.0631 C   0  0  0  0  0  0  0  0  0  0  0  0
   -0.6468    0.5768   -0.0939 N   0  0  0  0  0  0  0  0  0  0  0  0
   -1.9259    1.0337   -0.0823 C   0  0  0  0  0  0  0  0  0  0  0  0
   -3.0200    0.1734   -0.2605 N   0  0  0  0  0  0  0  0  0  0  0  0
   -3.1162   -1.2285   -0.3009 C   0  0  0  0  0  0  0  0  0  0  0  0
   -2.0633   -2.0916    0.0230 C   0  0  0  0  0  0  0  0  0  0  0  0
   -2.2068   -3.4813   -0.0697 C   0  0  0  0  0  0  0  0  0  0  0  0
   -3.4117   -4.0250   -0.5005 C   0  0  0  0  0  0  0  0  0  0  0  0
   -3.6079   -5.8997   -0.6288 Br  0  0  0  0  0  0  0  0  0  0  0  0
   -4.4722   -3.1920   -0.8391 C   0  0  0  0  0  0  0  0  0  0  0  0
   -4.3203   -1.8045   -0.7421 C   0  0  0  0  0  0  0  0  0  0  0  0
   -2.0979    2.4136    0.0840 C   0  0  0  0  0  0  0  0  0  0  0  0
   -3.1560    3.3438    0.1563 C   0  0  0  0  0  0  0  0  0  0  0  0
   -2.7348    4.6009    0.3333 N   0  0  0  0  0  0  0  0  0  0  0  0
   -1.3882    4.4706    0.3834 N   0  0  0  0  0  0  0  0  0  0  0  0
   -0.5693    5.6402    0.5798 C   0  0  0  0  0  0  0  0  0  0  0  0
   -0.9586    3.1803    0.2325 C   0  0  0  0  0  0  0  0  0  0  0  0
    0.3079    2.7403    0.2289 N   0  0  0  0  0  0  0  0  0  0  0  0
    5.7028   -1.8590    1.4589 H   0  0  0  0  0  0  0  0  0  0  0  0
    5.5177   -2.3227   -0.2418 H   0  0  0  0  0  0  0  0  0  0  0  0
    5.9212   -0.6503    0.1868 H   0  0  0  0  0  0  0  0  0  0  0  0
    3.7263   -0.3828    1.3080 H   0  0  0  0  0  0  0  0  0  0  0  0
    3.4655   -2.7922    1.9636 H   0  0  0  0  0  0  0  0  0  0  0  0
    2.0043   -2.1417    1.2260 H   0  0  0  0  0  0  0  0  0  0  0  0
    3.0739   -3.1975    0.2839 H   0  0  0  0  0  0  0  0  0  0  0  0
    3.5050   -1.4341   -1.5670 H   0  0  0  0  0  0  0  0  0  0  0  0
    3.9985    0.1909   -1.1097 H   0  0  0  0  0  0  0  0  0  0  0  0
    1.6640    0.1103   -1.8795 H   0  0  0  0  0  0  0  0  0  0  0  0
    1.2464   -1.0496   -0.6131 H   0  0  0  0  0  0  0  0  0  0  0  0
    2.2981    1.7065   -0.0857 H   0  0  0  0  0  0  0  0  0  0  0  0
   -3.9102    0.6487   -0.3051 H   0  0  0  0  0  0  0  0  0  0  0  0
   -1.1121   -1.7026    0.3741 H   0  0  0  0  0  0  0  0  0  0  0  0
   -1.3703   -4.1208    0.1985 H   0  0  0  0  0  0  0  0  0  0  0  0
   -5.4163   -3.6060   -1.1824 H   0  0  0  0  0  0  0  0  0  0  0  0
   -5.1590   -1.1729   -1.0247 H   0  0  0  0  0  0  0  0  0  0  0  0
   -4.2202    3.1612    0.0881 H   0  0  0  0  0  0  0  0  0  0  0  0
   -0.8544    6.1044    1.5273 H   0  0  0  0  0  0  0  0  0  0  0  0
    0.4857    5.3589    0.6086 H   0  0  0  0  0  0  0  0  0  0  0  0
   -0.7472    6.3273   -0.2513 H   0  0  0  0  0  0  0  0  0  0  0  0
  1  2  1  0
  2  3  1  0
  2  4  1  0
  4  5  1  0
  5  6  1  0
  6  7  1  0
  7  8  2  0
  8  9  1  0
  9 10  1  0
 10 11  1  0
 11 12  2  0
 12 13  1  0
 13 14  2  0
 14 15  1  0
 14 16  1  0
 16 17  2  0
  9 18  2  0
 18 19  1  0
 19 20  2  0
 20 21  1  0
 21 22  1  0
 21 23  1  0
 23 24  2  0
 24  7  1  0
 17 11  1  0
 23 18  1  0
  1 25  1  0
  1 26  1  0
  1 27  1  0
  2 28  1  0
  3 29  1  0
  3 30  1  0
  3 31  1  0
  4 32  1  0
  4 33  1  0
  5 34  1  0
  5 35  1  0
  6 36  1  0
 10 37  1  0
 12 38  1  0
 13 39  1  0
 16 40  1  0
 17 41  1  0
 19 42  1  0
 22 43  1  0
 22 44  1  0
 22 45  1  0
M  END
>  <ScrubInfo>  (1) 
{"isomerGroup": 0, "isomerId": 0, "confId": 0, "nr_conformers:": 1, "nr_isomers:": 9}

$$$$
_i1
     RDKit          3D

 45 47  0  0  0  0  0  0  0  0999 V2000
    0.1753   -0.1706    0.6467 N   0  0  0  0  0  0  0  0  0  0  0  0
    1.5563   -0.1448    0.7187 C   0  0  0  0  0  0  0  0  0  0  0  0
    2.2271    1.0113    1.0706 N   0  0  0  0  0  0  0  0  0  0  0  0
    3.2130    1.6803    0.3091 C   0  0  0  0  0  0  0  0  0  0  0  0
    3.9165    2.7322    0.9170 C   0  0  0  0  0  0  0  0  0  0  0  0
    4.9332    3.4096    0.2372 C   0  0  0  0  0  0  0  0  0  0  0  0
    5.2621    3.0333   -1.0611 C   0  0  0  0  0  0  0  0  0  0  0  0
    6.6350    3.9445   -1.9855 Br  0  0  0  0  0  0  0  0  0  0  0  0
    4.5853    1.9870   -1.6807 C   0  0  0  0  0  0  0  0  0  0  0  0
    3.5694    1.3116   -0.9951 C   0  0  0  0  0  0  0  0  0  0  0  0
    2.1675   -1.3117    0.4824 C   0  0  0  0  0  0  0  0  0  0  0  0
    3.5362   -1.8395    0.4537 C   0  0  0  0  0  0  0  0  0  0  0  0
    3.5883   -3.1075    0.1295 N   0  0  0  0  0  0  0  0  0  0  0  0
    2.2504   -3.5079   -0.0200 N   0  0  0  0  0  0  0  0  0  0  0  0
    1.9589   -4.7767   -0.6405 C   0  0  0  0  0  0  0  0  0  0  0  0
    1.3352   -2.4802    0.1355 C   0  0  0  0  0  0  0  0  0  0  0  0
    0.0530   -2.4748    0.0125 N   0  0  0  0  0  0  0  0  0  0  0  0
   -0.5645   -1.2678    0.2560 C   0  0  0  0  0  0  0  0  0  0  0  0
   -1.8367   -1.3028    0.0769 N   0  0  0  0  0  0  0  0  0  0  0  0
   -2.6269   -0.0996    0.3025 C   0  0  0  0  0  0  0  0  0  0  0  0
   -4.0966   -0.4404    0.0473 C   0  0  0  0  0  0  0  0  0  0  0  0
   -5.0316    0.7805    0.1126 C   0  0  0  0  0  0  0  0  0  0  0  0
   -6.4497    0.3705   -0.2920 C   0  0  0  0  0  0  0  0  0  0  0  0
   -5.0562    1.4236    1.4999 C   0  0  0  0  0  0  0  0  0  0  0  0
   -0.2968    0.7146    0.7162 H   0  0  0  0  0  0  0  0  0  0  0  0
    1.6491    1.6743    1.5796 H   0  0  0  0  0  0  0  0  0  0  0  0
    3.6862    3.0260    1.9389 H   0  0  0  0  0  0  0  0  0  0  0  0
    5.4626    4.2199    0.7316 H   0  0  0  0  0  0  0  0  0  0  0  0
    4.8362    1.6877   -2.6954 H   0  0  0  0  0  0  0  0  0  0  0  0
    3.0503    0.5111   -1.5157 H   0  0  0  0  0  0  0  0  0  0  0  0
    4.3994   -1.1978    0.6713 H   0  0  0  0  0  0  0  0  0  0  0  0
    1.9378   -4.6715   -1.7297 H   0  0  0  0  0  0  0  0  0  0  0  0
    2.7188   -5.5203   -0.3793 H   0  0  0  0  0  0  0  0  0  0  0  0
    0.9890   -5.1606   -0.3084 H   0  0  0  0  0  0  0  0  0  0  0  0
   -2.4984    0.2468    1.3337 H   0  0  0  0  0  0  0  0  0  0  0  0
   -2.3141    0.6965   -0.3833 H   0  0  0  0  0  0  0  0  0  0  0  0
   -4.4231   -1.2025    0.7671 H   0  0  0  0  0  0  0  0  0  0  0  0
   -4.1826   -0.9023   -0.9454 H   0  0  0  0  0  0  0  0  0  0  0  0
   -4.6811    1.5310   -0.6072 H   0  0  0  0  0  0  0  0  0  0  0  0
   -6.8585   -0.3783    0.3951 H   0  0  0  0  0  0  0  0  0  0  0  0
   -6.4593   -0.0540   -1.3015 H   0  0  0  0  0  0  0  0  0  0  0  0
   -7.1211    1.2357   -0.2891 H   0  0  0  0  0  0  0  0  0  0  0  0
   -5.3354    0.6963    2.2698 H   0  0  0  0  0  0  0  0  0  0  0  0
   -5.7795    2.2456    1.5339 H   0  0  0  0  0  0  0  0  0  0  0  0
   -4.0799    1.8418    1.7628 H   0  0  0  0  0  0  0  0  0  0  0  0
  1  2  1  0
  2  3  1  0
  3  4  1  0
  4  5  2  0
  5  6  1  0
  6  7  2  0
  7  8  1  0
  7  9  1  0
  9 10  2  0
  2 11  2  0
 11 12  1  0
 12 13  2  0
 13 14  1  0
 14 15  1  0
 14 16  1  0
 16 17  2  0
 17 18  1  0
 18 19  2  3
 19 20  1  0
 20 21  1  0
 21 22  1  0
 22 23  1  0
 22 24  1  0
 18  1  1  0
 10  4  1  0
 16 11  1  0
  1 25  1  0
  3 26  1  0
  5 27  1  0
  6 28  1  0
  9 29  1  0
 10 30  1  0
 12 31  1  0
 15 32  1  0
 15 33  1  0
 15 34  1  0
 20 35  1  0
 20 36  1  0
 21 37  1  0
 21 38  1  0
 22 39  1  0
 23 40  1  0
 23 41  1  0
 23 42  1  0
 24 43  1  0
 24 44  1  0
 24 45  1  0
M  END
>  <ScrubInfo>  (2) 
{"isomerGroup": 0, "isomerId": 1, "confId": 0, "nr_conformers:": 1, "nr_isomers:": 9}

$$$$
_i2
     RDKit          3D

 45 47  0  0  0  0  0  0  0  0999 V2000
   -1.3881   -0.1563   -0.0806 N   0  0  0  0  0  0  0  0  0  0  0  0
   -0.1049   -0.5315   -0.4197 C   0  0  0  0  0  0  0  0  0  0  0  0
    0.8431    0.2898    0.1339 N   0  0  0  0  0  0  0  0  0  0  0  0
    2.2613   -0.0025   -0.0426 C   0  0  0  0  0  0  0  0  0  0  0  0
    3.0931    1.1467    0.5310 C   0  0  0  0  0  0  0  0  0  0  0  0
    4.6022    1.0048    0.2626 C   0  0  0  0  0  0  0  0  0  0  0  0
    5.2001   -0.2328    0.9332 C   0  0  0  0  0  0  0  0  0  0  0  0
    5.3355    2.2589    0.7448 C   0  0  0  0  0  0  0  0  0  0  0  0
    0.1813   -1.5496   -1.1914 N   0  0  0  0  0  0  0  0  0  0  0  0
   -0.9422   -2.2003   -1.6044 C   0  0  0  0  0  0  0  0  0  0  0  0
   -2.2575   -1.8941   -1.3173 C   0  0  0  0  0  0  0  0  0  0  0  0
   -3.0185   -2.8652   -1.9816 C   0  0  0  0  0  0  0  0  0  0  0  0
   -2.2529   -3.7400   -2.6478 N   0  0  0  0  0  0  0  0  0  0  0  0
   -0.9897   -3.3083   -2.4039 N   0  0  0  0  0  0  0  0  0  0  0  0
    0.1231   -4.0199   -2.9795 C   0  0  0  0  0  0  0  0  0  0  0  0
   -2.5613   -0.7555   -0.4902 C   0  0  0  0  0  0  0  0  0  0  0  0
   -3.7985   -0.4610   -0.2662 N   0  0  0  0  0  0  0  0  0  0  0  0
   -4.0720    0.6515    0.5360 C   0  0  0  0  0  0  0  0  0  0  0  0
   -4.2086    0.5066    1.9194 C   0  0  0  0  0  0  0  0  0  0  0  0
   -4.4789    1.6165    2.7234 C   0  0  0  0  0  0  0  0  0  0  0  0
   -4.6229    2.8730    2.1371 C   0  0  0  0  0  0  0  0  0  0  0  0
   -4.9863    4.3775    3.2216 Br  0  0  0  0  0  0  0  0  0  0  0  0
   -4.5055    3.0274    0.7567 C   0  0  0  0  0  0  0  0  0  0  0  0
   -4.2356    1.9136   -0.0419 C   0  0  0  0  0  0  0  0  0  0  0  0
   -1.4903    0.7277    0.3886 H   0  0  0  0  0  0  0  0  0  0  0  0
    0.6252    0.5945    1.0753 H   0  0  0  0  0  0  0  0  0  0  0  0
    2.4875   -0.1210   -1.1086 H   0  0  0  0  0  0  0  0  0  0  0  0
    2.4992   -0.9416    0.4680 H   0  0  0  0  0  0  0  0  0  0  0  0
    2.7406    2.0899    0.0923 H   0  0  0  0  0  0  0  0  0  0  0  0
    2.9115    1.2258    1.6110 H   0  0  0  0  0  0  0  0  0  0  0  0
    4.7605    0.9190   -0.8199 H   0  0  0  0  0  0  0  0  0  0  0  0
    4.7822   -1.1535    0.5151 H   0  0  0  0  0  0  0  0  0  0  0  0
    5.0110   -0.2303    2.0119 H   0  0  0  0  0  0  0  0  0  0  0  0
    6.2842   -0.2714    0.7805 H   0  0  0  0  0  0  0  0  0  0  0  0
    6.4066    2.1920    0.5262 H   0  0  0  0  0  0  0  0  0  0  0  0
    5.2177    2.3979    1.8249 H   0  0  0  0  0  0  0  0  0  0  0  0
    4.9493    3.1528    0.2435 H   0  0  0  0  0  0  0  0  0  0  0  0
   -4.0950   -2.9734   -2.0098 H   0  0  0  0  0  0  0  0  0  0  0  0
    1.0632   -3.5444   -2.6917 H   0  0  0  0  0  0  0  0  0  0  0  0
    0.0173   -4.0014   -4.0672 H   0  0  0  0  0  0  0  0  0  0  0  0
    0.1007   -5.0486   -2.6111 H   0  0  0  0  0  0  0  0  0  0  0  0
   -4.1119   -0.4785    2.3692 H   0  0  0  0  0  0  0  0  0  0  0  0
   -4.5846    1.4877    3.7973 H   0  0  0  0  0  0  0  0  0  0  0  0
   -4.6315    4.0021    0.2926 H   0  0  0  0  0  0  0  0  0  0  0  0
   -4.1597    2.0255   -1.1209 H   0  0  0  0  0  0  0  0  0  0  0  0
  1  2  1  0
  2  3  1  0
  3  4  1  0
  4  5  1  0
  5  6  1  0
  6  7  1  0
  6  8  1  0
  2  9  2  0
  9 10  1  0
 10 11  2  0
 11 12  1  0
 12 13  2  0
 13 14  1  0
 14 15  1  0
 11 16  1  0
 16 17  2  3
 17 18  1  0
 18 19  2  0
 19 20  1  0
 20 21  2  0
 21 22  1  0
 21 23  1  0
 23 24  2  0
 16  1  1  0
 24 18  1  0
 14 10  1  0
  1 25  1  0
  3 26  1  0
  4 27  1  0
  4 28  1  0
  5 29  1  0
  5 30  1  0
  6 31  1  0
  7 32  1  0
  7 33  1  0
  7 34  1  0
  8 35  1  0
  8 36  1  0
  8 37  1  0
 12 38  1  0
 15 39  1  0
 15 40  1  0
 15 41  1  0
 19 42  1  0
 20 43  1  0
 23 44  1  0
 24 45  1  0
M  END
>  <ScrubInfo>  (3) 
{"isomerGroup": 0, "isomerId": 2, "confId": 0, "nr_conformers:": 1, "nr_isomers:": 9}

$$$$
_i3
     RDKit          3D

 45 47  0  0  0  0  0  0  0  0999 V2000
    0.1547   -2.6017   -1.2258 N   0  0  0  0  0  0  0  0  0  0  0  0
    0.9238   -1.8034   -0.4060 C   0  0  0  0  0  0  0  0  0  0  0  0
    2.2086   -1.8672   -0.5333 N   0  0  0  0  0  0  0  0  0  0  0  0
    3.0432   -1.0314    0.3328 C   0  0  0  0  0  0  0  0  0  0  0  0
    3.2773    0.3262   -0.3326 C   0  0  0  0  0  0  0  0  0  0  0  0
    4.2667    1.2225    0.4333 C   0  0  0  0  0  0  0  0  0  0  0  0
    4.5691    2.4796   -0.3861 C   0  0  0  0  0  0  0  0  0  0  0  0
    3.7409    1.6215    1.8131 C   0  0  0  0  0  0  0  0  0  0  0  0
    0.3514   -0.9472    0.5242 N   0  0  0  0  0  0  0  0  0  0  0  0
   -0.9484   -0.8773    0.6064 C   0  0  0  0  0  0  0  0  0  0  0  0
   -1.5936   -0.0695    1.5083 N   0  0  0  0  0  0  0  0  0  0  0  0
   -2.4691    0.9871    1.1444 C   0  0  0  0  0  0  0  0  0  0  0  0
   -2.5544    1.5032   -0.1558 C   0  0  0  0  0  0  0  0  0  0  0  0
   -3.4202    2.5621   -0.4478 C   0  0  0  0  0  0  0  0  0  0  0  0
   -4.1991    3.1191    0.5629 C   0  0  0  0  0  0  0  0  0  0  0  0
   -5.3682    4.5502    0.1683 Br  0  0  0  0  0  0  0  0  0  0  0  0
   -4.1172    2.6306    1.8638 C   0  0  0  0  0  0  0  0  0  0  0  0
   -3.2509    1.5724    2.1516 C   0  0  0  0  0  0  0  0  0  0  0  0
   -1.7901   -1.7163   -0.2168 C   0  0  0  0  0  0  0  0  0  0  0  0
   -3.1587   -1.9761   -0.3820 C   0  0  0  0  0  0  0  0  0  0  0  0
   -3.3914   -2.8973   -1.3313 N   0  0  0  0  0  0  0  0  0  0  0  0
   -2.1518   -3.2384   -1.7644 N   0  0  0  0  0  0  0  0  0  0  0  0
   -2.0172   -4.2341   -2.7966 C   0  0  0  0  0  0  0  0  0  0  0  0
   -1.1802   -2.5508   -1.1116 C   0  0  0  0  0  0  0  0  0  0  0  0
    0.6813   -3.1925   -1.8551 H   0  0  0  0  0  0  0  0  0  0  0  0
    2.6249   -0.9309    1.3399 H   0  0  0  0  0  0  0  0  0  0  0  0
    4.0043   -1.5436    0.4591 H   0  0  0  0  0  0  0  0  0  0  0  0
    2.3210    0.8505   -0.4550 H   0  0  0  0  0  0  0  0  0  0  0  0
    3.6612    0.1548   -1.3471 H   0  0  0  0  0  0  0  0  0  0  0  0
    5.2080    0.6750    0.5683 H   0  0  0  0  0  0  0  0  0  0  0  0
    5.3003    3.1128    0.1275 H   0  0  0  0  0  0  0  0  0  0  0  0
    4.9864    2.2162   -1.3637 H   0  0  0  0  0  0  0  0  0  0  0  0
    3.6637    3.0734   -0.5523 H   0  0  0  0  0  0  0  0  0  0  0  0
    3.6364    0.7512    2.4676 H   0  0  0  0  0  0  0  0  0  0  0  0
    2.7646    2.1125    1.7393 H   0  0  0  0  0  0  0  0  0  0  0  0
    4.4311    2.3150    2.3058 H   0  0  0  0  0  0  0  0  0  0  0  0
   -0.9067    0.3159    2.1542 H   0  0  0  0  0  0  0  0  0  0  0  0
   -1.9437    1.1017   -0.9612 H   0  0  0  0  0  0  0  0  0  0  0  0
   -3.4735    2.9442   -1.4641 H   0  0  0  0  0  0  0  0  0  0  0  0
   -4.7205    3.0619    2.6583 H   0  0  0  0  0  0  0  0  0  0  0  0
   -3.1997    1.1946    3.1707 H   0  0  0  0  0  0  0  0  0  0  0  0
   -4.0001   -1.5393    0.1403 H   0  0  0  0  0  0  0  0  0  0  0  0
   -2.4282   -5.1751   -2.4224 H   0  0  0  0  0  0  0  0  0  0  0  0
   -0.9638   -4.3650   -3.0529 H   0  0  0  0  0  0  0  0  0  0  0  0
   -2.5721   -3.8969   -3.6758 H   0  0  0  0  0  0  0  0  0  0  0  0
  1  2  1  0
  2  3  2  3
  3  4  1  0
  4  5  1  0
  5  6  1  0
  6  7  1  0
  6  8  1  0
  2  9  1  0
  9 10  2  0
 10 11  1  0
 11 12  1  0
 12 13  2  0
 13 14  1  0
 14 15  2  0
 15 16  1  0
 15 17  1  0
 17 18  2  0
 10 19  1  0
 19 20  1  0
 20 21  2  0
 21 22  1  0
 22 23  1  0
 22 24  1  0
 24  1  1  0
 18 12  1  0
 24 19  2  0
  1 25  1  0
  4 26  1  0
  4 27  1  0
  5 28  1  0
  5 29  1  0
  6 30  1  0
  7 31  1  0
  7 32  1  0
  7 33  1  0
  8 34  1  0
  8 35  1  0
  8 36  1  0
 11 37  1  0
 13 38  1  0
 14 39  1  0
 17 40  1  0
 18 41  1  0
 20 42  1  0
 23 43  1  0
 23 44  1  0
 23 45  1  0
M  END
>  <ScrubInfo>  (4) 
{"isomerGroup": 0, "isomerId": 3, "confId": 0, "nr_conformers:": 1, "nr_isomers:": 9}

$$$$
_i4
     RDKit          3D

 45 47  0  0  0  0  0  0  0  0999 V2000
    3.3624   -2.7844    0.1059 N   0  0  0  0  0  0  0  0  0  0  0  0
    3.2590   -1.3977    0.1324 C   0  0  0  0  0  0  0  0  0  0  0  0
    1.9920   -0.9558    0.1446 C   0  0  0  0  0  0  0  0  0  0  0  0
    1.2599    0.3035    0.1920 C   0  0  0  0  0  0  0  0  0  0  0  0
    1.6812    1.5243    0.1620 N   0  0  0  0  0  0  0  0  0  0  0  0
    3.0432    1.8088    0.0652 C   0  0  0  0  0  0  0  0  0  0  0  0
    3.8029    2.0141    1.2207 C   0  0  0  0  0  0  0  0  0  0  0  0
    5.1629    2.3195    1.1287 C   0  0  0  0  0  0  0  0  0  0  0  0
    5.7589    2.4358   -0.1261 C   0  0  0  0  0  0  0  0  0  0  0  0
    7.5994    2.8459   -0.2555 Br  0  0  0  0  0  0  0  0  0  0  0  0
    5.0069    2.2584   -1.2864 C   0  0  0  0  0  0  0  0  0  0  0  0
    3.6474    1.9529   -1.1874 C   0  0  0  0  0  0  0  0  0  0  0  0
   -0.0972    0.1506    0.2839 N   0  0  0  0  0  0  0  0  0  0  0  0
   -0.6914   -1.0025    0.2655 C   0  0  0  0  0  0  0  0  0  0  0  0
   -2.0503   -1.0904    0.3684 N   0  0  0  0  0  0  0  0  0  0  0  0
   -2.9195    0.0364    0.0903 C   0  0  0  0  0  0  0  0  0  0  0  0
   -4.3680   -0.3490    0.4019 C   0  0  0  0  0  0  0  0  0  0  0  0
   -5.4110    0.7592    0.1643 C   0  0  0  0  0  0  0  0  0  0  0  0
   -5.4776    1.1913   -1.3004 C   0  0  0  0  0  0  0  0  0  0  0  0
   -5.1897    1.9711    1.0694 C   0  0  0  0  0  0  0  0  0  0  0  0
   -0.0662   -2.2131    0.1362 N   0  0  0  0  0  0  0  0  0  0  0  0
    1.2194   -2.2103    0.0730 C   0  0  0  0  0  0  0  0  0  0  0  0
    2.0841   -3.2990   -0.0546 N   0  0  0  0  0  0  0  0  0  0  0  0
    1.7609   -4.5792    0.5465 C   0  0  0  0  0  0  0  0  0  0  0  0
    4.0725   -3.1262   -0.5459 H   0  0  0  0  0  0  0  0  0  0  0  0
    4.1704   -0.8185    0.1367 H   0  0  0  0  0  0  0  0  0  0  0  0
    3.3268    1.9397    2.1953 H   0  0  0  0  0  0  0  0  0  0  0  0
    5.7399    2.4729    2.0366 H   0  0  0  0  0  0  0  0  0  0  0  0
    5.4620    2.3653   -2.2672 H   0  0  0  0  0  0  0  0  0  0  0  0
    3.0503    1.8330   -2.0878 H   0  0  0  0  0  0  0  0  0  0  0  0
   -2.3889   -1.9981    0.0759 H   0  0  0  0  0  0  0  0  0  0  0  0
   -2.8161    0.3170   -0.9629 H   0  0  0  0  0  0  0  0  0  0  0  0
   -2.6206    0.8919    0.7046 H   0  0  0  0  0  0  0  0  0  0  0  0
   -4.6432   -1.2245   -0.2015 H   0  0  0  0  0  0  0  0  0  0  0  0
   -4.4334   -0.6763    1.4483 H   0  0  0  0  0  0  0  0  0  0  0  0
   -6.3895    0.3333    0.4237 H   0  0  0  0  0  0  0  0  0  0  0  0
   -5.6219    0.3263   -1.9560 H   0  0  0  0  0  0  0  0  0  0  0  0
   -6.3187    1.8746   -1.4605 H   0  0  0  0  0  0  0  0  0  0  0  0
   -4.5665    1.7109   -1.6138 H   0  0  0  0  0  0  0  0  0  0  0  0
   -5.1249    1.6672    2.1194 H   0  0  0  0  0  0  0  0  0  0  0  0
   -6.0240    2.6751    0.9774 H   0  0  0  0  0  0  0  0  0  0  0  0
   -4.2732    2.5109    0.8113 H   0  0  0  0  0  0  0  0  0  0  0  0
    1.7319   -4.5006    1.6383 H   0  0  0  0  0  0  0  0  0  0  0  0
    2.5100   -5.3287    0.2713 H   0  0  0  0  0  0  0  0  0  0  0  0
    0.7875   -4.9355    0.1944 H   0  0  0  0  0  0  0  0  0  0  0  0
  1  2  1  0
  2  3  2  0
  3  4  1  0
  4  5  2  3
  5  6  1  0
  6  7  2  0
  7  8  1  0
  8  9  2  0
  9 10  1  0
  9 11  1  0
 11 12  2  0
  4 13  1  0
 13 14  2  0
 14 15  1  0
 15 16  1  0
 16 17  1  0
 17 18  1  0
 18 19  1  0
 18 20  1  0
 14 21  1  0
 21 22  2  0
 22 23  1  0
 23 24  1  0
 23  1  1  0
 22  3  1  0
 12  6  1  0
  1 25  1  0
  2 26  1  0
  7 27  1  0
  8 28  1  0
 11 29  1  0
 12 30  1  0
 15 31  1  0
 16 32  1  0
 16 33  1  0
 17 34  1  0
 17 35  1  0
 18 36  1  0
 19 37  1  0
 19 38  1  0
 19 39  1  0
 20 40  1  0
 20 41  1  0
 20 42  1  0
 24 43  1  0
 24 44  1  0
 24 45  1  0
M  END
>  <ScrubInfo>  (5) 
{"isomerGroup": 0, "isomerId": 4, "confId": 0, "nr_conformers:": 1, "nr_isomers:": 9}

$$$$
_i5
     RDKit          3D

 45 47  0  0  0  0  0  0  0  0999 V2000
    0.2551    1.9634    0.4601 N   0  0  0  0  0  0  0  0  0  0  0  0
    0.7727    0.8969    1.1506 C   0  0  0  0  0  0  0  0  0  0  0  0
    2.0351    1.0682    1.6408 N   0  0  0  0  0  0  0  0  0  0  0  0
    3.1453    1.5753    0.8478 C   0  0  0  0  0  0  0  0  0  0  0  0
    3.4772    0.6694   -0.3421 C   0  0  0  0  0  0  0  0  0  0  0  0
    3.8796   -0.7757    0.0147 C   0  0  0  0  0  0  0  0  0  0  0  0
    5.1198   -0.8339    0.9068 C   0  0  0  0  0  0  0  0  0  0  0  0
    4.1275   -1.5733   -1.2687 C   0  0  0  0  0  0  0  0  0  0  0  0
    0.1573   -0.2293    1.3741 N   0  0  0  0  0  0  0  0  0  0  0  0
   -1.1260   -0.4289    0.8794 C   0  0  0  0  0  0  0  0  0  0  0  0
   -1.6406   -1.5972    1.0983 N   0  0  0  0  0  0  0  0  0  0  0  0
   -2.9138   -1.9529    0.6596 C   0  0  0  0  0  0  0  0  0  0  0  0
   -3.0906   -2.5342   -0.5998 C   0  0  0  0  0  0  0  0  0  0  0  0
   -4.3622   -2.9237   -1.0274 C   0  0  0  0  0  0  0  0  0  0  0  0
   -5.4569   -2.7469   -0.1826 C   0  0  0  0  0  0  0  0  0  0  0  0
   -7.1791   -3.2728   -0.7571 Br  0  0  0  0  0  0  0  0  0  0  0  0
   -5.2902   -2.1928    1.0856 C   0  0  0  0  0  0  0  0  0  0  0  0
   -4.0159   -1.8051    1.5071 C   0  0  0  0  0  0  0  0  0  0  0  0
   -1.7343    0.6913    0.1797 C   0  0  0  0  0  0  0  0  0  0  0  0
   -2.9668    0.9989   -0.4247 C   0  0  0  0  0  0  0  0  0  0  0  0
   -3.0054    2.2433   -0.9283 N   0  0  0  0  0  0  0  0  0  0  0  0
   -1.7818    2.7426   -0.6439 N   0  0  0  0  0  0  0  0  0  0  0  0
   -1.4629    4.0877   -1.0490 C   0  0  0  0  0  0  0  0  0  0  0  0
   -1.0045    1.8410    0.0090 C   0  0  0  0  0  0  0  0  0  0  0  0
    0.7388    2.8460    0.5470 H   0  0  0  0  0  0  0  0  0  0  0  0
    2.2966    0.2253    2.1503 H   0  0  0  0  0  0  0  0  0  0  0  0
    2.9158    2.5825    0.4821 H   0  0  0  0  0  0  0  0  0  0  0  0
    4.0186    1.6871    1.4987 H   0  0  0  0  0  0  0  0  0  0  0  0
    4.2914    1.1391   -0.9093 H   0  0  0  0  0  0  0  0  0  0  0  0
    2.6131    0.6385   -1.0183 H   0  0  0  0  0  0  0  0  0  0  0  0
    3.0519   -1.2606    0.5459 H   0  0  0  0  0  0  0  0  0  0  0  0
    4.9275   -0.3851    1.8860 H   0  0  0  0  0  0  0  0  0  0  0  0
    5.9638   -0.3076    0.4485 H   0  0  0  0  0  0  0  0  0  0  0  0
    5.4240   -1.8717    1.0815 H   0  0  0  0  0  0  0  0  0  0  0  0
    4.3752   -2.6149   -1.0380 H   0  0  0  0  0  0  0  0  0  0  0  0
    4.9546   -1.1486   -1.8479 H   0  0  0  0  0  0  0  0  0  0  0  0
    3.2348   -1.5766   -1.9032 H   0  0  0  0  0  0  0  0  0  0  0  0
   -2.2304   -2.6864   -1.2467 H   0  0  0  0  0  0  0  0  0  0  0  0
   -4.4839   -3.3681   -2.0114 H   0  0  0  0  0  0  0  0  0  0  0  0
   -6.1373   -2.0657    1.7540 H   0  0  0  0  0  0  0  0  0  0  0  0
   -3.8762   -1.3891    2.5016 H   0  0  0  0  0  0  0  0  0  0  0  0
   -3.8532    0.3882   -0.5256 H   0  0  0  0  0  0  0  0  0  0  0  0
   -2.0599    4.7769   -0.4467 H   0  0  0  0  0  0  0  0  0  0  0  0
   -1.7045    4.1985   -2.1092 H   0  0  0  0  0  0  0  0  0  0  0  0
   -0.3993    4.2810   -0.8944 H   0  0  0  0  0  0  0  0  0  0  0  0
  1  2  1  0
  2  3  1  0
  3  4  1  0
  4  5  1  0
  5  6  1  0
  6  7  1  0
  6  8  1  0
  2  9  2  0
  9 10  1  0
 10 11  2  3
 11 12  1  0
 12 13  2  0
 13 14  1  0
 14 15  2  0
 15 16  1  0
 15 17  1  0
 17 18  2  0
 10 19  1  0
 19 20  1  0
 20 21  2  0
 21 22  1  0
 22 23  1  0
 22 24  1  0
 24  1  1  0
 18 12  1  0
 24 19  2  0
  1 25  1  0
  3 26  1  0
  4 27  1  0
  4 28  1  0
  5 29  1  0
  5 30  1  0
  6 31  1  0
  7 32  1  0
  7 33  1  0
  7 34  1  0
  8 35  1  0
  8 36  1  0
  8 37  1  0
 13 38  1  0
 14 39  1  0
 17 40  1  0
 18 41  1  0
 20 42  1  0
 23 43  1  0
 23 44  1  0
 23 45  1  0
M  END
>  <ScrubInfo>  (6) 
{"isomerGroup": 0, "isomerId": 5, "confId": 0, "nr_conformers:": 1, "nr_isomers:": 9}

$$$$
_i6
     RDKit          3D

 45 47  0  0  0  0  0  0  0  0999 V2000
   -2.1386   -3.8212    1.8329 N   0  0  0  0  0  0  0  0  0  0  0  0
   -2.7147   -2.5884    1.5458 C   0  0  0  0  0  0  0  0  0  0  0  0
   -1.8590   -1.7324    0.9696 C   0  0  0  0  0  0  0  0  0  0  0  0
   -1.8678   -0.3677    0.4309 C   0  0  0  0  0  0  0  0  0  0  0  0
   -3.0318    0.3770    0.5045 N   0  0  0  0  0  0  0  0  0  0  0  0
   -3.2941    1.6964    0.0845 C   0  0  0  0  0  0  0  0  0  0  0  0
   -2.3466    2.5472   -0.4957 C   0  0  0  0  0  0  0  0  0  0  0  0
   -2.6806    3.8493   -0.8912 C   0  0  0  0  0  0  0  0  0  0  0  0
   -3.9759    4.3188   -0.7101 C   0  0  0  0  0  0  0  0  0  0  0  0
   -4.4279    6.0740   -1.2427 Br  0  0  0  0  0  0  0  0  0  0  0  0
   -4.9401    3.4981   -0.1373 C   0  0  0  0  0  0  0  0  0  0  0  0
   -4.5983    2.1989    0.2549 C   0  0  0  0  0  0  0  0  0  0  0  0
   -0.7571    0.0580   -0.0954 N   0  0  0  0  0  0  0  0  0  0  0  0
    0.3529   -0.7527   -0.1370 C   0  0  0  0  0  0  0  0  0  0  0  0
    1.3561   -0.2205   -0.7403 N   0  0  0  0  0  0  0  0  0  0  0  0
    2.5903   -0.9932   -0.8270 C   0  0  0  0  0  0  0  0  0  0  0  0
    3.6652   -0.1614   -1.5347 C   0  0  0  0  0  0  0  0  0  0  0  0
    4.3118    0.9813   -0.7235 C   0  0  0  0  0  0  0  0  0  0  0  0
    3.3307    2.0917   -0.3506 C   0  0  0  0  0  0  0  0  0  0  0  0
    5.0397    0.4744    0.5221 C   0  0  0  0  0  0  0  0  0  0  0  0
    0.4691   -2.0179    0.3916 N   0  0  0  0  0  0  0  0  0  0  0  0
   -0.5919   -2.4949    0.9410 C   0  0  0  0  0  0  0  0  0  0  0  0
   -0.7774   -3.7286    1.5655 N   0  0  0  0  0  0  0  0  0  0  0  0
   -0.0607   -4.9074    1.1165 C   0  0  0  0  0  0  0  0  0  0  0  0
   -2.3894   -4.1900    2.7536 H   0  0  0  0  0  0  0  0  0  0  0  0
   -3.7529   -2.4320    1.7983 H   0  0  0  0  0  0  0  0  0  0  0  0
   -3.8351   -0.0769    0.9166 H   0  0  0  0  0  0  0  0  0  0  0  0
   -1.3209    2.2277   -0.6578 H   0  0  0  0  0  0  0  0  0  0  0  0
   -1.9155    4.4790   -1.3383 H   0  0  0  0  0  0  0  0  0  0  0  0
   -5.9562    3.8542    0.0084 H   0  0  0  0  0  0  0  0  0  0  0  0
   -5.3739    1.5794    0.6988 H   0  0  0  0  0  0  0  0  0  0  0  0
    2.4145   -1.8936   -1.4292 H   0  0  0  0  0  0  0  0  0  0  0  0
    2.9419   -1.3094    0.1606 H   0  0  0  0  0  0  0  0  0  0  0  0
    3.2485    0.2546   -2.4614 H   0  0  0  0  0  0  0  0  0  0  0  0
    4.4671   -0.8460   -1.8414 H   0  0  0  0  0  0  0  0  0  0  0  0
    5.0702    1.4319   -1.3782 H   0  0  0  0  0  0  0  0  0  0  0  0
    2.7678    2.4290   -1.2269 H   0  0  0  0  0  0  0  0  0  0  0  0
    3.8702    2.9571    0.0500 H   0  0  0  0  0  0  0  0  0  0  0  0
    2.6204    1.7693    0.4169 H   0  0  0  0  0  0  0  0  0  0  0  0
    4.3427    0.0968    1.2767 H   0  0  0  0  0  0  0  0  0  0  0  0
    5.7382   -0.3291    0.2667 H   0  0  0  0  0  0  0  0  0  0  0  0
    5.6173    1.2831    0.9833 H   0  0  0  0  0  0  0  0  0  0  0  0
   -0.2631   -5.7524    1.7824 H   0  0  0  0  0  0  0  0  0  0  0  0
   -0.3641   -5.1837    0.1013 H   0  0  0  0  0  0  0  0  0  0  0  0
    1.0192   -4.7277    1.1233 H   0  0  0  0  0  0  0  0  0  0  0  0
  1  2  1  0
  2  3  2  0
  3  4  1  0
  4  5  1  0
  5  6  1  0
  6  7  2  0
  7  8  1  0
  8  9  2  0
  9 10  1  0
  9 11  1  0
 11 12  2  0
  4 13  2  0
 13 14  1  0
 14 15  2  3
 15 16  1  0
 16 17  1  0
 17 18  1  0
 18 19  1  0
 18 20  1  0
 14 21  1  0
 21 22  2  0
 22 23  1  0
 23 24  1  0
 23  1  1  0
 22  3  1  0
 12  6  1  0
  1 25  1  0
  2 26  1  0
  5 27  1  0
  7 28  1  0
  8 29  1  0
 11 30  1  0
 12 31  1  0
 16 32  1  0
 16 33  1  0
 17 34  1  0
 17 35  1  0
 18 36  1  0
 19 37  1  0
 19 38  1  0
 19 39  1  0
 20 40  1  0
 20 41  1  0
 20 42  1  0
 24 43  1  0
 24 44  1  0
 24 45  1  0
M  END
>  <ScrubInfo>  (7) 
{"isomerGroup": 0, "isomerId": 6, "confId": 0, "nr_conformers:": 1, "nr_isomers:": 9}

$$$$
_i7
     RDKit          3D

 45 47  0  0  0  0  0  0  0  0999 V2000
    2.4530   -2.5320   -0.0850 N   0  0  0  0  0  0  0  0  0  0  0  0
    2.7241   -1.1685   -0.0855 C   0  0  0  0  0  0  0  0  0  0  0  0
    1.6808   -0.4142    0.2886 C   0  0  0  0  0  0  0  0  0  0  0  0
    1.3070    1.0045    0.4551 C   0  0  0  0  0  0  0  0  0  0  0  0
    2.0318    2.0718    0.2907 N   0  0  0  0  0  0  0  0  0  0  0  0
    3.3714    1.9784   -0.0912 C   0  0  0  0  0  0  0  0  0  0  0  0
    4.3770    1.9054    0.8773 C   0  0  0  0  0  0  0  0  0  0  0  0
    5.7199    1.8361    0.4989 C   0  0  0  0  0  0  0  0  0  0  0  0
    6.0560    1.8560   -0.8539 C   0  0  0  0  0  0  0  0  0  0  0  0
    7.8715    1.7590   -1.3702 Br  0  0  0  0  0  0  0  0  0  0  0  0
    5.0640    1.9526   -1.8284 C   0  0  0  0  0  0  0  0  0  0  0  0
    3.7229    2.0218   -1.4435 C   0  0  0  0  0  0  0  0  0  0  0  0
   -0.0001    1.1519    0.8315 N   0  0  0  0  0  0  0  0  0  0  0  0
   -0.9183    0.1660    1.0562 C   0  0  0  0  0  0  0  0  0  0  0  0
   -2.1232    0.5130    1.3658 N   0  0  0  0  0  0  0  0  0  0  0  0
   -3.1220   -0.5241    1.6180 C   0  0  0  0  0  0  0  0  0  0  0  0
   -3.8075   -0.9728    0.3241 C   0  0  0  0  0  0  0  0  0  0  0  0
   -4.7535    0.0362   -0.3602 C   0  0  0  0  0  0  0  0  0  0  0  0
   -4.0282    1.2514   -0.9366 C   0  0  0  0  0  0  0  0  0  0  0  0
   -5.8984    0.4799    0.5503 C   0  0  0  0  0  0  0  0  0  0  0  0
   -0.5818   -1.1664    0.9547 N   0  0  0  0  0  0  0  0  0  0  0  0
    0.6354   -1.4501    0.6100 C   0  0  0  0  0  0  0  0  0  0  0  0
    1.1932   -2.7224    0.4632 N   0  0  0  0  0  0  0  0  0  0  0  0
    0.3887   -3.8427    0.0137 C   0  0  0  0  0  0  0  0  0  0  0  0
    3.2080   -3.0972    0.3104 H   0  0  0  0  0  0  0  0  0  0  0  0
    3.7125   -0.8469   -0.3782 H   0  0  0  0  0  0  0  0  0  0  0  0
    4.1099    1.9079    1.9308 H   0  0  0  0  0  0  0  0  0  0  0  0
    6.4900    1.7771    1.2633 H   0  0  0  0  0  0  0  0  0  0  0  0
    5.3209    1.9834   -2.8839 H   0  0  0  0  0  0  0  0  0  0  0  0
    2.9462    2.1133   -2.1983 H   0  0  0  0  0  0  0  0  0  0  0  0
   -0.3427    2.0944    0.9418 H   0  0  0  0  0  0  0  0  0  0  0  0
   -2.6863   -1.3932    2.1265 H   0  0  0  0  0  0  0  0  0  0  0  0
   -3.8585   -0.1276    2.3244 H   0  0  0  0  0  0  0  0  0  0  0  0
   -3.0507   -1.2930   -0.4030 H   0  0  0  0  0  0  0  0  0  0  0  0
   -4.3961   -1.8694    0.5599 H   0  0  0  0  0  0  0  0  0  0  0  0
   -5.2048   -0.4952   -1.2093 H   0  0  0  0  0  0  0  0  0  0  0  0
   -3.1690    0.9456   -1.5424 H   0  0  0  0  0  0  0  0  0  0  0  0
   -4.7024    1.8243   -1.5830 H   0  0  0  0  0  0  0  0  0  0  0  0
   -3.6781    1.9301   -0.1533 H   0  0  0  0  0  0  0  0  0  0  0  0
   -6.4171   -0.3855    0.9756 H   0  0  0  0  0  0  0  0  0  0  0  0
   -5.5440    1.1074    1.3741 H   0  0  0  0  0  0  0  0  0  0  0  0
   -6.6331    1.0634   -0.0153 H   0  0  0  0  0  0  0  0  0  0  0  0
    0.9725   -4.7683    0.0466 H   0  0  0  0  0  0  0  0  0  0  0  0
    0.0429   -3.6858   -1.0134 H   0  0  0  0  0  0  0  0  0  0  0  0
   -0.4840   -3.9757    0.6612 H   0  0  0  0  0  0  0  0  0  0  0  0
  1  2  1  0
  2  3  2  0
  3  4  1  0
  4  5  2  3
  5  6  1  0
  6  7  2  0
  7  8  1  0
  8  9  2  0
  9 10  1  0
  9 11  1  0
 11 12  2  0
  4 13  1  0
 13 14  1  0
 14 15  2  3
 15 16  1  0
 16 17  1  0
 17 18  1  0
 18 19  1  0
 18 20  1  0
 14 21  1  0
 21 22  2  0
 22 23  1  0
 23 24  1  0
 23  1  1  0
 22  3  1  0
 12  6  1  0
  1 25  1  0
  2 26  1  0
  7 27  1  0
  8 28  1  0
 11 29  1  0
 12 30  1  0
 13 31  1  0
 16 32  1  0
 16 33  1  0
 17 34  1  0
 17 35  1  0
 18 36  1  0
 19 37  1  0
 19 38  1  0
 19 39  1  0
 20 40  1  0
 20 41  1  0
 20 42  1  0
 24 43  1  0
 24 44  1  0
 24 45  1  0
M  END
>  <ScrubInfo>  (8) 
{"isomerGroup": 0, "isomerId": 7, "confId": 0, "nr_conformers:": 1, "nr_isomers:": 9}

$$$$
_i8
     RDKit          3D

 45 47  0  0  0  0  0  0  0  0999 V2000
    0.3281   -1.4235   -0.3050 N   0  0  0  0  0  0  0  0  0  0  0  0
    0.7573   -0.7924    0.8502 C   0  0  0  0  0  0  0  0  0  0  0  0
    1.8783   -0.9379    1.4688 N   0  0  0  0  0  0  0  0  0  0  0  0
    2.8796   -1.8785    0.9785 C   0  0  0  0  0  0  0  0  0  0  0  0
    3.7490   -1.2533   -0.1150 C   0  0  0  0  0  0  0  0  0  0  0  0
    4.8579   -0.3125    0.3992 C   0  0  0  0  0  0  0  0  0  0  0  0
    5.7553    0.1076   -0.7691 C   0  0  0  0  0  0  0  0  0  0  0  0
    4.3155    0.9335    1.0991 C   0  0  0  0  0  0  0  0  0  0  0  0
   -0.1629    0.0986    1.3572 N   0  0  0  0  0  0  0  0  0  0  0  0
   -1.4190    0.4691    0.9284 C   0  0  0  0  0  0  0  0  0  0  0  0
   -2.1197    1.3469    1.5816 N   0  0  0  0  0  0  0  0  0  0  0  0
   -3.3924    1.7436    1.1729 C   0  0  0  0  0  0  0  0  0  0  0  0
   -3.5497    2.8497    0.3324 C   0  0  0  0  0  0  0  0  0  0  0  0
   -4.8253    3.2724   -0.0497 C   0  0  0  0  0  0  0  0  0  0  0  0
   -5.9467    2.5949    0.4264 C   0  0  0  0  0  0  0  0  0  0  0  0
   -7.6742    3.1635   -0.0880 Br  0  0  0  0  0  0  0  0  0  0  0  0
   -5.8041    1.5058    1.2847 C   0  0  0  0  0  0  0  0  0  0  0  0
   -4.5259    1.0879    1.6631 C   0  0  0  0  0  0  0  0  0  0  0  0
   -1.7799   -0.2434   -0.2861 C   0  0  0  0  0  0  0  0  0  0  0  0
   -2.8783   -0.3021   -1.1639 C   0  0  0  0  0  0  0  0  0  0  0  0
   -2.6926   -1.1636   -2.1753 N   0  0  0  0  0  0  0  0  0  0  0  0
   -1.4573   -1.6608   -1.9525 N   0  0  0  0  0  0  0  0  0  0  0  0
   -0.9178   -2.6415   -2.8604 C   0  0  0  0  0  0  0  0  0  0  0  0
   -0.8865   -1.1418   -0.8308 C   0  0  0  0  0  0  0  0  0  0  0  0
    0.9675   -2.0756   -0.7372 H   0  0  0  0  0  0  0  0  0  0  0  0
    3.5060   -2.1925    1.8214 H   0  0  0  0  0  0  0  0  0  0  0  0
    2.4092   -2.7967    0.6071 H   0  0  0  0  0  0  0  0  0  0  0  0
    3.1248   -0.7267   -0.8474 H   0  0  0  0  0  0  0  0  0  0  0  0
    4.2325   -2.0776   -0.6557 H   0  0  0  0  0  0  0  0  0  0  0  0
    5.4806   -0.8632    1.1156 H   0  0  0  0  0  0  0  0  0  0  0  0
    6.5800    0.7382   -0.4202 H   0  0  0  0  0  0  0  0  0  0  0  0
    5.1915    0.6712   -1.5204 H   0  0  0  0  0  0  0  0  0  0  0  0
    6.1929   -0.7685   -1.2595 H   0  0  0  0  0  0  0  0  0  0  0  0
    3.5954    1.4638    0.4670 H   0  0  0  0  0  0  0  0  0  0  0  0
    3.8257    0.6777    2.0429 H   0  0  0  0  0  0  0  0  0  0  0  0
    5.1272    1.6284    1.3410 H   0  0  0  0  0  0  0  0  0  0  0  0
    0.1428    0.5655    2.1989 H   0  0  0  0  0  0  0  0  0  0  0  0
   -2.6730    3.3841   -0.0238 H   0  0  0  0  0  0  0  0  0  0  0  0
   -4.9309    4.1295   -0.7091 H   0  0  0  0  0  0  0  0  0  0  0  0
   -6.6750    0.9816    1.6686 H   0  0  0  0  0  0  0  0  0  0  0  0
   -4.4099    0.2489    2.3441 H   0  0  0  0  0  0  0  0  0  0  0  0
   -3.8156    0.2356   -1.1278 H   0  0  0  0  0  0  0  0  0  0  0  0
   -1.2077   -3.6320   -2.5020 H   0  0  0  0  0  0  0  0  0  0  0  0
    0.1703   -2.5489   -2.8898 H   0  0  0  0  0  0  0  0  0  0  0  0
   -1.3228   -2.4651   -3.8604 H   0  0  0  0  0  0  0  0  0  0  0  0
  1  2  1  0
  2  3  2  3
  3  4  1  0
  4  5  1  0
  5  6  1  0
  6  7  1  0
  6  8  1  0
  2  9  1  0
  9 10  1  0
 10 11  2  3
 11 12  1  0
 12 13  2  0
 13 14  1  0
 14 15  2  0
 15 16  1  0
 15 17  1  0
 17 18  2  0
 10 19  1  0
 19 20  1  0
 20 21  2  0
 21 22  1  0
 22 23  1  0
 22 24  1  0
 24  1  1  0
 18 12  1  0
 24 19  2  0
  1 25  1  0
  4 26  1  0
  4 27  1  0
  5 28  1  0
  5 29  1  0
  6 30  1  0
  7 31  1  0
  7 32  1  0
  7 33  1  0
  8 34  1  0
  8 35  1  0
  8 36  1  0
  9 37  1  0
 13 38  1  0
 14 39  1  0
 17 40  1  0
 18 41  1  0
 20 42  1  0
 23 43  1  0
 23 44  1  0
 23 45  1  0
M  END
>  <ScrubInfo>  (9) 
{"isomerGroup": 0, "isomerId": 8, "confId": 0, "nr_conformers:": 1, "nr_isomers:": 9}

$$$$
