_i0
     RDKit          3D

 45 47  0  0  0  0  0  0  0  0999 V2000
    7.1147    1.1446    1.5572 C   0  0  0  0  0  0  0  0  0  0  0  0
    5.6699    1.5817    1.7362 C   0  0  0  0  0  0  0  0  0  0  0  0
    4.7032    0.6300    1.0308 C   0  0  0  0  0  0  0  0  0  0  0  0
    3.3422    1.0903    1.2424 N   0  0  0  0  0  0  0  0  0  0  0  0
    2.3708    0.3530    0.5734 C   0  0  0  0  0  0  0  0  0  0  0  0
    1.3294    1.0809    0.1275 N   0  0  0  0  0  0  0  0  0  0  0  0
    0.3010    0.4747   -0.5180 C   0  0  0  0  0  0  0  0  0  0  0  0
   -0.7472    1.2971   -0.9608 N   0  0  0  0  0  0  0  0  0  0  0  0
   -2.1327    1.0440   -0.8805 C   0  0  0  0  0  0  0  0  0  0  0  0
   -2.9887    1.7509   -1.7331 C   0  0  0  0  0  0  0  0  0  0  0  0
   -4.3737    1.5721   -1.6722 C   0  0  0  0  0  0  0  0  0  0  0  0
   -4.9332    0.6894   -0.7426 C   0  0  0  0  0  0  0  0  0  0  0  0
   -6.4268    0.5056   -0.6622 C   0  0  0  0  0  0  0  0  0  0  0  0
   -7.0679    1.4950    0.2988 C   0  0  0  0  0  0  0  0  0  0  0  0
   -4.0841    0.0069    0.1353 C   0  0  0  0  0  0  0  0  0  0  0  0
   -2.6988    0.1888    0.0708 C   0  0  0  0  0  0  0  0  0  0  0  0
    0.3909   -0.9009   -0.7400 C   0  0  0  0  0  0  0  0  0  0  0  0
   -0.3461   -1.9232   -1.3728 C   0  0  0  0  0  0  0  0  0  0  0  0
    0.2379   -3.1238   -1.2724 N   0  0  0  0  0  0  0  0  0  0  0  0
    1.3677   -2.8590   -0.5756 N   0  0  0  0  0  0  0  0  0  0  0  0
    2.2777   -3.9327   -0.2667 C   0  0  0  0  0  0  0  0  0  0  0  0
    1.5099   -1.5393   -0.2450 C   0  0  0  0  0  0  0  0  0  0  0  0
    2.5252   -0.9697    0.4206 N   0  0  0  0  0  0  0  0  0  0  0  0
    7.3897    1.1237    0.4979 H   0  0  0  0  0  0  0  0  0  0  0  0
    7.7873    1.8399    2.0692 H   0  0  0  0  0  0  0  0  0  0  0  0
    7.2769    0.1457    1.9746 H   0  0  0  0  0  0  0  0  0  0  0  0
    5.5481    2.5981    1.3424 H   0  0  0  0  0  0  0  0  0  0  0  0
    5.4345    1.6270    2.8065 H   0  0  0  0  0  0  0  0  0  0  0  0
    4.8363   -0.3796    1.4390 H   0  0  0  0  0  0  0  0  0  0  0  0
    4.9361    0.6014   -0.0413 H   0  0  0  0  0  0  0  0  0  0  0  0
    3.1669    2.0583    0.9933 H   0  0  0  0  0  0  0  0  0  0  0  0
   -0.5382    2.2377   -0.6315 H   0  0  0  0  0  0  0  0  0  0  0  0
   -2.5755    2.4397   -2.4664 H   0  0  0  0  0  0  0  0  0  0  0  0
   -5.0114    2.1284   -2.3555 H   0  0  0  0  0  0  0  0  0  0  0  0
   -6.6556   -0.5195   -0.3463 H   0  0  0  0  0  0  0  0  0  0  0  0
   -6.8667    0.6203   -1.6604 H   0  0  0  0  0  0  0  0  0  0  0  0
   -8.1506    1.3383    0.3367 H   0  0  0  0  0  0  0  0  0  0  0  0
   -6.8854    2.5285   -0.0145 H   0  0  0  0  0  0  0  0  0  0  0  0
   -6.6723    1.3769    1.3133 H   0  0  0  0  0  0  0  0  0  0  0  0
   -4.4951   -0.6669    0.8841 H   0  0  0  0  0  0  0  0  0  0  0  0
   -2.0749   -0.3375    0.7885 H   0  0  0  0  0  0  0  0  0  0  0  0
   -1.2871   -1.8399   -1.9021 H   0  0  0  0  0  0  0  0  0  0  0  0
    3.1183   -3.5550    0.3196 H   0  0  0  0  0  0  0  0  0  0  0  0
    1.7362   -4.6882    0.3083 H   0  0  0  0  0  0  0  0  0  0  0  0
    2.6413   -4.3558   -1.2066 H   0  0  0  0  0  0  0  0  0  0  0  0
  1  2  1  0
  2  3  1  0
  3  4  1  0
  4  5  1  0
  5  6  2  0
  6  7  1  0
  7  8  1  0
  8  9  1  0
  9 10  2  0
 10 11  1  0
 11 12  2  0
 12 13  1  0
 13 14  1  0
 12 15  1  0
 15 16  2  0
  7 17  2  0
 17 18  1  0
 18 19  2  0
 19 20  1  0
 20 21  1  0
 20 22  1  0
 22 23  2  0
 23  5  1  0
 16  9  1  0
 22 17  1  0
  1 24  1  0
  1 25  1  0
  1 26  1  0
  2 27  1  0
  2 28  1  0
  3 29  1  0
  3 30  1  0
  4 31  1  0
  8 32  1  0
 10 33  1  0
 11 34  1  0
 13 35  1  0
 13 36  1  0
 14 37  1  0
 14 38  1  0
 14 39  1  0
 15 40  1  0
 16 41  1  0
 18 42  1  0
 21 43  1  0
 21 44  1  0
 21 45  1  0
M  END
>  <ScrubInfo>  (1) 
{"isomerGroup": 0, "isomerId": 0, "confId": 0, "nr_conformers:": 1, "nr_isomers:": 9}

$$$$
_i1
     RDKit          3D

 45 47  0  0  0  0  0  0  0  0999 V2000
    1.6683    0.4815    0.9947 N   0  0  0  0  0  0  0  0  0  0  0  0
    0.5054   -0.2059    1.2925 C   0  0  0  0  0  0  0  0  0  0  0  0
   -0.6328    0.4664    1.6951 N   0  0  0  0  0  0  0  0  0  0  0  0
   -1.9077    0.4083    1.0854 C   0  0  0  0  0  0  0  0  0  0  0  0
   -2.1618   -0.2533   -0.1213 C   0  0  0  0  0  0  0  0  0  0  0  0
   -3.4555   -0.3104   -0.6514 C   0  0  0  0  0  0  0  0  0  0  0  0
   -4.5284    0.2817    0.0224 C   0  0  0  0  0  0  0  0  0  0  0  0
   -5.9190    0.2322   -0.5568 C   0  0  0  0  0  0  0  0  0  0  0  0
   -6.1942    1.4179   -1.4688 C   0  0  0  0  0  0  0  0  0  0  0  0
   -4.2831    0.9417    1.2300 C   0  0  0  0  0  0  0  0  0  0  0  0
   -2.9887    0.9978    1.7558 C   0  0  0  0  0  0  0  0  0  0  0  0
    0.5885   -1.5393    1.2157 C   0  0  0  0  0  0  0  0  0  0  0  0
   -0.2803   -2.7006    1.4378 C   0  0  0  0  0  0  0  0  0  0  0  0
    0.3163   -3.8401    1.1893 N   0  0  0  0  0  0  0  0  0  0  0  0
    1.6345   -3.5014    0.8419 N   0  0  0  0  0  0  0  0  0  0  0  0
    2.4838   -4.4999    0.2408 C   0  0  0  0  0  0  0  0  0  0  0  0
    1.8701   -2.1374    0.7938 C   0  0  0  0  0  0  0  0  0  0  0  0
    2.9279   -1.4819    0.4608 N   0  0  0  0  0  0  0  0  0  0  0  0
    2.8283   -0.1102    0.5392 C   0  0  0  0  0  0  0  0  0  0  0  0
    3.8918    0.4989    0.1521 N   0  0  0  0  0  0  0  0  0  0  0  0
    3.9369    1.9537    0.1817 C   0  0  0  0  0  0  0  0  0  0  0  0
    5.3111    2.4227   -0.2942 C   0  0  0  0  0  0  0  0  0  0  0  0
    5.5546    2.1248   -1.7669 C   0  0  0  0  0  0  0  0  0  0  0  0
    1.5977    1.4832    0.9416 H   0  0  0  0  0  0  0  0  0  0  0  0
   -0.4484    1.3979    2.0560 H   0  0  0  0  0  0  0  0  0  0  0  0
   -1.3592   -0.7149   -0.6899 H   0  0  0  0  0  0  0  0  0  0  0  0
   -3.6174   -0.8211   -1.5986 H   0  0  0  0  0  0  0  0  0  0  0  0
   -6.6562    0.2100    0.2550 H   0  0  0  0  0  0  0  0  0  0  0  0
   -6.0535   -0.7031   -1.1139 H   0  0  0  0  0  0  0  0  0  0  0  0
   -5.4936    1.4430   -2.3103 H   0  0  0  0  0  0  0  0  0  0  0  0
   -6.1024    2.3655   -0.9272 H   0  0  0  0  0  0  0  0  0  0  0  0
   -7.2090    1.3559   -1.8742 H   0  0  0  0  0  0  0  0  0  0  0  0
   -5.0991    1.4121    1.7744 H   0  0  0  0  0  0  0  0  0  0  0  0
   -2.8341    1.4991    2.7084 H   0  0  0  0  0  0  0  0  0  0  0  0
   -1.3217   -2.5799    1.7624 H   0  0  0  0  0  0  0  0  0  0  0  0
    2.2745   -5.4900    0.6586 H   0  0  0  0  0  0  0  0  0  0  0  0
    3.5397   -4.2771    0.4249 H   0  0  0  0  0  0  0  0  0  0  0  0
    2.3190   -4.5387   -0.8404 H   0  0  0  0  0  0  0  0  0  0  0  0
    3.7827    2.3162    1.2051 H   0  0  0  0  0  0  0  0  0  0  0  0
    3.1597    2.3836   -0.4612 H   0  0  0  0  0  0  0  0  0  0  0  0
    6.0979    1.9490    0.3048 H   0  0  0  0  0  0  0  0  0  0  0  0
    5.3907    3.5046   -0.1370 H   0  0  0  0  0  0  0  0  0  0  0  0
    4.7913    2.5968   -2.3936 H   0  0  0  0  0  0  0  0  0  0  0  0
    6.5314    2.5125   -2.0731 H   0  0  0  0  0  0  0  0  0  0  0  0
    5.5440    1.0482   -1.9636 H   0  0  0  0  0  0  0  0  0  0  0  0
  1  2  1  0
  2  3  1  0
  3  4  1  0
  4  5  2  0
  5  6  1  0
  6  7  2  0
  7  8  1  0
  8  9  1  0
  7 10  1  0
 10 11  2  0
  2 12  2  0
 12 13  1  0
 13 14  2  0
 14 15  1  0
 15 16  1  0
 15 17  1  0
 17 18  2  0
 18 19  1  0
 19 20  2  3
 20 21  1  0
 21 22  1  0
 22 23  1  0
 19  1  1  0
 11  4  1  0
 17 12  1  0
  1 24  1  0
  3 25  1  0
  5 26  1  0
  6 27  1  0
  8 28  1  0
  8 29  1  0
  9 30  1  0
  9 31  1  0
  9 32  1  0
 10 33  1  0
 11 34  1  0
 13 35  1  0
 16 36  1  0
 16 37  1  0
 16 38  1  0
 21 39  1  0
 21 40  1  0
 22 41  1  0
 22 42  1  0
 23 43  1  0
 23 44  1  0
 23 45  1  0
M  END
>  <ScrubInfo>  (2) 
{"isomerGroup": 0, "isomerId": 1, "confId": 0, "nr_conformers:": 1, "nr_isomers:": 9}

$$$$
_i2
     RDKit          3D

 45 47  0  0  0  0  0  0  0  0999 V2000
   -1.5568    0.9459    0.4843 N   0  0  0  0  0  0  0  0  0  0  0  0
   -2.6445    0.1235    0.3414 C   0  0  0  0  0  0  0  0  0  0  0  0
   -3.8696    0.6909    0.5546 N   0  0  0  0  0  0  0  0  0  0  0  0
   -4.2657    1.9440   -0.0744 C   0  0  0  0  0  0  0  0  0  0  0  0
   -5.6744    2.3489    0.3600 C   0  0  0  0  0  0  0  0  0  0  0  0
   -6.7631    1.4720   -0.2429 C   0  0  0  0  0  0  0  0  0  0  0  0
   -2.5683   -1.1469    0.0343 N   0  0  0  0  0  0  0  0  0  0  0  0
   -1.2750   -1.5400   -0.1463 C   0  0  0  0  0  0  0  0  0  0  0  0
   -0.1169   -0.7860   -0.0231 C   0  0  0  0  0  0  0  0  0  0  0  0
    0.9182   -1.6877   -0.3279 C   0  0  0  0  0  0  0  0  0  0  0  0
    0.4682   -2.9147   -0.6215 N   0  0  0  0  0  0  0  0  0  0  0  0
   -0.8732   -2.7981   -0.4971 N   0  0  0  0  0  0  0  0  0  0  0  0
   -1.7064   -3.9487   -0.7394 C   0  0  0  0  0  0  0  0  0  0  0  0
   -0.2292    0.6098    0.3553 C   0  0  0  0  0  0  0  0  0  0  0  0
    0.7140    1.4756    0.5714 N   0  0  0  0  0  0  0  0  0  0  0  0
    2.0641    1.1407    0.4552 C   0  0  0  0  0  0  0  0  0  0  0  0
    2.7385    1.3450   -0.7502 C   0  0  0  0  0  0  0  0  0  0  0  0
    4.0950    1.0308   -0.8645 C   0  0  0  0  0  0  0  0  0  0  0  0
    4.8007    0.5272    0.2359 C   0  0  0  0  0  0  0  0  0  0  0  0
    6.2584    0.1653    0.1088 C   0  0  0  0  0  0  0  0  0  0  0  0
    6.4447   -1.2813   -0.3227 C   0  0  0  0  0  0  0  0  0  0  0  0
    4.1265    0.3439    1.4500 C   0  0  0  0  0  0  0  0  0  0  0  0
    2.7700    0.6596    1.5597 C   0  0  0  0  0  0  0  0  0  0  0  0
   -1.7122    1.8603    0.8738 H   0  0  0  0  0  0  0  0  0  0  0  0
   -4.5726   -0.0334    0.4229 H   0  0  0  0  0  0  0  0  0  0  0  0
   -3.5766    2.7422    0.2220 H   0  0  0  0  0  0  0  0  0  0  0  0
   -4.2142    1.8482   -1.1650 H   0  0  0  0  0  0  0  0  0  0  0  0
   -5.8530    3.3833    0.0427 H   0  0  0  0  0  0  0  0  0  0  0  0
   -5.7550    2.3288    1.4533 H   0  0  0  0  0  0  0  0  0  0  0  0
   -6.6916    0.4395    0.1111 H   0  0  0  0  0  0  0  0  0  0  0  0
   -7.7501    1.8524    0.0393 H   0  0  0  0  0  0  0  0  0  0  0  0
   -6.7027    1.4673   -1.3359 H   0  0  0  0  0  0  0  0  0  0  0  0
    1.9864   -1.5227   -0.3550 H   0  0  0  0  0  0  0  0  0  0  0  0
   -2.7516   -3.7073   -0.5346 H   0  0  0  0  0  0  0  0  0  0  0  0
   -1.3794   -4.7563   -0.0794 H   0  0  0  0  0  0  0  0  0  0  0  0
   -1.5909   -4.2409   -1.7862 H   0  0  0  0  0  0  0  0  0  0  0  0
    2.2025    1.7456   -1.6060 H   0  0  0  0  0  0  0  0  0  0  0  0
    4.5969    1.1835   -1.8171 H   0  0  0  0  0  0  0  0  0  0  0  0
    6.7430    0.8333   -0.6137 H   0  0  0  0  0  0  0  0  0  0  0  0
    6.7658    0.3351    1.0663 H   0  0  0  0  0  0  0  0  0  0  0  0
    6.0006   -1.9724    0.4017 H   0  0  0  0  0  0  0  0  0  0  0  0
    5.9776   -1.4690   -1.2955 H   0  0  0  0  0  0  0  0  0  0  0  0
    7.5103   -1.5168   -0.4071 H   0  0  0  0  0  0  0  0  0  0  0  0
    4.6529   -0.0444    2.3189 H   0  0  0  0  0  0  0  0  0  0  0  0
    2.2588    0.5242    2.5088 H   0  0  0  0  0  0  0  0  0  0  0  0
  1  2  1  0
  2  3  1  0
  3  4  1  0
  4  5  1  0
  5  6  1  0
  2  7  2  0
  7  8  1  0
  8  9  2  0
  9 10  1  0
 10 11  2  0
 11 12  1  0
 12 13  1  0
  9 14  1  0
 14 15  2  3
 15 16  1  0
 16 17  2  0
 17 18  1  0
 18 19  2  0
 19 20  1  0
 20 21  1  0
 19 22  1  0
 22 23  2  0
 14  1  1  0
 23 16  1  0
 12  8  1  0
  1 24  1  0
  3 25  1  0
  4 26  1  0
  4 27  1  0
  5 28  1  0
  5 29  1  0
  6 30  1  0
  6 31  1  0
  6 32  1  0
 10 33  1  0
 13 34  1  0
 13 35  1  0
 13 36  1  0
 17 37  1  0
 18 38  1  0
 20 39  1  0
 20 40  1  0
 21 41  1  0
 21 42  1  0
 21 43  1  0
 22 44  1  0
 23 45  1  0
M  END
>  <ScrubInfo>  (3) 
{"isomerGroup": 0, "isomerId": 2, "confId": 0, "nr_conformers:": 1, "nr_isomers:": 9}

$$$$
_i3
     RDKit          3D

 45 47  0  0  0  0  0  0  0  0999 V2000
   -2.5908    0.7358   -0.1817 N   0  0  0  0  0  0  0  0  0  0  0  0
   -2.4480   -0.0216    0.9705 C   0  0  0  0  0  0  0  0  0  0  0  0
   -3.2662   -0.0809    1.9572 N   0  0  0  0  0  0  0  0  0  0  0  0
   -4.4888    0.7029    2.0120 C   0  0  0  0  0  0  0  0  0  0  0  0
   -5.7018   -0.1838    1.7396 C   0  0  0  0  0  0  0  0  0  0  0  0
   -5.7955   -0.6413    0.2917 C   0  0  0  0  0  0  0  0  0  0  0  0
   -1.3384   -0.8356    1.1572 N   0  0  0  0  0  0  0  0  0  0  0  0
   -0.4081   -0.8855    0.2471 C   0  0  0  0  0  0  0  0  0  0  0  0
    0.7006   -1.6854    0.3610 N   0  0  0  0  0  0  0  0  0  0  0  0
    2.0343   -1.1997    0.3523 C   0  0  0  0  0  0  0  0  0  0  0  0
    2.3650    0.1379    0.5970 C   0  0  0  0  0  0  0  0  0  0  0  0
    3.7010    0.5510    0.6130 C   0  0  0  0  0  0  0  0  0  0  0  0
    4.7335   -0.3681    0.3958 C   0  0  0  0  0  0  0  0  0  0  0  0
    6.1735    0.0757    0.4295 C   0  0  0  0  0  0  0  0  0  0  0  0
    6.7587   -0.0077    1.8310 C   0  0  0  0  0  0  0  0  0  0  0  0
    4.4079   -1.7113    0.1805 C   0  0  0  0  0  0  0  0  0  0  0  0
    3.0721   -2.1216    0.1650 C   0  0  0  0  0  0  0  0  0  0  0  0
   -0.5398   -0.1396   -0.9818 C   0  0  0  0  0  0  0  0  0  0  0  0
    0.1680    0.0220   -2.1821 C   0  0  0  0  0  0  0  0  0  0  0  0
   -0.4470    0.8673   -3.0254 N   0  0  0  0  0  0  0  0  0  0  0  0
   -1.5652    1.2385   -2.3547 N   0  0  0  0  0  0  0  0  0  0  0  0
   -2.4844    2.1541   -2.9807 C   0  0  0  0  0  0  0  0  0  0  0  0
   -1.6457    0.6488   -1.1335 C   0  0  0  0  0  0  0  0  0  0  0  0
   -3.4447    1.2584   -0.2931 H   0  0  0  0  0  0  0  0  0  0  0  0
   -4.5761    1.1017    3.0297 H   0  0  0  0  0  0  0  0  0  0  0  0
   -4.4888    1.5794    1.3568 H   0  0  0  0  0  0  0  0  0  0  0  0
   -6.6100    0.3786    1.9863 H   0  0  0  0  0  0  0  0  0  0  0  0
   -5.6801   -1.0627    2.3948 H   0  0  0  0  0  0  0  0  0  0  0  0
   -5.8101    0.2144   -0.3908 H   0  0  0  0  0  0  0  0  0  0  0  0
   -4.9547   -1.2867    0.0210 H   0  0  0  0  0  0  0  0  0  0  0  0
   -6.7164   -1.2126    0.1371 H   0  0  0  0  0  0  0  0  0  0  0  0
    0.5957   -2.2623    1.1944 H   0  0  0  0  0  0  0  0  0  0  0  0
    1.5937    0.8791    0.7914 H   0  0  0  0  0  0  0  0  0  0  0  0
    3.9290    1.5977    0.8036 H   0  0  0  0  0  0  0  0  0  0  0  0
    6.2512    1.1040    0.0559 H   0  0  0  0  0  0  0  0  0  0  0  0
    6.7658   -0.5416   -0.2569 H   0  0  0  0  0  0  0  0  0  0  0  0
    6.7269   -1.0332    2.2145 H   0  0  0  0  0  0  0  0  0  0  0  0
    6.2071    0.6296    2.5305 H   0  0  0  0  0  0  0  0  0  0  0  0
    7.8031    0.3199    1.8250 H   0  0  0  0  0  0  0  0  0  0  0  0
    5.1922   -2.4487    0.0242 H   0  0  0  0  0  0  0  0  0  0  0  0
    2.8437   -3.1708   -0.0088 H   0  0  0  0  0  0  0  0  0  0  0  0
    1.1018   -0.4342   -2.4852 H   0  0  0  0  0  0  0  0  0  0  0  0
   -3.2904    2.4051   -2.2880 H   0  0  0  0  0  0  0  0  0  0  0  0
   -1.9379    3.0604   -3.2536 H   0  0  0  0  0  0  0  0  0  0  0  0
   -2.8958    1.6725   -3.8713 H   0  0  0  0  0  0  0  0  0  0  0  0
  1  2  1  0
  2  3  2  3
  3  4  1  0
  4  5  1  0
  5  6  1  0
  2  7  1  0
  7  8  2  0
  8  9  1  0
  9 10  1  0
 10 11  2  0
 11 12  1  0
 12 13  2  0
 13 14  1  0
 14 15  1  0
 13 16  1  0
 16 17  2  0
  8 18  1  0
 18 19  1  0
 19 20  2  0
 20 21  1  0
 21 22  1  0
 21 23  1  0
 23  1  1  0
 17 10  1  0
 23 18  2  0
  1 24  1  0
  4 25  1  0
  4 26  1  0
  5 27  1  0
  5 28  1  0
  6 29  1  0
  6 30  1  0
  6 31  1  0
  9 32  1  0
 11 33  1  0
 12 34  1  0
 14 35  1  0
 14 36  1  0
 15 37  1  0
 15 38  1  0
 15 39  1  0
 16 40  1  0
 17 41  1  0
 19 42  1  0
 22 43  1  0
 22 44  1  0
 22 45  1  0
M  END
>  <ScrubInfo>  (4) 
{"isomerGroup": 0, "isomerId": 3, "confId": 0, "nr_conformers:": 1, "nr_isomers:": 9}

$$$$
_i4
     RDKit          3D

 45 47  0  0  0  0  0  0  0  0999 V2000
    0.2400    2.7535    0.1527 N   0  0  0  0  0  0  0  0  0  0  0  0
    0.7091    1.4532    0.3089 C   0  0  0  0  0  0  0  0  0  0  0  0
   -0.2669    0.5333    0.3536 C   0  0  0  0  0  0  0  0  0  0  0  0
   -0.4221   -0.9071    0.5149 C   0  0  0  0  0  0  0  0  0  0  0  0
    0.4620   -1.8446    0.6043 N   0  0  0  0  0  0  0  0  0  0  0  0
    1.8242   -1.5448    0.5438 C   0  0  0  0  0  0  0  0  0  0  0  0
    2.5470   -1.3138    1.7158 C   0  0  0  0  0  0  0  0  0  0  0  0
    3.9120   -1.0213    1.6601 C   0  0  0  0  0  0  0  0  0  0  0  0
    4.5774   -0.9775    0.4281 C   0  0  0  0  0  0  0  0  0  0  0  0
    6.0472   -0.6491    0.3644 C   0  0  0  0  0  0  0  0  0  0  0  0
    6.2848    0.8471    0.2282 C   0  0  0  0  0  0  0  0  0  0  0  0
    3.8542   -1.2306   -0.7448 C   0  0  0  0  0  0  0  0  0  0  0  0
    2.4893   -1.5224   -0.6838 C   0  0  0  0  0  0  0  0  0  0  0  0
   -1.7268   -1.3199    0.5815 N   0  0  0  0  0  0  0  0  0  0  0  0
   -2.7383   -0.5140    0.4479 C   0  0  0  0  0  0  0  0  0  0  0  0
   -3.9725   -1.0862    0.5461 N   0  0  0  0  0  0  0  0  0  0  0  0
   -5.1803   -0.5117   -0.0019 C   0  0  0  0  0  0  0  0  0  0  0  0
   -5.2297   -0.6333   -1.5247 C   0  0  0  0  0  0  0  0  0  0  0  0
   -5.3159   -2.0757   -2.0036 C   0  0  0  0  0  0  0  0  0  0  0  0
   -2.6557    0.8321    0.2142 N   0  0  0  0  0  0  0  0  0  0  0  0
   -1.4792    1.3504    0.1596 C   0  0  0  0  0  0  0  0  0  0  0  0
   -1.1288    2.6834   -0.0635 N   0  0  0  0  0  0  0  0  0  0  0  0
   -1.9727    3.7621    0.4144 C   0  0  0  0  0  0  0  0  0  0  0  0
    0.7771    3.2969   -0.5269 H   0  0  0  0  0  0  0  0  0  0  0  0
    1.7764    1.2996    0.3737 H   0  0  0  0  0  0  0  0  0  0  0  0
    2.0409   -1.3639    2.6762 H   0  0  0  0  0  0  0  0  0  0  0  0
    4.4528   -0.8373    2.5857 H   0  0  0  0  0  0  0  0  0  0  0  0
    6.5071   -1.1761   -0.4804 H   0  0  0  0  0  0  0  0  0  0  0  0
    6.5488   -1.0239    1.2649 H   0  0  0  0  0  0  0  0  0  0  0  0
    7.3581    1.0573    0.1843 H   0  0  0  0  0  0  0  0  0  0  0  0
    5.8661    1.3950    1.0793 H   0  0  0  0  0  0  0  0  0  0  0  0
    5.8241    1.2411   -0.6840 H   0  0  0  0  0  0  0  0  0  0  0  0
    4.3501   -1.2125   -1.7126 H   0  0  0  0  0  0  0  0  0  0  0  0
    1.9388   -1.7372   -1.5958 H   0  0  0  0  0  0  0  0  0  0  0  0
   -3.9186   -2.0977    0.5500 H   0  0  0  0  0  0  0  0  0  0  0  0
   -6.0434   -1.0239    0.4382 H   0  0  0  0  0  0  0  0  0  0  0  0
   -5.2661    0.5417    0.2885 H   0  0  0  0  0  0  0  0  0  0  0  0
   -6.1109   -0.0925   -1.8897 H   0  0  0  0  0  0  0  0  0  0  0  0
   -4.3530   -0.1559   -1.9773 H   0  0  0  0  0  0  0  0  0  0  0  0
   -6.1846   -2.5818   -1.5708 H   0  0  0  0  0  0  0  0  0  0  0  0
   -5.4153   -2.1047   -3.0934 H   0  0  0  0  0  0  0  0  0  0  0  0
   -4.4178   -2.6405   -1.7353 H   0  0  0  0  0  0  0  0  0  0  0  0
   -1.5838    4.7280    0.0760 H   0  0  0  0  0  0  0  0  0  0  0  0
   -2.0151    3.7681    1.5086 H   0  0  0  0  0  0  0  0  0  0  0  0
   -2.9902    3.6570    0.0245 H   0  0  0  0  0  0  0  0  0  0  0  0
  1  2  1  0
  2  3  2  0
  3  4  1  0
  4  5  2  3
  5  6  1  0
  6  7  2  0
  7  8  1  0
  8  9  2  0
  9 10  1  0
 10 11  1  0
  9 12  1  0
 12 13  2  0
  4 14  1  0
 14 15  2  0
 15 16  1  0
 16 17  1  0
 17 18  1  0
 18 19  1  0
 15 20  1  0
 20 21  2  0
 21 22  1  0
 22 23  1  0
 22  1  1  0
 21  3  1  0
 13  6  1  0
  1 24  1  0
  2 25  1  0
  7 26  1  0
  8 27  1  0
 10 28  1  0
 10 29  1  0
 11 30  1  0
 11 31  1  0
 11 32  1  0
 12 33  1  0
 13 34  1  0
 16 35  1  0
 17 36  1  0
 17 37  1  0
 18 38  1  0
 18 39  1  0
 19 40  1  0
 19 41  1  0
 19 42  1  0
 23 43  1  0
 23 44  1  0
 23 45  1  0
M  END
>  <ScrubInfo>  (5) 
{"isomerGroup": 0, "isomerId": 4, "confId": 0, "nr_conformers:": 1, "nr_isomers:": 9}

$$$$
_i5
     RDKit          3D

 45 47  0  0  0  0  0  0  0  0999 V2000
   -2.1915   -0.1718   -1.5355 N   0  0  0  0  0  0  0  0  0  0  0  0
   -2.5586    0.2162   -0.2721 C   0  0  0  0  0  0  0  0  0  0  0  0
   -3.9042    0.3391   -0.0699 N   0  0  0  0  0  0  0  0  0  0  0  0
   -4.8098   -0.7754   -0.3242 C   0  0  0  0  0  0  0  0  0  0  0  0
   -6.2616   -0.3574   -0.0922 C   0  0  0  0  0  0  0  0  0  0  0  0
   -6.5958   -0.1397    1.3769 C   0  0  0  0  0  0  0  0  0  0  0  0
   -1.7420    0.4859    0.7054 N   0  0  0  0  0  0  0  0  0  0  0  0
   -0.3694    0.3701    0.5130 C   0  0  0  0  0  0  0  0  0  0  0  0
    0.3679    0.5996    1.5527 N   0  0  0  0  0  0  0  0  0  0  0  0
    1.7591    0.5179    1.5161 C   0  0  0  0  0  0  0  0  0  0  0  0
    2.4045   -0.6887    1.7952 C   0  0  0  0  0  0  0  0  0  0  0  0
    3.7994   -0.7654    1.7818 C   0  0  0  0  0  0  0  0  0  0  0  0
    4.5689    0.3712    1.5017 C   0  0  0  0  0  0  0  0  0  0  0  0
    6.0743    0.2952    1.5049 C   0  0  0  0  0  0  0  0  0  0  0  0
    6.6522    0.5728    2.8842 C   0  0  0  0  0  0  0  0  0  0  0  0
    3.9196    1.5883    1.2575 C   0  0  0  0  0  0  0  0  0  0  0  0
    2.5244    1.6600    1.2718 C   0  0  0  0  0  0  0  0  0  0  0  0
    0.0707    0.0092   -0.8259 C   0  0  0  0  0  0  0  0  0  0  0  0
    1.2861   -0.1669   -1.5125 C   0  0  0  0  0  0  0  0  0  0  0  0
    1.1137   -0.4951   -2.8038 N   0  0  0  0  0  0  0  0  0  0  0  0
   -0.2297   -0.5299   -2.9490 N   0  0  0  0  0  0  0  0  0  0  0  0
   -0.7864   -0.8574   -4.2366 C   0  0  0  0  0  0  0  0  0  0  0  0
   -0.8742   -0.2410   -1.7895 C   0  0  0  0  0  0  0  0  0  0  0  0
   -2.9044   -0.1299   -2.2506 H   0  0  0  0  0  0  0  0  0  0  0  0
   -4.0264    0.6882    0.8802 H   0  0  0  0  0  0  0  0  0  0  0  0
   -4.7117   -1.1048   -1.3646 H   0  0  0  0  0  0  0  0  0  0  0  0
   -4.5479   -1.6242    0.3180 H   0  0  0  0  0  0  0  0  0  0  0  0
   -6.4877    0.5558   -0.6553 H   0  0  0  0  0  0  0  0  0  0  0  0
   -6.9176   -1.1458   -0.4803 H   0  0  0  0  0  0  0  0  0  0  0  0
   -7.6621    0.0805    1.4904 H   0  0  0  0  0  0  0  0  0  0  0  0
   -6.0366    0.7015    1.7968 H   0  0  0  0  0  0  0  0  0  0  0  0
   -6.3705   -1.0335    1.9674 H   0  0  0  0  0  0  0  0  0  0  0  0
    1.8154   -1.5718    2.0269 H   0  0  0  0  0  0  0  0  0  0  0  0
    4.2805   -1.7162    1.9992 H   0  0  0  0  0  0  0  0  0  0  0  0
    6.4811    1.0120    0.7813 H   0  0  0  0  0  0  0  0  0  0  0  0
    6.3939   -0.6963    1.1616 H   0  0  0  0  0  0  0  0  0  0  0  0
    6.2900   -0.1529    3.6203 H   0  0  0  0  0  0  0  0  0  0  0  0
    6.3780    1.5732    3.2360 H   0  0  0  0  0  0  0  0  0  0  0  0
    7.7447    0.5108    2.8561 H   0  0  0  0  0  0  0  0  0  0  0  0
    4.4950    2.4902    1.0622 H   0  0  0  0  0  0  0  0  0  0  0  0
    2.0283    2.6105    1.0945 H   0  0  0  0  0  0  0  0  0  0  0  0
    2.2998   -0.0691   -1.1485 H   0  0  0  0  0  0  0  0  0  0  0  0
   -1.8665   -0.9943   -4.1517 H   0  0  0  0  0  0  0  0  0  0  0  0
   -0.3266   -1.7844   -4.5889 H   0  0  0  0  0  0  0  0  0  0  0  0
   -0.5662   -0.0364   -4.9234 H   0  0  0  0  0  0  0  0  0  0  0  0
  1  2  1  0
  2  3  1  0
  3  4  1  0
  4  5  1  0
  5  6  1  0
  2  7  2  0
  7  8  1  0
  8  9  2  3
  9 10  1  0
 10 11  2  0
 11 12  1  0
 12 13  2  0
 13 14  1  0
 14 15  1  0
 13 16  1  0
 16 17  2  0
  8 18  1  0
 18 19  1  0
 19 20  2  0
 20 21  1  0
 21 22  1  0
 21 23  1  0
 23  1  1  0
 17 10  1  0
 23 18  2  0
  1 24  1  0
  3 25  1  0
  4 26  1  0
  4 27  1  0
  5 28  1  0
  5 29  1  0
  6 30  1  0
  6 31  1  0
  6 32  1  0
 11 33  1  0
 12 34  1  0
 14 35  1  0
 14 36  1  0
 15 37  1  0
 15 38  1  0
 15 39  1  0
 16 40  1  0
 17 41  1  0
 19 42  1  0
 22 43  1  0
 22 44  1  0
 22 45  1  0
M  END
>  <ScrubInfo>  (6) 
{"isomerGroup": 0, "isomerId": 5, "confId": 0, "nr_conformers:": 1, "nr_isomers:": 9}

$$$$
_i6
     RDKit          3D

 45 47  0  0  0  0  0  0  0  0999 V2000
   -0.2432    2.8292    1.7116 N   0  0  0  0  0  0  0  0  0  0  0  0
    0.4103    2.1542    0.6859 C   0  0  0  0  0  0  0  0  0  0  0  0
   -0.4066    1.3646   -0.0238 C   0  0  0  0  0  0  0  0  0  0  0  0
   -0.3377    0.4358   -1.1498 C   0  0  0  0  0  0  0  0  0  0  0  0
    0.8157    0.1670   -1.8559 N   0  0  0  0  0  0  0  0  0  0  0  0
    2.0498   -0.1779   -1.2583 C   0  0  0  0  0  0  0  0  0  0  0  0
    2.1420   -0.8114   -0.0139 C   0  0  0  0  0  0  0  0  0  0  0  0
    3.3854   -1.1783    0.5103 C   0  0  0  0  0  0  0  0  0  0  0  0
    4.5600   -0.9424   -0.2127 C   0  0  0  0  0  0  0  0  0  0  0  0
    5.9013   -1.3235    0.3595 C   0  0  0  0  0  0  0  0  0  0  0  0
    6.5057   -0.1954    1.1813 C   0  0  0  0  0  0  0  0  0  0  0  0
    4.4693   -0.3326   -1.4683 C   0  0  0  0  0  0  0  0  0  0  0  0
    3.2248    0.0322   -1.9894 C   0  0  0  0  0  0  0  0  0  0  0  0
   -1.4385   -0.1477   -1.5357 N   0  0  0  0  0  0  0  0  0  0  0  0
   -2.6063    0.0989   -0.8463 C   0  0  0  0  0  0  0  0  0  0  0  0
   -3.6020   -0.6059   -1.2545 N   0  0  0  0  0  0  0  0  0  0  0  0
   -4.8872   -0.4153   -0.5878 C   0  0  0  0  0  0  0  0  0  0  0  0
   -5.9166   -1.3568   -1.2131 C   0  0  0  0  0  0  0  0  0  0  0  0
   -5.6212   -2.8222   -0.9260 C   0  0  0  0  0  0  0  0  0  0  0  0
   -2.7832    0.9925    0.1870 N   0  0  0  0  0  0  0  0  0  0  0  0
   -1.7307    1.6213    0.5806 C   0  0  0  0  0  0  0  0  0  0  0  0
   -1.6073    2.5899    1.5774 N   0  0  0  0  0  0  0  0  0  0  0  0
   -2.4402    2.5528    2.7637 C   0  0  0  0  0  0  0  0  0  0  0  0
    0.0346    3.8105    1.7904 H   0  0  0  0  0  0  0  0  0  0  0  0
    1.4704    2.3098    0.5419 H   0  0  0  0  0  0  0  0  0  0  0  0
    0.6122   -0.4912   -2.6068 H   0  0  0  0  0  0  0  0  0  0  0  0
    1.2494   -1.0438    0.5618 H   0  0  0  0  0  0  0  0  0  0  0  0
    3.4281   -1.6603    1.4849 H   0  0  0  0  0  0  0  0  0  0  0  0
    6.5851   -1.5976   -0.4532 H   0  0  0  0  0  0  0  0  0  0  0  0
    5.7957   -2.2204    0.9820 H   0  0  0  0  0  0  0  0  0  0  0  0
    7.4774   -0.4988    1.5836 H   0  0  0  0  0  0  0  0  0  0  0  0
    5.8589    0.0736    2.0232 H   0  0  0  0  0  0  0  0  0  0  0  0
    6.6558    0.7030    0.5729 H   0  0  0  0  0  0  0  0  0  0  0  0
    5.3667   -0.1401   -2.0522 H   0  0  0  0  0  0  0  0  0  0  0  0
    3.1782    0.4995   -2.9706 H   0  0  0  0  0  0  0  0  0  0  0  0
   -4.8121   -0.6207    0.4870 H   0  0  0  0  0  0  0  0  0  0  0  0
   -5.2364    0.6153   -0.7252 H   0  0  0  0  0  0  0  0  0  0  0  0
   -6.9081   -1.1136   -0.8138 H   0  0  0  0  0  0  0  0  0  0  0  0
   -5.9568   -1.2024   -2.2978 H   0  0  0  0  0  0  0  0  0  0  0  0
   -5.5882   -3.0114    0.1517 H   0  0  0  0  0  0  0  0  0  0  0  0
   -4.6639   -3.1288   -1.3587 H   0  0  0  0  0  0  0  0  0  0  0  0
   -6.4030   -3.4555   -1.3572 H   0  0  0  0  0  0  0  0  0  0  0  0
   -2.2666    3.4417    3.3789 H   0  0  0  0  0  0  0  0  0  0  0  0
   -2.2206    1.6647    3.3655 H   0  0  0  0  0  0  0  0  0  0  0  0
   -3.5001    2.5376    2.4902 H   0  0  0  0  0  0  0  0  0  0  0  0
  1  2  1  0
  2  3  2  0
  3  4  1  0
  4  5  1  0
  5  6  1  0
  6  7  2  0
  7  8  1  0
  8  9  2  0
  9 10  1  0
 10 11  1  0
  9 12  1  0
 12 13  2  0
  4 14  2  0
 14 15  1  0
 15 16  2  3
 16 17  1  0
 17 18  1  0
 18 19  1  0
 15 20  1  0
 20 21  2  0
 21 22  1  0
 22 23  1  0
 22  1  1  0
 21  3  1  0
 13  6  1  0
  1 24  1  0
  2 25  1  0
  5 26  1  0
  7 27  1  0
  8 28  1  0
 10 29  1  0
 10 30  1  0
 11 31  1  0
 11 32  1  0
 11 33  1  0
 12 34  1  0
 13 35  1  0
 17 36  1  0
 17 37  1  0
 18 38  1  0
 18 39  1  0
 19 40  1  0
 19 41  1  0
 19 42  1  0
 23 43  1  0
 23 44  1  0
 23 45  1  0
M  END
>  <ScrubInfo>  (7) 
{"isomerGroup": 0, "isomerId": 6, "confId": 0, "nr_conformers:": 1, "nr_isomers:": 9}

$$$$
_i7
     RDKit          3D

 45 47  0  0  0  0  0  0  0  0999 V2000
   -2.0192    4.5148    1.0658 N   0  0  0  0  0  0  0  0  0  0  0  0
   -0.7600    3.9270    1.0156 C   0  0  0  0  0  0  0  0  0  0  0  0
   -0.7911    2.6676    0.5649 C   0  0  0  0  0  0  0  0  0  0  0  0
    0.1521    1.5714    0.3331 C   0  0  0  0  0  0  0  0  0  0  0  0
    1.4184    1.7609    0.5567 N   0  0  0  0  0  0  0  0  0  0  0  0
    2.3005    0.6967    0.3308 C   0  0  0  0  0  0  0  0  0  0  0  0
    2.6121   -0.1910    1.3619 C   0  0  0  0  0  0  0  0  0  0  0  0
    3.4823   -1.2602    1.1364 C   0  0  0  0  0  0  0  0  0  0  0  0
    4.0579   -1.4510   -0.1264 C   0  0  0  0  0  0  0  0  0  0  0  0
    5.0125   -2.5927   -0.3670 C   0  0  0  0  0  0  0  0  0  0  0  0
    6.4512   -2.2001   -0.0681 C   0  0  0  0  0  0  0  0  0  0  0  0
    3.7622   -0.5439   -1.1521 C   0  0  0  0  0  0  0  0  0  0  0  0
    2.8914    0.5238   -0.9219 C   0  0  0  0  0  0  0  0  0  0  0  0
   -0.4766    0.4346   -0.1085 N   0  0  0  0  0  0  0  0  0  0  0  0
   -1.8182    0.2761   -0.3329 C   0  0  0  0  0  0  0  0  0  0  0  0
   -2.2366   -0.8837   -0.7235 N   0  0  0  0  0  0  0  0  0  0  0  0
   -3.6738   -1.0303   -0.9588 C   0  0  0  0  0  0  0  0  0  0  0  0
   -3.9621   -2.4676   -1.3918 C   0  0  0  0  0  0  0  0  0  0  0  0
   -3.7136   -3.4760   -0.2790 C   0  0  0  0  0  0  0  0  0  0  0  0
   -2.7144    1.3130   -0.1581 N   0  0  0  0  0  0  0  0  0  0  0  0
   -2.2372    2.4479    0.2492 C   0  0  0  0  0  0  0  0  0  0  0  0
   -2.9313    3.6393    0.4788 N   0  0  0  0  0  0  0  0  0  0  0  0
   -4.3005    3.6245    0.9567 C   0  0  0  0  0  0  0  0  0  0  0  0
   -2.0297    5.4757    0.7162 H   0  0  0  0  0  0  0  0  0  0  0  0
    0.1090    4.4910    1.3245 H   0  0  0  0  0  0  0  0  0  0  0  0
    2.1761   -0.0464    2.3466 H   0  0  0  0  0  0  0  0  0  0  0  0
    3.7127   -1.9390    1.9544 H   0  0  0  0  0  0  0  0  0  0  0  0
    4.9287   -2.9303   -1.4072 H   0  0  0  0  0  0  0  0  0  0  0  0
    4.7255   -3.4502    0.2539 H   0  0  0  0  0  0  0  0  0  0  0  0
    7.1203   -3.0468   -0.2512 H   0  0  0  0  0  0  0  0  0  0  0  0
    6.5706   -1.8931    0.9765 H   0  0  0  0  0  0  0  0  0  0  0  0
    6.7758   -1.3679   -0.7018 H   0  0  0  0  0  0  0  0  0  0  0  0
    4.2129   -0.6592   -2.1354 H   0  0  0  0  0  0  0  0  0  0  0  0
    2.6736    1.2265   -1.7214 H   0  0  0  0  0  0  0  0  0  0  0  0
    0.0755   -0.3921   -0.2819 H   0  0  0  0  0  0  0  0  0  0  0  0
   -4.2492   -0.7997   -0.0539 H   0  0  0  0  0  0  0  0  0  0  0  0
   -3.9959   -0.3573   -1.7627 H   0  0  0  0  0  0  0  0  0  0  0  0
   -5.0103   -2.5404   -1.7042 H   0  0  0  0  0  0  0  0  0  0  0  0
   -3.3457   -2.7290   -2.2601 H   0  0  0  0  0  0  0  0  0  0  0  0
   -3.9704   -4.4840   -0.6199 H   0  0  0  0  0  0  0  0  0  0  0  0
   -2.6628   -3.4825    0.0267 H   0  0  0  0  0  0  0  0  0  0  0  0
   -4.3263   -3.2492    0.5993 H   0  0  0  0  0  0  0  0  0  0  0  0
   -4.7040    4.6418    0.9875 H   0  0  0  0  0  0  0  0  0  0  0  0
   -4.3565    3.1973    1.9633 H   0  0  0  0  0  0  0  0  0  0  0  0
   -4.9357    3.0337    0.2890 H   0  0  0  0  0  0  0  0  0  0  0  0
  1  2  1  0
  2  3  2  0
  3  4  1  0
  4  5  2  3
  5  6  1  0
  6  7  2  0
  7  8  1  0
  8  9  2  0
  9 10  1  0
 10 11  1  0
  9 12  1  0
 12 13  2  0
  4 14  1  0
 14 15  1  0
 15 16  2  3
 16 17  1  0
 17 18  1  0
 18 19  1  0
 15 20  1  0
 20 21  2  0
 21 22  1  0
 22 23  1  0
 22  1  1  0
 21  3  1  0
 13  6  1  0
  1 24  1  0
  2 25  1  0
  7 26  1  0
  8 27  1  0
 10 28  1  0
 10 29  1  0
 11 30  1  0
 11 31  1  0
 11 32  1  0
 12 33  1  0
 13 34  1  0
 14 35  1  0
 17 36  1  0
 17 37  1  0
 18 38  1  0
 18 39  1  0
 19 40  1  0
 19 41  1  0
 19 42  1  0
 23 43  1  0
 23 44  1  0
 23 45  1  0
M  END
>  <ScrubInfo>  (8) 
{"isomerGroup": 0, "isomerId": 7, "confId": 0, "nr_conformers:": 1, "nr_isomers:": 9}

$$$$
_i8
     RDKit          3D

 45 47  0  0  0  0  0  0  0  0999 V2000
   -2.6305    0.9140   -0.1510 N   0  0  0  0  0  0  0  0  0  0  0  0
   -2.7591    0.1222    0.9777 C   0  0  0  0  0  0  0  0  0  0  0  0
   -3.8361   -0.1958    1.6102 N   0  0  0  0  0  0  0  0  0  0  0  0
   -5.1309    0.3121    1.1690 C   0  0  0  0  0  0  0  0  0  0  0  0
   -5.7314   -0.5862    0.0898 C   0  0  0  0  0  0  0  0  0  0  0  0
   -6.0411   -1.9873    0.5976 C   0  0  0  0  0  0  0  0  0  0  0  0
   -1.5566   -0.3674    1.4380 N   0  0  0  0  0  0  0  0  0  0  0  0
   -0.2642   -0.2110    0.9857 C   0  0  0  0  0  0  0  0  0  0  0  0
    0.7332   -0.7778    1.5955 N   0  0  0  0  0  0  0  0  0  0  0  0
    2.0509   -0.6369    1.1586 C   0  0  0  0  0  0  0  0  0  0  0  0
    2.8560    0.3851    1.6656 C   0  0  0  0  0  0  0  0  0  0  0  0
    4.1837    0.5129    1.2496 C   0  0  0  0  0  0  0  0  0  0  0  0
    4.7276   -0.3912    0.3281 C   0  0  0  0  0  0  0  0  0  0  0  0
    6.1648   -0.2657   -0.1088 C   0  0  0  0  0  0  0  0  0  0  0  0
    7.1030   -1.0439    0.8009 C   0  0  0  0  0  0  0  0  0  0  0  0
    3.9274   -1.4357   -0.1527 C   0  0  0  0  0  0  0  0  0  0  0  0
    2.6003   -1.5596    0.2661 C   0  0  0  0  0  0  0  0  0  0  0  0
   -0.2313    0.6325   -0.1978 C   0  0  0  0  0  0  0  0  0  0  0  0
    0.7410    1.1422   -1.0789 C   0  0  0  0  0  0  0  0  0  0  0  0
    0.2165    1.9058   -2.0495 N   0  0  0  0  0  0  0  0  0  0  0  0
   -1.1095    1.8819   -1.7968 N   0  0  0  0  0  0  0  0  0  0  0  0
   -2.0041    2.6156   -2.6561 C   0  0  0  0  0  0  0  0  0  0  0  0
   -1.4127    1.1402   -0.6963 C   0  0  0  0  0  0  0  0  0  0  0  0
   -3.4798    1.2881   -0.5499 H   0  0  0  0  0  0  0  0  0  0  0  0
   -5.8000    0.3426    2.0369 H   0  0  0  0  0  0  0  0  0  0  0  0
   -5.0641    1.3465    0.8130 H   0  0  0  0  0  0  0  0  0  0  0  0
   -6.6609   -0.1305   -0.2710 H   0  0  0  0  0  0  0  0  0  0  0  0
   -5.0548   -0.6577   -0.7691 H   0  0  0  0  0  0  0  0  0  0  0  0
   -6.5122   -2.5790   -0.1937 H   0  0  0  0  0  0  0  0  0  0  0  0
   -5.1309   -2.5087    0.9095 H   0  0  0  0  0  0  0  0  0  0  0  0
   -6.7280   -1.9529    1.4492 H   0  0  0  0  0  0  0  0  0  0  0  0
   -1.6394   -0.9476    2.2603 H   0  0  0  0  0  0  0  0  0  0  0  0
    2.4460    1.0846    2.3888 H   0  0  0  0  0  0  0  0  0  0  0  0
    4.7915    1.3186    1.6548 H   0  0  0  0  0  0  0  0  0  0  0  0
    6.2687   -0.6223   -1.1409 H   0  0  0  0  0  0  0  0  0  0  0  0
    6.4547    0.7920   -0.1231 H   0  0  0  0  0  0  0  0  0  0  0  0
    8.1374   -0.9346    0.4601 H   0  0  0  0  0  0  0  0  0  0  0  0
    6.8580   -2.1114    0.8049 H   0  0  0  0  0  0  0  0  0  0  0  0
    7.0459   -0.6824    1.8333 H   0  0  0  0  0  0  0  0  0  0  0  0
    4.3336   -2.1636   -0.8512 H   0  0  0  0  0  0  0  0  0  0  0  0
    1.9906   -2.3792   -0.1038 H   0  0  0  0  0  0  0  0  0  0  0  0
    1.8135    1.0031   -1.0713 H   0  0  0  0  0  0  0  0  0  0  0  0
   -2.1112    3.6252   -2.2523 H   0  0  0  0  0  0  0  0  0  0  0  0
   -1.5833    2.6519   -3.6645 H   0  0  0  0  0  0  0  0  0  0  0  0
   -2.9727    2.1113   -2.6867 H   0  0  0  0  0  0  0  0  0  0  0  0
  1  2  1  0
  2  3  2  3
  3  4  1  0
  4  5  1  0
  5  6  1  0
  2  7  1  0
  7  8  1  0
  8  9  2  3
  9 10  1  0
 10 11  2  0
 11 12  1  0
 12 13  2  0
 13 14  1  0
 14 15  1  0
 13 16  1  0
 16 17  2  0
  8 18  1  0
 18 19  1  0
 19 20  2  0
 20 21  1  0
 21 22  1  0
 21 23  1  0
 23  1  1  0
 17 10  1  0
 23 18  2  0
  1 24  1  0
  4 25  1  0
  4 26  1  0
  5 27  1  0
  5 28  1  0
  6 29  1  0
  6 30  1  0
  6 31  1  0
  7 32  1  0
 11 33  1  0
 12 34  1  0
 14 35  1  0
 14 36  1  0
 15 37  1  0
 15 38  1  0
 15 39  1  0
 16 40  1  0
 17 41  1  0
 19 42  1  0
 22 43  1  0
 22 44  1  0
 22 45  1  0
M  END
>  <ScrubInfo>  (9) 
{"isomerGroup": 0, "isomerId": 8, "confId": 0, "nr_conformers:": 1, "nr_isomers:": 9}

$$$$
