REMARK SMILES CCCNc1nc(Nc2ccc(CC)cc2)c2cnn(C)c2n1
REMARK SMILES IDX 5 1 6 2 7 3 17 4 18 5 19 6 20 7 21 8 22 9 23 10 4 11 3 13
REMARK SMILES IDX 2 14 1 15 8 16 9 18 10 19 16 20 11 21 15 22 12 23 13 24
REMARK SMILES IDX 14 25
REMARK H PARENT 4 12 8 17
ROOT
ATOM      1  C   UNL     1       2.371   0.353   0.573  1.00  0.00     0.226 A 
ATOM      2  N   UNL     1       1.329   1.081   0.128  1.00  0.00    -0.195 NA
ATOM      3  C   UNL     1       0.301   0.475  -0.518  1.00  0.00     0.147 A 
ATOM      4  C   UNL     1       0.391  -0.901  -0.740  1.00  0.00     0.082 A 
ATOM      5  C   UNL     1      -0.346  -1.923  -1.373  1.00  0.00     0.149 A 
ATOM      6  N   UNL     1       0.238  -3.124  -1.272  1.00  0.00    -0.179 NA
ATOM      7  N   UNL     1       1.368  -2.859  -0.576  1.00  0.00    -0.250 N 
ATOM      8  C   UNL     1       2.278  -3.933  -0.267  1.00  0.00     0.176 C 
ATOM      9  C   UNL     1       1.510  -1.539  -0.245  1.00  0.00     0.165 A 
ATOM     10  N   UNL     1       2.525  -0.970   0.421  1.00  0.00    -0.193 NA
ENDROOT
BRANCH   1  11
ATOM     11  N   UNL     1       3.342   1.090   1.242  1.00  0.00    -0.354 N 
ATOM     12  H   UNL     1       3.167   2.058   0.993  1.00  0.00     0.163 HD
BRANCH  11  13
ATOM     13  C   UNL     1       4.703   0.630   1.031  1.00  0.00     0.116 C 
BRANCH  13  14
ATOM     14  C   UNL     1       5.670   1.582   1.736  1.00  0.00     0.018 C 
ATOM     15  C   UNL     1       7.115   1.145   1.557  1.00  0.00     0.006 C 
ENDBRANCH  13  14
ENDBRANCH  11  13
ENDBRANCH   1  11
BRANCH   3  16
ATOM     16  N   UNL     1      -0.747   1.297  -0.961  1.00  0.00    -0.339 N 
ATOM     17  H   UNL     1      -0.538   2.238  -0.631  1.00  0.00     0.168 HD
BRANCH  16  18
ATOM     18  C   UNL     1      -2.133   1.044  -0.880  1.00  0.00     0.040 A 
ATOM     19  C   UNL     1      -2.989   1.751  -1.733  1.00  0.00     0.026 A 
ATOM     20  C   UNL     1      -2.699   0.189   0.071  1.00  0.00     0.026 A 
ATOM     21  C   UNL     1      -4.374   1.572  -1.672  1.00  0.00     0.006 A 
ATOM     22  C   UNL     1      -4.084   0.007   0.135  1.00  0.00     0.006 A 
ATOM     23  C   UNL     1      -4.933   0.689  -0.743  1.00  0.00    -0.048 A 
BRANCH  23  24
ATOM     24  C   UNL     1      -6.427   0.506  -0.662  1.00  0.00     0.032 C 
ATOM     25  C   UNL     1      -7.068   1.495   0.299  1.00  0.00     0.009 C 
ENDBRANCH  23  24
ENDBRANCH  16  18
ENDBRANCH   3  16
TORSDOF 6
