REMARK SMILES COC(CNc1nc(-c2ccc(Cl)cc2)nc2c1CCC2)OC
REMARK SMILES IDX 4 1 3 2 2 3 1 4 22 5 23 6 5 7 6 9 7 10 18 11 8 12 17 13
REMARK SMILES IDX 19 14 16 15 21 16 20 17 9 18 10 19 15 20 11 21 14 22 12 23
REMARK SMILES IDX 13 24
REMARK H PARENT 5 8
ROOT
ATOM      1  C   UNL     1      -1.823   0.816   0.115  1.00  0.00     0.176 C 
ENDROOT
BRANCH   1   2
ATOM      2  C   UNL     1      -3.358   0.988   0.230  1.00  0.00     0.268 C 
BRANCH   2   3
ATOM      3  O   UNL     1      -3.944   0.391  -0.942  1.00  0.00    -0.354 OA
ATOM      4  C   UNL     1      -5.363   0.376  -0.874  1.00  0.00     0.198 C 
ENDBRANCH   2   3
BRANCH   2   5
ATOM      5  O   UNL     1      -3.710   2.372   0.297  1.00  0.00    -0.354 OA
ATOM      6  C   UNL     1      -3.636   2.894   1.615  1.00  0.00     0.198 C 
ENDBRANCH   2   5
ENDBRANCH   1   2
BRANCH   1   7
ATOM      7  N   UNL     1      -1.473  -0.613   0.054  1.00  0.00    -0.365 N 
ATOM      8  H   UNL     1      -1.992  -1.052  -0.706  1.00  0.00     0.162 HD
BRANCH   7   9
ATOM      9  C   UNL     1      -0.104  -0.872  -0.101  1.00  0.00     0.133 A 
ATOM     10  N   UNL     1       0.797   0.120   0.013  1.00  0.00    -0.211 NA
ATOM     11  C   UNL     1       0.319  -2.159  -0.301  1.00  0.00     0.016 A 
ATOM     12  C   UNL     1       2.114  -0.182  -0.121  1.00  0.00     0.161 A 
ATOM     13  C   UNL     1       1.675  -2.373  -0.425  1.00  0.00     0.050 A 
ATOM     14  C   UNL     1      -0.447  -3.428  -0.455  1.00  0.00     0.042 C 
ATOM     15  N   UNL     1       2.603  -1.417  -0.351  1.00  0.00    -0.233 NA
ATOM     16  C   UNL     1       1.971  -3.820  -0.697  1.00  0.00     0.057 C 
ATOM     17  C   UNL     1       0.660  -4.472  -0.238  1.00  0.00     0.011 C 
BRANCH  12  18
ATOM     18  C   UNL     1       3.083   0.930  -0.008  1.00  0.00     0.019 A 
ATOM     19  C   UNL     1       2.659   2.258   0.203  1.00  0.00     0.013 A 
ATOM     20  C   UNL     1       4.472   0.710  -0.108  1.00  0.00     0.013 A 
ATOM     21  C   UNL     1       3.573   3.313   0.310  1.00  0.00     0.021 A 
ATOM     22  C   UNL     1       5.391   1.760  -0.002  1.00  0.00     0.021 A 
ATOM     23  C   UNL     1       4.936   3.058   0.207  1.00  0.00     0.041 A 
ATOM     24  Cl  UNL     1       6.063   4.351   0.338  1.00  0.00    -0.084 Cl
ENDBRANCH  12  18
ENDBRANCH   7   9
ENDBRANCH   1   7
TORSDOF 6
