_i0
     RDKit          3D

 43 45  0  0  0  0  0  0  0  0999 V2000
   -5.3626    0.3757   -0.8737 C   0  0  0  0  0  0  0  0  0  0  0  0
   -3.9438    0.3909   -0.9417 O   0  0  0  0  0  0  0  0  0  0  0  0
   -3.3585    0.9884    0.2302 C   0  0  0  0  0  0  0  0  0  0  0  0
   -1.8227    0.8156    0.1148 C   0  0  0  0  0  0  0  0  0  0  0  0
   -1.4731   -0.6129    0.0542 N   0  0  0  0  0  0  0  0  0  0  0  0
   -0.1038   -0.8715   -0.1005 C   0  0  0  0  0  0  0  0  0  0  0  0
    0.7973    0.1201    0.0128 N   0  0  0  0  0  0  0  0  0  0  0  0
    2.1136   -0.1822   -0.1206 C   0  0  0  0  0  0  0  0  0  0  0  0
    3.0828    0.9302   -0.0080 C   0  0  0  0  0  0  0  0  0  0  0  0
    2.6587    2.2580    0.2034 C   0  0  0  0  0  0  0  0  0  0  0  0
    3.5733    3.3127    0.3100 C   0  0  0  0  0  0  0  0  0  0  0  0
    4.9365    3.0578    0.2069 C   0  0  0  0  0  0  0  0  0  0  0  0
    6.0630    4.3509    0.3380 Cl  0  0  0  0  0  0  0  0  0  0  0  0
    5.3913    1.7603   -0.0018 C   0  0  0  0  0  0  0  0  0  0  0  0
    4.4717    0.7099   -0.1079 C   0  0  0  0  0  0  0  0  0  0  0  0
    2.6030   -1.4173   -0.3513 N   0  0  0  0  0  0  0  0  0  0  0  0
    1.6753   -2.3725   -0.4255 C   0  0  0  0  0  0  0  0  0  0  0  0
    0.3191   -2.1593   -0.3010 C   0  0  0  0  0  0  0  0  0  0  0  0
   -0.4466   -3.4277   -0.4549 C   0  0  0  0  0  0  0  0  0  0  0  0
    0.6599   -4.4719   -0.2376 C   0  0  0  0  0  0  0  0  0  0  0  0
    1.9708   -3.8197   -0.6965 C   0  0  0  0  0  0  0  0  0  0  0  0
   -3.7097    2.3718    0.2968 O   0  0  0  0  0  0  0  0  0  0  0  0
   -3.6363    2.8945    1.6153 C   0  0  0  0  0  0  0  0  0  0  0  0
   -5.7416   -0.1328   -1.7644 H   0  0  0  0  0  0  0  0  0  0  0  0
   -5.7013   -0.1745    0.0094 H   0  0  0  0  0  0  0  0  0  0  0  0
   -5.7642    1.3932   -0.8625 H   0  0  0  0  0  0  0  0  0  0  0  0
   -3.7281    0.4464    1.1114 H   0  0  0  0  0  0  0  0  0  0  0  0
   -1.4803    1.3252   -0.7957 H   0  0  0  0  0  0  0  0  0  0  0  0
   -1.3338    1.2923    0.9718 H   0  0  0  0  0  0  0  0  0  0  0  0
   -1.9924   -1.0521   -0.7063 H   0  0  0  0  0  0  0  0  0  0  0  0
    1.5958    2.4814    0.2864 H   0  0  0  0  0  0  0  0  0  0  0  0
    3.2109    4.3241    0.4721 H   0  0  0  0  0  0  0  0  0  0  0  0
    6.4549    1.5534   -0.0837 H   0  0  0  0  0  0  0  0  0  0  0  0
    4.8507   -0.2985   -0.2714 H   0  0  0  0  0  0  0  0  0  0  0  0
   -1.2425   -3.5365    0.2871 H   0  0  0  0  0  0  0  0  0  0  0  0
   -0.8632   -3.4990   -1.4650 H   0  0  0  0  0  0  0  0  0  0  0  0
    0.7297   -4.7037    0.8345 H   0  0  0  0  0  0  0  0  0  0  0  0
    0.4554   -5.4128   -0.7578 H   0  0  0  0  0  0  0  0  0  0  0  0
    2.1372   -3.9712   -1.7677 H   0  0  0  0  0  0  0  0  0  0  0  0
    2.8301   -4.1825   -0.1267 H   0  0  0  0  0  0  0  0  0  0  0  0
   -3.9333    3.9464    1.5824 H   0  0  0  0  0  0  0  0  0  0  0  0
   -2.6175    2.8374    2.0072 H   0  0  0  0  0  0  0  0  0  0  0  0
   -4.3259    2.3622    2.2776 H   0  0  0  0  0  0  0  0  0  0  0  0
  1  2  1  0
  2  3  1  0
  3  4  1  0
  4  5  1  0
  5  6  1  0
  6  7  2  0
  7  8  1  0
  8  9  1  0
  9 10  2  0
 10 11  1  0
 11 12  2  0
 12 13  1  0
 12 14  1  0
 14 15  2  0
  8 16  2  0
 16 17  1  0
 17 18  2  0
 18 19  1  0
 19 20  1  0
 20 21  1  0
  3 22  1  0
 22 23  1  0
 18  6  1  0
 15  9  1  0
 21 17  1  0
  1 24  1  0
  1 25  1  0
  1 26  1  0
  3 27  1  0
  4 28  1  0
  4 29  1  0
  5 30  1  0
 10 31  1  0
 11 32  1  0
 14 33  1  0
 15 34  1  0
 19 35  1  0
 19 36  1  0
 20 37  1  0
 20 38  1  0
 21 39  1  0
 21 40  1  0
 23 41  1  0
 23 42  1  0
 23 43  1  0
M  END
>  <ScrubInfo>  (1) 
{"isomerGroup": 0, "isomerId": 0, "confId": 0, "nr_conformers:": 1, "nr_isomers:": 3}

$$$$
_i1
     RDKit          3D

 43 45  0  0  0  0  0  0  0  0999 V2000
    1.0836   -0.4983   -0.2184 N   0  0  0  0  0  0  0  0  0  0  0  0
    2.3420    0.0302   -0.0313 C   0  0  0  0  0  0  0  0  0  0  0  0
    3.5540   -0.7865   -0.3516 C   0  0  0  0  0  0  0  0  0  0  0  0
    3.4963   -1.8459   -1.2670 C   0  0  0  0  0  0  0  0  0  0  0  0
    4.6453   -2.5943   -1.5449 C   0  0  0  0  0  0  0  0  0  0  0  0
    5.8492   -2.2828   -0.9140 C   0  0  0  0  0  0  0  0  0  0  0  0
    7.2583   -3.2065   -1.2602 Cl  0  0  0  0  0  0  0  0  0  0  0  0
    5.9186   -1.2253   -0.0101 C   0  0  0  0  0  0  0  0  0  0  0  0
    4.7725   -0.4756    0.2685 C   0  0  0  0  0  0  0  0  0  0  0  0
    2.5134    1.2441    0.4297 N   0  0  0  0  0  0  0  0  0  0  0  0
    1.3652    1.9444    0.7085 C   0  0  0  0  0  0  0  0  0  0  0  0
    0.0936    1.5321    0.5776 C   0  0  0  0  0  0  0  0  0  0  0  0
   -0.0906    0.1587    0.0531 C   0  0  0  0  0  0  0  0  0  0  0  0
   -1.1747   -0.4965   -0.1856 N   0  0  0  0  0  0  0  0  0  0  0  0
   -2.4928    0.0891    0.0689 C   0  0  0  0  0  0  0  0  0  0  0  0
   -3.6024   -0.9069   -0.3485 C   0  0  0  0  0  0  0  0  0  0  0  0
   -3.8107   -1.8224    0.7351 O   0  0  0  0  0  0  0  0  0  0  0  0
   -4.6952   -2.8735    0.3799 C   0  0  0  0  0  0  0  0  0  0  0  0
   -4.8139   -0.1928   -0.6172 O   0  0  0  0  0  0  0  0  0  0  0  0
   -4.9199    0.1972   -1.9789 C   0  0  0  0  0  0  0  0  0  0  0  0
   -0.8807    2.5729    0.9820 C   0  0  0  0  0  0  0  0  0  0  0  0
    0.0061    3.6006    1.6937 C   0  0  0  0  0  0  0  0  0  0  0  0
    1.4357    3.3487    1.2137 C   0  0  0  0  0  0  0  0  0  0  0  0
    0.9611   -1.4634   -0.4816 H   0  0  0  0  0  0  0  0  0  0  0  0
    2.5798   -2.0900   -1.7954 H   0  0  0  0  0  0  0  0  0  0  0  0
    4.5968   -3.4124   -2.2593 H   0  0  0  0  0  0  0  0  0  0  0  0
    6.8565   -0.9763    0.4793 H   0  0  0  0  0  0  0  0  0  0  0  0
    4.8336    0.3505    0.9748 H   0  0  0  0  0  0  0  0  0  0  0  0
   -2.6075    0.3085    1.1358 H   0  0  0  0  0  0  0  0  0  0  0  0
   -2.6022    1.0163   -0.5020 H   0  0  0  0  0  0  0  0  0  0  0  0
   -3.2843   -1.4775   -1.2320 H   0  0  0  0  0  0  0  0  0  0  0  0
   -5.6910   -2.4850    0.1468 H   0  0  0  0  0  0  0  0  0  0  0  0
   -4.7823   -3.5509    1.2338 H   0  0  0  0  0  0  0  0  0  0  0  0
   -4.3022   -3.4386   -0.4708 H   0  0  0  0  0  0  0  0  0  0  0  0
   -5.8433    0.7700   -2.1003 H   0  0  0  0  0  0  0  0  0  0  0  0
   -4.0779    0.8286   -2.2765 H   0  0  0  0  0  0  0  0  0  0  0  0
   -4.9739   -0.6853   -2.6237 H   0  0  0  0  0  0  0  0  0  0  0  0
   -1.6447    2.2093    1.6726 H   0  0  0  0  0  0  0  0  0  0  0  0
   -1.3637    3.0154    0.1049 H   0  0  0  0  0  0  0  0  0  0  0  0
   -0.3183    4.6280    1.4984 H   0  0  0  0  0  0  0  0  0  0  0  0
   -0.0500    3.4464    2.7795 H   0  0  0  0  0  0  0  0  0  0  0  0
    1.7098    4.0330    0.4037 H   0  0  0  0  0  0  0  0  0  0  0  0
    2.1510    3.4623    2.0340 H   0  0  0  0  0  0  0  0  0  0  0  0
  1  2  1  0
  2  3  1  0
  3  4  2  0
  4  5  1  0
  5  6  2  0
  6  7  1  0
  6  8  1  0
  8  9  2  0
  2 10  2  0
 10 11  1  0
 11 12  2  0
 12 13  1  0
 13 14  2  3
 14 15  1  0
 15 16  1  0
 16 17  1  0
 17 18  1  0
 16 19  1  0
 19 20  1  0
 12 21  1  0
 21 22  1  0
 22 23  1  0
 13  1  1  0
  9  3  1  0
 23 11  1  0
  1 24  1  0
  4 25  1  0
  5 26  1  0
  8 27  1  0
  9 28  1  0
 15 29  1  0
 15 30  1  0
 16 31  1  0
 18 32  1  0
 18 33  1  0
 18 34  1  0
 20 35  1  0
 20 36  1  0
 20 37  1  0
 21 38  1  0
 21 39  1  0
 22 40  1  0
 22 41  1  0
 23 42  1  0
 23 43  1  0
M  END
>  <ScrubInfo>  (2) 
{"isomerGroup": 0, "isomerId": 1, "confId": 0, "nr_conformers:": 1, "nr_isomers:": 3}

$$$$
_i2
     RDKit          3D

 43 45  0  0  0  0  0  0  0  0999 V2000
    2.4364   -1.0253    0.6059 N   0  0  0  0  0  0  0  0  0  0  0  0
    2.1295    0.2246    0.1137 C   0  0  0  0  0  0  0  0  0  0  0  0
    3.2318    1.1932   -0.1859 C   0  0  0  0  0  0  0  0  0  0  0  0
    3.0096    2.2207   -1.1135 C   0  0  0  0  0  0  0  0  0  0  0  0
    4.0249    3.1329   -1.4135 C   0  0  0  0  0  0  0  0  0  0  0  0
    5.2610    3.0229   -0.7808 C   0  0  0  0  0  0  0  0  0  0  0  0
    6.5129    4.1443   -1.1471 Cl  0  0  0  0  0  0  0  0  0  0  0  0
    5.4892    2.0125    0.1530 C   0  0  0  0  0  0  0  0  0  0  0  0
    4.4747    1.0975    0.4540 C   0  0  0  0  0  0  0  0  0  0  0  0
    0.9041    0.6039   -0.1184 N   0  0  0  0  0  0  0  0  0  0  0  0
   -0.1658   -0.2319    0.1494 C   0  0  0  0  0  0  0  0  0  0  0  0
   -1.2989    0.3397   -0.0089 N   0  0  0  0  0  0  0  0  0  0  0  0
   -2.5580   -0.3553    0.2442 C   0  0  0  0  0  0  0  0  0  0  0  0
   -3.7468    0.6276    0.1138 C   0  0  0  0  0  0  0  0  0  0  0  0
   -4.1998    0.7498   -1.2388 O   0  0  0  0  0  0  0  0  0  0  0  0
   -3.2801    1.4413   -2.0720 C   0  0  0  0  0  0  0  0  0  0  0  0
   -4.8129    0.1039    0.9235 O   0  0  0  0  0  0  0  0  0  0  0  0
   -5.8998    1.0137    1.0165 C   0  0  0  0  0  0  0  0  0  0  0  0
    0.1553   -1.6228    0.5624 C   0  0  0  0  0  0  0  0  0  0  0  0
    1.4370   -1.9318    0.7742 C   0  0  0  0  0  0  0  0  0  0  0  0
    1.6290   -3.3498    1.1807 C   0  0  0  0  0  0  0  0  0  0  0  0
    0.2612   -3.9573    0.8599 C   0  0  0  0  0  0  0  0  0  0  0  0
   -0.7330   -2.7893    0.7905 C   0  0  0  0  0  0  0  0  0  0  0  0
    3.3879   -1.3684    0.6107 H   0  0  0  0  0  0  0  0  0  0  0  0
    2.0437    2.3141   -1.6073 H   0  0  0  0  0  0  0  0  0  0  0  0
    3.8409    3.9239   -2.1357 H   0  0  0  0  0  0  0  0  0  0  0  0
    6.4500    1.9386    0.6562 H   0  0  0  0  0  0  0  0  0  0  0  0
    4.6642    0.3410    1.2091 H   0  0  0  0  0  0  0  0  0  0  0  0
   -2.5573   -0.7672    1.2594 H   0  0  0  0  0  0  0  0  0  0  0  0
   -2.6963   -1.1682   -0.4763 H   0  0  0  0  0  0  0  0  0  0  0  0
   -3.4678    1.6137    0.5090 H   0  0  0  0  0  0  0  0  0  0  0  0
   -3.7908    1.6840   -3.0083 H   0  0  0  0  0  0  0  0  0  0  0  0
   -2.9485    2.3761   -1.6099 H   0  0  0  0  0  0  0  0  0  0  0  0
   -2.4255    0.8055   -2.3165 H   0  0  0  0  0  0  0  0  0  0  0  0
   -6.3588    1.1772    0.0371 H   0  0  0  0  0  0  0  0  0  0  0  0
   -5.5719    1.9660    1.4444 H   0  0  0  0  0  0  0  0  0  0  0  0
   -6.6530    0.5787    1.6792 H   0  0  0  0  0  0  0  0  0  0  0  0
    2.4228   -3.8467    0.6151 H   0  0  0  0  0  0  0  0  0  0  0  0
    1.8541   -3.4172    2.2502 H   0  0  0  0  0  0  0  0  0  0  0  0
   -0.0388   -4.7076    1.5989 H   0  0  0  0  0  0  0  0  0  0  0  0
    0.3025   -4.4634   -0.1138 H   0  0  0  0  0  0  0  0  0  0  0  0
   -1.2765   -2.6888    1.7353 H   0  0  0  0  0  0  0  0  0  0  0  0
   -1.4424   -2.9563   -0.0235 H   0  0  0  0  0  0  0  0  0  0  0  0
  1  2  1  0
  2  3  1  0
  3  4  2  0
  4  5  1  0
  5  6  2  0
  6  7  1  0
  6  8  1  0
  8  9  2  0
  2 10  2  0
 10 11  1  0
 11 12  2  3
 12 13  1  0
 13 14  1  0
 14 15  1  0
 15 16  1  0
 14 17  1  0
 17 18  1  0
 11 19  1  0
 19 20  2  0
 20 21  1  0
 21 22  1  0
 22 23  1  0
 20  1  1  0
  9  3  1  0
 23 19  1  0
  1 24  1  0
  4 25  1  0
  5 26  1  0
  8 27  1  0
  9 28  1  0
 13 29  1  0
 13 30  1  0
 14 31  1  0
 16 32  1  0
 16 33  1  0
 16 34  1  0
 18 35  1  0
 18 36  1  0
 18 37  1  0
 21 38  1  0
 21 39  1  0
 22 40  1  0
 22 41  1  0
 23 42  1  0
 23 43  1  0
M  END
>  <ScrubInfo>  (3) 
{"isomerGroup": 0, "isomerId": 2, "confId": 0, "nr_conformers:": 1, "nr_isomers:": 3}

$$$$
