_i0
     RDKit          3D

 46 48  0  0  0  0  0  0  0  0999 V2000
    1.9057    2.0056   -0.6464 C   0  0  0  0  0  0  0  0  0  0  0  0
    2.6060    0.7824   -0.8155 O   0  0  0  0  0  0  0  0  0  0  0  0
    3.3923    0.4309    0.3221 C   0  0  0  0  0  0  0  0  0  0  0  0
    2.5541   -0.2452    1.4469 C   0  0  0  0  0  0  0  0  0  0  0  0
    1.9655   -1.5224    0.9991 N   0  0  0  0  0  0  0  0  0  0  0  0
    0.6765   -1.4447    0.4511 C   0  0  0  0  0  0  0  0  0  0  0  0
   -0.1038   -0.3712    0.6701 N   0  0  0  0  0  0  0  0  0  0  0  0
   -1.3546   -0.3587    0.1419 C   0  0  0  0  0  0  0  0  0  0  0  0
   -2.1793    0.8454    0.3782 C   0  0  0  0  0  0  0  0  0  0  0  0
   -1.7931    1.8326    1.3042 C   0  0  0  0  0  0  0  0  0  0  0  0
   -2.5703    2.9754    1.5278 C   0  0  0  0  0  0  0  0  0  0  0  0
   -3.7699    3.1616    0.8369 C   0  0  0  0  0  0  0  0  0  0  0  0
   -4.5890    4.3993    1.0503 C   0  0  0  0  0  0  0  0  0  0  0  0
   -4.1663    2.2001   -0.0956 C   0  0  0  0  0  0  0  0  0  0  0  0
   -3.3855    1.0588   -0.3145 C   0  0  0  0  0  0  0  0  0  0  0  0
   -1.8977   -1.3555   -0.5857 N   0  0  0  0  0  0  0  0  0  0  0  0
   -1.1064   -2.4181   -0.7360 C   0  0  0  0  0  0  0  0  0  0  0  0
    0.1731   -2.5211   -0.2329 C   0  0  0  0  0  0  0  0  0  0  0  0
    0.7957   -3.8247   -0.5973 C   0  0  0  0  0  0  0  0  0  0  0  0
   -0.4419   -4.6468   -0.9900 C   0  0  0  0  0  0  0  0  0  0  0  0
   -1.4801   -3.6465   -1.5146 C   0  0  0  0  0  0  0  0  0  0  0  0
    4.4089   -0.5109   -0.0687 O   0  0  0  0  0  0  0  0  0  0  0  0
    5.3337    0.0571   -0.9855 C   0  0  0  0  0  0  0  0  0  0  0  0
    1.2797    1.9941    0.2484 H   0  0  0  0  0  0  0  0  0  0  0  0
    2.6142    2.8377   -0.5900 H   0  0  0  0  0  0  0  0  0  0  0  0
    1.2638    2.1570   -1.5184 H   0  0  0  0  0  0  0  0  0  0  0  0
    3.8878    1.3195    0.7354 H   0  0  0  0  0  0  0  0  0  0  0  0
    3.2391   -0.4969    2.2656 H   0  0  0  0  0  0  0  0  0  0  0  0
    1.8103    0.4404    1.8652 H   0  0  0  0  0  0  0  0  0  0  0  0
    2.5958   -1.9323    0.3075 H   0  0  0  0  0  0  0  0  0  0  0  0
   -0.8714    1.7109    1.8710 H   0  0  0  0  0  0  0  0  0  0  0  0
   -2.2310    3.7137    2.2506 H   0  0  0  0  0  0  0  0  0  0  0  0
   -5.6528    4.1966    0.8879 H   0  0  0  0  0  0  0  0  0  0  0  0
   -4.2685    5.1840    0.3582 H   0  0  0  0  0  0  0  0  0  0  0  0
   -4.4819    4.7666    2.0764 H   0  0  0  0  0  0  0  0  0  0  0  0
   -5.0876    2.3261   -0.6599 H   0  0  0  0  0  0  0  0  0  0  0  0
   -3.7274    0.3262   -1.0444 H   0  0  0  0  0  0  0  0  0  0  0  0
    1.3288   -4.2892    0.2369 H   0  0  0  0  0  0  0  0  0  0  0  0
    1.4709   -3.6973   -1.4497 H   0  0  0  0  0  0  0  0  0  0  0  0
   -0.2100   -5.4305   -1.7178 H   0  0  0  0  0  0  0  0  0  0  0  0
   -0.8417   -5.1444   -0.0953 H   0  0  0  0  0  0  0  0  0  0  0  0
   -1.3497   -3.4621   -2.5856 H   0  0  0  0  0  0  0  0  0  0  0  0
   -2.5030   -3.9732   -1.3104 H   0  0  0  0  0  0  0  0  0  0  0  0
    5.8110    0.9427   -0.5549 H   0  0  0  0  0  0  0  0  0  0  0  0
    4.8418    0.3132   -1.9284 H   0  0  0  0  0  0  0  0  0  0  0  0
    6.1078   -0.6864   -1.1939 H   0  0  0  0  0  0  0  0  0  0  0  0
  1  2  1  0
  2  3  1  0
  3  4  1  0
  4  5  1  0
  5  6  1  0
  6  7  2  0
  7  8  1  0
  8  9  1  0
  9 10  2  0
 10 11  1  0
 11 12  2  0
 12 13  1  0
 12 14  1  0
 14 15  2  0
  8 16  2  0
 16 17  1  0
 17 18  2  0
 18 19  1  0
 19 20  1  0
 20 21  1  0
  3 22  1  0
 22 23  1  0
 18  6  1  0
 15  9  1  0
 21 17  1  0
  1 24  1  0
  1 25  1  0
  1 26  1  0
  3 27  1  0
  4 28  1  0
  4 29  1  0
  5 30  1  0
 10 31  1  0
 11 32  1  0
 13 33  1  0
 13 34  1  0
 13 35  1  0
 14 36  1  0
 15 37  1  0
 19 38  1  0
 19 39  1  0
 20 40  1  0
 20 41  1  0
 21 42  1  0
 21 43  1  0
 23 44  1  0
 23 45  1  0
 23 46  1  0
M  END
>  <ScrubInfo>  (1) 
{"isomerGroup": 0, "isomerId": 0, "confId": 0, "nr_conformers:": 1, "nr_isomers:": 3}

$$$$
_i1
     RDKit          3D

 46 48  0  0  0  0  0  0  0  0999 V2000
    0.4874    0.2526    0.6659 N   0  0  0  0  0  0  0  0  0  0  0  0
    1.6395   -0.1392    0.0229 C   0  0  0  0  0  0  0  0  0  0  0  0
    2.8143    0.7838   -0.0334 C   0  0  0  0  0  0  0  0  0  0  0  0
    4.0982    0.2496   -0.1905 C   0  0  0  0  0  0  0  0  0  0  0  0
    5.2120    1.0919   -0.2372 C   0  0  0  0  0  0  0  0  0  0  0  0
    5.0572    2.4782   -0.1244 C   0  0  0  0  0  0  0  0  0  0  0  0
    6.2497    3.3843   -0.2121 C   0  0  0  0  0  0  0  0  0  0  0  0
    3.7690    3.0116    0.0050 C   0  0  0  0  0  0  0  0  0  0  0  0
    2.6522    2.1711    0.0535 C   0  0  0  0  0  0  0  0  0  0  0  0
    1.7394   -1.3154   -0.5442 N   0  0  0  0  0  0  0  0  0  0  0  0
    0.6220   -2.1104   -0.4628 C   0  0  0  0  0  0  0  0  0  0  0  0
   -0.5554   -1.8316    0.1238 C   0  0  0  0  0  0  0  0  0  0  0  0
   -0.6637   -0.4914    0.7494 C   0  0  0  0  0  0  0  0  0  0  0  0
   -1.6419    0.0895    1.3493 N   0  0  0  0  0  0  0  0  0  0  0  0
   -2.9876   -0.4595    1.4837 C   0  0  0  0  0  0  0  0  0  0  0  0
   -3.9454    0.0724    0.3847 C   0  0  0  0  0  0  0  0  0  0  0  0
   -3.8936    1.4917    0.2173 O   0  0  0  0  0  0  0  0  0  0  0  0
   -4.3356    2.2142    1.3543 C   0  0  0  0  0  0  0  0  0  0  0  0
   -3.6267   -0.5905   -0.8459 O   0  0  0  0  0  0  0  0  0  0  0  0
   -4.5170   -0.2382   -1.8937 C   0  0  0  0  0  0  0  0  0  0  0  0
   -1.4997   -2.9710    0.0428 C   0  0  0  0  0  0  0  0  0  0  0  0
   -0.6075   -4.1195   -0.4415 C   0  0  0  0  0  0  0  0  0  0  0  0
    0.6256   -3.4750   -1.0702 C   0  0  0  0  0  0  0  0  0  0  0  0
    0.4260    1.1498    1.1195 H   0  0  0  0  0  0  0  0  0  0  0  0
    4.2371   -0.8261   -0.2764 H   0  0  0  0  0  0  0  0  0  0  0  0
    6.2005    0.6559   -0.3647 H   0  0  0  0  0  0  0  0  0  0  0  0
    6.4370    3.6563   -1.2554 H   0  0  0  0  0  0  0  0  0  0  0  0
    7.1422    2.8954    0.1924 H   0  0  0  0  0  0  0  0  0  0  0  0
    6.0890    4.2984    0.3692 H   0  0  0  0  0  0  0  0  0  0  0  0
    3.6261    4.0890    0.0602 H   0  0  0  0  0  0  0  0  0  0  0  0
    1.6676    2.6224    0.1257 H   0  0  0  0  0  0  0  0  0  0  0  0
   -3.0059   -1.5474    1.5092 H   0  0  0  0  0  0  0  0  0  0  0  0
   -3.3603   -0.1393    2.4633 H   0  0  0  0  0  0  0  0  0  0  0  0
   -4.9686   -0.2185    0.6572 H   0  0  0  0  0  0  0  0  0  0  0  0
   -5.3226    1.8699    1.6780 H   0  0  0  0  0  0  0  0  0  0  0  0
   -4.4122    3.2696    1.0780 H   0  0  0  0  0  0  0  0  0  0  0  0
   -3.6169    2.1332    2.1740 H   0  0  0  0  0  0  0  0  0  0  0  0
   -4.4069    0.8166   -2.1617 H   0  0  0  0  0  0  0  0  0  0  0  0
   -5.5526   -0.4516   -1.6119 H   0  0  0  0  0  0  0  0  0  0  0  0
   -4.2663   -0.8408   -2.7710 H   0  0  0  0  0  0  0  0  0  0  0  0
   -1.9324   -3.2411    1.0090 H   0  0  0  0  0  0  0  0  0  0  0  0
   -2.2985   -2.7772   -0.6775 H   0  0  0  0  0  0  0  0  0  0  0  0
   -0.3049   -4.7375    0.4144 H   0  0  0  0  0  0  0  0  0  0  0  0
   -1.1305   -4.7779   -1.1429 H   0  0  0  0  0  0  0  0  0  0  0  0
    0.5297   -3.4089   -2.1592 H   0  0  0  0  0  0  0  0  0  0  0  0
    1.5309   -4.0392   -0.8259 H   0  0  0  0  0  0  0  0  0  0  0  0
  1  2  1  0
  2  3  1  0
  3  4  2  0
  4  5  1  0
  5  6  2  0
  6  7  1  0
  6  8  1  0
  8  9  2  0
  2 10  2  0
 10 11  1  0
 11 12  2  0
 12 13  1  0
 13 14  2  3
 14 15  1  0
 15 16  1  0
 16 17  1  0
 17 18  1  0
 16 19  1  0
 19 20  1  0
 12 21  1  0
 21 22  1  0
 22 23  1  0
 13  1  1  0
  9  3  1  0
 23 11  1  0
  1 24  1  0
  4 25  1  0
  5 26  1  0
  7 27  1  0
  7 28  1  0
  7 29  1  0
  8 30  1  0
  9 31  1  0
 15 32  1  0
 15 33  1  0
 16 34  1  0
 18 35  1  0
 18 36  1  0
 18 37  1  0
 20 38  1  0
 20 39  1  0
 20 40  1  0
 21 41  1  0
 21 42  1  0
 22 43  1  0
 22 44  1  0
 23 45  1  0
 23 46  1  0
M  END
>  <ScrubInfo>  (2) 
{"isomerGroup": 0, "isomerId": 1, "confId": 0, "nr_conformers:": 1, "nr_isomers:": 3}

$$$$
_i2
     RDKit          3D

 46 48  0  0  0  0  0  0  0  0999 V2000
    1.7218   -1.6440    0.1993 N   0  0  0  0  0  0  0  0  0  0  0  0
    1.2757   -0.4256   -0.2775 C   0  0  0  0  0  0  0  0  0  0  0  0
    2.2571    0.6877   -0.4780 C   0  0  0  0  0  0  0  0  0  0  0  0
    3.4528    0.7386    0.2475 C   0  0  0  0  0  0  0  0  0  0  0  0
    4.3584    1.7831    0.0354 C   0  0  0  0  0  0  0  0  0  0  0  0
    4.0742    2.7949   -0.8899 C   0  0  0  0  0  0  0  0  0  0  0  0
    5.0606    3.8978   -1.1376 C   0  0  0  0  0  0  0  0  0  0  0  0
    2.8782    2.7391   -1.6146 C   0  0  0  0  0  0  0  0  0  0  0  0
    1.9711    1.6975   -1.4037 C   0  0  0  0  0  0  0  0  0  0  0  0
    0.0245   -0.2008   -0.5787 N   0  0  0  0  0  0  0  0  0  0  0  0
   -0.9245   -1.1882   -0.3968 C   0  0  0  0  0  0  0  0  0  0  0  0
   -2.1764   -0.9987   -0.6303 N   0  0  0  0  0  0  0  0  0  0  0  0
   -2.6151    0.3487   -1.0274 C   0  0  0  0  0  0  0  0  0  0  0  0
   -3.2240    1.1338    0.1648 C   0  0  0  0  0  0  0  0  0  0  0  0
   -2.1644    1.5549    1.0338 O   0  0  0  0  0  0  0  0  0  0  0  0
   -2.6241    2.3964    2.0781 C   0  0  0  0  0  0  0  0  0  0  0  0
   -4.2093    0.4005    0.9009 O   0  0  0  0  0  0  0  0  0  0  0  0
   -5.3386    0.0305    0.1285 C   0  0  0  0  0  0  0  0  0  0  0  0
   -0.4542   -2.5081    0.0571 C   0  0  0  0  0  0  0  0  0  0  0  0
    0.8380   -2.6683    0.3316 C   0  0  0  0  0  0  0  0  0  0  0  0
    1.1453   -4.0534    0.7726 C   0  0  0  0  0  0  0  0  0  0  0  0
   -0.2588   -4.6222    1.0360 C   0  0  0  0  0  0  0  0  0  0  0  0
   -1.2544   -3.7330    0.2742 C   0  0  0  0  0  0  0  0  0  0  0  0
    2.7073   -1.8492    0.2879 H   0  0  0  0  0  0  0  0  0  0  0  0
    3.6862   -0.0060    1.0016 H   0  0  0  0  0  0  0  0  0  0  0  0
    5.2839    1.8090    0.6068 H   0  0  0  0  0  0  0  0  0  0  0  0
    5.7560    3.6062   -1.9306 H   0  0  0  0  0  0  0  0  0  0  0  0
    5.6316    4.1223   -0.2305 H   0  0  0  0  0  0  0  0  0  0  0  0
    4.5496    4.8194   -1.4356 H   0  0  0  0  0  0  0  0  0  0  0  0
    2.6396    3.5088   -2.3453 H   0  0  0  0  0  0  0  0  0  0  0  0
    1.0414    1.6753   -1.9681 H   0  0  0  0  0  0  0  0  0  0  0  0
   -3.3805    0.2143   -1.8001 H   0  0  0  0  0  0  0  0  0  0  0  0
   -1.8203    0.9403   -1.4958 H   0  0  0  0  0  0  0  0  0  0  0  0
   -3.6929    2.0406   -0.2402 H   0  0  0  0  0  0  0  0  0  0  0  0
   -3.2878    1.8518    2.7562 H   0  0  0  0  0  0  0  0  0  0  0  0
   -3.1355    3.2750    1.6731 H   0  0  0  0  0  0  0  0  0  0  0  0
   -1.7564    2.7357    2.6505 H   0  0  0  0  0  0  0  0  0  0  0  0
   -5.0856   -0.7618   -0.5809 H   0  0  0  0  0  0  0  0  0  0  0  0
   -6.1020   -0.3596    0.8076 H   0  0  0  0  0  0  0  0  0  0  0  0
   -5.7547    0.8949   -0.3979 H   0  0  0  0  0  0  0  0  0  0  0  0
    1.7562   -4.0805    1.6797 H   0  0  0  0  0  0  0  0  0  0  0  0
    1.6557   -4.6083   -0.0215 H   0  0  0  0  0  0  0  0  0  0  0  0
   -0.4762   -4.5776    2.1115 H   0  0  0  0  0  0  0  0  0  0  0  0
   -0.3367   -5.6726    0.7366 H   0  0  0  0  0  0  0  0  0  0  0  0
   -2.1546   -3.5533    0.8690 H   0  0  0  0  0  0  0  0  0  0  0  0
   -1.5381   -4.1860   -0.6813 H   0  0  0  0  0  0  0  0  0  0  0  0
  1  2  1  0
  2  3  1  0
  3  4  2  0
  4  5  1  0
  5  6  2  0
  6  7  1  0
  6  8  1  0
  8  9  2  0
  2 10  2  0
 10 11  1  0
 11 12  2  3
 12 13  1  0
 13 14  1  0
 14 15  1  0
 15 16  1  0
 14 17  1  0
 17 18  1  0
 11 19  1  0
 19 20  2  0
 20 21  1  0
 21 22  1  0
 22 23  1  0
 20  1  1  0
  9  3  1  0
 23 19  1  0
  1 24  1  0
  4 25  1  0
  5 26  1  0
  7 27  1  0
  7 28  1  0
  7 29  1  0
  8 30  1  0
  9 31  1  0
 13 32  1  0
 13 33  1  0
 14 34  1  0
 16 35  1  0
 16 36  1  0
 16 37  1  0
 18 38  1  0
 18 39  1  0
 18 40  1  0
 21 41  1  0
 21 42  1  0
 22 43  1  0
 22 44  1  0
 23 45  1  0
 23 46  1  0
M  END
>  <ScrubInfo>  (3) 
{"isomerGroup": 0, "isomerId": 2, "confId": 0, "nr_conformers:": 1, "nr_isomers:": 3}

$$$$
