REMARK SMILES COC(CNc1nc(-c2ccc(C)cc2)nc2c1CCC2)OC
REMARK SMILES IDX 4 1 3 2 2 3 1 4 22 5 23 6 5 7 6 9 7 10 18 11 8 12 17 13
REMARK SMILES IDX 19 14 16 15 21 16 20 17 9 18 10 19 15 20 11 21 14 22 12 23
REMARK SMILES IDX 13 24
REMARK H PARENT 5 8
ROOT
ATOM      1  C   UNL     1       2.554  -0.245   1.447  1.00  0.00     0.176 C 
ENDROOT
BRANCH   1   2
ATOM      2  C   UNL     1       3.392   0.431   0.322  1.00  0.00     0.268 C 
BRANCH   2   3
ATOM      3  O   UNL     1       2.606   0.782  -0.816  1.00  0.00    -0.354 OA
ATOM      4  C   UNL     1       1.906   2.006  -0.646  1.00  0.00     0.198 C 
ENDBRANCH   2   3
BRANCH   2   5
ATOM      5  O   UNL     1       4.409  -0.511  -0.069  1.00  0.00    -0.354 OA
ATOM      6  C   UNL     1       5.334   0.057  -0.986  1.00  0.00     0.198 C 
ENDBRANCH   2   5
ENDBRANCH   1   2
BRANCH   1   7
ATOM      7  N   UNL     1       1.966  -1.522   0.999  1.00  0.00    -0.365 N 
ATOM      8  H   UNL     1       2.596  -1.932   0.307  1.00  0.00     0.162 HD
BRANCH   7   9
ATOM      9  C   UNL     1       0.676  -1.445   0.451  1.00  0.00     0.133 A 
ATOM     10  N   UNL     1      -0.104  -0.371   0.670  1.00  0.00    -0.211 NA
ATOM     11  C   UNL     1       0.173  -2.521  -0.233  1.00  0.00     0.016 A 
ATOM     12  C   UNL     1      -1.355  -0.359   0.142  1.00  0.00     0.161 A 
ATOM     13  C   UNL     1      -1.106  -2.418  -0.736  1.00  0.00     0.050 A 
ATOM     14  C   UNL     1       0.796  -3.825  -0.597  1.00  0.00     0.042 C 
ATOM     15  N   UNL     1      -1.898  -1.355  -0.586  1.00  0.00    -0.233 NA
ATOM     16  C   UNL     1      -1.480  -3.647  -1.515  1.00  0.00     0.057 C 
ATOM     17  C   UNL     1      -0.442  -4.647  -0.990  1.00  0.00     0.011 C 
BRANCH  12  18
ATOM     18  C   UNL     1      -2.179   0.845   0.378  1.00  0.00     0.019 A 
ATOM     19  C   UNL     1      -1.793   1.833   1.304  1.00  0.00     0.012 A 
ATOM     20  C   UNL     1      -3.385   1.059  -0.315  1.00  0.00     0.012 A 
ATOM     21  C   UNL     1      -2.570   2.975   1.528  1.00  0.00     0.004 A 
ATOM     22  C   UNL     1      -4.166   2.200  -0.096  1.00  0.00     0.004 A 
ATOM     23  C   UNL     1      -3.770   3.162   0.837  1.00  0.00    -0.051 A 
ATOM     24  C   UNL     1      -4.589   4.399   1.050  1.00  0.00     0.044 C 
ENDBRANCH  12  18
ENDBRANCH   7   9
ENDBRANCH   1   7
TORSDOF 6
