REMARK SMILES OCCCNc1nc(Nc2ccncc2)nc2ccccc12
REMARK SMILES IDX 4 1 3 2 2 3 1 4 5 6 6 8 7 9 22 10 8 11 21 12 17 13 16 14
REMARK SMILES IDX 20 15 18 16 19 17 9 18 10 20 11 21 15 22 12 23 14 24 13 25
REMARK H PARENT 1 5 5 7 9 19
ROOT
ATOM      1  C   UNL     1       2.693  -1.307  -0.080  1.00  0.00     0.117 C 
ENDROOT
BRANCH   1   2
ATOM      2  C   UNL     1       4.189  -1.621  -0.044  1.00  0.00     0.049 C 
BRANCH   2   3
ATOM      3  C   UNL     1       4.462  -3.083   0.280  1.00  0.00     0.158 C 
BRANCH   3   4
ATOM      4  O   UNL     1       3.980  -3.927  -0.756  1.00  0.00    -0.396 OA
ATOM      5  H   UNL     1       3.050  -4.139  -0.565  1.00  0.00     0.210 HD
ENDBRANCH   3   4
ENDBRANCH   2   3
ENDBRANCH   1   2
BRANCH   1   6
ATOM      6  N   UNL     1       2.510   0.126  -0.304  1.00  0.00    -0.369 N 
ATOM      7  H   UNL     1       2.937   0.422  -1.179  1.00  0.00     0.162 HD
BRANCH   6   8
ATOM      8  C   UNL     1       1.164   0.565  -0.303  1.00  0.00     0.139 A 
ATOM      9  N   UNL     1       0.190  -0.329  -0.059  1.00  0.00    -0.195 NA
ATOM     10  C   UNL     1       0.887   1.922  -0.530  1.00  0.00     0.043 A 
ATOM     11  C   UNL     1      -1.081   0.098  -0.066  1.00  0.00     0.229 A 
ATOM     12  C   UNL     1       1.859   2.934  -0.748  1.00  0.00     0.014 A 
ATOM     13  C   UNL     1      -0.468   2.259  -0.524  1.00  0.00     0.078 A 
ATOM     14  N   UNL     1      -1.433   1.364  -0.304  1.00  0.00    -0.213 NA
ATOM     15  C   UNL     1       1.477   4.255  -0.973  1.00  0.00     0.001 A 
ATOM     16  C   UNL     1      -0.825   3.583  -0.754  1.00  0.00     0.029 A 
ATOM     17  C   UNL     1       0.128   4.580  -0.980  1.00  0.00     0.002 A 
BRANCH  11  18
ATOM     18  N   UNL     1      -2.027  -0.892   0.189  1.00  0.00    -0.324 N 
ATOM     19  H   UNL     1      -1.547  -1.764   0.354  1.00  0.00     0.170 HD
BRANCH  18  20
ATOM     20  C   UNL     1      -3.422  -0.898   0.296  1.00  0.00     0.044 A 
ATOM     21  C   UNL     1      -4.070  -2.109   0.568  1.00  0.00     0.046 A 
ATOM     22  C   UNL     1      -4.221   0.232   0.137  1.00  0.00     0.046 A 
ATOM     23  C   UNL     1      -5.454  -2.134   0.672  1.00  0.00     0.113 A 
ATOM     24  C   UNL     1      -5.599   0.112   0.257  1.00  0.00     0.113 A 
ATOM     25  N   UNL     1      -6.235  -1.047   0.522  1.00  0.00    -0.265 NA
ENDBRANCH  18  20
ENDBRANCH  11  18
ENDBRANCH   6   8
ENDBRANCH   1   6
TORSDOF 7
