_i0
     RDKit          3D

 39 41  0  0  0  0  0  0  0  0999 V2000
    3.9801   -3.9273   -0.7563 O   0  0  0  0  0  0  0  0  0  0  0  0
    4.4617   -3.0828    0.2795 C   0  0  0  0  0  0  0  0  0  0  0  0
    4.1889   -1.6206   -0.0439 C   0  0  0  0  0  0  0  0  0  0  0  0
    2.6934   -1.3069   -0.0799 C   0  0  0  0  0  0  0  0  0  0  0  0
    2.5104    0.1258   -0.3044 N   0  0  0  0  0  0  0  0  0  0  0  0
    1.1643    0.5646   -0.3032 C   0  0  0  0  0  0  0  0  0  0  0  0
    0.1895   -0.3291   -0.0589 N   0  0  0  0  0  0  0  0  0  0  0  0
   -1.0805    0.0976   -0.0663 C   0  0  0  0  0  0  0  0  0  0  0  0
   -2.0273   -0.8921    0.1885 N   0  0  0  0  0  0  0  0  0  0  0  0
   -3.4220   -0.8983    0.2963 C   0  0  0  0  0  0  0  0  0  0  0  0
   -4.0703   -2.1086    0.5684 C   0  0  0  0  0  0  0  0  0  0  0  0
   -5.4535   -2.1335    0.6716 C   0  0  0  0  0  0  0  0  0  0  0  0
   -6.2351   -1.0472    0.5224 N   0  0  0  0  0  0  0  0  0  0  0  0
   -5.5988    0.1117    0.2574 C   0  0  0  0  0  0  0  0  0  0  0  0
   -4.2214    0.2318    0.1365 C   0  0  0  0  0  0  0  0  0  0  0  0
   -1.4332    1.3643   -0.3036 N   0  0  0  0  0  0  0  0  0  0  0  0
   -0.4676    2.2594   -0.5239 C   0  0  0  0  0  0  0  0  0  0  0  0
   -0.8253    3.5831   -0.7541 C   0  0  0  0  0  0  0  0  0  0  0  0
    0.1282    4.5797   -0.9802 C   0  0  0  0  0  0  0  0  0  0  0  0
    1.4772    4.2547   -0.9733 C   0  0  0  0  0  0  0  0  0  0  0  0
    1.8588    2.9343   -0.7477 C   0  0  0  0  0  0  0  0  0  0  0  0
    0.8875    1.9223   -0.5297 C   0  0  0  0  0  0  0  0  0  0  0  0
    3.0502   -4.1386   -0.5654 H   0  0  0  0  0  0  0  0  0  0  0  0
    5.5412   -3.2449    0.3598 H   0  0  0  0  0  0  0  0  0  0  0  0
    4.0066   -3.3817    1.2297 H   0  0  0  0  0  0  0  0  0  0  0  0
    4.6291   -1.3724   -1.0178 H   0  0  0  0  0  0  0  0  0  0  0  0
    4.6811   -0.9888    0.7054 H   0  0  0  0  0  0  0  0  0  0  0  0
    2.2465   -1.6013    0.8779 H   0  0  0  0  0  0  0  0  0  0  0  0
    2.2126   -1.8802   -0.8819 H   0  0  0  0  0  0  0  0  0  0  0  0
    2.9372    0.4224   -1.1795 H   0  0  0  0  0  0  0  0  0  0  0  0
   -1.5466   -1.7636    0.3541 H   0  0  0  0  0  0  0  0  0  0  0  0
   -3.5131   -3.0293    0.7005 H   0  0  0  0  0  0  0  0  0  0  0  0
   -5.9815   -3.0587    0.8829 H   0  0  0  0  0  0  0  0  0  0  0  0
   -6.2434    0.9779    0.1387 H   0  0  0  0  0  0  0  0  0  0  0  0
   -3.8033    1.2070   -0.0790 H   0  0  0  0  0  0  0  0  0  0  0  0
   -1.8803    3.8494   -0.7534 H   0  0  0  0  0  0  0  0  0  0  0  0
   -0.1887    5.6050   -1.1531 H   0  0  0  0  0  0  0  0  0  0  0  0
    2.2286    5.0229   -1.1366 H   0  0  0  0  0  0  0  0  0  0  0  0
    2.9187    2.6917   -0.7252 H   0  0  0  0  0  0  0  0  0  0  0  0
  1  2  1  0
  2  3  1  0
  3  4  1  0
  4  5  1  0
  5  6  1  0
  6  7  2  0
  7  8  1  0
  8  9  1  0
  9 10  1  0
 10 11  2  0
 11 12  1  0
 12 13  2  0
 13 14  1  0
 14 15  2  0
  8 16  2  0
 16 17  1  0
 17 18  2  0
 18 19  1  0
 19 20  2  0
 20 21  1  0
 21 22  2  0
 22  6  1  0
 15 10  1  0
 22 17  1  0
  1 23  1  0
  2 24  1  0
  2 25  1  0
  3 26  1  0
  3 27  1  0
  4 28  1  0
  4 29  1  0
  5 30  1  0
  9 31  1  0
 11 32  1  0
 12 33  1  0
 14 34  1  0
 15 35  1  0
 18 36  1  0
 19 37  1  0
 20 38  1  0
 21 39  1  0
M  END
>  <ScrubInfo>  (1) 
{"isomerGroup": 0, "isomerId": 0, "confId": 0, "nr_conformers:": 1, "nr_isomers:": 9}

$$$$
_i1
     RDKit          3D

 39 41  0  0  0  0  0  0  0  0999 V2000
   -0.4260   -0.0458    0.3969 N   0  0  0  0  0  0  0  0  0  0  0  0
    0.8978   -0.4066    0.4163 C   0  0  0  0  0  0  0  0  0  0  0  0
    1.6005    0.2701    1.3855 N   0  0  0  0  0  0  0  0  0  0  0  0
    2.9958    0.2562    1.6047 C   0  0  0  0  0  0  0  0  0  0  0  0
    3.4913    0.6991    2.8371 C   0  0  0  0  0  0  0  0  0  0  0  0
    4.8625    0.7304    3.0457 C   0  0  0  0  0  0  0  0  0  0  0  0
    5.7694    0.3706    2.1178 N   0  0  0  0  0  0  0  0  0  0  0  0
    5.2796   -0.0324    0.9277 C   0  0  0  0  0  0  0  0  0  0  0  0
    3.9268   -0.0954    0.6277 C   0  0  0  0  0  0  0  0  0  0  0  0
    1.3829   -1.2965   -0.3988 N   0  0  0  0  0  0  0  0  0  0  0  0
    0.4923   -1.9046   -1.3119 C   0  0  0  0  0  0  0  0  0  0  0  0
    0.9990   -2.8791   -2.1758 C   0  0  0  0  0  0  0  0  0  0  0  0
    0.1669   -3.5179   -3.1002 C   0  0  0  0  0  0  0  0  0  0  0  0
   -1.1868   -3.1878   -3.1710 C   0  0  0  0  0  0  0  0  0  0  0  0
   -1.7127   -2.2182   -2.3179 C   0  0  0  0  0  0  0  0  0  0  0  0
   -0.8745   -1.5836   -1.3943 C   0  0  0  0  0  0  0  0  0  0  0  0
   -1.3809   -0.5348   -0.4619 C   0  0  0  0  0  0  0  0  0  0  0  0
   -2.6170   -0.1812   -0.5504 N   0  0  0  0  0  0  0  0  0  0  0  0
   -3.1817    0.8271    0.3418 C   0  0  0  0  0  0  0  0  0  0  0  0
   -3.1326    2.1897   -0.3465 C   0  0  0  0  0  0  0  0  0  0  0  0
   -3.6450    3.3077    0.5506 C   0  0  0  0  0  0  0  0  0  0  0  0
   -4.9851    3.0703    0.9532 O   0  0  0  0  0  0  0  0  0  0  0  0
   -0.6728    0.7775    0.9173 H   0  0  0  0  0  0  0  0  0  0  0  0
    1.0778    0.4563    2.2304 H   0  0  0  0  0  0  0  0  0  0  0  0
    2.8304    1.0140    3.6366 H   0  0  0  0  0  0  0  0  0  0  0  0
    5.2771    1.0595    3.9942 H   0  0  0  0  0  0  0  0  0  0  0  0
    6.0256   -0.3088    0.1879 H   0  0  0  0  0  0  0  0  0  0  0  0
    3.6279   -0.4101   -0.3653 H   0  0  0  0  0  0  0  0  0  0  0  0
    2.0525   -3.1418   -2.1235 H   0  0  0  0  0  0  0  0  0  0  0  0
    0.5779   -4.2745   -3.7640 H   0  0  0  0  0  0  0  0  0  0  0  0
   -1.8322   -3.6858   -3.8903 H   0  0  0  0  0  0  0  0  0  0  0  0
   -2.7671   -1.9604   -2.3725 H   0  0  0  0  0  0  0  0  0  0  0  0
   -4.2226    0.5491    0.5434 H   0  0  0  0  0  0  0  0  0  0  0  0
   -2.6858    0.8544    1.3181 H   0  0  0  0  0  0  0  0  0  0  0  0
   -2.1063    2.4198   -0.6559 H   0  0  0  0  0  0  0  0  0  0  0  0
   -3.7406    2.1443   -1.2586 H   0  0  0  0  0  0  0  0  0  0  0  0
   -3.6064    4.2681    0.0268 H   0  0  0  0  0  0  0  0  0  0  0  0
   -3.0301    3.3917    1.4523 H   0  0  0  0  0  0  0  0  0  0  0  0
   -5.5277    3.0091    0.1471 H   0  0  0  0  0  0  0  0  0  0  0  0
  1  2  1  0
  2  3  1  0
  3  4  1  0
  4  5  2  0
  5  6  1  0
  6  7  2  0
  7  8  1  0
  8  9  2  0
  2 10  2  0
 10 11  1  0
 11 12  2  0
 12 13  1  0
 13 14  2  0
 14 15  1  0
 15 16  2  0
 16 17  1  0
 17 18  2  3
 18 19  1  0
 19 20  1  0
 20 21  1  0
 21 22  1  0
 17  1  1  0
  9  4  1  0
 16 11  1  0
  1 23  1  0
  3 24  1  0
  5 25  1  0
  6 26  1  0
  8 27  1  0
  9 28  1  0
 12 29  1  0
 13 30  1  0
 14 31  1  0
 15 32  1  0
 19 33  1  0
 19 34  1  0
 20 35  1  0
 20 36  1  0
 21 37  1  0
 21 38  1  0
 22 39  1  0
M  END
>  <ScrubInfo>  (2) 
{"isomerGroup": 0, "isomerId": 1, "confId": 0, "nr_conformers:": 1, "nr_isomers:": 9}

$$$$
_i2
     RDKit          3D

 39 41  0  0  0  0  0  0  0  0999 V2000
    0.0382    0.7520   -0.5386 N   0  0  0  0  0  0  0  0  0  0  0  0
   -0.9442   -0.1334   -0.1658 C   0  0  0  0  0  0  0  0  0  0  0  0
   -2.2830    0.2053   -0.3613 N   0  0  0  0  0  0  0  0  0  0  0  0
   -2.8223    1.5539   -0.2014 C   0  0  0  0  0  0  0  0  0  0  0  0
   -4.0979    1.7291   -1.0279 C   0  0  0  0  0  0  0  0  0  0  0  0
   -5.2556    0.8475   -0.5787 C   0  0  0  0  0  0  0  0  0  0  0  0
   -5.5766    1.0894    0.7835 O   0  0  0  0  0  0  0  0  0  0  0  0
   -0.5469   -1.3227    0.3573 C   0  0  0  0  0  0  0  0  0  0  0  0
   -1.3973   -2.4174    0.7957 C   0  0  0  0  0  0  0  0  0  0  0  0
   -0.8755   -3.5295    1.3325 C   0  0  0  0  0  0  0  0  0  0  0  0
    0.5473   -3.6890    1.4999 C   0  0  0  0  0  0  0  0  0  0  0  0
    1.4200   -2.7501    1.1132 C   0  0  0  0  0  0  0  0  0  0  0  0
    0.9543   -1.4794    0.4879 C   0  0  0  0  0  0  0  0  0  0  0  0
    1.8529   -0.6232    0.1107 N   0  0  0  0  0  0  0  0  0  0  0  0
    1.3788    0.5224   -0.4698 C   0  0  0  0  0  0  0  0  0  0  0  0
    2.1940    1.4058   -0.9726 N   0  0  0  0  0  0  0  0  0  0  0  0
    3.5760    1.1718   -0.9076 C   0  0  0  0  0  0  0  0  0  0  0  0
    4.3182    1.6256    0.1785 C   0  0  0  0  0  0  0  0  0  0  0  0
    5.6837    1.4012    0.1806 C   0  0  0  0  0  0  0  0  0  0  0  0
    6.3461    0.7764   -0.8173 N   0  0  0  0  0  0  0  0  0  0  0  0
    5.6016    0.3588   -1.8643 C   0  0  0  0  0  0  0  0  0  0  0  0
    4.2323    0.5366   -1.9574 C   0  0  0  0  0  0  0  0  0  0  0  0
   -0.2386    1.5421   -1.0961 H   0  0  0  0  0  0  0  0  0  0  0  0
   -2.9101   -0.4752    0.0593 H   0  0  0  0  0  0  0  0  0  0  0  0
   -3.0137    1.7458    0.8604 H   0  0  0  0  0  0  0  0  0  0  0  0
   -2.1028    2.3077   -0.5383 H   0  0  0  0  0  0  0  0  0  0  0  0
   -4.4059    2.7787   -0.9460 H   0  0  0  0  0  0  0  0  0  0  0  0
   -3.8860    1.5316   -2.0854 H   0  0  0  0  0  0  0  0  0  0  0  0
   -6.1458    1.0451   -1.1851 H   0  0  0  0  0  0  0  0  0  0  0  0
   -5.0136   -0.2137   -0.6885 H   0  0  0  0  0  0  0  0  0  0  0  0
   -6.0030    1.9629    0.8340 H   0  0  0  0  0  0  0  0  0  0  0  0
   -2.4722   -2.3452    0.6851 H   0  0  0  0  0  0  0  0  0  0  0  0
   -1.5180   -4.3440    1.6553 H   0  0  0  0  0  0  0  0  0  0  0  0
    0.9018   -4.6107    1.9522 H   0  0  0  0  0  0  0  0  0  0  0  0
    2.4903   -2.8714    1.2325 H   0  0  0  0  0  0  0  0  0  0  0  0
    3.8361    2.1358    1.0028 H   0  0  0  0  0  0  0  0  0  0  0  0
    6.3010    1.7310    1.0107 H   0  0  0  0  0  0  0  0  0  0  0  0
    6.1538   -0.1380   -2.6562 H   0  0  0  0  0  0  0  0  0  0  0  0
    3.6825    0.1864   -2.8218 H   0  0  0  0  0  0  0  0  0  0  0  0
  1  2  1  0
  2  3  1  0
  3  4  1  0
  4  5  1  0
  5  6  1  0
  6  7  1  0
  2  8  2  0
  8  9  1  0
  9 10  2  0
 10 11  1  0
 11 12  2  0
 12 13  1  0
 13 14  2  0
 14 15  1  0
 15 16  2  3
 16 17  1  0
 17 18  2  0
 18 19  1  0
 19 20  2  0
 20 21  1  0
 21 22  2  0
 15  1  1  0
 22 17  1  0
 13  8  1  0
  1 23  1  0
  3 24  1  0
  4 25  1  0
  4 26  1  0
  5 27  1  0
  5 28  1  0
  6 29  1  0
  6 30  1  0
  7 31  1  0
  9 32  1  0
 10 33  1  0
 11 34  1  0
 12 35  1  0
 18 36  1  0
 19 37  1  0
 21 38  1  0
 22 39  1  0
M  END
>  <ScrubInfo>  (3) 
{"isomerGroup": 0, "isomerId": 2, "confId": 0, "nr_conformers:": 1, "nr_isomers:": 9}

$$$$
_i3
     RDKit          3D

 39 41  0  0  0  0  0  0  0  0999 V2000
    1.5057    0.7926    0.1592 N   0  0  0  0  0  0  0  0  0  0  0  0
    0.9054   -0.4387    0.2003 C   0  0  0  0  0  0  0  0  0  0  0  0
    1.5038   -1.5775    0.0155 N   0  0  0  0  0  0  0  0  0  0  0  0
    2.8762   -1.6049   -0.2538 C   0  0  0  0  0  0  0  0  0  0  0  0
    3.7906   -1.7574    0.7837 C   0  0  0  0  0  0  0  0  0  0  0  0
    5.1379   -1.7713    0.4719 C   0  0  0  0  0  0  0  0  0  0  0  0
    5.6177   -1.6468   -0.7845 N   0  0  0  0  0  0  0  0  0  0  0  0
    4.7065   -1.5358   -1.7754 C   0  0  0  0  0  0  0  0  0  0  0  0
    3.3403   -1.5121   -1.5623 C   0  0  0  0  0  0  0  0  0  0  0  0
   -0.4375   -0.5683    0.4450 N   0  0  0  0  0  0  0  0  0  0  0  0
   -1.1580    0.4775    0.7399 C   0  0  0  0  0  0  0  0  0  0  0  0
   -2.5208    0.3290    0.9460 N   0  0  0  0  0  0  0  0  0  0  0  0
   -3.2078   -0.9248    0.6647 C   0  0  0  0  0  0  0  0  0  0  0  0
   -3.5544   -1.0277   -0.8157 C   0  0  0  0  0  0  0  0  0  0  0  0
   -4.1834   -2.3732   -1.1399 C   0  0  0  0  0  0  0  0  0  0  0  0
   -4.5961   -2.3749   -2.5005 O   0  0  0  0  0  0  0  0  0  0  0  0
   -0.5475    1.8419    0.8576 C   0  0  0  0  0  0  0  0  0  0  0  0
   -1.2613    2.9733    1.2681 C   0  0  0  0  0  0  0  0  0  0  0  0
   -0.6187    4.2112    1.3321 C   0  0  0  0  0  0  0  0  0  0  0  0
    0.7289    4.3180    0.9906 C   0  0  0  0  0  0  0  0  0  0  0  0
    1.4439    3.1846    0.5989 C   0  0  0  0  0  0  0  0  0  0  0  0
    0.8147    1.9371    0.5499 C   0  0  0  0  0  0  0  0  0  0  0  0
    2.5080    0.8335    0.0771 H   0  0  0  0  0  0  0  0  0  0  0  0
    3.4527   -1.8674    1.8075 H   0  0  0  0  0  0  0  0  0  0  0  0
    5.8901   -1.8878    1.2467 H   0  0  0  0  0  0  0  0  0  0  0  0
    5.1173   -1.4655   -2.7784 H   0  0  0  0  0  0  0  0  0  0  0  0
    2.6469   -1.4274   -2.3910 H   0  0  0  0  0  0  0  0  0  0  0  0
   -3.0966    1.1433    0.7740 H   0  0  0  0  0  0  0  0  0  0  0  0
   -2.6089   -1.7821    0.9933 H   0  0  0  0  0  0  0  0  0  0  0  0
   -4.1300   -0.9467    1.2569 H   0  0  0  0  0  0  0  0  0  0  0  0
   -2.6625   -0.8876   -1.4392 H   0  0  0  0  0  0  0  0  0  0  0  0
   -4.2384   -0.2180   -1.1008 H   0  0  0  0  0  0  0  0  0  0  0  0
   -5.0629   -2.5583   -0.5151 H   0  0  0  0  0  0  0  0  0  0  0  0
   -3.4633   -3.1843   -0.9902 H   0  0  0  0  0  0  0  0  0  0  0  0
   -4.8839   -3.2800   -2.7103 H   0  0  0  0  0  0  0  0  0  0  0  0
   -2.3052    2.9136    1.5545 H   0  0  0  0  0  0  0  0  0  0  0  0
   -1.1694    5.0939    1.6493 H   0  0  0  0  0  0  0  0  0  0  0  0
    1.2255    5.2846    1.0350 H   0  0  0  0  0  0  0  0  0  0  0  0
    2.4947    3.2840    0.3394 H   0  0  0  0  0  0  0  0  0  0  0  0
  1  2  1  0
  2  3  2  3
  3  4  1  0
  4  5  2  0
  5  6  1  0
  6  7  2  0
  7  8  1  0
  8  9  2  0
  2 10  1  0
 10 11  2  0
 11 12  1  0
 12 13  1  0
 13 14  1  0
 14 15  1  0
 15 16  1  0
 11 17  1  0
 17 18  2  0
 18 19  1  0
 19 20  2  0
 20 21  1  0
 21 22  2  0
 22  1  1  0
  9  4  1  0
 22 17  1  0
  1 23  1  0
  5 24  1  0
  6 25  1  0
  8 26  1  0
  9 27  1  0
 12 28  1  0
 13 29  1  0
 13 30  1  0
 14 31  1  0
 14 32  1  0
 15 33  1  0
 15 34  1  0
 16 35  1  0
 18 36  1  0
 19 37  1  0
 20 38  1  0
 21 39  1  0
M  END
>  <ScrubInfo>  (4) 
{"isomerGroup": 0, "isomerId": 3, "confId": 0, "nr_conformers:": 1, "nr_isomers:": 9}

$$$$
_i4
     RDKit          3D

 39 41  0  0  0  0  0  0  0  0999 V2000
    3.5234   -2.6698   -2.9110 N   0  0  0  0  0  0  0  0  0  0  0  0
    4.4431   -2.2731   -1.9800 C   0  0  0  0  0  0  0  0  0  0  0  0
    4.1969   -1.3128   -1.0804 C   0  0  0  0  0  0  0  0  0  0  0  0
    2.8568   -0.6385   -1.0905 C   0  0  0  0  0  0  0  0  0  0  0  0
    2.6612    0.2885   -0.2046 N   0  0  0  0  0  0  0  0  0  0  0  0
    1.4335    0.9329   -0.1812 C   0  0  0  0  0  0  0  0  0  0  0  0
    0.4373    0.3165    0.4600 N   0  0  0  0  0  0  0  0  0  0  0  0
   -0.7417    0.9540    0.4997 C   0  0  0  0  0  0  0  0  0  0  0  0
   -1.8311    0.3423    1.1696 N   0  0  0  0  0  0  0  0  0  0  0  0
   -1.5032   -0.9226    1.8351 C   0  0  0  0  0  0  0  0  0  0  0  0
   -2.7867   -1.5211    2.4141 C   0  0  0  0  0  0  0  0  0  0  0  0
   -2.5323   -2.8656    3.0787 C   0  0  0  0  0  0  0  0  0  0  0  0
   -1.7029   -2.6893    4.2177 O   0  0  0  0  0  0  0  0  0  0  0  0
   -0.9390    2.1959   -0.1356 C   0  0  0  0  0  0  0  0  0  0  0  0
   -2.1666    2.9063   -0.1788 C   0  0  0  0  0  0  0  0  0  0  0  0
   -2.2607    4.1357   -0.8274 C   0  0  0  0  0  0  0  0  0  0  0  0
   -1.1362    4.6678   -1.4423 C   0  0  0  0  0  0  0  0  0  0  0  0
    0.0700    3.9630   -1.4099 C   0  0  0  0  0  0  0  0  0  0  0  0
    0.1878    2.7340   -0.7715 C   0  0  0  0  0  0  0  0  0  0  0  0
    1.3680    2.1155   -0.7966 N   0  0  0  0  0  0  0  0  0  0  0  0
    1.8898   -1.1196   -2.1405 C   0  0  0  0  0  0  0  0  0  0  0  0
    2.2849   -2.0930   -2.9718 C   0  0  0  0  0  0  0  0  0  0  0  0
    3.7679   -3.3981   -3.5740 H   0  0  0  0  0  0  0  0  0  0  0  0
    5.3949   -2.7928   -2.0192 H   0  0  0  0  0  0  0  0  0  0  0  0
    4.9184   -0.9926   -0.3411 H   0  0  0  0  0  0  0  0  0  0  0  0
   -2.1962    1.0146    1.8408 H   0  0  0  0  0  0  0  0  0  0  0  0
   -0.7727   -0.7502    2.6348 H   0  0  0  0  0  0  0  0  0  0  0  0
   -1.0776   -1.6339    1.1161 H   0  0  0  0  0  0  0  0  0  0  0  0
   -3.2100   -0.8223    3.1466 H   0  0  0  0  0  0  0  0  0  0  0  0
   -3.5284   -1.6459    1.6160 H   0  0  0  0  0  0  0  0  0  0  0  0
   -3.4788   -3.3046    3.4095 H   0  0  0  0  0  0  0  0  0  0  0  0
   -2.0450   -3.5619    2.3887 H   0  0  0  0  0  0  0  0  0  0  0  0
   -1.5548   -3.5696    4.6051 H   0  0  0  0  0  0  0  0  0  0  0  0
   -3.0576    2.4896    0.2853 H   0  0  0  0  0  0  0  0  0  0  0  0
   -3.2066    4.6703   -0.8546 H   0  0  0  0  0  0  0  0  0  0  0  0
   -1.1908    5.6259   -1.9528 H   0  0  0  0  0  0  0  0  0  0  0  0
    0.9456    4.3846   -1.9000 H   0  0  0  0  0  0  0  0  0  0  0  0
    0.9053   -0.6785   -2.2051 H   0  0  0  0  0  0  0  0  0  0  0  0
    1.6343   -2.4816   -3.7488 H   0  0  0  0  0  0  0  0  0  0  0  0
  1  2  1  0
  2  3  2  0
  3  4  1  0
  4  5  2  3
  5  6  1  0
  6  7  2  0
  7  8  1  0
  8  9  1  0
  9 10  1  0
 10 11  1  0
 11 12  1  0
 12 13  1  0
  8 14  2  0
 14 15  1  0
 15 16  2  0
 16 17  1  0
 17 18  2  0
 18 19  1  0
 19 20  2  0
  4 21  1  0
 21 22  2  0
 22  1  1  0
 20  6  1  0
 19 14  1  0
  1 23  1  0
  2 24  1  0
  3 25  1  0
  9 26  1  0
 10 27  1  0
 10 28  1  0
 11 29  1  0
 11 30  1  0
 12 31  1  0
 12 32  1  0
 13 33  1  0
 15 34  1  0
 16 35  1  0
 17 36  1  0
 18 37  1  0
 21 38  1  0
 22 39  1  0
M  END
>  <ScrubInfo>  (5) 
{"isomerGroup": 0, "isomerId": 4, "confId": 0, "nr_conformers:": 1, "nr_isomers:": 9}

$$$$
_i5
     RDKit          3D

 39 41  0  0  0  0  0  0  0  0999 V2000
    1.5099    1.2021   -0.5899 N   0  0  0  0  0  0  0  0  0  0  0  0
    0.9701   -0.0413   -0.7639 C   0  0  0  0  0  0  0  0  0  0  0  0
    1.8484   -1.0119   -1.1660 N   0  0  0  0  0  0  0  0  0  0  0  0
    3.1213   -1.2787   -0.6103 C   0  0  0  0  0  0  0  0  0  0  0  0
    3.9926   -2.1126   -1.3158 C   0  0  0  0  0  0  0  0  0  0  0  0
    5.2476   -2.3713   -0.7886 C   0  0  0  0  0  0  0  0  0  0  0  0
    5.6855   -1.8668    0.3823 N   0  0  0  0  0  0  0  0  0  0  0  0
    4.8270   -1.0759    1.0580 C   0  0  0  0  0  0  0  0  0  0  0  0
    3.5554   -0.7554    0.6083 C   0  0  0  0  0  0  0  0  0  0  0  0
   -0.2859   -0.3457   -0.6360 N   0  0  0  0  0  0  0  0  0  0  0  0
   -1.1699    0.6445   -0.2620 C   0  0  0  0  0  0  0  0  0  0  0  0
   -2.4092    0.3696   -0.0254 N   0  0  0  0  0  0  0  0  0  0  0  0
   -2.8167   -1.0326   -0.1539 C   0  0  0  0  0  0  0  0  0  0  0  0
   -4.3027   -1.1253    0.1917 C   0  0  0  0  0  0  0  0  0  0  0  0
   -4.8640   -2.5184   -0.0528 C   0  0  0  0  0  0  0  0  0  0  0  0
   -4.2311   -3.4657    0.7959 O   0  0  0  0  0  0  0  0  0  0  0  0
   -0.6979    2.0511   -0.1428 C   0  0  0  0  0  0  0  0  0  0  0  0
   -1.5695    3.1014    0.1621 C   0  0  0  0  0  0  0  0  0  0  0  0
   -1.0717    4.3999    0.2661 C   0  0  0  0  0  0  0  0  0  0  0  0
    0.2894    4.6420    0.0737 C   0  0  0  0  0  0  0  0  0  0  0  0
    1.1572    3.5882   -0.2279 C   0  0  0  0  0  0  0  0  0  0  0  0
    0.6636    2.2877   -0.3575 C   0  0  0  0  0  0  0  0  0  0  0  0
    2.4089    1.3831   -1.0130 H   0  0  0  0  0  0  0  0  0  0  0  0
    1.3519   -1.8816   -1.3473 H   0  0  0  0  0  0  0  0  0  0  0  0
    3.7085   -2.5457   -2.2689 H   0  0  0  0  0  0  0  0  0  0  0  0
    5.9542   -3.0093   -1.3119 H   0  0  0  0  0  0  0  0  0  0  0  0
    5.1960   -0.6956    2.0065 H   0  0  0  0  0  0  0  0  0  0  0  0
    2.9187   -0.1311    1.2256 H   0  0  0  0  0  0  0  0  0  0  0  0
   -2.2403   -1.6679    0.5292 H   0  0  0  0  0  0  0  0  0  0  0  0
   -2.6612   -1.3802   -1.1825 H   0  0  0  0  0  0  0  0  0  0  0  0
   -4.4380   -0.8518    1.2455 H   0  0  0  0  0  0  0  0  0  0  0  0
   -4.8681   -0.4004   -0.4063 H   0  0  0  0  0  0  0  0  0  0  0  0
   -5.9374   -2.5296    0.1624 H   0  0  0  0  0  0  0  0  0  0  0  0
   -4.7143   -2.8240   -1.0933 H   0  0  0  0  0  0  0  0  0  0  0  0
   -4.6501   -4.3261    0.6249 H   0  0  0  0  0  0  0  0  0  0  0  0
   -2.6276    2.9077    0.3208 H   0  0  0  0  0  0  0  0  0  0  0  0
   -1.7441    5.2206    0.5044 H   0  0  0  0  0  0  0  0  0  0  0  0
    0.6768    5.6540    0.1670 H   0  0  0  0  0  0  0  0  0  0  0  0
    2.2165    3.7934   -0.3559 H   0  0  0  0  0  0  0  0  0  0  0  0
  1  2  1  0
  2  3  1  0
  3  4  1  0
  4  5  2  0
  5  6  1  0
  6  7  2  0
  7  8  1  0
  8  9  2  0
  2 10  2  0
 10 11  1  0
 11 12  2  3
 12 13  1  0
 13 14  1  0
 14 15  1  0
 15 16  1  0
 11 17  1  0
 17 18  2  0
 18 19  1  0
 19 20  2  0
 20 21  1  0
 21 22  2  0
 22  1  1  0
  9  4  1  0
 22 17  1  0
  1 23  1  0
  3 24  1  0
  5 25  1  0
  6 26  1  0
  8 27  1  0
  9 28  1  0
 13 29  1  0
 13 30  1  0
 14 31  1  0
 14 32  1  0
 15 33  1  0
 15 34  1  0
 16 35  1  0
 18 36  1  0
 19 37  1  0
 20 38  1  0
 21 39  1  0
M  END
>  <ScrubInfo>  (6) 
{"isomerGroup": 0, "isomerId": 5, "confId": 0, "nr_conformers:": 1, "nr_isomers:": 9}

$$$$
_i6
     RDKit          3D

 39 41  0  0  0  0  0  0  0  0999 V2000
    1.7297    0.5351    0.2179 N   0  0  0  0  0  0  0  0  0  0  0  0
    1.5742   -0.6792   -0.3975 C   0  0  0  0  0  0  0  0  0  0  0  0
    2.5130   -1.4782   -0.8163 N   0  0  0  0  0  0  0  0  0  0  0  0
    3.8514   -1.1033   -0.6427 C   0  0  0  0  0  0  0  0  0  0  0  0
    4.5411   -1.4728    0.5079 C   0  0  0  0  0  0  0  0  0  0  0  0
    5.8588   -1.0734    0.6376 C   0  0  0  0  0  0  0  0  0  0  0  0
    6.5160   -0.3461   -0.2913 N   0  0  0  0  0  0  0  0  0  0  0  0
    5.8323   -0.0291   -1.4120 C   0  0  0  0  0  0  0  0  0  0  0  0
    4.5134   -0.3827   -1.6318 C   0  0  0  0  0  0  0  0  0  0  0  0
    0.2711   -1.0365   -0.5634 N   0  0  0  0  0  0  0  0  0  0  0  0
   -0.8866   -0.3850   -0.2227 C   0  0  0  0  0  0  0  0  0  0  0  0
   -1.9715   -1.0085   -0.5468 N   0  0  0  0  0  0  0  0  0  0  0  0
   -3.3271   -0.5570   -0.3214 C   0  0  0  0  0  0  0  0  0  0  0  0
   -4.2751   -1.6136   -0.8937 C   0  0  0  0  0  0  0  0  0  0  0  0
   -5.7335   -1.1956   -0.7697 C   0  0  0  0  0  0  0  0  0  0  0  0
   -6.1025   -1.0341    0.5935 O   0  0  0  0  0  0  0  0  0  0  0  0
   -0.6893    0.9411    0.4653 C   0  0  0  0  0  0  0  0  0  0  0  0
   -1.7087    1.7808    0.9252 C   0  0  0  0  0  0  0  0  0  0  0  0
   -1.4069    2.9953    1.5514 C   0  0  0  0  0  0  0  0  0  0  0  0
   -0.0846    3.3862    1.7276 C   0  0  0  0  0  0  0  0  0  0  0  0
    0.9441    2.5618    1.2795 C   0  0  0  0  0  0  0  0  0  0  0  0
    0.6584    1.3397    0.6502 C   0  0  0  0  0  0  0  0  0  0  0  0
    2.6664    0.8738    0.3809 H   0  0  0  0  0  0  0  0  0  0  0  0
    4.0583   -2.0600    1.2800 H   0  0  0  0  0  0  0  0  0  0  0  0
    6.4392   -1.3359    1.5174 H   0  0  0  0  0  0  0  0  0  0  0  0
    6.3918    0.5343   -2.1533 H   0  0  0  0  0  0  0  0  0  0  0  0
    4.0088   -0.1084   -2.5506 H   0  0  0  0  0  0  0  0  0  0  0  0
    0.1294   -1.9257   -1.0221 H   0  0  0  0  0  0  0  0  0  0  0  0
   -3.5232   -0.4524    0.7504 H   0  0  0  0  0  0  0  0  0  0  0  0
   -3.5094    0.3908   -0.8388 H   0  0  0  0  0  0  0  0  0  0  0  0
   -4.1155   -2.5592   -0.3606 H   0  0  0  0  0  0  0  0  0  0  0  0
   -4.0383   -1.7938   -1.9492 H   0  0  0  0  0  0  0  0  0  0  0  0
   -6.3884   -1.9511   -1.2154 H   0  0  0  0  0  0  0  0  0  0  0  0
   -5.9131   -0.2472   -1.2856 H   0  0  0  0  0  0  0  0  0  0  0  0
   -5.9725   -1.8936    1.0314 H   0  0  0  0  0  0  0  0  0  0  0  0
   -2.7559    1.5371    0.8246 H   0  0  0  0  0  0  0  0  0  0  0  0
   -2.2132    3.6358    1.9029 H   0  0  0  0  0  0  0  0  0  0  0  0
    0.1448    4.3307    2.2148 H   0  0  0  0  0  0  0  0  0  0  0  0
    1.9733    2.8800    1.4266 H   0  0  0  0  0  0  0  0  0  0  0  0
  1  2  1  0
  2  3  2  3
  3  4  1  0
  4  5  2  0
  5  6  1  0
  6  7  2  0
  7  8  1  0
  8  9  2  0
  2 10  1  0
 10 11  1  0
 11 12  2  3
 12 13  1  0
 13 14  1  0
 14 15  1  0
 15 16  1  0
 11 17  1  0
 17 18  2  0
 18 19  1  0
 19 20  2  0
 20 21  1  0
 21 22  2  0
 22  1  1  0
  9  4  1  0
 22 17  1  0
  1 23  1  0
  5 24  1  0
  6 25  1  0
  8 26  1  0
  9 27  1  0
 10 28  1  0
 13 29  1  0
 13 30  1  0
 14 31  1  0
 14 32  1  0
 15 33  1  0
 15 34  1  0
 16 35  1  0
 18 36  1  0
 19 37  1  0
 20 38  1  0
 21 39  1  0
M  END
>  <ScrubInfo>  (7) 
{"isomerGroup": 0, "isomerId": 6, "confId": 0, "nr_conformers:": 1, "nr_isomers:": 9}

$$$$
_i7
     RDKit          3D

 39 41  0  0  0  0  0  0  0  0999 V2000
    5.7224   -1.5168    0.9442 N   0  0  0  0  0  0  0  0  0  0  0  0
    5.4874   -2.2524   -0.1844 C   0  0  0  0  0  0  0  0  0  0  0  0
    4.3661   -2.1351   -0.9062 C   0  0  0  0  0  0  0  0  0  0  0  0
    3.3228   -1.1531   -0.4636 C   0  0  0  0  0  0  0  0  0  0  0  0
    2.2336   -1.0979   -1.1690 N   0  0  0  0  0  0  0  0  0  0  0  0
    1.2615   -0.2094   -0.8231 C   0  0  0  0  0  0  0  0  0  0  0  0
    1.4999    1.0566   -0.9778 N   0  0  0  0  0  0  0  0  0  0  0  0
    0.4636    1.9516   -0.6195 C   0  0  0  0  0  0  0  0  0  0  0  0
    0.7556    3.3163   -0.7370 C   0  0  0  0  0  0  0  0  0  0  0  0
   -0.1819    4.2822   -0.3802 C   0  0  0  0  0  0  0  0  0  0  0  0
   -1.4230    3.8888    0.1076 C   0  0  0  0  0  0  0  0  0  0  0  0
   -1.7366    2.5304    0.2303 C   0  0  0  0  0  0  0  0  0  0  0  0
   -0.8120    1.5494   -0.1432 C   0  0  0  0  0  0  0  0  0  0  0  0
   -1.0346    0.0642   -0.0608 C   0  0  0  0  0  0  0  0  0  0  0  0
   -2.0918   -0.6159    0.2369 N   0  0  0  0  0  0  0  0  0  0  0  0
   -3.3998   -0.0804    0.5417 C   0  0  0  0  0  0  0  0  0  0  0  0
   -4.3857   -1.2395    0.6740 C   0  0  0  0  0  0  0  0  0  0  0  0
   -4.6179   -1.9596   -0.6480 C   0  0  0  0  0  0  0  0  0  0  0  0
   -5.5910   -2.9841   -0.4688 O   0  0  0  0  0  0  0  0  0  0  0  0
    0.0725   -0.6751   -0.3687 N   0  0  0  0  0  0  0  0  0  0  0  0
    3.6541   -0.3524    0.7659 C   0  0  0  0  0  0  0  0  0  0  0  0
    4.8221   -0.5840    1.3798 C   0  0  0  0  0  0  0  0  0  0  0  0
    6.6152   -1.6063    1.4190 H   0  0  0  0  0  0  0  0  0  0  0  0
    6.2785   -2.9427   -0.4593 H   0  0  0  0  0  0  0  0  0  0  0  0
    4.1736   -2.7130   -1.7997 H   0  0  0  0  0  0  0  0  0  0  0  0
    1.7311    3.6206   -1.1099 H   0  0  0  0  0  0  0  0  0  0  0  0
    0.0607    5.3373   -0.4772 H   0  0  0  0  0  0  0  0  0  0  0  0
   -2.1533    4.6413    0.3976 H   0  0  0  0  0  0  0  0  0  0  0  0
   -2.7091    2.2905    0.6332 H   0  0  0  0  0  0  0  0  0  0  0  0
   -3.3772    0.4460    1.5016 H   0  0  0  0  0  0  0  0  0  0  0  0
   -3.7515    0.5931   -0.2467 H   0  0  0  0  0  0  0  0  0  0  0  0
   -5.3452   -0.8606    1.0472 H   0  0  0  0  0  0  0  0  0  0  0  0
   -4.0332   -1.9578    1.4250 H   0  0  0  0  0  0  0  0  0  0  0  0
   -3.7011   -2.4198   -1.0296 H   0  0  0  0  0  0  0  0  0  0  0  0
   -4.9967   -1.2681   -1.4069 H   0  0  0  0  0  0  0  0  0  0  0  0
   -5.2140   -3.6263    0.1569 H   0  0  0  0  0  0  0  0  0  0  0  0
   -0.0462   -1.6758   -0.3736 H   0  0  0  0  0  0  0  0  0  0  0  0
    2.9590    0.3923    1.1260 H   0  0  0  0  0  0  0  0  0  0  0  0
    5.1223   -0.0344    2.2664 H   0  0  0  0  0  0  0  0  0  0  0  0
  1  2  1  0
  2  3  2  0
  3  4  1  0
  4  5  2  3
  5  6  1  0
  6  7  2  0
  7  8  1  0
  8  9  2  0
  9 10  1  0
 10 11  2  0
 11 12  1  0
 12 13  2  0
 13 14  1  0
 14 15  2  3
 15 16  1  0
 16 17  1  0
 17 18  1  0
 18 19  1  0
 14 20  1  0
  4 21  1  0
 21 22  2  0
 22  1  1  0
 20  6  1  0
 13  8  1  0
  1 23  1  0
  2 24  1  0
  3 25  1  0
  9 26  1  0
 10 27  1  0
 11 28  1  0
 12 29  1  0
 16 30  1  0
 16 31  1  0
 17 32  1  0
 17 33  1  0
 18 34  1  0
 18 35  1  0
 19 36  1  0
 20 37  1  0
 21 38  1  0
 22 39  1  0
M  END
>  <ScrubInfo>  (8) 
{"isomerGroup": 0, "isomerId": 7, "confId": 0, "nr_conformers:": 1, "nr_isomers:": 9}

$$$$
_i8
     RDKit          3D

 39 41  0  0  0  0  0  0  0  0999 V2000
    1.4593   -2.0091   -0.8310 N   0  0  0  0  0  0  0  0  0  0  0  0
    1.2461   -0.6882   -1.0921 C   0  0  0  0  0  0  0  0  0  0  0  0
    2.3092    0.0357   -1.5451 N   0  0  0  0  0  0  0  0  0  0  0  0
    2.7714    1.0083   -0.8176 C   0  0  0  0  0  0  0  0  0  0  0  0
    2.2915    1.4427    0.5407 C   0  0  0  0  0  0  0  0  0  0  0  0
    2.9292    2.4521    1.1480 C   0  0  0  0  0  0  0  0  0  0  0  0
    4.0006    3.0988    0.5959 N   0  0  0  0  0  0  0  0  0  0  0  0
    4.4596    2.7684   -0.6490 C   0  0  0  0  0  0  0  0  0  0  0  0
    3.9262    1.7824   -1.3809 C   0  0  0  0  0  0  0  0  0  0  0  0
    0.1127   -0.0738   -0.9844 N   0  0  0  0  0  0  0  0  0  0  0  0
   -0.9803   -0.7859   -0.5460 C   0  0  0  0  0  0  0  0  0  0  0  0
   -2.0928   -0.1875   -0.2754 N   0  0  0  0  0  0  0  0  0  0  0  0
   -2.1171    1.2679   -0.4448 C   0  0  0  0  0  0  0  0  0  0  0  0
   -3.4543    1.7984    0.0729 C   0  0  0  0  0  0  0  0  0  0  0  0
   -3.5528    1.7548    1.5941 C   0  0  0  0  0  0  0  0  0  0  0  0
   -2.6744    2.7043    2.1914 O   0  0  0  0  0  0  0  0  0  0  0  0
   -0.8856   -2.2623   -0.3804 C   0  0  0  0  0  0  0  0  0  0  0  0
   -1.9949   -3.0456   -0.0485 C   0  0  0  0  0  0  0  0  0  0  0  0
   -1.8396   -4.4222    0.1108 C   0  0  0  0  0  0  0  0  0  0  0  0
   -0.5817   -5.0055   -0.0519 C   0  0  0  0  0  0  0  0  0  0  0  0
    0.5252   -4.2163   -0.3791 C   0  0  0  0  0  0  0  0  0  0  0  0
    0.3749   -2.8404   -0.5633 C   0  0  0  0  0  0  0  0  0  0  0  0
    2.3220   -2.4017   -1.1726 H   0  0  0  0  0  0  0  0  0  0  0  0
    1.4440    0.9509    0.9968 H   0  0  0  0  0  0  0  0  0  0  0  0
    2.6216    2.8178    2.1229 H   0  0  0  0  0  0  0  0  0  0  0  0
    4.3957    3.9014    1.0758 H   0  0  0  0  0  0  0  0  0  0  0  0
    5.2913    3.3660   -1.0082 H   0  0  0  0  0  0  0  0  0  0  0  0
    4.2834    1.5167   -2.3662 H   0  0  0  0  0  0  0  0  0  0  0  0
   -2.0363    1.5137   -1.5106 H   0  0  0  0  0  0  0  0  0  0  0  0
   -1.2929    1.7547    0.0902 H   0  0  0  0  0  0  0  0  0  0  0  0
   -3.5669    2.8355   -0.2647 H   0  0  0  0  0  0  0  0  0  0  0  0
   -4.2753    1.2148   -0.3599 H   0  0  0  0  0  0  0  0  0  0  0  0
   -3.3087    0.7638    1.9884 H   0  0  0  0  0  0  0  0  0  0  0  0
   -4.5714    2.0000    1.9118 H   0  0  0  0  0  0  0  0  0  0  0  0
   -2.9087    3.5779    1.8358 H   0  0  0  0  0  0  0  0  0  0  0  0
   -2.9706   -2.5861    0.0881 H   0  0  0  0  0  0  0  0  0  0  0  0
   -2.6975   -5.0384    0.3692 H   0  0  0  0  0  0  0  0  0  0  0  0
   -0.4616   -6.0780    0.0838 H   0  0  0  0  0  0  0  0  0  0  0  0
    1.4993   -4.6859   -0.4856 H   0  0  0  0  0  0  0  0  0  0  0  0
  1  2  1  0
  2  3  1  0
  3  4  2  3
  4  5  1  0
  5  6  2  0
  6  7  1  0
  7  8  1  0
  8  9  2  0
  2 10  2  0
 10 11  1  0
 11 12  2  3
 12 13  1  0
 13 14  1  0
 14 15  1  0
 15 16  1  0
 11 17  1  0
 17 18  2  0
 18 19  1  0
 19 20  2  0
 20 21  1  0
 21 22  2  0
 22  1  1  0
  9  4  1  0
 22 17  1  0
  1 23  1  0
  5 24  1  0
  6 25  1  0
  7 26  1  0
  8 27  1  0
  9 28  1  0
 13 29  1  0
 13 30  1  0
 14 31  1  0
 14 32  1  0
 15 33  1  0
 15 34  1  0
 16 35  1  0
 18 36  1  0
 19 37  1  0
 20 38  1  0
 21 39  1  0
M  END
>  <ScrubInfo>  (9) 
{"isomerGroup": 0, "isomerId": 8, "confId": 0, "nr_conformers:": 1, "nr_isomers:": 9}

$$$$
