REMARK SMILES Cc1cc(O)ccc1Nc1nc(NCCC[NH+](C)C)nc2c1cnn2C
REMARK SMILES IDX 13 1 14 3 15 4 16 5 17 6 18 7 19 8 12 10 11 11 20 12 10 13
REMARK SMILES IDX 21 14 22 15 25 16 23 17 24 18 26 19 9 20 8 22 7 23 2 24 6 25
REMARK SMILES IDX 3 26 4 27 1 28 5 29
REMARK H PARENT 13 2 17 9 9 21 5 30
ROOT
ATOM      1  N   UNL     1       1.044   0.178   1.042  1.00  0.00    -0.354 N 
ATOM      2  H   UNL     1       0.145   0.253   1.537  1.00  0.00     0.163 HD
ENDROOT
BRANCH   1   3
ATOM      3  C   UNL     1       1.985   1.201   1.509  1.00  0.00     0.122 C 
BRANCH   3   4
ATOM      4  C   UNL     1       2.858   0.593   2.611  1.00  0.00     0.083 C 
BRANCH   4   5
ATOM      5  C   UNL     1       3.767  -0.523   2.087  1.00  0.00     0.263 C 
BRANCH   5   6
ATOM      6  N   UNL     1       2.959  -1.688   1.564  1.00  0.00    -0.340 N 
ATOM      7  C   UNL     1       2.484  -2.625   2.631  1.00  0.00     0.332 C 
ATOM      8  C   UNL     1       3.633  -2.407   0.437  1.00  0.00     0.332 C 
ATOM      9  H   UNL     1       2.102  -1.258   1.151  1.00  0.00     0.347 HD
ENDBRANCH   5   6
ENDBRANCH   4   5
ENDBRANCH   3   4
ENDBRANCH   1   3
BRANCH   1  10
ATOM     10  C   UNL     1       0.621   0.423  -0.273  1.00  0.00     0.226 A 
ATOM     11  N   UNL     1      -0.706   0.455  -0.421  1.00  0.00    -0.195 NA
ATOM     12  N   UNL     1       1.538   0.514  -1.245  1.00  0.00    -0.193 NA
ATOM     13  C   UNL     1      -1.261   0.650  -1.648  1.00  0.00     0.147 A 
ATOM     14  C   UNL     1       0.975   0.714  -2.450  1.00  0.00     0.165 A 
ATOM     15  C   UNL     1      -0.380   0.790  -2.725  1.00  0.00     0.082 A 
ATOM     16  N   UNL     1       1.609   0.887  -3.652  1.00  0.00    -0.250 N 
ATOM     17  C   UNL     1      -0.446   1.006  -4.116  1.00  0.00     0.149 A 
ATOM     18  N   UNL     1       0.760   1.050  -4.690  1.00  0.00    -0.179 NA
ATOM     19  C   UNL     1       3.030   0.914  -3.895  1.00  0.00     0.176 C 
BRANCH  13  20
ATOM     20  N   UNL     1      -2.657   0.685  -1.814  1.00  0.00    -0.339 N 
ATOM     21  H   UNL     1      -2.944   0.423  -2.749  1.00  0.00     0.168 HD
BRANCH  20  22
ATOM     22  C   UNL     1      -3.625   0.386  -0.831  1.00  0.00     0.043 A 
ATOM     23  C   UNL     1      -4.443  -0.743  -1.028  1.00  0.00     0.030 A 
ATOM     24  C   UNL     1      -3.758   1.121   0.364  1.00  0.00    -0.024 A 
ATOM     25  C   UNL     1      -5.367  -1.147  -0.063  1.00  0.00     0.048 A 
ATOM     26  C   UNL     1      -4.677   0.692   1.338  1.00  0.00     0.051 A 
ATOM     27  C   UNL     1      -5.471  -0.427   1.118  1.00  0.00     0.115 A 
ATOM     28  C   UNL     1      -2.963   2.366   0.648  1.00  0.00     0.047 C 
BRANCH  27  29
ATOM     29  O   UNL     1      -6.348  -0.785   2.097  1.00  0.00    -0.508 OA
ATOM     30  H   UNL     1      -6.901  -1.516   1.773  1.00  0.00     0.293 HD
ENDBRANCH  27  29
ENDBRANCH  20  22
ENDBRANCH  13  20
ENDBRANCH   1  10
TORSDOF 8
