_i0
     RDKit          3D

 52 54  0  0  0  0  0  0  0  0999 V2000
    3.7667   -0.5231    2.0865 C   0  0  0  0  0  0  0  0  0  0  0  0
    2.9586   -1.6878    1.5637 N   0  0  0  0  0  4  0  0  0  0  0  0
    2.4843   -2.6252    2.6310 C   0  0  0  0  0  0  0  0  0  0  0  0
    3.6326   -2.4073    0.4368 C   0  0  0  0  0  0  0  0  0  0  0  0
    2.8579    0.5925    2.6109 C   0  0  0  0  0  0  0  0  0  0  0  0
    1.9847    1.2010    1.5089 C   0  0  0  0  0  0  0  0  0  0  0  0
    1.0439    0.1777    1.0420 N   0  0  0  0  0  0  0  0  0  0  0  0
    0.6207    0.4229   -0.2733 C   0  0  0  0  0  0  0  0  0  0  0  0
   -0.7064    0.4547   -0.4214 N   0  0  0  0  0  0  0  0  0  0  0  0
    1.5376    0.5140   -1.2451 N   0  0  0  0  0  0  0  0  0  0  0  0
   -1.2614    0.6501   -1.6479 C   0  0  0  0  0  0  0  0  0  0  0  0
    0.9749    0.7140   -2.4504 C   0  0  0  0  0  0  0  0  0  0  0  0
   -2.6571    0.6852   -1.8138 N   0  0  0  0  0  0  0  0  0  0  0  0
   -0.3795    0.7902   -2.7250 C   0  0  0  0  0  0  0  0  0  0  0  0
    1.6090    0.8868   -3.6522 N   0  0  0  0  0  0  0  0  0  0  0  0
   -3.6253    0.3857   -0.8312 C   0  0  0  0  0  0  0  0  0  0  0  0
   -0.4462    1.0063   -4.1164 C   0  0  0  0  0  0  0  0  0  0  0  0
    0.7604    1.0505   -4.6897 N   0  0  0  0  0  0  0  0  0  0  0  0
    3.0295    0.9137   -3.8954 C   0  0  0  0  0  0  0  0  0  0  0  0
   -4.4426   -0.7432   -1.0283 C   0  0  0  0  0  0  0  0  0  0  0  0
   -3.7578    1.1210    0.3642 C   0  0  0  0  0  0  0  0  0  0  0  0
   -5.3673   -1.1474   -0.0626 C   0  0  0  0  0  0  0  0  0  0  0  0
   -2.9630    2.3659    0.6480 C   0  0  0  0  0  0  0  0  0  0  0  0
   -4.6771    0.6917    1.3379 C   0  0  0  0  0  0  0  0  0  0  0  0
   -5.4709   -0.4271    1.1176 C   0  0  0  0  0  0  0  0  0  0  0  0
   -6.3476   -0.7855    2.0971 O   0  0  0  0  0  0  0  0  0  0  0  0
    4.3792   -0.1436    1.2607 H   0  0  0  0  0  0  0  0  0  0  0  0
    4.4334   -0.9039    2.8675 H   0  0  0  0  0  0  0  0  0  0  0  0
    2.1019   -1.2583    1.1513 H   0  0  0  0  0  0  0  0  0  0  0  0
    1.8306   -3.3679    2.1659 H   0  0  0  0  0  0  0  0  0  0  0  0
    3.3555   -3.1041    3.0858 H   0  0  0  0  0  0  0  0  0  0  0  0
    1.9214   -2.0544    3.3727 H   0  0  0  0  0  0  0  0  0  0  0  0
    3.8314   -1.6856   -0.3601 H   0  0  0  0  0  0  0  0  0  0  0  0
    4.5617   -2.8451    0.8111 H   0  0  0  0  0  0  0  0  0  0  0  0
    2.9538   -3.1818    0.0699 H   0  0  0  0  0  0  0  0  0  0  0  0
    2.2301    0.2241    3.4302 H   0  0  0  0  0  0  0  0  0  0  0  0
    3.4905    1.3842    3.0296 H   0  0  0  0  0  0  0  0  0  0  0  0
    2.6396    1.5776    0.7135 H   0  0  0  0  0  0  0  0  0  0  0  0
    1.4256    2.0552    1.9092 H   0  0  0  0  0  0  0  0  0  0  0  0
    0.1455    0.2528    1.5373 H   0  0  0  0  0  0  0  0  0  0  0  0
   -2.9442    0.4234   -2.7492 H   0  0  0  0  0  0  0  0  0  0  0  0
   -1.3221    1.1332   -4.7403 H   0  0  0  0  0  0  0  0  0  0  0  0
    3.5709    0.7636   -2.9586 H   0  0  0  0  0  0  0  0  0  0  0  0
    3.2738    0.1119   -4.5969 H   0  0  0  0  0  0  0  0  0  0  0  0
    3.2875    1.8867   -4.3210 H   0  0  0  0  0  0  0  0  0  0  0  0
   -4.3519   -1.3319   -1.9379 H   0  0  0  0  0  0  0  0  0  0  0  0
   -5.9808   -2.0239   -0.2448 H   0  0  0  0  0  0  0  0  0  0  0  0
   -2.0736    2.1235    1.2369 H   0  0  0  0  0  0  0  0  0  0  0  0
   -2.6615    2.8753   -0.2723 H   0  0  0  0  0  0  0  0  0  0  0  0
   -3.5659    3.0846    1.2146 H   0  0  0  0  0  0  0  0  0  0  0  0
   -4.7904    1.2426    2.2689 H   0  0  0  0  0  0  0  0  0  0  0  0
   -6.9006   -1.5156    1.7728 H   0  0  0  0  0  0  0  0  0  0  0  0
  1  2  1  0
  2  3  1  0
  2  4  1  0
  5  1  1  0
  6  5  1  0
  7  6  1  0
  8  7  1  0
  9  8  2  0
  8 10  1  0
 11  9  1  0
 10 12  2  0
 13 11  1  0
 14 11  2  0
 12 14  1  0
 15 12  1  0
 16 13  1  0
 14 17  1  0
 18 15  1  0
 15 19  1  0
 20 16  2  0
 16 21  1  0
 17 18  2  0
 22 20  1  0
 23 21  1  0
 21 24  2  0
 25 22  2  0
 24 25  1  0
 25 26  1  0
  1 27  1  0
  1 28  1  0
  2 29  1  0
  3 30  1  0
  3 31  1  0
  3 32  1  0
  4 33  1  0
  4 34  1  0
  4 35  1  0
  5 36  1  0
  5 37  1  0
  6 38  1  0
  6 39  1  0
  7 40  1  0
 13 41  1  0
 17 42  1  0
 19 43  1  0
 19 44  1  0
 19 45  1  0
 20 46  1  0
 22 47  1  0
 23 48  1  0
 23 49  1  0
 23 50  1  0
 24 51  1  0
 26 52  1  0
M  CHG  1   2   1
M  END
>  <ScrubInfo>  (1) 
{"isomerGroup": 0, "isomerId": 0, "confId": 0, "nr_conformers:": 1, "nr_isomers:": 9}

$$$$
_i1
     RDKit          3D

 52 54  0  0  0  0  0  0  0  0999 V2000
   -0.7796    0.9982   -0.4676 N   0  0  0  0  0  0  0  0  0  0  0  0
   -2.0671    1.4934   -0.6000 C   0  0  0  0  0  0  0  0  0  0  0  0
   -3.1736    0.6646   -0.5732 N   0  0  0  0  0  0  0  0  0  0  0  0
   -3.3332   -0.5524    0.1273 C   0  0  0  0  0  0  0  0  0  0  0  0
   -2.5779   -0.8496    1.2745 C   0  0  0  0  0  0  0  0  0  0  0  0
   -2.7152   -2.0721    1.9327 C   0  0  0  0  0  0  0  0  0  0  0  0
   -3.6119   -3.0119    1.4508 C   0  0  0  0  0  0  0  0  0  0  0  0
   -3.7124   -4.1928    2.1223 O   0  0  0  0  0  0  0  0  0  0  0  0
   -4.3787   -2.7483    0.3217 C   0  0  0  0  0  0  0  0  0  0  0  0
   -4.2441   -1.5208   -0.3524 C   0  0  0  0  0  0  0  0  0  0  0  0
   -5.0764   -1.2724   -1.5829 C   0  0  0  0  0  0  0  0  0  0  0  0
   -2.1499    2.8135   -0.8016 C   0  0  0  0  0  0  0  0  0  0  0  0
   -3.1941    3.8287   -0.9808 C   0  0  0  0  0  0  0  0  0  0  0  0
   -2.7151    5.0395   -1.1066 N   0  0  0  0  0  0  0  0  0  0  0  0
   -1.3197    4.8957   -1.0652 N   0  0  0  0  0  0  0  0  0  0  0  0
   -0.4993    6.0709   -0.8967 C   0  0  0  0  0  0  0  0  0  0  0  0
   -0.8952    3.5971   -0.8399 C   0  0  0  0  0  0  0  0  0  0  0  0
    0.2923    3.1191   -0.6866 N   0  0  0  0  0  0  0  0  0  0  0  0
    0.3650    1.7574   -0.5072 C   0  0  0  0  0  0  0  0  0  0  0  0
    1.5714    1.3266   -0.3946 N   0  0  0  0  0  0  0  0  0  0  0  0
    1.8215   -0.0870   -0.1893 C   0  0  0  0  0  0  0  0  0  0  0  0
    3.3347   -0.2453   -0.0347 C   0  0  0  0  0  0  0  0  0  0  0  0
    3.7219   -1.6976    0.1931 C   0  0  0  0  0  0  0  0  0  0  0  0
    5.2318   -1.8522    0.2149 N   0  0  0  0  0  4  0  0  0  0  0  0
    5.8802   -1.2522    1.4349 C   0  0  0  0  0  0  0  0  0  0  0  0
    5.6402   -3.2900    0.0386 C   0  0  0  0  0  0  0  0  0  0  0  0
   -0.7169   -0.0064   -0.4481 H   0  0  0  0  0  0  0  0  0  0  0  0
   -4.0615    1.0928   -0.8196 H   0  0  0  0  0  0  0  0  0  0  0  0
   -1.9017   -0.1128    1.7006 H   0  0  0  0  0  0  0  0  0  0  0  0
   -2.1394   -2.2815    2.8297 H   0  0  0  0  0  0  0  0  0  0  0  0
   -4.4467   -4.7075    1.7465 H   0  0  0  0  0  0  0  0  0  0  0  0
   -5.0800   -3.4919   -0.0478 H   0  0  0  0  0  0  0  0  0  0  0  0
   -4.4341   -1.0266   -2.4347 H   0  0  0  0  0  0  0  0  0  0  0  0
   -5.7780   -0.4513   -1.4045 H   0  0  0  0  0  0  0  0  0  0  0  0
   -5.6613   -2.1560   -1.8594 H   0  0  0  0  0  0  0  0  0  0  0  0
   -4.2576    3.5584   -0.9795 H   0  0  0  0  0  0  0  0  0  0  0  0
   -0.9370    6.9280   -1.4187 H   0  0  0  0  0  0  0  0  0  0  0  0
    0.5035    5.9086   -1.3044 H   0  0  0  0  0  0  0  0  0  0  0  0
   -0.4078    6.3216    0.1647 H   0  0  0  0  0  0  0  0  0  0  0  0
    1.3188   -0.4484    0.7155 H   0  0  0  0  0  0  0  0  0  0  0  0
    1.4738   -0.6723   -1.0484 H   0  0  0  0  0  0  0  0  0  0  0  0
    3.8349    0.1407   -0.9323 H   0  0  0  0  0  0  0  0  0  0  0  0
    3.6685    0.3781    0.8028 H   0  0  0  0  0  0  0  0  0  0  0  0
    3.3516   -2.3173   -0.6312 H   0  0  0  0  0  0  0  0  0  0  0  0
    3.3331   -2.0896    1.1392 H   0  0  0  0  0  0  0  0  0  0  0  0
    5.6011   -1.3414   -0.5994 H   0  0  0  0  0  0  0  0  0  0  0  0
    6.9561   -1.4372    1.3731 H   0  0  0  0  0  0  0  0  0  0  0  0
    5.4546   -1.7246    2.3240 H   0  0  0  0  0  0  0  0  0  0  0  0
    5.7007   -0.1755    1.4329 H   0  0  0  0  0  0  0  0  0  0  0  0
    5.2555   -3.8669    0.8838 H   0  0  0  0  0  0  0  0  0  0  0  0
    5.2225   -3.6491   -0.9056 H   0  0  0  0  0  0  0  0  0  0  0  0
    6.7319   -3.3319   -0.0021 H   0  0  0  0  0  0  0  0  0  0  0  0
  1  2  1  0
  2  3  1  0
  3  4  1  0
  4  5  2  0
  5  6  1  0
  6  7  2  0
  7  8  1  0
  7  9  1  0
  9 10  2  0
 10 11  1  0
  2 12  2  0
 12 13  1  0
 13 14  2  0
 14 15  1  0
 15 16  1  0
 15 17  1  0
 17 18  2  0
 18 19  1  0
 19 20  2  3
 20 21  1  0
 21 22  1  0
 22 23  1  0
 23 24  1  0
 24 25  1  0
 24 26  1  0
 19  1  1  0
 10  4  1  0
 17 12  1  0
  1 27  1  0
  3 28  1  0
  5 29  1  0
  6 30  1  0
  8 31  1  0
  9 32  1  0
 11 33  1  0
 11 34  1  0
 11 35  1  0
 13 36  1  0
 16 37  1  0
 16 38  1  0
 16 39  1  0
 21 40  1  0
 21 41  1  0
 22 42  1  0
 22 43  1  0
 23 44  1  0
 23 45  1  0
 24 46  1  0
 25 47  1  0
 25 48  1  0
 25 49  1  0
 26 50  1  0
 26 51  1  0
 26 52  1  0
M  CHG  1  24   1
M  END
>  <ScrubInfo>  (2) 
{"isomerGroup": 0, "isomerId": 1, "confId": 0, "nr_conformers:": 1, "nr_isomers:": 9}

$$$$
_i2
     RDKit          3D

 52 54  0  0  0  0  0  0  0  0999 V2000
    0.1824   -1.0462    1.4556 N   0  0  0  0  0  0  0  0  0  0  0  0
   -0.8986   -1.3936    0.6871 C   0  0  0  0  0  0  0  0  0  0  0  0
   -1.8426   -2.1180    1.3659 N   0  0  0  0  0  0  0  0  0  0  0  0
   -3.0079   -2.6859    0.7077 C   0  0  0  0  0  0  0  0  0  0  0  0
   -4.2572   -1.8481    0.9750 C   0  0  0  0  0  0  0  0  0  0  0  0
   -4.1465   -0.3449    0.7167 C   0  0  0  0  0  0  0  0  0  0  0  0
   -3.6618    0.0113   -0.6651 N   0  0  0  0  0  4  0  0  0  0  0  0
   -4.5531   -0.4394   -1.7785 C   0  0  0  0  0  0  0  0  0  0  0  0
   -3.3500    1.4817   -0.7693 C   0  0  0  0  0  0  0  0  0  0  0  0
   -1.0687   -1.0059   -0.5566 N   0  0  0  0  0  0  0  0  0  0  0  0
    0.0030   -0.2848   -1.0036 C   0  0  0  0  0  0  0  0  0  0  0  0
    1.1188    0.1345   -0.2913 C   0  0  0  0  0  0  0  0  0  0  0  0
    1.8674    0.8798   -1.2188 C   0  0  0  0  0  0  0  0  0  0  0  0
    1.2914    0.9181   -2.4264 N   0  0  0  0  0  0  0  0  0  0  0  0
    0.2016    0.1412   -2.2892 N   0  0  0  0  0  0  0  0  0  0  0  0
   -0.6008   -0.1433   -3.4524 C   0  0  0  0  0  0  0  0  0  0  0  0
    1.2486   -0.2522    1.0987 C   0  0  0  0  0  0  0  0  0  0  0  0
    2.1753    0.0526    1.9517 N   0  0  0  0  0  0  0  0  0  0  0  0
    3.2598    0.8682    1.6109 C   0  0  0  0  0  0  0  0  0  0  0  0
    3.1487    2.2535    1.7854 C   0  0  0  0  0  0  0  0  0  0  0  0
    4.2138    3.0959    1.4703 C   0  0  0  0  0  0  0  0  0  0  0  0
    5.3991    2.5512    0.9965 C   0  0  0  0  0  0  0  0  0  0  0  0
    6.4126    3.4108    0.6961 O   0  0  0  0  0  0  0  0  0  0  0  0
    5.5425    1.1752    0.8421 C   0  0  0  0  0  0  0  0  0  0  0  0
    4.4765    0.3184    1.1636 C   0  0  0  0  0  0  0  0  0  0  0  0
    4.6405   -1.1670    1.0045 C   0  0  0  0  0  0  0  0  0  0  0  0
    0.2053   -1.3194    2.4264 H   0  0  0  0  0  0  0  0  0  0  0  0
   -1.4670   -2.7271    2.0903 H   0  0  0  0  0  0  0  0  0  0  0  0
   -3.1741   -3.6963    1.0999 H   0  0  0  0  0  0  0  0  0  0  0  0
   -2.8453   -2.8069   -0.3692 H   0  0  0  0  0  0  0  0  0  0  0  0
   -5.0906   -2.2649    0.3970 H   0  0  0  0  0  0  0  0  0  0  0  0
   -4.5372   -1.9748    2.0293 H   0  0  0  0  0  0  0  0  0  0  0  0
   -3.4468    0.1071    1.4289 H   0  0  0  0  0  0  0  0  0  0  0  0
   -5.1221    0.1368    0.8507 H   0  0  0  0  0  0  0  0  0  0  0  0
   -2.7368   -0.4539   -0.7808 H   0  0  0  0  0  0  0  0  0  0  0  0
   -4.6165   -1.5292   -1.7564 H   0  0  0  0  0  0  0  0  0  0  0  0
   -5.5381    0.0150   -1.6436 H   0  0  0  0  0  0  0  0  0  0  0  0
   -4.1052   -0.1239   -2.7249 H   0  0  0  0  0  0  0  0  0  0  0  0
   -2.9164    1.6688   -1.7553 H   0  0  0  0  0  0  0  0  0  0  0  0
   -4.2784    2.0434   -0.6363 H   0  0  0  0  0  0  0  0  0  0  0  0
   -2.6230    1.7344    0.0073 H   0  0  0  0  0  0  0  0  0  0  0  0
    2.8061    1.4023   -1.0881 H   0  0  0  0  0  0  0  0  0  0  0  0
   -1.0899    0.7825   -3.7651 H   0  0  0  0  0  0  0  0  0  0  0  0
    0.0538   -0.5175   -4.2438 H   0  0  0  0  0  0  0  0  0  0  0  0
   -1.3516   -0.8988   -3.2102 H   0  0  0  0  0  0  0  0  0  0  0  0
    2.2270    2.6792    2.1713 H   0  0  0  0  0  0  0  0  0  0  0  0
    4.1230    4.1705    1.6007 H   0  0  0  0  0  0  0  0  0  0  0  0
    7.1919    2.8996    0.4214 H   0  0  0  0  0  0  0  0  0  0  0  0
    6.4787    0.7591    0.4805 H   0  0  0  0  0  0  0  0  0  0  0  0
    5.6843   -1.4359    0.8106 H   0  0  0  0  0  0  0  0  0  0  0  0
    4.3367   -1.6875    1.9185 H   0  0  0  0  0  0  0  0  0  0  0  0
    4.0378   -1.5257    0.1644 H   0  0  0  0  0  0  0  0  0  0  0  0
  1  2  1  0
  2  3  1  0
  3  4  1  0
  4  5  1  0
  5  6  1  0
  6  7  1  0
  7  8  1  0
  7  9  1  0
  2 10  2  0
 10 11  1  0
 11 12  2  0
 12 13  1  0
 13 14  2  0
 14 15  1  0
 15 16  1  0
 12 17  1  0
 17 18  2  3
 18 19  1  0
 19 20  2  0
 20 21  1  0
 21 22  2  0
 22 23  1  0
 22 24  1  0
 24 25  2  0
 25 26  1  0
 17  1  1  0
 25 19  1  0
 15 11  1  0
  1 27  1  0
  3 28  1  0
  4 29  1  0
  4 30  1  0
  5 31  1  0
  5 32  1  0
  6 33  1  0
  6 34  1  0
  7 35  1  0
  8 36  1  0
  8 37  1  0
  8 38  1  0
  9 39  1  0
  9 40  1  0
  9 41  1  0
 13 42  1  0
 16 43  1  0
 16 44  1  0
 16 45  1  0
 20 46  1  0
 21 47  1  0
 23 48  1  0
 24 49  1  0
 26 50  1  0
 26 51  1  0
 26 52  1  0
M  CHG  1   7   1
M  END
>  <ScrubInfo>  (3) 
{"isomerGroup": 0, "isomerId": 2, "confId": 0, "nr_conformers:": 1, "nr_isomers:": 9}

$$$$
_i3
     RDKit          3D

 52 54  0  0  0  0  0  0  0  0999 V2000
   -0.8016   -1.8472   -2.8349 N   0  0  0  0  0  0  0  0  0  0  0  0
   -0.7940   -1.6933   -1.4673 C   0  0  0  0  0  0  0  0  0  0  0  0
   -0.5799   -2.7309   -0.7292 N   0  0  0  0  0  0  0  0  0  0  0  0
   -0.7051   -2.6382    0.7226 C   0  0  0  0  0  0  0  0  0  0  0  0
    0.6476   -2.4038    1.3945 C   0  0  0  0  0  0  0  0  0  0  0  0
    1.0636   -0.9416    1.3015 C   0  0  0  0  0  0  0  0  0  0  0  0
    2.2690   -0.6023    2.1550 N   0  0  0  0  0  4  0  0  0  0  0  0
    3.5287   -1.2859    1.7222 C   0  0  0  0  0  0  0  0  0  0  0  0
    2.0293   -0.7016    3.6312 C   0  0  0  0  0  0  0  0  0  0  0  0
   -0.9650   -0.4539   -0.8718 N   0  0  0  0  0  0  0  0  0  0  0  0
   -1.1969    0.5941   -1.6174 C   0  0  0  0  0  0  0  0  0  0  0  0
   -1.3084    1.9003   -1.1786 N   0  0  0  0  0  0  0  0  0  0  0  0
   -0.7276    2.2706    0.0595 C   0  0  0  0  0  0  0  0  0  0  0  0
    0.6031    2.7229    0.0793 C   0  0  0  0  0  0  0  0  0  0  0  0
    1.2532    2.9654    1.2883 C   0  0  0  0  0  0  0  0  0  0  0  0
    0.5722    2.7623    2.4797 C   0  0  0  0  0  0  0  0  0  0  0  0
    1.2542    2.9458    3.6442 O   0  0  0  0  0  0  0  0  0  0  0  0
   -0.7537    2.3409    2.4880 C   0  0  0  0  0  0  0  0  0  0  0  0
   -1.4167    2.0873    1.2755 C   0  0  0  0  0  0  0  0  0  0  0  0
   -2.8353    1.5844    1.3027 C   0  0  0  0  0  0  0  0  0  0  0  0
   -1.3161    0.4520   -3.0531 C   0  0  0  0  0  0  0  0  0  0  0  0
   -1.6198    1.2625   -4.1581 C   0  0  0  0  0  0  0  0  0  0  0  0
   -1.5698    0.5853   -5.3137 N   0  0  0  0  0  0  0  0  0  0  0  0
   -1.2646   -0.6818   -4.9426 N   0  0  0  0  0  0  0  0  0  0  0  0
   -1.1601   -1.7047   -5.9528 C   0  0  0  0  0  0  0  0  0  0  0  0
   -1.0996   -0.7847   -3.5978 C   0  0  0  0  0  0  0  0  0  0  0  0
   -0.7191   -2.8021   -3.1622 H   0  0  0  0  0  0  0  0  0  0  0  0
   -1.0900   -3.6064    1.0656 H   0  0  0  0  0  0  0  0  0  0  0  0
   -1.4511   -1.9025    1.0468 H   0  0  0  0  0  0  0  0  0  0  0  0
    1.4087   -3.0516    0.9452 H   0  0  0  0  0  0  0  0  0  0  0  0
    0.5498   -2.6975    2.4450 H   0  0  0  0  0  0  0  0  0  0  0  0
    1.3367   -0.6631    0.2795 H   0  0  0  0  0  0  0  0  0  0  0  0
    0.2595   -0.2885    1.6460 H   0  0  0  0  0  0  0  0  0  0  0  0
    2.4131    0.4032    1.9835 H   0  0  0  0  0  0  0  0  0  0  0  0
    3.4528   -2.3511    1.9536 H   0  0  0  0  0  0  0  0  0  0  0  0
    3.6563   -1.1235    0.6488 H   0  0  0  0  0  0  0  0  0  0  0  0
    4.3613   -0.8332    2.2674 H   0  0  0  0  0  0  0  0  0  0  0  0
    2.8609   -0.2054    4.1389 H   0  0  0  0  0  0  0  0  0  0  0  0
    1.0927   -0.1898    3.8657 H   0  0  0  0  0  0  0  0  0  0  0  0
    1.9838   -1.7554    3.9157 H   0  0  0  0  0  0  0  0  0  0  0  0
   -1.1043    2.5952   -1.8901 H   0  0  0  0  0  0  0  0  0  0  0  0
    1.1475    2.8708   -0.8510 H   0  0  0  0  0  0  0  0  0  0  0  0
    2.2803    3.3209    1.2964 H   0  0  0  0  0  0  0  0  0  0  0  0
    0.6181    3.2581    4.3153 H   0  0  0  0  0  0  0  0  0  0  0  0
   -1.2756    2.1855    3.4292 H   0  0  0  0  0  0  0  0  0  0  0  0
   -3.4336    2.0573    0.5172 H   0  0  0  0  0  0  0  0  0  0  0  0
   -3.3189    1.8217    2.2565 H   0  0  0  0  0  0  0  0  0  0  0  0
   -2.8535    0.4987    1.1695 H   0  0  0  0  0  0  0  0  0  0  0  0
   -1.8764    2.3135   -4.1917 H   0  0  0  0  0  0  0  0  0  0  0  0
   -2.1351   -1.8121   -6.4346 H   0  0  0  0  0  0  0  0  0  0  0  0
   -0.4052   -1.3953   -6.6800 H   0  0  0  0  0  0  0  0  0  0  0  0
   -0.8655   -2.6509   -5.4943 H   0  0  0  0  0  0  0  0  0  0  0  0
  1  2  1  0
  2  3  2  3
  3  4  1  0
  4  5  1  0
  5  6  1  0
  6  7  1  0
  7  8  1  0
  7  9  1  0
  2 10  1  0
 10 11  2  0
 11 12  1  0
 12 13  1  0
 13 14  2  0
 14 15  1  0
 15 16  2  0
 16 17  1  0
 16 18  1  0
 18 19  2  0
 19 20  1  0
 11 21  1  0
 21 22  1  0
 22 23  2  0
 23 24  1  0
 24 25  1  0
 24 26  1  0
 26  1  1  0
 19 13  1  0
 26 21  2  0
  1 27  1  0
  4 28  1  0
  4 29  1  0
  5 30  1  0
  5 31  1  0
  6 32  1  0
  6 33  1  0
  7 34  1  0
  8 35  1  0
  8 36  1  0
  8 37  1  0
  9 38  1  0
  9 39  1  0
  9 40  1  0
 12 41  1  0
 14 42  1  0
 15 43  1  0
 17 44  1  0
 18 45  1  0
 20 46  1  0
 20 47  1  0
 20 48  1  0
 22 49  1  0
 25 50  1  0
 25 51  1  0
 25 52  1  0
M  CHG  1   7   1
M  END
>  <ScrubInfo>  (4) 
{"isomerGroup": 0, "isomerId": 3, "confId": 0, "nr_conformers:": 1, "nr_isomers:": 9}

$$$$
_i4
     RDKit          3D

 52 54  0  0  0  0  0  0  0  0999 V2000
   -1.2169    0.7328    2.6813 N   0  0  0  0  0  0  0  0  0  0  0  0
   -0.0753    0.0394    2.3633 C   0  0  0  0  0  0  0  0  0  0  0  0
    0.6422   -0.3426    3.4628 N   0  0  0  0  0  0  0  0  0  0  0  0
    1.6961   -1.3466    3.3886 C   0  0  0  0  0  0  0  0  0  0  0  0
    3.0103   -0.7510    2.8707 C   0  0  0  0  0  0  0  0  0  0  0  0
    3.5307   -1.4403    1.6080 C   0  0  0  0  0  0  0  0  0  0  0  0
    2.8519   -0.9486    0.3606 N   0  0  0  0  0  4  0  0  0  0  0  0
    3.3749    0.3671   -0.1366 C   0  0  0  0  0  0  0  0  0  0  0  0
    2.8319   -1.9741   -0.7353 C   0  0  0  0  0  0  0  0  0  0  0  0
    0.3176   -0.2431    1.1509 N   0  0  0  0  0  0  0  0  0  0  0  0
   -0.4594    0.1607    0.0663 C   0  0  0  0  0  0  0  0  0  0  0  0
    0.0644   -0.1327   -1.0804 N   0  0  0  0  0  0  0  0  0  0  0  0
   -0.5692    0.1949   -2.2836 C   0  0  0  0  0  0  0  0  0  0  0  0
   -0.3115    1.4390   -2.8771 C   0  0  0  0  0  0  0  0  0  0  0  0
   -0.9061    1.7876   -4.0910 C   0  0  0  0  0  0  0  0  0  0  0  0
   -1.7485    0.8790   -4.7176 C   0  0  0  0  0  0  0  0  0  0  0  0
   -2.3581    1.1705   -5.9001 O   0  0  0  0  0  0  0  0  0  0  0  0
   -1.9967   -0.3696   -4.1568 C   0  0  0  0  0  0  0  0  0  0  0  0
   -1.3984   -0.7317   -2.9409 C   0  0  0  0  0  0  0  0  0  0  0  0
   -1.6799   -2.0834   -2.3490 C   0  0  0  0  0  0  0  0  0  0  0  0
   -1.6951    0.8524    0.3543 C   0  0  0  0  0  0  0  0  0  0  0  0
   -2.7739    1.3998   -0.3605 C   0  0  0  0  0  0  0  0  0  0  0  0
   -3.6813    1.9774    0.4404 N   0  0  0  0  0  0  0  0  0  0  0  0
   -3.1906    1.7888    1.6846 N   0  0  0  0  0  0  0  0  0  0  0  0
   -3.9397    2.2841    2.8122 C   0  0  0  0  0  0  0  0  0  0  0  0
   -2.0089    1.1165    1.6638 C   0  0  0  0  0  0  0  0  0  0  0  0
   -1.3741    1.0148    3.6405 H   0  0  0  0  0  0  0  0  0  0  0  0
    0.0872   -0.4351    4.3086 H   0  0  0  0  0  0  0  0  0  0  0  0
    1.8642   -1.7229    4.4050 H   0  0  0  0  0  0  0  0  0  0  0  0
    1.3602   -2.2054    2.7959 H   0  0  0  0  0  0  0  0  0  0  0  0
    2.9431    0.3339    2.7369 H   0  0  0  0  0  0  0  0  0  0  0  0
    3.7671   -0.9094    3.6506 H   0  0  0  0  0  0  0  0  0  0  0  0
    4.6039   -1.2596    1.4793 H   0  0  0  0  0  0  0  0  0  0  0  0
    3.3778   -2.5236    1.6733 H   0  0  0  0  0  0  0  0  0  0  0  0
    1.8465   -0.7712    0.5812 H   0  0  0  0  0  0  0  0  0  0  0  0
    3.2529    1.1123    0.6522 H   0  0  0  0  0  0  0  0  0  0  0  0
    4.4295    0.2455   -0.3983 H   0  0  0  0  0  0  0  0  0  0  0  0
    2.7934    0.6643   -1.0130 H   0  0  0  0  0  0  0  0  0  0  0  0
    3.8643   -2.2425   -0.9751 H   0  0  0  0  0  0  0  0  0  0  0  0
    2.3318   -1.5497   -1.6089 H   0  0  0  0  0  0  0  0  0  0  0  0
    2.2751   -2.8430   -0.3744 H   0  0  0  0  0  0  0  0  0  0  0  0
    0.3506    2.1473   -2.3867 H   0  0  0  0  0  0  0  0  0  0  0  0
   -0.7026    2.7605   -4.5278 H   0  0  0  0  0  0  0  0  0  0  0  0
   -2.1299    2.0766   -6.1666 H   0  0  0  0  0  0  0  0  0  0  0  0
   -2.6584   -1.0587   -4.6776 H   0  0  0  0  0  0  0  0  0  0  0  0
   -0.7463   -2.5830   -2.0700 H   0  0  0  0  0  0  0  0  0  0  0  0
   -2.3161   -1.9826   -1.4642 H   0  0  0  0  0  0  0  0  0  0  0  0
   -2.1941   -2.7343   -3.0640 H   0  0  0  0  0  0  0  0  0  0  0  0
   -2.9584    1.4186   -1.4266 H   0  0  0  0  0  0  0  0  0  0  0  0
   -3.4473    1.9941    3.7426 H   0  0  0  0  0  0  0  0  0  0  0  0
   -4.9436    1.8532    2.7764 H   0  0  0  0  0  0  0  0  0  0  0  0
   -3.9876    3.3735    2.7403 H   0  0  0  0  0  0  0  0  0  0  0  0
  1  2  1  0
  2  3  1  0
  3  4  1  0
  4  5  1  0
  5  6  1  0
  6  7  1  0
  7  8  1  0
  7  9  1  0
  2 10  2  0
 10 11  1  0
 11 12  2  3
 12 13  1  0
 13 14  2  0
 14 15  1  0
 15 16  2  0
 16 17  1  0
 16 18  1  0
 18 19  2  0
 19 20  1  0
 11 21  1  0
 21 22  1  0
 22 23  2  0
 23 24  1  0
 24 25  1  0
 24 26  1  0
 26  1  1  0
 19 13  1  0
 26 21  2  0
  1 27  1  0
  3 28  1  0
  4 29  1  0
  4 30  1  0
  5 31  1  0
  5 32  1  0
  6 33  1  0
  6 34  1  0
  7 35  1  0
  8 36  1  0
  8 37  1  0
  8 38  1  0
  9 39  1  0
  9 40  1  0
  9 41  1  0
 14 42  1  0
 15 43  1  0
 17 44  1  0
 18 45  1  0
 20 46  1  0
 20 47  1  0
 20 48  1  0
 22 49  1  0
 25 50  1  0
 25 51  1  0
 25 52  1  0
M  CHG  1   7   1
M  END
>  <ScrubInfo>  (5) 
{"isomerGroup": 0, "isomerId": 4, "confId": 0, "nr_conformers:": 1, "nr_isomers:": 9}

$$$$
_i5
     RDKit          3D

 52 54  0  0  0  0  0  0  0  0999 V2000
   -3.6686    2.2242   -0.5688 N   0  0  0  0  0  0  0  0  0  0  0  0
   -3.0945    1.0275   -0.1564 C   0  0  0  0  0  0  0  0  0  0  0  0
   -1.7594    1.0069   -0.2884 C   0  0  0  0  0  0  0  0  0  0  0  0
   -0.6360    0.1225   -0.0139 C   0  0  0  0  0  0  0  0  0  0  0  0
   -0.5812   -1.0743    0.4685 N   0  0  0  0  0  0  0  0  0  0  0  0
   -1.7607   -1.7467    0.8114 C   0  0  0  0  0  0  0  0  0  0  0  0
   -2.2496   -1.6390    2.1210 C   0  0  0  0  0  0  0  0  0  0  0  0
   -3.4189   -2.2983    2.5038 C   0  0  0  0  0  0  0  0  0  0  0  0
   -4.0923   -3.0769    1.5720 C   0  0  0  0  0  0  0  0  0  0  0  0
   -5.2423   -3.7338    1.8907 O   0  0  0  0  0  0  0  0  0  0  0  0
   -3.6102   -3.2157    0.2743 C   0  0  0  0  0  0  0  0  0  0  0  0
   -2.4294   -2.5664   -0.1157 C   0  0  0  0  0  0  0  0  0  0  0  0
   -1.9202   -2.7313   -1.5195 C   0  0  0  0  0  0  0  0  0  0  0  0
    0.5886    0.6610   -0.3144 N   0  0  0  0  0  0  0  0  0  0  0  0
    0.7351    1.8413   -0.8316 C   0  0  0  0  0  0  0  0  0  0  0  0
    1.9884    2.3052   -1.1176 N   0  0  0  0  0  0  0  0  0  0  0  0
    3.0762    1.4268   -1.4968 C   0  0  0  0  0  0  0  0  0  0  0  0
    4.1925    1.4765   -0.4600 C   0  0  0  0  0  0  0  0  0  0  0  0
    3.8573    0.9134    0.9225 C   0  0  0  0  0  0  0  0  0  0  0  0
    3.9451   -0.5934    1.0749 N   0  0  0  0  0  4  0  0  0  0  0  0
    5.1335   -1.2526    0.4492 C   0  0  0  0  0  0  0  0  0  0  0  0
    2.6598   -1.3228    0.7817 C   0  0  0  0  0  0  0  0  0  0  0  0
   -0.2727    2.7073   -1.1357 N   0  0  0  0  0  0  0  0  0  0  0  0
   -1.4797    2.3202   -0.9044 C   0  0  0  0  0  0  0  0  0  0  0  0
   -2.6745    2.9931   -1.1527 N   0  0  0  0  0  0  0  0  0  0  0  0
   -2.7636    4.4390   -1.0784 C   0  0  0  0  0  0  0  0  0  0  0  0
   -4.5318    2.1049   -1.1064 H   0  0  0  0  0  0  0  0  0  0  0  0
   -3.7463    0.2525    0.2207 H   0  0  0  0  0  0  0  0  0  0  0  0
   -1.7164   -1.0308    2.8468 H   0  0  0  0  0  0  0  0  0  0  0  0
   -3.7838   -2.1933    3.5207 H   0  0  0  0  0  0  0  0  0  0  0  0
   -5.4478   -3.5851    2.8287 H   0  0  0  0  0  0  0  0  0  0  0  0
   -4.1575   -3.8411   -0.4277 H   0  0  0  0  0  0  0  0  0  0  0  0
   -2.0883   -1.8139   -2.0921 H   0  0  0  0  0  0  0  0  0  0  0  0
   -0.8510   -2.9670   -1.5171 H   0  0  0  0  0  0  0  0  0  0  0  0
   -2.4301   -3.5520   -2.0352 H   0  0  0  0  0  0  0  0  0  0  0  0
    1.9270    3.1624   -1.6627 H   0  0  0  0  0  0  0  0  0  0  0  0
    2.7452    0.4010   -1.6801 H   0  0  0  0  0  0  0  0  0  0  0  0
    3.4776    1.7842   -2.4528 H   0  0  0  0  0  0  0  0  0  0  0  0
    4.4669    2.5314   -0.3196 H   0  0  0  0  0  0  0  0  0  0  0  0
    5.0876    0.9987   -0.8712 H   0  0  0  0  0  0  0  0  0  0  0  0
    2.8773    1.2329    1.2905 H   0  0  0  0  0  0  0  0  0  0  0  0
    4.6004    1.2989    1.6318 H   0  0  0  0  0  0  0  0  0  0  0  0
    4.0629   -0.7307    2.0871 H   0  0  0  0  0  0  0  0  0  0  0  0
    6.0257   -0.6867    0.7289 H   0  0  0  0  0  0  0  0  0  0  0  0
    4.9967   -1.2747   -0.6348 H   0  0  0  0  0  0  0  0  0  0  0  0
    5.2024   -2.2699    0.8446 H   0  0  0  0  0  0  0  0  0  0  0  0
    2.7983   -2.3691    1.0691 H   0  0  0  0  0  0  0  0  0  0  0  0
    2.4456   -1.2530   -0.2839 H   0  0  0  0  0  0  0  0  0  0  0  0
    1.8848   -0.8815    1.4089 H   0  0  0  0  0  0  0  0  0  0  0  0
   -2.0192    4.9045   -1.7322 H   0  0  0  0  0  0  0  0  0  0  0  0
   -3.7527    4.7772   -1.4040 H   0  0  0  0  0  0  0  0  0  0  0  0
   -2.5964    4.7864   -0.0536 H   0  0  0  0  0  0  0  0  0  0  0  0
  1  2  1  0
  2  3  2  0
  3  4  1  0
  4  5  2  3
  5  6  1  0
  6  7  2  0
  7  8  1  0
  8  9  2  0
  9 10  1  0
  9 11  1  0
 11 12  2  0
 12 13  1  0
  4 14  1  0
 14 15  2  0
 15 16  1  0
 16 17  1  0
 17 18  1  0
 18 19  1  0
 19 20  1  0
 20 21  1  0
 20 22  1  0
 15 23  1  0
 23 24  2  0
 24 25  1  0
 25 26  1  0
 25  1  1  0
 24  3  1  0
 12  6  1  0
  1 27  1  0
  2 28  1  0
  7 29  1  0
  8 30  1  0
 10 31  1  0
 11 32  1  0
 13 33  1  0
 13 34  1  0
 13 35  1  0
 16 36  1  0
 17 37  1  0
 17 38  1  0
 18 39  1  0
 18 40  1  0
 19 41  1  0
 19 42  1  0
 20 43  1  0
 21 44  1  0
 21 45  1  0
 21 46  1  0
 22 47  1  0
 22 48  1  0
 22 49  1  0
 26 50  1  0
 26 51  1  0
 26 52  1  0
M  CHG  1  20   1
M  END
>  <ScrubInfo>  (6) 
{"isomerGroup": 0, "isomerId": 5, "confId": 0, "nr_conformers:": 1, "nr_isomers:": 9}

$$$$
_i6
     RDKit          3D

 52 54  0  0  0  0  0  0  0  0999 V2000
   -2.6159   -2.0215   -2.1172 N   0  0  0  0  0  0  0  0  0  0  0  0
   -3.0367   -0.8566   -1.4878 C   0  0  0  0  0  0  0  0  0  0  0  0
   -2.0194   -0.1158   -1.0296 C   0  0  0  0  0  0  0  0  0  0  0  0
   -1.8038    1.1534   -0.3364 C   0  0  0  0  0  0  0  0  0  0  0  0
   -2.8187    1.9812    0.0954 N   0  0  0  0  0  0  0  0  0  0  0  0
   -4.0094    1.4974    0.6831 C   0  0  0  0  0  0  0  0  0  0  0  0
   -5.2241    1.9237    0.1238 C   0  0  0  0  0  0  0  0  0  0  0  0
   -6.4424    1.5154    0.6635 C   0  0  0  0  0  0  0  0  0  0  0  0
   -6.4527    0.6997    1.7841 C   0  0  0  0  0  0  0  0  0  0  0  0
   -7.6639    0.3175    2.2769 O   0  0  0  0  0  0  0  0  0  0  0  0
   -5.2630    0.2989    2.3846 C   0  0  0  0  0  0  0  0  0  0  0  0
   -4.0269    0.7146    1.8565 C   0  0  0  0  0  0  0  0  0  0  0  0
   -2.7661    0.2866    2.5574 C   0  0  0  0  0  0  0  0  0  0  0  0
   -0.5728    1.5377   -0.1312 N   0  0  0  0  0  0  0  0  0  0  0  0
    0.4587    0.7455   -0.5760 C   0  0  0  0  0  0  0  0  0  0  0  0
    1.6198    1.2666   -0.3883 N   0  0  0  0  0  0  0  0  0  0  0  0
    2.8128    0.5601   -0.8230 C   0  0  0  0  0  0  0  0  0  0  0  0
    3.3689   -0.2423    0.3498 C   0  0  0  0  0  0  0  0  0  0  0  0
    4.7368   -0.8528    0.0718 C   0  0  0  0  0  0  0  0  0  0  0  0
    5.8300    0.1835   -0.1089 N   0  0  0  0  0  4  0  0  0  0  0  0
    6.0710    1.0295    1.1140 C   0  0  0  0  0  0  0  0  0  0  0  0
    7.1085   -0.4566   -0.5821 C   0  0  0  0  0  0  0  0  0  0  0  0
    0.3653   -0.5004   -1.1526 N   0  0  0  0  0  0  0  0  0  0  0  0
   -0.8315   -0.9285   -1.3743 C   0  0  0  0  0  0  0  0  0  0  0  0
   -1.2408   -2.1357   -1.9444 N   0  0  0  0  0  0  0  0  0  0  0  0
   -0.4645   -2.7723   -2.9922 C   0  0  0  0  0  0  0  0  0  0  0  0
   -3.1816   -2.8421   -1.8849 H   0  0  0  0  0  0  0  0  0  0  0  0
   -4.0959   -0.6517   -1.4151 H   0  0  0  0  0  0  0  0  0  0  0  0
   -2.4475    2.7610    0.6337 H   0  0  0  0  0  0  0  0  0  0  0  0
   -5.2236    2.5674   -0.7534 H   0  0  0  0  0  0  0  0  0  0  0  0
   -7.3778    1.8361    0.2134 H   0  0  0  0  0  0  0  0  0  0  0  0
   -7.5299   -0.2021    3.0864 H   0  0  0  0  0  0  0  0  0  0  0  0
   -5.2862   -0.3266    3.2730 H   0  0  0  0  0  0  0  0  0  0  0  0
   -2.0523    1.1140    2.6190 H   0  0  0  0  0  0  0  0  0  0  0  0
   -2.9723   -0.0264    3.5868 H   0  0  0  0  0  0  0  0  0  0  0  0
   -2.3075   -0.5567    2.0329 H   0  0  0  0  0  0  0  0  0  0  0  0
    2.6565   -0.0784   -1.7004 H   0  0  0  0  0  0  0  0  0  0  0  0
    3.5315    1.3226   -1.1395 H   0  0  0  0  0  0  0  0  0  0  0  0
    2.6716   -1.0594    0.5754 H   0  0  0  0  0  0  0  0  0  0  0  0
    3.3948    0.3734    1.2557 H   0  0  0  0  0  0  0  0  0  0  0  0
    5.0460   -1.5022    0.8985 H   0  0  0  0  0  0  0  0  0  0  0  0
    4.7042   -1.4472   -0.8483 H   0  0  0  0  0  0  0  0  0  0  0  0
    5.5405    0.8259   -0.8573 H   0  0  0  0  0  0  0  0  0  0  0  0
    6.2858    0.3696    1.9584 H   0  0  0  0  0  0  0  0  0  0  0  0
    6.9190    1.6891    0.9100 H   0  0  0  0  0  0  0  0  0  0  0  0
    5.1831    1.6377    1.2972 H   0  0  0  0  0  0  0  0  0  0  0  0
    7.8372    0.3364   -0.7699 H   0  0  0  0  0  0  0  0  0  0  0  0
    7.4632   -1.1411    0.1931 H   0  0  0  0  0  0  0  0  0  0  0  0
    6.8972   -0.9909   -1.5122 H   0  0  0  0  0  0  0  0  0  0  0  0
    0.5650   -2.9396   -2.6596 H   0  0  0  0  0  0  0  0  0  0  0  0
   -0.4448   -2.1517   -3.8942 H   0  0  0  0  0  0  0  0  0  0  0  0
   -0.8956   -3.7457   -3.2479 H   0  0  0  0  0  0  0  0  0  0  0  0
  1  2  1  0
  2  3  2  0
  3  4  1  0
  4  5  1  0
  5  6  1  0
  6  7  2  0
  7  8  1  0
  8  9  2  0
  9 10  1  0
  9 11  1  0
 11 12  2  0
 12 13  1  0
  4 14  2  0
 14 15  1  0
 15 16  2  3
 16 17  1  0
 17 18  1  0
 18 19  1  0
 19 20  1  0
 20 21  1  0
 20 22  1  0
 15 23  1  0
 23 24  2  0
 24 25  1  0
 25 26  1  0
 25  1  1  0
 24  3  1  0
 12  6  1  0
  1 27  1  0
  2 28  1  0
  5 29  1  0
  7 30  1  0
  8 31  1  0
 10 32  1  0
 11 33  1  0
 13 34  1  0
 13 35  1  0
 13 36  1  0
 17 37  1  0
 17 38  1  0
 18 39  1  0
 18 40  1  0
 19 41  1  0
 19 42  1  0
 20 43  1  0
 21 44  1  0
 21 45  1  0
 21 46  1  0
 22 47  1  0
 22 48  1  0
 22 49  1  0
 26 50  1  0
 26 51  1  0
 26 52  1  0
M  CHG  1  20   1
M  END
>  <ScrubInfo>  (7) 
{"isomerGroup": 0, "isomerId": 6, "confId": 0, "nr_conformers:": 1, "nr_isomers:": 9}

$$$$
_i7
     RDKit          3D

 52 54  0  0  0  0  0  0  0  0999 V2000
   -3.4559    1.5125    1.7908 N   0  0  0  0  0  0  0  0  0  0  0  0
   -3.3986    0.4172    0.9387 C   0  0  0  0  0  0  0  0  0  0  0  0
   -2.1537    0.1147    0.5448 C   0  0  0  0  0  0  0  0  0  0  0  0
   -1.4336   -0.8777   -0.2718 C   0  0  0  0  0  0  0  0  0  0  0  0
   -1.8947   -1.8680   -0.9762 N   0  0  0  0  0  0  0  0  0  0  0  0
   -3.2710   -2.1243   -1.0309 C   0  0  0  0  0  0  0  0  0  0  0  0
   -3.8427   -2.9748   -0.0763 C   0  0  0  0  0  0  0  0  0  0  0  0
   -5.2077   -3.2568   -0.1042 C   0  0  0  0  0  0  0  0  0  0  0  0
   -6.0000   -2.7022   -1.0996 C   0  0  0  0  0  0  0  0  0  0  0  0
   -7.3295   -3.0004   -1.0883 O   0  0  0  0  0  0  0  0  0  0  0  0
   -5.4491   -1.8753   -2.0748 C   0  0  0  0  0  0  0  0  0  0  0  0
   -4.0738   -1.5895   -2.0566 C   0  0  0  0  0  0  0  0  0  0  0  0
   -3.4814   -0.7037   -3.1160 C   0  0  0  0  0  0  0  0  0  0  0  0
   -0.0757   -0.6905   -0.2550 N   0  0  0  0  0  0  0  0  0  0  0  0
    0.6160    0.2835    0.4154 C   0  0  0  0  0  0  0  0  0  0  0  0
    1.8945    0.4304    0.4529 N   0  0  0  0  0  0  0  0  0  0  0  0
    2.7559   -0.4959   -0.2588 C   0  0  0  0  0  0  0  0  0  0  0  0
    4.1983   -0.1798    0.1421 C   0  0  0  0  0  0  0  0  0  0  0  0
    4.5586    1.2662   -0.1935 C   0  0  0  0  0  0  0  0  0  0  0  0
    5.9522    1.6492    0.2700 N   0  0  0  0  0  4  0  0  0  0  0  0
    7.0574    0.8798   -0.3880 C   0  0  0  0  0  0  0  0  0  0  0  0
    6.0914    1.6951    1.7664 C   0  0  0  0  0  0  0  0  0  0  0  0
   -0.0407    1.2535    1.1400 N   0  0  0  0  0  0  0  0  0  0  0  0
   -1.3355    1.1954    1.1995 C   0  0  0  0  0  0  0  0  0  0  0  0
   -2.1925    2.0794    1.8591 N   0  0  0  0  0  0  0  0  0  0  0  0
   -1.7895    2.7470    3.0824 C   0  0  0  0  0  0  0  0  0  0  0  0
   -4.2363    2.1456    1.5985 H   0  0  0  0  0  0  0  0  0  0  0  0
   -4.3238   -0.0774    0.6800 H   0  0  0  0  0  0  0  0  0  0  0  0
   -3.2196   -3.4191    0.6950 H   0  0  0  0  0  0  0  0  0  0  0  0
   -5.6486   -3.9117    0.6421 H   0  0  0  0  0  0  0  0  0  0  0  0
   -7.7481   -2.6161   -1.8762 H   0  0  0  0  0  0  0  0  0  0  0  0
   -6.0770   -1.4548   -2.8552 H   0  0  0  0  0  0  0  0  0  0  0  0
   -2.6073   -1.1805   -3.5714 H   0  0  0  0  0  0  0  0  0  0  0  0
   -3.1873    0.2577   -2.6836 H   0  0  0  0  0  0  0  0  0  0  0  0
   -4.1986   -0.5069   -3.9199 H   0  0  0  0  0  0  0  0  0  0  0  0
    0.4343   -1.3763   -0.7868 H   0  0  0  0  0  0  0  0  0  0  0  0
    2.6364   -0.3811   -1.3423 H   0  0  0  0  0  0  0  0  0  0  0  0
    2.5366   -1.5349    0.0127 H   0  0  0  0  0  0  0  0  0  0  0  0
    4.8659   -0.8737   -0.3800 H   0  0  0  0  0  0  0  0  0  0  0  0
    4.3115   -0.3632    1.2163 H   0  0  0  0  0  0  0  0  0  0  0  0
    3.8805    1.9873    0.2747 H   0  0  0  0  0  0  0  0  0  0  0  0
    4.5340    1.4357   -1.2760 H   0  0  0  0  0  0  0  0  0  0  0  0
    6.0638    2.6234   -0.0405 H   0  0  0  0  0  0  0  0  0  0  0  0
    7.0494   -0.1468   -0.0141 H   0  0  0  0  0  0  0  0  0  0  0  0
    8.0020    1.3706   -0.1385 H   0  0  0  0  0  0  0  0  0  0  0  0
    6.8977    0.9082   -1.4689 H   0  0  0  0  0  0  0  0  0  0  0  0
    6.0841    0.6753    2.1578 H   0  0  0  0  0  0  0  0  0  0  0  0
    5.2632    2.2821    2.1715 H   0  0  0  0  0  0  0  0  0  0  0  0
    7.0413    2.1851    1.9972 H   0  0  0  0  0  0  0  0  0  0  0  0
   -0.8576    3.3008    2.9303 H   0  0  0  0  0  0  0  0  0  0  0  0
   -2.5558    3.4634    3.3959 H   0  0  0  0  0  0  0  0  0  0  0  0
   -1.6393    2.0224    3.8896 H   0  0  0  0  0  0  0  0  0  0  0  0
  1  2  1  0
  2  3  2  0
  3  4  1  0
  4  5  2  3
  5  6  1  0
  6  7  2  0
  7  8  1  0
  8  9  2  0
  9 10  1  0
  9 11  1  0
 11 12  2  0
 12 13  1  0
  4 14  1  0
 14 15  1  0
 15 16  2  3
 16 17  1  0
 17 18  1  0
 18 19  1  0
 19 20  1  0
 20 21  1  0
 20 22  1  0
 15 23  1  0
 23 24  2  0
 24 25  1  0
 25 26  1  0
 25  1  1  0
 24  3  1  0
 12  6  1  0
  1 27  1  0
  2 28  1  0
  7 29  1  0
  8 30  1  0
 10 31  1  0
 11 32  1  0
 13 33  1  0
 13 34  1  0
 13 35  1  0
 14 36  1  0
 17 37  1  0
 17 38  1  0
 18 39  1  0
 18 40  1  0
 19 41  1  0
 19 42  1  0
 20 43  1  0
 21 44  1  0
 21 45  1  0
 21 46  1  0
 22 47  1  0
 22 48  1  0
 22 49  1  0
 26 50  1  0
 26 51  1  0
 26 52  1  0
M  CHG  1  20   1
M  END
>  <ScrubInfo>  (8) 
{"isomerGroup": 0, "isomerId": 7, "confId": 0, "nr_conformers:": 1, "nr_isomers:": 9}

$$$$
_i8
     RDKit          3D

 52 54  0  0  0  0  0  0  0  0999 V2000
    0.1793   -1.3875    1.8084 N   0  0  0  0  0  0  0  0  0  0  0  0
   -0.1018   -0.4786    0.7979 C   0  0  0  0  0  0  0  0  0  0  0  0
    0.7315    0.2503    0.1327 N   0  0  0  0  0  0  0  0  0  0  0  0
    2.1532    0.1571    0.4195 C   0  0  0  0  0  0  0  0  0  0  0  0
    2.8624    1.1028   -0.5524 C   0  0  0  0  0  0  0  0  0  0  0  0
    4.3701    1.0842   -0.3497 C   0  0  0  0  0  0  0  0  0  0  0  0
    5.0451    2.1139   -1.2371 N   0  0  0  0  0  4  0  0  0  0  0  0
    6.4509    2.3995   -0.7782 C   0  0  0  0  0  0  0  0  0  0  0  0
    5.0198    1.7574   -2.7008 C   0  0  0  0  0  0  0  0  0  0  0  0
   -1.4458   -0.3756    0.4987 N   0  0  0  0  0  0  0  0  0  0  0  0
   -2.5453   -1.0293    1.0207 C   0  0  0  0  0  0  0  0  0  0  0  0
   -3.8008   -0.9453    0.7313 N   0  0  0  0  0  0  0  0  0  0  0  0
   -4.1844   -0.0516   -0.2792 C   0  0  0  0  0  0  0  0  0  0  0  0
   -4.5915    1.2394    0.0817 C   0  0  0  0  0  0  0  0  0  0  0  0
   -4.9610    2.1704   -0.8899 C   0  0  0  0  0  0  0  0  0  0  0  0
   -4.9235    1.8021   -2.2284 C   0  0  0  0  0  0  0  0  0  0  0  0
   -5.2652    2.6777   -3.2152 O   0  0  0  0  0  0  0  0  0  0  0  0
   -4.5386    0.5197   -2.6067 C   0  0  0  0  0  0  0  0  0  0  0  0
   -4.1847   -0.4281   -1.6347 C   0  0  0  0  0  0  0  0  0  0  0  0
   -3.7928   -1.8161   -2.0559 C   0  0  0  0  0  0  0  0  0  0  0  0
   -2.1473   -1.9489    2.0577 C   0  0  0  0  0  0  0  0  0  0  0  0
   -2.8234   -2.8417    2.9011 C   0  0  0  0  0  0  0  0  0  0  0  0
   -1.9860   -3.4943    3.7205 N   0  0  0  0  0  0  0  0  0  0  0  0
   -0.7645   -3.0116    3.3950 N   0  0  0  0  0  0  0  0  0  0  0  0
    0.3852   -3.5150    4.1030 C   0  0  0  0  0  0  0  0  0  0  0  0
   -0.8227   -2.0826    2.3989 C   0  0  0  0  0  0  0  0  0  0  0  0
    1.1434   -1.5104    2.0801 H   0  0  0  0  0  0  0  0  0  0  0  0
    2.3614    0.4612    1.4518 H   0  0  0  0  0  0  0  0  0  0  0  0
    2.5162   -0.8662    0.2684 H   0  0  0  0  0  0  0  0  0  0  0  0
    2.4778    2.1216   -0.4149 H   0  0  0  0  0  0  0  0  0  0  0  0
    2.6082    0.8075   -1.5769 H   0  0  0  0  0  0  0  0  0  0  0  0
    4.6107    1.3508    0.6855 H   0  0  0  0  0  0  0  0  0  0  0  0
    4.8093    0.1073   -0.5794 H   0  0  0  0  0  0  0  0  0  0  0  0
    4.5226    2.9954   -1.1365 H   0  0  0  0  0  0  0  0  0  0  0  0
    6.8625    3.1895   -1.4120 H   0  0  0  0  0  0  0  0  0  0  0  0
    7.0375    1.4808   -0.8629 H   0  0  0  0  0  0  0  0  0  0  0  0
    6.4067    2.7442    0.2582 H   0  0  0  0  0  0  0  0  0  0  0  0
    5.5122    0.7904   -2.8327 H   0  0  0  0  0  0  0  0  0  0  0  0
    3.9810    1.7225   -3.0341 H   0  0  0  0  0  0  0  0  0  0  0  0
    5.5478    2.5416   -3.2504 H   0  0  0  0  0  0  0  0  0  0  0  0
   -1.6476    0.2822   -0.2405 H   0  0  0  0  0  0  0  0  0  0  0  0
   -4.6247    1.5149    1.1331 H   0  0  0  0  0  0  0  0  0  0  0  0
   -5.2725    3.1641   -0.5845 H   0  0  0  0  0  0  0  0  0  0  0  0
   -5.6608    3.4672   -2.8095 H   0  0  0  0  0  0  0  0  0  0  0  0
   -4.5358    0.2582   -3.6623 H   0  0  0  0  0  0  0  0  0  0  0  0
   -2.7102   -1.9469   -1.9638 H   0  0  0  0  0  0  0  0  0  0  0  0
   -4.3030   -2.5655   -1.4421 H   0  0  0  0  0  0  0  0  0  0  0  0
   -4.0715   -2.0095   -3.0973 H   0  0  0  0  0  0  0  0  0  0  0  0
   -3.8858   -3.0451    2.9545 H   0  0  0  0  0  0  0  0  0  0  0  0
    1.2880   -3.0057    3.7603 H   0  0  0  0  0  0  0  0  0  0  0  0
    0.4674   -4.5871    3.9071 H   0  0  0  0  0  0  0  0  0  0  0  0
    0.2411   -3.3310    5.1707 H   0  0  0  0  0  0  0  0  0  0  0  0
  1  2  1  0
  2  3  2  3
  3  4  1  0
  4  5  1  0
  5  6  1  0
  6  7  1  0
  7  8  1  0
  7  9  1  0
  2 10  1  0
 10 11  1  0
 11 12  2  3
 12 13  1  0
 13 14  2  0
 14 15  1  0
 15 16  2  0
 16 17  1  0
 16 18  1  0
 18 19  2  0
 19 20  1  0
 11 21  1  0
 21 22  1  0
 22 23  2  0
 23 24  1  0
 24 25  1  0
 24 26  1  0
 26  1  1  0
 19 13  1  0
 26 21  2  0
  1 27  1  0
  4 28  1  0
  4 29  1  0
  5 30  1  0
  5 31  1  0
  6 32  1  0
  6 33  1  0
  7 34  1  0
  8 35  1  0
  8 36  1  0
  8 37  1  0
  9 38  1  0
  9 39  1  0
  9 40  1  0
 10 41  1  0
 14 42  1  0
 15 43  1  0
 17 44  1  0
 18 45  1  0
 20 46  1  0
 20 47  1  0
 20 48  1  0
 22 49  1  0
 25 50  1  0
 25 51  1  0
 25 52  1  0
M  CHG  1   7   1
M  END
>  <ScrubInfo>  (9) 
{"isomerGroup": 0, "isomerId": 8, "confId": 0, "nr_conformers:": 1, "nr_isomers:": 9}

$$$$
