_i0
     RDKit          3D

 43 45  0  0  0  0  0  0  0  0999 V2000
    5.4222    2.6247   -1.5444 C   0  0  0  0  0  0  0  0  0  0  0  0
    4.9641    1.3681   -0.8552 C   0  0  0  0  0  0  0  0  0  0  0  0
    5.7464    0.6044   -0.2994 O   0  0  0  0  0  0  0  0  0  0  0  0
    3.6055    1.1662   -0.8876 N   0  0  0  0  0  0  0  0  0  0  0  0
    2.9914    0.0203   -0.2418 C   0  0  0  0  0  0  0  0  0  0  0  0
    2.9208    0.1574    1.2904 C   0  0  0  0  0  0  0  0  0  0  0  0
    2.2145   -0.9519    1.9208 N   0  0  0  0  0  0  0  0  0  0  0  0
    0.8590   -1.0494    1.6482 C   0  0  0  0  0  0  0  0  0  0  0  0
    0.1409    0.0754    1.4700 N   0  0  0  0  0  0  0  0  0  0  0  0
   -1.1772    0.0067    1.1604 C   0  0  0  0  0  0  0  0  0  0  0  0
   -1.8328    1.2478    0.9842 N   0  0  0  0  0  0  0  0  0  0  0  0
   -2.6720    1.5246   -0.1249 C   0  0  0  0  0  0  0  0  0  0  0  0
   -4.0608    1.4643    0.0532 C   0  0  0  0  0  0  0  0  0  0  0  0
   -4.9257    1.6819   -1.0217 C   0  0  0  0  0  0  0  0  0  0  0  0
   -4.4051    1.9579   -2.2844 C   0  0  0  0  0  0  0  0  0  0  0  0
   -5.4731    2.2255   -3.6061 Cl  0  0  0  0  0  0  0  0  0  0  0  0
   -3.0287    2.0224   -2.4856 C   0  0  0  0  0  0  0  0  0  0  0  0
   -2.1660    1.8050   -1.4095 C   0  0  0  0  0  0  0  0  0  0  0  0
   -0.4630    1.9203   -1.6933 Cl  0  0  0  0  0  0  0  0  0  0  0  0
   -1.7540   -1.2588    1.0415 C   0  0  0  0  0  0  0  0  0  0  0  0
   -3.0081   -1.8390    0.7640 C   0  0  0  0  0  0  0  0  0  0  0  0
   -2.9823   -3.1769    0.7838 N   0  0  0  0  0  0  0  0  0  0  0  0
   -1.6948   -3.4555    1.0907 N   0  0  0  0  0  0  0  0  0  0  0  0
   -1.2771   -4.8292    1.2161 C   0  0  0  0  0  0  0  0  0  0  0  0
   -0.9187   -2.3402    1.2502 C   0  0  0  0  0  0  0  0  0  0  0  0
    0.3887   -2.2968    1.5478 N   0  0  0  0  0  0  0  0  0  0  0  0
    5.7343    3.3522   -0.7907 H   0  0  0  0  0  0  0  0  0  0  0  0
    6.2647    2.3860   -2.1995 H   0  0  0  0  0  0  0  0  0  0  0  0
    4.6280    3.0636   -2.1546 H   0  0  0  0  0  0  0  0  0  0  0  0
    2.9986    1.8790   -1.2728 H   0  0  0  0  0  0  0  0  0  0  0  0
    1.9942   -0.0844   -0.6804 H   0  0  0  0  0  0  0  0  0  0  0  0
    3.5623   -0.8776   -0.5067 H   0  0  0  0  0  0  0  0  0  0  0  0
    2.4720    1.1191    1.5704 H   0  0  0  0  0  0  0  0  0  0  0  0
    3.9380    0.1793    1.6984 H   0  0  0  0  0  0  0  0  0  0  0  0
    2.6236   -1.8674    1.7688 H   0  0  0  0  0  0  0  0  0  0  0  0
   -1.0425    1.8984    0.9791 H   0  0  0  0  0  0  0  0  0  0  0  0
   -4.4723    1.2528    1.0383 H   0  0  0  0  0  0  0  0  0  0  0  0
   -6.0009    1.6348   -0.8663 H   0  0  0  0  0  0  0  0  0  0  0  0
   -2.6313    2.2418   -3.4727 H   0  0  0  0  0  0  0  0  0  0  0  0
   -3.9465   -1.3484    0.5472 H   0  0  0  0  0  0  0  0  0  0  0  0
   -1.8713   -5.2986    2.0042 H   0  0  0  0  0  0  0  0  0  0  0  0
   -1.4484   -5.3289    0.2593 H   0  0  0  0  0  0  0  0  0  0  0  0
   -0.2169   -4.8768    1.4742 H   0  0  0  0  0  0  0  0  0  0  0  0
  1  2  1  0
  2  3  2  0
  2  4  1  0
  4  5  1  0
  5  6  1  0
  6  7  1  0
  7  8  1  0
  8  9  2  0
  9 10  1  0
 10 11  1  0
 11 12  1  0
 12 13  2  0
 13 14  1  0
 14 15  2  0
 15 16  1  0
 15 17  1  0
 17 18  2  0
 18 19  1  0
 10 20  2  0
 20 21  1  0
 21 22  2  0
 22 23  1  0
 23 24  1  0
 23 25  1  0
 25 26  2  0
 26  8  1  0
 18 12  1  0
 25 20  1  0
  1 27  1  0
  1 28  1  0
  1 29  1  0
  4 30  1  0
  5 31  1  0
  5 32  1  0
  6 33  1  0
  6 34  1  0
  7 35  1  0
 11 36  1  0
 13 37  1  0
 14 38  1  0
 17 39  1  0
 21 40  1  0
 24 41  1  0
 24 42  1  0
 24 43  1  0
M  END
>  <ScrubInfo>  (1) 
{"isomerGroup": 0, "isomerId": 0, "confId": 0, "nr_conformers:": 1, "nr_isomers:": 9}

$$$$
_i1
     RDKit          3D

 43 45  0  0  0  0  0  0  0  0999 V2000
   -0.2704   -0.9572   -0.1090 N   0  0  0  0  0  0  0  0  0  0  0  0
    1.0738   -1.1800   -0.3769 C   0  0  0  0  0  0  0  0  0  0  0  0
    1.8826   -0.2199   -0.9538 N   0  0  0  0  0  0  0  0  0  0  0  0
    2.0283    1.1376   -0.5751 C   0  0  0  0  0  0  0  0  0  0  0  0
    1.4085    1.6773    0.5612 C   0  0  0  0  0  0  0  0  0  0  0  0
    1.5269    3.0364    0.8721 C   0  0  0  0  0  0  0  0  0  0  0  0
    2.2627    3.8777    0.0431 C   0  0  0  0  0  0  0  0  0  0  0  0
    2.3952    5.5494    0.4254 Cl  0  0  0  0  0  0  0  0  0  0  0  0
    2.8912    3.3751   -1.0902 C   0  0  0  0  0  0  0  0  0  0  0  0
    2.7708    2.0168   -1.3940 C   0  0  0  0  0  0  0  0  0  0  0  0
    3.5819    1.4267   -2.8070 Cl  0  0  0  0  0  0  0  0  0  0  0  0
    1.5190   -2.4090   -0.0936 C   0  0  0  0  0  0  0  0  0  0  0  0
    2.7708   -3.1664   -0.1965 C   0  0  0  0  0  0  0  0  0  0  0  0
    2.6771   -4.3817    0.2800 N   0  0  0  0  0  0  0  0  0  0  0  0
    1.3671   -4.4846    0.7774 N   0  0  0  0  0  0  0  0  0  0  0  0
    0.8345   -5.7909    1.0818 C   0  0  0  0  0  0  0  0  0  0  0  0
    0.5886   -3.3625    0.5404 C   0  0  0  0  0  0  0  0  0  0  0  0
   -0.6561   -3.1437    0.7849 N   0  0  0  0  0  0  0  0  0  0  0  0
   -1.1351   -1.9110    0.3937 C   0  0  0  0  0  0  0  0  0  0  0  0
   -2.4076   -1.8132    0.5563 N   0  0  0  0  0  0  0  0  0  0  0  0
   -3.0966   -0.6072    0.1156 C   0  0  0  0  0  0  0  0  0  0  0  0
   -2.9448    0.5253    1.1370 C   0  0  0  0  0  0  0  0  0  0  0  0
   -3.1794    1.8352    0.5580 N   0  0  0  0  0  0  0  0  0  0  0  0
   -2.3183    2.3568   -0.3778 C   0  0  0  0  0  0  0  0  0  0  0  0
   -2.6595    3.7437   -0.8476 C   0  0  0  0  0  0  0  0  0  0  0  0
   -1.3518    1.7338   -0.8105 O   0  0  0  0  0  0  0  0  0  0  0  0
   -0.6350   -0.0718   -0.4595 H   0  0  0  0  0  0  0  0  0  0  0  0
    2.7163   -0.5623   -1.4263 H   0  0  0  0  0  0  0  0  0  0  0  0
    0.8247    1.0506    1.2300 H   0  0  0  0  0  0  0  0  0  0  0  0
    1.0344    3.4272    1.7589 H   0  0  0  0  0  0  0  0  0  0  0  0
    3.4669    4.0331   -1.7347 H   0  0  0  0  0  0  0  0  0  0  0  0
    3.6674   -2.7243   -0.6490 H   0  0  0  0  0  0  0  0  0  0  0  0
    0.4461   -6.2649    0.1750 H   0  0  0  0  0  0  0  0  0  0  0  0
    0.0237   -5.7212    1.8139 H   0  0  0  0  0  0  0  0  0  0  0  0
    1.6108   -6.4366    1.5049 H   0  0  0  0  0  0  0  0  0  0  0  0
   -4.1631   -0.8390    0.0060 H   0  0  0  0  0  0  0  0  0  0  0  0
   -2.7710   -0.3253   -0.8919 H   0  0  0  0  0  0  0  0  0  0  0  0
   -1.9400    0.5399    1.5734 H   0  0  0  0  0  0  0  0  0  0  0  0
   -3.6551    0.3912    1.9599 H   0  0  0  0  0  0  0  0  0  0  0  0
   -3.9710    2.3757    0.8825 H   0  0  0  0  0  0  0  0  0  0  0  0
   -3.4835    4.1752   -0.2729 H   0  0  0  0  0  0  0  0  0  0  0  0
   -2.9485    3.7026   -1.9011 H   0  0  0  0  0  0  0  0  0  0  0  0
   -1.7823    4.3856   -0.7289 H   0  0  0  0  0  0  0  0  0  0  0  0
  1  2  1  0
  2  3  1  0
  3  4  1  0
  4  5  2  0
  5  6  1  0
  6  7  2  0
  7  8  1  0
  7  9  1  0
  9 10  2  0
 10 11  1  0
  2 12  2  0
 12 13  1  0
 13 14  2  0
 14 15  1  0
 15 16  1  0
 15 17  1  0
 17 18  2  0
 18 19  1  0
 19 20  2  3
 20 21  1  0
 21 22  1  0
 22 23  1  0
 23 24  1  0
 24 25  1  0
 24 26  2  0
 19  1  1  0
 10  4  1  0
 17 12  1  0
  1 27  1  0
  3 28  1  0
  5 29  1  0
  6 30  1  0
  9 31  1  0
 13 32  1  0
 16 33  1  0
 16 34  1  0
 16 35  1  0
 21 36  1  0
 21 37  1  0
 22 38  1  0
 22 39  1  0
 23 40  1  0
 25 41  1  0
 25 42  1  0
 25 43  1  0
M  END
>  <ScrubInfo>  (2) 
{"isomerGroup": 0, "isomerId": 1, "confId": 0, "nr_conformers:": 1, "nr_isomers:": 9}

$$$$
_i2
     RDKit          3D

 43 45  0  0  0  0  0  0  0  0999 V2000
    0.7873    0.6334    0.0789 N   0  0  0  0  0  0  0  0  0  0  0  0
    1.2592    1.6791   -0.6798 C   0  0  0  0  0  0  0  0  0  0  0  0
    2.6050    1.8459   -0.8028 N   0  0  0  0  0  0  0  0  0  0  0  0
    3.6642    0.9507   -0.4007 C   0  0  0  0  0  0  0  0  0  0  0  0
    3.7073   -0.3081   -1.2868 C   0  0  0  0  0  0  0  0  0  0  0  0
    4.2108   -1.4855   -0.6000 N   0  0  0  0  0  0  0  0  0  0  0  0
    3.4830   -2.0316    0.4359 C   0  0  0  0  0  0  0  0  0  0  0  0
    3.9915   -3.3563    0.9337 C   0  0  0  0  0  0  0  0  0  0  0  0
    2.4994   -1.4758    0.9172 O   0  0  0  0  0  0  0  0  0  0  0  0
    0.4835    2.5360   -1.3025 N   0  0  0  0  0  0  0  0  0  0  0  0
   -0.8351    2.2633   -1.1025 C   0  0  0  0  0  0  0  0  0  0  0  0
   -1.4023    1.2344   -0.3680 C   0  0  0  0  0  0  0  0  0  0  0  0
   -2.7870    1.4456   -0.4925 C   0  0  0  0  0  0  0  0  0  0  0  0
   -3.0868    2.5127   -1.2437 N   0  0  0  0  0  0  0  0  0  0  0  0
   -1.8754    2.9911   -1.6073 N   0  0  0  0  0  0  0  0  0  0  0  0
   -1.8005    4.1669   -2.4369 C   0  0  0  0  0  0  0  0  0  0  0  0
   -0.5288    0.2862    0.2982 C   0  0  0  0  0  0  0  0  0  0  0  0
   -0.8615   -0.7499    1.0064 N   0  0  0  0  0  0  0  0  0  0  0  0
   -2.1909   -1.1397    1.2016 C   0  0  0  0  0  0  0  0  0  0  0  0
   -2.8460   -0.7238    2.3674 C   0  0  0  0  0  0  0  0  0  0  0  0
   -4.1588   -1.1236    2.6278 C   0  0  0  0  0  0  0  0  0  0  0  0
   -4.8184   -1.9582    1.7277 C   0  0  0  0  0  0  0  0  0  0  0  0
   -6.4348   -2.4508    2.0507 Cl  0  0  0  0  0  0  0  0  0  0  0  0
   -4.1791   -2.4020    0.5728 C   0  0  0  0  0  0  0  0  0  0  0  0
   -2.8658   -2.0003    0.3160 C   0  0  0  0  0  0  0  0  0  0  0  0
   -2.1028   -2.5826   -1.1225 Cl  0  0  0  0  0  0  0  0  0  0  0  0
    1.4432   -0.0253    0.4923 H   0  0  0  0  0  0  0  0  0  0  0  0
    2.8580    2.5961   -1.4371 H   0  0  0  0  0  0  0  0  0  0  0  0
    4.6240    1.4739   -0.4875 H   0  0  0  0  0  0  0  0  0  0  0  0
    3.5598    0.7198    0.6639 H   0  0  0  0  0  0  0  0  0  0  0  0
    4.3575   -0.1294   -2.1504 H   0  0  0  0  0  0  0  0  0  0  0  0
    2.7151   -0.5641   -1.6760 H   0  0  0  0  0  0  0  0  0  0  0  0
    4.8299   -2.1006   -1.1139 H   0  0  0  0  0  0  0  0  0  0  0  0
    4.0888   -3.3152    2.0220 H   0  0  0  0  0  0  0  0  0  0  0  0
    3.2815   -4.1392    0.6548 H   0  0  0  0  0  0  0  0  0  0  0  0
    4.9705   -3.5973    0.5104 H   0  0  0  0  0  0  0  0  0  0  0  0
   -3.6091    0.8841   -0.0738 H   0  0  0  0  0  0  0  0  0  0  0  0
   -2.4188    4.0045   -3.3237 H   0  0  0  0  0  0  0  0  0  0  0  0
   -0.7672    4.3492   -2.7399 H   0  0  0  0  0  0  0  0  0  0  0  0
   -2.1758    5.0163   -1.8606 H   0  0  0  0  0  0  0  0  0  0  0  0
   -2.3240   -0.0852    3.0763 H   0  0  0  0  0  0  0  0  0  0  0  0
   -4.6546   -0.7858    3.5344 H   0  0  0  0  0  0  0  0  0  0  0  0
   -4.6959   -3.0591   -0.1210 H   0  0  0  0  0  0  0  0  0  0  0  0
  1  2  1  0
  2  3  1  0
  3  4  1  0
  4  5  1  0
  5  6  1  0
  6  7  1  0
  7  8  1  0
  7  9  2  0
  2 10  2  0
 10 11  1  0
 11 12  2  0
 12 13  1  0
 13 14  2  0
 14 15  1  0
 15 16  1  0
 12 17  1  0
 17 18  2  3
 18 19  1  0
 19 20  2  0
 20 21  1  0
 21 22  2  0
 22 23  1  0
 22 24  1  0
 24 25  2  0
 25 26  1  0
 17  1  1  0
 25 19  1  0
 15 11  1  0
  1 27  1  0
  3 28  1  0
  4 29  1  0
  4 30  1  0
  5 31  1  0
  5 32  1  0
  6 33  1  0
  8 34  1  0
  8 35  1  0
  8 36  1  0
 13 37  1  0
 16 38  1  0
 16 39  1  0
 16 40  1  0
 20 41  1  0
 21 42  1  0
 24 43  1  0
M  END
>  <ScrubInfo>  (3) 
{"isomerGroup": 0, "isomerId": 2, "confId": 0, "nr_conformers:": 1, "nr_isomers:": 9}

$$$$
_i3
     RDKit          3D

 43 45  0  0  0  0  0  0  0  0999 V2000
    0.0928   -2.8519   -0.8740 N   0  0  0  0  0  0  0  0  0  0  0  0
    0.4509   -1.5580   -0.5726 C   0  0  0  0  0  0  0  0  0  0  0  0
    1.6999   -1.2354   -0.6654 N   0  0  0  0  0  0  0  0  0  0  0  0
    2.0560    0.1469   -0.3402 C   0  0  0  0  0  0  0  0  0  0  0  0
    3.5670    0.3240   -0.5026 C   0  0  0  0  0  0  0  0  0  0  0  0
    3.9809    1.7009   -0.2878 N   0  0  0  0  0  0  0  0  0  0  0  0
    5.2926    2.0017    0.0056 C   0  0  0  0  0  0  0  0  0  0  0  0
    5.5867    3.4778    0.0391 C   0  0  0  0  0  0  0  0  0  0  0  0
    6.1616    1.1622    0.2135 O   0  0  0  0  0  0  0  0  0  0  0  0
   -0.4856   -0.6143   -0.1828 N   0  0  0  0  0  0  0  0  0  0  0  0
   -1.7438   -0.9408   -0.0938 C   0  0  0  0  0  0  0  0  0  0  0  0
   -2.7964   -0.1378    0.2663 N   0  0  0  0  0  0  0  0  0  0  0  0
   -2.8007    1.2103    0.6883 C   0  0  0  0  0  0  0  0  0  0  0  0
   -1.6371    1.9329    0.9791 C   0  0  0  0  0  0  0  0  0  0  0  0
   -1.6977    3.2714    1.3869 C   0  0  0  0  0  0  0  0  0  0  0  0
   -2.9284    3.9089    1.5090 C   0  0  0  0  0  0  0  0  0  0  0  0
   -2.9942    5.5529    2.0086 Cl  0  0  0  0  0  0  0  0  0  0  0  0
   -4.1037    3.2226    1.2313 C   0  0  0  0  0  0  0  0  0  0  0  0
   -4.0346    1.8873    0.8265 C   0  0  0  0  0  0  0  0  0  0  0  0
   -5.5232    1.0635    0.4912 Cl  0  0  0  0  0  0  0  0  0  0  0  0
   -2.1575   -2.2986   -0.4062 C   0  0  0  0  0  0  0  0  0  0  0  0
   -3.3473   -3.0463   -0.4349 C   0  0  0  0  0  0  0  0  0  0  0  0
   -3.1456   -4.3180   -0.8117 N   0  0  0  0  0  0  0  0  0  0  0  0
   -1.8079   -4.3875   -1.0210 N   0  0  0  0  0  0  0  0  0  0  0  0
   -1.2251   -5.6368   -1.4402 C   0  0  0  0  0  0  0  0  0  0  0  0
   -1.1983   -3.1976   -0.7861 C   0  0  0  0  0  0  0  0  0  0  0  0
    0.8598   -3.4548   -1.1408 H   0  0  0  0  0  0  0  0  0  0  0  0
    1.5394    0.8452   -1.0108 H   0  0  0  0  0  0  0  0  0  0  0  0
    1.7795    0.3905    0.6932 H   0  0  0  0  0  0  0  0  0  0  0  0
    4.1036   -0.3305    0.1940 H   0  0  0  0  0  0  0  0  0  0  0  0
    3.8798    0.0459   -1.5159 H   0  0  0  0  0  0  0  0  0  0  0  0
    3.4277    2.4230   -0.7299 H   0  0  0  0  0  0  0  0  0  0  0  0
    6.2098    3.6990    0.9101 H   0  0  0  0  0  0  0  0  0  0  0  0
    4.6697    4.0687    0.1173 H   0  0  0  0  0  0  0  0  0  0  0  0
    6.1166    3.7582   -0.8749 H   0  0  0  0  0  0  0  0  0  0  0  0
   -3.7353   -0.5088    0.1725 H   0  0  0  0  0  0  0  0  0  0  0  0
   -0.6560    1.4728    0.9102 H   0  0  0  0  0  0  0  0  0  0  0  0
   -0.7763    3.8045    1.6095 H   0  0  0  0  0  0  0  0  0  0  0  0
   -5.0646    3.7197    1.3285 H   0  0  0  0  0  0  0  0  0  0  0  0
   -4.3578   -2.7381   -0.2010 H   0  0  0  0  0  0  0  0  0  0  0  0
   -1.4260   -6.3857   -0.6701 H   0  0  0  0  0  0  0  0  0  0  0  0
   -0.1474   -5.5201   -1.5713 H   0  0  0  0  0  0  0  0  0  0  0  0
   -1.6838   -5.9298   -2.3879 H   0  0  0  0  0  0  0  0  0  0  0  0
  1  2  1  0
  2  3  2  3
  3  4  1  0
  4  5  1  0
  5  6  1  0
  6  7  1  0
  7  8  1  0
  7  9  2  0
  2 10  1  0
 10 11  2  0
 11 12  1  0
 12 13  1  0
 13 14  2  0
 14 15  1  0
 15 16  2  0
 16 17  1  0
 16 18  1  0
 18 19  2  0
 19 20  1  0
 11 21  1  0
 21 22  1  0
 22 23  2  0
 23 24  1  0
 24 25  1  0
 24 26  1  0
 26  1  1  0
 19 13  1  0
 26 21  2  0
  1 27  1  0
  4 28  1  0
  4 29  1  0
  5 30  1  0
  5 31  1  0
  6 32  1  0
  8 33  1  0
  8 34  1  0
  8 35  1  0
 12 36  1  0
 14 37  1  0
 15 38  1  0
 18 39  1  0
 22 40  1  0
 25 41  1  0
 25 42  1  0
 25 43  1  0
M  END
>  <ScrubInfo>  (4) 
{"isomerGroup": 0, "isomerId": 3, "confId": 0, "nr_conformers:": 1, "nr_isomers:": 9}

$$$$
_i4
     RDKit          3D

 43 45  0  0  0  0  0  0  0  0999 V2000
   -2.4290    0.4344   -2.5553 N   0  0  0  0  0  0  0  0  0  0  0  0
   -2.8508    0.1909   -1.2528 C   0  0  0  0  0  0  0  0  0  0  0  0
   -1.8512    0.1909   -0.3572 C   0  0  0  0  0  0  0  0  0  0  0  0
   -1.6434   -0.0213    1.0698 C   0  0  0  0  0  0  0  0  0  0  0  0
   -2.4845   -0.2703    2.0178 N   0  0  0  0  0  0  0  0  0  0  0  0
   -3.8548   -0.3968    1.7590 C   0  0  0  0  0  0  0  0  0  0  0  0
   -4.6755    0.7197    1.9623 C   0  0  0  0  0  0  0  0  0  0  0  0
   -6.0541    0.6394    1.7534 C   0  0  0  0  0  0  0  0  0  0  0  0
   -6.6226   -0.5680    1.3529 C   0  0  0  0  0  0  0  0  0  0  0  0
   -8.3197   -0.6641    1.0897 Cl  0  0  0  0  0  0  0  0  0  0  0  0
   -5.8293   -1.6968    1.1643 C   0  0  0  0  0  0  0  0  0  0  0  0
   -4.4504   -1.6124    1.3746 C   0  0  0  0  0  0  0  0  0  0  0  0
   -3.5026   -3.0359    1.1233 Cl  0  0  0  0  0  0  0  0  0  0  0  0
   -0.3330    0.0601    1.4586 N   0  0  0  0  0  0  0  0  0  0  0  0
    0.6408    0.3255    0.6396 C   0  0  0  0  0  0  0  0  0  0  0  0
    1.8891    0.3591    1.1901 N   0  0  0  0  0  0  0  0  0  0  0  0
    3.0897    0.1156    0.4124 C   0  0  0  0  0  0  0  0  0  0  0  0
    4.3350    0.4772    1.2339 C   0  0  0  0  0  0  0  0  0  0  0  0
    5.5698    0.3849    0.4756 N   0  0  0  0  0  0  0  0  0  0  0  0
    6.1292   -0.8303    0.1604 C   0  0  0  0  0  0  0  0  0  0  0  0
    7.3905   -0.7410   -0.6552 C   0  0  0  0  0  0  0  0  0  0  0  0
    5.6404   -1.9044    0.4935 O   0  0  0  0  0  0  0  0  0  0  0  0
    0.5066    0.5726   -0.6994 N   0  0  0  0  0  0  0  0  0  0  0  0
   -0.6816    0.5287   -1.1915 C   0  0  0  0  0  0  0  0  0  0  0  0
   -1.0827    0.7626   -2.5080 N   0  0  0  0  0  0  0  0  0  0  0  0
   -0.2287    0.3932   -3.6210 C   0  0  0  0  0  0  0  0  0  0  0  0
   -3.0338    1.0806   -3.0675 H   0  0  0  0  0  0  0  0  0  0  0  0
   -3.9043    0.0286   -1.0845 H   0  0  0  0  0  0  0  0  0  0  0  0
   -4.2320    1.6553    2.2964 H   0  0  0  0  0  0  0  0  0  0  0  0
   -6.6753    1.5168    1.9154 H   0  0  0  0  0  0  0  0  0  0  0  0
   -6.2796   -2.6380    0.8610 H   0  0  0  0  0  0  0  0  0  0  0  0
    1.8776   -0.0676    2.1108 H   0  0  0  0  0  0  0  0  0  0  0  0
    3.1234   -0.9356    0.1054 H   0  0  0  0  0  0  0  0  0  0  0  0
    3.0844    0.7235   -0.5003 H   0  0  0  0  0  0  0  0  0  0  0  0
    4.2633    1.5067    1.6020 H   0  0  0  0  0  0  0  0  0  0  0  0
    4.4124   -0.1820    2.1067 H   0  0  0  0  0  0  0  0  0  0  0  0
    5.9617    1.2335    0.0883 H   0  0  0  0  0  0  0  0  0  0  0  0
    7.7933    0.2755   -0.6661 H   0  0  0  0  0  0  0  0  0  0  0  0
    8.1447   -1.4030   -0.2206 H   0  0  0  0  0  0  0  0  0  0  0  0
    7.1752   -1.0494   -1.6815 H   0  0  0  0  0  0  0  0  0  0  0  0
    0.7548    0.8644   -3.5250 H   0  0  0  0  0  0  0  0  0  0  0  0
   -0.0946   -0.6927   -3.6654 H   0  0  0  0  0  0  0  0  0  0  0  0
   -0.6686    0.7285   -4.5658 H   0  0  0  0  0  0  0  0  0  0  0  0
  1  2  1  0
  2  3  2  0
  3  4  1  0
  4  5  2  3
  5  6  1  0
  6  7  2  0
  7  8  1  0
  8  9  2  0
  9 10  1  0
  9 11  1  0
 11 12  2  0
 12 13  1  0
  4 14  1  0
 14 15  2  0
 15 16  1  0
 16 17  1  0
 17 18  1  0
 18 19  1  0
 19 20  1  0
 20 21  1  0
 20 22  2  0
 15 23  1  0
 23 24  2  0
 24 25  1  0
 25 26  1  0
 25  1  1  0
 24  3  1  0
 12  6  1  0
  1 27  1  0
  2 28  1  0
  7 29  1  0
  8 30  1  0
 11 31  1  0
 16 32  1  0
 17 33  1  0
 17 34  1  0
 18 35  1  0
 18 36  1  0
 19 37  1  0
 21 38  1  0
 21 39  1  0
 21 40  1  0
 26 41  1  0
 26 42  1  0
 26 43  1  0
M  END
>  <ScrubInfo>  (5) 
{"isomerGroup": 0, "isomerId": 4, "confId": 0, "nr_conformers:": 1, "nr_isomers:": 9}

$$$$
_i5
     RDKit          3D

 43 45  0  0  0  0  0  0  0  0999 V2000
    0.7168   -0.2211    0.8129 N   0  0  0  0  0  0  0  0  0  0  0  0
   -0.0823    0.6192    0.0686 C   0  0  0  0  0  0  0  0  0  0  0  0
    0.5162    1.6777   -0.5433 N   0  0  0  0  0  0  0  0  0  0  0  0
    1.9280    1.9345   -0.7060 C   0  0  0  0  0  0  0  0  0  0  0  0
    2.5736    0.9448   -1.6922 C   0  0  0  0  0  0  0  0  0  0  0  0
    3.9781    0.6926   -1.4147 N   0  0  0  0  0  0  0  0  0  0  0  0
    4.3488   -0.0099   -0.2891 C   0  0  0  0  0  0  0  0  0  0  0  0
    5.8140   -0.3415   -0.2119 C   0  0  0  0  0  0  0  0  0  0  0  0
    3.5511   -0.3401    0.5858 O   0  0  0  0  0  0  0  0  0  0  0  0
   -1.3745    0.4811   -0.0940 N   0  0  0  0  0  0  0  0  0  0  0  0
   -2.0247   -0.5911    0.5050 C   0  0  0  0  0  0  0  0  0  0  0  0
   -3.2970   -0.8146    0.4050 N   0  0  0  0  0  0  0  0  0  0  0  0
   -4.0572    0.0737   -0.3759 C   0  0  0  0  0  0  0  0  0  0  0  0
   -4.7692    1.0900    0.2740 C   0  0  0  0  0  0  0  0  0  0  0  0
   -5.5539    1.9888   -0.4521 C   0  0  0  0  0  0  0  0  0  0  0  0
   -5.6390    1.8673   -1.8373 C   0  0  0  0  0  0  0  0  0  0  0  0
   -6.6037    2.9763   -2.7320 Cl  0  0  0  0  0  0  0  0  0  0  0  0
   -4.9542    0.8544   -2.5038 C   0  0  0  0  0  0  0  0  0  0  0  0
   -4.1697   -0.0425   -1.7736 C   0  0  0  0  0  0  0  0  0  0  0  0
   -3.3529   -1.2970   -2.6415 Cl  0  0  0  0  0  0  0  0  0  0  0  0
   -1.2228   -1.4988    1.2803 C   0  0  0  0  0  0  0  0  0  0  0  0
   -1.4421   -2.6731    2.0126 C   0  0  0  0  0  0  0  0  0  0  0  0
   -0.3108   -3.1539    2.5573 N   0  0  0  0  0  0  0  0  0  0  0  0
    0.6384   -2.2668    2.1618 N   0  0  0  0  0  0  0  0  0  0  0  0
    2.0109   -2.4522    2.5582 C   0  0  0  0  0  0  0  0  0  0  0  0
    0.1178   -1.2716    1.3988 C   0  0  0  0  0  0  0  0  0  0  0  0
    1.7300   -0.0993    0.8248 H   0  0  0  0  0  0  0  0  0  0  0  0
   -0.1157    2.2020   -1.1393 H   0  0  0  0  0  0  0  0  0  0  0  0
    2.0639    2.9534   -1.0876 H   0  0  0  0  0  0  0  0  0  0  0  0
    2.4159    1.9259    0.2744 H   0  0  0  0  0  0  0  0  0  0  0  0
    2.0644   -0.0256   -1.6871 H   0  0  0  0  0  0  0  0  0  0  0  0
    2.5059    1.3410   -2.7114 H   0  0  0  0  0  0  0  0  0  0  0  0
    4.6280    0.7348   -2.1906 H   0  0  0  0  0  0  0  0  0  0  0  0
    6.3891    0.1900   -0.9752 H   0  0  0  0  0  0  0  0  0  0  0  0
    6.1949   -0.0486    0.7703 H   0  0  0  0  0  0  0  0  0  0  0  0
    5.9447   -1.4174   -0.3537 H   0  0  0  0  0  0  0  0  0  0  0  0
   -4.7029    1.1799    1.3555 H   0  0  0  0  0  0  0  0  0  0  0  0
   -6.0930    2.7751    0.0695 H   0  0  0  0  0  0  0  0  0  0  0  0
   -5.0317    0.7593   -3.5828 H   0  0  0  0  0  0  0  0  0  0  0  0
   -2.3727   -3.2026    2.1712 H   0  0  0  0  0  0  0  0  0  0  0  0
    2.4123   -1.4943    2.8975 H   0  0  0  0  0  0  0  0  0  0  0  0
    2.5687   -2.8228    1.6950 H   0  0  0  0  0  0  0  0  0  0  0  0
    2.0584   -3.1769    3.3752 H   0  0  0  0  0  0  0  0  0  0  0  0
  1  2  1  0
  2  3  1  0
  3  4  1  0
  4  5  1  0
  5  6  1  0
  6  7  1  0
  7  8  1  0
  7  9  2  0
  2 10  2  0
 10 11  1  0
 11 12  2  3
 12 13  1  0
 13 14  2  0
 14 15  1  0
 15 16  2  0
 16 17  1  0
 16 18  1  0
 18 19  2  0
 19 20  1  0
 11 21  1  0
 21 22  1  0
 22 23  2  0
 23 24  1  0
 24 25  1  0
 24 26  1  0
 26  1  1  0
 19 13  1  0
 26 21  2  0
  1 27  1  0
  3 28  1  0
  4 29  1  0
  4 30  1  0
  5 31  1  0
  5 32  1  0
  6 33  1  0
  8 34  1  0
  8 35  1  0
  8 36  1  0
 14 37  1  0
 15 38  1  0
 18 39  1  0
 22 40  1  0
 25 41  1  0
 25 42  1  0
 25 43  1  0
M  END
>  <ScrubInfo>  (6) 
{"isomerGroup": 0, "isomerId": 5, "confId": 0, "nr_conformers:": 1, "nr_isomers:": 9}

$$$$
_i6
     RDKit          3D

 43 45  0  0  0  0  0  0  0  0999 V2000
   -1.2407   -3.9529   -0.3969 N   0  0  0  0  0  0  0  0  0  0  0  0
   -2.1603   -2.9128   -0.3209 C   0  0  0  0  0  0  0  0  0  0  0  0
   -1.5793   -1.7062   -0.2668 C   0  0  0  0  0  0  0  0  0  0  0  0
   -1.9823   -0.2980   -0.2064 C   0  0  0  0  0  0  0  0  0  0  0  0
   -3.3256    0.0154   -0.1506 N   0  0  0  0  0  0  0  0  0  0  0  0
   -3.9793    1.2675   -0.0976 C   0  0  0  0  0  0  0  0  0  0  0  0
   -3.3117    2.4981   -0.0988 C   0  0  0  0  0  0  0  0  0  0  0  0
   -4.0172    3.7075   -0.0411 C   0  0  0  0  0  0  0  0  0  0  0  0
   -5.4067    3.7038    0.0198 C   0  0  0  0  0  0  0  0  0  0  0  0
   -6.2660    5.1916    0.0906 Cl  0  0  0  0  0  0  0  0  0  0  0  0
   -6.1036    2.5025    0.0238 C   0  0  0  0  0  0  0  0  0  0  0  0
   -5.3926    1.3012   -0.0341 C   0  0  0  0  0  0  0  0  0  0  0  0
   -6.3003   -0.1777   -0.0263 Cl  0  0  0  0  0  0  0  0  0  0  0  0
   -1.0264    0.5837   -0.2091 N   0  0  0  0  0  0  0  0  0  0  0  0
    0.2882    0.1876   -0.2806 C   0  0  0  0  0  0  0  0  0  0  0  0
    1.1155    1.1684   -0.3490 N   0  0  0  0  0  0  0  0  0  0  0  0
    2.5491    0.8869   -0.4354 C   0  0  0  0  0  0  0  0  0  0  0  0
    3.1518    0.7289    0.9638 C   0  0  0  0  0  0  0  0  0  0  0  0
    4.5245    0.2545    0.9287 N   0  0  0  0  0  0  0  0  0  0  0  0
    5.5771    1.0965    0.6592 C   0  0  0  0  0  0  0  0  0  0  0  0
    6.9122    0.4050    0.5866 C   0  0  0  0  0  0  0  0  0  0  0  0
    5.4617    2.3031    0.4760 O   0  0  0  0  0  0  0  0  0  0  0  0
    0.7605   -1.1049   -0.2684 N   0  0  0  0  0  0  0  0  0  0  0  0
   -0.1359   -2.0286   -0.2541 C   0  0  0  0  0  0  0  0  0  0  0  0
    0.0314   -3.4140   -0.2360 N   0  0  0  0  0  0  0  0  0  0  0  0
    1.1504   -4.0376   -0.9179 C   0  0  0  0  0  0  0  0  0  0  0  0
   -1.4703   -4.7522    0.1992 H   0  0  0  0  0  0  0  0  0  0  0  0
   -3.2137   -3.1516   -0.3116 H   0  0  0  0  0  0  0  0  0  0  0  0
   -3.9853   -0.7558   -0.1571 H   0  0  0  0  0  0  0  0  0  0  0  0
   -2.2276    2.5577   -0.1459 H   0  0  0  0  0  0  0  0  0  0  0  0
   -3.4657    4.6452   -0.0446 H   0  0  0  0  0  0  0  0  0  0  0  0
   -7.1887    2.4993    0.0715 H   0  0  0  0  0  0  0  0  0  0  0  0
    2.7655    0.0118   -1.0612 H   0  0  0  0  0  0  0  0  0  0  0  0
    3.0305    1.7291   -0.9467 H   0  0  0  0  0  0  0  0  0  0  0  0
    2.5859    0.0027    1.5566 H   0  0  0  0  0  0  0  0  0  0  0  0
    3.1187    1.6868    1.4956 H   0  0  0  0  0  0  0  0  0  0  0  0
    4.6728   -0.7450    0.9171 H   0  0  0  0  0  0  0  0  0  0  0  0
    6.8710   -0.5989    1.0182 H   0  0  0  0  0  0  0  0  0  0  0  0
    7.6477    0.9877    1.1482 H   0  0  0  0  0  0  0  0  0  0  0  0
    7.2203    0.3312   -0.4596 H   0  0  0  0  0  0  0  0  0  0  0  0
    2.0982   -3.6187   -0.5649 H   0  0  0  0  0  0  0  0  0  0  0  0
    1.0807   -3.8849   -2.0000 H   0  0  0  0  0  0  0  0  0  0  0  0
    1.1656   -5.1140   -0.7183 H   0  0  0  0  0  0  0  0  0  0  0  0
  1  2  1  0
  2  3  2  0
  3  4  1  0
  4  5  1  0
  5  6  1  0
  6  7  2  0
  7  8  1  0
  8  9  2  0
  9 10  1  0
  9 11  1  0
 11 12  2  0
 12 13  1  0
  4 14  2  0
 14 15  1  0
 15 16  2  3
 16 17  1  0
 17 18  1  0
 18 19  1  0
 19 20  1  0
 20 21  1  0
 20 22  2  0
 15 23  1  0
 23 24  2  0
 24 25  1  0
 25 26  1  0
 25  1  1  0
 24  3  1  0
 12  6  1  0
  1 27  1  0
  2 28  1  0
  5 29  1  0
  7 30  1  0
  8 31  1  0
 11 32  1  0
 17 33  1  0
 17 34  1  0
 18 35  1  0
 18 36  1  0
 19 37  1  0
 21 38  1  0
 21 39  1  0
 21 40  1  0
 26 41  1  0
 26 42  1  0
 26 43  1  0
M  END
>  <ScrubInfo>  (7) 
{"isomerGroup": 0, "isomerId": 6, "confId": 0, "nr_conformers:": 1, "nr_isomers:": 9}

$$$$
_i7
     RDKit          3D

 43 45  0  0  0  0  0  0  0  0999 V2000
   -2.1367   -0.5571   -2.5191 N   0  0  0  0  0  0  0  0  0  0  0  0
   -2.6841   -0.3128   -1.2654 C   0  0  0  0  0  0  0  0  0  0  0  0
   -1.7686   -0.0396   -0.3248 C   0  0  0  0  0  0  0  0  0  0  0  0
   -1.6743    0.2580    1.1186 C   0  0  0  0  0  0  0  0  0  0  0  0
   -2.6237    0.3793    1.9994 N   0  0  0  0  0  0  0  0  0  0  0  0
   -3.9689    0.1999    1.6474 C   0  0  0  0  0  0  0  0  0  0  0  0
   -4.7335    1.3303    1.3338 C   0  0  0  0  0  0  0  0  0  0  0  0
   -6.0869    1.2075    1.0107 C   0  0  0  0  0  0  0  0  0  0  0  0
   -6.6872   -0.0501    1.0147 C   0  0  0  0  0  0  0  0  0  0  0  0
   -8.3525   -0.1995    0.6108 Cl  0  0  0  0  0  0  0  0  0  0  0  0
   -5.9515   -1.1857    1.3434 C   0  0  0  0  0  0  0  0  0  0  0  0
   -4.5982   -1.0588    1.6663 C   0  0  0  0  0  0  0  0  0  0  0  0
   -3.7195   -2.4920    2.0683 Cl  0  0  0  0  0  0  0  0  0  0  0  0
   -0.3790    0.4174    1.5300 N   0  0  0  0  0  0  0  0  0  0  0  0
    0.7524    0.3207    0.7709 C   0  0  0  0  0  0  0  0  0  0  0  0
    1.8994    0.4530    1.3538 N   0  0  0  0  0  0  0  0  0  0  0  0
    3.0908    0.3313    0.5055 C   0  0  0  0  0  0  0  0  0  0  0  0
    4.3380    0.4356    1.3893 C   0  0  0  0  0  0  0  0  0  0  0  0
    5.5650    0.5365    0.6190 N   0  0  0  0  0  0  0  0  0  0  0  0
    6.1463   -0.5636    0.0344 C   0  0  0  0  0  0  0  0  0  0  0  0
    7.3719   -0.2496   -0.7810 C   0  0  0  0  0  0  0  0  0  0  0  0
    5.7131   -1.7057    0.1405 O   0  0  0  0  0  0  0  0  0  0  0  0
    0.6900    0.0984   -0.5875 N   0  0  0  0  0  0  0  0  0  0  0  0
   -0.4842   -0.0632   -1.1129 C   0  0  0  0  0  0  0  0  0  0  0  0
   -0.7777   -0.2869   -2.4605 N   0  0  0  0  0  0  0  0  0  0  0  0
    0.1283   -1.0517   -3.2984 C   0  0  0  0  0  0  0  0  0  0  0  0
   -2.6525   -0.1223   -3.2874 H   0  0  0  0  0  0  0  0  0  0  0  0
   -3.7571   -0.3655   -1.1641 H   0  0  0  0  0  0  0  0  0  0  0  0
   -4.2688    2.3135    1.3494 H   0  0  0  0  0  0  0  0  0  0  0  0
   -6.6655    2.0954    0.7675 H   0  0  0  0  0  0  0  0  0  0  0  0
   -6.4273   -2.1626    1.3537 H   0  0  0  0  0  0  0  0  0  0  0  0
   -0.2280    0.5730    2.5153 H   0  0  0  0  0  0  0  0  0  0  0  0
    3.1034   -0.6290   -0.0244 H   0  0  0  0  0  0  0  0  0  0  0  0
    3.1100    1.1385   -0.2377 H   0  0  0  0  0  0  0  0  0  0  0  0
    4.2855    1.3295    2.0206 H   0  0  0  0  0  0  0  0  0  0  0  0
    4.4034   -0.4359    2.0510 H   0  0  0  0  0  0  0  0  0  0  0  0
    5.8920    1.4607    0.3726 H   0  0  0  0  0  0  0  0  0  0  0  0
    7.1197   -0.3084   -1.8429 H   0  0  0  0  0  0  0  0  0  0  0  0
    7.7584    0.7494   -0.5606 H   0  0  0  0  0  0  0  0  0  0  0  0
    8.1538   -0.9771   -0.5460 H   0  0  0  0  0  0  0  0  0  0  0  0
    1.1303   -0.6109   -3.2858 H   0  0  0  0  0  0  0  0  0  0  0  0
    0.1962   -2.0885   -2.9528 H   0  0  0  0  0  0  0  0  0  0  0  0
   -0.2224   -1.0529   -4.3356 H   0  0  0  0  0  0  0  0  0  0  0  0
  1  2  1  0
  2  3  2  0
  3  4  1  0
  4  5  2  3
  5  6  1  0
  6  7  2  0
  7  8  1  0
  8  9  2  0
  9 10  1  0
  9 11  1  0
 11 12  2  0
 12 13  1  0
  4 14  1  0
 14 15  1  0
 15 16  2  3
 16 17  1  0
 17 18  1  0
 18 19  1  0
 19 20  1  0
 20 21  1  0
 20 22  2  0
 15 23  1  0
 23 24  2  0
 24 25  1  0
 25 26  1  0
 25  1  1  0
 24  3  1  0
 12  6  1  0
  1 27  1  0
  2 28  1  0
  7 29  1  0
  8 30  1  0
 11 31  1  0
 14 32  1  0
 17 33  1  0
 17 34  1  0
 18 35  1  0
 18 36  1  0
 19 37  1  0
 21 38  1  0
 21 39  1  0
 21 40  1  0
 26 41  1  0
 26 42  1  0
 26 43  1  0
M  END
>  <ScrubInfo>  (8) 
{"isomerGroup": 0, "isomerId": 7, "confId": 0, "nr_conformers:": 1, "nr_isomers:": 9}

$$$$
_i8
     RDKit          3D

 43 45  0  0  0  0  0  0  0  0999 V2000
   -0.1272   -2.9193   -0.5782 N   0  0  0  0  0  0  0  0  0  0  0  0
    0.2410   -1.5870   -0.5978 C   0  0  0  0  0  0  0  0  0  0  0  0
    1.3119   -1.2582   -1.2418 N   0  0  0  0  0  0  0  0  0  0  0  0
    1.6900    0.1574   -1.2576 C   0  0  0  0  0  0  0  0  0  0  0  0
    3.0783    0.3013   -1.8904 C   0  0  0  0  0  0  0  0  0  0  0  0
    3.4362    1.6770   -2.1930 N   0  0  0  0  0  0  0  0  0  0  0  0
    3.6293    2.6140   -1.2045 C   0  0  0  0  0  0  0  0  0  0  0  0
    4.1261    3.9446   -1.7035 C   0  0  0  0  0  0  0  0  0  0  0  0
    3.4197    2.4040   -0.0145 O   0  0  0  0  0  0  0  0  0  0  0  0
   -0.6250   -0.7596    0.1013 N   0  0  0  0  0  0  0  0  0  0  0  0
   -1.7820   -1.0570    0.8013 C   0  0  0  0  0  0  0  0  0  0  0  0
   -2.5937   -0.2991    1.4626 N   0  0  0  0  0  0  0  0  0  0  0  0
   -2.3313    1.0802    1.5198 C   0  0  0  0  0  0  0  0  0  0  0  0
   -1.7005    1.5885    2.6614 C   0  0  0  0  0  0  0  0  0  0  0  0
   -1.4253    2.9533    2.7762 C   0  0  0  0  0  0  0  0  0  0  0  0
   -1.7926    3.8215    1.7503 C   0  0  0  0  0  0  0  0  0  0  0  0
   -1.4535    5.5018    1.8920 Cl  0  0  0  0  0  0  0  0  0  0  0  0
   -2.4333    3.3405    0.6114 C   0  0  0  0  0  0  0  0  0  0  0  0
   -2.7054    1.9748    0.4998 C   0  0  0  0  0  0  0  0  0  0  0  0
   -3.4899    1.4179   -0.9363 Cl  0  0  0  0  0  0  0  0  0  0  0  0
   -2.0717   -2.4700    0.7501 C   0  0  0  0  0  0  0  0  0  0  0  0
   -3.0823   -3.2976    1.2607 C   0  0  0  0  0  0  0  0  0  0  0  0
   -2.9000   -4.5858    0.9315 N   0  0  0  0  0  0  0  0  0  0  0  0
   -1.7600   -4.5753    0.1971 N   0  0  0  0  0  0  0  0  0  0  0  0
   -1.2621   -5.8192   -0.3328 C   0  0  0  0  0  0  0  0  0  0  0  0
   -1.2389   -3.3240    0.0709 C   0  0  0  0  0  0  0  0  0  0  0  0
    0.4971   -3.5348   -1.0856 H   0  0  0  0  0  0  0  0  0  0  0  0
    0.9601    0.7292   -1.8436 H   0  0  0  0  0  0  0  0  0  0  0  0
    1.7114    0.5645   -0.2408 H   0  0  0  0  0  0  0  0  0  0  0  0
    3.8429   -0.1160   -1.2250 H   0  0  0  0  0  0  0  0  0  0  0  0
    3.1222   -0.2513   -2.8357 H   0  0  0  0  0  0  0  0  0  0  0  0
    3.7904    1.8714   -3.1204 H   0  0  0  0  0  0  0  0  0  0  0  0
    4.0538    4.0218   -2.7919 H   0  0  0  0  0  0  0  0  0  0  0  0
    5.1706    4.0702   -1.4068 H   0  0  0  0  0  0  0  0  0  0  0  0
    3.5185    4.7402   -1.2635 H   0  0  0  0  0  0  0  0  0  0  0  0
   -0.3757    0.2151    0.1076 H   0  0  0  0  0  0  0  0  0  0  0  0
   -1.4252    0.9133    3.4689 H   0  0  0  0  0  0  0  0  0  0  0  0
   -0.9306    3.3298    3.6683 H   0  0  0  0  0  0  0  0  0  0  0  0
   -2.7223    4.0238   -0.1825 H   0  0  0  0  0  0  0  0  0  0  0  0
   -3.9415   -3.0194    1.8574 H   0  0  0  0  0  0  0  0  0  0  0  0
   -1.0555   -6.4914    0.5039 H   0  0  0  0  0  0  0  0  0  0  0  0
   -0.3466   -5.6449   -0.9014 H   0  0  0  0  0  0  0  0  0  0  0  0
   -2.0274   -6.2460   -0.9860 H   0  0  0  0  0  0  0  0  0  0  0  0
  1  2  1  0
  2  3  2  3
  3  4  1  0
  4  5  1  0
  5  6  1  0
  6  7  1  0
  7  8  1  0
  7  9  2  0
  2 10  1  0
 10 11  1  0
 11 12  2  3
 12 13  1  0
 13 14  2  0
 14 15  1  0
 15 16  2  0
 16 17  1  0
 16 18  1  0
 18 19  2  0
 19 20  1  0
 11 21  1  0
 21 22  1  0
 22 23  2  0
 23 24  1  0
 24 25  1  0
 24 26  1  0
 26  1  1  0
 19 13  1  0
 26 21  2  0
  1 27  1  0
  4 28  1  0
  4 29  1  0
  5 30  1  0
  5 31  1  0
  6 32  1  0
  8 33  1  0
  8 34  1  0
  8 35  1  0
 10 36  1  0
 14 37  1  0
 15 38  1  0
 18 39  1  0
 22 40  1  0
 25 41  1  0
 25 42  1  0
 25 43  1  0
M  END
>  <ScrubInfo>  (9) 
{"isomerGroup": 0, "isomerId": 8, "confId": 0, "nr_conformers:": 1, "nr_isomers:": 9}

$$$$
