_i0
     RDKit          3D

 49 51  0  0  0  0  0  0  0  0999 V2000
    7.8303    0.4192    0.1079 C   0  0  0  0  0  0  0  0  0  0  0  0
    6.3488    0.6011   -0.0877 C   0  0  0  0  0  0  0  0  0  0  0  0
    5.8186    1.7057   -0.0546 O   0  0  0  0  0  0  0  0  0  0  0  0
    5.6653   -0.5730   -0.3177 N   0  0  0  0  0  0  0  0  0  0  0  0
    4.2505   -0.5474   -0.6570 C   0  0  0  0  0  0  0  0  0  0  0  0
    3.5715   -1.9060   -0.4298 C   0  0  0  0  0  0  0  0  0  0  0  0
    2.2142   -1.9589   -0.9503 N   0  0  0  0  0  0  0  0  0  0  0  0
    1.2689   -1.1831   -0.2949 C   0  0  0  0  0  0  0  0  0  0  0  0
    0.2899   -0.7133   -1.0891 N   0  0  0  0  0  0  0  0  0  0  0  0
   -0.6982    0.0581   -0.5676 C   0  0  0  0  0  0  0  0  0  0  0  0
   -1.6901    0.5084   -1.4580 N   0  0  0  0  0  0  0  0  0  0  0  0
   -3.0570    0.6629   -1.1399 C   0  0  0  0  0  0  0  0  0  0  0  0
   -3.6267    1.9290   -1.3340 C   0  0  0  0  0  0  0  0  0  0  0  0
   -4.9742    2.1624   -1.0572 C   0  0  0  0  0  0  0  0  0  0  0  0
   -5.7827    1.1279   -0.5838 C   0  0  0  0  0  0  0  0  0  0  0  0
   -7.2374    1.3649   -0.3052 C   0  0  0  0  0  0  0  0  0  0  0  0
   -5.2304   -0.1505   -0.4334 C   0  0  0  0  0  0  0  0  0  0  0  0
   -3.8770   -0.4025   -0.7238 C   0  0  0  0  0  0  0  0  0  0  0  0
   -3.3521   -1.8012   -0.5461 C   0  0  0  0  0  0  0  0  0  0  0  0
   -0.6438    0.3558    0.7956 C   0  0  0  0  0  0  0  0  0  0  0  0
   -1.3789    1.0839    1.7537 C   0  0  0  0  0  0  0  0  0  0  0  0
   -0.8419    1.0222    2.9788 N   0  0  0  0  0  0  0  0  0  0  0  0
    0.2547    0.2509    2.7953 N   0  0  0  0  0  0  0  0  0  0  0  0
    1.1155   -0.0344    3.9151 C   0  0  0  0  0  0  0  0  0  0  0  0
    0.4128   -0.1777    1.5059 C   0  0  0  0  0  0  0  0  0  0  0  0
    1.3915   -0.9546    1.0186 N   0  0  0  0  0  0  0  0  0  0  0  0
    8.3520    0.7247   -0.8027 H   0  0  0  0  0  0  0  0  0  0  0  0
    8.0809   -0.6213    0.3328 H   0  0  0  0  0  0  0  0  0  0  0  0
    8.1591    1.0380    0.9475 H   0  0  0  0  0  0  0  0  0  0  0  0
    6.2094   -1.3737   -0.6129 H   0  0  0  0  0  0  0  0  0  0  0  0
    4.1797   -0.2570   -1.7119 H   0  0  0  0  0  0  0  0  0  0  0  0
    3.7583    0.2370   -0.0713 H   0  0  0  0  0  0  0  0  0  0  0  0
    4.1498   -2.6780   -0.9526 H   0  0  0  0  0  0  0  0  0  0  0  0
    3.6081   -2.1838    0.6313 H   0  0  0  0  0  0  0  0  0  0  0  0
    2.1066   -1.7688   -1.9408 H   0  0  0  0  0  0  0  0  0  0  0  0
   -1.5726   -0.0386   -2.3083 H   0  0  0  0  0  0  0  0  0  0  0  0
   -3.0077    2.7485   -1.6927 H   0  0  0  0  0  0  0  0  0  0  0  0
   -5.3839    3.1579   -1.2104 H   0  0  0  0  0  0  0  0  0  0  0  0
   -7.4117    2.3987    0.0112 H   0  0  0  0  0  0  0  0  0  0  0  0
   -7.5908    0.7149    0.5021 H   0  0  0  0  0  0  0  0  0  0  0  0
   -7.8279    1.1661   -1.2048 H   0  0  0  0  0  0  0  0  0  0  0  0
   -5.8659   -0.9657   -0.0904 H   0  0  0  0  0  0  0  0  0  0  0  0
   -2.6855   -2.0784   -1.3689 H   0  0  0  0  0  0  0  0  0  0  0  0
   -2.8183   -1.8884    0.4048 H   0  0  0  0  0  0  0  0  0  0  0  0
   -4.1681   -2.5322   -0.5453 H   0  0  0  0  0  0  0  0  0  0  0  0
   -2.2866    1.6559    1.6090 H   0  0  0  0  0  0  0  0  0  0  0  0
    1.9631   -0.6424    3.5912 H   0  0  0  0  0  0  0  0  0  0  0  0
    0.5347   -0.5772    4.6651 H   0  0  0  0  0  0  0  0  0  0  0  0
    1.4754    0.9136    4.3230 H   0  0  0  0  0  0  0  0  0  0  0  0
  1  2  1  0
  2  3  2  0
  2  4  1  0
  4  5  1  0
  5  6  1  0
  6  7  1  0
  7  8  1  0
  8  9  2  0
  9 10  1  0
 10 11  1  0
 11 12  1  0
 12 13  2  0
 13 14  1  0
 14 15  2  0
 15 16  1  0
 15 17  1  0
 17 18  2  0
 18 19  1  0
 10 20  2  0
 20 21  1  0
 21 22  2  0
 22 23  1  0
 23 24  1  0
 23 25  1  0
 25 26  2  0
 26  8  1  0
 18 12  1  0
 25 20  1  0
  1 27  1  0
  1 28  1  0
  1 29  1  0
  4 30  1  0
  5 31  1  0
  5 32  1  0
  6 33  1  0
  6 34  1  0
  7 35  1  0
 11 36  1  0
 13 37  1  0
 14 38  1  0
 16 39  1  0
 16 40  1  0
 16 41  1  0
 17 42  1  0
 19 43  1  0
 19 44  1  0
 19 45  1  0
 21 46  1  0
 24 47  1  0
 24 48  1  0
 24 49  1  0
M  END
>  <ScrubInfo>  (1) 
{"isomerGroup": 0, "isomerId": 0, "confId": 0, "nr_conformers:": 1, "nr_isomers:": 9}

$$$$
_i1
     RDKit          3D

 49 51  0  0  0  0  0  0  0  0999 V2000
    1.2552   -0.8596    0.0905 N   0  0  0  0  0  0  0  0  0  0  0  0
    0.0146   -0.5861   -0.4534 C   0  0  0  0  0  0  0  0  0  0  0  0
   -0.3471    0.7300   -0.6995 N   0  0  0  0  0  0  0  0  0  0  0  0
   -1.6487    1.2490   -0.5005 C   0  0  0  0  0  0  0  0  0  0  0  0
   -2.2182    1.9691   -1.5609 C   0  0  0  0  0  0  0  0  0  0  0  0
   -3.4825    2.5477   -1.4444 C   0  0  0  0  0  0  0  0  0  0  0  0
   -4.1999    2.4307   -0.2536 C   0  0  0  0  0  0  0  0  0  0  0  0
   -5.5501    3.0683   -0.1115 C   0  0  0  0  0  0  0  0  0  0  0  0
   -3.6103    1.7683    0.8304 C   0  0  0  0  0  0  0  0  0  0  0  0
   -2.3286    1.1951    0.7312 C   0  0  0  0  0  0  0  0  0  0  0  0
   -1.7489    0.5285    1.9492 C   0  0  0  0  0  0  0  0  0  0  0  0
   -0.7344   -1.6564   -0.7424 C   0  0  0  0  0  0  0  0  0  0  0  0
   -2.0394   -1.9531   -1.3429 C   0  0  0  0  0  0  0  0  0  0  0  0
   -2.2879   -3.2376   -1.4225 N   0  0  0  0  0  0  0  0  0  0  0  0
   -1.1790   -3.8691   -0.8350 N   0  0  0  0  0  0  0  0  0  0  0  0
   -0.9848   -5.2819   -1.0521 C   0  0  0  0  0  0  0  0  0  0  0  0
   -0.1730   -2.9937   -0.4564 C   0  0  0  0  0  0  0  0  0  0  0  0
    1.0014   -3.2328    0.0194 N   0  0  0  0  0  0  0  0  0  0  0  0
    1.7655   -2.1212    0.3011 C   0  0  0  0  0  0  0  0  0  0  0  0
    2.9379   -2.4123    0.7497 N   0  0  0  0  0  0  0  0  0  0  0  0
    3.8292   -1.3232    1.1431 C   0  0  0  0  0  0  0  0  0  0  0  0
    4.5049   -0.6866   -0.0785 C   0  0  0  0  0  0  0  0  0  0  0  0
    4.8632    0.7042    0.1447 N   0  0  0  0  0  0  0  0  0  0  0  0
    3.9120    1.6951    0.2115 C   0  0  0  0  0  0  0  0  0  0  0  0
    4.4645    3.0808    0.4059 C   0  0  0  0  0  0  0  0  0  0  0  0
    2.7035    1.4739    0.1442 O   0  0  0  0  0  0  0  0  0  0  0  0
    1.8588   -0.0504    0.2126 H   0  0  0  0  0  0  0  0  0  0  0  0
    0.3479    1.3766   -0.3200 H   0  0  0  0  0  0  0  0  0  0  0  0
   -1.6754    2.0643   -2.4990 H   0  0  0  0  0  0  0  0  0  0  0  0
   -3.9012    3.0868   -2.2909 H   0  0  0  0  0  0  0  0  0  0  0  0
   -6.1797    2.4983    0.5798 H   0  0  0  0  0  0  0  0  0  0  0  0
   -6.0713    3.0992   -1.0741 H   0  0  0  0  0  0  0  0  0  0  0  0
   -5.4438    4.0900    0.2660 H   0  0  0  0  0  0  0  0  0  0  0  0
   -4.1529    1.7075    1.7729 H   0  0  0  0  0  0  0  0  0  0  0  0
   -2.2483    0.8714    2.8621 H   0  0  0  0  0  0  0  0  0  0  0  0
   -0.6886    0.7746    2.0646 H   0  0  0  0  0  0  0  0  0  0  0  0
   -1.8723   -0.5565    1.8848 H   0  0  0  0  0  0  0  0  0  0  0  0
   -2.7013   -1.1547   -1.6996 H   0  0  0  0  0  0  0  0  0  0  0  0
   -1.9450   -5.8079   -1.0623 H   0  0  0  0  0  0  0  0  0  0  0  0
   -0.3741   -5.7192   -0.2558 H   0  0  0  0  0  0  0  0  0  0  0  0
   -0.4850   -5.4553   -2.0102 H   0  0  0  0  0  0  0  0  0  0  0  0
    3.2970   -0.5900    1.7615 H   0  0  0  0  0  0  0  0  0  0  0  0
    4.6050   -1.7330    1.8011 H   0  0  0  0  0  0  0  0  0  0  0  0
    3.8579   -0.7184   -0.9620 H   0  0  0  0  0  0  0  0  0  0  0  0
    5.4225   -1.2303   -0.3279 H   0  0  0  0  0  0  0  0  0  0  0  0
    5.8454    0.9390    0.2169 H   0  0  0  0  0  0  0  0  0  0  0  0
    5.5489    3.1075    0.2685 H   0  0  0  0  0  0  0  0  0  0  0  0
    4.0089    3.7526   -0.3267 H   0  0  0  0  0  0  0  0  0  0  0  0
    4.2274    3.4209    1.4174 H   0  0  0  0  0  0  0  0  0  0  0  0
  1  2  1  0
  2  3  1  0
  3  4  1  0
  4  5  2  0
  5  6  1  0
  6  7  2  0
  7  8  1  0
  7  9  1  0
  9 10  2  0
 10 11  1  0
  2 12  2  0
 12 13  1  0
 13 14  2  0
 14 15  1  0
 15 16  1  0
 15 17  1  0
 17 18  2  0
 18 19  1  0
 19 20  2  3
 20 21  1  0
 21 22  1  0
 22 23  1  0
 23 24  1  0
 24 25  1  0
 24 26  2  0
 19  1  1  0
 10  4  1  0
 17 12  1  0
  1 27  1  0
  3 28  1  0
  5 29  1  0
  6 30  1  0
  8 31  1  0
  8 32  1  0
  8 33  1  0
  9 34  1  0
 11 35  1  0
 11 36  1  0
 11 37  1  0
 13 38  1  0
 16 39  1  0
 16 40  1  0
 16 41  1  0
 21 42  1  0
 21 43  1  0
 22 44  1  0
 22 45  1  0
 23 46  1  0
 25 47  1  0
 25 48  1  0
 25 49  1  0
M  END
>  <ScrubInfo>  (2) 
{"isomerGroup": 0, "isomerId": 1, "confId": 0, "nr_conformers:": 1, "nr_isomers:": 9}

$$$$
_i2
     RDKit          3D

 49 51  0  0  0  0  0  0  0  0999 V2000
   -0.5969   -0.6587    0.1969 N   0  0  0  0  0  0  0  0  0  0  0  0
    0.7761   -0.7269    0.2976 C   0  0  0  0  0  0  0  0  0  0  0  0
    1.4080   -0.3984   -0.8708 N   0  0  0  0  0  0  0  0  0  0  0  0
    2.8605   -0.2898   -0.9551 C   0  0  0  0  0  0  0  0  0  0  0  0
    3.3791    0.9716   -0.2479 C   0  0  0  0  0  0  0  0  0  0  0  0
    4.8109    1.1596   -0.3998 N   0  0  0  0  0  0  0  0  0  0  0  0
    5.3531    1.6056   -1.5814 C   0  0  0  0  0  0  0  0  0  0  0  0
    6.8529    1.7247   -1.5732 C   0  0  0  0  0  0  0  0  0  0  0  0
    4.6799    1.8686   -2.5727 O   0  0  0  0  0  0  0  0  0  0  0  0
    1.4149   -1.0748    1.3871 N   0  0  0  0  0  0  0  0  0  0  0  0
    0.5555   -1.3471    2.4091 C   0  0  0  0  0  0  0  0  0  0  0  0
   -0.8246   -1.3033    2.3959 C   0  0  0  0  0  0  0  0  0  0  0  0
   -1.2210   -1.6665    3.6897 C   0  0  0  0  0  0  0  0  0  0  0  0
   -0.1745   -1.9250    4.4855 N   0  0  0  0  0  0  0  0  0  0  0  0
    0.8969   -1.7294    3.6767 N   0  0  0  0  0  0  0  0  0  0  0  0
    2.2229   -1.9332    4.2018 C   0  0  0  0  0  0  0  0  0  0  0  0
   -1.5157   -0.9409    1.1864 C   0  0  0  0  0  0  0  0  0  0  0  0
   -2.8068   -0.9333    1.1833 N   0  0  0  0  0  0  0  0  0  0  0  0
   -3.4491   -0.5769   -0.0121 C   0  0  0  0  0  0  0  0  0  0  0  0
   -3.7643   -1.5764   -0.9384 C   0  0  0  0  0  0  0  0  0  0  0  0
   -4.3756   -1.2575   -2.1517 C   0  0  0  0  0  0  0  0  0  0  0  0
   -4.6801    0.0715   -2.4583 C   0  0  0  0  0  0  0  0  0  0  0  0
   -5.3700    0.4155   -3.7457 C   0  0  0  0  0  0  0  0  0  0  0  0
   -4.3973    1.0703   -1.5169 C   0  0  0  0  0  0  0  0  0  0  0  0
   -3.7908    0.7573   -0.2894 C   0  0  0  0  0  0  0  0  0  0  0  0
   -3.4980    1.8495    0.7008 C   0  0  0  0  0  0  0  0  0  0  0  0
   -0.9837   -0.5056   -0.7198 H   0  0  0  0  0  0  0  0  0  0  0  0
    0.9327    0.2742   -1.4614 H   0  0  0  0  0  0  0  0  0  0  0  0
    3.3368   -1.1844   -0.5358 H   0  0  0  0  0  0  0  0  0  0  0  0
    3.1355   -0.2679   -2.0154 H   0  0  0  0  0  0  0  0  0  0  0  0
    2.8718    1.8580   -0.6472 H   0  0  0  0  0  0  0  0  0  0  0  0
    3.1759    0.9328    0.8269 H   0  0  0  0  0  0  0  0  0  0  0  0
    5.4172    0.8720    0.3578 H   0  0  0  0  0  0  0  0  0  0  0  0
    7.2585    1.6520   -0.5603 H   0  0  0  0  0  0  0  0  0  0  0  0
    7.1363    2.6966   -1.9865 H   0  0  0  0  0  0  0  0  0  0  0  0
    7.2783    0.9246   -2.1845 H   0  0  0  0  0  0  0  0  0  0  0  0
   -2.2244   -1.7541    4.0861 H   0  0  0  0  0  0  0  0  0  0  0  0
    2.3085   -2.9740    4.5242 H   0  0  0  0  0  0  0  0  0  0  0  0
    2.9687   -1.7216    3.4325 H   0  0  0  0  0  0  0  0  0  0  0  0
    2.3648   -1.2580    5.0495 H   0  0  0  0  0  0  0  0  0  0  0  0
   -3.5345   -2.6136   -0.7069 H   0  0  0  0  0  0  0  0  0  0  0  0
   -4.6173   -2.0548   -2.8510 H   0  0  0  0  0  0  0  0  0  0  0  0
   -5.0845    1.4166   -4.0857 H   0  0  0  0  0  0  0  0  0  0  0  0
   -5.0921   -0.2876   -4.5379 H   0  0  0  0  0  0  0  0  0  0  0  0
   -6.4553    0.3836   -3.6088 H   0  0  0  0  0  0  0  0  0  0  0  0
   -4.6625    2.1030   -1.7378 H   0  0  0  0  0  0  0  0  0  0  0  0
   -3.9901    2.7864    0.4189 H   0  0  0  0  0  0  0  0  0  0  0  0
   -3.8666    1.5773    1.6952 H   0  0  0  0  0  0  0  0  0  0  0  0
   -2.4204    2.0349    0.7505 H   0  0  0  0  0  0  0  0  0  0  0  0
  1  2  1  0
  2  3  1  0
  3  4  1  0
  4  5  1  0
  5  6  1  0
  6  7  1  0
  7  8  1  0
  7  9  2  0
  2 10  2  0
 10 11  1  0
 11 12  2  0
 12 13  1  0
 13 14  2  0
 14 15  1  0
 15 16  1  0
 12 17  1  0
 17 18  2  3
 18 19  1  0
 19 20  2  0
 20 21  1  0
 21 22  2  0
 22 23  1  0
 22 24  1  0
 24 25  2  0
 25 26  1  0
 17  1  1  0
 25 19  1  0
 15 11  1  0
  1 27  1  0
  3 28  1  0
  4 29  1  0
  4 30  1  0
  5 31  1  0
  5 32  1  0
  6 33  1  0
  8 34  1  0
  8 35  1  0
  8 36  1  0
 13 37  1  0
 16 38  1  0
 16 39  1  0
 16 40  1  0
 20 41  1  0
 21 42  1  0
 23 43  1  0
 23 44  1  0
 23 45  1  0
 24 46  1  0
 26 47  1  0
 26 48  1  0
 26 49  1  0
M  END
>  <ScrubInfo>  (3) 
{"isomerGroup": 0, "isomerId": 2, "confId": 0, "nr_conformers:": 1, "nr_isomers:": 9}

$$$$
_i3
     RDKit          3D

 49 51  0  0  0  0  0  0  0  0999 V2000
    1.5016   -1.5755   -0.3416 N   0  0  0  0  0  0  0  0  0  0  0  0
    1.5936   -0.3024    0.1771 C   0  0  0  0  0  0  0  0  0  0  0  0
    2.6040   -0.0248    0.9378 N   0  0  0  0  0  0  0  0  0  0  0  0
    2.6556    1.3420    1.4847 C   0  0  0  0  0  0  0  0  0  0  0  0
    3.8825    1.4672    2.3902 C   0  0  0  0  0  0  0  0  0  0  0  0
    5.1012    1.1394    1.6732 N   0  0  0  0  0  0  0  0  0  0  0  0
    6.3363    1.4030    2.2120 C   0  0  0  0  0  0  0  0  0  0  0  0
    7.4846    0.8415    1.4178 C   0  0  0  0  0  0  0  0  0  0  0  0
    6.5097    2.0338    3.2497 O   0  0  0  0  0  0  0  0  0  0  0  0
    0.6414    0.6683   -0.0950 N   0  0  0  0  0  0  0  0  0  0  0  0
   -0.3823    0.3634   -0.8473 C   0  0  0  0  0  0  0  0  0  0  0  0
   -1.3526    1.2801   -1.1669 N   0  0  0  0  0  0  0  0  0  0  0  0
   -2.7445    1.0482   -1.0134 C   0  0  0  0  0  0  0  0  0  0  0  0
   -3.5780    1.5051   -2.0469 C   0  0  0  0  0  0  0  0  0  0  0  0
   -4.9640    1.3640   -1.9745 C   0  0  0  0  0  0  0  0  0  0  0  0
   -5.5503    0.7758   -0.8542 C   0  0  0  0  0  0  0  0  0  0  0  0
   -7.0411    0.6394   -0.7570 C   0  0  0  0  0  0  0  0  0  0  0  0
   -4.7305    0.3775    0.2089 C   0  0  0  0  0  0  0  0  0  0  0  0
   -3.3316    0.5284    0.1562 C   0  0  0  0  0  0  0  0  0  0  0  0
   -2.5284    0.1120    1.3587 C   0  0  0  0  0  0  0  0  0  0  0  0
   -0.5084   -0.9571   -1.4254 C   0  0  0  0  0  0  0  0  0  0  0  0
   -1.3848   -1.6466   -2.2777 C   0  0  0  0  0  0  0  0  0  0  0  0
   -0.9955   -2.9137   -2.4952 N   0  0  0  0  0  0  0  0  0  0  0  0
    0.1456   -3.0312   -1.7738 N   0  0  0  0  0  0  0  0  0  0  0  0
    0.8513   -4.2870   -1.7775 C   0  0  0  0  0  0  0  0  0  0  0  0
    0.4611   -1.8769   -1.1324 C   0  0  0  0  0  0  0  0  0  0  0  0
    2.2477   -2.2031   -0.0752 H   0  0  0  0  0  0  0  0  0  0  0  0
    1.7595    1.5611    2.0772 H   0  0  0  0  0  0  0  0  0  0  0  0
    2.7377    2.0712    0.6693 H   0  0  0  0  0  0  0  0  0  0  0  0
    3.9637    2.4838    2.7898 H   0  0  0  0  0  0  0  0  0  0  0  0
    3.8083    0.7747    3.2366 H   0  0  0  0  0  0  0  0  0  0  0  0
    5.0097    0.3861    1.0021 H   0  0  0  0  0  0  0  0  0  0  0  0
    8.2430    1.6184    1.2876 H   0  0  0  0  0  0  0  0  0  0  0  0
    7.1643    0.5068    0.4271 H   0  0  0  0  0  0  0  0  0  0  0  0
    7.9128   -0.0065    1.9586 H   0  0  0  0  0  0  0  0  0  0  0  0
   -1.1327    2.1647   -0.7142 H   0  0  0  0  0  0  0  0  0  0  0  0
   -3.1400    1.9598   -2.9334 H   0  0  0  0  0  0  0  0  0  0  0  0
   -5.5794    1.7140   -2.8002 H   0  0  0  0  0  0  0  0  0  0  0  0
   -7.4684    1.5297   -0.2855 H   0  0  0  0  0  0  0  0  0  0  0  0
   -7.4879    0.5154   -1.7491 H   0  0  0  0  0  0  0  0  0  0  0  0
   -7.3143   -0.2410   -0.1660 H   0  0  0  0  0  0  0  0  0  0  0  0
   -5.1909   -0.0475    1.1002 H   0  0  0  0  0  0  0  0  0  0  0  0
   -1.7719    0.8645    1.6018 H   0  0  0  0  0  0  0  0  0  0  0  0
   -2.0495   -0.8553    1.1827 H   0  0  0  0  0  0  0  0  0  0  0  0
   -3.1641    0.0137    2.2457 H   0  0  0  0  0  0  0  0  0  0  0  0
   -2.2900   -1.2930   -2.7537 H   0  0  0  0  0  0  0  0  0  0  0  0
    1.1647   -4.5024   -2.8021 H   0  0  0  0  0  0  0  0  0  0  0  0
    1.7263   -4.2248   -1.1273 H   0  0  0  0  0  0  0  0  0  0  0  0
    0.1747   -5.0640   -1.4129 H   0  0  0  0  0  0  0  0  0  0  0  0
  1  2  1  0
  2  3  2  3
  3  4  1  0
  4  5  1  0
  5  6  1  0
  6  7  1  0
  7  8  1  0
  7  9  2  0
  2 10  1  0
 10 11  2  0
 11 12  1  0
 12 13  1  0
 13 14  2  0
 14 15  1  0
 15 16  2  0
 16 17  1  0
 16 18  1  0
 18 19  2  0
 19 20  1  0
 11 21  1  0
 21 22  1  0
 22 23  2  0
 23 24  1  0
 24 25  1  0
 24 26  1  0
 26  1  1  0
 19 13  1  0
 26 21  2  0
  1 27  1  0
  4 28  1  0
  4 29  1  0
  5 30  1  0
  5 31  1  0
  6 32  1  0
  8 33  1  0
  8 34  1  0
  8 35  1  0
 12 36  1  0
 14 37  1  0
 15 38  1  0
 17 39  1  0
 17 40  1  0
 17 41  1  0
 18 42  1  0
 20 43  1  0
 20 44  1  0
 20 45  1  0
 22 46  1  0
 25 47  1  0
 25 48  1  0
 25 49  1  0
M  END
>  <ScrubInfo>  (4) 
{"isomerGroup": 0, "isomerId": 3, "confId": 0, "nr_conformers:": 1, "nr_isomers:": 9}

$$$$
_i4
     RDKit          3D

 49 51  0  0  0  0  0  0  0  0999 V2000
   -1.1955   -5.1548    0.6727 N   0  0  0  0  0  0  0  0  0  0  0  0
   -1.9470   -4.0468    0.2944 C   0  0  0  0  0  0  0  0  0  0  0  0
   -1.2059   -2.9402    0.1566 C   0  0  0  0  0  0  0  0  0  0  0  0
   -1.4181   -1.5514   -0.1766 C   0  0  0  0  0  0  0  0  0  0  0  0
   -2.5809   -1.0891   -0.5154 N   0  0  0  0  0  0  0  0  0  0  0  0
   -2.6899    0.2774   -0.8272 C   0  0  0  0  0  0  0  0  0  0  0  0
   -2.9527    1.1941    0.1966 C   0  0  0  0  0  0  0  0  0  0  0  0
   -3.0813    2.5569   -0.0778 C   0  0  0  0  0  0  0  0  0  0  0  0
   -2.9690    3.0244   -1.3899 C   0  0  0  0  0  0  0  0  0  0  0  0
   -3.0684    4.4914   -1.6857 C   0  0  0  0  0  0  0  0  0  0  0  0
   -2.7092    2.1092   -2.4187 C   0  0  0  0  0  0  0  0  0  0  0  0
   -2.5861    0.7350   -2.1521 C   0  0  0  0  0  0  0  0  0  0  0  0
   -2.3104   -0.2232   -3.2755 C   0  0  0  0  0  0  0  0  0  0  0  0
   -0.2907   -0.7790   -0.1035 N   0  0  0  0  0  0  0  0  0  0  0  0
    0.8764   -1.2650    0.1910 C   0  0  0  0  0  0  0  0  0  0  0  0
    1.9687   -0.4477    0.2559 N   0  0  0  0  0  0  0  0  0  0  0  0
    1.9971    0.8436   -0.4209 C   0  0  0  0  0  0  0  0  0  0  0  0
    3.2431    1.6267    0.0012 C   0  0  0  0  0  0  0  0  0  0  0  0
    3.3032    1.8047    1.4418 N   0  0  0  0  0  0  0  0  0  0  0  0
    4.2678    2.5925    2.0197 C   0  0  0  0  0  0  0  0  0  0  0  0
    4.2613    2.5742    3.5242 C   0  0  0  0  0  0  0  0  0  0  0  0
    5.0786    3.2512    1.3769 O   0  0  0  0  0  0  0  0  0  0  0  0
    1.1500   -2.5830    0.4513 N   0  0  0  0  0  0  0  0  0  0  0  0
    0.1593   -3.4063    0.4294 C   0  0  0  0  0  0  0  0  0  0  0  0
    0.1486   -4.7859    0.6457 N   0  0  0  0  0  0  0  0  0  0  0  0
    1.0633   -5.3996    1.5891 C   0  0  0  0  0  0  0  0  0  0  0  0
   -1.4404   -6.0030    0.1563 H   0  0  0  0  0  0  0  0  0  0  0  0
   -3.0125   -4.1460    0.1403 H   0  0  0  0  0  0  0  0  0  0  0  0
   -3.0470    0.8386    1.2186 H   0  0  0  0  0  0  0  0  0  0  0  0
   -3.2701    3.2471    0.7406 H   0  0  0  0  0  0  0  0  0  0  0  0
   -2.0766    4.9511   -1.6349 H   0  0  0  0  0  0  0  0  0  0  0  0
   -3.4873    4.6610   -2.6832 H   0  0  0  0  0  0  0  0  0  0  0  0
   -3.7272    4.9916   -0.9681 H   0  0  0  0  0  0  0  0  0  0  0  0
   -2.6062    2.4689   -3.4407 H   0  0  0  0  0  0  0  0  0  0  0  0
   -2.4272    0.2605   -4.2511 H   0  0  0  0  0  0  0  0  0  0  0  0
   -1.2855   -0.6012   -3.2062 H   0  0  0  0  0  0  0  0  0  0  0  0
   -3.0110   -1.0641   -3.2460 H   0  0  0  0  0  0  0  0  0  0  0  0
    2.8285   -0.9821    0.2064 H   0  0  0  0  0  0  0  0  0  0  0  0
    2.0019    0.6953   -1.5062 H   0  0  0  0  0  0  0  0  0  0  0  0
    1.1062    1.4260   -0.1574 H   0  0  0  0  0  0  0  0  0  0  0  0
    4.1527    1.0936   -0.2996 H   0  0  0  0  0  0  0  0  0  0  0  0
    3.2577    2.6124   -0.4766 H   0  0  0  0  0  0  0  0  0  0  0  0
    2.8187    1.1146    2.0060 H   0  0  0  0  0  0  0  0  0  0  0  0
    5.1234    2.0033    3.8788 H   0  0  0  0  0  0  0  0  0  0  0  0
    4.3201    3.6014    3.8945 H   0  0  0  0  0  0  0  0  0  0  0  0
    3.3475    2.1205    3.9179 H   0  0  0  0  0  0  0  0  0  0  0  0
    2.0991   -5.1465    1.3413 H   0  0  0  0  0  0  0  0  0  0  0  0
    0.9688   -6.4899    1.5567 H   0  0  0  0  0  0  0  0  0  0  0  0
    0.8544   -5.0622    2.6097 H   0  0  0  0  0  0  0  0  0  0  0  0
  1  2  1  0
  2  3  2  0
  3  4  1  0
  4  5  2  3
  5  6  1  0
  6  7  2  0
  7  8  1  0
  8  9  2  0
  9 10  1  0
  9 11  1  0
 11 12  2  0
 12 13  1  0
  4 14  1  0
 14 15  2  0
 15 16  1  0
 16 17  1  0
 17 18  1  0
 18 19  1  0
 19 20  1  0
 20 21  1  0
 20 22  2  0
 15 23  1  0
 23 24  2  0
 24 25  1  0
 25 26  1  0
 25  1  1  0
 24  3  1  0
 12  6  1  0
  1 27  1  0
  2 28  1  0
  7 29  1  0
  8 30  1  0
 10 31  1  0
 10 32  1  0
 10 33  1  0
 11 34  1  0
 13 35  1  0
 13 36  1  0
 13 37  1  0
 16 38  1  0
 17 39  1  0
 17 40  1  0
 18 41  1  0
 18 42  1  0
 19 43  1  0
 21 44  1  0
 21 45  1  0
 21 46  1  0
 26 47  1  0
 26 48  1  0
 26 49  1  0
M  END
>  <ScrubInfo>  (5) 
{"isomerGroup": 0, "isomerId": 4, "confId": 0, "nr_conformers:": 1, "nr_isomers:": 9}

$$$$
_i5
     RDKit          3D

 49 51  0  0  0  0  0  0  0  0999 V2000
    1.2064   -2.2495   -0.8501 N   0  0  0  0  0  0  0  0  0  0  0  0
    0.6219   -1.0350   -1.1258 C   0  0  0  0  0  0  0  0  0  0  0  0
    1.4208   -0.1590   -1.8026 N   0  0  0  0  0  0  0  0  0  0  0  0
    2.7019    0.2798   -1.2430 C   0  0  0  0  0  0  0  0  0  0  0  0
    2.5023    1.1006    0.0444 C   0  0  0  0  0  0  0  0  0  0  0  0
    3.7439    1.4515    0.7134 N   0  0  0  0  0  0  0  0  0  0  0  0
    4.6271    2.3468    0.1550 C   0  0  0  0  0  0  0  0  0  0  0  0
    5.7827    2.7160    1.0456 C   0  0  0  0  0  0  0  0  0  0  0  0
    4.4939    2.8133   -0.9709 O   0  0  0  0  0  0  0  0  0  0  0  0
   -0.5873   -0.6758   -0.7979 N   0  0  0  0  0  0  0  0  0  0  0  0
   -1.3903   -1.5702   -0.1007 C   0  0  0  0  0  0  0  0  0  0  0  0
   -2.5861   -1.3074    0.3192 N   0  0  0  0  0  0  0  0  0  0  0  0
   -3.1151   -0.0331    0.0561 C   0  0  0  0  0  0  0  0  0  0  0  0
   -3.7919    0.1934   -1.1473 C   0  0  0  0  0  0  0  0  0  0  0  0
   -4.3487    1.4416   -1.4317 C   0  0  0  0  0  0  0  0  0  0  0  0
   -4.2553    2.4821   -0.5035 C   0  0  0  0  0  0  0  0  0  0  0  0
   -4.8195    3.8355   -0.8192 C   0  0  0  0  0  0  0  0  0  0  0  0
   -3.5811    2.2586    0.7044 C   0  0  0  0  0  0  0  0  0  0  0  0
   -3.0240    1.0032    1.0014 C   0  0  0  0  0  0  0  0  0  0  0  0
   -2.3137    0.7892    2.3074 C   0  0  0  0  0  0  0  0  0  0  0  0
   -0.8358   -2.8720    0.1721 C   0  0  0  0  0  0  0  0  0  0  0  0
   -1.2860   -4.0502    0.7819 C   0  0  0  0  0  0  0  0  0  0  0  0
   -0.3548   -5.0190    0.7648 N   0  0  0  0  0  0  0  0  0  0  0  0
    0.6976   -4.4460    0.1282 N   0  0  0  0  0  0  0  0  0  0  0  0
    1.8963   -5.2175   -0.0778 C   0  0  0  0  0  0  0  0  0  0  0  0
    0.4418   -3.1589   -0.2220 C   0  0  0  0  0  0  0  0  0  0  0  0
    2.0553   -2.4715   -1.3536 H   0  0  0  0  0  0  0  0  0  0  0  0
    0.8596    0.6560   -2.0519 H   0  0  0  0  0  0  0  0  0  0  0  0
    3.3473   -0.5837   -1.0444 H   0  0  0  0  0  0  0  0  0  0  0  0
    3.2138    0.8782   -2.0032 H   0  0  0  0  0  0  0  0  0  0  0  0
    1.9580    2.0258   -0.1787 H   0  0  0  0  0  0  0  0  0  0  0  0
    1.9091    0.5352    0.7714 H   0  0  0  0  0  0  0  0  0  0  0  0
    3.7997    1.2844    1.7104 H   0  0  0  0  0  0  0  0  0  0  0  0
    5.6423    3.7375    1.4085 H   0  0  0  0  0  0  0  0  0  0  0  0
    6.7110    2.6518    0.4713 H   0  0  0  0  0  0  0  0  0  0  0  0
    5.8636    2.0413    1.9023 H   0  0  0  0  0  0  0  0  0  0  0  0
   -3.8764   -0.6120   -1.8714 H   0  0  0  0  0  0  0  0  0  0  0  0
   -4.8558    1.5918   -2.3814 H   0  0  0  0  0  0  0  0  0  0  0  0
   -5.6873    3.7529   -1.4820 H   0  0  0  0  0  0  0  0  0  0  0  0
   -5.1550    4.3408    0.0926 H   0  0  0  0  0  0  0  0  0  0  0  0
   -4.0593    4.4530   -1.3074 H   0  0  0  0  0  0  0  0  0  0  0  0
   -3.4934    3.0690    1.4252 H   0  0  0  0  0  0  0  0  0  0  0  0
   -1.2382    0.6750    2.1381 H   0  0  0  0  0  0  0  0  0  0  0  0
   -2.6989   -0.1019    2.8138 H   0  0  0  0  0  0  0  0  0  0  0  0
   -2.4602    1.6362    2.9860 H   0  0  0  0  0  0  0  0  0  0  0  0
   -2.2501   -4.2480    1.2331 H   0  0  0  0  0  0  0  0  0  0  0  0
    1.6550   -6.0588   -0.7322 H   0  0  0  0  0  0  0  0  0  0  0  0
    2.6646   -4.5948   -0.5410 H   0  0  0  0  0  0  0  0  0  0  0  0
    2.2481   -5.5762    0.8928 H   0  0  0  0  0  0  0  0  0  0  0  0
  1  2  1  0
  2  3  1  0
  3  4  1  0
  4  5  1  0
  5  6  1  0
  6  7  1  0
  7  8  1  0
  7  9  2  0
  2 10  2  0
 10 11  1  0
 11 12  2  3
 12 13  1  0
 13 14  2  0
 14 15  1  0
 15 16  2  0
 16 17  1  0
 16 18  1  0
 18 19  2  0
 19 20  1  0
 11 21  1  0
 21 22  1  0
 22 23  2  0
 23 24  1  0
 24 25  1  0
 24 26  1  0
 26  1  1  0
 19 13  1  0
 26 21  2  0
  1 27  1  0
  3 28  1  0
  4 29  1  0
  4 30  1  0
  5 31  1  0
  5 32  1  0
  6 33  1  0
  8 34  1  0
  8 35  1  0
  8 36  1  0
 14 37  1  0
 15 38  1  0
 17 39  1  0
 17 40  1  0
 17 41  1  0
 18 42  1  0
 20 43  1  0
 20 44  1  0
 20 45  1  0
 22 46  1  0
 25 47  1  0
 25 48  1  0
 25 49  1  0
M  END
>  <ScrubInfo>  (6) 
{"isomerGroup": 0, "isomerId": 5, "confId": 0, "nr_conformers:": 1, "nr_isomers:": 9}

$$$$
_i6
     RDKit          3D

 49 51  0  0  0  0  0  0  0  0999 V2000
   -0.4355    2.0718    4.5730 N   0  0  0  0  0  0  0  0  0  0  0  0
   -1.1917    1.8312    3.4309 C   0  0  0  0  0  0  0  0  0  0  0  0
   -0.5312    1.1185    2.5073 C   0  0  0  0  0  0  0  0  0  0  0  0
   -0.7809    0.5435    1.1810 C   0  0  0  0  0  0  0  0  0  0  0  0
   -1.9996    0.7752    0.5692 N   0  0  0  0  0  0  0  0  0  0  0  0
   -2.5469    0.2113   -0.6045 C   0  0  0  0  0  0  0  0  0  0  0  0
   -2.0227   -0.9426   -1.2018 C   0  0  0  0  0  0  0  0  0  0  0  0
   -2.5585   -1.4695   -2.3816 C   0  0  0  0  0  0  0  0  0  0  0  0
   -3.6436   -0.8545   -3.0021 C   0  0  0  0  0  0  0  0  0  0  0  0
   -4.1965   -1.3968   -4.2859 C   0  0  0  0  0  0  0  0  0  0  0  0
   -4.1634    0.3138   -2.4391 C   0  0  0  0  0  0  0  0  0  0  0  0
   -3.6270    0.8562   -1.2545 C   0  0  0  0  0  0  0  0  0  0  0  0
   -4.2330    2.1274   -0.7196 C   0  0  0  0  0  0  0  0  0  0  0  0
    0.1877   -0.1460    0.6481 N   0  0  0  0  0  0  0  0  0  0  0  0
    1.3734   -0.3147    1.3280 C   0  0  0  0  0  0  0  0  0  0  0  0
    2.3014   -1.0459    0.8184 N   0  0  0  0  0  0  0  0  0  0  0  0
    2.0373   -1.6578   -0.4909 C   0  0  0  0  0  0  0  0  0  0  0  0
    3.2826   -2.4445   -0.9138 C   0  0  0  0  0  0  0  0  0  0  0  0
    4.4527   -1.5850   -0.9711 N   0  0  0  0  0  0  0  0  0  0  0  0
    4.7611   -0.8796   -2.1100 C   0  0  0  0  0  0  0  0  0  0  0  0
    5.8567    0.1349   -1.9213 C   0  0  0  0  0  0  0  0  0  0  0  0
    4.2053   -1.0423   -3.1916 O   0  0  0  0  0  0  0  0  0  0  0  0
    1.7119    0.2296    2.5428 N   0  0  0  0  0  0  0  0  0  0  0  0
    0.8035    0.9365    3.1163 C   0  0  0  0  0  0  0  0  0  0  0  0
    0.8563    1.6173    4.3328 N   0  0  0  0  0  0  0  0  0  0  0  0
    1.6473    1.1078    5.4372 C   0  0  0  0  0  0  0  0  0  0  0  0
   -0.5146    3.0279    4.9281 H   0  0  0  0  0  0  0  0  0  0  0  0
   -2.1997    2.2161    3.3876 H   0  0  0  0  0  0  0  0  0  0  0  0
   -2.6393    1.3915    1.0487 H   0  0  0  0  0  0  0  0  0  0  0  0
   -1.1913   -1.4755   -0.7516 H   0  0  0  0  0  0  0  0  0  0  0  0
   -2.1141   -2.3663   -2.8078 H   0  0  0  0  0  0  0  0  0  0  0  0
   -5.2684   -1.1884   -4.3679 H   0  0  0  0  0  0  0  0  0  0  0  0
   -3.6810   -0.9420   -5.1373 H   0  0  0  0  0  0  0  0  0  0  0  0
   -4.0728   -2.4837   -4.3369 H   0  0  0  0  0  0  0  0  0  0  0  0
   -4.9930    0.8152   -2.9350 H   0  0  0  0  0  0  0  0  0  0  0  0
   -4.7188    1.9381    0.2429 H   0  0  0  0  0  0  0  0  0  0  0  0
   -3.4626    2.8959   -0.5978 H   0  0  0  0  0  0  0  0  0  0  0  0
   -4.9901    2.5330   -1.3992 H   0  0  0  0  0  0  0  0  0  0  0  0
    1.1900   -2.3504   -0.4311 H   0  0  0  0  0  0  0  0  0  0  0  0
    1.8226   -0.8869   -1.2411 H   0  0  0  0  0  0  0  0  0  0  0  0
    3.1201   -2.9173   -1.8879 H   0  0  0  0  0  0  0  0  0  0  0  0
    3.5033   -3.2268   -0.1797 H   0  0  0  0  0  0  0  0  0  0  0  0
    4.6994   -1.1685   -0.0805 H   0  0  0  0  0  0  0  0  0  0  0  0
    5.4190    1.1365   -1.9132 H   0  0  0  0  0  0  0  0  0  0  0  0
    6.5695    0.0493   -2.7462 H   0  0  0  0  0  0  0  0  0  0  0  0
    6.3976   -0.0259   -0.9845 H   0  0  0  0  0  0  0  0  0  0  0  0
    1.6405    1.8189    6.2697 H   0  0  0  0  0  0  0  0  0  0  0  0
    1.2487    0.1519    5.7927 H   0  0  0  0  0  0  0  0  0  0  0  0
    2.6881    0.9620    5.1309 H   0  0  0  0  0  0  0  0  0  0  0  0
  1  2  1  0
  2  3  2  0
  3  4  1  0
  4  5  1  0
  5  6  1  0
  6  7  2  0
  7  8  1  0
  8  9  2  0
  9 10  1  0
  9 11  1  0
 11 12  2  0
 12 13  1  0
  4 14  2  0
 14 15  1  0
 15 16  2  3
 16 17  1  0
 17 18  1  0
 18 19  1  0
 19 20  1  0
 20 21  1  0
 20 22  2  0
 15 23  1  0
 23 24  2  0
 24 25  1  0
 25 26  1  0
 25  1  1  0
 24  3  1  0
 12  6  1  0
  1 27  1  0
  2 28  1  0
  5 29  1  0
  7 30  1  0
  8 31  1  0
 10 32  1  0
 10 33  1  0
 10 34  1  0
 11 35  1  0
 13 36  1  0
 13 37  1  0
 13 38  1  0
 17 39  1  0
 17 40  1  0
 18 41  1  0
 18 42  1  0
 19 43  1  0
 21 44  1  0
 21 45  1  0
 21 46  1  0
 26 47  1  0
 26 48  1  0
 26 49  1  0
M  END
>  <ScrubInfo>  (7) 
{"isomerGroup": 0, "isomerId": 6, "confId": 0, "nr_conformers:": 1, "nr_isomers:": 9}

$$$$
_i7
     RDKit          3D

 49 51  0  0  0  0  0  0  0  0999 V2000
   -1.7724    1.3135    2.6915 N   0  0  0  0  0  0  0  0  0  0  0  0
   -2.0101    0.4625    1.6181 C   0  0  0  0  0  0  0  0  0  0  0  0
   -0.9746    0.3665    0.7721 C   0  0  0  0  0  0  0  0  0  0  0  0
   -0.5786   -0.3395   -0.4597 C   0  0  0  0  0  0  0  0  0  0  0  0
   -1.2625   -1.1651   -1.1961 N   0  0  0  0  0  0  0  0  0  0  0  0
   -2.5806   -1.4981   -0.8584 C   0  0  0  0  0  0  0  0  0  0  0  0
   -2.8124   -2.6113   -0.0435 C   0  0  0  0  0  0  0  0  0  0  0  0
   -4.1115   -2.9788    0.3109 C   0  0  0  0  0  0  0  0  0  0  0  0
   -5.2029   -2.2370   -0.1491 C   0  0  0  0  0  0  0  0  0  0  0  0
   -6.6028   -2.6481    0.2006 C   0  0  0  0  0  0  0  0  0  0  0  0
   -4.9758   -1.1462   -0.9990 C   0  0  0  0  0  0  0  0  0  0  0  0
   -3.6722   -0.7746   -1.3682 C   0  0  0  0  0  0  0  0  0  0  0  0
   -3.4606    0.3984   -2.2832 C   0  0  0  0  0  0  0  0  0  0  0  0
    0.7058   -0.0523   -0.8417 N   0  0  0  0  0  0  0  0  0  0  0  0
    1.5882    0.7922   -0.2178 C   0  0  0  0  0  0  0  0  0  0  0  0
    2.8006    1.0329   -0.5730 N   0  0  0  0  0  0  0  0  0  0  0  0
    3.3471    0.3589   -1.7529 C   0  0  0  0  0  0  0  0  0  0  0  0
    4.7916    0.8221   -1.9580 C   0  0  0  0  0  0  0  0  0  0  0  0
    5.5715    0.6367   -0.7489 N   0  0  0  0  0  0  0  0  0  0  0  0
    6.9417    0.7199   -0.7661 C   0  0  0  0  0  0  0  0  0  0  0  0
    7.5747    0.7086    0.5992 C   0  0  0  0  0  0  0  0  0  0  0  0
    7.6087    0.7977   -1.7929 O   0  0  0  0  0  0  0  0  0  0  0  0
    1.2189    1.4956    0.9090 N   0  0  0  0  0  0  0  0  0  0  0  0
    0.0214    1.3198    1.3719 C   0  0  0  0  0  0  0  0  0  0  0  0
   -0.5559    1.9454    2.4793 N   0  0  0  0  0  0  0  0  0  0  0  0
    0.2483    2.3379    3.6206 C   0  0  0  0  0  0  0  0  0  0  0  0
   -2.5649    1.9215    2.9103 H   0  0  0  0  0  0  0  0  0  0  0  0
   -2.9700   -0.0293    1.5593 H   0  0  0  0  0  0  0  0  0  0  0  0
   -1.9706   -3.1972    0.3160 H   0  0  0  0  0  0  0  0  0  0  0  0
   -4.2634   -3.8504    0.9434 H   0  0  0  0  0  0  0  0  0  0  0  0
   -6.9864   -3.3460   -0.5499 H   0  0  0  0  0  0  0  0  0  0  0  0
   -7.2650   -1.7772    0.2466 H   0  0  0  0  0  0  0  0  0  0  0  0
   -6.6343   -3.1316    1.1827 H   0  0  0  0  0  0  0  0  0  0  0  0
   -5.8247   -0.5855   -1.3867 H   0  0  0  0  0  0  0  0  0  0  0  0
   -2.7937    0.1280   -3.1084 H   0  0  0  0  0  0  0  0  0  0  0  0
   -3.0306    1.2379   -1.7283 H   0  0  0  0  0  0  0  0  0  0  0  0
   -4.4039    0.7344   -2.7268 H   0  0  0  0  0  0  0  0  0  0  0  0
    1.0096   -0.5349   -1.6714 H   0  0  0  0  0  0  0  0  0  0  0  0
    3.3377   -0.7273   -1.6012 H   0  0  0  0  0  0  0  0  0  0  0  0
    2.7641    0.5998   -2.6489 H   0  0  0  0  0  0  0  0  0  0  0  0
    5.2593    0.2743   -2.7829 H   0  0  0  0  0  0  0  0  0  0  0  0
    4.8211    1.8907   -2.1994 H   0  0  0  0  0  0  0  0  0  0  0  0
    5.0792    0.8808    0.1050 H   0  0  0  0  0  0  0  0  0  0  0  0
    6.8571    0.4253    1.3744 H   0  0  0  0  0  0  0  0  0  0  0  0
    8.3923   -0.0175    0.6080 H   0  0  0  0  0  0  0  0  0  0  0  0
    7.9631    1.7058    0.8215 H   0  0  0  0  0  0  0  0  0  0  0  0
   -0.3602    2.8917    4.3429 H   0  0  0  0  0  0  0  0  0  0  0  0
    0.6681    1.4590    4.1210 H   0  0  0  0  0  0  0  0  0  0  0  0
    1.0702    2.9899    3.3080 H   0  0  0  0  0  0  0  0  0  0  0  0
  1  2  1  0
  2  3  2  0
  3  4  1  0
  4  5  2  3
  5  6  1  0
  6  7  2  0
  7  8  1  0
  8  9  2  0
  9 10  1  0
  9 11  1  0
 11 12  2  0
 12 13  1  0
  4 14  1  0
 14 15  1  0
 15 16  2  3
 16 17  1  0
 17 18  1  0
 18 19  1  0
 19 20  1  0
 20 21  1  0
 20 22  2  0
 15 23  1  0
 23 24  2  0
 24 25  1  0
 25 26  1  0
 25  1  1  0
 24  3  1  0
 12  6  1  0
  1 27  1  0
  2 28  1  0
  7 29  1  0
  8 30  1  0
 10 31  1  0
 10 32  1  0
 10 33  1  0
 11 34  1  0
 13 35  1  0
 13 36  1  0
 13 37  1  0
 14 38  1  0
 17 39  1  0
 17 40  1  0
 18 41  1  0
 18 42  1  0
 19 43  1  0
 21 44  1  0
 21 45  1  0
 21 46  1  0
 26 47  1  0
 26 48  1  0
 26 49  1  0
M  END
>  <ScrubInfo>  (8) 
{"isomerGroup": 0, "isomerId": 7, "confId": 0, "nr_conformers:": 1, "nr_isomers:": 9}

$$$$
_i8
     RDKit          3D

 49 51  0  0  0  0  0  0  0  0999 V2000
    0.9591   -1.5836    1.0502 N   0  0  0  0  0  0  0  0  0  0  0  0
    1.6191   -0.4072    0.7575 C   0  0  0  0  0  0  0  0  0  0  0  0
    2.9037   -0.3782    0.8903 N   0  0  0  0  0  0  0  0  0  0  0  0
    3.5924    0.8845    0.5888 C   0  0  0  0  0  0  0  0  0  0  0  0
    5.0948    0.7000    0.8146 C   0  0  0  0  0  0  0  0  0  0  0  0
    5.6154   -0.3878    0.0077 N   0  0  0  0  0  0  0  0  0  0  0  0
    6.9678   -0.5616   -0.1599 C   0  0  0  0  0  0  0  0  0  0  0  0
    7.3402   -1.8364   -0.8677 C   0  0  0  0  0  0  0  0  0  0  0  0
    7.8123    0.2383    0.2293 O   0  0  0  0  0  0  0  0  0  0  0  0
    0.7737    0.6061    0.3491 N   0  0  0  0  0  0  0  0  0  0  0  0
   -0.5981    0.6365    0.1892 C   0  0  0  0  0  0  0  0  0  0  0  0
   -1.1886    1.7208   -0.2156 N   0  0  0  0  0  0  0  0  0  0  0  0
   -2.5751    1.7932   -0.3864 C   0  0  0  0  0  0  0  0  0  0  0  0
   -3.3707    2.2122    0.6855 C   0  0  0  0  0  0  0  0  0  0  0  0
   -4.7562    2.3123    0.5501 C   0  0  0  0  0  0  0  0  0  0  0  0
   -5.3689    1.9975   -0.6657 C   0  0  0  0  0  0  0  0  0  0  0  0
   -6.8547    2.1304   -0.8251 C   0  0  0  0  0  0  0  0  0  0  0  0
   -4.5704    1.6194   -1.7534 C   0  0  0  0  0  0  0  0  0  0  0  0
   -3.1743    1.5248   -1.6290 C   0  0  0  0  0  0  0  0  0  0  0  0
   -2.3454    1.1139   -2.8130 C   0  0  0  0  0  0  0  0  0  0  0  0
   -1.1957   -0.6445    0.5237 C   0  0  0  0  0  0  0  0  0  0  0  0
   -2.4849   -1.2075    0.5575 C   0  0  0  0  0  0  0  0  0  0  0  0
   -2.4837   -2.4877    0.9585 N   0  0  0  0  0  0  0  0  0  0  0  0
   -1.1786   -2.7544    1.1852 N   0  0  0  0  0  0  0  0  0  0  0  0
   -0.8080   -4.0703    1.6413 C   0  0  0  0  0  0  0  0  0  0  0  0
   -0.3828   -1.6793    0.9347 C   0  0  0  0  0  0  0  0  0  0  0  0
    1.5605   -2.3344    1.3670 H   0  0  0  0  0  0  0  0  0  0  0  0
    3.2308    1.6874    1.2414 H   0  0  0  0  0  0  0  0  0  0  0  0
    3.4183    1.1664   -0.4568 H   0  0  0  0  0  0  0  0  0  0  0  0
    5.6349    1.6212    0.5709 H   0  0  0  0  0  0  0  0  0  0  0  0
    5.2995    0.4529    1.8625 H   0  0  0  0  0  0  0  0  0  0  0  0
    5.0089   -1.1968   -0.0599 H   0  0  0  0  0  0  0  0  0  0  0  0
    6.4693   -2.3112   -1.3283 H   0  0  0  0  0  0  0  0  0  0  0  0
    7.7838   -2.5289   -0.1477 H   0  0  0  0  0  0  0  0  0  0  0  0
    8.0629   -1.6093   -1.6563 H   0  0  0  0  0  0  0  0  0  0  0  0
    1.1977    1.4907    0.1183 H   0  0  0  0  0  0  0  0  0  0  0  0
   -2.9043    2.4615    1.6349 H   0  0  0  0  0  0  0  0  0  0  0  0
   -5.3513    2.6386    1.3999 H   0  0  0  0  0  0  0  0  0  0  0  0
   -7.3682    1.9398    0.1232 H   0  0  0  0  0  0  0  0  0  0  0  0
   -7.1057    3.1393   -1.1667 H   0  0  0  0  0  0  0  0  0  0  0  0
   -7.2355    1.4048   -1.5515 H   0  0  0  0  0  0  0  0  0  0  0  0
   -5.0409    1.4012   -2.7107 H   0  0  0  0  0  0  0  0  0  0  0  0
   -1.9511    0.1036   -2.6660 H   0  0  0  0  0  0  0  0  0  0  0  0
   -1.5141    1.8106   -2.9618 H   0  0  0  0  0  0  0  0  0  0  0  0
   -2.9369    1.1152   -3.7347 H   0  0  0  0  0  0  0  0  0  0  0  0
   -3.4369   -0.7573    0.3111 H   0  0  0  0  0  0  0  0  0  0  0  0
   -1.1949   -4.8044    0.9298 H   0  0  0  0  0  0  0  0  0  0  0  0
    0.2786   -4.1552    1.7012 H   0  0  0  0  0  0  0  0  0  0  0  0
   -1.2481   -4.2271    2.6293 H   0  0  0  0  0  0  0  0  0  0  0  0
  1  2  1  0
  2  3  2  3
  3  4  1  0
  4  5  1  0
  5  6  1  0
  6  7  1  0
  7  8  1  0
  7  9  2  0
  2 10  1  0
 10 11  1  0
 11 12  2  3
 12 13  1  0
 13 14  2  0
 14 15  1  0
 15 16  2  0
 16 17  1  0
 16 18  1  0
 18 19  2  0
 19 20  1  0
 11 21  1  0
 21 22  1  0
 22 23  2  0
 23 24  1  0
 24 25  1  0
 24 26  1  0
 26  1  1  0
 19 13  1  0
 26 21  2  0
  1 27  1  0
  4 28  1  0
  4 29  1  0
  5 30  1  0
  5 31  1  0
  6 32  1  0
  8 33  1  0
  8 34  1  0
  8 35  1  0
 10 36  1  0
 14 37  1  0
 15 38  1  0
 17 39  1  0
 17 40  1  0
 17 41  1  0
 18 42  1  0
 20 43  1  0
 20 44  1  0
 20 45  1  0
 22 46  1  0
 25 47  1  0
 25 48  1  0
 25 49  1  0
M  END
>  <ScrubInfo>  (9) 
{"isomerGroup": 0, "isomerId": 8, "confId": 0, "nr_conformers:": 1, "nr_isomers:": 9}

$$$$
