_i0
     RDKit          3D

 46 48  0  0  0  0  0  0  0  0999 V2000
    4.0065    3.2242   -1.2582 C   0  0  0  0  0  0  0  0  0  0  0  0
    4.1557    1.8221   -1.7829 C   0  0  0  0  0  0  0  0  0  0  0  0
    5.2271    1.3844   -2.1878 O   0  0  0  0  0  0  0  0  0  0  0  0
    3.0000    1.0792   -1.7476 N   0  0  0  0  0  0  0  0  0  0  0  0
    2.9899   -0.3215   -2.1445 C   0  0  0  0  0  0  0  0  0  0  0  0
    3.5796   -1.2556   -1.0714 C   0  0  0  0  0  0  0  0  0  0  0  0
    3.0008   -1.0282    0.2511 N   0  0  0  0  0  0  0  0  0  0  0  0
    1.6441   -1.2759    0.3788 C   0  0  0  0  0  0  0  0  0  0  0  0
    0.9852   -0.3948    1.1549 N   0  0  0  0  0  0  0  0  0  0  0  0
   -0.3501   -0.5317    1.3555 C   0  0  0  0  0  0  0  0  0  0  0  0
   -0.9695    0.4112    2.1923 N   0  0  0  0  0  0  0  0  0  0  0  0
   -2.2588    0.9562    2.0200 C   0  0  0  0  0  0  0  0  0  0  0  0
   -3.1221    0.9213    3.1273 C   0  0  0  0  0  0  0  0  0  0  0  0
   -4.4030    1.4704    3.0610 C   0  0  0  0  0  0  0  0  0  0  0  0
   -4.8241    2.0829    1.8875 C   0  0  0  0  0  0  0  0  0  0  0  0
   -6.4040    2.7564    1.7926 Cl  0  0  0  0  0  0  0  0  0  0  0  0
   -3.9678    2.1657    0.7905 C   0  0  0  0  0  0  0  0  0  0  0  0
   -2.6679    1.6300    0.8513 C   0  0  0  0  0  0  0  0  0  0  0  0
   -1.7780    1.7796   -0.3524 C   0  0  0  0  0  0  0  0  0  0  0  0
   -0.9986   -1.6000    0.7330 C   0  0  0  0  0  0  0  0  0  0  0  0
   -2.2943   -2.1489    0.6461 C   0  0  0  0  0  0  0  0  0  0  0  0
   -2.3483   -3.2312   -0.1398 N   0  0  0  0  0  0  0  0  0  0  0  0
   -1.0657   -3.3848   -0.5428 N   0  0  0  0  0  0  0  0  0  0  0  0
   -0.7206   -4.4878   -1.4037 C   0  0  0  0  0  0  0  0  0  0  0  0
   -0.2211   -2.4266   -0.0527 C   0  0  0  0  0  0  0  0  0  0  0  0
    1.0955   -2.3065   -0.2775 N   0  0  0  0  0  0  0  0  0  0  0  0
    2.9549    3.5119   -1.1716 H   0  0  0  0  0  0  0  0  0  0  0  0
    4.4759    3.2892   -0.2732 H   0  0  0  0  0  0  0  0  0  0  0  0
    4.4951    3.9181   -1.9477 H   0  0  0  0  0  0  0  0  0  0  0  0
    2.1988    1.4283   -1.2371 H   0  0  0  0  0  0  0  0  0  0  0  0
    1.9481   -0.5792   -2.3609 H   0  0  0  0  0  0  0  0  0  0  0  0
    3.5600   -0.4293   -3.0740 H   0  0  0  0  0  0  0  0  0  0  0  0
    4.6574   -1.0730   -0.9897 H   0  0  0  0  0  0  0  0  0  0  0  0
    3.4685   -2.3027   -1.3776 H   0  0  0  0  0  0  0  0  0  0  0  0
    3.1764   -0.1025    0.6237 H   0  0  0  0  0  0  0  0  0  0  0  0
   -0.2801    1.1319    2.3924 H   0  0  0  0  0  0  0  0  0  0  0  0
   -2.7974    0.4410    4.0486 H   0  0  0  0  0  0  0  0  0  0  0  0
   -5.0605    1.4145    3.9241 H   0  0  0  0  0  0  0  0  0  0  0  0
   -4.3105    2.6619   -0.1153 H   0  0  0  0  0  0  0  0  0  0  0  0
   -1.7756    0.8578   -0.9413 H   0  0  0  0  0  0  0  0  0  0  0  0
   -2.1234    2.5934   -0.9996 H   0  0  0  0  0  0  0  0  0  0  0  0
   -0.7547    2.0312   -0.0564 H   0  0  0  0  0  0  0  0  0  0  0  0
   -3.2033   -1.8023    1.1208 H   0  0  0  0  0  0  0  0  0  0  0  0
   -0.9615   -5.4182   -0.8834 H   0  0  0  0  0  0  0  0  0  0  0  0
    0.3457   -4.4602   -1.6388 H   0  0  0  0  0  0  0  0  0  0  0  0
   -1.3046   -4.4018   -2.3235 H   0  0  0  0  0  0  0  0  0  0  0  0
  1  2  1  0
  2  3  2  0
  2  4  1  0
  4  5  1  0
  5  6  1  0
  6  7  1  0
  7  8  1  0
  8  9  2  0
  9 10  1  0
 10 11  1  0
 11 12  1  0
 12 13  2  0
 13 14  1  0
 14 15  2  0
 15 16  1  0
 15 17  1  0
 17 18  2  0
 18 19  1  0
 10 20  2  0
 20 21  1  0
 21 22  2  0
 22 23  1  0
 23 24  1  0
 23 25  1  0
 25 26  2  0
 26  8  1  0
 18 12  1  0
 25 20  1  0
  1 27  1  0
  1 28  1  0
  1 29  1  0
  4 30  1  0
  5 31  1  0
  5 32  1  0
  6 33  1  0
  6 34  1  0
  7 35  1  0
 11 36  1  0
 13 37  1  0
 14 38  1  0
 17 39  1  0
 19 40  1  0
 19 41  1  0
 19 42  1  0
 21 43  1  0
 24 44  1  0
 24 45  1  0
 24 46  1  0
M  END
>  <ScrubInfo>  (1) 
{"isomerGroup": 0, "isomerId": 0, "confId": 0, "nr_conformers:": 1, "nr_isomers:": 9}

$$$$
_i1
     RDKit          3D

 46 48  0  0  0  0  0  0  0  0999 V2000
   -0.2749   -0.2660   -0.4378 N   0  0  0  0  0  0  0  0  0  0  0  0
   -1.5474   -0.1235   -0.9586 C   0  0  0  0  0  0  0  0  0  0  0  0
   -2.6675   -0.6566   -0.3474 N   0  0  0  0  0  0  0  0  0  0  0  0
   -2.9072   -0.8625    1.0294 C   0  0  0  0  0  0  0  0  0  0  0  0
   -2.1957   -0.1662    2.0209 C   0  0  0  0  0  0  0  0  0  0  0  0
   -2.4242   -0.4017    3.3794 C   0  0  0  0  0  0  0  0  0  0  0  0
   -3.3668   -1.3456    3.7655 C   0  0  0  0  0  0  0  0  0  0  0  0
   -3.6537   -1.6364    5.4360 Cl  0  0  0  0  0  0  0  0  0  0  0  0
   -4.0812   -2.0562    2.8046 C   0  0  0  0  0  0  0  0  0  0  0  0
   -3.8555   -1.8296    1.4346 C   0  0  0  0  0  0  0  0  0  0  0  0
   -4.6359   -2.6362    0.4305 C   0  0  0  0  0  0  0  0  0  0  0  0
   -1.6036    0.5313   -2.1252 C   0  0  0  0  0  0  0  0  0  0  0  0
   -2.6279    0.9789   -3.0754 C   0  0  0  0  0  0  0  0  0  0  0  0
   -2.1358    1.6548   -4.0820 N   0  0  0  0  0  0  0  0  0  0  0  0
   -0.7457    1.6560   -3.8860 N   0  0  0  0  0  0  0  0  0  0  0  0
    0.0718    2.5560   -4.6628 C   0  0  0  0  0  0  0  0  0  0  0  0
   -0.3430    1.0398   -2.7125 C   0  0  0  0  0  0  0  0  0  0  0  0
    0.8327    0.9097   -2.1984 N   0  0  0  0  0  0  0  0  0  0  0  0
    0.8749    0.1981   -1.0202 C   0  0  0  0  0  0  0  0  0  0  0  0
    2.0069   -0.0509   -0.4462 N   0  0  0  0  0  0  0  0  0  0  0  0
    3.2107    0.4585   -1.1264 C   0  0  0  0  0  0  0  0  0  0  0  0
    4.4481    0.0054   -0.3486 C   0  0  0  0  0  0  0  0  0  0  0  0
    4.3816    0.4292    1.0382 N   0  0  0  0  0  0  0  0  0  0  0  0
    5.4766    0.3433    1.8620 C   0  0  0  0  0  0  0  0  0  0  0  0
    5.1833    0.6505    3.3057 C   0  0  0  0  0  0  0  0  0  0  0  0
    6.6013    0.0408    1.4768 O   0  0  0  0  0  0  0  0  0  0  0  0
   -0.1678   -0.8790    0.3571 H   0  0  0  0  0  0  0  0  0  0  0  0
   -3.5208   -0.6446   -0.8964 H   0  0  0  0  0  0  0  0  0  0  0  0
   -1.4759    0.6035    1.7526 H   0  0  0  0  0  0  0  0  0  0  0  0
   -1.8687    0.1607    4.1252 H   0  0  0  0  0  0  0  0  0  0  0  0
   -4.8129   -2.7956    3.1232 H   0  0  0  0  0  0  0  0  0  0  0  0
   -5.3126   -1.9854   -0.1322 H   0  0  0  0  0  0  0  0  0  0  0  0
   -5.2424   -3.4077    0.9168 H   0  0  0  0  0  0  0  0  0  0  0  0
   -3.9571   -3.1448   -0.2618 H   0  0  0  0  0  0  0  0  0  0  0  0
   -3.6914    0.7678   -2.9069 H   0  0  0  0  0  0  0  0  0  0  0  0
   -0.3281    2.6671   -5.6759 H   0  0  0  0  0  0  0  0  0  0  0  0
    0.1026    3.5436   -4.1923 H   0  0  0  0  0  0  0  0  0  0  0  0
    1.0957    2.1783   -4.7480 H   0  0  0  0  0  0  0  0  0  0  0  0
    3.1885    1.5549   -1.1559 H   0  0  0  0  0  0  0  0  0  0  0  0
    3.2798    0.0705   -2.1495 H   0  0  0  0  0  0  0  0  0  0  0  0
    5.3588    0.4078   -0.8049 H   0  0  0  0  0  0  0  0  0  0  0  0
    4.5227   -1.0881   -0.3490 H   0  0  0  0  0  0  0  0  0  0  0  0
    3.4559    0.3883    1.4478 H   0  0  0  0  0  0  0  0  0  0  0  0
    4.1959    1.1043    3.4291 H   0  0  0  0  0  0  0  0  0  0  0  0
    5.9321    1.3536    3.6809 H   0  0  0  0  0  0  0  0  0  0  0  0
    5.2237   -0.2762    3.8840 H   0  0  0  0  0  0  0  0  0  0  0  0
  1  2  1  0
  2  3  1  0
  3  4  1  0
  4  5  2  0
  5  6  1  0
  6  7  2  0
  7  8  1  0
  7  9  1  0
  9 10  2  0
 10 11  1  0
  2 12  2  0
 12 13  1  0
 13 14  2  0
 14 15  1  0
 15 16  1  0
 15 17  1  0
 17 18  2  0
 18 19  1  0
 19 20  2  3
 20 21  1  0
 21 22  1  0
 22 23  1  0
 23 24  1  0
 24 25  1  0
 24 26  2  0
 19  1  1  0
 10  4  1  0
 17 12  1  0
  1 27  1  0
  3 28  1  0
  5 29  1  0
  6 30  1  0
  9 31  1  0
 11 32  1  0
 11 33  1  0
 11 34  1  0
 13 35  1  0
 16 36  1  0
 16 37  1  0
 16 38  1  0
 21 39  1  0
 21 40  1  0
 22 41  1  0
 22 42  1  0
 23 43  1  0
 25 44  1  0
 25 45  1  0
 25 46  1  0
M  END
>  <ScrubInfo>  (2) 
{"isomerGroup": 0, "isomerId": 1, "confId": 0, "nr_conformers:": 1, "nr_isomers:": 9}

$$$$
_i2
     RDKit          3D

 46 48  0  0  0  0  0  0  0  0999 V2000
   -1.0005   -0.0675    0.1889 N   0  0  0  0  0  0  0  0  0  0  0  0
    0.3441   -0.3419    0.3271 C   0  0  0  0  0  0  0  0  0  0  0  0
    1.1327    0.5669   -0.3298 N   0  0  0  0  0  0  0  0  0  0  0  0
    2.5868    0.4064   -0.3305 C   0  0  0  0  0  0  0  0  0  0  0  0
    3.2628    1.5797   -1.0547 C   0  0  0  0  0  0  0  0  0  0  0  0
    4.6946    1.4036   -1.2146 N   0  0  0  0  0  0  0  0  0  0  0  0
    5.5613    1.6177   -0.1680 C   0  0  0  0  0  0  0  0  0  0  0  0
    7.0048    1.3409   -0.4902 C   0  0  0  0  0  0  0  0  0  0  0  0
    5.1985    1.9870    0.9432 O   0  0  0  0  0  0  0  0  0  0  0  0
    0.8196   -1.3532    1.0080 N   0  0  0  0  0  0  0  0  0  0  0  0
   -0.1759   -2.1054    1.5549 C   0  0  0  0  0  0  0  0  0  0  0  0
   -1.5392   -1.9041    1.4708 C   0  0  0  0  0  0  0  0  0  0  0  0
   -2.1153   -2.9530    2.1996 C   0  0  0  0  0  0  0  0  0  0  0  0
   -1.1935   -3.7770    2.7157 N   0  0  0  0  0  0  0  0  0  0  0  0
   -0.0175   -3.2300    2.3162 N   0  0  0  0  0  0  0  0  0  0  0  0
    1.2211   -3.8519    2.7104 C   0  0  0  0  0  0  0  0  0  0  0  0
   -2.0497   -0.7738    0.7402 C   0  0  0  0  0  0  0  0  0  0  0  0
   -3.3258   -0.5790    0.7062 N   0  0  0  0  0  0  0  0  0  0  0  0
   -3.8023    0.5288   -0.0075 C   0  0  0  0  0  0  0  0  0  0  0  0
   -3.9412    1.7557    0.6535 C   0  0  0  0  0  0  0  0  0  0  0  0
   -4.4019    2.8834   -0.0273 C   0  0  0  0  0  0  0  0  0  0  0  0
   -4.7352    2.7830   -1.3747 C   0  0  0  0  0  0  0  0  0  0  0  0
   -5.2934    4.1719   -2.2223 Cl  0  0  0  0  0  0  0  0  0  0  0  0
   -4.6205    1.5638   -2.0429 C   0  0  0  0  0  0  0  0  0  0  0  0
   -4.1650    0.4228   -1.3626 C   0  0  0  0  0  0  0  0  0  0  0  0
   -4.0570   -0.8891   -2.0885 C   0  0  0  0  0  0  0  0  0  0  0  0
   -1.2400    0.8221   -0.2152 H   0  0  0  0  0  0  0  0  0  0  0  0
    0.7639    0.8522   -1.2288 H   0  0  0  0  0  0  0  0  0  0  0  0
    2.9576    0.3443    0.6993 H   0  0  0  0  0  0  0  0  0  0  0  0
    2.8494   -0.5318   -0.8344 H   0  0  0  0  0  0  0  0  0  0  0  0
    2.8451    1.6982   -2.0607 H   0  0  0  0  0  0  0  0  0  0  0  0
    3.0789    2.5124   -0.5085 H   0  0  0  0  0  0  0  0  0  0  0  0
    5.0434    0.9920   -2.0708 H   0  0  0  0  0  0  0  0  0  0  0  0
    7.1676    1.2485   -1.5676 H   0  0  0  0  0  0  0  0  0  0  0  0
    7.6182    2.1677   -0.1216 H   0  0  0  0  0  0  0  0  0  0  0  0
    7.3077    0.4102   -0.0034 H   0  0  0  0  0  0  0  0  0  0  0  0
   -3.1641   -3.1528    2.3770 H   0  0  0  0  0  0  0  0  0  0  0  0
    1.2433   -4.8640    2.2986 H   0  0  0  0  0  0  0  0  0  0  0  0
    1.2581   -3.8830    3.8023 H   0  0  0  0  0  0  0  0  0  0  0  0
    2.0684   -3.2781    2.3287 H   0  0  0  0  0  0  0  0  0  0  0  0
   -3.6926    1.8272    1.7101 H   0  0  0  0  0  0  0  0  0  0  0  0
   -4.5040    3.8281    0.4998 H   0  0  0  0  0  0  0  0  0  0  0  0
   -4.8972    1.4990   -3.0928 H   0  0  0  0  0  0  0  0  0  0  0  0
   -4.5248   -0.8380   -3.0774 H   0  0  0  0  0  0  0  0  0  0  0  0
   -3.0053   -1.1589   -2.2263 H   0  0  0  0  0  0  0  0  0  0  0  0
   -4.5659   -1.6809   -1.5293 H   0  0  0  0  0  0  0  0  0  0  0  0
  1  2  1  0
  2  3  1  0
  3  4  1  0
  4  5  1  0
  5  6  1  0
  6  7  1  0
  7  8  1  0
  7  9  2  0
  2 10  2  0
 10 11  1  0
 11 12  2  0
 12 13  1  0
 13 14  2  0
 14 15  1  0
 15 16  1  0
 12 17  1  0
 17 18  2  3
 18 19  1  0
 19 20  2  0
 20 21  1  0
 21 22  2  0
 22 23  1  0
 22 24  1  0
 24 25  2  0
 25 26  1  0
 17  1  1  0
 25 19  1  0
 15 11  1  0
  1 27  1  0
  3 28  1  0
  4 29  1  0
  4 30  1  0
  5 31  1  0
  5 32  1  0
  6 33  1  0
  8 34  1  0
  8 35  1  0
  8 36  1  0
 13 37  1  0
 16 38  1  0
 16 39  1  0
 16 40  1  0
 20 41  1  0
 21 42  1  0
 24 43  1  0
 26 44  1  0
 26 45  1  0
 26 46  1  0
M  END
>  <ScrubInfo>  (3) 
{"isomerGroup": 0, "isomerId": 2, "confId": 0, "nr_conformers:": 1, "nr_isomers:": 9}

$$$$
_i3
     RDKit          3D

 46 48  0  0  0  0  0  0  0  0999 V2000
   -0.5487    2.0660    0.9647 N   0  0  0  0  0  0  0  0  0  0  0  0
   -0.4833    0.6910    0.8116 C   0  0  0  0  0  0  0  0  0  0  0  0
   -1.3604   -0.1679    1.1869 N   0  0  0  0  0  0  0  0  0  0  0  0
   -2.5989    0.2347    1.8519 C   0  0  0  0  0  0  0  0  0  0  0  0
   -3.7026    0.4153    0.8041 C   0  0  0  0  0  0  0  0  0  0  0  0
   -3.9023   -0.8048    0.0440 N   0  0  0  0  0  0  0  0  0  0  0  0
   -4.7859   -1.7661    0.4785 C   0  0  0  0  0  0  0  0  0  0  0  0
   -4.7009   -3.0637   -0.2789 C   0  0  0  0  0  0  0  0  0  0  0  0
   -5.5765   -1.5995    1.4021 O   0  0  0  0  0  0  0  0  0  0  0  0
    0.5990    0.0954    0.1858 N   0  0  0  0  0  0  0  0  0  0  0  0
    1.6014    0.8083   -0.2365 C   0  0  0  0  0  0  0  0  0  0  0  0
    2.7362    0.3652   -0.8810 N   0  0  0  0  0  0  0  0  0  0  0  0
    2.9329   -0.9730   -1.2917 C   0  0  0  0  0  0  0  0  0  0  0  0
    3.0813   -1.2248   -2.6691 C   0  0  0  0  0  0  0  0  0  0  0  0
    3.2120   -2.5266   -3.1574 C   0  0  0  0  0  0  0  0  0  0  0  0
    3.1856   -3.5968   -2.2725 C   0  0  0  0  0  0  0  0  0  0  0  0
    3.3349   -5.2036   -2.8683 Cl  0  0  0  0  0  0  0  0  0  0  0  0
    3.0400   -3.3732   -0.9058 C   0  0  0  0  0  0  0  0  0  0  0  0
    2.9250   -2.0643   -0.3988 C   0  0  0  0  0  0  0  0  0  0  0  0
    2.7955   -1.9020    1.0924 C   0  0  0  0  0  0  0  0  0  0  0  0
    1.5837    2.2451   -0.0547 C   0  0  0  0  0  0  0  0  0  0  0  0
    2.4314    3.3349   -0.3093 C   0  0  0  0  0  0  0  0  0  0  0  0
    1.8931    4.5014    0.0761 N   0  0  0  0  0  0  0  0  0  0  0  0
    0.6951    4.1493    0.6038 N   0  0  0  0  0  0  0  0  0  0  0  0
   -0.1613    5.1751    1.1430 C   0  0  0  0  0  0  0  0  0  0  0  0
    0.4885    2.8077    0.5406 C   0  0  0  0  0  0  0  0  0  0  0  0
   -1.3500    2.4514    1.4385 H   0  0  0  0  0  0  0  0  0  0  0  0
   -2.4863    1.1391    2.4578 H   0  0  0  0  0  0  0  0  0  0  0  0
   -2.8784   -0.5632    2.5499 H   0  0  0  0  0  0  0  0  0  0  0  0
   -4.6385    0.7122    1.2882 H   0  0  0  0  0  0  0  0  0  0  0  0
   -3.4235    1.1928    0.0854 H   0  0  0  0  0  0  0  0  0  0  0  0
   -3.0789   -1.1290   -0.4529 H   0  0  0  0  0  0  0  0  0  0  0  0
   -4.1360   -2.9507   -1.2086 H   0  0  0  0  0  0  0  0  0  0  0  0
   -4.2102   -3.8125    0.3482 H   0  0  0  0  0  0  0  0  0  0  0  0
   -5.7112   -3.3973   -0.5316 H   0  0  0  0  0  0  0  0  0  0  0  0
    3.1611    1.0279   -1.5161 H   0  0  0  0  0  0  0  0  0  0  0  0
    3.0737   -0.4039   -3.3823 H   0  0  0  0  0  0  0  0  0  0  0  0
    3.3193   -2.6962   -4.2251 H   0  0  0  0  0  0  0  0  0  0  0  0
    3.0186   -4.2202   -0.2232 H   0  0  0  0  0  0  0  0  0  0  0  0
    3.4038   -2.6512    1.6118 H   0  0  0  0  0  0  0  0  0  0  0  0
    1.7540   -2.0314    1.4004 H   0  0  0  0  0  0  0  0  0  0  0  0
    3.1573   -0.9260    1.4293 H   0  0  0  0  0  0  0  0  0  0  0  0
    3.4175    3.3461   -0.7544 H   0  0  0  0  0  0  0  0  0  0  0  0
   -0.3286    5.9283    0.3689 H   0  0  0  0  0  0  0  0  0  0  0  0
   -1.1164    4.7414    1.4465 H   0  0  0  0  0  0  0  0  0  0  0  0
    0.3381    5.6192    2.0077 H   0  0  0  0  0  0  0  0  0  0  0  0
  1  2  1  0
  2  3  2  3
  3  4  1  0
  4  5  1  0
  5  6  1  0
  6  7  1  0
  7  8  1  0
  7  9  2  0
  2 10  1  0
 10 11  2  0
 11 12  1  0
 12 13  1  0
 13 14  2  0
 14 15  1  0
 15 16  2  0
 16 17  1  0
 16 18  1  0
 18 19  2  0
 19 20  1  0
 11 21  1  0
 21 22  1  0
 22 23  2  0
 23 24  1  0
 24 25  1  0
 24 26  1  0
 26  1  1  0
 19 13  1  0
 26 21  2  0
  1 27  1  0
  4 28  1  0
  4 29  1  0
  5 30  1  0
  5 31  1  0
  6 32  1  0
  8 33  1  0
  8 34  1  0
  8 35  1  0
 12 36  1  0
 14 37  1  0
 15 38  1  0
 18 39  1  0
 20 40  1  0
 20 41  1  0
 20 42  1  0
 22 43  1  0
 25 44  1  0
 25 45  1  0
 25 46  1  0
M  END
>  <ScrubInfo>  (4) 
{"isomerGroup": 0, "isomerId": 3, "confId": 0, "nr_conformers:": 1, "nr_isomers:": 9}

$$$$
_i4
     RDKit          3D

 46 48  0  0  0  0  0  0  0  0999 V2000
   -2.1871   -0.5383   -2.8735 N   0  0  0  0  0  0  0  0  0  0  0  0
   -2.4583    0.0028   -1.6213 C   0  0  0  0  0  0  0  0  0  0  0  0
   -1.4156   -0.0503   -0.7783 C   0  0  0  0  0  0  0  0  0  0  0  0
   -1.0705    0.3505    0.5796 C   0  0  0  0  0  0  0  0  0  0  0  0
   -1.7866    0.8992    1.5040 N   0  0  0  0  0  0  0  0  0  0  0  0
   -3.1326    1.2036    1.2833 C   0  0  0  0  0  0  0  0  0  0  0  0
   -3.4701    2.4728    0.7958 C   0  0  0  0  0  0  0  0  0  0  0  0
   -4.8035    2.8198    0.5735 C   0  0  0  0  0  0  0  0  0  0  0  0
   -5.8077    1.8981    0.8534 C   0  0  0  0  0  0  0  0  0  0  0  0
   -7.4527    2.3154    0.5704 Cl  0  0  0  0  0  0  0  0  0  0  0  0
   -5.4910    0.6393    1.3645 C   0  0  0  0  0  0  0  0  0  0  0  0
   -4.1521    0.2862    1.5992 C   0  0  0  0  0  0  0  0  0  0  0  0
   -3.8223   -1.0656    2.1674 C   0  0  0  0  0  0  0  0  0  0  0  0
    0.2328    0.1005    0.9153 N   0  0  0  0  0  0  0  0  0  0  0  0
    1.0772   -0.4844    0.1237 C   0  0  0  0  0  0  0  0  0  0  0  0
    2.3651   -0.7065    0.5175 N   0  0  0  0  0  0  0  0  0  0  0  0
    3.0162    0.1283    1.5172 C   0  0  0  0  0  0  0  0  0  0  0  0
    4.3070   -0.5462    2.0019 C   0  0  0  0  0  0  0  0  0  0  0  0
    5.2278   -0.8753    0.9226 N   0  0  0  0  0  0  0  0  0  0  0  0
    5.9790    0.0903    0.2979 C   0  0  0  0  0  0  0  0  0  0  0  0
    6.8667   -0.4269   -0.8012 C   0  0  0  0  0  0  0  0  0  0  0  0
    5.9250    1.2803    0.5891 O   0  0  0  0  0  0  0  0  0  0  0  0
    0.8000   -0.9336   -1.1391 N   0  0  0  0  0  0  0  0  0  0  0  0
   -0.3941   -0.7472   -1.5827 C   0  0  0  0  0  0  0  0  0  0  0  0
   -0.9289   -1.1194   -2.8173 N   0  0  0  0  0  0  0  0  0  0  0  0
   -0.1076   -1.1364   -4.0125 C   0  0  0  0  0  0  0  0  0  0  0  0
   -2.9419   -1.1277   -3.2326 H   0  0  0  0  0  0  0  0  0  0  0  0
   -3.4455    0.4016   -1.4413 H   0  0  0  0  0  0  0  0  0  0  0  0
   -2.6821    3.1942    0.5927 H   0  0  0  0  0  0  0  0  0  0  0  0
   -5.0474    3.8068    0.1909 H   0  0  0  0  0  0  0  0  0  0  0  0
   -6.2883   -0.0643    1.5922 H   0  0  0  0  0  0  0  0  0  0  0  0
   -3.1560   -0.9684    3.0307 H   0  0  0  0  0  0  0  0  0  0  0  0
   -4.7235   -1.5846    2.5108 H   0  0  0  0  0  0  0  0  0  0  0  0
   -3.3435   -1.6893    1.4062 H   0  0  0  0  0  0  0  0  0  0  0  0
    2.9562   -0.9208   -0.2759 H   0  0  0  0  0  0  0  0  0  0  0  0
    3.2354    1.1079    1.0785 H   0  0  0  0  0  0  0  0  0  0  0  0
    2.3628    0.2846    2.3829 H   0  0  0  0  0  0  0  0  0  0  0  0
    4.8220    0.1099    2.7123 H   0  0  0  0  0  0  0  0  0  0  0  0
    4.0733   -1.4871    2.5122 H   0  0  0  0  0  0  0  0  0  0  0  0
    5.2662   -1.8352    0.6057 H   0  0  0  0  0  0  0  0  0  0  0  0
    7.8741   -0.0235   -0.6664 H   0  0  0  0  0  0  0  0  0  0  0  0
    6.4654   -0.1050   -1.7657 H   0  0  0  0  0  0  0  0  0  0  0  0
    6.9304   -1.5185   -0.7902 H   0  0  0  0  0  0  0  0  0  0  0  0
   -0.6752   -1.5362   -4.8590 H   0  0  0  0  0  0  0  0  0  0  0  0
    0.7700   -1.7748   -3.8679 H   0  0  0  0  0  0  0  0  0  0  0  0
    0.2313   -0.1266   -4.2665 H   0  0  0  0  0  0  0  0  0  0  0  0
  1  2  1  0
  2  3  2  0
  3  4  1  0
  4  5  2  3
  5  6  1  0
  6  7  2  0
  7  8  1  0
  8  9  2  0
  9 10  1  0
  9 11  1  0
 11 12  2  0
 12 13  1  0
  4 14  1  0
 14 15  2  0
 15 16  1  0
 16 17  1  0
 17 18  1  0
 18 19  1  0
 19 20  1  0
 20 21  1  0
 20 22  2  0
 15 23  1  0
 23 24  2  0
 24 25  1  0
 25 26  1  0
 25  1  1  0
 24  3  1  0
 12  6  1  0
  1 27  1  0
  2 28  1  0
  7 29  1  0
  8 30  1  0
 11 31  1  0
 13 32  1  0
 13 33  1  0
 13 34  1  0
 16 35  1  0
 17 36  1  0
 17 37  1  0
 18 38  1  0
 18 39  1  0
 19 40  1  0
 21 41  1  0
 21 42  1  0
 21 43  1  0
 26 44  1  0
 26 45  1  0
 26 46  1  0
M  END
>  <ScrubInfo>  (5) 
{"isomerGroup": 0, "isomerId": 4, "confId": 0, "nr_conformers:": 1, "nr_isomers:": 9}

$$$$
_i5
     RDKit          3D

 46 48  0  0  0  0  0  0  0  0999 V2000
    0.6343    1.7676    0.6479 N   0  0  0  0  0  0  0  0  0  0  0  0
    0.3360    0.5395    0.1044 C   0  0  0  0  0  0  0  0  0  0  0  0
    1.3520   -0.0666   -0.5776 N   0  0  0  0  0  0  0  0  0  0  0  0
    2.0783    0.6268   -1.6457 C   0  0  0  0  0  0  0  0  0  0  0  0
    3.1845   -0.2761   -2.2007 C   0  0  0  0  0  0  0  0  0  0  0  0
    4.0803   -0.7302   -1.1500 N   0  0  0  0  0  0  0  0  0  0  0  0
    5.3006   -1.2838   -1.4590 C   0  0  0  0  0  0  0  0  0  0  0  0
    6.0331   -1.8636   -0.2794 C   0  0  0  0  0  0  0  0  0  0  0  0
    5.7619   -1.3125   -2.5948 O   0  0  0  0  0  0  0  0  0  0  0  0
   -0.8072   -0.0818    0.2038 N   0  0  0  0  0  0  0  0  0  0  0  0
   -1.8460    0.5233    0.9011 C   0  0  0  0  0  0  0  0  0  0  0  0
   -3.0292    0.0152    1.0346 N   0  0  0  0  0  0  0  0  0  0  0  0
   -3.2879   -1.2268    0.4354 C   0  0  0  0  0  0  0  0  0  0  0  0
   -3.0238   -2.4006    1.1534 C   0  0  0  0  0  0  0  0  0  0  0  0
   -3.2864   -3.6528    0.5961 C   0  0  0  0  0  0  0  0  0  0  0  0
   -3.8264   -3.7338   -0.6837 C   0  0  0  0  0  0  0  0  0  0  0  0
   -4.1453   -5.2752   -1.3796 Cl  0  0  0  0  0  0  0  0  0  0  0  0
   -4.1139   -2.5756   -1.4056 C   0  0  0  0  0  0  0  0  0  0  0  0
   -3.8591   -1.3119   -0.8482 C   0  0  0  0  0  0  0  0  0  0  0  0
   -4.1727   -0.0698   -1.6329 C   0  0  0  0  0  0  0  0  0  0  0  0
   -1.5706    1.7990    1.5104 C   0  0  0  0  0  0  0  0  0  0  0  0
   -2.2810    2.7104    2.3021 C   0  0  0  0  0  0  0  0  0  0  0  0
   -1.5380    3.7788    2.6367 N   0  0  0  0  0  0  0  0  0  0  0  0
   -0.3402    3.5392    2.0469 N   0  0  0  0  0  0  0  0  0  0  0  0
    0.7189    4.5038    2.1966 C   0  0  0  0  0  0  0  0  0  0  0  0
   -0.3354    2.3662    1.3614 C   0  0  0  0  0  0  0  0  0  0  0  0
    1.6048    2.0483    0.6720 H   0  0  0  0  0  0  0  0  0  0  0  0
    0.9957   -0.9623   -0.9134 H   0  0  0  0  0  0  0  0  0  0  0  0
    2.5318    1.5454   -1.2574 H   0  0  0  0  0  0  0  0  0  0  0  0
    1.3856    0.9007   -2.4491 H   0  0  0  0  0  0  0  0  0  0  0  0
    3.7609    0.2561   -2.9651 H   0  0  0  0  0  0  0  0  0  0  0  0
    2.7542   -1.1710   -2.6649 H   0  0  0  0  0  0  0  0  0  0  0  0
    3.6464   -0.9820   -0.2683 H   0  0  0  0  0  0  0  0  0  0  0  0
    7.0696   -1.5156   -0.2959 H   0  0  0  0  0  0  0  0  0  0  0  0
    5.5828   -1.5521    0.6673 H   0  0  0  0  0  0  0  0  0  0  0  0
    6.0081   -2.9545   -0.3437 H   0  0  0  0  0  0  0  0  0  0  0  0
   -2.6051   -2.3316    2.1539 H   0  0  0  0  0  0  0  0  0  0  0  0
   -3.0690   -4.5523    1.1643 H   0  0  0  0  0  0  0  0  0  0  0  0
   -4.5416   -2.6555   -2.4019 H   0  0  0  0  0  0  0  0  0  0  0  0
   -4.7801    0.6188   -1.0366 H   0  0  0  0  0  0  0  0  0  0  0  0
   -4.7417   -0.3026   -2.5393 H   0  0  0  0  0  0  0  0  0  0  0  0
   -3.2470    0.4299   -1.9353 H   0  0  0  0  0  0  0  0  0  0  0  0
   -3.3026    2.6430    2.6543 H   0  0  0  0  0  0  0  0  0  0  0  0
    0.9884    4.5565    3.2544 H   0  0  0  0  0  0  0  0  0  0  0  0
    1.5859    4.1990    1.6067 H   0  0  0  0  0  0  0  0  0  0  0  0
    0.3564    5.4732    1.8452 H   0  0  0  0  0  0  0  0  0  0  0  0
  1  2  1  0
  2  3  1  0
  3  4  1  0
  4  5  1  0
  5  6  1  0
  6  7  1  0
  7  8  1  0
  7  9  2  0
  2 10  2  0
 10 11  1  0
 11 12  2  3
 12 13  1  0
 13 14  2  0
 14 15  1  0
 15 16  2  0
 16 17  1  0
 16 18  1  0
 18 19  2  0
 19 20  1  0
 11 21  1  0
 21 22  1  0
 22 23  2  0
 23 24  1  0
 24 25  1  0
 24 26  1  0
 26  1  1  0
 19 13  1  0
 26 21  2  0
  1 27  1  0
  3 28  1  0
  4 29  1  0
  4 30  1  0
  5 31  1  0
  5 32  1  0
  6 33  1  0
  8 34  1  0
  8 35  1  0
  8 36  1  0
 14 37  1  0
 15 38  1  0
 18 39  1  0
 20 40  1  0
 20 41  1  0
 20 42  1  0
 22 43  1  0
 25 44  1  0
 25 45  1  0
 25 46  1  0
M  END
>  <ScrubInfo>  (6) 
{"isomerGroup": 0, "isomerId": 5, "confId": 0, "nr_conformers:": 1, "nr_isomers:": 9}

$$$$
_i6
     RDKit          3D

 46 48  0  0  0  0  0  0  0  0999 V2000
   -2.1469    2.9903    1.0537 N   0  0  0  0  0  0  0  0  0  0  0  0
   -2.4721    1.8950    0.2608 C   0  0  0  0  0  0  0  0  0  0  0  0
   -1.4007    1.3190   -0.3007 C   0  0  0  0  0  0  0  0  0  0  0  0
   -1.0802    0.1862   -1.1678 C   0  0  0  0  0  0  0  0  0  0  0  0
   -2.0215   -0.6628   -1.7137 N   0  0  0  0  0  0  0  0  0  0  0  0
   -3.1272   -1.1575   -0.9849 C   0  0  0  0  0  0  0  0  0  0  0  0
   -4.3942   -1.0336   -1.5784 C   0  0  0  0  0  0  0  0  0  0  0  0
   -5.5365   -1.5252   -0.9456 C   0  0  0  0  0  0  0  0  0  0  0  0
   -5.4164   -2.1690    0.2798 C   0  0  0  0  0  0  0  0  0  0  0  0
   -6.8204   -2.7685    1.0721 Cl  0  0  0  0  0  0  0  0  0  0  0  0
   -4.1626   -2.3420    0.8643 C   0  0  0  0  0  0  0  0  0  0  0  0
   -3.0016   -1.8652    0.2281 C   0  0  0  0  0  0  0  0  0  0  0  0
   -1.6714   -2.1164    0.8861 C   0  0  0  0  0  0  0  0  0  0  0  0
    0.1724   -0.0322   -1.4622 N   0  0  0  0  0  0  0  0  0  0  0  0
    1.1390    0.7885   -0.9232 C   0  0  0  0  0  0  0  0  0  0  0  0
    2.3387    0.4131   -1.1985 N   0  0  0  0  0  0  0  0  0  0  0  0
    3.4354    1.2274   -0.6548 C   0  0  0  0  0  0  0  0  0  0  0  0
    4.7653    0.6090   -1.0988 C   0  0  0  0  0  0  0  0  0  0  0  0
    4.8815   -0.7714   -0.6600 N   0  0  0  0  0  0  0  0  0  0  0  0
    5.3260   -1.0777    0.6045 C   0  0  0  0  0  0  0  0  0  0  0  0
    5.1733   -2.5298    0.9694 C   0  0  0  0  0  0  0  0  0  0  0  0
    5.8000   -0.2576    1.3843 O   0  0  0  0  0  0  0  0  0  0  0  0
    0.9361    1.9116   -0.1559 N   0  0  0  0  0  0  0  0  0  0  0  0
   -0.2865    2.1848    0.1419 C   0  0  0  0  0  0  0  0  0  0  0  0
   -0.7910    3.2504    0.8874 N   0  0  0  0  0  0  0  0  0  0  0  0
   -0.0373    3.8111    1.9932 C   0  0  0  0  0  0  0  0  0  0  0  0
   -2.7769    3.7863    0.9286 H   0  0  0  0  0  0  0  0  0  0  0  0
   -3.5094    1.6085    0.1630 H   0  0  0  0  0  0  0  0  0  0  0  0
   -1.5552   -1.4234   -2.2048 H   0  0  0  0  0  0  0  0  0  0  0  0
   -4.4944   -0.5317   -2.5391 H   0  0  0  0  0  0  0  0  0  0  0  0
   -6.5094   -1.4033   -1.4139 H   0  0  0  0  0  0  0  0  0  0  0  0
   -4.0860   -2.8649    1.8157 H   0  0  0  0  0  0  0  0  0  0  0  0
   -0.9211   -2.4194    0.1491 H   0  0  0  0  0  0  0  0  0  0  0  0
   -1.3313   -1.2198    1.4123 H   0  0  0  0  0  0  0  0  0  0  0  0
   -1.7391   -2.9311    1.6156 H   0  0  0  0  0  0  0  0  0  0  0  0
    3.3832    2.2544   -1.0348 H   0  0  0  0  0  0  0  0  0  0  0  0
    3.3915    1.2459    0.4411 H   0  0  0  0  0  0  0  0  0  0  0  0
    4.8322    0.5981   -2.1919 H   0  0  0  0  0  0  0  0  0  0  0  0
    5.6040    1.1921   -0.7045 H   0  0  0  0  0  0  0  0  0  0  0  0
    4.2066   -1.3976   -1.0828 H   0  0  0  0  0  0  0  0  0  0  0  0
    4.3405   -2.6372    1.6692 H   0  0  0  0  0  0  0  0  0  0  0  0
    4.9811   -3.1481    0.0879 H   0  0  0  0  0  0  0  0  0  0  0  0
    6.0973   -2.8804    1.4374 H   0  0  0  0  0  0  0  0  0  0  0  0
   -0.5484    4.6925    2.3938 H   0  0  0  0  0  0  0  0  0  0  0  0
    0.9580    4.1237    1.6616 H   0  0  0  0  0  0  0  0  0  0  0  0
    0.0753    3.0777    2.7985 H   0  0  0  0  0  0  0  0  0  0  0  0
  1  2  1  0
  2  3  2  0
  3  4  1  0
  4  5  1  0
  5  6  1  0
  6  7  2  0
  7  8  1  0
  8  9  2  0
  9 10  1  0
  9 11  1  0
 11 12  2  0
 12 13  1  0
  4 14  2  0
 14 15  1  0
 15 16  2  3
 16 17  1  0
 17 18  1  0
 18 19  1  0
 19 20  1  0
 20 21  1  0
 20 22  2  0
 15 23  1  0
 23 24  2  0
 24 25  1  0
 25 26  1  0
 25  1  1  0
 24  3  1  0
 12  6  1  0
  1 27  1  0
  2 28  1  0
  5 29  1  0
  7 30  1  0
  8 31  1  0
 11 32  1  0
 13 33  1  0
 13 34  1  0
 13 35  1  0
 17 36  1  0
 17 37  1  0
 18 38  1  0
 18 39  1  0
 19 40  1  0
 21 41  1  0
 21 42  1  0
 21 43  1  0
 26 44  1  0
 26 45  1  0
 26 46  1  0
M  END
>  <ScrubInfo>  (7) 
{"isomerGroup": 0, "isomerId": 6, "confId": 0, "nr_conformers:": 1, "nr_isomers:": 9}

$$$$
_i7
     RDKit          3D

 46 48  0  0  0  0  0  0  0  0999 V2000
   -2.1103    1.3257   -2.6926 N   0  0  0  0  0  0  0  0  0  0  0  0
   -2.3158    0.4444   -1.6376 C   0  0  0  0  0  0  0  0  0  0  0  0
   -1.2956    0.4029   -0.7688 C   0  0  0  0  0  0  0  0  0  0  0  0
   -0.8813   -0.2947    0.4619 C   0  0  0  0  0  0  0  0  0  0  0  0
   -1.5272   -1.1745    1.1696 N   0  0  0  0  0  0  0  0  0  0  0  0
   -2.8103   -1.5928    0.8003 C   0  0  0  0  0  0  0  0  0  0  0  0
   -2.9459   -2.7110   -0.0326 C   0  0  0  0  0  0  0  0  0  0  0  0
   -4.2088   -3.1689   -0.4111 C   0  0  0  0  0  0  0  0  0  0  0  0
   -5.3443   -2.5143    0.0563 C   0  0  0  0  0  0  0  0  0  0  0  0
   -6.9035   -3.0670   -0.4157 Cl  0  0  0  0  0  0  0  0  0  0  0  0
   -5.2275   -1.4148    0.9066 C   0  0  0  0  0  0  0  0  0  0  0  0
   -3.9603   -0.9533    1.2992 C   0  0  0  0  0  0  0  0  0  0  0  0
   -3.8481    0.2242    2.2262 C   0  0  0  0  0  0  0  0  0  0  0  0
    0.3724    0.0701    0.8777 N   0  0  0  0  0  0  0  0  0  0  0  0
    1.2119    0.9796    0.2858 C   0  0  0  0  0  0  0  0  0  0  0  0
    2.3979    1.2933    0.6715 N   0  0  0  0  0  0  0  0  0  0  0  0
    2.9617    0.6329    1.8513 C   0  0  0  0  0  0  0  0  0  0  0  0
    4.4189    1.0814    2.0117 C   0  0  0  0  0  0  0  0  0  0  0  0
    5.2083    0.7524    0.8378 N   0  0  0  0  0  0  0  0  0  0  0  0
    5.6911   -0.5213    0.6485 C   0  0  0  0  0  0  0  0  0  0  0  0
    6.3081   -0.7471   -0.7052 C   0  0  0  0  0  0  0  0  0  0  0  0
    5.6215   -1.4104    1.4914 O   0  0  0  0  0  0  0  0  0  0  0  0
    0.8205    1.6769   -0.8376 N   0  0  0  0  0  0  0  0  0  0  0  0
   -0.3516    1.4296   -1.3311 C   0  0  0  0  0  0  0  0  0  0  0  0
   -0.9441    2.0333   -2.4425 N   0  0  0  0  0  0  0  0  0  0  0  0
   -0.1416    2.4959   -3.5587 C   0  0  0  0  0  0  0  0  0  0  0  0
   -2.9356    1.8827   -2.9262 H   0  0  0  0  0  0  0  0  0  0  0  0
   -3.2423   -0.1094   -1.6107 H   0  0  0  0  0  0  0  0  0  0  0  0
   -2.0568   -3.2274   -0.3864 H   0  0  0  0  0  0  0  0  0  0  0  0
   -4.2965   -4.0344   -1.0620 H   0  0  0  0  0  0  0  0  0  0  0  0
   -6.1252   -0.9221    1.2732 H   0  0  0  0  0  0  0  0  0  0  0  0
   -3.1805   -0.0065    3.0627 H   0  0  0  0  0  0  0  0  0  0  0  0
   -4.8210    0.4908    2.6526 H   0  0  0  0  0  0  0  0  0  0  0  0
   -3.4662    1.0958    1.6856 H   0  0  0  0  0  0  0  0  0  0  0  0
    0.6942   -0.4089    1.7033 H   0  0  0  0  0  0  0  0  0  0  0  0
    2.9265   -0.4570    1.7373 H   0  0  0  0  0  0  0  0  0  0  0  0
    2.4010    0.9147    2.7496 H   0  0  0  0  0  0  0  0  0  0  0  0
    4.8638    0.6077    2.8931 H   0  0  0  0  0  0  0  0  0  0  0  0
    4.4726    2.1682    2.1355 H   0  0  0  0  0  0  0  0  0  0  0  0
    4.9732    1.2888    0.0105 H   0  0  0  0  0  0  0  0  0  0  0  0
    7.2526   -1.2845   -0.5831 H   0  0  0  0  0  0  0  0  0  0  0  0
    5.6222   -1.3390   -1.3169 H   0  0  0  0  0  0  0  0  0  0  0  0
    6.5162    0.1982   -1.2144 H   0  0  0  0  0  0  0  0  0  0  0  0
   -0.7689    3.0195   -4.2874 H   0  0  0  0  0  0  0  0  0  0  0  0
    0.6277    3.1958   -3.2174 H   0  0  0  0  0  0  0  0  0  0  0  0
    0.3469    1.6546   -4.0613 H   0  0  0  0  0  0  0  0  0  0  0  0
  1  2  1  0
  2  3  2  0
  3  4  1  0
  4  5  2  3
  5  6  1  0
  6  7  2  0
  7  8  1  0
  8  9  2  0
  9 10  1  0
  9 11  1  0
 11 12  2  0
 12 13  1  0
  4 14  1  0
 14 15  1  0
 15 16  2  3
 16 17  1  0
 17 18  1  0
 18 19  1  0
 19 20  1  0
 20 21  1  0
 20 22  2  0
 15 23  1  0
 23 24  2  0
 24 25  1  0
 25 26  1  0
 25  1  1  0
 24  3  1  0
 12  6  1  0
  1 27  1  0
  2 28  1  0
  7 29  1  0
  8 30  1  0
 11 31  1  0
 13 32  1  0
 13 33  1  0
 13 34  1  0
 14 35  1  0
 17 36  1  0
 17 37  1  0
 18 38  1  0
 18 39  1  0
 19 40  1  0
 21 41  1  0
 21 42  1  0
 21 43  1  0
 26 44  1  0
 26 45  1  0
 26 46  1  0
M  END
>  <ScrubInfo>  (8) 
{"isomerGroup": 0, "isomerId": 7, "confId": 0, "nr_conformers:": 1, "nr_isomers:": 9}

$$$$
_i8
     RDKit          3D

 46 48  0  0  0  0  0  0  0  0999 V2000
   -0.4648    2.4054    0.2044 N   0  0  0  0  0  0  0  0  0  0  0  0
   -1.1998    1.2428    0.0919 C   0  0  0  0  0  0  0  0  0  0  0  0
   -2.4783    1.3119    0.2602 N   0  0  0  0  0  0  0  0  0  0  0  0
   -3.2491    0.0719    0.1408 C   0  0  0  0  0  0  0  0  0  0  0  0
   -4.7085    0.3549    0.5143 C   0  0  0  0  0  0  0  0  0  0  0  0
   -5.6007   -0.7499    0.2106 N   0  0  0  0  0  0  0  0  0  0  0  0
   -5.5732   -1.9237    0.9259 C   0  0  0  0  0  0  0  0  0  0  0  0
   -6.6331   -2.9162    0.5291 C   0  0  0  0  0  0  0  0  0  0  0  0
   -4.7622   -2.1602    1.8148 O   0  0  0  0  0  0  0  0  0  0  0  0
   -0.4276    0.1345   -0.1997 N   0  0  0  0  0  0  0  0  0  0  0  0
    0.9334    0.0011   -0.3957 C   0  0  0  0  0  0  0  0  0  0  0  0
    1.4516   -1.1591   -0.6683 N   0  0  0  0  0  0  0  0  0  0  0  0
    2.8220   -1.3387   -0.8736 C   0  0  0  0  0  0  0  0  0  0  0  0
    3.3332   -1.2354   -2.1739 C   0  0  0  0  0  0  0  0  0  0  0  0
    4.6914   -1.4376   -2.4239 C   0  0  0  0  0  0  0  0  0  0  0  0
    5.5425   -1.7598   -1.3713 C   0  0  0  0  0  0  0  0  0  0  0  0
    7.2184   -2.0052   -1.6730 Cl  0  0  0  0  0  0  0  0  0  0  0  0
    5.0456   -1.8906   -0.0745 C   0  0  0  0  0  0  0  0  0  0  0  0
    3.6786   -1.6971    0.1840 C   0  0  0  0  0  0  0  0  0  0  0  0
    3.1540   -1.8510    1.5840 C   0  0  0  0  0  0  0  0  0  0  0  0
    1.6134    1.2772   -0.2535 C   0  0  0  0  0  0  0  0  0  0  0  0
    2.9315    1.7637   -0.3323 C   0  0  0  0  0  0  0  0  0  0  0  0
    3.0147    3.0841   -0.1101 N   0  0  0  0  0  0  0  0  0  0  0  0
    1.7364    3.4523    0.1267 N   0  0  0  0  0  0  0  0  0  0  0  0
    1.4433    4.8345    0.4108 C   0  0  0  0  0  0  0  0  0  0  0  0
    0.8748    2.4029    0.0410 C   0  0  0  0  0  0  0  0  0  0  0  0
   -1.0151    3.2272    0.4240 H   0  0  0  0  0  0  0  0  0  0  0  0
   -2.8459   -0.7027    0.8028 H   0  0  0  0  0  0  0  0  0  0  0  0
   -3.2033   -0.2980   -0.8909 H   0  0  0  0  0  0  0  0  0  0  0  0
   -4.7873    0.5829    1.5836 H   0  0  0  0  0  0  0  0  0  0  0  0
   -5.0801    1.2245   -0.0393 H   0  0  0  0  0  0  0  0  0  0  0  0
   -6.3618   -0.5795   -0.4333 H   0  0  0  0  0  0  0  0  0  0  0  0
   -7.1585   -2.6086   -0.3791 H   0  0  0  0  0  0  0  0  0  0  0  0
   -7.3576   -3.0089    1.3424 H   0  0  0  0  0  0  0  0  0  0  0  0
   -6.1620   -3.8849    0.3411 H   0  0  0  0  0  0  0  0  0  0  0  0
   -0.9111   -0.7468   -0.2791 H   0  0  0  0  0  0  0  0  0  0  0  0
    2.6642   -0.9946   -2.9962 H   0  0  0  0  0  0  0  0  0  0  0  0
    5.0735   -1.3462   -3.4368 H   0  0  0  0  0  0  0  0  0  0  0  0
    5.7223   -2.1514    0.7360 H   0  0  0  0  0  0  0  0  0  0  0  0
    2.2852   -2.5170    1.5984 H   0  0  0  0  0  0  0  0  0  0  0  0
    2.8712   -0.8753    1.9911 H   0  0  0  0  0  0  0  0  0  0  0  0
    3.9080   -2.2879    2.2472 H   0  0  0  0  0  0  0  0  0  0  0  0
    3.8485    1.2310   -0.5419 H   0  0  0  0  0  0  0  0  0  0  0  0
    1.3610    5.3667   -0.5398 H   0  0  0  0  0  0  0  0  0  0  0  0
    0.5067    4.9043    0.9682 H   0  0  0  0  0  0  0  0  0  0  0  0
    2.2545    5.2526    1.0127 H   0  0  0  0  0  0  0  0  0  0  0  0
  1  2  1  0
  2  3  2  3
  3  4  1  0
  4  5  1  0
  5  6  1  0
  6  7  1  0
  7  8  1  0
  7  9  2  0
  2 10  1  0
 10 11  1  0
 11 12  2  3
 12 13  1  0
 13 14  2  0
 14 15  1  0
 15 16  2  0
 16 17  1  0
 16 18  1  0
 18 19  2  0
 19 20  1  0
 11 21  1  0
 21 22  1  0
 22 23  2  0
 23 24  1  0
 24 25  1  0
 24 26  1  0
 26  1  1  0
 19 13  1  0
 26 21  2  0
  1 27  1  0
  4 28  1  0
  4 29  1  0
  5 30  1  0
  5 31  1  0
  6 32  1  0
  8 33  1  0
  8 34  1  0
  8 35  1  0
 10 36  1  0
 14 37  1  0
 15 38  1  0
 18 39  1  0
 20 40  1  0
 20 41  1  0
 20 42  1  0
 22 43  1  0
 25 44  1  0
 25 45  1  0
 25 46  1  0
M  END
>  <ScrubInfo>  (9) 
{"isomerGroup": 0, "isomerId": 8, "confId": 0, "nr_conformers:": 1, "nr_isomers:": 9}

$$$$
