_i0
     RDKit          3D

 43 45  0  0  0  0  0  0  0  0999 V2000
   -4.9836    2.9571    1.2965 O   0  0  0  0  0  0  0  0  0  0  0  0
   -3.5877    2.7590    1.4806 C   0  0  0  0  0  0  0  0  0  0  0  0
   -3.2282    1.2887    1.3299 C   0  0  0  0  0  0  0  0  0  0  0  0
   -3.5085    0.7858   -0.0879 C   0  0  0  0  0  0  0  0  0  0  0  0
   -3.1418   -0.6264   -0.2240 N   0  0  0  0  0  0  0  0  0  0  0  0
   -1.7705   -0.8997   -0.4459 C   0  0  0  0  0  0  0  0  0  0  0  0
   -0.9038    0.1246   -0.5203 N   0  0  0  0  0  0  0  0  0  0  0  0
    0.3836   -0.1543   -0.7326 C   0  0  0  0  0  0  0  0  0  0  0  0
    1.2252    0.9455   -0.7926 N   0  0  0  0  0  0  0  0  0  0  0  0
    2.3809    0.8291   -1.6737 C   0  0  0  0  0  0  0  0  0  0  0  0
    3.6102    0.2543   -0.9555 C   0  0  0  0  0  0  0  0  0  0  0  0
    4.2026    1.2208    0.0347 C   0  0  0  0  0  0  0  0  0  0  0  0
    3.8296    1.4271    1.3483 C   0  0  0  0  0  0  0  0  0  0  0  0
    4.6204    2.4245    1.9866 C   0  0  0  0  0  0  0  0  0  0  0  0
    5.5726    2.9456    1.1398 C   0  0  0  0  0  0  0  0  0  0  0  0
    5.5084    2.2352   -0.4142 S   0  0  0  0  0  0  0  0  0  0  0  0
    0.8689   -1.3878   -0.8914 N   0  0  0  0  0  0  0  0  0  0  0  0
    0.0153   -2.4100   -0.8000 C   0  0  0  0  0  0  0  0  0  0  0  0
    0.5062   -3.7031   -0.9412 C   0  0  0  0  0  0  0  0  0  0  0  0
   -0.3230   -4.8245   -0.8482 C   0  0  0  0  0  0  0  0  0  0  0  0
   -1.6788   -4.6589   -0.6032 C   0  0  0  0  0  0  0  0  0  0  0  0
   -2.1934   -3.3725   -0.4603 C   0  0  0  0  0  0  0  0  0  0  0  0
   -1.3513   -2.2349   -0.5663 C   0  0  0  0  0  0  0  0  0  0  0  0
   -5.4374    2.5166    2.0364 H   0  0  0  0  0  0  0  0  0  0  0  0
   -3.0553    3.3700    0.7448 H   0  0  0  0  0  0  0  0  0  0  0  0
   -3.3183    3.1216    2.4778 H   0  0  0  0  0  0  0  0  0  0  0  0
   -2.1726    1.1546    1.5896 H   0  0  0  0  0  0  0  0  0  0  0  0
   -3.8126    0.6906    2.0402 H   0  0  0  0  0  0  0  0  0  0  0  0
   -4.5857    0.8602   -0.2810 H   0  0  0  0  0  0  0  0  0  0  0  0
   -3.0218    1.4093   -0.8480 H   0  0  0  0  0  0  0  0  0  0  0  0
   -3.6683   -1.0675   -0.9745 H   0  0  0  0  0  0  0  0  0  0  0  0
    0.6306    1.7493   -0.9596 H   0  0  0  0  0  0  0  0  0  0  0  0
    2.1432    0.2217   -2.5568 H   0  0  0  0  0  0  0  0  0  0  0  0
    2.6180    1.8306   -2.0540 H   0  0  0  0  0  0  0  0  0  0  0  0
    3.3639   -0.6788   -0.4357 H   0  0  0  0  0  0  0  0  0  0  0  0
    4.3640   -0.0070   -1.7091 H   0  0  0  0  0  0  0  0  0  0  0  0
    3.0174    0.8878    1.8228 H   0  0  0  0  0  0  0  0  0  0  0  0
    4.4953    2.7434    3.0138 H   0  0  0  0  0  0  0  0  0  0  0  0
    6.3045    3.7111    1.3573 H   0  0  0  0  0  0  0  0  0  0  0  0
    1.5696   -3.8431   -1.1239 H   0  0  0  0  0  0  0  0  0  0  0  0
    0.0972   -5.8208   -0.9596 H   0  0  0  0  0  0  0  0  0  0  0  0
   -2.3316   -5.5236   -0.5169 H   0  0  0  0  0  0  0  0  0  0  0  0
   -3.2534   -3.2513   -0.2489 H   0  0  0  0  0  0  0  0  0  0  0  0
  1  2  1  0
  2  3  1  0
  3  4  1  0
  4  5  1  0
  5  6  1  0
  6  7  2  0
  7  8  1  0
  8  9  1  0
  9 10  1  0
 10 11  1  0
 11 12  1  0
 12 13  2  0
 13 14  1  0
 14 15  2  0
 15 16  1  0
  8 17  2  0
 17 18  1  0
 18 19  2  0
 19 20  1  0
 20 21  2  0
 21 22  1  0
 22 23  2  0
 23  6  1  0
 16 12  1  0
 23 18  1  0
  1 24  1  0
  2 25  1  0
  2 26  1  0
  3 27  1  0
  3 28  1  0
  4 29  1  0
  4 30  1  0
  5 31  1  0
  9 32  1  0
 10 33  1  0
 10 34  1  0
 11 35  1  0
 11 36  1  0
 13 37  1  0
 14 38  1  0
 15 39  1  0
 19 40  1  0
 20 41  1  0
 21 42  1  0
 22 43  1  0
M  END
>  <ScrubInfo>  (1) 
{"isomerGroup": 0, "isomerId": 0, "confId": 0, "nr_conformers:": 1, "nr_isomers:": 6}

$$$$
_i1
     RDKit          3D

 43 45  0  0  0  0  0  0  0  0999 V2000
    1.1511    0.0454   -0.5587 N   0  0  0  0  0  0  0  0  0  0  0  0
   -0.2069   -0.0801   -0.5710 C   0  0  0  0  0  0  0  0  0  0  0  0
   -0.8316    0.9990   -1.1373 N   0  0  0  0  0  0  0  0  0  0  0  0
   -2.2848    1.0204   -1.3058 C   0  0  0  0  0  0  0  0  0  0  0  0
   -2.9984    1.3129    0.0182 C   0  0  0  0  0  0  0  0  0  0  0  0
   -4.4887    1.3637   -0.1611 C   0  0  0  0  0  0  0  0  0  0  0  0
   -5.3930    0.3259   -0.0511 C   0  0  0  0  0  0  0  0  0  0  0  0
   -6.7320    0.7477   -0.2919 C   0  0  0  0  0  0  0  0  0  0  0  0
   -6.8052    2.0930   -0.5750 C   0  0  0  0  0  0  0  0  0  0  0  0
   -5.2672    2.8393   -0.5495 S   0  0  0  0  0  0  0  0  0  0  0  0
   -0.8326   -1.1092   -0.0856 N   0  0  0  0  0  0  0  0  0  0  0  0
   -0.0348   -2.1429    0.4592 C   0  0  0  0  0  0  0  0  0  0  0  0
   -0.6797   -3.2736    0.9675 C   0  0  0  0  0  0  0  0  0  0  0  0
    0.0546   -4.3288    1.5174 C   0  0  0  0  0  0  0  0  0  0  0  0
    1.4476   -4.2647    1.5656 C   0  0  0  0  0  0  0  0  0  0  0  0
    2.1114   -3.1451    1.0647 C   0  0  0  0  0  0  0  0  0  0  0  0
    1.3714   -2.0925    0.5147 C   0  0  0  0  0  0  0  0  0  0  0  0
    2.0314   -0.8669   -0.0290 C   0  0  0  0  0  0  0  0  0  0  0  0
    3.3141   -0.7712    0.0576 N   0  0  0  0  0  0  0  0  0  0  0  0
    4.0153    0.3960   -0.4705 C   0  0  0  0  0  0  0  0  0  0  0  0
    4.2127    1.4140    0.6509 C   0  0  0  0  0  0  0  0  0  0  0  0
    4.8948    2.6842    0.1623 C   0  0  0  0  0  0  0  0  0  0  0  0
    6.1748    2.4032   -0.3834 O   0  0  0  0  0  0  0  0  0  0  0  0
    1.5127    0.9544   -0.7870 H   0  0  0  0  0  0  0  0  0  0  0  0
   -0.3557    1.3516   -1.9600 H   0  0  0  0  0  0  0  0  0  0  0  0
   -2.5273    1.8068   -2.0311 H   0  0  0  0  0  0  0  0  0  0  0  0
   -2.6315    0.0775   -1.7469 H   0  0  0  0  0  0  0  0  0  0  0  0
   -2.6311    2.2586    0.4375 H   0  0  0  0  0  0  0  0  0  0  0  0
   -2.7589    0.5443    0.7628 H   0  0  0  0  0  0  0  0  0  0  0  0
   -5.1056   -0.6908    0.1922 H   0  0  0  0  0  0  0  0  0  0  0  0
   -7.5976    0.0976   -0.2566 H   0  0  0  0  0  0  0  0  0  0  0  0
   -7.6888    2.6766   -0.7939 H   0  0  0  0  0  0  0  0  0  0  0  0
   -1.7645   -3.3287    0.9325 H   0  0  0  0  0  0  0  0  0  0  0  0
   -0.4634   -5.2012    1.9082 H   0  0  0  0  0  0  0  0  0  0  0  0
    2.0165   -5.0862    1.9938 H   0  0  0  0  0  0  0  0  0  0  0  0
    3.1963   -3.0939    1.1029 H   0  0  0  0  0  0  0  0  0  0  0  0
    4.9894    0.0592   -0.8434 H   0  0  0  0  0  0  0  0  0  0  0  0
    3.5045    0.8425   -1.3307 H   0  0  0  0  0  0  0  0  0  0  0  0
    3.2463    1.6749    1.0980 H   0  0  0  0  0  0  0  0  0  0  0  0
    4.8185    0.9534    1.4412 H   0  0  0  0  0  0  0  0  0  0  0  0
    5.0200    3.3931    0.9870 H   0  0  0  0  0  0  0  0  0  0  0  0
    4.2951    3.1722   -0.6125 H   0  0  0  0  0  0  0  0  0  0  0  0
    6.7009    1.9685    0.3108 H   0  0  0  0  0  0  0  0  0  0  0  0
  1  2  1  0
  2  3  1  0
  3  4  1  0
  4  5  1  0
  5  6  1  0
  6  7  2  0
  7  8  1  0
  8  9  2  0
  9 10  1  0
  2 11  2  0
 11 12  1  0
 12 13  2  0
 13 14  1  0
 14 15  2  0
 15 16  1  0
 16 17  2  0
 17 18  1  0
 18 19  2  3
 19 20  1  0
 20 21  1  0
 21 22  1  0
 22 23  1  0
 18  1  1  0
 10  6  1  0
 17 12  1  0
  1 24  1  0
  3 25  1  0
  4 26  1  0
  4 27  1  0
  5 28  1  0
  5 29  1  0
  7 30  1  0
  8 31  1  0
  9 32  1  0
 13 33  1  0
 14 34  1  0
 15 35  1  0
 16 36  1  0
 20 37  1  0
 20 38  1  0
 21 39  1  0
 21 40  1  0
 22 41  1  0
 22 42  1  0
 23 43  1  0
M  END
>  <ScrubInfo>  (2) 
{"isomerGroup": 0, "isomerId": 1, "confId": 0, "nr_conformers:": 1, "nr_isomers:": 6}

$$$$
_i2
     RDKit          3D

 43 45  0  0  0  0  0  0  0  0999 V2000
   -0.7163    0.3651    0.0859 N   0  0  0  0  0  0  0  0  0  0  0  0
   -1.8007   -0.3694    0.4998 C   0  0  0  0  0  0  0  0  0  0  0  0
   -3.0730    0.1980    0.4949 N   0  0  0  0  0  0  0  0  0  0  0  0
   -3.4594    1.3936   -0.2411 C   0  0  0  0  0  0  0  0  0  0  0  0
   -4.9129    1.7395    0.0633 C   0  0  0  0  0  0  0  0  0  0  0  0
   -5.3446    3.0039   -0.6636 C   0  0  0  0  0  0  0  0  0  0  0  0
   -6.7125    3.2734   -0.3886 O   0  0  0  0  0  0  0  0  0  0  0  0
   -1.5680   -1.6436    0.9091 C   0  0  0  0  0  0  0  0  0  0  0  0
   -2.5456   -2.5894    1.4215 C   0  0  0  0  0  0  0  0  0  0  0  0
   -2.1909   -3.8353    1.7663 C   0  0  0  0  0  0  0  0  0  0  0  0
   -0.8283   -4.2904    1.6447 C   0  0  0  0  0  0  0  0  0  0  0  0
    0.1540   -3.4921    1.2078 C   0  0  0  0  0  0  0  0  0  0  0  0
   -0.1211   -2.0812    0.8117 C   0  0  0  0  0  0  0  0  0  0  0  0
    0.8780   -1.3522    0.4187 N   0  0  0  0  0  0  0  0  0  0  0  0
    0.5738   -0.0655    0.0707 C   0  0  0  0  0  0  0  0  0  0  0  0
    1.5042    0.7628   -0.2765 N   0  0  0  0  0  0  0  0  0  0  0  0
    2.8791    0.2484   -0.2707 C   0  0  0  0  0  0  0  0  0  0  0  0
    3.8201    1.3740   -0.7081 C   0  0  0  0  0  0  0  0  0  0  0  0
    5.2484    0.9157   -0.7745 C   0  0  0  0  0  0  0  0  0  0  0  0
    5.9093    0.3400   -1.8418 C   0  0  0  0  0  0  0  0  0  0  0  0
    7.2666    0.0331   -1.5369 C   0  0  0  0  0  0  0  0  0  0  0  0
    7.5971    0.3866   -0.2481 C   0  0  0  0  0  0  0  0  0  0  0  0
    6.2771    1.0840    0.5852 S   0  0  0  0  0  0  0  0  0  0  0  0
   -0.8485    1.3415   -0.1105 H   0  0  0  0  0  0  0  0  0  0  0  0
   -3.8135   -0.4954    0.5459 H   0  0  0  0  0  0  0  0  0  0  0  0
   -2.8206    2.2354    0.0492 H   0  0  0  0  0  0  0  0  0  0  0  0
   -3.3308    1.2208   -1.3158 H   0  0  0  0  0  0  0  0  0  0  0  0
   -5.0563    1.8686    1.1438 H   0  0  0  0  0  0  0  0  0  0  0  0
   -5.5721    0.9096   -0.2219 H   0  0  0  0  0  0  0  0  0  0  0  0
   -5.2373    2.8860   -1.7464 H   0  0  0  0  0  0  0  0  0  0  0  0
   -4.7497    3.8686   -0.3524 H   0  0  0  0  0  0  0  0  0  0  0  0
   -6.7945    3.4526    0.5642 H   0  0  0  0  0  0  0  0  0  0  0  0
   -3.5766   -2.2819    1.5463 H   0  0  0  0  0  0  0  0  0  0  0  0
   -2.9254   -4.5340    2.1567 H   0  0  0  0  0  0  0  0  0  0  0  0
   -0.6119   -5.3156    1.9311 H   0  0  0  0  0  0  0  0  0  0  0  0
    1.1799   -3.8311    1.1251 H   0  0  0  0  0  0  0  0  0  0  0  0
    3.1584   -0.0916    0.7346 H   0  0  0  0  0  0  0  0  0  0  0  0
    2.9748   -0.5968   -0.9645 H   0  0  0  0  0  0  0  0  0  0  0  0
    3.5156    1.7420   -1.6967 H   0  0  0  0  0  0  0  0  0  0  0  0
    3.7205    2.2290   -0.0269 H   0  0  0  0  0  0  0  0  0  0  0  0
    5.4384    0.1461   -2.7982 H   0  0  0  0  0  0  0  0  0  0  0  0
    7.9644   -0.4233   -2.2277 H   0  0  0  0  0  0  0  0  0  0  0  0
    8.5509    0.2703    0.2473 H   0  0  0  0  0  0  0  0  0  0  0  0
  1  2  1  0
  2  3  1  0
  3  4  1  0
  4  5  1  0
  5  6  1  0
  6  7  1  0
  2  8  2  0
  8  9  1  0
  9 10  2  0
 10 11  1  0
 11 12  2  0
 12 13  1  0
 13 14  2  0
 14 15  1  0
 15 16  2  3
 16 17  1  0
 17 18  1  0
 18 19  1  0
 19 20  2  0
 20 21  1  0
 21 22  2  0
 22 23  1  0
 15  1  1  0
 23 19  1  0
 13  8  1  0
  1 24  1  0
  3 25  1  0
  4 26  1  0
  4 27  1  0
  5 28  1  0
  5 29  1  0
  6 30  1  0
  6 31  1  0
  7 32  1  0
  9 33  1  0
 10 34  1  0
 11 35  1  0
 12 36  1  0
 17 37  1  0
 17 38  1  0
 18 39  1  0
 18 40  1  0
 20 41  1  0
 21 42  1  0
 22 43  1  0
M  END
>  <ScrubInfo>  (3) 
{"isomerGroup": 0, "isomerId": 2, "confId": 0, "nr_conformers:": 1, "nr_isomers:": 6}

$$$$
_i3
     RDKit          3D

 43 45  0  0  0  0  0  0  0  0999 V2000
   -0.8565   -1.1016   -0.3801 N   0  0  0  0  0  0  0  0  0  0  0  0
   -0.4893    0.2149   -0.4620 C   0  0  0  0  0  0  0  0  0  0  0  0
   -1.2810    1.2158   -0.6297 N   0  0  0  0  0  0  0  0  0  0  0  0
   -2.7173    1.0051   -0.7772 C   0  0  0  0  0  0  0  0  0  0  0  0
   -3.3918    0.9837    0.5966 C   0  0  0  0  0  0  0  0  0  0  0  0
   -4.8396    0.6044    0.4928 C   0  0  0  0  0  0  0  0  0  0  0  0
   -5.9305    1.4352    0.3335 C   0  0  0  0  0  0  0  0  0  0  0  0
   -7.1563    0.7120    0.2721 C   0  0  0  0  0  0  0  0  0  0  0  0
   -6.9605   -0.6457    0.3886 C   0  0  0  0  0  0  0  0  0  0  0  0
   -5.3076   -1.0429    0.5706 S   0  0  0  0  0  0  0  0  0  0  0  0
    0.8248    0.5936   -0.3660 N   0  0  0  0  0  0  0  0  0  0  0  0
    1.7476   -0.2857   -0.0952 C   0  0  0  0  0  0  0  0  0  0  0  0
    3.0750    0.1123   -0.0394 N   0  0  0  0  0  0  0  0  0  0  0  0
    3.4634    1.4617   -0.4314 C   0  0  0  0  0  0  0  0  0  0  0  0
    4.9262    1.6977   -0.0761 C   0  0  0  0  0  0  0  0  0  0  0  0
    5.3639    3.1048   -0.4517 C   0  0  0  0  0  0  0  0  0  0  0  0
    6.7370    3.2815   -0.1265 O   0  0  0  0  0  0  0  0  0  0  0  0
    1.4106   -1.7233    0.1537 C   0  0  0  0  0  0  0  0  0  0  0  0
    2.3555   -2.6784    0.5446 C   0  0  0  0  0  0  0  0  0  0  0  0
    1.9590   -4.0026    0.7400 C   0  0  0  0  0  0  0  0  0  0  0  0
    0.6272   -4.3688    0.5484 C   0  0  0  0  0  0  0  0  0  0  0  0
   -0.3170   -3.4095    0.1765 C   0  0  0  0  0  0  0  0  0  0  0  0
    0.0660   -2.0766   -0.0013 C   0  0  0  0  0  0  0  0  0  0  0  0
   -1.8332   -1.3327   -0.3209 H   0  0  0  0  0  0  0  0  0  0  0  0
   -2.9413    0.1044   -1.3617 H   0  0  0  0  0  0  0  0  0  0  0  0
   -3.1231    1.8361   -1.3676 H   0  0  0  0  0  0  0  0  0  0  0  0
   -2.8719    0.2912    1.2706 H   0  0  0  0  0  0  0  0  0  0  0  0
   -3.3032    1.9740    1.0616 H   0  0  0  0  0  0  0  0  0  0  0  0
   -5.8530    2.5141    0.2634 H   0  0  0  0  0  0  0  0  0  0  0  0
   -8.1323    1.1655    0.1500 H   0  0  0  0  0  0  0  0  0  0  0  0
   -7.7093   -1.4257    0.3770 H   0  0  0  0  0  0  0  0  0  0  0  0
    3.7488   -0.5914   -0.3170 H   0  0  0  0  0  0  0  0  0  0  0  0
    2.8421    2.1991    0.0905 H   0  0  0  0  0  0  0  0  0  0  0  0
    3.3117    1.5873   -1.5096 H   0  0  0  0  0  0  0  0  0  0  0  0
    5.5677    0.9660   -0.5838 H   0  0  0  0  0  0  0  0  0  0  0  0
    5.0894    1.5345    0.9969 H   0  0  0  0  0  0  0  0  0  0  0  0
    5.2495    3.2742   -1.5269 H   0  0  0  0  0  0  0  0  0  0  0  0
    4.7799    3.8634    0.0793 H   0  0  0  0  0  0  0  0  0  0  0  0
    6.8178    3.2281    0.8416 H   0  0  0  0  0  0  0  0  0  0  0  0
    3.3927   -2.4124    0.7162 H   0  0  0  0  0  0  0  0  0  0  0  0
    2.6889   -4.7498    1.0432 H   0  0  0  0  0  0  0  0  0  0  0  0
    0.3218   -5.4024    0.6948 H   0  0  0  0  0  0  0  0  0  0  0  0
   -1.3515   -3.7113    0.0347 H   0  0  0  0  0  0  0  0  0  0  0  0
  1  2  1  0
  2  3  2  3
  3  4  1  0
  4  5  1  0
  5  6  1  0
  6  7  2  0
  7  8  1  0
  8  9  2  0
  9 10  1  0
  2 11  1  0
 11 12  2  0
 12 13  1  0
 13 14  1  0
 14 15  1  0
 15 16  1  0
 16 17  1  0
 12 18  1  0
 18 19  2  0
 19 20  1  0
 20 21  2  0
 21 22  1  0
 22 23  2  0
 23  1  1  0
 10  6  1  0
 23 18  1  0
  1 24  1  0
  4 25  1  0
  4 26  1  0
  5 27  1  0
  5 28  1  0
  7 29  1  0
  8 30  1  0
  9 31  1  0
 13 32  1  0
 14 33  1  0
 14 34  1  0
 15 35  1  0
 15 36  1  0
 16 37  1  0
 16 38  1  0
 17 39  1  0
 19 40  1  0
 20 41  1  0
 21 42  1  0
 22 43  1  0
M  END
>  <ScrubInfo>  (4) 
{"isomerGroup": 0, "isomerId": 3, "confId": 0, "nr_conformers:": 1, "nr_isomers:": 6}

$$$$
_i4
     RDKit          3D

 43 45  0  0  0  0  0  0  0  0999 V2000
    1.1477    0.5590   -0.2438 N   0  0  0  0  0  0  0  0  0  0  0  0
    0.6585   -0.6996   -0.4225 C   0  0  0  0  0  0  0  0  0  0  0  0
    1.5776   -1.6474   -0.7660 N   0  0  0  0  0  0  0  0  0  0  0  0
    2.6848   -1.4298   -1.6885 C   0  0  0  0  0  0  0  0  0  0  0  0
    4.0346   -1.6730   -1.0028 C   0  0  0  0  0  0  0  0  0  0  0  0
    4.3702   -0.6170    0.0140 C   0  0  0  0  0  0  0  0  0  0  0  0
    4.1794   -0.6605    1.3812 C   0  0  0  0  0  0  0  0  0  0  0  0
    4.5950    0.5403    2.0246 C   0  0  0  0  0  0  0  0  0  0  0  0
    5.0987    1.4567    1.1295 C   0  0  0  0  0  0  0  0  0  0  0  0
    5.0637    0.8714   -0.4761 S   0  0  0  0  0  0  0  0  0  0  0  0
   -0.5778   -1.0670   -0.2846 N   0  0  0  0  0  0  0  0  0  0  0  0
   -1.5072   -0.1151    0.0790 C   0  0  0  0  0  0  0  0  0  0  0  0
   -2.7643   -0.4074    0.1401 N   0  0  0  0  0  0  0  0  0  0  0  0
   -3.1418   -1.7822   -0.1890 C   0  0  0  0  0  0  0  0  0  0  0  0
   -4.6554   -1.9279   -0.0650 C   0  0  0  0  0  0  0  0  0  0  0  0
   -5.4041   -1.0673   -1.0720 C   0  0  0  0  0  0  0  0  0  0  0  0
   -6.7980   -1.3476   -0.9776 O   0  0  0  0  0  0  0  0  0  0  0  0
   -1.0607    1.2638    0.4160 C   0  0  0  0  0  0  0  0  0  0  0  0
   -1.9514    2.2429    0.8675 C   0  0  0  0  0  0  0  0  0  0  0  0
   -1.4754    3.5189    1.1687 C   0  0  0  0  0  0  0  0  0  0  0  0
   -0.1197    3.8128    1.0117 C   0  0  0  0  0  0  0  0  0  0  0  0
    0.7660    2.8309    0.5584 C   0  0  0  0  0  0  0  0  0  0  0  0
    0.3020    1.5432    0.2780 C   0  0  0  0  0  0  0  0  0  0  0  0
    2.1262    0.6468   -0.0082 H   0  0  0  0  0  0  0  0  0  0  0  0
    1.1103   -2.5397   -0.9083 H   0  0  0  0  0  0  0  0  0  0  0  0
    2.5799   -2.1446   -2.5133 H   0  0  0  0  0  0  0  0  0  0  0  0
    2.6448   -0.4320   -2.1409 H   0  0  0  0  0  0  0  0  0  0  0  0
    4.8224   -1.7087   -1.7658 H   0  0  0  0  0  0  0  0  0  0  0  0
    4.0312   -2.6563   -0.5151 H   0  0  0  0  0  0  0  0  0  0  0  0
    3.7474   -1.5119    1.8956 H   0  0  0  0  0  0  0  0  0  0  0  0
    4.5313    0.7198    3.0912 H   0  0  0  0  0  0  0  0  0  0  0  0
    5.4910    2.4422    1.3414 H   0  0  0  0  0  0  0  0  0  0  0  0
   -2.6692   -2.4843    0.5087 H   0  0  0  0  0  0  0  0  0  0  0  0
   -2.8344   -2.0411   -1.2096 H   0  0  0  0  0  0  0  0  0  0  0  0
   -4.9327   -2.9793   -0.2109 H   0  0  0  0  0  0  0  0  0  0  0  0
   -4.9835   -1.6679    0.9493 H   0  0  0  0  0  0  0  0  0  0  0  0
   -5.2536   -0.0017   -0.8728 H   0  0  0  0  0  0  0  0  0  0  0  0
   -5.0800   -1.2877   -2.0940 H   0  0  0  0  0  0  0  0  0  0  0  0
   -7.2448   -0.7405   -1.5914 H   0  0  0  0  0  0  0  0  0  0  0  0
   -3.0075    2.0124    0.9833 H   0  0  0  0  0  0  0  0  0  0  0  0
   -2.1628    4.2847    1.5199 H   0  0  0  0  0  0  0  0  0  0  0  0
    0.2467    4.8117    1.2360 H   0  0  0  0  0  0  0  0  0  0  0  0
    1.8152    3.0801    0.4239 H   0  0  0  0  0  0  0  0  0  0  0  0
  1  2  1  0
  2  3  1  0
  3  4  1  0
  4  5  1  0
  5  6  1  0
  6  7  2  0
  7  8  1  0
  8  9  2  0
  9 10  1  0
  2 11  2  0
 11 12  1  0
 12 13  2  3
 13 14  1  0
 14 15  1  0
 15 16  1  0
 16 17  1  0
 12 18  1  0
 18 19  2  0
 19 20  1  0
 20 21  2  0
 21 22  1  0
 22 23  2  0
 23  1  1  0
 10  6  1  0
 23 18  1  0
  1 24  1  0
  3 25  1  0
  4 26  1  0
  4 27  1  0
  5 28  1  0
  5 29  1  0
  7 30  1  0
  8 31  1  0
  9 32  1  0
 14 33  1  0
 14 34  1  0
 15 35  1  0
 15 36  1  0
 16 37  1  0
 16 38  1  0
 17 39  1  0
 19 40  1  0
 20 41  1  0
 21 42  1  0
 22 43  1  0
M  END
>  <ScrubInfo>  (5) 
{"isomerGroup": 0, "isomerId": 4, "confId": 0, "nr_conformers:": 1, "nr_isomers:": 6}

$$$$
_i5
     RDKit          3D

 43 45  0  0  0  0  0  0  0  0999 V2000
   -0.1402   -3.3081    0.1620 N   0  0  0  0  0  0  0  0  0  0  0  0
   -0.8181   -2.1567   -0.1293 C   0  0  0  0  0  0  0  0  0  0  0  0
   -2.0958   -2.2333   -0.2980 N   0  0  0  0  0  0  0  0  0  0  0  0
   -2.8601   -1.0261   -0.6182 C   0  0  0  0  0  0  0  0  0  0  0  0
   -3.2781   -0.3039    0.6663 C   0  0  0  0  0  0  0  0  0  0  0  0
   -3.7640    1.0895    0.3918 C   0  0  0  0  0  0  0  0  0  0  0  0
   -3.0936    2.2800    0.5950 C   0  0  0  0  0  0  0  0  0  0  0  0
   -3.8720    3.4111    0.2148 C   0  0  0  0  0  0  0  0  0  0  0  0
   -5.1121    3.0470   -0.2592 C   0  0  0  0  0  0  0  0  0  0  0  0
   -5.3346    1.3523   -0.2403 S   0  0  0  0  0  0  0  0  0  0  0  0
   -0.0197   -1.0425   -0.1924 N   0  0  0  0  0  0  0  0  0  0  0  0
    1.3400   -0.9369    0.0024 C   0  0  0  0  0  0  0  0  0  0  0  0
    2.0497    0.1404   -0.0606 N   0  0  0  0  0  0  0  0  0  0  0  0
    1.3973    1.4088   -0.3671 C   0  0  0  0  0  0  0  0  0  0  0  0
    2.4515    2.5097   -0.3298 C   0  0  0  0  0  0  0  0  0  0  0  0
    1.8552    3.8614   -0.6926 C   0  0  0  0  0  0  0  0  0  0  0  0
    2.8454    4.8768   -0.5992 O   0  0  0  0  0  0  0  0  0  0  0  0
    2.0367   -2.2213    0.3192 C   0  0  0  0  0  0  0  0  0  0  0  0
    3.4160   -2.2798    0.5419 C   0  0  0  0  0  0  0  0  0  0  0  0
    4.0136   -3.5051    0.8337 C   0  0  0  0  0  0  0  0  0  0  0  0
    3.2358   -4.6617    0.9018 C   0  0  0  0  0  0  0  0  0  0  0  0
    1.8566   -4.5994    0.6789 C   0  0  0  0  0  0  0  0  0  0  0  0
    1.2410   -3.3782    0.3855 C   0  0  0  0  0  0  0  0  0  0  0  0
   -0.6926   -4.1511    0.2180 H   0  0  0  0  0  0  0  0  0  0  0  0
   -3.7554   -1.3326   -1.1730 H   0  0  0  0  0  0  0  0  0  0  0  0
   -2.3121   -0.3668   -1.3023 H   0  0  0  0  0  0  0  0  0  0  0  0
   -4.0498   -0.8851    1.1867 H   0  0  0  0  0  0  0  0  0  0  0  0
   -2.4289   -0.2474    1.3594 H   0  0  0  0  0  0  0  0  0  0  0  0
   -2.0925    2.3419    1.0046 H   0  0  0  0  0  0  0  0  0  0  0  0
   -3.5425    4.4402    0.2909 H   0  0  0  0  0  0  0  0  0  0  0  0
   -5.9034    3.6945   -0.6112 H   0  0  0  0  0  0  0  0  0  0  0  0
   -0.4921   -0.1815   -0.4027 H   0  0  0  0  0  0  0  0  0  0  0  0
    0.6165    1.6297    0.3705 H   0  0  0  0  0  0  0  0  0  0  0  0
    0.9420    1.3707   -1.3638 H   0  0  0  0  0  0  0  0  0  0  0  0
    3.2731    2.2730   -1.0179 H   0  0  0  0  0  0  0  0  0  0  0  0
    2.9107    2.5629    0.6656 H   0  0  0  0  0  0  0  0  0  0  0  0
    1.4593    3.8587   -1.7133 H   0  0  0  0  0  0  0  0  0  0  0  0
    1.0404    4.1245   -0.0108 H   0  0  0  0  0  0  0  0  0  0  0  0
    3.5950    4.6096   -1.1588 H   0  0  0  0  0  0  0  0  0  0  0  0
    4.0212   -1.3784    0.4892 H   0  0  0  0  0  0  0  0  0  0  0  0
    5.0855   -3.5577    1.0082 H   0  0  0  0  0  0  0  0  0  0  0  0
    3.7049   -5.6162    1.1296 H   0  0  0  0  0  0  0  0  0  0  0  0
    1.2706   -5.5129    0.7373 H   0  0  0  0  0  0  0  0  0  0  0  0
  1  2  1  0
  2  3  2  3
  3  4  1  0
  4  5  1  0
  5  6  1  0
  6  7  2  0
  7  8  1  0
  8  9  2  0
  9 10  1  0
  2 11  1  0
 11 12  1  0
 12 13  2  3
 13 14  1  0
 14 15  1  0
 15 16  1  0
 16 17  1  0
 12 18  1  0
 18 19  2  0
 19 20  1  0
 20 21  2  0
 21 22  1  0
 22 23  2  0
 23  1  1  0
 10  6  1  0
 23 18  1  0
  1 24  1  0
  4 25  1  0
  4 26  1  0
  5 27  1  0
  5 28  1  0
  7 29  1  0
  8 30  1  0
  9 31  1  0
 11 32  1  0
 14 33  1  0
 14 34  1  0
 15 35  1  0
 15 36  1  0
 16 37  1  0
 16 38  1  0
 17 39  1  0
 19 40  1  0
 20 41  1  0
 21 42  1  0
 22 43  1  0
M  END
>  <ScrubInfo>  (6) 
{"isomerGroup": 0, "isomerId": 5, "confId": 0, "nr_conformers:": 1, "nr_isomers:": 6}

$$$$
