REMARK SMILES OCCCNc1nc(NCCc2cccs2)nc2ccccc12
REMARK SMILES IDX 5 1 4 3 3 4 2 5 1 6 6 8 7 9 23 10 8 11 22 12 18 13 17 14
REMARK SMILES IDX 21 15 19 16 20 17 9 18 10 20 11 21 12 22 13 23 16 24 14 25
REMARK SMILES IDX 15 26
REMARK H PARENT 5 2 1 7 9 19
ROOT
ATOM      1  N   UNL     1      -3.142  -0.626  -0.224  1.00  0.00    -0.369 N 
ATOM      2  H   UNL     1      -3.668  -1.067  -0.975  1.00  0.00     0.162 HD
ENDROOT
BRANCH   1   3
ATOM      3  C   UNL     1      -3.509   0.786  -0.088  1.00  0.00     0.117 C 
BRANCH   3   4
ATOM      4  C   UNL     1      -3.228   1.289   1.330  1.00  0.00     0.049 C 
BRANCH   4   5
ATOM      5  C   UNL     1      -3.588   2.759   1.481  1.00  0.00     0.158 C 
BRANCH   5   6
ATOM      6  O   UNL     1      -4.984   2.957   1.296  1.00  0.00    -0.396 OA
ATOM      7  H   UNL     1      -5.437   2.517   2.036  1.00  0.00     0.210 HD
ENDBRANCH   5   6
ENDBRANCH   4   5
ENDBRANCH   3   4
ENDBRANCH   1   3
BRANCH   1   8
ATOM      8  C   UNL     1      -1.770  -0.900  -0.446  1.00  0.00     0.139 A 
ATOM      9  N   UNL     1      -0.904   0.125  -0.520  1.00  0.00    -0.195 NA
ATOM     10  C   UNL     1      -1.351  -2.235  -0.566  1.00  0.00     0.043 A 
ATOM     11  C   UNL     1       0.384  -0.154  -0.733  1.00  0.00     0.225 A 
ATOM     12  C   UNL     1      -2.193  -3.373  -0.460  1.00  0.00     0.014 A 
ATOM     13  C   UNL     1       0.015  -2.410  -0.800  1.00  0.00     0.078 A 
ATOM     14  N   UNL     1       0.869  -1.388  -0.891  1.00  0.00    -0.213 NA
ATOM     15  C   UNL     1      -1.679  -4.659  -0.603  1.00  0.00     0.001 A 
ATOM     16  C   UNL     1       0.506  -3.703  -0.941  1.00  0.00     0.029 A 
ATOM     17  C   UNL     1      -0.323  -4.824  -0.848  1.00  0.00     0.002 A 
BRANCH  11  18
ATOM     18  N   UNL     1       1.225   0.946  -0.793  1.00  0.00    -0.354 N 
ATOM     19  H   UNL     1       0.631   1.749  -0.960  1.00  0.00     0.163 HD
BRANCH  18  20
ATOM     20  C   UNL     1       2.381   0.829  -1.674  1.00  0.00     0.121 C 
BRANCH  20  21
ATOM     21  C   UNL     1       3.610   0.254  -0.956  1.00  0.00     0.068 C 
BRANCH  21  22
ATOM     22  C   UNL     1       4.203   1.221   0.035  1.00  0.00     0.006 A 
ATOM     23  C   UNL     1       3.830   1.427   1.348  1.00  0.00     0.015 A 
ATOM     24  S   UNL     1       5.508   2.235  -0.414  1.00  0.00    -0.149 S 
ATOM     25  C   UNL     1       4.620   2.425   1.987  1.00  0.00     0.012 A 
ATOM     26  C   UNL     1       5.573   2.946   1.140  1.00  0.00     0.065 A 
ENDBRANCH  21  22
ENDBRANCH  20  21
ENDBRANCH  18  20
ENDBRANCH  11  18
ENDBRANCH   1   8
TORSDOF 9
