REMARK SMILES CCCCNc1nc(Nc2ccc(Br)cc2C)c2cnn(C)c2n1
REMARK SMILES IDX 5 1 4 3 3 4 2 5 1 6 6 7 7 8 24 9 8 10 23 11 18 12 21 13
REMARK SMILES IDX 19 14 20 15 22 16 9 17 10 19 11 20 16 21 12 22 15 23 13 24
REMARK SMILES IDX 17 25 14 26
REMARK H PARENT 5 2 9 18
ROOT
ATOM      1  N   UNL     1       2.609   0.082   0.255  1.00  0.00    -0.354 N 
ATOM      2  H   UNL     1       2.511   1.055  -0.014  1.00  0.00     0.163 HD
ENDROOT
BRANCH   1   3
ATOM      3  C   UNL     1       3.648  -0.661  -0.436  1.00  0.00     0.116 C 
BRANCH   3   4
ATOM      4  C   UNL     1       4.997   0.050  -0.295  1.00  0.00     0.021 C 
BRANCH   4   5
ATOM      5  C   UNL     1       5.079   1.342  -1.112  1.00  0.00    -0.002 C 
ATOM      6  C   UNL     1       6.457   1.978  -1.006  1.00  0.00     0.004 C 
ENDBRANCH   4   5
ENDBRANCH   3   4
ENDBRANCH   1   3
BRANCH   1   7
ATOM      7  C   UNL     1       1.333  -0.460   0.135  1.00  0.00     0.226 A 
ATOM      8  N   UNL     1       0.345   0.454   0.076  1.00  0.00    -0.195 NA
ATOM      9  N   UNL     1       1.173  -1.790   0.089  1.00  0.00    -0.193 NA
ATOM     10  C   UNL     1      -0.947   0.054  -0.015  1.00  0.00     0.147 A 
ATOM     11  C   UNL     1      -0.111  -2.157  -0.027  1.00  0.00     0.165 A 
ATOM     12  C   UNL     1      -1.203  -1.316  -0.089  1.00  0.00     0.082 A 
ATOM     13  N   UNL     1      -0.609  -3.429  -0.109  1.00  0.00    -0.250 N 
ATOM     14  C   UNL     1      -2.307  -2.182  -0.233  1.00  0.00     0.149 A 
ATOM     15  N   UNL     1      -1.956  -3.474  -0.240  1.00  0.00    -0.179 NA
ATOM     16  C   UNL     1       0.142  -4.658  -0.078  1.00  0.00     0.176 C 
BRANCH  10  17
ATOM     17  N   UNL     1      -1.925   1.061  -0.078  1.00  0.00    -0.339 N 
ATOM     18  H   UNL     1      -1.432   1.944   0.047  1.00  0.00     0.168 HD
BRANCH  17  19
ATOM     19  C   UNL     1      -3.166   1.093   0.599  1.00  0.00     0.043 A 
ATOM     20  C   UNL     1      -3.345   0.457   1.838  1.00  0.00     0.027 A 
ATOM     21  C   UNL     1      -4.218   1.875   0.076  1.00  0.00    -0.026 A 
ATOM     22  C   UNL     1      -4.559   0.546   2.524  1.00  0.00     0.018 A 
ATOM     23  C   UNL     1      -5.435   1.960   0.773  1.00  0.00     0.021 A 
ATOM     24  C   UNL     1      -5.599   1.294   1.986  1.00  0.00     0.018 A 
ATOM     25  C   UNL     1      -4.064   2.604  -1.231  1.00  0.00     0.046 C 
ATOM     26  Br  UNL     1      -7.242   1.420   2.912  1.00  0.00    -0.051 Br
ENDBRANCH  17  19
ENDBRANCH  10  17
ENDBRANCH   1   7
TORSDOF 6
