_i0
     RDKit          3D

 45 47  0  0  0  0  0  0  0  0999 V2000
    6.4571    1.9779   -1.0059 C   0  0  0  0  0  0  0  0  0  0  0  0
    5.0793    1.3423   -1.1117 C   0  0  0  0  0  0  0  0  0  0  0  0
    4.9972    0.0500   -0.2952 C   0  0  0  0  0  0  0  0  0  0  0  0
    3.6484   -0.6614   -0.4363 C   0  0  0  0  0  0  0  0  0  0  0  0
    2.6088    0.0819    0.2545 N   0  0  0  0  0  0  0  0  0  0  0  0
    1.3330   -0.4598    0.1353 C   0  0  0  0  0  0  0  0  0  0  0  0
    0.3455    0.4541    0.0756 N   0  0  0  0  0  0  0  0  0  0  0  0
   -0.9474    0.0538   -0.0153 C   0  0  0  0  0  0  0  0  0  0  0  0
   -1.9245    1.0610   -0.0777 N   0  0  0  0  0  0  0  0  0  0  0  0
   -3.1663    1.0927    0.5989 C   0  0  0  0  0  0  0  0  0  0  0  0
   -3.3453    0.4566    1.8379 C   0  0  0  0  0  0  0  0  0  0  0  0
   -4.5586    0.5459    2.5239 C   0  0  0  0  0  0  0  0  0  0  0  0
   -5.5992    1.2941    1.9859 C   0  0  0  0  0  0  0  0  0  0  0  0
   -7.2419    1.4201    2.9122 Br  0  0  0  0  0  0  0  0  0  0  0  0
   -5.4348    1.9604    0.7733 C   0  0  0  0  0  0  0  0  0  0  0  0
   -4.2179    1.8745    0.0760 C   0  0  0  0  0  0  0  0  0  0  0  0
   -4.0637    2.6045   -1.2312 C   0  0  0  0  0  0  0  0  0  0  0  0
   -1.2034   -1.3164   -0.0891 C   0  0  0  0  0  0  0  0  0  0  0  0
   -2.3066   -2.1824   -0.2327 C   0  0  0  0  0  0  0  0  0  0  0  0
   -1.9558   -3.4743   -0.2397 N   0  0  0  0  0  0  0  0  0  0  0  0
   -0.6092   -3.4286   -0.1094 N   0  0  0  0  0  0  0  0  0  0  0  0
    0.1419   -4.6580   -0.0776 C   0  0  0  0  0  0  0  0  0  0  0  0
   -0.1108   -2.1573   -0.0267 C   0  0  0  0  0  0  0  0  0  0  0  0
    1.1735   -1.7898    0.0894 N   0  0  0  0  0  0  0  0  0  0  0  0
    6.4956    2.8993   -1.5955 H   0  0  0  0  0  0  0  0  0  0  0  0
    7.2315    1.3018   -1.3821 H   0  0  0  0  0  0  0  0  0  0  0  0
    6.6943    2.2289    0.0329 H   0  0  0  0  0  0  0  0  0  0  0  0
    4.3316    2.0630   -0.7636 H   0  0  0  0  0  0  0  0  0  0  0  0
    4.8618    1.1312   -2.1651 H   0  0  0  0  0  0  0  0  0  0  0  0
    5.7840   -0.6341   -0.6369 H   0  0  0  0  0  0  0  0  0  0  0  0
    5.1972    0.2664    0.7616 H   0  0  0  0  0  0  0  0  0  0  0  0
    3.7507   -1.6603    0.0059 H   0  0  0  0  0  0  0  0  0  0  0  0
    3.4028   -0.7848   -1.4986 H   0  0  0  0  0  0  0  0  0  0  0  0
    2.5114    1.0550   -0.0138 H   0  0  0  0  0  0  0  0  0  0  0  0
   -1.4323    1.9442    0.0466 H   0  0  0  0  0  0  0  0  0  0  0  0
   -2.5354   -0.1080    2.2941 H   0  0  0  0  0  0  0  0  0  0  0  0
   -4.6738    0.0365    3.4770 H   0  0  0  0  0  0  0  0  0  0  0  0
   -6.2532    2.5505    0.3670 H   0  0  0  0  0  0  0  0  0  0  0  0
   -4.9815    3.1348   -1.5066 H   0  0  0  0  0  0  0  0  0  0  0  0
   -3.8370    1.8980   -2.0362 H   0  0  0  0  0  0  0  0  0  0  0  0
   -3.2619    3.3464   -1.1593 H   0  0  0  0  0  0  0  0  0  0  0  0
   -3.3531   -1.9229   -0.3312 H   0  0  0  0  0  0  0  0  0  0  0  0
   -0.0172   -5.1822   -1.0233 H   0  0  0  0  0  0  0  0  0  0  0  0
    1.2051   -4.4445    0.0536 H   0  0  0  0  0  0  0  0  0  0  0  0
   -0.2200   -5.2608    0.7591 H   0  0  0  0  0  0  0  0  0  0  0  0
  1  2  1  0
  2  3  1  0
  3  4  1  0
  4  5  1  0
  5  6  1  0
  6  7  2  0
  7  8  1  0
  8  9  1  0
  9 10  1  0
 10 11  2  0
 11 12  1  0
 12 13  2  0
 13 14  1  0
 13 15  1  0
 15 16  2  0
 16 17  1  0
  8 18  2  0
 18 19  1  0
 19 20  2  0
 20 21  1  0
 21 22  1  0
 21 23  1  0
 23 24  2  0
 24  6  1  0
 16 10  1  0
 23 18  1  0
  1 25  1  0
  1 26  1  0
  1 27  1  0
  2 28  1  0
  2 29  1  0
  3 30  1  0
  3 31  1  0
  4 32  1  0
  4 33  1  0
  5 34  1  0
  9 35  1  0
 11 36  1  0
 12 37  1  0
 15 38  1  0
 17 39  1  0
 17 40  1  0
 17 41  1  0
 19 42  1  0
 22 43  1  0
 22 44  1  0
 22 45  1  0
M  END
>  <ScrubInfo>  (1) 
{"isomerGroup": 0, "isomerId": 0, "confId": 0, "nr_conformers:": 1, "nr_isomers:": 9}

$$$$
_i1
     RDKit          3D

 45 47  0  0  0  0  0  0  0  0999 V2000
   -0.0619   -0.2838   -0.4426 N   0  0  0  0  0  0  0  0  0  0  0  0
   -1.1649   -0.9700    0.0266 C   0  0  0  0  0  0  0  0  0  0  0  0
   -2.4592   -0.5153   -0.1493 N   0  0  0  0  0  0  0  0  0  0  0  0
   -2.9233    0.8168   -0.2284 C   0  0  0  0  0  0  0  0  0  0  0  0
   -2.1757    1.8972    0.2692 C   0  0  0  0  0  0  0  0  0  0  0  0
   -2.6344    3.2124    0.1566 C   0  0  0  0  0  0  0  0  0  0  0  0
   -3.8509    3.4650   -0.4638 C   0  0  0  0  0  0  0  0  0  0  0  0
   -4.4785    5.2410   -0.6156 Br  0  0  0  0  0  0  0  0  0  0  0  0
   -4.6106    2.4152   -0.9734 C   0  0  0  0  0  0  0  0  0  0  0  0
   -4.1540    1.0886   -0.8690 C   0  0  0  0  0  0  0  0  0  0  0  0
   -4.9969   -0.0137   -1.4541 C   0  0  0  0  0  0  0  0  0  0  0  0
   -0.8831   -2.1335    0.6265 C   0  0  0  0  0  0  0  0  0  0  0  0
   -1.6089   -3.2143    1.3024 C   0  0  0  0  0  0  0  0  0  0  0  0
   -0.8215   -4.1459    1.7767 N   0  0  0  0  0  0  0  0  0  0  0  0
    0.4762   -3.7629    1.4014 N   0  0  0  0  0  0  0  0  0  0  0  0
    1.6059   -4.4170    2.0155 C   0  0  0  0  0  0  0  0  0  0  0  0
    0.5351   -2.5434    0.7462 C   0  0  0  0  0  0  0  0  0  0  0  0
    1.5514   -1.8722    0.3222 N   0  0  0  0  0  0  0  0  0  0  0  0
    1.2387   -0.6956   -0.3228 C   0  0  0  0  0  0  0  0  0  0  0  0
    2.1689    0.0397   -0.8358 N   0  0  0  0  0  0  0  0  0  0  0  0
    3.5470   -0.4270   -0.6865 C   0  0  0  0  0  0  0  0  0  0  0  0
    4.4989    0.6045   -1.2965 C   0  0  0  0  0  0  0  0  0  0  0  0
    4.7903    1.8114   -0.3981 C   0  0  0  0  0  0  0  0  0  0  0  0
    3.5906    2.7087   -0.1411 C   0  0  0  0  0  0  0  0  0  0  0  0
   -0.2258    0.5334   -1.0121 H   0  0  0  0  0  0  0  0  0  0  0  0
   -3.1957   -1.1735    0.0815 H   0  0  0  0  0  0  0  0  0  0  0  0
   -1.2352    1.7311    0.7896 H   0  0  0  0  0  0  0  0  0  0  0  0
   -2.0365    4.0245    0.5618 H   0  0  0  0  0  0  0  0  0  0  0  0
   -5.5594    2.6267   -1.4617 H   0  0  0  0  0  0  0  0  0  0  0  0
   -5.8572    0.3842   -2.0027 H   0  0  0  0  0  0  0  0  0  0  0  0
   -4.4096   -0.6106   -2.1595 H   0  0  0  0  0  0  0  0  0  0  0  0
   -5.3791   -0.6597   -0.6574 H   0  0  0  0  0  0  0  0  0  0  0  0
   -2.7016   -3.1915    1.3998 H   0  0  0  0  0  0  0  0  0  0  0  0
    1.8445   -3.9446    2.9734 H   0  0  0  0  0  0  0  0  0  0  0  0
    2.4881   -4.3610    1.3698 H   0  0  0  0  0  0  0  0  0  0  0  0
    1.3910   -5.4754    2.1952 H   0  0  0  0  0  0  0  0  0  0  0  0
    3.6732   -1.3710   -1.2309 H   0  0  0  0  0  0  0  0  0  0  0  0
    3.8069   -0.5924    0.3660 H   0  0  0  0  0  0  0  0  0  0  0  0
    4.1191    0.9467   -2.2670 H   0  0  0  0  0  0  0  0  0  0  0  0
    5.4564    0.1049   -1.4909 H   0  0  0  0  0  0  0  0  0  0  0  0
    5.2010    1.4714    0.5598 H   0  0  0  0  0  0  0  0  0  0  0  0
    5.5724    2.4121   -0.8783 H   0  0  0  0  0  0  0  0  0  0  0  0
    2.8493    2.2150    0.4935 H   0  0  0  0  0  0  0  0  0  0  0  0
    3.9088    3.6188    0.3779 H   0  0  0  0  0  0  0  0  0  0  0  0
    3.1099    3.0050   -1.0786 H   0  0  0  0  0  0  0  0  0  0  0  0
  1  2  1  0
  2  3  1  0
  3  4  1  0
  4  5  2  0
  5  6  1  0
  6  7  2  0
  7  8  1  0
  7  9  1  0
  9 10  2  0
 10 11  1  0
  2 12  2  0
 12 13  1  0
 13 14  2  0
 14 15  1  0
 15 16  1  0
 15 17  1  0
 17 18  2  0
 18 19  1  0
 19 20  2  3
 20 21  1  0
 21 22  1  0
 22 23  1  0
 23 24  1  0
 19  1  1  0
 10  4  1  0
 17 12  1  0
  1 25  1  0
  3 26  1  0
  5 27  1  0
  6 28  1  0
  9 29  1  0
 11 30  1  0
 11 31  1  0
 11 32  1  0
 13 33  1  0
 16 34  1  0
 16 35  1  0
 16 36  1  0
 21 37  1  0
 21 38  1  0
 22 39  1  0
 22 40  1  0
 23 41  1  0
 23 42  1  0
 24 43  1  0
 24 44  1  0
 24 45  1  0
M  END
>  <ScrubInfo>  (2) 
{"isomerGroup": 0, "isomerId": 1, "confId": 0, "nr_conformers:": 1, "nr_isomers:": 9}

$$$$
_i2
     RDKit          3D

 45 47  0  0  0  0  0  0  0  0999 V2000
   -0.3696    0.3435    0.3030 N   0  0  0  0  0  0  0  0  0  0  0  0
    0.7604    1.0641    0.6123 C   0  0  0  0  0  0  0  0  0  0  0  0
    1.5506    0.5619    1.6067 N   0  0  0  0  0  0  0  0  0  0  0  0
    1.8884   -0.8434    1.7689 C   0  0  0  0  0  0  0  0  0  0  0  0
    2.6714   -1.3944    0.5758 C   0  0  0  0  0  0  0  0  0  0  0  0
    4.0490   -0.7475    0.4155 C   0  0  0  0  0  0  0  0  0  0  0  0
    4.8239   -1.3720   -0.7347 C   0  0  0  0  0  0  0  0  0  0  0  0
    1.1073    2.1836    0.0239 N   0  0  0  0  0  0  0  0  0  0  0  0
    0.2158    2.5337   -0.9460 C   0  0  0  0  0  0  0  0  0  0  0  0
   -0.9366    1.8720   -1.3228 C   0  0  0  0  0  0  0  0  0  0  0  0
   -1.4863    2.6418   -2.3563 C   0  0  0  0  0  0  0  0  0  0  0  0
   -0.7435    3.7220   -2.6330 N   0  0  0  0  0  0  0  0  0  0  0  0
    0.2878    3.6332   -1.7556 N   0  0  0  0  0  0  0  0  0  0  0  0
    1.3073    4.6515   -1.7594 C   0  0  0  0  0  0  0  0  0  0  0  0
   -1.3155    0.6570   -0.6494 C   0  0  0  0  0  0  0  0  0  0  0  0
   -2.4139    0.0696   -0.9907 N   0  0  0  0  0  0  0  0  0  0  0  0
   -2.7569   -1.1115   -0.3178 C   0  0  0  0  0  0  0  0  0  0  0  0
   -2.2995   -2.3366   -0.8192 C   0  0  0  0  0  0  0  0  0  0  0  0
   -2.6034   -3.5319   -0.1668 C   0  0  0  0  0  0  0  0  0  0  0  0
   -3.3763   -3.5033    0.9901 C   0  0  0  0  0  0  0  0  0  0  0  0
   -3.7830   -5.1179    1.8850 Br  0  0  0  0  0  0  0  0  0  0  0  0
   -3.8555   -2.2935    1.4931 C   0  0  0  0  0  0  0  0  0  0  0  0
   -3.5612   -1.0879    0.8360 C   0  0  0  0  0  0  0  0  0  0  0  0
   -4.0885    0.2101    1.3812 C   0  0  0  0  0  0  0  0  0  0  0  0
   -0.6079   -0.4116    0.9222 H   0  0  0  0  0  0  0  0  0  0  0  0
    2.3588    1.1687    1.7298 H   0  0  0  0  0  0  0  0  0  0  0  0
    2.4803   -0.9556    2.6845 H   0  0  0  0  0  0  0  0  0  0  0  0
    0.9790   -1.4357    1.9176 H   0  0  0  0  0  0  0  0  0  0  0  0
    2.7994   -2.4745    0.7194 H   0  0  0  0  0  0  0  0  0  0  0  0
    2.0950   -1.2657   -0.3483 H   0  0  0  0  0  0  0  0  0  0  0  0
    3.9459    0.3269    0.2279 H   0  0  0  0  0  0  0  0  0  0  0  0
    4.6246   -0.8630    1.3412 H   0  0  0  0  0  0  0  0  0  0  0  0
    5.8046   -0.8962   -0.8333 H   0  0  0  0  0  0  0  0  0  0  0  0
    4.9810   -2.4423   -0.5670 H   0  0  0  0  0  0  0  0  0  0  0  0
    4.2886   -1.2469   -1.6814 H   0  0  0  0  0  0  0  0  0  0  0  0
   -2.3937    2.4636   -2.9187 H   0  0  0  0  0  0  0  0  0  0  0  0
    1.7721    4.6687   -2.7485 H   0  0  0  0  0  0  0  0  0  0  0  0
    0.8339    5.6125   -1.5432 H   0  0  0  0  0  0  0  0  0  0  0  0
    2.0613    4.4318   -1.0006 H   0  0  0  0  0  0  0  0  0  0  0  0
   -1.7050   -2.3542   -1.7297 H   0  0  0  0  0  0  0  0  0  0  0  0
   -2.2400   -4.4724   -0.5722 H   0  0  0  0  0  0  0  0  0  0  0  0
   -4.4682   -2.2857    2.3920 H   0  0  0  0  0  0  0  0  0  0  0  0
   -3.2719    0.7976    1.8124 H   0  0  0  0  0  0  0  0  0  0  0  0
   -4.8340    0.0402    2.1652 H   0  0  0  0  0  0  0  0  0  0  0  0
   -4.5762    0.7899    0.5908 H   0  0  0  0  0  0  0  0  0  0  0  0
  1  2  1  0
  2  3  1  0
  3  4  1  0
  4  5  1  0
  5  6  1  0
  6  7  1  0
  2  8  2  0
  8  9  1  0
  9 10  2  0
 10 11  1  0
 11 12  2  0
 12 13  1  0
 13 14  1  0
 10 15  1  0
 15 16  2  3
 16 17  1  0
 17 18  2  0
 18 19  1  0
 19 20  2  0
 20 21  1  0
 20 22  1  0
 22 23  2  0
 23 24  1  0
 15  1  1  0
 23 17  1  0
 13  9  1  0
  1 25  1  0
  3 26  1  0
  4 27  1  0
  4 28  1  0
  5 29  1  0
  5 30  1  0
  6 31  1  0
  6 32  1  0
  7 33  1  0
  7 34  1  0
  7 35  1  0
 11 36  1  0
 14 37  1  0
 14 38  1  0
 14 39  1  0
 18 40  1  0
 19 41  1  0
 22 42  1  0
 24 43  1  0
 24 44  1  0
 24 45  1  0
M  END
>  <ScrubInfo>  (3) 
{"isomerGroup": 0, "isomerId": 2, "confId": 0, "nr_conformers:": 1, "nr_isomers:": 9}

$$$$
_i3
     RDKit          3D

 45 47  0  0  0  0  0  0  0  0999 V2000
    1.2233   -1.3703    0.0243 N   0  0  0  0  0  0  0  0  0  0  0  0
    1.3522   -0.0137    0.2752 C   0  0  0  0  0  0  0  0  0  0  0  0
    2.3226    0.5547    0.8984 N   0  0  0  0  0  0  0  0  0  0  0  0
    3.4233   -0.2514    1.4044 C   0  0  0  0  0  0  0  0  0  0  0  0
    4.4552    0.6570    2.0757 C   0  0  0  0  0  0  0  0  0  0  0  0
    5.4042    1.3684    1.1054 C   0  0  0  0  0  0  0  0  0  0  0  0
    4.7313    2.3902    0.2035 C   0  0  0  0  0  0  0  0  0  0  0  0
    0.3876    0.8889   -0.1481 N   0  0  0  0  0  0  0  0  0  0  0  0
   -0.6703    0.4605   -0.7776 C   0  0  0  0  0  0  0  0  0  0  0  0
   -1.6484    1.3129   -1.2265 N   0  0  0  0  0  0  0  0  0  0  0  0
   -3.0293    1.1489   -0.9421 C   0  0  0  0  0  0  0  0  0  0  0  0
   -3.9236    1.3828   -2.0015 C   0  0  0  0  0  0  0  0  0  0  0  0
   -5.3031    1.2882   -1.8171 C   0  0  0  0  0  0  0  0  0  0  0  0
   -5.8032    0.9839   -0.5575 C   0  0  0  0  0  0  0  0  0  0  0  0
   -7.6699    0.8444   -0.2966 Br  0  0  0  0  0  0  0  0  0  0  0  0
   -4.9368    0.7959    0.5185 C   0  0  0  0  0  0  0  0  0  0  0  0
   -3.5436    0.9039    0.3478 C   0  0  0  0  0  0  0  0  0  0  0  0
   -2.6657    0.7400    1.5593 C   0  0  0  0  0  0  0  0  0  0  0  0
   -0.8327   -0.9437   -1.0756 C   0  0  0  0  0  0  0  0  0  0  0  0
   -1.7512   -1.7717   -1.7382 C   0  0  0  0  0  0  0  0  0  0  0  0
   -1.3831   -3.0630   -1.7163 N   0  0  0  0  0  0  0  0  0  0  0  0
   -0.2111   -3.0547   -1.0365 N   0  0  0  0  0  0  0  0  0  0  0  0
    0.4837   -4.2990   -0.8264 C   0  0  0  0  0  0  0  0  0  0  0  0
    0.1423   -1.8020   -0.6475 C   0  0  0  0  0  0  0  0  0  0  0  0
    1.9629   -1.9743    0.3481 H   0  0  0  0  0  0  0  0  0  0  0  0
    3.0450   -0.9534    2.1574 H   0  0  0  0  0  0  0  0  0  0  0  0
    3.9005   -0.8270    0.6026 H   0  0  0  0  0  0  0  0  0  0  0  0
    3.9552    1.3950    2.7149 H   0  0  0  0  0  0  0  0  0  0  0  0
    5.0721    0.0344    2.7360 H   0  0  0  0  0  0  0  0  0  0  0  0
    6.1717    1.8835    1.6959 H   0  0  0  0  0  0  0  0  0  0  0  0
    5.9282    0.6291    0.4883 H   0  0  0  0  0  0  0  0  0  0  0  0
    4.1365    3.1009    0.7857 H   0  0  0  0  0  0  0  0  0  0  0  0
    4.0820    1.9088   -0.5331 H   0  0  0  0  0  0  0  0  0  0  0  0
    5.4878    2.9562   -0.3499 H   0  0  0  0  0  0  0  0  0  0  0  0
   -1.3843    2.2615   -0.9642 H   0  0  0  0  0  0  0  0  0  0  0  0
   -3.5376    1.6210   -2.9911 H   0  0  0  0  0  0  0  0  0  0  0  0
   -5.9711    1.4523   -2.6582 H   0  0  0  0  0  0  0  0  0  0  0  0
   -5.3457    0.5774    1.5032 H   0  0  0  0  0  0  0  0  0  0  0  0
   -1.8975    1.5186    1.5915 H   0  0  0  0  0  0  0  0  0  0  0  0
   -2.1968   -0.2481    1.5612 H   0  0  0  0  0  0  0  0  0  0  0  0
   -3.2446    0.8364    2.4845 H   0  0  0  0  0  0  0  0  0  0  0  0
   -2.6724   -1.5033   -2.2382 H   0  0  0  0  0  0  0  0  0  0  0  0
   -0.1876   -4.9855   -0.3043 H   0  0  0  0  0  0  0  0  0  0  0  0
    0.7638   -4.7053   -1.8015 H   0  0  0  0  0  0  0  0  0  0  0  0
    1.3785   -4.1295   -0.2239 H   0  0  0  0  0  0  0  0  0  0  0  0
  1  2  1  0
  2  3  2  3
  3  4  1  0
  4  5  1  0
  5  6  1  0
  6  7  1  0
  2  8  1  0
  8  9  2  0
  9 10  1  0
 10 11  1  0
 11 12  2  0
 12 13  1  0
 13 14  2  0
 14 15  1  0
 14 16  1  0
 16 17  2  0
 17 18  1  0
  9 19  1  0
 19 20  1  0
 20 21  2  0
 21 22  1  0
 22 23  1  0
 22 24  1  0
 24  1  1  0
 17 11  1  0
 24 19  2  0
  1 25  1  0
  4 26  1  0
  4 27  1  0
  5 28  1  0
  5 29  1  0
  6 30  1  0
  6 31  1  0
  7 32  1  0
  7 33  1  0
  7 34  1  0
 10 35  1  0
 12 36  1  0
 13 37  1  0
 16 38  1  0
 18 39  1  0
 18 40  1  0
 18 41  1  0
 20 42  1  0
 23 43  1  0
 23 44  1  0
 23 45  1  0
M  END
>  <ScrubInfo>  (4) 
{"isomerGroup": 0, "isomerId": 3, "confId": 0, "nr_conformers:": 1, "nr_isomers:": 9}

$$$$
_i4
     RDKit          3D

 45 47  0  0  0  0  0  0  0  0999 V2000
   -0.9044   -4.4642    0.7318 N   0  0  0  0  0  0  0  0  0  0  0  0
   -1.7619   -3.5027    0.2066 C   0  0  0  0  0  0  0  0  0  0  0  0
   -1.2120   -2.2824    0.1686 C   0  0  0  0  0  0  0  0  0  0  0  0
   -1.5875   -0.9592   -0.2715 C   0  0  0  0  0  0  0  0  0  0  0  0
   -2.7695   -0.6957   -0.7356 N   0  0  0  0  0  0  0  0  0  0  0  0
   -3.0516    0.6186   -1.1414 C   0  0  0  0  0  0  0  0  0  0  0  0
   -2.7551    1.0084   -2.4541 C   0  0  0  0  0  0  0  0  0  0  0  0
   -3.0406    2.3003   -2.8980 C   0  0  0  0  0  0  0  0  0  0  0  0
   -3.6365    3.2070   -2.0268 C   0  0  0  0  0  0  0  0  0  0  0  0
   -4.0207    4.9612   -2.6187 Br  0  0  0  0  0  0  0  0  0  0  0  0
   -3.9555    2.8320   -0.7216 C   0  0  0  0  0  0  0  0  0  0  0  0
   -3.6766    1.5312   -0.2714 C   0  0  0  0  0  0  0  0  0  0  0  0
   -4.0201    1.1359    1.1365 C   0  0  0  0  0  0  0  0  0  0  0  0
   -0.5952   -0.0225   -0.1556 N   0  0  0  0  0  0  0  0  0  0  0  0
    0.5719   -0.2998    0.3519 C   0  0  0  0  0  0  0  0  0  0  0  0
    1.4629    0.7326    0.3895 N   0  0  0  0  0  0  0  0  0  0  0  0
    2.5752    0.7764    1.3123 C   0  0  0  0  0  0  0  0  0  0  0  0
    3.4580    1.9945    1.0350 C   0  0  0  0  0  0  0  0  0  0  0  0
    4.1071    2.0183   -0.3528 C   0  0  0  0  0  0  0  0  0  0  0  0
    5.0477    0.8502   -0.6051 C   0  0  0  0  0  0  0  0  0  0  0  0
    0.9587   -1.5194    0.8473 N   0  0  0  0  0  0  0  0  0  0  0  0
    0.1091   -2.4837    0.7745 C   0  0  0  0  0  0  0  0  0  0  0  0
    0.2333   -3.8082    1.1997 N   0  0  0  0  0  0  0  0  0  0  0  0
    1.5120   -4.4898    1.1364 C   0  0  0  0  0  0  0  0  0  0  0  0
   -1.3631   -5.0958    1.3925 H   0  0  0  0  0  0  0  0  0  0  0  0
   -2.7557   -3.7846   -0.1121 H   0  0  0  0  0  0  0  0  0  0  0  0
   -2.2899    0.2956   -3.1294 H   0  0  0  0  0  0  0  0  0  0  0  0
   -2.7941    2.5833   -3.9171 H   0  0  0  0  0  0  0  0  0  0  0  0
   -4.4245    3.5483   -0.0517 H   0  0  0  0  0  0  0  0  0  0  0  0
   -4.6231    1.9043    1.6319 H   0  0  0  0  0  0  0  0  0  0  0  0
   -4.6045    0.2100    1.1443 H   0  0  0  0  0  0  0  0  0  0  0  0
   -3.1067    0.9945    1.7229 H   0  0  0  0  0  0  0  0  0  0  0  0
    1.0080    1.6175    0.1969 H   0  0  0  0  0  0  0  0  0  0  0  0
    3.1706   -0.1408    1.2510 H   0  0  0  0  0  0  0  0  0  0  0  0
    2.1899    0.8455    2.3363 H   0  0  0  0  0  0  0  0  0  0  0  0
    2.8594    2.9071    1.1504 H   0  0  0  0  0  0  0  0  0  0  0  0
    4.2446    2.0386    1.7983 H   0  0  0  0  0  0  0  0  0  0  0  0
    3.3373    2.0404   -1.1326 H   0  0  0  0  0  0  0  0  0  0  0  0
    4.6762    2.9507   -0.4503 H   0  0  0  0  0  0  0  0  0  0  0  0
    5.5591    0.9807   -1.5643 H   0  0  0  0  0  0  0  0  0  0  0  0
    4.5059   -0.0992   -0.6466 H   0  0  0  0  0  0  0  0  0  0  0  0
    5.8093    0.7821    0.1781 H   0  0  0  0  0  0  0  0  0  0  0  0
    1.8412   -4.6049    0.0984 H   0  0  0  0  0  0  0  0  0  0  0  0
    2.2749   -3.9291    1.6861 H   0  0  0  0  0  0  0  0  0  0  0  0
    1.4363   -5.4835    1.5897 H   0  0  0  0  0  0  0  0  0  0  0  0
  1  2  1  0
  2  3  2  0
  3  4  1  0
  4  5  2  3
  5  6  1  0
  6  7  2  0
  7  8  1  0
  8  9  2  0
  9 10  1  0
  9 11  1  0
 11 12  2  0
 12 13  1  0
  4 14  1  0
 14 15  2  0
 15 16  1  0
 16 17  1  0
 17 18  1  0
 18 19  1  0
 19 20  1  0
 15 21  1  0
 21 22  2  0
 22 23  1  0
 23 24  1  0
 23  1  1  0
 22  3  1  0
 12  6  1  0
  1 25  1  0
  2 26  1  0
  7 27  1  0
  8 28  1  0
 11 29  1  0
 13 30  1  0
 13 31  1  0
 13 32  1  0
 16 33  1  0
 17 34  1  0
 17 35  1  0
 18 36  1  0
 18 37  1  0
 19 38  1  0
 19 39  1  0
 20 40  1  0
 20 41  1  0
 20 42  1  0
 24 43  1  0
 24 44  1  0
 24 45  1  0
M  END
>  <ScrubInfo>  (5) 
{"isomerGroup": 0, "isomerId": 4, "confId": 0, "nr_conformers:": 1, "nr_isomers:": 9}

$$$$
_i5
     RDKit          3D

 45 47  0  0  0  0  0  0  0  0999 V2000
   -1.1449    0.5986    0.8009 N   0  0  0  0  0  0  0  0  0  0  0  0
   -1.1297   -0.3738   -0.1667 C   0  0  0  0  0  0  0  0  0  0  0  0
   -2.3582   -0.7568   -0.6240 N   0  0  0  0  0  0  0  0  0  0  0  0
   -3.3953   -1.2259    0.2867 C   0  0  0  0  0  0  0  0  0  0  0  0
   -4.6671   -1.5756   -0.4867 C   0  0  0  0  0  0  0  0  0  0  0  0
   -5.3378   -0.3441   -1.1002 C   0  0  0  0  0  0  0  0  0  0  0  0
   -6.6247   -0.7142   -1.8210 C   0  0  0  0  0  0  0  0  0  0  0  0
   -0.0628   -0.9202   -0.6751 N   0  0  0  0  0  0  0  0  0  0  0  0
    1.1944   -0.5360   -0.2223 C   0  0  0  0  0  0  0  0  0  0  0  0
    2.1986   -1.1718   -0.7370 N   0  0  0  0  0  0  0  0  0  0  0  0
    3.5216   -0.9059   -0.3797 C   0  0  0  0  0  0  0  0  0  0  0  0
    4.0906   -1.6025    0.6945 C   0  0  0  0  0  0  0  0  0  0  0  0
    5.4178   -1.3821    1.0651 C   0  0  0  0  0  0  0  0  0  0  0  0
    6.1870   -0.4712    0.3472 C   0  0  0  0  0  0  0  0  0  0  0  0
    7.9841   -0.1637    0.8469 Br  0  0  0  0  0  0  0  0  0  0  0  0
    5.6453    0.2114   -0.7421 C   0  0  0  0  0  0  0  0  0  0  0  0
    4.3125   -0.0114   -1.1247 C   0  0  0  0  0  0  0  0  0  0  0  0
    3.7409    0.7170   -2.3087 C   0  0  0  0  0  0  0  0  0  0  0  0
    1.2315    0.5299    0.7663 C   0  0  0  0  0  0  0  0  0  0  0  0
    2.2016    1.2818    1.4536 C   0  0  0  0  0  0  0  0  0  0  0  0
    1.6659    2.1995    2.2749 N   0  0  0  0  0  0  0  0  0  0  0  0
    0.3338    2.0363    2.1130 N   0  0  0  0  0  0  0  0  0  0  0  0
   -0.5703    2.8739    2.8588 C   0  0  0  0  0  0  0  0  0  0  0  0
    0.0471    1.0483    1.2271 C   0  0  0  0  0  0  0  0  0  0  0  0
   -2.0174    1.0893    0.9407 H   0  0  0  0  0  0  0  0  0  0  0  0
   -2.2043   -1.4371   -1.3682 H   0  0  0  0  0  0  0  0  0  0  0  0
   -3.6230   -0.4681    1.0445 H   0  0  0  0  0  0  0  0  0  0  0  0
   -3.0353   -2.1201    0.8087 H   0  0  0  0  0  0  0  0  0  0  0  0
   -5.3699   -2.0614    0.2013 H   0  0  0  0  0  0  0  0  0  0  0  0
   -4.4372   -2.3022   -1.2759 H   0  0  0  0  0  0  0  0  0  0  0  0
   -4.6604    0.1426   -1.8110 H   0  0  0  0  0  0  0  0  0  0  0  0
   -5.5637    0.3863   -0.3146 H   0  0  0  0  0  0  0  0  0  0  0  0
   -6.4295   -1.4210   -2.6338 H   0  0  0  0  0  0  0  0  0  0  0  0
   -7.3427   -1.1713   -1.1326 H   0  0  0  0  0  0  0  0  0  0  0  0
   -7.0884    0.1789   -2.2513 H   0  0  0  0  0  0  0  0  0  0  0  0
    3.4896   -2.3238    1.2428 H   0  0  0  0  0  0  0  0  0  0  0  0
    5.8378   -1.9274    1.9056 H   0  0  0  0  0  0  0  0  0  0  0  0
    6.2603    0.9119   -1.3022 H   0  0  0  0  0  0  0  0  0  0  0  0
    2.9898    1.4421   -1.9803 H   0  0  0  0  0  0  0  0  0  0  0  0
    3.2838    0.0112   -3.0098 H   0  0  0  0  0  0  0  0  0  0  0  0
    4.5176    1.2615   -2.8560 H   0  0  0  0  0  0  0  0  0  0  0  0
    3.2799    1.2223    1.4012 H   0  0  0  0  0  0  0  0  0  0  0  0
   -1.5950    2.5162    2.7380 H   0  0  0  0  0  0  0  0  0  0  0  0
   -0.2908    2.8338    3.9148 H   0  0  0  0  0  0  0  0  0  0  0  0
   -0.4830    3.8948    2.4788 H   0  0  0  0  0  0  0  0  0  0  0  0
  1  2  1  0
  2  3  1  0
  3  4  1  0
  4  5  1  0
  5  6  1  0
  6  7  1  0
  2  8  2  0
  8  9  1  0
  9 10  2  3
 10 11  1  0
 11 12  2  0
 12 13  1  0
 13 14  2  0
 14 15  1  0
 14 16  1  0
 16 17  2  0
 17 18  1  0
  9 19  1  0
 19 20  1  0
 20 21  2  0
 21 22  1  0
 22 23  1  0
 22 24  1  0
 24  1  1  0
 17 11  1  0
 24 19  2  0
  1 25  1  0
  3 26  1  0
  4 27  1  0
  4 28  1  0
  5 29  1  0
  5 30  1  0
  6 31  1  0
  6 32  1  0
  7 33  1  0
  7 34  1  0
  7 35  1  0
 12 36  1  0
 13 37  1  0
 16 38  1  0
 18 39  1  0
 18 40  1  0
 18 41  1  0
 20 42  1  0
 23 43  1  0
 23 44  1  0
 23 45  1  0
M  END
>  <ScrubInfo>  (6) 
{"isomerGroup": 0, "isomerId": 5, "confId": 0, "nr_conformers:": 1, "nr_isomers:": 9}

$$$$
_i6
     RDKit          3D

 45 47  0  0  0  0  0  0  0  0999 V2000
   -1.0126   -4.3727   -1.4808 N   0  0  0  0  0  0  0  0  0  0  0  0
   -1.5784   -3.1097   -1.6171 C   0  0  0  0  0  0  0  0  0  0  0  0
   -0.9209   -2.1674   -0.9275 C   0  0  0  0  0  0  0  0  0  0  0  0
   -0.9923   -0.7247   -0.6984 C   0  0  0  0  0  0  0  0  0  0  0  0
   -2.0048    0.0233   -1.2728 N   0  0  0  0  0  0  0  0  0  0  0  0
   -2.3990    1.2996   -0.8152 C   0  0  0  0  0  0  0  0  0  0  0  0
   -2.4762    2.3283   -1.7693 C   0  0  0  0  0  0  0  0  0  0  0  0
   -2.9188    3.6054   -1.4221 C   0  0  0  0  0  0  0  0  0  0  0  0
   -3.3144    3.8584   -0.1148 C   0  0  0  0  0  0  0  0  0  0  0  0
   -3.9064    5.5868    0.3698 Br  0  0  0  0  0  0  0  0  0  0  0  0
   -3.2882    2.8419    0.8384 C   0  0  0  0  0  0  0  0  0  0  0  0
   -2.8599    1.5459    0.4941 C   0  0  0  0  0  0  0  0  0  0  0  0
   -2.8754    0.4874    1.5633 C   0  0  0  0  0  0  0  0  0  0  0  0
   -0.0627   -0.1873    0.0403 N   0  0  0  0  0  0  0  0  0  0  0  0
    0.9300   -0.9769    0.5772 C   0  0  0  0  0  0  0  0  0  0  0  0
    1.8765   -0.4355    1.2573 N   0  0  0  0  0  0  0  0  0  0  0  0
    1.8748    1.0109    1.4621 C   0  0  0  0  0  0  0  0  0  0  0  0
    2.5934    1.7284    0.3183 C   0  0  0  0  0  0  0  0  0  0  0  0
    4.0481    1.3004    0.1012 C   0  0  0  0  0  0  0  0  0  0  0  0
    4.9497    1.5816    1.2931 C   0  0  0  0  0  0  0  0  0  0  0  0
    1.0371   -2.3437    0.4719 N   0  0  0  0  0  0  0  0  0  0  0  0
    0.1442   -2.9308   -0.2433 C   0  0  0  0  0  0  0  0  0  0  0  0
   -0.0065   -4.2891   -0.5240 N   0  0  0  0  0  0  0  0  0  0  0  0
    1.1515   -5.1570   -0.6312 C   0  0  0  0  0  0  0  0  0  0  0  0
   -1.6956   -5.1222   -1.3479 H   0  0  0  0  0  0  0  0  0  0  0  0
   -2.4543   -2.9979   -2.2388 H   0  0  0  0  0  0  0  0  0  0  0  0
   -2.7822   -0.4832   -1.6781 H   0  0  0  0  0  0  0  0  0  0  0  0
   -2.1577    2.1405   -2.7926 H   0  0  0  0  0  0  0  0  0  0  0  0
   -2.9431    4.3891   -2.1740 H   0  0  0  0  0  0  0  0  0  0  0  0
   -3.6086    3.0516    1.8569 H   0  0  0  0  0  0  0  0  0  0  0  0
   -3.1585   -0.4872    1.1539 H   0  0  0  0  0  0  0  0  0  0  0  0
   -1.8943    0.4150    2.0412 H   0  0  0  0  0  0  0  0  0  0  0  0
   -3.6145    0.7240    2.3369 H   0  0  0  0  0  0  0  0  0  0  0  0
    2.3789    1.2207    2.4119 H   0  0  0  0  0  0  0  0  0  0  0  0
    0.8629    1.4164    1.5849 H   0  0  0  0  0  0  0  0  0  0  0  0
    2.0457    1.5622   -0.6173 H   0  0  0  0  0  0  0  0  0  0  0  0
    2.5623    2.8083    0.5082 H   0  0  0  0  0  0  0  0  0  0  0  0
    4.0974    0.2348   -0.1499 H   0  0  0  0  0  0  0  0  0  0  0  0
    4.4404    1.8435   -0.7671 H   0  0  0  0  0  0  0  0  0  0  0  0
    5.9897    1.3529    1.0390 H   0  0  0  0  0  0  0  0  0  0  0  0
    4.6777    0.9663    2.1557 H   0  0  0  0  0  0  0  0  0  0  0  0
    4.8966    2.6347    1.5867 H   0  0  0  0  0  0  0  0  0  0  0  0
    1.7577   -5.1051    0.2788 H   0  0  0  0  0  0  0  0  0  0  0  0
    1.7744   -4.8707   -1.4851 H   0  0  0  0  0  0  0  0  0  0  0  0
    0.8361   -6.1970   -0.7638 H   0  0  0  0  0  0  0  0  0  0  0  0
  1  2  1  0
  2  3  2  0
  3  4  1  0
  4  5  1  0
  5  6  1  0
  6  7  2  0
  7  8  1  0
  8  9  2  0
  9 10  1  0
  9 11  1  0
 11 12  2  0
 12 13  1  0
  4 14  2  0
 14 15  1  0
 15 16  2  3
 16 17  1  0
 17 18  1  0
 18 19  1  0
 19 20  1  0
 15 21  1  0
 21 22  2  0
 22 23  1  0
 23 24  1  0
 23  1  1  0
 22  3  1  0
 12  6  1  0
  1 25  1  0
  2 26  1  0
  5 27  1  0
  7 28  1  0
  8 29  1  0
 11 30  1  0
 13 31  1  0
 13 32  1  0
 13 33  1  0
 17 34  1  0
 17 35  1  0
 18 36  1  0
 18 37  1  0
 19 38  1  0
 19 39  1  0
 20 40  1  0
 20 41  1  0
 20 42  1  0
 24 43  1  0
 24 44  1  0
 24 45  1  0
M  END
>  <ScrubInfo>  (7) 
{"isomerGroup": 0, "isomerId": 6, "confId": 0, "nr_conformers:": 1, "nr_isomers:": 9}

$$$$
_i7
     RDKit          3D

 45 47  0  0  0  0  0  0  0  0999 V2000
   -1.0672   -4.6374   -0.7879 N   0  0  0  0  0  0  0  0  0  0  0  0
   -1.7953   -3.4566   -0.8824 C   0  0  0  0  0  0  0  0  0  0  0  0
   -1.1240   -2.3940   -0.4232 C   0  0  0  0  0  0  0  0  0  0  0  0
   -1.3237   -0.9508   -0.2978 C   0  0  0  0  0  0  0  0  0  0  0  0
   -2.4519   -0.4247   -0.6748 N   0  0  0  0  0  0  0  0  0  0  0  0
   -2.6191    0.9628   -0.5557 C   0  0  0  0  0  0  0  0  0  0  0  0
   -2.2510    1.7844   -1.6284 C   0  0  0  0  0  0  0  0  0  0  0  0
   -2.3781    3.1711   -1.5406 C   0  0  0  0  0  0  0  0  0  0  0  0
   -2.8845    3.7399   -0.3759 C   0  0  0  0  0  0  0  0  0  0  0  0
   -3.0503    5.6183   -0.2459 Br  0  0  0  0  0  0  0  0  0  0  0  0
   -3.2731    2.9350    0.6952 C   0  0  0  0  0  0  0  0  0  0  0  0
   -3.1567    1.5382    0.6097 C   0  0  0  0  0  0  0  0  0  0  0  0
   -3.5805    0.6805    1.7690 C   0  0  0  0  0  0  0  0  0  0  0  0
   -0.2262   -0.3111    0.2261 N   0  0  0  0  0  0  0  0  0  0  0  0
    0.9603   -0.8950    0.6052 C   0  0  0  0  0  0  0  0  0  0  0  0
    1.9983   -0.2869    1.0555 N   0  0  0  0  0  0  0  0  0  0  0  0
    2.0184    1.1575    1.2408 C   0  0  0  0  0  0  0  0  0  0  0  0
    2.3739    1.8779   -0.0603 C   0  0  0  0  0  0  0  0  0  0  0  0
    3.7238    1.4830   -0.6673 C   0  0  0  0  0  0  0  0  0  0  0  0
    4.9105    1.8009    0.2289 C   0  0  0  0  0  0  0  0  0  0  0  0
    1.1373   -2.2630    0.5257 N   0  0  0  0  0  0  0  0  0  0  0  0
    0.1626   -2.9783    0.0613 C   0  0  0  0  0  0  0  0  0  0  0  0
    0.1085   -4.3665   -0.0904 N   0  0  0  0  0  0  0  0  0  0  0  0
    1.3045   -5.1282   -0.3953 C   0  0  0  0  0  0  0  0  0  0  0  0
   -1.6192   -5.4274   -0.4463 H   0  0  0  0  0  0  0  0  0  0  0  0
   -2.7938   -3.4736   -1.2962 H   0  0  0  0  0  0  0  0  0  0  0  0
   -1.8632    1.3350   -2.5396 H   0  0  0  0  0  0  0  0  0  0  0  0
   -2.0853    3.7918   -2.3832 H   0  0  0  0  0  0  0  0  0  0  0  0
   -3.6759    3.3918    1.5966 H   0  0  0  0  0  0  0  0  0  0  0  0
   -4.1519    1.2573    2.5040 H   0  0  0  0  0  0  0  0  0  0  0  0
   -4.2245   -0.1371    1.4289 H   0  0  0  0  0  0  0  0  0  0  0  0
   -2.7016    0.2659    2.2724 H   0  0  0  0  0  0  0  0  0  0  0  0
   -0.2861    0.6890    0.3088 H   0  0  0  0  0  0  0  0  0  0  0  0
    2.7560    1.3946    2.0152 H   0  0  0  0  0  0  0  0  0  0  0  0
    1.0654    1.5315    1.6330 H   0  0  0  0  0  0  0  0  0  0  0  0
    1.5953    1.6874   -0.8087 H   0  0  0  0  0  0  0  0  0  0  0  0
    2.3670    2.9590    0.1252 H   0  0  0  0  0  0  0  0  0  0  0  0
    3.7307    0.4159   -0.9167 H   0  0  0  0  0  0  0  0  0  0  0  0
    3.8474    2.0247   -1.6128 H   0  0  0  0  0  0  0  0  0  0  0  0
    5.8463    1.5944   -0.3004 H   0  0  0  0  0  0  0  0  0  0  0  0
    4.9120    2.8559    0.5202 H   0  0  0  0  0  0  0  0  0  0  0  0
    4.9028    1.1900    1.1363 H   0  0  0  0  0  0  0  0  0  0  0  0
    1.6939   -4.8618   -1.3835 H   0  0  0  0  0  0  0  0  0  0  0  0
    2.0828   -4.9400    0.3511 H   0  0  0  0  0  0  0  0  0  0  0  0
    1.0853   -6.2008   -0.3855 H   0  0  0  0  0  0  0  0  0  0  0  0
  1  2  1  0
  2  3  2  0
  3  4  1  0
  4  5  2  3
  5  6  1  0
  6  7  2  0
  7  8  1  0
  8  9  2  0
  9 10  1  0
  9 11  1  0
 11 12  2  0
 12 13  1  0
  4 14  1  0
 14 15  1  0
 15 16  2  3
 16 17  1  0
 17 18  1  0
 18 19  1  0
 19 20  1  0
 15 21  1  0
 21 22  2  0
 22 23  1  0
 23 24  1  0
 23  1  1  0
 22  3  1  0
 12  6  1  0
  1 25  1  0
  2 26  1  0
  7 27  1  0
  8 28  1  0
 11 29  1  0
 13 30  1  0
 13 31  1  0
 13 32  1  0
 14 33  1  0
 17 34  1  0
 17 35  1  0
 18 36  1  0
 18 37  1  0
 19 38  1  0
 19 39  1  0
 20 40  1  0
 20 41  1  0
 20 42  1  0
 24 43  1  0
 24 44  1  0
 24 45  1  0
M  END
>  <ScrubInfo>  (8) 
{"isomerGroup": 0, "isomerId": 7, "confId": 0, "nr_conformers:": 1, "nr_isomers:": 9}

$$$$
_i8
     RDKit          3D

 45 47  0  0  0  0  0  0  0  0999 V2000
    1.0294   -1.0010   -0.1583 N   0  0  0  0  0  0  0  0  0  0  0  0
    1.2318    0.3632   -0.0314 C   0  0  0  0  0  0  0  0  0  0  0  0
    2.3495    0.9865    0.1321 N   0  0  0  0  0  0  0  0  0  0  0  0
    3.5798    0.2045    0.1973 C   0  0  0  0  0  0  0  0  0  0  0  0
    4.7490    1.1689    0.3908 C   0  0  0  0  0  0  0  0  0  0  0  0
    6.0804    0.4237    0.4692 C   0  0  0  0  0  0  0  0  0  0  0  0
    7.2448    1.3822    0.6617 C   0  0  0  0  0  0  0  0  0  0  0  0
    0.0671    1.0956   -0.0941 N   0  0  0  0  0  0  0  0  0  0  0  0
   -1.2485    0.7196   -0.2572 C   0  0  0  0  0  0  0  0  0  0  0  0
   -2.2003    1.6035   -0.2872 N   0  0  0  0  0  0  0  0  0  0  0  0
   -3.5429    1.2547   -0.4559 C   0  0  0  0  0  0  0  0  0  0  0  0
   -4.0712    1.1938   -1.7520 C   0  0  0  0  0  0  0  0  0  0  0  0
   -5.4137    0.8753   -1.9610 C   0  0  0  0  0  0  0  0  0  0  0  0
   -6.2379    0.6306   -0.8668 C   0  0  0  0  0  0  0  0  0  0  0  0
   -8.0560    0.1924   -1.1425 Br  0  0  0  0  0  0  0  0  0  0  0  0
   -5.7350    0.7119    0.4319 C   0  0  0  0  0  0  0  0  0  0  0  0
   -4.3869    1.0404    0.6496 C   0  0  0  0  0  0  0  0  0  0  0  0
   -3.8579    1.1350    2.0531 C   0  0  0  0  0  0  0  0  0  0  0  0
   -1.3608   -0.7249   -0.3763 C   0  0  0  0  0  0  0  0  0  0  0  0
   -2.3885   -1.6724   -0.5392 C   0  0  0  0  0  0  0  0  0  0  0  0
   -1.9331   -2.9333   -0.5858 N   0  0  0  0  0  0  0  0  0  0  0  0
   -0.5957   -2.7979   -0.4591 N   0  0  0  0  0  0  0  0  0  0  0  0
    0.2345   -3.9760   -0.4624 C   0  0  0  0  0  0  0  0  0  0  0  0
   -0.2190   -1.4968   -0.3229 C   0  0  0  0  0  0  0  0  0  0  0  0
    1.8479   -1.5922   -0.1159 H   0  0  0  0  0  0  0  0  0  0  0  0
    3.5437   -0.4977    1.0387 H   0  0  0  0  0  0  0  0  0  0  0  0
    3.7242   -0.3616   -0.7306 H   0  0  0  0  0  0  0  0  0  0  0  0
    4.7733    1.8871   -0.4385 H   0  0  0  0  0  0  0  0  0  0  0  0
    4.5953    1.7527    1.3071 H   0  0  0  0  0  0  0  0  0  0  0  0
    6.0599   -0.2889    1.3019 H   0  0  0  0  0  0  0  0  0  0  0  0
    6.2384   -0.1542   -0.4488 H   0  0  0  0  0  0  0  0  0  0  0  0
    7.1336    1.9534    1.5889 H   0  0  0  0  0  0  0  0  0  0  0  0
    7.3131    2.0889   -0.1715 H   0  0  0  0  0  0  0  0  0  0  0  0
    8.1870    0.8279    0.7151 H   0  0  0  0  0  0  0  0  0  0  0  0
    0.2056    2.0919   -0.0039 H   0  0  0  0  0  0  0  0  0  0  0  0
   -3.4267    1.3967   -2.6036 H   0  0  0  0  0  0  0  0  0  0  0  0
   -5.8021    0.8255   -2.9745 H   0  0  0  0  0  0  0  0  0  0  0  0
   -6.3920    0.5276    1.2789 H   0  0  0  0  0  0  0  0  0  0  0  0
   -3.3248    2.0798    2.2006 H   0  0  0  0  0  0  0  0  0  0  0  0
   -3.1816    0.2996    2.2593 H   0  0  0  0  0  0  0  0  0  0  0  0
   -4.6687    1.1024    2.7886 H   0  0  0  0  0  0  0  0  0  0  0  0
   -3.4555   -1.5199   -0.6245 H   0  0  0  0  0  0  0  0  0  0  0  0
   -0.2243   -4.7351   -1.1016 H   0  0  0  0  0  0  0  0  0  0  0  0
    1.2226   -3.7235   -0.8538 H   0  0  0  0  0  0  0  0  0  0  0  0
    0.3120   -4.3399    0.5648 H   0  0  0  0  0  0  0  0  0  0  0  0
  1  2  1  0
  2  3  2  3
  3  4  1  0
  4  5  1  0
  5  6  1  0
  6  7  1  0
  2  8  1  0
  8  9  1  0
  9 10  2  3
 10 11  1  0
 11 12  2  0
 12 13  1  0
 13 14  2  0
 14 15  1  0
 14 16  1  0
 16 17  2  0
 17 18  1  0
  9 19  1  0
 19 20  1  0
 20 21  2  0
 21 22  1  0
 22 23  1  0
 22 24  1  0
 24  1  1  0
 17 11  1  0
 24 19  2  0
  1 25  1  0
  4 26  1  0
  4 27  1  0
  5 28  1  0
  5 29  1  0
  6 30  1  0
  6 31  1  0
  7 32  1  0
  7 33  1  0
  7 34  1  0
  8 35  1  0
 12 36  1  0
 13 37  1  0
 16 38  1  0
 18 39  1  0
 18 40  1  0
 18 41  1  0
 20 42  1  0
 23 43  1  0
 23 44  1  0
 23 45  1  0
M  END
>  <ScrubInfo>  (9) 
{"isomerGroup": 0, "isomerId": 8, "confId": 0, "nr_conformers:": 1, "nr_isomers:": 9}

$$$$
