REMARK SMILES COCCNc1nc(Nc2ccc(C)cc2O)c2cnn(C)c2n1
REMARK SMILES IDX 6 1 7 2 8 3 18 4 19 5 20 6 21 7 22 8 23 9 24 10 5 11 4 13
REMARK SMILES IDX 3 14 2 15 1 16 9 17 10 19 11 20 16 21 12 22 15 23 13 24
REMARK SMILES IDX 14 25 17 26
REMARK H PARENT 5 12 9 18 17 27
ROOT
ATOM      1  C   UNL     1       1.214   0.469   0.505  1.00  0.00     0.226 A 
ATOM      2  N   UNL     1      -0.060   0.215   0.143  1.00  0.00    -0.195 NA
ATOM      3  C   UNL     1      -0.790   1.139  -0.537  1.00  0.00     0.147 A 
ATOM      4  C   UNL     1      -0.158   2.355  -0.825  1.00  0.00     0.082 A 
ATOM      5  C   UNL     1      -0.458   3.575  -1.467  1.00  0.00     0.149 A 
ATOM      6  N   UNL     1       0.566   4.436  -1.457  1.00  0.00    -0.179 NA
ATOM      7  N   UNL     1       1.533   3.758  -0.797  1.00  0.00    -0.250 N 
ATOM      8  C   UNL     1       2.814   4.381  -0.579  1.00  0.00     0.176 C 
ATOM      9  C   UNL     1       1.149   2.505  -0.402  1.00  0.00     0.165 A 
ATOM     10  N   UNL     1       1.883   1.601   0.260  1.00  0.00    -0.193 NA
ENDROOT
BRANCH   1  11
ATOM     11  N   UNL     1       1.827  -0.567   1.199  1.00  0.00    -0.352 N 
ATOM     12  H   UNL     1       1.271  -1.398   1.018  1.00  0.00     0.163 HD
BRANCH  11  13
ATOM     13  C   UNL     1       3.252  -0.713   0.937  1.00  0.00     0.144 C 
BRANCH  13  14
ATOM     14  C   UNL     1       3.815  -1.912   1.713  1.00  0.00     0.181 C 
BRANCH  14  15
ATOM     15  O   UNL     1       5.185  -2.165   1.393  1.00  0.00    -0.383 OA
ATOM     16  C   UNL     1       6.085  -1.319   2.096  1.00  0.00     0.194 C 
ENDBRANCH  14  15
ENDBRANCH  13  14
ENDBRANCH  11  13
ENDBRANCH   1  11
BRANCH   3  17
ATOM     17  N   UNL     1      -2.108   0.881  -0.937  1.00  0.00    -0.336 N 
ATOM     18  H   UNL     1      -2.505   1.653  -1.457  1.00  0.00     0.168 HD
BRANCH  17  19
ATOM     19  C   UNL     1      -3.002  -0.206  -0.827  1.00  0.00     0.082 A 
ATOM     20  C   UNL     1      -4.205  -0.106  -1.559  1.00  0.00     0.030 A 
ATOM     21  C   UNL     1      -2.822  -1.383  -0.085  1.00  0.00     0.139 A 
ATOM     22  C   UNL     1      -5.171  -1.120  -1.551  1.00  0.00     0.006 A 
ATOM     23  C   UNL     1      -3.785  -2.400  -0.073  1.00  0.00     0.051 A 
ATOM     24  C   UNL     1      -4.961  -2.285  -0.816  1.00  0.00    -0.047 A 
ATOM     25  C   UNL     1      -6.001  -3.363  -0.771  1.00  0.00     0.044 C 
BRANCH  21  26
ATOM     26  O   UNL     1      -1.732  -1.637   0.697  1.00  0.00    -0.506 OA
ATOM     27  H   UNL     1      -1.130  -0.875   0.581  1.00  0.00     0.293 HD
ENDBRANCH  21  26
ENDBRANCH  17  19
ENDBRANCH   3  17
TORSDOF 7
