_i0
     RDKit          3D

 44 46  0  0  0  0  0  0  0  0999 V2000
    6.0851   -1.3186    2.0961 C   0  0  0  0  0  0  0  0  0  0  0  0
    5.1853   -2.1652    1.3928 O   0  0  0  0  0  0  0  0  0  0  0  0
    3.8152   -1.9116    1.7126 C   0  0  0  0  0  0  0  0  0  0  0  0
    3.2516   -0.7131    0.9370 C   0  0  0  0  0  0  0  0  0  0  0  0
    1.8270   -0.5666    1.1993 N   0  0  0  0  0  0  0  0  0  0  0  0
    1.2140    0.4692    0.5054 C   0  0  0  0  0  0  0  0  0  0  0  0
   -0.0601    0.2155    0.1427 N   0  0  0  0  0  0  0  0  0  0  0  0
   -0.7901    1.1388   -0.5370 C   0  0  0  0  0  0  0  0  0  0  0  0
   -2.1080    0.8811   -0.9370 N   0  0  0  0  0  0  0  0  0  0  0  0
   -3.0020   -0.2061   -0.8268 C   0  0  0  0  0  0  0  0  0  0  0  0
   -4.2048   -0.1057   -1.5587 C   0  0  0  0  0  0  0  0  0  0  0  0
   -5.1708   -1.1197   -1.5514 C   0  0  0  0  0  0  0  0  0  0  0  0
   -4.9613   -2.2846   -0.8162 C   0  0  0  0  0  0  0  0  0  0  0  0
   -6.0007   -3.3632   -0.7710 C   0  0  0  0  0  0  0  0  0  0  0  0
   -3.7848   -2.4004   -0.0735 C   0  0  0  0  0  0  0  0  0  0  0  0
   -2.8220   -1.3829   -0.0853 C   0  0  0  0  0  0  0  0  0  0  0  0
   -1.7315   -1.6375    0.6969 O   0  0  0  0  0  0  0  0  0  0  0  0
   -0.1577    2.3551   -0.8251 C   0  0  0  0  0  0  0  0  0  0  0  0
   -0.4582    3.5753   -1.4668 C   0  0  0  0  0  0  0  0  0  0  0  0
    0.5655    4.4357   -1.4571 N   0  0  0  0  0  0  0  0  0  0  0  0
    1.5331    3.7577   -0.7966 N   0  0  0  0  0  0  0  0  0  0  0  0
    2.8145    4.3807   -0.5794 C   0  0  0  0  0  0  0  0  0  0  0  0
    1.1485    2.5053   -0.4022 C   0  0  0  0  0  0  0  0  0  0  0  0
    1.8829    1.6010    0.2599 N   0  0  0  0  0  0  0  0  0  0  0  0
    7.1051   -1.6102    1.8313 H   0  0  0  0  0  0  0  0  0  0  0  0
    5.9427   -0.2727    1.8118 H   0  0  0  0  0  0  0  0  0  0  0  0
    5.9607   -1.4374    3.1767 H   0  0  0  0  0  0  0  0  0  0  0  0
    3.2568   -2.8128    1.4340 H   0  0  0  0  0  0  0  0  0  0  0  0
    3.6882   -1.7843    2.7948 H   0  0  0  0  0  0  0  0  0  0  0  0
    3.4382   -0.8613   -0.1346 H   0  0  0  0  0  0  0  0  0  0  0  0
    3.7945    0.1910    1.2362 H   0  0  0  0  0  0  0  0  0  0  0  0
    1.2708   -1.3979    1.0180 H   0  0  0  0  0  0  0  0  0  0  0  0
   -2.5045    1.6534   -1.4569 H   0  0  0  0  0  0  0  0  0  0  0  0
   -4.4103    0.7789   -2.1576 H   0  0  0  0  0  0  0  0  0  0  0  0
   -6.0842   -0.9895   -2.1274 H   0  0  0  0  0  0  0  0  0  0  0  0
   -5.5373   -4.3467   -0.6395 H   0  0  0  0  0  0  0  0  0  0  0  0
   -6.5711   -3.3959   -1.7053 H   0  0  0  0  0  0  0  0  0  0  0  0
   -6.6914   -3.1833    0.0585 H   0  0  0  0  0  0  0  0  0  0  0  0
   -3.6016   -3.2878    0.5284 H   0  0  0  0  0  0  0  0  0  0  0  0
   -1.1297   -0.8746    0.5809 H   0  0  0  0  0  0  0  0  0  0  0  0
   -1.3811    3.8783   -1.9434 H   0  0  0  0  0  0  0  0  0  0  0  0
    3.4735    3.7023   -0.0330 H   0  0  0  0  0  0  0  0  0  0  0  0
    3.2510    4.6169   -1.5532 H   0  0  0  0  0  0  0  0  0  0  0  0
    2.6588    5.2934    0.0013 H   0  0  0  0  0  0  0  0  0  0  0  0
  1  2  1  0
  2  3  1  0
  3  4  1  0
  4  5  1  0
  5  6  1  0
  6  7  2  0
  7  8  1  0
  8  9  1  0
  9 10  1  0
 10 11  2  0
 11 12  1  0
 12 13  2  0
 13 14  1  0
 13 15  1  0
 15 16  2  0
 16 17  1  0
  8 18  2  0
 18 19  1  0
 19 20  2  0
 20 21  1  0
 21 22  1  0
 21 23  1  0
 23 24  2  0
 24  6  1  0
 16 10  1  0
 23 18  1  0
  1 25  1  0
  1 26  1  0
  1 27  1  0
  3 28  1  0
  3 29  1  0
  4 30  1  0
  4 31  1  0
  5 32  1  0
  9 33  1  0
 11 34  1  0
 12 35  1  0
 14 36  1  0
 14 37  1  0
 14 38  1  0
 15 39  1  0
 17 40  1  0
 19 41  1  0
 22 42  1  0
 22 43  1  0
 22 44  1  0
M  END
>  <ScrubInfo>  (1) 
{"isomerGroup": 0, "isomerId": 0, "confId": 0, "nr_conformers:": 1, "nr_isomers:": 9}

$$$$
_i1
     RDKit          3D

 44 46  0  0  0  0  0  0  0  0999 V2000
    0.1473   -0.3019   -0.2387 N   0  0  0  0  0  0  0  0  0  0  0  0
    0.9576   -0.2191   -1.3558 C   0  0  0  0  0  0  0  0  0  0  0  0
    2.3504   -0.2316   -1.3063 N   0  0  0  0  0  0  0  0  0  0  0  0
    3.1280   -0.0073   -0.1449 C   0  0  0  0  0  0  0  0  0  0  0  0
    3.9558    1.1195   -0.0739 C   0  0  0  0  0  0  0  0  0  0  0  0
    4.6825    1.4012    1.0889 C   0  0  0  0  0  0  0  0  0  0  0  0
    4.5818    0.5710    2.2118 C   0  0  0  0  0  0  0  0  0  0  0  0
    5.3824    0.8586    3.4472 C   0  0  0  0  0  0  0  0  0  0  0  0
    3.7666   -0.5629    2.1456 C   0  0  0  0  0  0  0  0  0  0  0  0
    3.0537   -0.8383    0.9820 C   0  0  0  0  0  0  0  0  0  0  0  0
    2.2911   -1.9745    0.9668 O   0  0  0  0  0  0  0  0  0  0  0  0
    0.2945   -0.1347   -2.5173 C   0  0  0  0  0  0  0  0  0  0  0  0
    0.6107   -0.0710   -3.9491 C   0  0  0  0  0  0  0  0  0  0  0  0
   -0.4526   -0.0220   -4.7099 N   0  0  0  0  0  0  0  0  0  0  0  0
   -1.5433   -0.0036   -3.8256 N   0  0  0  0  0  0  0  0  0  0  0  0
   -2.8652   -0.2696   -4.3410 C   0  0  0  0  0  0  0  0  0  0  0  0
   -1.1857   -0.1225   -2.4922 C   0  0  0  0  0  0  0  0  0  0  0  0
   -1.9197   -0.2148   -1.4366 N   0  0  0  0  0  0  0  0  0  0  0  0
   -1.2237   -0.3104   -0.2520 C   0  0  0  0  0  0  0  0  0  0  0  0
   -1.8566   -0.4080    0.8700 N   0  0  0  0  0  0  0  0  0  0  0  0
   -3.3211   -0.4195    0.8075 C   0  0  0  0  0  0  0  0  0  0  0  0
   -3.8784   -0.5796    2.2248 C   0  0  0  0  0  0  0  0  0  0  0  0
   -5.3045   -0.6922    2.2412 O   0  0  0  0  0  0  0  0  0  0  0  0
   -5.9616    0.5578    2.0861 C   0  0  0  0  0  0  0  0  0  0  0  0
    0.5829   -0.3715    0.6723 H   0  0  0  0  0  0  0  0  0  0  0  0
    2.7812    0.1840   -2.1289 H   0  0  0  0  0  0  0  0  0  0  0  0
    4.0354    1.8025   -0.9155 H   0  0  0  0  0  0  0  0  0  0  0  0
    5.3216    2.2817    1.1159 H   0  0  0  0  0  0  0  0  0  0  0  0
    4.8625    0.5002    4.3419 H   0  0  0  0  0  0  0  0  0  0  0  0
    5.5360    1.9358    3.5710 H   0  0  0  0  0  0  0  0  0  0  0  0
    6.3580    0.3669    3.3837 H   0  0  0  0  0  0  0  0  0  0  0  0
    3.6862   -1.2394    2.9928 H   0  0  0  0  0  0  0  0  0  0  0  0
    2.0273   -2.1107    0.0375 H   0  0  0  0  0  0  0  0  0  0  0  0
    1.6490   -0.0883   -4.3036 H   0  0  0  0  0  0  0  0  0  0  0  0
   -3.6319    0.1658   -3.6923 H   0  0  0  0  0  0  0  0  0  0  0  0
   -2.9866    0.1646   -5.3387 H   0  0  0  0  0  0  0  0  0  0  0  0
   -3.0373   -1.3482   -4.4091 H   0  0  0  0  0  0  0  0  0  0  0  0
   -3.6927    0.5140    0.3700 H   0  0  0  0  0  0  0  0  0  0  0  0
   -3.6876   -1.2491    0.1901 H   0  0  0  0  0  0  0  0  0  0  0  0
   -3.5525    0.2398    2.8772 H   0  0  0  0  0  0  0  0  0  0  0  0
   -3.4841   -1.5043    2.6615 H   0  0  0  0  0  0  0  0  0  0  0  0
   -5.6449    1.2609    2.8624 H   0  0  0  0  0  0  0  0  0  0  0  0
   -5.7749    0.9788    1.0948 H   0  0  0  0  0  0  0  0  0  0  0  0
   -7.0376    0.3919    2.1887 H   0  0  0  0  0  0  0  0  0  0  0  0
  1  2  1  0
  2  3  1  0
  3  4  1  0
  4  5  2  0
  5  6  1  0
  6  7  2  0
  7  8  1  0
  7  9  1  0
  9 10  2  0
 10 11  1  0
  2 12  2  0
 12 13  1  0
 13 14  2  0
 14 15  1  0
 15 16  1  0
 15 17  1  0
 17 18  2  0
 18 19  1  0
 19 20  2  3
 20 21  1  0
 21 22  1  0
 22 23  1  0
 23 24  1  0
 19  1  1  0
 10  4  1  0
 17 12  1  0
  1 25  1  0
  3 26  1  0
  5 27  1  0
  6 28  1  0
  8 29  1  0
  8 30  1  0
  8 31  1  0
  9 32  1  0
 11 33  1  0
 13 34  1  0
 16 35  1  0
 16 36  1  0
 16 37  1  0
 21 38  1  0
 21 39  1  0
 22 40  1  0
 22 41  1  0
 24 42  1  0
 24 43  1  0
 24 44  1  0
M  END
>  <ScrubInfo>  (2) 
{"isomerGroup": 0, "isomerId": 1, "confId": 0, "nr_conformers:": 1, "nr_isomers:": 9}

$$$$
_i2
     RDKit          3D

 44 46  0  0  0  0  0  0  0  0999 V2000
    0.8710    0.5810    1.1662 N   0  0  0  0  0  0  0  0  0  0  0  0
    1.9583    0.4262    0.3394 C   0  0  0  0  0  0  0  0  0  0  0  0
    3.1497    0.6027    0.9935 N   0  0  0  0  0  0  0  0  0  0  0  0
    4.4214    0.5752    0.2725 C   0  0  0  0  0  0  0  0  0  0  0  0
    4.7987   -0.8363   -0.1946 C   0  0  0  0  0  0  0  0  0  0  0  0
    6.1641   -0.8884   -0.6248 O   0  0  0  0  0  0  0  0  0  0  0  0
    7.0621   -1.2001    0.4323 C   0  0  0  0  0  0  0  0  0  0  0  0
    1.8643    0.1295   -0.9291 N   0  0  0  0  0  0  0  0  0  0  0  0
    0.5678    0.0063   -1.3287 C   0  0  0  0  0  0  0  0  0  0  0  0
   -0.5863    0.1477   -0.5732 C   0  0  0  0  0  0  0  0  0  0  0  0
   -1.6284   -0.1110   -1.4814 C   0  0  0  0  0  0  0  0  0  0  0  0
   -1.1856   -0.3713   -2.7183 N   0  0  0  0  0  0  0  0  0  0  0  0
    0.1588   -0.3000   -2.5960 N   0  0  0  0  0  0  0  0  0  0  0  0
    0.9872   -0.5476   -3.7491 C   0  0  0  0  0  0  0  0  0  0  0  0
   -0.4603    0.4684    0.8346 C   0  0  0  0  0  0  0  0  0  0  0  0
   -1.3939    0.6295    1.7246 N   0  0  0  0  0  0  0  0  0  0  0  0
   -2.7531    0.5724    1.3858 C   0  0  0  0  0  0  0  0  0  0  0  0
   -3.4172    1.6932    0.8852 C   0  0  0  0  0  0  0  0  0  0  0  0
   -4.7780    1.6226    0.5690 C   0  0  0  0  0  0  0  0  0  0  0  0
   -5.4935    0.4308    0.7570 C   0  0  0  0  0  0  0  0  0  0  0  0
   -6.9594    0.3675    0.4443 C   0  0  0  0  0  0  0  0  0  0  0  0
   -4.8390   -0.6803    1.3022 C   0  0  0  0  0  0  0  0  0  0  0  0
   -3.4873   -0.5969    1.6161 C   0  0  0  0  0  0  0  0  0  0  0  0
   -2.8761   -1.6897    2.1692 O   0  0  0  0  0  0  0  0  0  0  0  0
    1.0424    0.7163    2.1485 H   0  0  0  0  0  0  0  0  0  0  0  0
    3.1287    1.3435    1.6848 H   0  0  0  0  0  0  0  0  0  0  0  0
    5.1976    0.9571    0.9447 H   0  0  0  0  0  0  0  0  0  0  0  0
    4.4034    1.2674   -0.5781 H   0  0  0  0  0  0  0  0  0  0  0  0
    4.6124   -1.5835    0.5867 H   0  0  0  0  0  0  0  0  0  0  0  0
    4.1871   -1.1186   -1.0572 H   0  0  0  0  0  0  0  0  0  0  0  0
    6.8504   -2.1974    0.8297 H   0  0  0  0  0  0  0  0  0  0  0  0
    7.0021   -0.4564    1.2316 H   0  0  0  0  0  0  0  0  0  0  0  0
    8.0788   -1.1965    0.0301 H   0  0  0  0  0  0  0  0  0  0  0  0
   -2.6968   -0.1285   -1.3160 H   0  0  0  0  0  0  0  0  0  0  0  0
    0.7995   -1.5677   -4.0939 H   0  0  0  0  0  0  0  0  0  0  0  0
    2.0415   -0.4337   -3.4877 H   0  0  0  0  0  0  0  0  0  0  0  0
    0.7196    0.1733   -4.5258 H   0  0  0  0  0  0  0  0  0  0  0  0
   -2.8758    2.6231    0.7366 H   0  0  0  0  0  0  0  0  0  0  0  0
   -5.2775    2.5054    0.1751 H   0  0  0  0  0  0  0  0  0  0  0  0
   -7.5423    0.6637    1.3218 H   0  0  0  0  0  0  0  0  0  0  0  0
   -7.2524   -0.6456    0.1496 H   0  0  0  0  0  0  0  0  0  0  0  0
   -7.2097    1.0329   -0.3886 H   0  0  0  0  0  0  0  0  0  0  0  0
   -5.3747   -1.6068    1.4904 H   0  0  0  0  0  0  0  0  0  0  0  0
   -1.9796   -1.3792    2.4006 H   0  0  0  0  0  0  0  0  0  0  0  0
  1  2  1  0
  2  3  1  0
  3  4  1  0
  4  5  1  0
  5  6  1  0
  6  7  1  0
  2  8  2  0
  8  9  1  0
  9 10  2  0
 10 11  1  0
 11 12  2  0
 12 13  1  0
 13 14  1  0
 10 15  1  0
 15 16  2  3
 16 17  1  0
 17 18  2  0
 18 19  1  0
 19 20  2  0
 20 21  1  0
 20 22  1  0
 22 23  2  0
 23 24  1  0
 15  1  1  0
 23 17  1  0
 13  9  1  0
  1 25  1  0
  3 26  1  0
  4 27  1  0
  4 28  1  0
  5 29  1  0
  5 30  1  0
  7 31  1  0
  7 32  1  0
  7 33  1  0
 11 34  1  0
 14 35  1  0
 14 36  1  0
 14 37  1  0
 18 38  1  0
 19 39  1  0
 21 40  1  0
 21 41  1  0
 21 42  1  0
 22 43  1  0
 24 44  1  0
M  END
>  <ScrubInfo>  (3) 
{"isomerGroup": 0, "isomerId": 2, "confId": 0, "nr_conformers:": 1, "nr_isomers:": 9}

$$$$
_i3
     RDKit          3D

 44 46  0  0  0  0  0  0  0  0999 V2000
    2.0040    2.0058   -0.3917 N   0  0  0  0  0  0  0  0  0  0  0  0
    2.2244    0.7283    0.0764 C   0  0  0  0  0  0  0  0  0  0  0  0
    3.4088    0.2263   -0.0589 N   0  0  0  0  0  0  0  0  0  0  0  0
    3.6166   -1.1309    0.4550 C   0  0  0  0  0  0  0  0  0  0  0  0
    5.0803   -1.5264    0.2408 C   0  0  0  0  0  0  0  0  0  0  0  0
    5.3862   -2.8044    0.8049 O   0  0  0  0  0  0  0  0  0  0  0  0
    4.9522   -3.8877   -0.0055 C   0  0  0  0  0  0  0  0  0  0  0  0
    1.2169   -0.0142    0.6768 N   0  0  0  0  0  0  0  0  0  0  0  0
    0.0281    0.5099    0.7935 C   0  0  0  0  0  0  0  0  0  0  0  0
   -1.0155   -0.1511    1.3952 N   0  0  0  0  0  0  0  0  0  0  0  0
   -2.2359   -0.4329    0.7168 C   0  0  0  0  0  0  0  0  0  0  0  0
   -2.3090   -0.6222   -0.6671 C   0  0  0  0  0  0  0  0  0  0  0  0
   -3.5180   -0.9906   -1.2684 C   0  0  0  0  0  0  0  0  0  0  0  0
   -4.6697   -1.1914   -0.4961 C   0  0  0  0  0  0  0  0  0  0  0  0
   -5.9535   -1.6213   -1.1421 C   0  0  0  0  0  0  0  0  0  0  0  0
   -4.5907   -1.0470    0.8928 C   0  0  0  0  0  0  0  0  0  0  0  0
   -3.3869   -0.6732    1.4805 C   0  0  0  0  0  0  0  0  0  0  0  0
   -3.3569   -0.5253    2.8412 O   0  0  0  0  0  0  0  0  0  0  0  0
   -0.2391    1.8563    0.3401 C   0  0  0  0  0  0  0  0  0  0  0  0
   -1.3140    2.7580    0.3241 C   0  0  0  0  0  0  0  0  0  0  0  0
   -0.9857    3.9316   -0.2401 N   0  0  0  0  0  0  0  0  0  0  0  0
    0.3175    3.7763   -0.5814 N   0  0  0  0  0  0  0  0  0  0  0  0
    1.0120    4.8666   -1.2173 C   0  0  0  0  0  0  0  0  0  0  0  0
    0.7863    2.5478   -0.2434 C   0  0  0  0  0  0  0  0  0  0  0  0
    2.8149    2.4581   -0.7924 H   0  0  0  0  0  0  0  0  0  0  0  0
    2.9645   -1.8413   -0.0656 H   0  0  0  0  0  0  0  0  0  0  0  0
    3.3902   -1.1903    1.5270 H   0  0  0  0  0  0  0  0  0  0  0  0
    5.3495   -1.5025   -0.8223 H   0  0  0  0  0  0  0  0  0  0  0  0
    5.7249   -0.7969    0.7445 H   0  0  0  0  0  0  0  0  0  0  0  0
    5.2869   -4.8181    0.4616 H   0  0  0  0  0  0  0  0  0  0  0  0
    5.3937   -3.8244   -1.0047 H   0  0  0  0  0  0  0  0  0  0  0  0
    3.8616   -3.9138   -0.0745 H   0  0  0  0  0  0  0  0  0  0  0  0
   -0.6611   -1.0509    1.7242 H   0  0  0  0  0  0  0  0  0  0  0  0
   -1.4316   -0.4990   -1.2975 H   0  0  0  0  0  0  0  0  0  0  0  0
   -3.5524   -1.1286   -2.3475 H   0  0  0  0  0  0  0  0  0  0  0  0
   -5.9986   -2.7134   -1.1946 H   0  0  0  0  0  0  0  0  0  0  0  0
   -6.0360   -1.2140   -2.1552 H   0  0  0  0  0  0  0  0  0  0  0  0
   -6.8170   -1.2579   -0.5750 H   0  0  0  0  0  0  0  0  0  0  0  0
   -5.4610   -1.2197    1.5206 H   0  0  0  0  0  0  0  0  0  0  0  0
   -2.5021   -0.1064    3.0514 H   0  0  0  0  0  0  0  0  0  0  0  0
   -2.3223    2.6216    0.6939 H   0  0  0  0  0  0  0  0  0  0  0  0
    2.0346    4.5678   -1.4567 H   0  0  0  0  0  0  0  0  0  0  0  0
    0.4787    5.1268   -2.1351 H   0  0  0  0  0  0  0  0  0  0  0  0
    1.0244    5.7148   -0.5283 H   0  0  0  0  0  0  0  0  0  0  0  0
  1  2  1  0
  2  3  2  3
  3  4  1  0
  4  5  1  0
  5  6  1  0
  6  7  1  0
  2  8  1  0
  8  9  2  0
  9 10  1  0
 10 11  1  0
 11 12  2  0
 12 13  1  0
 13 14  2  0
 14 15  1  0
 14 16  1  0
 16 17  2  0
 17 18  1  0
  9 19  1  0
 19 20  1  0
 20 21  2  0
 21 22  1  0
 22 23  1  0
 22 24  1  0
 24  1  1  0
 17 11  1  0
 24 19  2  0
  1 25  1  0
  4 26  1  0
  4 27  1  0
  5 28  1  0
  5 29  1  0
  7 30  1  0
  7 31  1  0
  7 32  1  0
 10 33  1  0
 12 34  1  0
 13 35  1  0
 15 36  1  0
 15 37  1  0
 15 38  1  0
 16 39  1  0
 18 40  1  0
 20 41  1  0
 23 42  1  0
 23 43  1  0
 23 44  1  0
M  END
>  <ScrubInfo>  (4) 
{"isomerGroup": 0, "isomerId": 3, "confId": 0, "nr_conformers:": 1, "nr_isomers:": 9}

$$$$
_i4
     RDKit          3D

 44 46  0  0  0  0  0  0  0  0999 V2000
   -1.0955    2.9778   -0.2211 N   0  0  0  0  0  0  0  0  0  0  0  0
   -1.3586    1.6142   -0.3100 C   0  0  0  0  0  0  0  0  0  0  0  0
   -0.2658    0.8707   -0.5415 C   0  0  0  0  0  0  0  0  0  0  0  0
    0.1057   -0.5285   -0.7086 C   0  0  0  0  0  0  0  0  0  0  0  0
   -0.6174   -1.6005   -0.7188 N   0  0  0  0  0  0  0  0  0  0  0  0
   -2.0024   -1.5239   -0.5276 C   0  0  0  0  0  0  0  0  0  0  0  0
   -2.5592   -1.5482    0.7507 C   0  0  0  0  0  0  0  0  0  0  0  0
   -3.9462   -1.4689    0.9139 C   0  0  0  0  0  0  0  0  0  0  0  0
   -4.7934   -1.3906   -0.2023 C   0  0  0  0  0  0  0  0  0  0  0  0
   -6.2782   -1.2754   -0.0220 C   0  0  0  0  0  0  0  0  0  0  0  0
   -4.2347   -1.3813   -1.4865 C   0  0  0  0  0  0  0  0  0  0  0  0
   -2.8556   -1.4665   -1.6350 C   0  0  0  0  0  0  0  0  0  0  0  0
   -2.3270   -1.4967   -2.8977 O   0  0  0  0  0  0  0  0  0  0  0  0
    1.4456   -0.7278   -0.8937 N   0  0  0  0  0  0  0  0  0  0  0  0
    2.3150    0.2344   -0.9328 C   0  0  0  0  0  0  0  0  0  0  0  0
    3.6462   -0.0244   -1.1030 N   0  0  0  0  0  0  0  0  0  0  0  0
    4.2598   -1.2498   -0.6099 C   0  0  0  0  0  0  0  0  0  0  0  0
    4.8228   -1.0660    0.8056 C   0  0  0  0  0  0  0  0  0  0  0  0
    3.7688   -0.8459    1.7444 O   0  0  0  0  0  0  0  0  0  0  0  0
    4.2620   -0.6814    3.0656 C   0  0  0  0  0  0  0  0  0  0  0  0
    2.0242    1.5693   -0.8378 N   0  0  0  0  0  0  0  0  0  0  0  0
    0.7905    1.8929   -0.6645 C   0  0  0  0  0  0  0  0  0  0  0  0
    0.2366    3.1698   -0.5578 N   0  0  0  0  0  0  0  0  0  0  0  0
    0.9723    4.2534    0.0636 C   0  0  0  0  0  0  0  0  0  0  0  0
   -1.7736    3.5484   -0.7321 H   0  0  0  0  0  0  0  0  0  0  0  0
   -2.3814    1.2854   -0.1994 H   0  0  0  0  0  0  0  0  0  0  0  0
   -1.9114   -1.6260    1.6195 H   0  0  0  0  0  0  0  0  0  0  0  0
   -4.3622   -1.4776    1.9192 H   0  0  0  0  0  0  0  0  0  0  0  0
   -6.8108   -1.7270   -0.8656 H   0  0  0  0  0  0  0  0  0  0  0  0
   -6.5646   -0.2220    0.0546 H   0  0  0  0  0  0  0  0  0  0  0  0
   -6.6033   -1.7978    0.8840 H   0  0  0  0  0  0  0  0  0  0  0  0
   -4.8641   -1.3245   -2.3702 H   0  0  0  0  0  0  0  0  0  0  0  0
   -1.3841   -1.7282   -2.7611 H   0  0  0  0  0  0  0  0  0  0  0  0
    4.1911    0.8140   -0.9483 H   0  0  0  0  0  0  0  0  0  0  0  0
    3.5518   -2.0855   -0.6304 H   0  0  0  0  0  0  0  0  0  0  0  0
    5.0841   -1.5073   -1.2836 H   0  0  0  0  0  0  0  0  0  0  0  0
    5.3729   -1.9701    1.0913 H   0  0  0  0  0  0  0  0  0  0  0  0
    5.5116   -0.2131    0.8284 H   0  0  0  0  0  0  0  0  0  0  0  0
    4.7940   -1.5804    3.3910 H   0  0  0  0  0  0  0  0  0  0  0  0
    4.9228    0.1889    3.1223 H   0  0  0  0  0  0  0  0  0  0  0  0
    3.4117   -0.5180    3.7331 H   0  0  0  0  0  0  0  0  0  0  0  0
    1.9413    4.3925   -0.4265 H   0  0  0  0  0  0  0  0  0  0  0  0
    1.1428    4.0495    1.1259 H   0  0  0  0  0  0  0  0  0  0  0  0
    0.4157    5.1920   -0.0254 H   0  0  0  0  0  0  0  0  0  0  0  0
  1  2  1  0
  2  3  2  0
  3  4  1  0
  4  5  2  3
  5  6  1  0
  6  7  2  0
  7  8  1  0
  8  9  2  0
  9 10  1  0
  9 11  1  0
 11 12  2  0
 12 13  1  0
  4 14  1  0
 14 15  2  0
 15 16  1  0
 16 17  1  0
 17 18  1  0
 18 19  1  0
 19 20  1  0
 15 21  1  0
 21 22  2  0
 22 23  1  0
 23 24  1  0
 23  1  1  0
 22  3  1  0
 12  6  1  0
  1 25  1  0
  2 26  1  0
  7 27  1  0
  8 28  1  0
 10 29  1  0
 10 30  1  0
 10 31  1  0
 11 32  1  0
 13 33  1  0
 16 34  1  0
 17 35  1  0
 17 36  1  0
 18 37  1  0
 18 38  1  0
 20 39  1  0
 20 40  1  0
 20 41  1  0
 24 42  1  0
 24 43  1  0
 24 44  1  0
M  END
>  <ScrubInfo>  (5) 
{"isomerGroup": 0, "isomerId": 4, "confId": 0, "nr_conformers:": 1, "nr_isomers:": 9}

$$$$
_i5
     RDKit          3D

 44 46  0  0  0  0  0  0  0  0999 V2000
    1.9906    0.1663   -0.2429 N   0  0  0  0  0  0  0  0  0  0  0  0
    1.7534    1.4688    0.1064 C   0  0  0  0  0  0  0  0  0  0  0  0
    2.8506    2.2636    0.2705 N   0  0  0  0  0  0  0  0  0  0  0  0
    4.0747    2.1694   -0.5136 C   0  0  0  0  0  0  0  0  0  0  0  0
    5.0842    1.2070    0.1263 C   0  0  0  0  0  0  0  0  0  0  0  0
    4.6915   -0.1563   -0.1071 O   0  0  0  0  0  0  0  0  0  0  0  0
    5.5952   -1.0630    0.5186 C   0  0  0  0  0  0  0  0  0  0  0  0
    0.5733    1.9938    0.2891 N   0  0  0  0  0  0  0  0  0  0  0  0
   -0.5688    1.2092    0.1448 C   0  0  0  0  0  0  0  0  0  0  0  0
   -1.6962    1.8149    0.3421 N   0  0  0  0  0  0  0  0  0  0  0  0
   -2.9251    1.1507    0.2765 C   0  0  0  0  0  0  0  0  0  0  0  0
   -3.7235    1.3128   -0.8582 C   0  0  0  0  0  0  0  0  0  0  0  0
   -4.9768    0.6998   -0.9424 C   0  0  0  0  0  0  0  0  0  0  0  0
   -5.4558   -0.0841    0.1145 C   0  0  0  0  0  0  0  0  0  0  0  0
   -6.8154   -0.7136    0.0351 C   0  0  0  0  0  0  0  0  0  0  0  0
   -4.6768   -0.2216    1.2710 C   0  0  0  0  0  0  0  0  0  0  0  0
   -3.4247    0.3929    1.3469 C   0  0  0  0  0  0  0  0  0  0  0  0
   -2.6561    0.2383    2.4705 O   0  0  0  0  0  0  0  0  0  0  0  0
   -0.3589   -0.1804   -0.2327 C   0  0  0  0  0  0  0  0  0  0  0  0
   -1.1351   -1.3201   -0.5148 C   0  0  0  0  0  0  0  0  0  0  0  0
   -0.3939   -2.4003   -0.8182 N   0  0  0  0  0  0  0  0  0  0  0  0
    0.8768   -1.9437   -0.7380 N   0  0  0  0  0  0  0  0  0  0  0  0
    1.9764   -2.8350   -1.0036 C   0  0  0  0  0  0  0  0  0  0  0  0
    0.9246   -0.6307   -0.4024 C   0  0  0  0  0  0  0  0  0  0  0  0
    2.9562   -0.1582   -0.2359 H   0  0  0  0  0  0  0  0  0  0  0  0
    2.5448    3.2202    0.4327 H   0  0  0  0  0  0  0  0  0  0  0  0
    4.5252    3.1675   -0.5512 H   0  0  0  0  0  0  0  0  0  0  0  0
    3.8442    1.8698   -1.5423 H   0  0  0  0  0  0  0  0  0  0  0  0
    5.1575    1.3897    1.2048 H   0  0  0  0  0  0  0  0  0  0  0  0
    6.0676    1.3645   -0.3312 H   0  0  0  0  0  0  0  0  0  0  0  0
    6.6048   -0.9357    0.1165 H   0  0  0  0  0  0  0  0  0  0  0  0
    5.5965   -0.9139    1.6025 H   0  0  0  0  0  0  0  0  0  0  0  0
    5.2591   -2.0815    0.3063 H   0  0  0  0  0  0  0  0  0  0  0  0
   -3.3651    1.9295   -1.6782 H   0  0  0  0  0  0  0  0  0  0  0  0
   -5.5775    0.8455   -1.8375 H   0  0  0  0  0  0  0  0  0  0  0  0
   -7.0717   -0.9606   -1.0005 H   0  0  0  0  0  0  0  0  0  0  0  0
   -6.8478   -1.6460    0.6084 H   0  0  0  0  0  0  0  0  0  0  0  0
   -7.5693   -0.0270    0.4323 H   0  0  0  0  0  0  0  0  0  0  0  0
   -5.0510   -0.8118    2.1023 H   0  0  0  0  0  0  0  0  0  0  0  0
   -3.1852   -0.1952    3.1572 H   0  0  0  0  0  0  0  0  0  0  0  0
   -2.2102   -1.4308   -0.5179 H   0  0  0  0  0  0  0  0  0  0  0  0
    1.6504   -3.6091   -1.7033 H   0  0  0  0  0  0  0  0  0  0  0  0
    2.8010   -2.2711   -1.4460 H   0  0  0  0  0  0  0  0  0  0  0  0
    2.2859   -3.2845   -0.0572 H   0  0  0  0  0  0  0  0  0  0  0  0
  1  2  1  0
  2  3  1  0
  3  4  1  0
  4  5  1  0
  5  6  1  0
  6  7  1  0
  2  8  2  0
  8  9  1  0
  9 10  2  3
 10 11  1  0
 11 12  2  0
 12 13  1  0
 13 14  2  0
 14 15  1  0
 14 16  1  0
 16 17  2  0
 17 18  1  0
  9 19  1  0
 19 20  1  0
 20 21  2  0
 21 22  1  0
 22 23  1  0
 22 24  1  0
 24  1  1  0
 17 11  1  0
 24 19  2  0
  1 25  1  0
  3 26  1  0
  4 27  1  0
  4 28  1  0
  5 29  1  0
  5 30  1  0
  7 31  1  0
  7 32  1  0
  7 33  1  0
 12 34  1  0
 13 35  1  0
 15 36  1  0
 15 37  1  0
 15 38  1  0
 16 39  1  0
 18 40  1  0
 20 41  1  0
 23 42  1  0
 23 43  1  0
 23 44  1  0
M  END
>  <ScrubInfo>  (6) 
{"isomerGroup": 0, "isomerId": 5, "confId": 0, "nr_conformers:": 1, "nr_isomers:": 9}

$$$$
_i6
     RDKit          3D

 44 46  0  0  0  0  0  0  0  0999 V2000
    0.8505   -4.5138   -0.3700 N   0  0  0  0  0  0  0  0  0  0  0  0
   -0.2550   -3.6710   -0.4092 C   0  0  0  0  0  0  0  0  0  0  0  0
    0.0698   -2.3768   -0.2802 C   0  0  0  0  0  0  0  0  0  0  0  0
   -0.6019   -1.0735   -0.2743 C   0  0  0  0  0  0  0  0  0  0  0  0
   -1.9705   -1.0167   -0.4266 N   0  0  0  0  0  0  0  0  0  0  0  0
   -2.8825    0.0601   -0.3676 C   0  0  0  0  0  0  0  0  0  0  0  0
   -4.1461   -0.1574   -0.9592 C   0  0  0  0  0  0  0  0  0  0  0  0
   -5.1431    0.8256   -0.9720 C   0  0  0  0  0  0  0  0  0  0  0  0
   -4.9125    2.0665   -0.3822 C   0  0  0  0  0  0  0  0  0  0  0  0
   -5.9574    3.1403   -0.4127 C   0  0  0  0  0  0  0  0  0  0  0  0
   -3.6608    2.3111    0.1861 C   0  0  0  0  0  0  0  0  0  0  0  0
   -2.6619    1.3287    0.1851 C   0  0  0  0  0  0  0  0  0  0  0  0
   -1.5060    1.7129    0.8014 O   0  0  0  0  0  0  0  0  0  0  0  0
    0.1527   -0.0205   -0.1451 N   0  0  0  0  0  0  0  0  0  0  0  0
    1.5201   -0.1617   -0.0313 C   0  0  0  0  0  0  0  0  0  0  0  0
    2.1413    0.9604    0.0326 N   0  0  0  0  0  0  0  0  0  0  0  0
    3.5988    0.9250    0.1670 C   0  0  0  0  0  0  0  0  0  0  0  0
    4.1452    2.3558    0.2762 C   0  0  0  0  0  0  0  0  0  0  0  0
    3.7298    3.0763    1.4403 O   0  0  0  0  0  0  0  0  0  0  0  0
    4.1724    2.5064    2.6609 C   0  0  0  0  0  0  0  0  0  0  0  0
    2.2289   -1.3390    0.0205 N   0  0  0  0  0  0  0  0  0  0  0  0
    1.5347   -2.4174   -0.0826 C   0  0  0  0  0  0  0  0  0  0  0  0
    1.9627   -3.7444   -0.0476 N   0  0  0  0  0  0  0  0  0  0  0  0
    3.2632   -4.1257   -0.5651 C   0  0  0  0  0  0  0  0  0  0  0  0
    0.7085   -5.3545    0.1958 H   0  0  0  0  0  0  0  0  0  0  0  0
   -1.2344   -4.1086   -0.5332 H   0  0  0  0  0  0  0  0  0  0  0  0
   -2.4324   -1.8937   -0.6280 H   0  0  0  0  0  0  0  0  0  0  0  0
   -4.3731   -1.1095   -1.4337 H   0  0  0  0  0  0  0  0  0  0  0  0
   -6.0981    0.6116   -1.4465 H   0  0  0  0  0  0  0  0  0  0  0  0
   -5.8378    3.7540   -1.3108 H   0  0  0  0  0  0  0  0  0  0  0  0
   -6.9632    2.7071   -0.4121 H   0  0  0  0  0  0  0  0  0  0  0  0
   -5.8813    3.7844    0.4697 H   0  0  0  0  0  0  0  0  0  0  0  0
   -3.4417    3.2771    0.6371 H   0  0  0  0  0  0  0  0  0  0  0  0
   -0.7748    1.1689    0.4382 H   0  0  0  0  0  0  0  0  0  0  0  0
    3.8921    0.3448    1.0484 H   0  0  0  0  0  0  0  0  0  0  0  0
    4.0438    0.4595   -0.7209 H   0  0  0  0  0  0  0  0  0  0  0  0
    3.8114    2.9390   -0.5893 H   0  0  0  0  0  0  0  0  0  0  0  0
    5.2411    2.3388    0.2486 H   0  0  0  0  0  0  0  0  0  0  0  0
    5.2466    2.2999    2.6317 H   0  0  0  0  0  0  0  0  0  0  0  0
    3.6144    1.5939    2.8869 H   0  0  0  0  0  0  0  0  0  0  0  0
    3.9794    3.2250    3.4623 H   0  0  0  0  0  0  0  0  0  0  0  0
    3.3142   -3.9626   -1.6467 H   0  0  0  0  0  0  0  0  0  0  0  0
    4.0551   -3.5424   -0.0846 H   0  0  0  0  0  0  0  0  0  0  0  0
    3.4579   -5.1839   -0.3630 H   0  0  0  0  0  0  0  0  0  0  0  0
  1  2  1  0
  2  3  2  0
  3  4  1  0
  4  5  1  0
  5  6  1  0
  6  7  2  0
  7  8  1  0
  8  9  2  0
  9 10  1  0
  9 11  1  0
 11 12  2  0
 12 13  1  0
  4 14  2  0
 14 15  1  0
 15 16  2  3
 16 17  1  0
 17 18  1  0
 18 19  1  0
 19 20  1  0
 15 21  1  0
 21 22  2  0
 22 23  1  0
 23 24  1  0
 23  1  1  0
 22  3  1  0
 12  6  1  0
  1 25  1  0
  2 26  1  0
  5 27  1  0
  7 28  1  0
  8 29  1  0
 10 30  1  0
 10 31  1  0
 10 32  1  0
 11 33  1  0
 13 34  1  0
 17 35  1  0
 17 36  1  0
 18 37  1  0
 18 38  1  0
 20 39  1  0
 20 40  1  0
 20 41  1  0
 24 42  1  0
 24 43  1  0
 24 44  1  0
M  END
>  <ScrubInfo>  (7) 
{"isomerGroup": 0, "isomerId": 6, "confId": 0, "nr_conformers:": 1, "nr_isomers:": 9}

$$$$
_i7
     RDKit          3D

 44 46  0  0  0  0  0  0  0  0999 V2000
   -1.0065    3.2947    0.5991 N   0  0  0  0  0  0  0  0  0  0  0  0
   -1.2280    1.9527    0.3090 C   0  0  0  0  0  0  0  0  0  0  0  0
   -0.1351    1.3101   -0.1274 C   0  0  0  0  0  0  0  0  0  0  0  0
    0.3006   -0.0369   -0.5422 C   0  0  0  0  0  0  0  0  0  0  0  0
   -0.3800   -1.1473   -0.5745 N   0  0  0  0  0  0  0  0  0  0  0  0
   -1.7154   -1.1806   -0.1466 C   0  0  0  0  0  0  0  0  0  0  0  0
   -2.0368   -1.3629    1.1984 C   0  0  0  0  0  0  0  0  0  0  0  0
   -3.3754   -1.3980    1.6032 C   0  0  0  0  0  0  0  0  0  0  0  0
   -4.4092   -1.2771    0.6624 C   0  0  0  0  0  0  0  0  0  0  0  0
   -5.8430   -1.2838    1.1041 C   0  0  0  0  0  0  0  0  0  0  0  0
   -4.0872   -1.1076   -0.6898 C   0  0  0  0  0  0  0  0  0  0  0  0
   -2.7533   -1.0790   -1.0798 C   0  0  0  0  0  0  0  0  0  0  0  0
   -2.4600   -0.9479   -2.4104 O   0  0  0  0  0  0  0  0  0  0  0  0
    1.6174   -0.0680   -0.9209 N   0  0  0  0  0  0  0  0  0  0  0  0
    2.5220    0.9624   -0.8742 C   0  0  0  0  0  0  0  0  0  0  0  0
    3.7729    0.9031   -1.1652 N   0  0  0  0  0  0  0  0  0  0  0  0
    4.3653   -0.3320   -1.6841 C   0  0  0  0  0  0  0  0  0  0  0  0
    4.5422   -1.3915   -0.5963 C   0  0  0  0  0  0  0  0  0  0  0  0
    3.2981   -2.0861   -0.4226 O   0  0  0  0  0  0  0  0  0  0  0  0
    3.3908   -3.0646    0.6074 C   0  0  0  0  0  0  0  0  0  0  0  0
    2.1285    2.2293   -0.4952 N   0  0  0  0  0  0  0  0  0  0  0  0
    0.8877    2.4111   -0.1720 C   0  0  0  0  0  0  0  0  0  0  0  0
    0.2798    3.6146    0.1918 N   0  0  0  0  0  0  0  0  0  0  0  0
    1.0178    4.6413    0.9013 C   0  0  0  0  0  0  0  0  0  0  0  0
   -1.7502    3.9076    0.2566 H   0  0  0  0  0  0  0  0  0  0  0  0
   -2.2237    1.5601    0.4536 H   0  0  0  0  0  0  0  0  0  0  0  0
   -1.2447   -1.4725    1.9336 H   0  0  0  0  0  0  0  0  0  0  0  0
   -3.6066   -1.5275    2.6585 H   0  0  0  0  0  0  0  0  0  0  0  0
   -6.4913   -1.6917    0.3215 H   0  0  0  0  0  0  0  0  0  0  0  0
   -6.1669   -0.2647    1.3367 H   0  0  0  0  0  0  0  0  0  0  0  0
   -5.9747   -1.9092    1.9933 H   0  0  0  0  0  0  0  0  0  0  0  0
   -4.8654   -1.0114   -1.4419 H   0  0  0  0  0  0  0  0  0  0  0  0
   -1.4947   -1.0982   -2.4625 H   0  0  0  0  0  0  0  0  0  0  0  0
    2.0081   -0.9996   -1.0323 H   0  0  0  0  0  0  0  0  0  0  0  0
    3.7783   -0.7172   -2.5266 H   0  0  0  0  0  0  0  0  0  0  0  0
    5.3533   -0.0679   -2.0774 H   0  0  0  0  0  0  0  0  0  0  0  0
    5.2989   -2.1167   -0.9156 H   0  0  0  0  0  0  0  0  0  0  0  0
    4.8531   -0.9350    0.3503 H   0  0  0  0  0  0  0  0  0  0  0  0
    4.1505   -3.8115    0.3584 H   0  0  0  0  0  0  0  0  0  0  0  0
    3.6255   -2.5898    1.5648 H   0  0  0  0  0  0  0  0  0  0  0  0
    2.4223   -3.5643    0.6932 H   0  0  0  0  0  0  0  0  0  0  0  0
    1.9209    4.9198    0.3490 H   0  0  0  0  0  0  0  0  0  0  0  0
    1.3090    4.2923    1.8975 H   0  0  0  0  0  0  0  0  0  0  0  0
    0.4051    5.5417    1.0139 H   0  0  0  0  0  0  0  0  0  0  0  0
  1  2  1  0
  2  3  2  0
  3  4  1  0
  4  5  2  3
  5  6  1  0
  6  7  2  0
  7  8  1  0
  8  9  2  0
  9 10  1  0
  9 11  1  0
 11 12  2  0
 12 13  1  0
  4 14  1  0
 14 15  1  0
 15 16  2  3
 16 17  1  0
 17 18  1  0
 18 19  1  0
 19 20  1  0
 15 21  1  0
 21 22  2  0
 22 23  1  0
 23 24  1  0
 23  1  1  0
 22  3  1  0
 12  6  1  0
  1 25  1  0
  2 26  1  0
  7 27  1  0
  8 28  1  0
 10 29  1  0
 10 30  1  0
 10 31  1  0
 11 32  1  0
 13 33  1  0
 14 34  1  0
 17 35  1  0
 17 36  1  0
 18 37  1  0
 18 38  1  0
 20 39  1  0
 20 40  1  0
 20 41  1  0
 24 42  1  0
 24 43  1  0
 24 44  1  0
M  END
>  <ScrubInfo>  (8) 
{"isomerGroup": 0, "isomerId": 7, "confId": 0, "nr_conformers:": 1, "nr_isomers:": 9}

$$$$
_i8
     RDKit          3D

 44 46  0  0  0  0  0  0  0  0999 V2000
    1.7589    2.6067   -0.3919 N   0  0  0  0  0  0  0  0  0  0  0  0
    1.5952    1.2748   -0.0584 C   0  0  0  0  0  0  0  0  0  0  0  0
    2.6490    0.5841    0.2299 N   0  0  0  0  0  0  0  0  0  0  0  0
    2.4611   -0.8232    0.5832 C   0  0  0  0  0  0  0  0  0  0  0  0
    3.8176   -1.4473    0.9181 C   0  0  0  0  0  0  0  0  0  0  0  0
    3.6809   -2.8149    1.3138 O   0  0  0  0  0  0  0  0  0  0  0  0
    3.6325   -3.7060    0.2073 C   0  0  0  0  0  0  0  0  0  0  0  0
    0.2753    0.8565   -0.0767 N   0  0  0  0  0  0  0  0  0  0  0  0
   -0.8915    1.5561   -0.3225 C   0  0  0  0  0  0  0  0  0  0  0  0
   -2.1293    1.1913   -0.3414 N   0  0  0  0  0  0  0  0  0  0  0  0
   -2.5026   -0.1481   -0.1243 C   0  0  0  0  0  0  0  0  0  0  0  0
   -3.3734   -0.7233   -1.0543 C   0  0  0  0  0  0  0  0  0  0  0  0
   -3.8411   -2.0320   -0.8975 C   0  0  0  0  0  0  0  0  0  0  0  0
   -3.4610   -2.7917    0.2136 C   0  0  0  0  0  0  0  0  0  0  0  0
   -3.9355   -4.2070    0.3638 C   0  0  0  0  0  0  0  0  0  0  0  0
   -2.5889   -2.2306    1.1533 C   0  0  0  0  0  0  0  0  0  0  0  0
   -2.1277   -0.9214    0.9866 C   0  0  0  0  0  0  0  0  0  0  0  0
   -1.2609   -0.4038    1.9139 O   0  0  0  0  0  0  0  0  0  0  0  0
   -0.6043    2.9412   -0.6203 C   0  0  0  0  0  0  0  0  0  0  0  0
   -1.3751    4.0724   -0.9268 C   0  0  0  0  0  0  0  0  0  0  0  0
   -0.6207    5.1636   -1.1320 N   0  0  0  0  0  0  0  0  0  0  0  0
    0.6479    4.7180   -0.9536 N   0  0  0  0  0  0  0  0  0  0  0  0
    1.7396    5.6472   -1.0972 C   0  0  0  0  0  0  0  0  0  0  0  0
    0.6919    3.3931   -0.6451 C   0  0  0  0  0  0  0  0  0  0  0  0
    2.7184    2.9296   -0.3698 H   0  0  0  0  0  0  0  0  0  0  0  0
    1.9976   -1.3672   -0.2475 H   0  0  0  0  0  0  0  0  0  0  0  0
    1.8036   -0.9272    1.4551 H   0  0  0  0  0  0  0  0  0  0  0  0
    4.5225   -1.3520    0.0832 H   0  0  0  0  0  0  0  0  0  0  0  0
    4.2580   -0.9119    1.7670 H   0  0  0  0  0  0  0  0  0  0  0  0
    3.5517   -4.7257    0.5937 H   0  0  0  0  0  0  0  0  0  0  0  0
    4.5495   -3.6324   -0.3852 H   0  0  0  0  0  0  0  0  0  0  0  0
    2.7602   -3.5061   -0.4206 H   0  0  0  0  0  0  0  0  0  0  0  0
    0.1042   -0.0724    0.2752 H   0  0  0  0  0  0  0  0  0  0  0  0
   -3.6949   -0.1381   -1.9129 H   0  0  0  0  0  0  0  0  0  0  0  0
   -4.5105   -2.4475   -1.6479 H   0  0  0  0  0  0  0  0  0  0  0  0
   -3.2333   -4.8905   -0.1233 H   0  0  0  0  0  0  0  0  0  0  0  0
   -4.9257   -4.3371   -0.0853 H   0  0  0  0  0  0  0  0  0  0  0  0
   -4.0205   -4.4800    1.4209 H   0  0  0  0  0  0  0  0  0  0  0  0
   -2.2669   -2.8226    2.0058 H   0  0  0  0  0  0  0  0  0  0  0  0
   -1.4162   -0.8594    2.7596 H   0  0  0  0  0  0  0  0  0  0  0  0
   -2.4517    4.1483   -1.0089 H   0  0  0  0  0  0  0  0  0  0  0  0
    2.6914    5.1130   -1.0687 H   0  0  0  0  0  0  0  0  0  0  0  0
    1.6359    6.1592   -2.0574 H   0  0  0  0  0  0  0  0  0  0  0  0
    1.6886    6.3645   -0.2743 H   0  0  0  0  0  0  0  0  0  0  0  0
  1  2  1  0
  2  3  2  3
  3  4  1  0
  4  5  1  0
  5  6  1  0
  6  7  1  0
  2  8  1  0
  8  9  1  0
  9 10  2  3
 10 11  1  0
 11 12  2  0
 12 13  1  0
 13 14  2  0
 14 15  1  0
 14 16  1  0
 16 17  2  0
 17 18  1  0
  9 19  1  0
 19 20  1  0
 20 21  2  0
 21 22  1  0
 22 23  1  0
 22 24  1  0
 24  1  1  0
 17 11  1  0
 24 19  2  0
  1 25  1  0
  4 26  1  0
  4 27  1  0
  5 28  1  0
  5 29  1  0
  7 30  1  0
  7 31  1  0
  7 32  1  0
  8 33  1  0
 12 34  1  0
 13 35  1  0
 15 36  1  0
 15 37  1  0
 15 38  1  0
 16 39  1  0
 18 40  1  0
 20 41  1  0
 23 42  1  0
 23 43  1  0
 23 44  1  0
M  END
>  <ScrubInfo>  (9) 
{"isomerGroup": 0, "isomerId": 8, "confId": 0, "nr_conformers:": 1, "nr_isomers:": 9}

$$$$
