_i0
     RDKit          3D

 47 49  0  0  0  0  0  0  0  0999 V2000
    6.2712    1.8257    1.2018 C   0  0  0  0  0  0  0  0  0  0  0  0
    5.8891    1.3747   -0.1818 C   0  0  0  0  0  0  0  0  0  0  0  0
    6.5679    1.6423   -1.1679 O   0  0  0  0  0  0  0  0  0  0  0  0
    4.7228    0.6525   -0.2375 N   0  0  0  0  0  0  0  0  0  0  0  0
    4.1419    0.2620   -1.5101 C   0  0  0  0  0  0  0  0  0  0  0  0
    2.9758   -0.7154   -1.3180 C   0  0  0  0  0  0  0  0  0  0  0  0
    1.9870   -0.1260   -0.4169 N   0  0  0  0  0  0  0  0  0  0  0  0
    0.8641   -0.9233   -0.2141 C   0  0  0  0  0  0  0  0  0  0  0  0
   -0.2935   -0.2435   -0.1498 N   0  0  0  0  0  0  0  0  0  0  0  0
   -1.4729   -0.8872    0.0603 C   0  0  0  0  0  0  0  0  0  0  0  0
   -2.6911   -0.1967    0.1570 N   0  0  0  0  0  0  0  0  0  0  0  0
   -3.0458    1.1449   -0.0925 C   0  0  0  0  0  0  0  0  0  0  0  0
   -2.1894    2.0342   -0.7592 C   0  0  0  0  0  0  0  0  0  0  0  0
   -2.5427    3.3688   -0.9750 C   0  0  0  0  0  0  0  0  0  0  0  0
   -3.7598    3.8388   -0.5141 C   0  0  0  0  0  0  0  0  0  0  0  0
   -4.0679    5.1458   -0.7456 O   0  0  0  0  0  0  0  0  0  0  0  0
   -4.6298    2.9949    0.1643 C   0  0  0  0  0  0  0  0  0  0  0  0
   -4.2803    1.6490    0.3892 C   0  0  0  0  0  0  0  0  0  0  0  0
   -5.2495    0.7792    1.1468 C   0  0  0  0  0  0  0  0  0  0  0  0
   -1.4107   -2.2790    0.2104 C   0  0  0  0  0  0  0  0  0  0  0  0
   -2.2930   -3.3555    0.4410 C   0  0  0  0  0  0  0  0  0  0  0  0
   -1.6705   -4.5380    0.4960 N   0  0  0  0  0  0  0  0  0  0  0  0
   -0.3713   -4.2123    0.2992 N   0  0  0  0  0  0  0  0  0  0  0  0
    0.6285   -5.2504    0.2991 C   0  0  0  0  0  0  0  0  0  0  0  0
   -0.1666   -2.8715    0.1194 C   0  0  0  0  0  0  0  0  0  0  0  0
    1.0006   -2.2494   -0.0970 N   0  0  0  0  0  0  0  0  0  0  0  0
    7.3246    1.5898    1.3764 H   0  0  0  0  0  0  0  0  0  0  0  0
    6.1155    2.9046    1.2820 H   0  0  0  0  0  0  0  0  0  0  0  0
    5.6761    1.3223    1.9688 H   0  0  0  0  0  0  0  0  0  0  0  0
    4.0840    0.6805    0.5509 H   0  0  0  0  0  0  0  0  0  0  0  0
    4.9207   -0.1864   -2.1363 H   0  0  0  0  0  0  0  0  0  0  0  0
    3.7973    1.1781   -2.0039 H   0  0  0  0  0  0  0  0  0  0  0  0
    2.5283   -0.9397   -2.2938 H   0  0  0  0  0  0  0  0  0  0  0  0
    3.3705   -1.6466   -0.8927 H   0  0  0  0  0  0  0  0  0  0  0  0
    1.6127    0.7682   -0.7240 H   0  0  0  0  0  0  0  0  0  0  0  0
   -3.4714   -0.7927    0.3885 H   0  0  0  0  0  0  0  0  0  0  0  0
   -1.2328    1.6999   -1.1464 H   0  0  0  0  0  0  0  0  0  0  0  0
   -1.8649    4.0333   -1.5025 H   0  0  0  0  0  0  0  0  0  0  0  0
   -4.9374    5.3342   -0.3570 H   0  0  0  0  0  0  0  0  0  0  0  0
   -5.5805    3.3728    0.5293 H   0  0  0  0  0  0  0  0  0  0  0  0
   -4.7611    0.3347    2.0201 H   0  0  0  0  0  0  0  0  0  0  0  0
   -6.1078    1.3529    1.5126 H   0  0  0  0  0  0  0  0  0  0  0  0
   -5.6335   -0.0134    0.4967 H   0  0  0  0  0  0  0  0  0  0  0  0
   -3.3669   -3.3317    0.5707 H   0  0  0  0  0  0  0  0  0  0  0  0
    0.6108   -5.7443    1.2739 H   0  0  0  0  0  0  0  0  0  0  0  0
    1.6162   -4.8197    0.1200 H   0  0  0  0  0  0  0  0  0  0  0  0
    0.3854   -5.9616   -0.4943 H   0  0  0  0  0  0  0  0  0  0  0  0
  1  2  1  0
  2  3  2  0
  2  4  1  0
  4  5  1  0
  5  6  1  0
  6  7  1  0
  7  8  1  0
  8  9  2  0
  9 10  1  0
 10 11  1  0
 11 12  1  0
 12 13  2  0
 13 14  1  0
 14 15  2  0
 15 16  1  0
 15 17  1  0
 17 18  2  0
 18 19  1  0
 10 20  2  0
 20 21  1  0
 21 22  2  0
 22 23  1  0
 23 24  1  0
 23 25  1  0
 25 26  2  0
 26  8  1  0
 18 12  1  0
 25 20  1  0
  1 27  1  0
  1 28  1  0
  1 29  1  0
  4 30  1  0
  5 31  1  0
  5 32  1  0
  6 33  1  0
  6 34  1  0
  7 35  1  0
 11 36  1  0
 13 37  1  0
 14 38  1  0
 16 39  1  0
 17 40  1  0
 19 41  1  0
 19 42  1  0
 19 43  1  0
 21 44  1  0
 24 45  1  0
 24 46  1  0
 24 47  1  0
M  END
>  <ScrubInfo>  (1) 
{"isomerGroup": 0, "isomerId": 0, "confId": 0, "nr_conformers:": 1, "nr_isomers:": 9}

$$$$
_i1
     RDKit          3D

 47 49  0  0  0  0  0  0  0  0999 V2000
    0.9979    0.8532    0.3182 N   0  0  0  0  0  0  0  0  0  0  0  0
   -0.3331    0.7052   -0.0176 C   0  0  0  0  0  0  0  0  0  0  0  0
   -0.8078   -0.5324   -0.4124 N   0  0  0  0  0  0  0  0  0  0  0  0
   -1.9651   -1.1890    0.0775 C   0  0  0  0  0  0  0  0  0  0  0  0
   -2.5846   -0.8156    1.2825 C   0  0  0  0  0  0  0  0  0  0  0  0
   -3.7214   -1.4813    1.7481 C   0  0  0  0  0  0  0  0  0  0  0  0
   -4.2428   -2.5344    1.0110 C   0  0  0  0  0  0  0  0  0  0  0  0
   -5.3487   -3.2146    1.4259 O   0  0  0  0  0  0  0  0  0  0  0  0
   -3.6455   -2.9326   -0.1782 C   0  0  0  0  0  0  0  0  0  0  0  0
   -2.5048   -2.2678   -0.6570 C   0  0  0  0  0  0  0  0  0  0  0  0
   -1.8856   -2.7172   -1.9530 C   0  0  0  0  0  0  0  0  0  0  0  0
   -1.0569    1.8292   -0.0019 C   0  0  0  0  0  0  0  0  0  0  0  0
   -2.4233    2.2513   -0.3230 C   0  0  0  0  0  0  0  0  0  0  0  0
   -2.6166    3.5351   -0.1452 N   0  0  0  0  0  0  0  0  0  0  0  0
   -1.3953    4.0335    0.3439 N   0  0  0  0  0  0  0  0  0  0  0  0
   -1.1638    5.4576    0.3116 C   0  0  0  0  0  0  0  0  0  0  0  0
   -0.3850    3.0847    0.3906 C   0  0  0  0  0  0  0  0  0  0  0  0
    0.8659    3.2107    0.6779 N   0  0  0  0  0  0  0  0  0  0  0  0
    1.6079    2.0500    0.6217 C   0  0  0  0  0  0  0  0  0  0  0  0
    2.8602    2.2337    0.8641 N   0  0  0  0  0  0  0  0  0  0  0  0
    3.7488    1.0733    0.8756 C   0  0  0  0  0  0  0  0  0  0  0  0
    4.1364    0.6569   -0.5497 C   0  0  0  0  0  0  0  0  0  0  0  0
    4.4432   -0.7601   -0.6514 N   0  0  0  0  0  0  0  0  0  0  0  0
    3.4595   -1.7201   -0.6071 C   0  0  0  0  0  0  0  0  0  0  0  0
    3.9587   -3.1326   -0.7450 C   0  0  0  0  0  0  0  0  0  0  0  0
    2.2687   -1.4581   -0.4425 O   0  0  0  0  0  0  0  0  0  0  0  0
    1.5669    0.0212    0.1872 H   0  0  0  0  0  0  0  0  0  0  0  0
   -0.0458   -1.2066   -0.5198 H   0  0  0  0  0  0  0  0  0  0  0  0
   -2.1763   -0.0142    1.8930 H   0  0  0  0  0  0  0  0  0  0  0  0
   -4.1729   -1.1682    2.6841 H   0  0  0  0  0  0  0  0  0  0  0  0
   -5.6605   -2.8225    2.2581 H   0  0  0  0  0  0  0  0  0  0  0  0
   -4.0763   -3.7630   -0.7323 H   0  0  0  0  0  0  0  0  0  0  0  0
   -2.4704   -3.5152   -2.4229 H   0  0  0  0  0  0  0  0  0  0  0  0
   -1.8390   -1.8846   -2.6623 H   0  0  0  0  0  0  0  0  0  0  0  0
   -0.8769   -3.1042   -1.7766 H   0  0  0  0  0  0  0  0  0  0  0  0
   -3.1690    1.5366   -0.6938 H   0  0  0  0  0  0  0  0  0  0  0  0
   -0.4024    5.7459    1.0433 H   0  0  0  0  0  0  0  0  0  0  0  0
   -0.8272    5.7671   -0.6827 H   0  0  0  0  0  0  0  0  0  0  0  0
   -2.0813    6.0043    0.5526 H   0  0  0  0  0  0  0  0  0  0  0  0
    3.3077    0.2491    1.4496 H   0  0  0  0  0  0  0  0  0  0  0  0
    4.6594    1.3412    1.4248 H   0  0  0  0  0  0  0  0  0  0  0  0
    3.3343    0.8699   -1.2651 H   0  0  0  0  0  0  0  0  0  0  0  0
    5.0212    1.2127   -0.8780 H   0  0  0  0  0  0  0  0  0  0  0  0
    5.4141   -1.0339   -0.7381 H   0  0  0  0  0  0  0  0  0  0  0  0
    4.9950   -3.1627   -1.0926 H   0  0  0  0  0  0  0  0  0  0  0  0
    3.8949   -3.6304    0.2261 H   0  0  0  0  0  0  0  0  0  0  0  0
    3.3375   -3.6612   -1.4732 H   0  0  0  0  0  0  0  0  0  0  0  0
  1  2  1  0
  2  3  1  0
  3  4  1  0
  4  5  2  0
  5  6  1  0
  6  7  2  0
  7  8  1  0
  7  9  1  0
  9 10  2  0
 10 11  1  0
  2 12  2  0
 12 13  1  0
 13 14  2  0
 14 15  1  0
 15 16  1  0
 15 17  1  0
 17 18  2  0
 18 19  1  0
 19 20  2  3
 20 21  1  0
 21 22  1  0
 22 23  1  0
 23 24  1  0
 24 25  1  0
 24 26  2  0
 19  1  1  0
 10  4  1  0
 17 12  1  0
  1 27  1  0
  3 28  1  0
  5 29  1  0
  6 30  1  0
  8 31  1  0
  9 32  1  0
 11 33  1  0
 11 34  1  0
 11 35  1  0
 13 36  1  0
 16 37  1  0
 16 38  1  0
 16 39  1  0
 21 40  1  0
 21 41  1  0
 22 42  1  0
 22 43  1  0
 23 44  1  0
 25 45  1  0
 25 46  1  0
 25 47  1  0
M  END
>  <ScrubInfo>  (2) 
{"isomerGroup": 0, "isomerId": 1, "confId": 0, "nr_conformers:": 1, "nr_isomers:": 9}

$$$$
_i2
     RDKit          3D

 47 49  0  0  0  0  0  0  0  0999 V2000
   -0.1972    1.4473   -0.6105 N   0  0  0  0  0  0  0  0  0  0  0  0
    1.0188    0.8191   -0.7331 C   0  0  0  0  0  0  0  0  0  0  0  0
    2.0648    1.6999   -0.8022 N   0  0  0  0  0  0  0  0  0  0  0  0
    3.4308    1.2428   -1.0442 C   0  0  0  0  0  0  0  0  0  0  0  0
    4.0569    0.6434    0.2236 C   0  0  0  0  0  0  0  0  0  0  0  0
    5.3896    0.1059    0.0044 N   0  0  0  0  0  0  0  0  0  0  0  0
    6.4746    0.9221   -0.2048 C   0  0  0  0  0  0  0  0  0  0  0  0
    7.7773    0.1913   -0.3873 C   0  0  0  0  0  0  0  0  0  0  0  0
    6.3980    2.1449   -0.2631 O   0  0  0  0  0  0  0  0  0  0  0  0
    1.1636   -0.4804   -0.7639 N   0  0  0  0  0  0  0  0  0  0  0  0
   -0.0348   -1.1249   -0.6820 C   0  0  0  0  0  0  0  0  0  0  0  0
   -1.3030   -0.5785   -0.5553 C   0  0  0  0  0  0  0  0  0  0  0  0
   -2.1601   -1.6926   -0.5232 C   0  0  0  0  0  0  0  0  0  0  0  0
   -1.5023   -2.8555   -0.6173 N   0  0  0  0  0  0  0  0  0  0  0  0
   -0.2075   -2.4800   -0.7152 N   0  0  0  0  0  0  0  0  0  0  0  0
    0.8114   -3.4909   -0.8425 C   0  0  0  0  0  0  0  0  0  0  0  0
   -1.4367    0.8630   -0.4866 C   0  0  0  0  0  0  0  0  0  0  0  0
   -2.5084    1.5769   -0.3212 N   0  0  0  0  0  0  0  0  0  0  0  0
   -3.7735    0.9964   -0.1866 C   0  0  0  0  0  0  0  0  0  0  0  0
   -4.5561    0.8030   -1.3319 C   0  0  0  0  0  0  0  0  0  0  0  0
   -5.8310    0.2467   -1.2355 C   0  0  0  0  0  0  0  0  0  0  0  0
   -6.3307   -0.1040    0.0109 C   0  0  0  0  0  0  0  0  0  0  0  0
   -7.5782   -0.6512    0.0624 O   0  0  0  0  0  0  0  0  0  0  0  0
   -5.5811    0.1028    1.1661 C   0  0  0  0  0  0  0  0  0  0  0  0
   -4.2998    0.6719    1.0786 C   0  0  0  0  0  0  0  0  0  0  0  0
   -3.4964    0.8979    2.3285 C   0  0  0  0  0  0  0  0  0  0  0  0
   -0.2013    2.4431   -0.4629 H   0  0  0  0  0  0  0  0  0  0  0  0
    1.8606    2.5635   -1.2917 H   0  0  0  0  0  0  0  0  0  0  0  0
    4.0239    2.1018   -1.3769 H   0  0  0  0  0  0  0  0  0  0  0  0
    3.4517    0.5187   -1.8678 H   0  0  0  0  0  0  0  0  0  0  0  0
    4.1204    1.4106    1.0045 H   0  0  0  0  0  0  0  0  0  0  0  0
    3.4491   -0.1767    0.6183 H   0  0  0  0  0  0  0  0  0  0  0  0
    5.5067   -0.8990    0.0164 H   0  0  0  0  0  0  0  0  0  0  0  0
    8.5348    0.6456    0.2573 H   0  0  0  0  0  0  0  0  0  0  0  0
    7.6899   -0.8656   -0.1210 H   0  0  0  0  0  0  0  0  0  0  0  0
    8.0868    0.2687   -1.4329 H   0  0  0  0  0  0  0  0  0  0  0  0
   -3.2371   -1.7282   -0.4353 H   0  0  0  0  0  0  0  0  0  0  0  0
    0.7344   -4.1674    0.0126 H   0  0  0  0  0  0  0  0  0  0  0  0
    0.6407   -4.0341   -1.7754 H   0  0  0  0  0  0  0  0  0  0  0  0
    1.8009   -3.0291   -0.8581 H   0  0  0  0  0  0  0  0  0  0  0  0
   -4.1652    1.0857   -2.3055 H   0  0  0  0  0  0  0  0  0  0  0  0
   -6.4298    0.0902   -2.1279 H   0  0  0  0  0  0  0  0  0  0  0  0
   -7.7936   -0.8493    0.9884 H   0  0  0  0  0  0  0  0  0  0  0  0
   -5.9837   -0.1676    2.1379 H   0  0  0  0  0  0  0  0  0  0  0  0
   -2.6723    0.1799    2.3831 H   0  0  0  0  0  0  0  0  0  0  0  0
   -3.0939    1.9159    2.3499 H   0  0  0  0  0  0  0  0  0  0  0  0
   -4.1120    0.7758    3.2260 H   0  0  0  0  0  0  0  0  0  0  0  0
  1  2  1  0
  2  3  1  0
  3  4  1  0
  4  5  1  0
  5  6  1  0
  6  7  1  0
  7  8  1  0
  7  9  2  0
  2 10  2  0
 10 11  1  0
 11 12  2  0
 12 13  1  0
 13 14  2  0
 14 15  1  0
 15 16  1  0
 12 17  1  0
 17 18  2  3
 18 19  1  0
 19 20  2  0
 20 21  1  0
 21 22  2  0
 22 23  1  0
 22 24  1  0
 24 25  2  0
 25 26  1  0
 17  1  1  0
 25 19  1  0
 15 11  1  0
  1 27  1  0
  3 28  1  0
  4 29  1  0
  4 30  1  0
  5 31  1  0
  5 32  1  0
  6 33  1  0
  8 34  1  0
  8 35  1  0
  8 36  1  0
 13 37  1  0
 16 38  1  0
 16 39  1  0
 16 40  1  0
 20 41  1  0
 21 42  1  0
 23 43  1  0
 24 44  1  0
 26 45  1  0
 26 46  1  0
 26 47  1  0
M  END
>  <ScrubInfo>  (3) 
{"isomerGroup": 0, "isomerId": 2, "confId": 0, "nr_conformers:": 1, "nr_isomers:": 9}

$$$$
_i3
     RDKit          3D

 47 49  0  0  0  0  0  0  0  0999 V2000
    1.3156    0.2079    0.0522 N   0  0  0  0  0  0  0  0  0  0  0  0
    0.8127    1.3953    0.5634 C   0  0  0  0  0  0  0  0  0  0  0  0
    1.4113    2.5356    0.6090 N   0  0  0  0  0  0  0  0  0  0  0  0
    2.7475    2.6565    0.0362 C   0  0  0  0  0  0  0  0  0  0  0  0
    3.8115    2.1604    1.0229 C   0  0  0  0  0  0  0  0  0  0  0  0
    5.0227    1.7155    0.3578 N   0  0  0  0  0  0  0  0  0  0  0  0
    5.0463    0.5525   -0.3744 C   0  0  0  0  0  0  0  0  0  0  0  0
    6.3878    0.2051   -0.9592 C   0  0  0  0  0  0  0  0  0  0  0  0
    4.0482   -0.1418   -0.5595 O   0  0  0  0  0  0  0  0  0  0  0  0
   -0.4632    1.4545    1.1103 N   0  0  0  0  0  0  0  0  0  0  0  0
   -1.2110    0.3862    1.1341 C   0  0  0  0  0  0  0  0  0  0  0  0
   -2.4750    0.3933    1.6707 N   0  0  0  0  0  0  0  0  0  0  0  0
   -3.6221   -0.1002    0.9957 C   0  0  0  0  0  0  0  0  0  0  0  0
   -4.5263   -0.8599    1.7602 C   0  0  0  0  0  0  0  0  0  0  0  0
   -5.7063   -1.3554    1.2050 C   0  0  0  0  0  0  0  0  0  0  0  0
   -6.0012   -1.0668   -0.1187 C   0  0  0  0  0  0  0  0  0  0  0  0
   -7.1372   -1.5305   -0.7121 O   0  0  0  0  0  0  0  0  0  0  0  0
   -5.1469   -0.2785   -0.8817 C   0  0  0  0  0  0  0  0  0  0  0  0
   -3.9613    0.2389   -0.3298 C   0  0  0  0  0  0  0  0  0  0  0  0
   -3.1036    1.1231   -1.1934 C   0  0  0  0  0  0  0  0  0  0  0  0
   -0.7119   -0.8754    0.6407 C   0  0  0  0  0  0  0  0  0  0  0  0
   -1.1413   -2.2077    0.5394 C   0  0  0  0  0  0  0  0  0  0  0  0
   -0.2125   -3.0063   -0.0131 N   0  0  0  0  0  0  0  0  0  0  0  0
    0.8221   -2.1670   -0.2685 N   0  0  0  0  0  0  0  0  0  0  0  0
    2.0295   -2.6696   -0.8731 C   0  0  0  0  0  0  0  0  0  0  0  0
    0.5491   -0.8939    0.1166 C   0  0  0  0  0  0  0  0  0  0  0  0
    2.2870    0.1755   -0.2606 H   0  0  0  0  0  0  0  0  0  0  0  0
    2.8043    2.1568   -0.9381 H   0  0  0  0  0  0  0  0  0  0  0  0
    2.9360    3.7146   -0.1826 H   0  0  0  0  0  0  0  0  0  0  0  0
    4.0868    2.9618    1.7170 H   0  0  0  0  0  0  0  0  0  0  0  0
    3.4422    1.3213    1.6232 H   0  0  0  0  0  0  0  0  0  0  0  0
    5.8706    2.2523    0.4902 H   0  0  0  0  0  0  0  0  0  0  0  0
    6.6363   -0.8261   -0.6937 H   0  0  0  0  0  0  0  0  0  0  0  0
    6.3399    0.3060   -2.0466 H   0  0  0  0  0  0  0  0  0  0  0  0
    7.1776    0.8586   -0.5788 H   0  0  0  0  0  0  0  0  0  0  0  0
   -2.6788    1.3416    1.9815 H   0  0  0  0  0  0  0  0  0  0  0  0
   -4.2941   -1.0859    2.7992 H   0  0  0  0  0  0  0  0  0  0  0  0
   -6.3719   -1.9558    1.8162 H   0  0  0  0  0  0  0  0  0  0  0  0
   -7.6193   -2.0814   -0.0740 H   0  0  0  0  0  0  0  0  0  0  0  0
   -5.4182   -0.0572   -1.9117 H   0  0  0  0  0  0  0  0  0  0  0  0
   -2.7768    2.0090   -0.6403 H   0  0  0  0  0  0  0  0  0  0  0  0
   -2.2341    0.5712   -1.5617 H   0  0  0  0  0  0  0  0  0  0  0  0
   -3.6606    1.4879   -2.0636 H   0  0  0  0  0  0  0  0  0  0  0  0
   -2.0839   -2.6428    0.8435 H   0  0  0  0  0  0  0  0  0  0  0  0
    2.8140   -2.6805   -0.1130 H   0  0  0  0  0  0  0  0  0  0  0  0
    1.8556   -3.6823   -1.2460 H   0  0  0  0  0  0  0  0  0  0  0  0
    2.3028   -2.0164   -1.7052 H   0  0  0  0  0  0  0  0  0  0  0  0
  1  2  1  0
  2  3  2  3
  3  4  1  0
  4  5  1  0
  5  6  1  0
  6  7  1  0
  7  8  1  0
  7  9  2  0
  2 10  1  0
 10 11  2  0
 11 12  1  0
 12 13  1  0
 13 14  2  0
 14 15  1  0
 15 16  2  0
 16 17  1  0
 16 18  1  0
 18 19  2  0
 19 20  1  0
 11 21  1  0
 21 22  1  0
 22 23  2  0
 23 24  1  0
 24 25  1  0
 24 26  1  0
 26  1  1  0
 19 13  1  0
 26 21  2  0
  1 27  1  0
  4 28  1  0
  4 29  1  0
  5 30  1  0
  5 31  1  0
  6 32  1  0
  8 33  1  0
  8 34  1  0
  8 35  1  0
 12 36  1  0
 14 37  1  0
 15 38  1  0
 17 39  1  0
 18 40  1  0
 20 41  1  0
 20 42  1  0
 20 43  1  0
 22 44  1  0
 25 45  1  0
 25 46  1  0
 25 47  1  0
M  END
>  <ScrubInfo>  (4) 
{"isomerGroup": 0, "isomerId": 3, "confId": 0, "nr_conformers:": 1, "nr_isomers:": 9}

$$$$
_i4
     RDKit          3D

 47 49  0  0  0  0  0  0  0  0999 V2000
   -2.5268    3.3274   -0.0703 N   0  0  0  0  0  0  0  0  0  0  0  0
   -2.4243    1.9900    0.2972 C   0  0  0  0  0  0  0  0  0  0  0  0
   -1.2305    1.4474    0.0127 C   0  0  0  0  0  0  0  0  0  0  0  0
   -0.5288    0.1790    0.1592 C   0  0  0  0  0  0  0  0  0  0  0  0
   -0.9350   -0.9647    0.6009 N   0  0  0  0  0  0  0  0  0  0  0  0
   -2.2524   -1.1324    1.0395 C   0  0  0  0  0  0  0  0  0  0  0  0
   -2.5546   -0.9086    2.3886 C   0  0  0  0  0  0  0  0  0  0  0  0
   -3.8566   -1.0693    2.8609 C   0  0  0  0  0  0  0  0  0  0  0  0
   -4.8553   -1.4736    1.9858 C   0  0  0  0  0  0  0  0  0  0  0  0
   -6.1159   -1.6165    2.4849 O   0  0  0  0  0  0  0  0  0  0  0  0
   -4.5731   -1.7291    0.6463 C   0  0  0  0  0  0  0  0  0  0  0  0
   -3.2631   -1.5741    0.1641 C   0  0  0  0  0  0  0  0  0  0  0  0
   -2.9561   -1.8619   -1.2788 C   0  0  0  0  0  0  0  0  0  0  0  0
    0.7779    0.2206   -0.2470 N   0  0  0  0  0  0  0  0  0  0  0  0
    1.3310    1.2646   -0.7796 C   0  0  0  0  0  0  0  0  0  0  0  0
    2.6400    1.2457   -1.1705 N   0  0  0  0  0  0  0  0  0  0  0  0
    3.6402    0.3834   -0.5542 C   0  0  0  0  0  0  0  0  0  0  0  0
    3.3793   -1.1105   -0.8128 C   0  0  0  0  0  0  0  0  0  0  0  0
    4.5826   -1.9335   -0.8591 N   0  0  0  0  0  0  0  0  0  0  0  0
    5.4613   -1.9883    0.1985 C   0  0  0  0  0  0  0  0  0  0  0  0
    6.5307   -3.0382    0.0564 C   0  0  0  0  0  0  0  0  0  0  0  0
    5.3997   -1.2523    1.1770 O   0  0  0  0  0  0  0  0  0  0  0  0
    0.7044    2.4586   -1.0126 N   0  0  0  0  0  0  0  0  0  0  0  0
   -0.5261    2.5622   -0.6482 C   0  0  0  0  0  0  0  0  0  0  0  0
   -1.3798    3.6594   -0.7762 N   0  0  0  0  0  0  0  0  0  0  0  0
   -0.8697    5.0146   -0.6929 C   0  0  0  0  0  0  0  0  0  0  0  0
   -3.4171    3.5579   -0.5174 H   0  0  0  0  0  0  0  0  0  0  0  0
   -3.2804    1.5198    0.7586 H   0  0  0  0  0  0  0  0  0  0  0  0
   -1.7650   -0.6072    3.0722 H   0  0  0  0  0  0  0  0  0  0  0  0
   -4.0856   -0.8883    3.9069 H   0  0  0  0  0  0  0  0  0  0  0  0
   -6.6868   -1.9811    1.7890 H   0  0  0  0  0  0  0  0  0  0  0  0
   -5.3587   -2.0559   -0.0285 H   0  0  0  0  0  0  0  0  0  0  0  0
   -2.7428   -0.9309   -1.8131 H   0  0  0  0  0  0  0  0  0  0  0  0
   -2.0970   -2.5353   -1.3630 H   0  0  0  0  0  0  0  0  0  0  0  0
   -3.8004   -2.3507   -1.7767 H   0  0  0  0  0  0  0  0  0  0  0  0
    2.9691    2.1852   -1.3572 H   0  0  0  0  0  0  0  0  0  0  0  0
    4.6128    0.6605   -0.9778 H   0  0  0  0  0  0  0  0  0  0  0  0
    3.6927    0.5883    0.5211 H   0  0  0  0  0  0  0  0  0  0  0  0
    2.7334   -1.5274   -0.0326 H   0  0  0  0  0  0  0  0  0  0  0  0
    2.8803   -1.2529   -1.7780 H   0  0  0  0  0  0  0  0  0  0  0  0
    4.5594   -2.7238   -1.4898 H   0  0  0  0  0  0  0  0  0  0  0  0
    6.5779   -3.4319   -0.9627 H   0  0  0  0  0  0  0  0  0  0  0  0
    7.5010   -2.5945    0.2960 H   0  0  0  0  0  0  0  0  0  0  0  0
    6.3195   -3.8593    0.7463 H   0  0  0  0  0  0  0  0  0  0  0  0
   -1.6674    5.7350   -0.9015 H   0  0  0  0  0  0  0  0  0  0  0  0
   -0.0757    5.1734   -1.4295 H   0  0  0  0  0  0  0  0  0  0  0  0
   -0.4684    5.2190    0.3052 H   0  0  0  0  0  0  0  0  0  0  0  0
  1  2  1  0
  2  3  2  0
  3  4  1  0
  4  5  2  3
  5  6  1  0
  6  7  2  0
  7  8  1  0
  8  9  2  0
  9 10  1  0
  9 11  1  0
 11 12  2  0
 12 13  1  0
  4 14  1  0
 14 15  2  0
 15 16  1  0
 16 17  1  0
 17 18  1  0
 18 19  1  0
 19 20  1  0
 20 21  1  0
 20 22  2  0
 15 23  1  0
 23 24  2  0
 24 25  1  0
 25 26  1  0
 25  1  1  0
 24  3  1  0
 12  6  1  0
  1 27  1  0
  2 28  1  0
  7 29  1  0
  8 30  1  0
 10 31  1  0
 11 32  1  0
 13 33  1  0
 13 34  1  0
 13 35  1  0
 16 36  1  0
 17 37  1  0
 17 38  1  0
 18 39  1  0
 18 40  1  0
 19 41  1  0
 21 42  1  0
 21 43  1  0
 21 44  1  0
 26 45  1  0
 26 46  1  0
 26 47  1  0
M  END
>  <ScrubInfo>  (5) 
{"isomerGroup": 0, "isomerId": 4, "confId": 0, "nr_conformers:": 1, "nr_isomers:": 9}

$$$$
_i5
     RDKit          3D

 47 49  0  0  0  0  0  0  0  0999 V2000
    0.6169   -1.6445   -0.5529 N   0  0  0  0  0  0  0  0  0  0  0  0
    0.1941   -0.3564   -0.3195 C   0  0  0  0  0  0  0  0  0  0  0  0
    1.1013    0.6207   -0.6117 N   0  0  0  0  0  0  0  0  0  0  0  0
    2.4630    0.5925   -0.0845 C   0  0  0  0  0  0  0  0  0  0  0  0
    3.3533    1.5658   -0.8711 C   0  0  0  0  0  0  0  0  0  0  0  0
    4.7162    1.6378   -0.3738 N   0  0  0  0  0  0  0  0  0  0  0  0
    5.5846    0.5798   -0.5221 C   0  0  0  0  0  0  0  0  0  0  0  0
    6.9926    0.8638   -0.0732 C   0  0  0  0  0  0  0  0  0  0  0  0
    5.2507   -0.5074   -0.9819 O   0  0  0  0  0  0  0  0  0  0  0  0
   -0.9835   -0.0091    0.1234 N   0  0  0  0  0  0  0  0  0  0  0  0
   -1.9173   -0.9993    0.4046 C   0  0  0  0  0  0  0  0  0  0  0  0
   -3.1064   -0.7737    0.8650 N   0  0  0  0  0  0  0  0  0  0  0  0
   -3.4845    0.5576    1.0997 C   0  0  0  0  0  0  0  0  0  0  0  0
   -3.2855    1.1040    2.3750 C   0  0  0  0  0  0  0  0  0  0  0  0
   -3.6677    2.4156    2.6606 C   0  0  0  0  0  0  0  0  0  0  0  0
   -4.2598    3.1805    1.6635 C   0  0  0  0  0  0  0  0  0  0  0  0
   -4.6465    4.4682    1.8930 O   0  0  0  0  0  0  0  0  0  0  0  0
   -4.4816    2.6533    0.3955 C   0  0  0  0  0  0  0  0  0  0  0  0
   -4.1105    1.3311    0.1046 C   0  0  0  0  0  0  0  0  0  0  0  0
   -4.3544    0.7715   -1.2675 C   0  0  0  0  0  0  0  0  0  0  0  0
   -1.5234   -2.3627    0.1560 C   0  0  0  0  0  0  0  0  0  0  0  0
   -2.1281   -3.6219    0.2625 C   0  0  0  0  0  0  0  0  0  0  0  0
   -1.3087   -4.6143   -0.1251 N   0  0  0  0  0  0  0  0  0  0  0  0
   -0.1683   -3.9711   -0.4835 N   0  0  0  0  0  0  0  0  0  0  0  0
    0.9532   -4.7410   -0.9574 C   0  0  0  0  0  0  0  0  0  0  0  0
   -0.2691   -2.6268   -0.3189 C   0  0  0  0  0  0  0  0  0  0  0  0
    1.4813   -1.7702   -1.0639 H   0  0  0  0  0  0  0  0  0  0  0  0
    0.6568    1.5199   -0.4314 H   0  0  0  0  0  0  0  0  0  0  0  0
    2.4457    0.8767    0.9745 H   0  0  0  0  0  0  0  0  0  0  0  0
    2.8808   -0.4171   -0.1346 H   0  0  0  0  0  0  0  0  0  0  0  0
    3.3895    1.2747   -1.9277 H   0  0  0  0  0  0  0  0  0  0  0  0
    2.9400    2.5794   -0.8207 H   0  0  0  0  0  0  0  0  0  0  0  0
    5.0969    2.5514   -0.1607 H   0  0  0  0  0  0  0  0  0  0  0  0
    7.3339    0.0476    0.5696 H   0  0  0  0  0  0  0  0  0  0  0  0
    7.0556    1.7959    0.4951 H   0  0  0  0  0  0  0  0  0  0  0  0
    7.6395    0.9382   -0.9511 H   0  0  0  0  0  0  0  0  0  0  0  0
   -2.8244    0.4944    3.1471 H   0  0  0  0  0  0  0  0  0  0  0  0
   -3.4960    2.8134    3.6548 H   0  0  0  0  0  0  0  0  0  0  0  0
   -4.4683    4.6806    2.8235 H   0  0  0  0  0  0  0  0  0  0  0  0
   -4.9507    3.2745   -0.3628 H   0  0  0  0  0  0  0  0  0  0  0  0
   -4.8418   -0.2069   -1.2048 H   0  0  0  0  0  0  0  0  0  0  0  0
   -5.0127    1.4227   -1.8525 H   0  0  0  0  0  0  0  0  0  0  0  0
   -3.4084    0.6723   -1.8088 H   0  0  0  0  0  0  0  0  0  0  0  0
   -3.1285   -3.8611    0.5999 H   0  0  0  0  0  0  0  0  0  0  0  0
    1.2016   -5.4915   -0.2026 H   0  0  0  0  0  0  0  0  0  0  0  0
    0.6666   -5.2224   -1.8958 H   0  0  0  0  0  0  0  0  0  0  0  0
    1.8116   -4.0863   -1.1218 H   0  0  0  0  0  0  0  0  0  0  0  0
  1  2  1  0
  2  3  1  0
  3  4  1  0
  4  5  1  0
  5  6  1  0
  6  7  1  0
  7  8  1  0
  7  9  2  0
  2 10  2  0
 10 11  1  0
 11 12  2  3
 12 13  1  0
 13 14  2  0
 14 15  1  0
 15 16  2  0
 16 17  1  0
 16 18  1  0
 18 19  2  0
 19 20  1  0
 11 21  1  0
 21 22  1  0
 22 23  2  0
 23 24  1  0
 24 25  1  0
 24 26  1  0
 26  1  1  0
 19 13  1  0
 26 21  2  0
  1 27  1  0
  3 28  1  0
  4 29  1  0
  4 30  1  0
  5 31  1  0
  5 32  1  0
  6 33  1  0
  8 34  1  0
  8 35  1  0
  8 36  1  0
 14 37  1  0
 15 38  1  0
 17 39  1  0
 18 40  1  0
 20 41  1  0
 20 42  1  0
 20 43  1  0
 22 44  1  0
 25 45  1  0
 25 46  1  0
 25 47  1  0
M  END
>  <ScrubInfo>  (6) 
{"isomerGroup": 0, "isomerId": 5, "confId": 0, "nr_conformers:": 1, "nr_isomers:": 9}

$$$$
_i6
     RDKit          3D

 47 49  0  0  0  0  0  0  0  0999 V2000
   -2.4790   -2.0633   -3.6889 N   0  0  0  0  0  0  0  0  0  0  0  0
   -2.4812   -1.6709   -2.3548 C   0  0  0  0  0  0  0  0  0  0  0  0
   -1.5013   -0.8033   -2.0646 C   0  0  0  0  0  0  0  0  0  0  0  0
   -0.9711   -0.1006   -0.8931 C   0  0  0  0  0  0  0  0  0  0  0  0
   -1.5634   -0.2993    0.3401 N   0  0  0  0  0  0  0  0  0  0  0  0
   -1.2994    0.3383    1.5713 C   0  0  0  0  0  0  0  0  0  0  0  0
   -0.6944    1.6034    1.6424 C   0  0  0  0  0  0  0  0  0  0  0  0
   -0.3798    2.1999    2.8667 C   0  0  0  0  0  0  0  0  0  0  0  0
   -0.6706    1.5293    4.0431 C   0  0  0  0  0  0  0  0  0  0  0  0
   -0.3809    2.0664    5.2609 O   0  0  0  0  0  0  0  0  0  0  0  0
   -1.2683    0.2772    4.0121 C   0  0  0  0  0  0  0  0  0  0  0  0
   -1.5788   -0.3353    2.7849 C   0  0  0  0  0  0  0  0  0  0  0  0
   -2.1949   -1.7089    2.8111 C   0  0  0  0  0  0  0  0  0  0  0  0
    0.0773    0.6544   -1.0754 N   0  0  0  0  0  0  0  0  0  0  0  0
    0.6290    0.7729   -2.3346 C   0  0  0  0  0  0  0  0  0  0  0  0
    1.6603    1.5156   -2.5086 N   0  0  0  0  0  0  0  0  0  0  0  0
    2.2238    2.2983   -1.4070 C   0  0  0  0  0  0  0  0  0  0  0  0
    3.2067    1.4811   -0.5647 C   0  0  0  0  0  0  0  0  0  0  0  0
    2.5334    0.6004    0.3687 N   0  0  0  0  0  0  0  0  0  0  0  0
    3.2070   -0.0668    1.3589 C   0  0  0  0  0  0  0  0  0  0  0  0
    2.3432   -0.9972    2.1662 C   0  0  0  0  0  0  0  0  0  0  0  0
    4.3993    0.0915    1.6010 O   0  0  0  0  0  0  0  0  0  0  0  0
    0.1936    0.1600   -3.4829 N   0  0  0  0  0  0  0  0  0  0  0  0
   -0.8490   -0.5838   -3.3724 C   0  0  0  0  0  0  0  0  0  0  0  0
   -1.5318   -1.2962   -4.3572 N   0  0  0  0  0  0  0  0  0  0  0  0
   -0.8283   -1.8606   -5.4937 C   0  0  0  0  0  0  0  0  0  0  0  0
   -3.4092   -2.0947   -4.1138 H   0  0  0  0  0  0  0  0  0  0  0  0
   -3.2307   -2.0842   -1.6963 H   0  0  0  0  0  0  0  0  0  0  0  0
   -2.2902   -0.9996    0.3959 H   0  0  0  0  0  0  0  0  0  0  0  0
   -0.4734    2.1644    0.7385 H   0  0  0  0  0  0  0  0  0  0  0  0
    0.0864    3.1801    2.8734 H   0  0  0  0  0  0  0  0  0  0  0  0
    0.0870    2.9073    5.1258 H   0  0  0  0  0  0  0  0  0  0  0  0
   -1.4791   -0.2254    4.9534 H   0  0  0  0  0  0  0  0  0  0  0  0
   -1.5852   -2.4107    2.2326 H   0  0  0  0  0  0  0  0  0  0  0  0
   -2.2643   -2.1023    3.8309 H   0  0  0  0  0  0  0  0  0  0  0  0
   -3.2083   -1.6763    2.3986 H   0  0  0  0  0  0  0  0  0  0  0  0
    2.7744    3.1298   -1.8624 H   0  0  0  0  0  0  0  0  0  0  0  0
    1.4455    2.7579   -0.7865 H   0  0  0  0  0  0  0  0  0  0  0  0
    3.8573    0.8672   -1.1973 H   0  0  0  0  0  0  0  0  0  0  0  0
    3.8441    2.1557    0.0180 H   0  0  0  0  0  0  0  0  0  0  0  0
    1.5728    0.3487    0.1498 H   0  0  0  0  0  0  0  0  0  0  0  0
    2.9310   -1.8730    2.4552 H   0  0  0  0  0  0  0  0  0  0  0  0
    1.4829   -1.3440    1.5874 H   0  0  0  0  0  0  0  0  0  0  0  0
    1.9943   -0.4780    3.0622 H   0  0  0  0  0  0  0  0  0  0  0  0
   -0.1345   -2.6439   -5.1712 H   0  0  0  0  0  0  0  0  0  0  0  0
   -1.5394   -2.2961   -6.2031 H   0  0  0  0  0  0  0  0  0  0  0  0
   -0.2626   -1.0857   -6.0207 H   0  0  0  0  0  0  0  0  0  0  0  0
  1  2  1  0
  2  3  2  0
  3  4  1  0
  4  5  1  0
  5  6  1  0
  6  7  2  0
  7  8  1  0
  8  9  2  0
  9 10  1  0
  9 11  1  0
 11 12  2  0
 12 13  1  0
  4 14  2  0
 14 15  1  0
 15 16  2  3
 16 17  1  0
 17 18  1  0
 18 19  1  0
 19 20  1  0
 20 21  1  0
 20 22  2  0
 15 23  1  0
 23 24  2  0
 24 25  1  0
 25 26  1  0
 25  1  1  0
 24  3  1  0
 12  6  1  0
  1 27  1  0
  2 28  1  0
  5 29  1  0
  7 30  1  0
  8 31  1  0
 10 32  1  0
 11 33  1  0
 13 34  1  0
 13 35  1  0
 13 36  1  0
 17 37  1  0
 17 38  1  0
 18 39  1  0
 18 40  1  0
 19 41  1  0
 21 42  1  0
 21 43  1  0
 21 44  1  0
 26 45  1  0
 26 46  1  0
 26 47  1  0
M  END
>  <ScrubInfo>  (7) 
{"isomerGroup": 0, "isomerId": 6, "confId": 0, "nr_conformers:": 1, "nr_isomers:": 9}

$$$$
_i7
     RDKit          3D

 47 49  0  0  0  0  0  0  0  0999 V2000
   -1.4755    2.8070    0.4403 N   0  0  0  0  0  0  0  0  0  0  0  0
   -2.1339    1.5880    0.3242 C   0  0  0  0  0  0  0  0  0  0  0  0
   -1.3054    0.5379    0.2322 C   0  0  0  0  0  0  0  0  0  0  0  0
   -1.3460   -0.9273    0.0562 C   0  0  0  0  0  0  0  0  0  0  0  0
   -2.3740   -1.7203   -0.0197 N   0  0  0  0  0  0  0  0  0  0  0  0
   -3.6765   -1.2172    0.0808 C   0  0  0  0  0  0  0  0  0  0  0  0
   -4.2786   -1.1434    1.3443 C   0  0  0  0  0  0  0  0  0  0  0  0
   -5.5789   -0.6582    1.4897 C   0  0  0  0  0  0  0  0  0  0  0  0
   -6.2809   -0.2555    0.3608 C   0  0  0  0  0  0  0  0  0  0  0  0
   -7.5507    0.2319    0.4511 O   0  0  0  0  0  0  0  0  0  0  0  0
   -5.7098   -0.3424   -0.9050 C   0  0  0  0  0  0  0  0  0  0  0  0
   -4.4076   -0.8416   -1.0607 C   0  0  0  0  0  0  0  0  0  0  0  0
   -3.8053   -0.9430   -2.4330 C   0  0  0  0  0  0  0  0  0  0  0  0
   -0.0934   -1.4703   -0.0372 N   0  0  0  0  0  0  0  0  0  0  0  0
    1.1038   -0.8172    0.0369 C   0  0  0  0  0  0  0  0  0  0  0  0
    2.1905   -1.5080   -0.0854 N   0  0  0  0  0  0  0  0  0  0  0  0
    3.4575   -0.7754    0.0189 C   0  0  0  0  0  0  0  0  0  0  0  0
    4.6141   -1.7725   -0.1081 C   0  0  0  0  0  0  0  0  0  0  0  0
    5.9074   -1.1207   -0.2139 N   0  0  0  0  0  0  0  0  0  0  0  0
    6.5611   -0.6245    0.8891 C   0  0  0  0  0  0  0  0  0  0  0  0
    7.8530    0.0798    0.5718 C   0  0  0  0  0  0  0  0  0  0  0  0
    6.1406   -0.7218    2.0367 O   0  0  0  0  0  0  0  0  0  0  0  0
    1.1703    0.5448    0.2384 N   0  0  0  0  0  0  0  0  0  0  0  0
    0.0490    1.1864    0.3509 C   0  0  0  0  0  0  0  0  0  0  0  0
   -0.1195    2.5535    0.5819 N   0  0  0  0  0  0  0  0  0  0  0  0
    0.8389    3.5226    0.0873 C   0  0  0  0  0  0  0  0  0  0  0  0
   -1.8942    3.4296    1.1352 H   0  0  0  0  0  0  0  0  0  0  0  0
   -3.2139    1.5914    0.3139 H   0  0  0  0  0  0  0  0  0  0  0  0
   -3.7234   -1.4709    2.2197 H   0  0  0  0  0  0  0  0  0  0  0  0
   -6.0197   -0.6069    2.4798 H   0  0  0  0  0  0  0  0  0  0  0  0
   -7.8443    0.1678    1.3749 H   0  0  0  0  0  0  0  0  0  0  0  0
   -6.2894   -0.0300   -1.7702 H   0  0  0  0  0  0  0  0  0  0  0  0
   -4.5592   -0.7878   -3.2121 H   0  0  0  0  0  0  0  0  0  0  0  0
   -3.0260   -0.1854   -2.5610 H   0  0  0  0  0  0  0  0  0  0  0  0
   -3.3755   -1.9372   -2.5929 H   0  0  0  0  0  0  0  0  0  0  0  0
   -0.0377   -2.4695   -0.1637 H   0  0  0  0  0  0  0  0  0  0  0  0
    3.5354   -0.0337   -0.7862 H   0  0  0  0  0  0  0  0  0  0  0  0
    3.5335   -0.2535    0.9806 H   0  0  0  0  0  0  0  0  0  0  0  0
    4.6243   -2.4481    0.7551 H   0  0  0  0  0  0  0  0  0  0  0  0
    4.4930   -2.3850   -1.0084 H   0  0  0  0  0  0  0  0  0  0  0  0
    6.2417   -0.8837   -1.1379 H   0  0  0  0  0  0  0  0  0  0  0  0
    7.7054    1.1585    0.6690 H   0  0  0  0  0  0  0  0  0  0  0  0
    8.1962   -0.1435   -0.4422 H   0  0  0  0  0  0  0  0  0  0  0  0
    8.6231   -0.2526    1.2734 H   0  0  0  0  0  0  0  0  0  0  0  0
    0.5876    4.5254    0.4480 H   0  0  0  0  0  0  0  0  0  0  0  0
    0.8459    3.5385   -1.0075 H   0  0  0  0  0  0  0  0  0  0  0  0
    1.8470    3.2841    0.4411 H   0  0  0  0  0  0  0  0  0  0  0  0
  1  2  1  0
  2  3  2  0
  3  4  1  0
  4  5  2  3
  5  6  1  0
  6  7  2  0
  7  8  1  0
  8  9  2  0
  9 10  1  0
  9 11  1  0
 11 12  2  0
 12 13  1  0
  4 14  1  0
 14 15  1  0
 15 16  2  3
 16 17  1  0
 17 18  1  0
 18 19  1  0
 19 20  1  0
 20 21  1  0
 20 22  2  0
 15 23  1  0
 23 24  2  0
 24 25  1  0
 25 26  1  0
 25  1  1  0
 24  3  1  0
 12  6  1  0
  1 27  1  0
  2 28  1  0
  7 29  1  0
  8 30  1  0
 10 31  1  0
 11 32  1  0
 13 33  1  0
 13 34  1  0
 13 35  1  0
 14 36  1  0
 17 37  1  0
 17 38  1  0
 18 39  1  0
 18 40  1  0
 19 41  1  0
 21 42  1  0
 21 43  1  0
 21 44  1  0
 26 45  1  0
 26 46  1  0
 26 47  1  0
M  END
>  <ScrubInfo>  (8) 
{"isomerGroup": 0, "isomerId": 7, "confId": 0, "nr_conformers:": 1, "nr_isomers:": 9}

$$$$
_i8
     RDKit          3D

 47 49  0  0  0  0  0  0  0  0999 V2000
    1.3238    0.4938    0.5289 N   0  0  0  0  0  0  0  0  0  0  0  0
    0.8664    1.7774    0.2702 C   0  0  0  0  0  0  0  0  0  0  0  0
    1.5492    2.8658    0.1221 N   0  0  0  0  0  0  0  0  0  0  0  0
    3.0007    2.7950    0.2892 C   0  0  0  0  0  0  0  0  0  0  0  0
    3.6773    2.2890   -0.9908 C   0  0  0  0  0  0  0  0  0  0  0  0
    4.9702    1.6819   -0.7336 N   0  0  0  0  0  0  0  0  0  0  0  0
    5.0693    0.4646   -0.1030 C   0  0  0  0  0  0  0  0  0  0  0  0
    6.4738   -0.0514    0.0504 C   0  0  0  0  0  0  0  0  0  0  0  0
    4.0927   -0.1486    0.3239 O   0  0  0  0  0  0  0  0  0  0  0  0
   -0.5054    1.8519    0.1551 N   0  0  0  0  0  0  0  0  0  0  0  0
   -1.4923    0.8953    0.2552 C   0  0  0  0  0  0  0  0  0  0  0  0
   -2.7453    1.2084    0.1101 N   0  0  0  0  0  0  0  0  0  0  0  0
   -3.7687    0.2611    0.2093 C   0  0  0  0  0  0  0  0  0  0  0  0
   -4.3588    0.0260    1.4575 C   0  0  0  0  0  0  0  0  0  0  0  0
   -5.3977   -0.8945    1.5900 C   0  0  0  0  0  0  0  0  0  0  0  0
   -5.8582   -1.5707    0.4689 C   0  0  0  0  0  0  0  0  0  0  0  0
   -6.8712   -2.4667    0.6406 O   0  0  0  0  0  0  0  0  0  0  0  0
   -5.3044   -1.3342   -0.7868 C   0  0  0  0  0  0  0  0  0  0  0  0
   -4.2633   -0.4022   -0.9301 C   0  0  0  0  0  0  0  0  0  0  0  0
   -3.6719   -0.1439   -2.2873 C   0  0  0  0  0  0  0  0  0  0  0  0
   -0.9184   -0.4123    0.5218 C   0  0  0  0  0  0  0  0  0  0  0  0
   -1.3800   -1.7290    0.7071 C   0  0  0  0  0  0  0  0  0  0  0  0
   -0.3871   -2.6069    0.9176 N   0  0  0  0  0  0  0  0  0  0  0  0
    0.7286   -1.8445    0.8780 N   0  0  0  0  0  0  0  0  0  0  0  0
    2.0200   -2.4534    1.0766 C   0  0  0  0  0  0  0  0  0  0  0  0
    0.4491   -0.5337    0.6405 C   0  0  0  0  0  0  0  0  0  0  0  0
    2.3339    0.3335    0.5653 H   0  0  0  0  0  0  0  0  0  0  0  0
    3.3722    3.8029    0.5102 H   0  0  0  0  0  0  0  0  0  0  0  0
    3.2632    2.2006    1.1724 H   0  0  0  0  0  0  0  0  0  0  0  0
    3.0606    1.5404   -1.5009 H   0  0  0  0  0  0  0  0  0  0  0  0
    3.8302    3.1173   -1.6908 H   0  0  0  0  0  0  0  0  0  0  0  0
    5.8013    2.1513   -1.0705 H   0  0  0  0  0  0  0  0  0  0  0  0
    6.5205   -1.0763   -0.3276 H   0  0  0  0  0  0  0  0  0  0  0  0
    7.1918    0.5549   -0.5085 H   0  0  0  0  0  0  0  0  0  0  0  0
    6.7464   -0.0346    1.1089 H   0  0  0  0  0  0  0  0  0  0  0  0
   -0.8506    2.7830   -0.0257 H   0  0  0  0  0  0  0  0  0  0  0  0
   -4.0014    0.5639    2.3315 H   0  0  0  0  0  0  0  0  0  0  0  0
   -5.8450   -1.0796    2.5621 H   0  0  0  0  0  0  0  0  0  0  0  0
   -7.0871   -2.8608   -0.2202 H   0  0  0  0  0  0  0  0  0  0  0  0
   -5.6770   -1.8618   -1.6598 H   0  0  0  0  0  0  0  0  0  0  0  0
   -2.6614   -0.5603   -2.3449 H   0  0  0  0  0  0  0  0  0  0  0  0
   -4.2726   -0.6043   -3.0789 H   0  0  0  0  0  0  0  0  0  0  0  0
   -3.6349    0.9308   -2.4932 H   0  0  0  0  0  0  0  0  0  0  0  0
   -2.3925   -2.1081    0.6975 H   0  0  0  0  0  0  0  0  0  0  0  0
    2.5639   -1.8821    1.8324 H   0  0  0  0  0  0  0  0  0  0  0  0
    1.8886   -3.4821    1.4226 H   0  0  0  0  0  0  0  0  0  0  0  0
    2.5516   -2.4471    0.1223 H   0  0  0  0  0  0  0  0  0  0  0  0
  1  2  1  0
  2  3  2  3
  3  4  1  0
  4  5  1  0
  5  6  1  0
  6  7  1  0
  7  8  1  0
  7  9  2  0
  2 10  1  0
 10 11  1  0
 11 12  2  3
 12 13  1  0
 13 14  2  0
 14 15  1  0
 15 16  2  0
 16 17  1  0
 16 18  1  0
 18 19  2  0
 19 20  1  0
 11 21  1  0
 21 22  1  0
 22 23  2  0
 23 24  1  0
 24 25  1  0
 24 26  1  0
 26  1  1  0
 19 13  1  0
 26 21  2  0
  1 27  1  0
  4 28  1  0
  4 29  1  0
  5 30  1  0
  5 31  1  0
  6 32  1  0
  8 33  1  0
  8 34  1  0
  8 35  1  0
 10 36  1  0
 14 37  1  0
 15 38  1  0
 17 39  1  0
 18 40  1  0
 20 41  1  0
 20 42  1  0
 20 43  1  0
 22 44  1  0
 25 45  1  0
 25 46  1  0
 25 47  1  0
M  END
>  <ScrubInfo>  (9) 
{"isomerGroup": 0, "isomerId": 8, "confId": 0, "nr_conformers:": 1, "nr_isomers:": 9}

$$$$
