REMARK SMILES CC(=O)NCCNc1nc(Nc2ccc(O)cc2C)c2cnn(C)c2n1
REMARK SMILES IDX 8 1 9 2 10 3 20 4 21 5 22 6 23 7 24 8 25 9 26 10 7 11 6 13
REMARK SMILES IDX 5 14 4 15 2 16 1 17 3 18 11 20 12 22 13 23 18 24 14 25 17 26
REMARK SMILES IDX 15 27 19 28 16 29
REMARK H PARENT 7 12 4 19 11 21 16 30
ROOT
ATOM      1  C   UNL     1       0.864  -0.923  -0.214  1.00  0.00     0.226 A 
ATOM      2  N   UNL     1      -0.293  -0.243  -0.150  1.00  0.00    -0.195 NA
ATOM      3  C   UNL     1      -1.473  -0.887   0.060  1.00  0.00     0.147 A 
ATOM      4  C   UNL     1      -1.411  -2.279   0.210  1.00  0.00     0.082 A 
ATOM      5  C   UNL     1      -2.293  -3.356   0.441  1.00  0.00     0.149 A 
ATOM      6  N   UNL     1      -1.671  -4.538   0.496  1.00  0.00    -0.179 NA
ATOM      7  N   UNL     1      -0.371  -4.212   0.299  1.00  0.00    -0.250 N 
ATOM      8  C   UNL     1       0.628  -5.250   0.299  1.00  0.00     0.176 C 
ATOM      9  C   UNL     1      -0.167  -2.872   0.119  1.00  0.00     0.165 A 
ATOM     10  N   UNL     1       1.001  -2.249  -0.097  1.00  0.00    -0.193 NA
ENDROOT
BRANCH   1  11
ATOM     11  N   UNL     1       1.987  -0.126  -0.417  1.00  0.00    -0.352 N 
ATOM     12  H   UNL     1       1.613   0.768  -0.724  1.00  0.00     0.163 HD
BRANCH  11  13
ATOM     13  C   UNL     1       2.976  -0.715  -1.318  1.00  0.00     0.137 C 
BRANCH  13  14
ATOM     14  C   UNL     1       4.142   0.262  -1.510  1.00  0.00     0.137 C 
BRANCH  14  15
ATOM     15  N   UNL     1       4.723   0.652  -0.237  1.00  0.00    -0.355 N 
ATOM     16  C   UNL     1       5.889   1.375  -0.182  1.00  0.00     0.216 C 
ATOM     17  C   UNL     1       6.271   1.826   1.202  1.00  0.00     0.114 C 
ATOM     18  O   UNL     1       6.568   1.642  -1.168  1.00  0.00    -0.275 OA
ATOM     19  H   UNL     1       4.084   0.680   0.551  1.00  0.00     0.163 HD
ENDBRANCH  14  15
ENDBRANCH  13  14
ENDBRANCH  11  13
ENDBRANCH   1  11
BRANCH   3  20
ATOM     20  N   UNL     1      -2.691  -0.197   0.157  1.00  0.00    -0.339 N 
ATOM     21  H   UNL     1      -3.471  -0.793   0.389  1.00  0.00     0.168 HD
BRANCH  20  22
ATOM     22  C   UNL     1      -3.046   1.145  -0.092  1.00  0.00     0.043 A 
ATOM     23  C   UNL     1      -2.189   2.034  -0.759  1.00  0.00     0.030 A 
ATOM     24  C   UNL     1      -4.280   1.649   0.389  1.00  0.00    -0.024 A 
ATOM     25  C   UNL     1      -2.543   3.369  -0.975  1.00  0.00     0.048 A 
ATOM     26  C   UNL     1      -4.630   2.995   0.164  1.00  0.00     0.051 A 
ATOM     27  C   UNL     1      -3.760   3.839  -0.514  1.00  0.00     0.115 A 
ATOM     28  C   UNL     1      -5.250   0.779   1.147  1.00  0.00     0.047 C 
BRANCH  27  29
ATOM     29  O   UNL     1      -4.068   5.146  -0.746  1.00  0.00    -0.508 OA
ATOM     30  H   UNL     1      -4.937   5.334  -0.357  1.00  0.00     0.293 HD
ENDBRANCH  27  29
ENDBRANCH  20  22
ENDBRANCH   3  20
TORSDOF 7
