REMARK SMILES OC[C@H]1CCCC[N@H+]1CCNc1cc(-c2ccc(F)cc2)nc2ccnn12
REMARK SMILES IDX 9 1 8 2 3 3 4 4 7 5 5 6 6 7 2 9 1 10 10 12 11 13 12 15 13 16
REMARK SMILES IDX 27 17 14 18 26 19 23 20 22 21 25 22 24 23 15 24 16 25 21 26
REMARK SMILES IDX 17 27 20 28 18 29 19 30
REMARK H PARENT 8 8 1 11 11 14
ROOT
ATOM      1  C   UNL     1       1.702  -0.147   1.088  1.00  0.00     0.283 C 
ENDROOT
BRANCH   1   2
ATOM      2  N   UNL     1       2.451   0.088  -0.215  1.00  0.00    -0.329 N 
ATOM      3  C   UNL     1       3.719   0.912  -0.069  1.00  0.00     0.209 C 
ATOM      4  C   UNL     1       4.197   1.300  -1.475  1.00  0.00     0.068 C 
ATOM      5  C   UNL     1       2.594  -1.135  -1.071  1.00  0.00     0.262 C 
ATOM      6  C   UNL     1       4.353   0.099  -2.404  1.00  0.00     0.012 C 
ATOM      7  C   UNL     1       3.074  -0.730  -2.457  1.00  0.00     0.062 C 
ATOM      8  H   UNL     1       1.776   0.706  -0.706  1.00  0.00     0.348 HD
BRANCH   3   9
ATOM      9  C   UNL     1       4.796   0.185   0.767  1.00  0.00     0.220 C 
BRANCH   9  10
ATOM     10  O   UNL     1       5.907   1.048   0.975  1.00  0.00    -0.390 OA
ATOM     11  H   UNL     1       6.570   0.571   1.508  1.00  0.00     0.210 HD
ENDBRANCH   9  10
ENDBRANCH   3   9
ENDBRANCH   1   2
BRANCH   1  12
ATOM     12  C   UNL     1       0.176  -0.085   0.837  1.00  0.00     0.175 C 
BRANCH  12  13
ATOM     13  N   UNL     1      -0.157   0.565  -0.457  1.00  0.00    -0.364 N 
ATOM     14  H   UNL     1      -0.795  -0.032  -0.994  1.00  0.00     0.162 HD
BRANCH  13  15
ATOM     15  C   UNL     1      -0.582   1.913  -0.561  1.00  0.00     0.132 A 
ATOM     16  C   UNL     1      -1.521   2.288  -1.454  1.00  0.00     0.075 A 
ATOM     17  N   UNL     1      -0.003   2.932   0.248  1.00  0.00    -0.199 N 
ATOM     18  C   UNL     1      -1.899   3.740  -1.498  1.00  0.00     0.076 A 
ATOM     19  N   UNL     1       0.999   2.800   1.172  1.00  0.00    -0.173 NA
ATOM     20  C   UNL     1      -0.399   4.265   0.124  1.00  0.00     0.157 A 
ATOM     21  N   UNL     1      -1.353   4.664  -0.761  1.00  0.00    -0.228 NA
ATOM     22  C   UNL     1       1.177   4.036   1.646  1.00  0.00     0.138 A 
ATOM     23  C   UNL     1       0.346   4.980   1.032  1.00  0.00     0.071 A 
BRANCH  18  24
ATOM     24  C   UNL     1      -2.953   4.129  -2.478  1.00  0.00     0.001 A 
ATOM     25  C   UNL     1      -2.841   5.371  -3.122  1.00  0.00     0.013 A 
ATOM     26  C   UNL     1      -4.057   3.306  -2.744  1.00  0.00     0.013 A 
ATOM     27  C   UNL     1      -3.809   5.774  -4.045  1.00  0.00     0.040 A 
ATOM     28  C   UNL     1      -5.023   3.715  -3.668  1.00  0.00     0.040 A 
ATOM     29  C   UNL     1      -4.888   4.941  -4.311  1.00  0.00     0.123 A 
ATOM     30  F   UNL     1      -5.817   5.325  -5.195  1.00  0.00    -0.207 F 
ENDBRANCH  18  24
ENDBRANCH  13  15
ENDBRANCH  12  13
ENDBRANCH   1  12
TORSDOF 7
