_i0
     RDKit          3D

 52 55  0  0  0  0  0  0  0  0999 V2000
    3.7185    0.9117   -0.0690 C   0  0  0  0  0  0  0  0  0  0  0  0
    2.4508    0.0881   -0.2151 N   0  0  0  0  0  4  0  0  0  0  0  0
    2.5941   -1.1349   -1.0713 C   0  0  0  0  0  0  0  0  0  0  0  0
    1.7025   -0.1470    1.0884 C   0  0  0  0  0  0  0  0  0  0  0  0
    4.7965    0.1851    0.7670 C   0  0  0  0  0  0  0  0  0  0  0  0
    4.1975    1.3005   -1.4754 C   0  0  0  0  0  0  0  0  0  0  0  0
    5.9066    1.0477    0.9754 O   0  0  0  0  0  0  0  0  0  0  0  0
    4.3526    0.0987   -2.4041 C   0  0  0  0  0  0  0  0  0  0  0  0
    3.0737   -0.7301   -2.4573 C   0  0  0  0  0  0  0  0  0  0  0  0
    0.1757   -0.0852    0.8366 C   0  0  0  0  0  0  0  0  0  0  0  0
   -0.1571    0.5645   -0.4574 N   0  0  0  0  0  0  0  0  0  0  0  0
   -0.5815    1.9129   -0.5607 C   0  0  0  0  0  0  0  0  0  0  0  0
   -1.5207    2.2876   -1.4536 C   0  0  0  0  0  0  0  0  0  0  0  0
   -0.0025    2.9323    0.2481 N   0  0  0  0  0  0  0  0  0  0  0  0
   -1.8991    3.7397   -1.4979 C   0  0  0  0  0  0  0  0  0  0  0  0
    0.9991    2.8001    1.1717 N   0  0  0  0  0  0  0  0  0  0  0  0
   -0.3986    4.2653    0.1236 C   0  0  0  0  0  0  0  0  0  0  0  0
   -2.9531    4.1292   -2.4785 C   0  0  0  0  0  0  0  0  0  0  0  0
   -1.3531    4.6638   -0.7615 N   0  0  0  0  0  0  0  0  0  0  0  0
    1.1765    4.0356    1.6461 C   0  0  0  0  0  0  0  0  0  0  0  0
    0.3456    4.9797    1.0316 C   0  0  0  0  0  0  0  0  0  0  0  0
   -2.8410    5.3712   -3.1221 C   0  0  0  0  0  0  0  0  0  0  0  0
   -4.0574    3.3064   -2.7443 C   0  0  0  0  0  0  0  0  0  0  0  0
   -3.8086    5.7736   -4.0446 C   0  0  0  0  0  0  0  0  0  0  0  0
   -5.0234    3.7149   -3.6679 C   0  0  0  0  0  0  0  0  0  0  0  0
   -4.8882    4.9405   -4.3114 C   0  0  0  0  0  0  0  0  0  0  0  0
   -5.8169    5.3253   -5.1954 F   0  0  0  0  0  0  0  0  0  0  0  0
    3.4405    1.8365    0.4489 H   0  0  0  0  0  0  0  0  0  0  0  0
    1.7755    0.7063   -0.7061 H   0  0  0  0  0  0  0  0  0  0  0  0
    1.6152   -1.6210   -1.1348 H   0  0  0  0  0  0  0  0  0  0  0  0
    3.2937   -1.8155   -0.5761 H   0  0  0  0  0  0  0  0  0  0  0  0
    2.0112   -1.1170    1.4929 H   0  0  0  0  0  0  0  0  0  0  0  0
    2.0080    0.6238    1.8003 H   0  0  0  0  0  0  0  0  0  0  0  0
    4.4029   -0.0927    1.7495 H   0  0  0  0  0  0  0  0  0  0  0  0
    5.1571   -0.7211    0.2728 H   0  0  0  0  0  0  0  0  0  0  0  0
    5.1455    1.8476   -1.4209 H   0  0  0  0  0  0  0  0  0  0  0  0
    3.4689    1.9931   -1.9177 H   0  0  0  0  0  0  0  0  0  0  0  0
    6.5702    0.5714    1.5084 H   0  0  0  0  0  0  0  0  0  0  0  0
    4.6070    0.4450   -3.4124 H   0  0  0  0  0  0  0  0  0  0  0  0
    5.1856   -0.5295   -2.0684 H   0  0  0  0  0  0  0  0  0  0  0  0
    3.2414   -1.6269   -3.0642 H   0  0  0  0  0  0  0  0  0  0  0  0
    2.2886   -0.1507   -2.9596 H   0  0  0  0  0  0  0  0  0  0  0  0
   -0.1967   -1.1157    0.7850 H   0  0  0  0  0  0  0  0  0  0  0  0
   -0.3479    0.3845    1.6770 H   0  0  0  0  0  0  0  0  0  0  0  0
   -0.7951   -0.0319   -0.9937 H   0  0  0  0  0  0  0  0  0  0  0  0
   -1.9869    1.5963   -2.1416 H   0  0  0  0  0  0  0  0  0  0  0  0
    1.9141    4.2046    2.4215 H   0  0  0  0  0  0  0  0  0  0  0  0
    0.2862    6.0438    1.2112 H   0  0  0  0  0  0  0  0  0  0  0  0
   -2.0020    6.0309   -2.9084 H   0  0  0  0  0  0  0  0  0  0  0  0
   -4.2027    2.3637   -2.2254 H   0  0  0  0  0  0  0  0  0  0  0  0
   -3.7305    6.7317   -4.5500 H   0  0  0  0  0  0  0  0  0  0  0  0
   -5.8883    3.0939   -3.8827 H   0  0  0  0  0  0  0  0  0  0  0  0
  1  2  1  0
  2  3  1  0
  2  4  1  0
  5  1  1  0
  1  6  1  0
  7  5  1  0
  6  8  1  0
  8  9  1  0
  9  3  1  0
  4 10  1  0
 10 11  1  0
 11 12  1  0
 12 13  2  0
 14 12  1  0
 13 15  1  0
 16 14  1  0
 14 17  1  0
 15 18  1  0
 15 19  2  0
 20 16  2  0
 19 17  1  0
 17 21  2  0
 18 22  2  0
 23 18  1  0
 21 20  1  0
 22 24  1  0
 25 23  2  0
 24 26  2  0
 26 25  1  0
 26 27  1  0
  1 28  1  0
  2 29  1  0
  3 30  1  0
  3 31  1  0
  4 32  1  0
  4 33  1  0
  5 34  1  0
  5 35  1  0
  6 36  1  0
  6 37  1  0
  7 38  1  0
  8 39  1  0
  8 40  1  0
  9 41  1  0
  9 42  1  0
 10 43  1  0
 10 44  1  0
 11 45  1  0
 13 46  1  0
 20 47  1  0
 21 48  1  0
 22 49  1  0
 23 50  1  0
 24 51  1  0
 25 52  1  0
M  CHG  1   2   1
M  END
>  <ScrubInfo>  (1) 
{"isomerGroup": 0, "isomerId": 0, "confId": 0, "nr_conformers:": 1, "nr_isomers:": 3}

$$$$
_i1
     RDKit          3D

 52 55  0  0  0  0  0  0  0  0999 V2000
   -0.3837    1.7787   -5.6652 N   0  0  0  0  0  0  0  0  0  0  0  0
   -1.7173    1.8038   -5.3089 C   0  0  0  0  0  0  0  0  0  0  0  0
   -2.7079    1.9484   -6.3884 C   0  0  0  0  0  0  0  0  0  0  0  0
   -2.8170    0.9576   -7.3770 C   0  0  0  0  0  0  0  0  0  0  0  0
   -3.7520    1.0887   -8.4059 C   0  0  0  0  0  0  0  0  0  0  0  0
   -4.5727    2.2094   -8.4477 C   0  0  0  0  0  0  0  0  0  0  0  0
   -5.4694    2.3338   -9.4339 F   0  0  0  0  0  0  0  0  0  0  0  0
   -4.4761    3.2037   -7.4813 C   0  0  0  0  0  0  0  0  0  0  0  0
   -3.5428    3.0750   -6.4504 C   0  0  0  0  0  0  0  0  0  0  0  0
   -2.1252    1.6837   -4.0322 C   0  0  0  0  0  0  0  0  0  0  0  0
   -1.1240    1.5263   -2.9269 C   0  0  0  0  0  0  0  0  0  0  0  0
   -1.5597    1.4143   -1.7083 N   0  0  0  0  0  0  0  0  0  0  0  0
   -0.6181    1.2989   -0.5883 C   0  0  0  0  0  0  0  0  0  0  0  0
   -1.4287    1.2647    0.7209 C   0  0  0  0  0  0  0  0  0  0  0  0
   -2.7058    0.4533    0.5140 N   0  0  0  0  0  4  0  0  0  0  0  0
   -2.3956   -1.0186    0.4335 C   0  0  0  0  0  0  0  0  0  0  0  0
   -3.6373   -1.8169    0.0854 C   0  0  0  0  0  0  0  0  0  0  0  0
   -4.7451   -1.5587    1.0903 C   0  0  0  0  0  0  0  0  0  0  0  0
   -5.0699   -0.0753    1.1353 C   0  0  0  0  0  0  0  0  0  0  0  0
   -3.8487    0.8010    1.4674 C   0  0  0  0  0  0  0  0  0  0  0  0
   -4.2582    2.2846    1.3063 C   0  0  0  0  0  0  0  0  0  0  0  0
   -4.3297    2.6039   -0.0835 O   0  0  0  0  0  0  0  0  0  0  0  0
    0.2141    1.5194   -3.4021 N   0  0  0  0  0  0  0  0  0  0  0  0
    1.3009    1.3688   -2.5965 N   0  0  0  0  0  0  0  0  0  0  0  0
    2.3377    1.4280   -3.4394 C   0  0  0  0  0  0  0  0  0  0  0  0
    1.9493    1.5986   -4.7816 C   0  0  0  0  0  0  0  0  0  0  0  0
    0.5819    1.6442   -4.7316 C   0  0  0  0  0  0  0  0  0  0  0  0
   -0.1735    1.9186   -6.6533 H   0  0  0  0  0  0  0  0  0  0  0  0
   -2.1806    0.0754   -7.3488 H   0  0  0  0  0  0  0  0  0  0  0  0
   -3.8459    0.3267   -9.1738 H   0  0  0  0  0  0  0  0  0  0  0  0
   -5.1242    4.0728   -7.5411 H   0  0  0  0  0  0  0  0  0  0  0  0
   -3.4654    3.8650   -5.7066 H   0  0  0  0  0  0  0  0  0  0  0  0
   -3.1701    1.6933   -3.7456 H   0  0  0  0  0  0  0  0  0  0  0  0
   -0.0369    0.3740   -0.6656 H   0  0  0  0  0  0  0  0  0  0  0  0
    0.0612    2.1567   -0.5398 H   0  0  0  0  0  0  0  0  0  0  0  0
   -0.8693    0.8334    1.5571 H   0  0  0  0  0  0  0  0  0  0  0  0
   -1.7144    2.2868    0.9747 H   0  0  0  0  0  0  0  0  0  0  0  0
   -3.0131    0.7842   -0.4255 H   0  0  0  0  0  0  0  0  0  0  0  0
   -1.9885   -1.3186    1.4058 H   0  0  0  0  0  0  0  0  0  0  0  0
   -1.6347   -1.1713   -0.3366 H   0  0  0  0  0  0  0  0  0  0  0  0
   -3.3943   -2.8853    0.0723 H   0  0  0  0  0  0  0  0  0  0  0  0
   -3.9789   -1.5542   -0.9235 H   0  0  0  0  0  0  0  0  0  0  0  0
   -5.6398   -2.1265    0.8113 H   0  0  0  0  0  0  0  0  0  0  0  0
   -4.4399   -1.9050    2.0851 H   0  0  0  0  0  0  0  0  0  0  0  0
   -5.8534    0.0949    1.8840 H   0  0  0  0  0  0  0  0  0  0  0  0
   -5.4959    0.2206    0.1675 H   0  0  0  0  0  0  0  0  0  0  0  0
   -3.4977    0.5981    2.4858 H   0  0  0  0  0  0  0  0  0  0  0  0
   -3.5373    2.9547    1.7830 H   0  0  0  0  0  0  0  0  0  0  0  0
   -5.2358    2.4720    1.7636 H   0  0  0  0  0  0  0  0  0  0  0  0
   -4.6702    3.5165   -0.1553 H   0  0  0  0  0  0  0  0  0  0  0  0
    3.3423    1.3413   -3.0423 H   0  0  0  0  0  0  0  0  0  0  0  0
    2.5824    1.6714   -5.6542 H   0  0  0  0  0  0  0  0  0  0  0  0
  1  2  1  0
  2  3  1  0
  3  4  2  0
  4  5  1  0
  5  6  2  0
  6  7  1  0
  6  8  1  0
  8  9  2  0
  2 10  2  0
 10 11  1  0
 11 12  2  3
 12 13  1  0
 13 14  1  0
 14 15  1  0
 15 16  1  0
 16 17  1  0
 17 18  1  0
 18 19  1  0
 19 20  1  0
 20 21  1  0
 21 22  1  0
 11 23  1  0
 23 24  1  0
 24 25  2  0
 25 26  1  0
 26 27  2  0
 27  1  1  0
  9  3  1  0
 20 15  1  0
 27 23  1  0
  1 28  1  0
  4 29  1  0
  5 30  1  0
  8 31  1  0
  9 32  1  0
 10 33  1  0
 13 34  1  0
 13 35  1  0
 14 36  1  0
 14 37  1  0
 15 38  1  0
 16 39  1  0
 16 40  1  0
 17 41  1  0
 17 42  1  0
 18 43  1  0
 18 44  1  0
 19 45  1  0
 19 46  1  0
 20 47  1  0
 21 48  1  0
 21 49  1  0
 22 50  1  0
 25 51  1  0
 26 52  1  0
M  CHG  1  15   1
M  END
>  <ScrubInfo>  (2) 
{"isomerGroup": 0, "isomerId": 1, "confId": 0, "nr_conformers:": 1, "nr_isomers:": 3}

$$$$
_i2
     RDKit          3D

 52 55  0  0  0  0  0  0  0  0999 V2000
    6.7828   -5.0563   -0.4172 N   0  0  0  0  0  0  0  0  0  0  0  0
    7.7884   -5.9022   -0.8908 C   0  0  0  0  0  0  0  0  0  0  0  0
    7.4678   -6.5781   -2.0077 C   0  0  0  0  0  0  0  0  0  0  0  0
    6.0752   -6.1250   -2.2408 C   0  0  0  0  0  0  0  0  0  0  0  0
    5.3222   -6.5180   -3.2177 N   0  0  0  0  0  0  0  0  0  0  0  0
    4.0463   -5.9695   -3.2446 C   0  0  0  0  0  0  0  0  0  0  0  0
    3.1513   -6.4355   -4.3319 C   0  0  0  0  0  0  0  0  0  0  0  0
    1.8298   -6.8429   -4.0782 C   0  0  0  0  0  0  0  0  0  0  0  0
    1.0100   -7.2820   -5.1213 C   0  0  0  0  0  0  0  0  0  0  0  0
    1.5102   -7.3235   -6.4170 C   0  0  0  0  0  0  0  0  0  0  0  0
    0.7218   -7.7432   -7.4144 F   0  0  0  0  0  0  0  0  0  0  0  0
    2.8169   -6.9415   -6.6904 C   0  0  0  0  0  0  0  0  0  0  0  0
    3.6376   -6.5031   -5.6486 C   0  0  0  0  0  0  0  0  0  0  0  0
    3.5833   -5.0256   -2.3953 C   0  0  0  0  0  0  0  0  0  0  0  0
    4.4985   -4.5362   -1.3118 C   0  0  0  0  0  0  0  0  0  0  0  0
    4.0298   -3.5487   -0.6090 N   0  0  0  0  0  0  0  0  0  0  0  0
    4.8821   -2.9631    0.4349 C   0  0  0  0  0  0  0  0  0  0  0  0
    4.1590   -1.7220    0.9955 C   0  0  0  0  0  0  0  0  0  0  0  0
    3.2943   -1.1121   -0.1037 N   0  0  0  0  0  4  0  0  0  0  0  0
    1.8985   -0.7727    0.3540 C   0  0  0  0  0  0  0  0  0  0  0  0
    1.9254    0.4836    1.2125 C   0  0  0  0  0  0  0  0  0  0  0  0
    2.5596    1.6557    0.4707 C   0  0  0  0  0  0  0  0  0  0  0  0
    3.9351    1.3004   -0.0909 C   0  0  0  0  0  0  0  0  0  0  0  0
    3.8941    0.0147   -0.9285 C   0  0  0  0  0  0  0  0  0  0  0  0
    5.2632   -0.3457   -1.5348 C   0  0  0  0  0  0  0  0  0  0  0  0
    5.6432    0.6496   -2.4758 O   0  0  0  0  0  0  0  0  0  0  0  0
    5.7021   -5.2124   -1.2644 N   0  0  0  0  0  0  0  0  0  0  0  0
    6.5822   -5.2732    0.5616 H   0  0  0  0  0  0  0  0  0  0  0  0
    8.7099   -5.9807   -0.3270 H   0  0  0  0  0  0  0  0  0  0  0  0
    8.0140   -7.2984   -2.5856 H   0  0  0  0  0  0  0  0  0  0  0  0
    1.4315   -6.8433   -3.0666 H   0  0  0  0  0  0  0  0  0  0  0  0
   -0.0098   -7.6023   -4.9319 H   0  0  0  0  0  0  0  0  0  0  0  0
    3.1915   -6.9942   -7.7079 H   0  0  0  0  0  0  0  0  0  0  0  0
    4.6652   -6.2183   -5.8677 H   0  0  0  0  0  0  0  0  0  0  0  0
    2.5960   -4.5895   -2.4641 H   0  0  0  0  0  0  0  0  0  0  0  0
    5.0594   -3.6712    1.2511 H   0  0  0  0  0  0  0  0  0  0  0  0
    5.8442   -2.6494    0.0179 H   0  0  0  0  0  0  0  0  0  0  0  0
    4.8476   -0.9700    1.3889 H   0  0  0  0  0  0  0  0  0  0  0  0
    3.4873   -2.0399    1.8003 H   0  0  0  0  0  0  0  0  0  0  0  0
    3.1811   -1.9226   -0.7462 H   0  0  0  0  0  0  0  0  0  0  0  0
    1.2930   -0.6285   -0.5480 H   0  0  0  0  0  0  0  0  0  0  0  0
    1.4989   -1.6350    0.8978 H   0  0  0  0  0  0  0  0  0  0  0  0
    0.9029    0.7477    1.5053 H   0  0  0  0  0  0  0  0  0  0  0  0
    2.4800    0.2952    2.1396 H   0  0  0  0  0  0  0  0  0  0  0  0
    1.9018    1.9592   -0.3534 H   0  0  0  0  0  0  0  0  0  0  0  0
    2.6448    2.5176    1.1419 H   0  0  0  0  0  0  0  0  0  0  0  0
    4.2894    2.1366   -0.7053 H   0  0  0  0  0  0  0  0  0  0  0  0
    4.6499    1.1985    0.7342 H   0  0  0  0  0  0  0  0  0  0  0  0
    3.1949    0.1705   -1.7614 H   0  0  0  0  0  0  0  0  0  0  0  0
    5.2108   -1.3019   -2.0642 H   0  0  0  0  0  0  0  0  0  0  0  0
    6.0397   -0.4001   -0.7660 H   0  0  0  0  0  0  0  0  0  0  0  0
    6.4964    0.3879   -2.8705 H   0  0  0  0  0  0  0  0  0  0  0  0
  1  2  1  0
  2  3  2  0
  3  4  1  0
  4  5  2  0
  5  6  1  0
  6  7  1  0
  7  8  2  0
  8  9  1  0
  9 10  2  0
 10 11  1  0
 10 12  1  0
 12 13  2  0
  6 14  2  0
 14 15  1  0
 15 16  2  3
 16 17  1  0
 17 18  1  0
 18 19  1  0
 19 20  1  0
 20 21  1  0
 21 22  1  0
 22 23  1  0
 23 24  1  0
 24 25  1  0
 25 26  1  0
 15 27  1  0
 27  1  1  0
 27  4  1  0
 13  7  1  0
 24 19  1  0
  1 28  1  0
  2 29  1  0
  3 30  1  0
  8 31  1  0
  9 32  1  0
 12 33  1  0
 13 34  1  0
 14 35  1  0
 17 36  1  0
 17 37  1  0
 18 38  1  0
 18 39  1  0
 19 40  1  0
 20 41  1  0
 20 42  1  0
 21 43  1  0
 21 44  1  0
 22 45  1  0
 22 46  1  0
 23 47  1  0
 23 48  1  0
 24 49  1  0
 25 50  1  0
 25 51  1  0
 26 52  1  0
M  CHG  1  19   1
M  END
>  <ScrubInfo>  (3) 
{"isomerGroup": 0, "isomerId": 2, "confId": 0, "nr_conformers:": 1, "nr_isomers:": 3}

$$$$
