REMARK SMILES COc1ccc(Nc2nc(NC[C@H](C)O)nc3c2cnn3C)c(OC)c1
REMARK SMILES IDX 8 1 9 2 10 3 16 4 17 5 18 6 19 7 20 8 21 9 22 10 7 11 6 13
REMARK SMILES IDX 3 14 4 15 26 16 5 17 23 18 2 19 1 20 24 21 25 22 11 23 12 25
REMARK SMILES IDX 13 26 14 27 15 28
REMARK H PARENT 7 12 11 24 15 29
ROOT
ATOM      1  C   UNL     1      -0.162  -1.268  -0.265  1.00  0.00     0.147 A 
ATOM      2  N   UNL     1      -0.731  -0.033  -0.215  1.00  0.00    -0.195 NA
ATOM      3  C   UNL     1      -2.063   0.109  -0.105  1.00  0.00     0.226 A 
ATOM      4  N   UNL     1      -2.954  -0.887  -0.024  1.00  0.00    -0.193 NA
ATOM      5  C   UNL     1      -2.381  -2.097  -0.076  1.00  0.00     0.165 A 
ATOM      6  C   UNL     1      -1.031  -2.364  -0.190  1.00  0.00     0.082 A 
ATOM      7  C   UNL     1      -0.953  -3.773  -0.195  1.00  0.00     0.149 A 
ATOM      8  N   UNL     1      -2.149  -4.362  -0.093  1.00  0.00    -0.179 NA
ATOM      9  N   UNL     1      -3.004  -3.314  -0.030  1.00  0.00    -0.250 N 
ATOM     10  C   UNL     1      -4.420  -3.559   0.075  1.00  0.00     0.176 C 
ENDROOT
BRANCH   1  11
ATOM     11  N   UNL     1       1.220  -1.446  -0.370  1.00  0.00    -0.336 N 
ATOM     12  H   UNL     1       1.538  -2.409  -0.332  1.00  0.00     0.168 HD
BRANCH  11  13
ATOM     13  C   UNL     1       2.309  -0.560  -0.503  1.00  0.00     0.083 A 
ATOM     14  C   UNL     1       4.573   1.110  -0.746  1.00  0.00     0.122 A 
ATOM     15  C   UNL     1       3.292   1.653  -0.769  1.00  0.00     0.049 A 
ATOM     16  C   UNL     1       4.730  -0.271  -0.603  1.00  0.00     0.095 A 
ATOM     17  C   UNL     1       2.171   0.822  -0.647  1.00  0.00     0.034 A 
ATOM     18  C   UNL     1       3.615  -1.106  -0.482  1.00  0.00     0.146 A 
BRANCH  14  19
ATOM     19  O   UNL     1       5.745   1.808  -0.855  1.00  0.00    -0.497 OA
ATOM     20  C   UNL     1       5.640   3.218  -1.016  1.00  0.00     0.278 C 
ENDBRANCH  14  19
BRANCH  18  21
ATOM     21  O   UNL     1       3.667  -2.477  -0.340  1.00  0.00    -0.494 OA
ATOM     22  C   UNL     1       4.960  -3.071  -0.308  1.00  0.00     0.278 C 
ENDBRANCH  18  21
ENDBRANCH  11  13
ENDBRANCH   1  11
BRANCH   3  23
ATOM     23  N   UNL     1      -2.496   1.433  -0.071  1.00  0.00    -0.352 N 
ATOM     24  H   UNL     1      -1.653   1.963   0.137  1.00  0.00     0.163 HD
BRANCH  23  25
ATOM     25  C   UNL     1      -3.605   1.664   0.854  1.00  0.00     0.147 C 
BRANCH  25  26
ATOM     26  C   UNL     1      -3.954   3.164   0.832  1.00  0.00     0.130 C 
ATOM     27  C   UNL     1      -5.142   3.481   1.725  1.00  0.00     0.040 C 
BRANCH  26  28
ATOM     28  O   UNL     1      -4.273   3.562  -0.505  1.00  0.00    -0.392 OA
ATOM     29  H   UNL     1      -3.689   3.026  -1.081  1.00  0.00     0.211 HD
ENDBRANCH  26  28
ENDBRANCH  25  26
ENDBRANCH  23  25
ENDBRANCH   3  23
TORSDOF 8
