_i0
     RDKit          3D

 48 50  0  0  0  0  0  0  0  0999 V2000
    5.6402    3.2177   -1.0160 C   0  0  0  0  0  0  0  0  0  0  0  0
    5.7449    1.8084   -0.8546 O   0  0  0  0  0  0  0  0  0  0  0  0
    4.5734    1.1096   -0.7462 C   0  0  0  0  0  0  0  0  0  0  0  0
    3.2918    1.6528   -0.7690 C   0  0  0  0  0  0  0  0  0  0  0  0
    2.1711    0.8220   -0.6474 C   0  0  0  0  0  0  0  0  0  0  0  0
    2.3088   -0.5605   -0.5029 C   0  0  0  0  0  0  0  0  0  0  0  0
    1.2197   -1.4463   -0.3696 N   0  0  0  0  0  0  0  0  0  0  0  0
   -0.1621   -1.2679   -0.2647 C   0  0  0  0  0  0  0  0  0  0  0  0
   -0.7305   -0.0330   -0.2154 N   0  0  0  0  0  0  0  0  0  0  0  0
   -2.0628    0.1089   -0.1054 C   0  0  0  0  0  0  0  0  0  0  0  0
   -2.4958    1.4333   -0.0712 N   0  0  0  0  0  0  0  0  0  0  0  0
   -3.6051    1.6640    0.8537 C   0  0  0  0  0  0  0  0  0  0  0  0
   -3.9542    3.1638    0.8320 C   0  0  0  0  0  0  0  0  0  0  0  0
   -5.1421    3.4806    1.7248 C   0  0  0  0  0  0  0  0  0  0  0  0
   -4.2729    3.5615   -0.5052 O   0  0  0  0  0  0  0  0  0  0  0  0
   -2.9536   -0.8867   -0.0241 N   0  0  0  0  0  0  0  0  0  0  0  0
   -2.3805   -2.0972   -0.0761 C   0  0  0  0  0  0  0  0  0  0  0  0
   -1.0307   -2.3641   -0.1896 C   0  0  0  0  0  0  0  0  0  0  0  0
   -0.9526   -3.7728   -0.1952 C   0  0  0  0  0  0  0  0  0  0  0  0
   -2.1494   -4.3619   -0.0927 N   0  0  0  0  0  0  0  0  0  0  0  0
   -3.0041   -3.3141   -0.0298 N   0  0  0  0  0  0  0  0  0  0  0  0
   -4.4205   -3.5593    0.0749 C   0  0  0  0  0  0  0  0  0  0  0  0
    3.6145   -1.1061   -0.4822 C   0  0  0  0  0  0  0  0  0  0  0  0
    3.6669   -2.4768   -0.3401 O   0  0  0  0  0  0  0  0  0  0  0  0
    4.9595   -3.0706   -0.3085 C   0  0  0  0  0  0  0  0  0  0  0  0
    4.7304   -0.2714   -0.6026 C   0  0  0  0  0  0  0  0  0  0  0  0
    6.6544    3.6216   -1.0913 H   0  0  0  0  0  0  0  0  0  0  0  0
    5.1115    3.4711   -1.9409 H   0  0  0  0  0  0  0  0  0  0  0  0
    5.1615    3.6800   -0.1464 H   0  0  0  0  0  0  0  0  0  0  0  0
    3.1209    2.7181   -0.8819 H   0  0  0  0  0  0  0  0  0  0  0  0
    1.1895    1.2825   -0.6796 H   0  0  0  0  0  0  0  0  0  0  0  0
    1.5383   -2.4090   -0.3323 H   0  0  0  0  0  0  0  0  0  0  0  0
   -1.6528    1.9630    0.1371 H   0  0  0  0  0  0  0  0  0  0  0  0
   -3.3360    1.3573    1.8717 H   0  0  0  0  0  0  0  0  0  0  0  0
   -4.4839    1.0930    0.5285 H   0  0  0  0  0  0  0  0  0  0  0  0
   -3.0869    3.7546    1.1482 H   0  0  0  0  0  0  0  0  0  0  0  0
   -4.9405    3.2104    2.7656 H   0  0  0  0  0  0  0  0  0  0  0  0
   -6.0382    2.9468    1.3898 H   0  0  0  0  0  0  0  0  0  0  0  0
   -5.3787    4.5492    1.6804 H   0  0  0  0  0  0  0  0  0  0  0  0
   -3.6890    3.0264   -1.0809 H   0  0  0  0  0  0  0  0  0  0  0  0
   -0.0720   -4.3976   -0.2696 H   0  0  0  0  0  0  0  0  0  0  0  0
   -4.9636   -2.6122    0.1087 H   0  0  0  0  0  0  0  0  0  0  0  0
   -4.7350   -4.1354   -0.7990 H   0  0  0  0  0  0  0  0  0  0  0  0
   -4.6043   -4.1247    0.9919 H   0  0  0  0  0  0  0  0  0  0  0  0
    5.4937   -2.9037   -1.2496 H   0  0  0  0  0  0  0  0  0  0  0  0
    4.8269   -4.1502   -0.1893 H   0  0  0  0  0  0  0  0  0  0  0  0
    5.5388   -2.7107    0.5482 H   0  0  0  0  0  0  0  0  0  0  0  0
    5.7413   -0.6641   -0.5898 H   0  0  0  0  0  0  0  0  0  0  0  0
  1  2  1  0
  2  3  1  0
  3  4  2  0
  4  5  1  0
  5  6  2  0
  6  7  1  0
  7  8  1  0
  8  9  2  0
  9 10  1  0
 10 11  1  0
 11 12  1  0
 12 13  1  0
 13 14  1  0
 13 15  1  0
 10 16  2  0
 16 17  1  0
 17 18  2  0
 18 19  1  0
 19 20  2  0
 20 21  1  0
 21 22  1  0
  6 23  1  0
 23 24  1  0
 24 25  1  0
 23 26  2  0
 26  3  1  0
 18  8  1  0
 21 17  1  0
  1 27  1  0
  1 28  1  0
  1 29  1  0
  4 30  1  0
  5 31  1  0
  7 32  1  0
 11 33  1  0
 12 34  1  0
 12 35  1  0
 13 36  1  0
 14 37  1  0
 14 38  1  0
 14 39  1  0
 15 40  1  0
 19 41  1  0
 22 42  1  0
 22 43  1  0
 22 44  1  0
 25 45  1  0
 25 46  1  0
 25 47  1  0
 26 48  1  0
M  END
>  <ScrubInfo>  (1) 
{"isomerGroup": 0, "isomerId": 0, "confId": 0, "nr_conformers:": 1, "nr_isomers:": 9}

$$$$
_i1
     RDKit          3D

 48 50  0  0  0  0  0  0  0  0999 V2000
   -1.4901    0.4763   -0.9161 N   0  0  0  0  0  0  0  0  0  0  0  0
   -2.5526   -0.3510   -0.6581 C   0  0  0  0  0  0  0  0  0  0  0  0
   -3.7920    0.2083   -0.7803 N   0  0  0  0  0  0  0  0  0  0  0  0
   -4.1352    1.4835   -0.1573 C   0  0  0  0  0  0  0  0  0  0  0  0
   -5.6649    1.6534   -0.1468 C   0  0  0  0  0  0  0  0  0  0  0  0
   -6.0820    2.9566    0.5178 C   0  0  0  0  0  0  0  0  0  0  0  0
   -6.2690    0.5573    0.5509 O   0  0  0  0  0  0  0  0  0  0  0  0
   -2.4354   -1.6086   -0.3158 N   0  0  0  0  0  0  0  0  0  0  0  0
   -1.1268   -1.9844   -0.2367 C   0  0  0  0  0  0  0  0  0  0  0  0
    0.0082   -1.2217   -0.4718 C   0  0  0  0  0  0  0  0  0  0  0  0
    1.0737   -2.1161   -0.2689 C   0  0  0  0  0  0  0  0  0  0  0  0
    0.6650   -3.3414    0.0858 N   0  0  0  0  0  0  0  0  0  0  0  0
   -0.6833   -3.2340    0.0932 N   0  0  0  0  0  0  0  0  0  0  0  0
   -1.4820   -4.3888    0.4176 C   0  0  0  0  0  0  0  0  0  0  0  0
   -0.1512    0.1671   -0.8597 C   0  0  0  0  0  0  0  0  0  0  0  0
    0.7576    1.0485   -1.1463 N   0  0  0  0  0  0  0  0  0  0  0  0
    2.1258    0.7638   -1.0385 C   0  0  0  0  0  0  0  0  0  0  0  0
    2.8424    0.4827   -2.2039 C   0  0  0  0  0  0  0  0  0  0  0  0
    4.2119    0.2277   -2.1452 C   0  0  0  0  0  0  0  0  0  0  0  0
    4.8879    0.2662   -0.9248 C   0  0  0  0  0  0  0  0  0  0  0  0
    6.2271   -0.0003   -1.0124 O   0  0  0  0  0  0  0  0  0  0  0  0
    6.9672   -0.0160    0.2015 C   0  0  0  0  0  0  0  0  0  0  0  0
    4.1841    0.5676    0.2452 C   0  0  0  0  0  0  0  0  0  0  0  0
    2.8049    0.8184    0.1976 C   0  0  0  0  0  0  0  0  0  0  0  0
    2.0297    1.1222    1.2913 O   0  0  0  0  0  0  0  0  0  0  0  0
    2.6127    0.9483    2.5748 C   0  0  0  0  0  0  0  0  0  0  0  0
   -1.6845    1.3889   -1.2905 H   0  0  0  0  0  0  0  0  0  0  0  0
   -4.5021   -0.4938   -0.5582 H   0  0  0  0  0  0  0  0  0  0  0  0
   -3.6685    2.3098   -0.7039 H   0  0  0  0  0  0  0  0  0  0  0  0
   -3.7582    1.4871    0.8726 H   0  0  0  0  0  0  0  0  0  0  0  0
   -6.0475    1.6269   -1.1732 H   0  0  0  0  0  0  0  0  0  0  0  0
   -7.1736    3.0452    0.5315 H   0  0  0  0  0  0  0  0  0  0  0  0
   -5.6672    3.8213   -0.0089 H   0  0  0  0  0  0  0  0  0  0  0  0
   -5.7508    2.9897    1.5616 H   0  0  0  0  0  0  0  0  0  0  0  0
   -5.9701    0.5825    1.4770 H   0  0  0  0  0  0  0  0  0  0  0  0
    2.1371   -1.9485   -0.3630 H   0  0  0  0  0  0  0  0  0  0  0  0
   -1.1403   -4.7871    1.3765 H   0  0  0  0  0  0  0  0  0  0  0  0
   -1.3472   -5.1308   -0.3734 H   0  0  0  0  0  0  0  0  0  0  0  0
   -2.5353   -4.1100    0.4914 H   0  0  0  0  0  0  0  0  0  0  0  0
    2.3287    0.4632   -3.1611 H   0  0  0  0  0  0  0  0  0  0  0  0
    4.7570    0.0033   -3.0589 H   0  0  0  0  0  0  0  0  0  0  0  0
    6.9654    0.9706    0.6763 H   0  0  0  0  0  0  0  0  0  0  0  0
    6.5909   -0.7850    0.8842 H   0  0  0  0  0  0  0  0  0  0  0  0
    8.0042   -0.2660   -0.0424 H   0  0  0  0  0  0  0  0  0  0  0  0
    4.7082    0.6169    1.1900 H   0  0  0  0  0  0  0  0  0  0  0  0
    1.8323    1.1204    3.3223 H   0  0  0  0  0  0  0  0  0  0  0  0
    2.9826   -0.0736    2.7099 H   0  0  0  0  0  0  0  0  0  0  0  0
    3.4054    1.6832    2.7474 H   0  0  0  0  0  0  0  0  0  0  0  0
  1  2  1  0
  2  3  1  0
  3  4  1  0
  4  5  1  0
  5  6  1  0
  5  7  1  0
  2  8  2  0
  8  9  1  0
  9 10  2  0
 10 11  1  0
 11 12  2  0
 12 13  1  0
 13 14  1  0
 10 15  1  0
 15 16  2  3
 16 17  1  0
 17 18  2  0
 18 19  1  0
 19 20  2  0
 20 21  1  0
 21 22  1  0
 20 23  1  0
 23 24  2  0
 24 25  1  0
 25 26  1  0
 15  1  1  0
 24 17  1  0
 13  9  1  0
  1 27  1  0
  3 28  1  0
  4 29  1  0
  4 30  1  0
  5 31  1  0
  6 32  1  0
  6 33  1  0
  6 34  1  0
  7 35  1  0
 11 36  1  0
 14 37  1  0
 14 38  1  0
 14 39  1  0
 18 40  1  0
 19 41  1  0
 22 42  1  0
 22 43  1  0
 22 44  1  0
 23 45  1  0
 26 46  1  0
 26 47  1  0
 26 48  1  0
M  END
>  <ScrubInfo>  (2) 
{"isomerGroup": 0, "isomerId": 1, "confId": 0, "nr_conformers:": 1, "nr_isomers:": 9}

$$$$
_i2
     RDKit          3D

 48 50  0  0  0  0  0  0  0  0999 V2000
   -0.5718    0.1066   -0.3029 N   0  0  0  0  0  0  0  0  0  0  0  0
   -0.0299   -1.1150    0.0503 C   0  0  0  0  0  0  0  0  0  0  0  0
    1.3250   -1.3618    0.1060 N   0  0  0  0  0  0  0  0  0  0  0  0
    2.4254   -0.4807    0.1763 C   0  0  0  0  0  0  0  0  0  0  0  0
    2.3252    0.8294    0.6575 C   0  0  0  0  0  0  0  0  0  0  0  0
    3.4371    1.6790    0.6726 C   0  0  0  0  0  0  0  0  0  0  0  0
    4.6692    1.2279    0.2059 C   0  0  0  0  0  0  0  0  0  0  0  0
    5.8281    1.9542    0.1665 O   0  0  0  0  0  0  0  0  0  0  0  0
    5.7621    3.2993    0.6248 C   0  0  0  0  0  0  0  0  0  0  0  0
    4.7876   -0.0821   -0.2680 C   0  0  0  0  0  0  0  0  0  0  0  0
    3.6811   -0.9368   -0.2855 C   0  0  0  0  0  0  0  0  0  0  0  0
    3.6996   -2.2432   -0.7223 O   0  0  0  0  0  0  0  0  0  0  0  0
    4.9259   -2.7235   -1.2614 C   0  0  0  0  0  0  0  0  0  0  0  0
   -0.9318   -2.0714    0.3048 C   0  0  0  0  0  0  0  0  0  0  0  0
   -0.9357   -3.4715    0.7422 C   0  0  0  0  0  0  0  0  0  0  0  0
   -2.1416   -3.9527    0.9110 N   0  0  0  0  0  0  0  0  0  0  0  0
   -3.0141   -2.9131    0.5477 N   0  0  0  0  0  0  0  0  0  0  0  0
   -4.4062   -3.0070    0.9193 C   0  0  0  0  0  0  0  0  0  0  0  0
   -2.3689   -1.7348    0.2109 C   0  0  0  0  0  0  0  0  0  0  0  0
   -2.8531   -0.5816   -0.1091 N   0  0  0  0  0  0  0  0  0  0  0  0
   -1.9097    0.3706   -0.4275 C   0  0  0  0  0  0  0  0  0  0  0  0
   -2.2806    1.5318   -0.8472 N   0  0  0  0  0  0  0  0  0  0  0  0
   -3.7120    1.8183   -1.0376 C   0  0  0  0  0  0  0  0  0  0  0  0
   -4.3889    2.1952    0.2936 C   0  0  0  0  0  0  0  0  0  0  0  0
   -5.6428    3.0260    0.0603 C   0  0  0  0  0  0  0  0  0  0  0  0
   -4.7877    1.0260    1.0157 O   0  0  0  0  0  0  0  0  0  0  0  0
    0.0560    0.7952   -0.6901 H   0  0  0  0  0  0  0  0  0  0  0  0
    1.6252   -2.3280   -0.0088 H   0  0  0  0  0  0  0  0  0  0  0  0
    1.3911    1.2012    1.0696 H   0  0  0  0  0  0  0  0  0  0  0  0
    3.3046    2.6820    1.0651 H   0  0  0  0  0  0  0  0  0  0  0  0
    6.7587    3.7382    0.5168 H   0  0  0  0  0  0  0  0  0  0  0  0
    5.4928    3.3414    1.6853 H   0  0  0  0  0  0  0  0  0  0  0  0
    5.0699    3.8905    0.0163 H   0  0  0  0  0  0  0  0  0  0  0  0
    5.7634   -0.4047   -0.6153 H   0  0  0  0  0  0  0  0  0  0  0  0
    5.7120   -2.7377   -0.4993 H   0  0  0  0  0  0  0  0  0  0  0  0
    5.2297   -2.1396   -2.1365 H   0  0  0  0  0  0  0  0  0  0  0  0
    4.7638   -3.7546   -1.5902 H   0  0  0  0  0  0  0  0  0  0  0  0
    0.0012   -4.0131    0.9242 H   0  0  0  0  0  0  0  0  0  0  0  0
   -4.5497   -2.6591    1.9470 H   0  0  0  0  0  0  0  0  0  0  0  0
   -4.7569   -4.0418    0.8509 H   0  0  0  0  0  0  0  0  0  0  0  0
   -5.0287   -2.3987    0.2554 H   0  0  0  0  0  0  0  0  0  0  0  0
   -3.7638    2.6672   -1.7292 H   0  0  0  0  0  0  0  0  0  0  0  0
   -4.2255    0.9824   -1.5285 H   0  0  0  0  0  0  0  0  0  0  0  0
   -3.6956    2.7565    0.9299 H   0  0  0  0  0  0  0  0  0  0  0  0
   -6.3734    2.4714   -0.5391 H   0  0  0  0  0  0  0  0  0  0  0  0
   -6.1300    3.2599    1.0131 H   0  0  0  0  0  0  0  0  0  0  0  0
   -5.4099    3.9652   -0.4506 H   0  0  0  0  0  0  0  0  0  0  0  0
   -4.1263    0.3372    0.7954 H   0  0  0  0  0  0  0  0  0  0  0  0
  1  2  1  0
  2  3  1  0
  3  4  1  0
  4  5  2  0
  5  6  1  0
  6  7  2  0
  7  8  1  0
  8  9  1  0
  7 10  1  0
 10 11  2  0
 11 12  1  0
 12 13  1  0
  2 14  2  0
 14 15  1  0
 15 16  2  0
 16 17  1  0
 17 18  1  0
 17 19  1  0
 19 20  2  0
 20 21  1  0
 21 22  2  3
 22 23  1  0
 23 24  1  0
 24 25  1  0
 24 26  1  0
 21  1  1  0
 11  4  1  0
 19 14  1  0
  1 27  1  0
  3 28  1  0
  5 29  1  0
  6 30  1  0
  9 31  1  0
  9 32  1  0
  9 33  1  0
 10 34  1  0
 13 35  1  0
 13 36  1  0
 13 37  1  0
 15 38  1  0
 18 39  1  0
 18 40  1  0
 18 41  1  0
 23 42  1  0
 23 43  1  0
 24 44  1  0
 25 45  1  0
 25 46  1  0
 25 47  1  0
 26 48  1  0
M  END
>  <ScrubInfo>  (3) 
{"isomerGroup": 0, "isomerId": 2, "confId": 0, "nr_conformers:": 1, "nr_isomers:": 9}

$$$$
_i3
     RDKit          3D

 48 50  0  0  0  0  0  0  0  0999 V2000
   -2.7753    1.3221   -0.3705 N   0  0  0  0  0  0  0  0  0  0  0  0
   -2.1299    0.7107    0.6897 C   0  0  0  0  0  0  0  0  0  0  0  0
   -2.6585    0.3983    1.8207 N   0  0  0  0  0  0  0  0  0  0  0  0
   -4.0354    0.7923    2.1269 C   0  0  0  0  0  0  0  0  0  0  0  0
   -5.0669   -0.1953    1.5641 C   0  0  0  0  0  0  0  0  0  0  0  0
   -4.9014   -1.6095    2.1068 C   0  0  0  0  0  0  0  0  0  0  0  0
   -5.0003   -0.2078    0.1323 O   0  0  0  0  0  0  0  0  0  0  0  0
   -0.7961    0.3511    0.6016 N   0  0  0  0  0  0  0  0  0  0  0  0
   -0.1149    0.5675   -0.4855 C   0  0  0  0  0  0  0  0  0  0  0  0
    1.2023    0.2825   -0.7275 N   0  0  0  0  0  0  0  0  0  0  0  0
    2.1759   -0.3020    0.1130 C   0  0  0  0  0  0  0  0  0  0  0  0
    1.9269   -0.7285    1.4182 C   0  0  0  0  0  0  0  0  0  0  0  0
    2.9440   -1.3021    2.1866 C   0  0  0  0  0  0  0  0  0  0  0  0
    4.2288   -1.4628    1.6694 C   0  0  0  0  0  0  0  0  0  0  0  0
    5.1206   -2.0379    2.5326 O   0  0  0  0  0  0  0  0  0  0  0  0
    6.4503   -2.2238    2.0661 C   0  0  0  0  0  0  0  0  0  0  0  0
    4.4983   -1.0441    0.3659 C   0  0  0  0  0  0  0  0  0  0  0  0
    3.4828   -0.4679   -0.4100 C   0  0  0  0  0  0  0  0  0  0  0  0
    3.6389   -0.0206   -1.7064 O   0  0  0  0  0  0  0  0  0  0  0  0
    4.9304   -0.1540   -2.2880 C   0  0  0  0  0  0  0  0  0  0  0  0
   -0.7732    1.1741   -1.6281 C   0  0  0  0  0  0  0  0  0  0  0  0
   -0.4514    1.5328   -2.9482 C   0  0  0  0  0  0  0  0  0  0  0  0
   -1.4970    2.0539   -3.6088 N   0  0  0  0  0  0  0  0  0  0  0  0
   -2.5004    2.0303   -2.6969 N   0  0  0  0  0  0  0  0  0  0  0  0
   -3.8033    2.5208   -3.0684 C   0  0  0  0  0  0  0  0  0  0  0  0
   -2.0910    1.5179   -1.5081 C   0  0  0  0  0  0  0  0  0  0  0  0
   -3.7888    1.3658   -0.3127 H   0  0  0  0  0  0  0  0  0  0  0  0
   -4.1369    0.8402    3.2173 H   0  0  0  0  0  0  0  0  0  0  0  0
   -4.2391    1.8057    1.7595 H   0  0  0  0  0  0  0  0  0  0  0  0
   -6.0673    0.1662    1.8265 H   0  0  0  0  0  0  0  0  0  0  0  0
   -3.9381   -2.0417    1.8157 H   0  0  0  0  0  0  0  0  0  0  0  0
   -5.6745   -2.2658    1.6928 H   0  0  0  0  0  0  0  0  0  0  0  0
   -4.9776   -1.6261    3.1982 H   0  0  0  0  0  0  0  0  0  0  0  0
   -4.2795   -0.8283   -0.0941 H   0  0  0  0  0  0  0  0  0  0  0  0
    1.6085    0.5255   -1.6238 H   0  0  0  0  0  0  0  0  0  0  0  0
    0.9450   -0.6274    1.8709 H   0  0  0  0  0  0  0  0  0  0  0  0
    2.7251   -1.6257    3.2018 H   0  0  0  0  0  0  0  0  0  0  0  0
    7.0263   -2.6872    2.8728 H   0  0  0  0  0  0  0  0  0  0  0  0
    6.4757   -2.9020    1.2068 H   0  0  0  0  0  0  0  0  0  0  0  0
    6.9228   -1.2651    1.8279 H   0  0  0  0  0  0  0  0  0  0  0  0
    5.4919   -1.1660   -0.0425 H   0  0  0  0  0  0  0  0  0  0  0  0
    4.8806    0.2468   -3.3050 H   0  0  0  0  0  0  0  0  0  0  0  0
    5.6739    0.4308   -1.7366 H   0  0  0  0  0  0  0  0  0  0  0  0
    5.2240   -1.2063   -2.3597 H   0  0  0  0  0  0  0  0  0  0  0  0
    0.4895    1.4358   -3.4734 H   0  0  0  0  0  0  0  0  0  0  0  0
   -4.2253    1.8407   -3.8124 H   0  0  0  0  0  0  0  0  0  0  0  0
   -4.4505    2.5617   -2.1898 H   0  0  0  0  0  0  0  0  0  0  0  0
   -3.6899    3.5239   -3.4876 H   0  0  0  0  0  0  0  0  0  0  0  0
  1  2  1  0
  2  3  2  3
  3  4  1  0
  4  5  1  0
  5  6  1  0
  5  7  1  0
  2  8  1  0
  8  9  2  0
  9 10  1  0
 10 11  1  0
 11 12  2  0
 12 13  1  0
 13 14  2  0
 14 15  1  0
 15 16  1  0
 14 17  1  0
 17 18  2  0
 18 19  1  0
 19 20  1  0
  9 21  1  0
 21 22  1  0
 22 23  2  0
 23 24  1  0
 24 25  1  0
 24 26  1  0
 26  1  1  0
 18 11  1  0
 26 21  2  0
  1 27  1  0
  4 28  1  0
  4 29  1  0
  5 30  1  0
  6 31  1  0
  6 32  1  0
  6 33  1  0
  7 34  1  0
 10 35  1  0
 12 36  1  0
 13 37  1  0
 16 38  1  0
 16 39  1  0
 16 40  1  0
 17 41  1  0
 20 42  1  0
 20 43  1  0
 20 44  1  0
 22 45  1  0
 25 46  1  0
 25 47  1  0
 25 48  1  0
M  END
>  <ScrubInfo>  (4) 
{"isomerGroup": 0, "isomerId": 3, "confId": 0, "nr_conformers:": 1, "nr_isomers:": 9}

$$$$
_i4
     RDKit          3D

 48 50  0  0  0  0  0  0  0  0999 V2000
   -2.3189    0.1837    0.2982 N   0  0  0  0  0  0  0  0  0  0  0  0
   -1.9430   -0.9723    0.9347 C   0  0  0  0  0  0  0  0  0  0  0  0
   -2.9556   -1.7570    1.4100 N   0  0  0  0  0  0  0  0  0  0  0  0
   -4.2324   -1.9438    0.7284 C   0  0  0  0  0  0  0  0  0  0  0  0
   -5.3203   -1.0349    1.3304 C   0  0  0  0  0  0  0  0  0  0  0  0
   -5.7581   -1.4872    2.7189 C   0  0  0  0  0  0  0  0  0  0  0  0
   -4.8496    0.3190    1.4007 O   0  0  0  0  0  0  0  0  0  0  0  0
   -0.7128   -1.3563    1.1301 N   0  0  0  0  0  0  0  0  0  0  0  0
    0.3414   -0.5771    0.6630 C   0  0  0  0  0  0  0  0  0  0  0  0
    1.5252   -1.0664    0.8572 N   0  0  0  0  0  0  0  0  0  0  0  0
    2.6833   -0.4149    0.4227 C   0  0  0  0  0  0  0  0  0  0  0  0
    3.3770    0.3852    1.3362 C   0  0  0  0  0  0  0  0  0  0  0  0
    4.5276    1.0756    0.9485 C   0  0  0  0  0  0  0  0  0  0  0  0
    5.0097    0.9749   -0.3574 C   0  0  0  0  0  0  0  0  0  0  0  0
    6.1315    1.7146   -0.6111 O   0  0  0  0  0  0  0  0  0  0  0  0
    6.6413    1.6723   -1.9383 C   0  0  0  0  0  0  0  0  0  0  0  0
    4.3421    0.1567   -1.2684 C   0  0  0  0  0  0  0  0  0  0  0  0
    3.2037   -0.5609   -0.8758 C   0  0  0  0  0  0  0  0  0  0  0  0
    2.6363   -1.3258   -1.8656 O   0  0  0  0  0  0  0  0  0  0  0  0
    2.3088   -2.6516   -1.4516 C   0  0  0  0  0  0  0  0  0  0  0  0
   -0.0111    0.6813    0.0257 C   0  0  0  0  0  0  0  0  0  0  0  0
    0.6465    1.7954   -0.5278 C   0  0  0  0  0  0  0  0  0  0  0  0
   -0.2027    2.7345   -0.9779 N   0  0  0  0  0  0  0  0  0  0  0  0
   -1.4228    2.2127   -0.7196 N   0  0  0  0  0  0  0  0  0  0  0  0
   -2.6004    2.9635   -1.0736 C   0  0  0  0  0  0  0  0  0  0  0  0
   -1.3377    0.9968   -0.1229 C   0  0  0  0  0  0  0  0  0  0  0  0
   -3.3017    0.4474    0.3222 H   0  0  0  0  0  0  0  0  0  0  0  0
   -2.5663   -2.6228    1.7782 H   0  0  0  0  0  0  0  0  0  0  0  0
   -4.1162   -1.7241   -0.3397 H   0  0  0  0  0  0  0  0  0  0  0  0
   -4.5374   -2.9936    0.8042 H   0  0  0  0  0  0  0  0  0  0  0  0
   -6.1919   -1.0417    0.6670 H   0  0  0  0  0  0  0  0  0  0  0  0
   -6.5317   -0.8168    3.1089 H   0  0  0  0  0  0  0  0  0  0  0  0
   -4.9272   -1.4535    3.4318 H   0  0  0  0  0  0  0  0  0  0  0  0
   -6.1583   -2.5053    2.6960 H   0  0  0  0  0  0  0  0  0  0  0  0
   -4.2157    0.3312    2.1480 H   0  0  0  0  0  0  0  0  0  0  0  0
    3.0108    0.4780    2.3554 H   0  0  0  0  0  0  0  0  0  0  0  0
    5.0478    1.7016    1.6696 H   0  0  0  0  0  0  0  0  0  0  0  0
    5.9080    2.0551   -2.6560 H   0  0  0  0  0  0  0  0  0  0  0  0
    6.9653    0.6607   -2.2040 H   0  0  0  0  0  0  0  0  0  0  0  0
    7.5191    2.3243   -1.9799 H   0  0  0  0  0  0  0  0  0  0  0  0
    4.6854    0.0412   -2.2908 H   0  0  0  0  0  0  0  0  0  0  0  0
    2.4276   -3.3058   -2.3211 H   0  0  0  0  0  0  0  0  0  0  0  0
    2.9702   -3.0291   -0.6632 H   0  0  0  0  0  0  0  0  0  0  0  0
    1.2608   -2.7051   -1.1448 H   0  0  0  0  0  0  0  0  0  0  0  0
    1.7056    1.9888   -0.6252 H   0  0  0  0  0  0  0  0  0  0  0  0
   -3.4788    2.3155   -1.0370 H   0  0  0  0  0  0  0  0  0  0  0  0
   -2.7081    3.7848   -0.3610 H   0  0  0  0  0  0  0  0  0  0  0  0
   -2.4763    3.3515   -2.0880 H   0  0  0  0  0  0  0  0  0  0  0  0
  1  2  1  0
  2  3  1  0
  3  4  1  0
  4  5  1  0
  5  6  1  0
  5  7  1  0
  2  8  2  0
  8  9  1  0
  9 10  2  3
 10 11  1  0
 11 12  2  0
 12 13  1  0
 13 14  2  0
 14 15  1  0
 15 16  1  0
 14 17  1  0
 17 18  2  0
 18 19  1  0
 19 20  1  0
  9 21  1  0
 21 22  1  0
 22 23  2  0
 23 24  1  0
 24 25  1  0
 24 26  1  0
 26  1  1  0
 18 11  1  0
 26 21  2  0
  1 27  1  0
  3 28  1  0
  4 29  1  0
  4 30  1  0
  5 31  1  0
  6 32  1  0
  6 33  1  0
  6 34  1  0
  7 35  1  0
 12 36  1  0
 13 37  1  0
 16 38  1  0
 16 39  1  0
 16 40  1  0
 17 41  1  0
 20 42  1  0
 20 43  1  0
 20 44  1  0
 22 45  1  0
 25 46  1  0
 25 47  1  0
 25 48  1  0
M  END
>  <ScrubInfo>  (5) 
{"isomerGroup": 0, "isomerId": 4, "confId": 0, "nr_conformers:": 1, "nr_isomers:": 9}

$$$$
_i5
     RDKit          3D

 48 50  0  0  0  0  0  0  0  0999 V2000
    1.7378    3.8058    2.9741 N   0  0  0  0  0  0  0  0  0  0  0  0
    0.4951    3.2205    2.7503 C   0  0  0  0  0  0  0  0  0  0  0  0
    0.5444    2.2191    1.8627 C   0  0  0  0  0  0  0  0  0  0  0  0
   -0.3747    1.2701    1.2800 C   0  0  0  0  0  0  0  0  0  0  0  0
   -1.6399    1.2771    1.5616 N   0  0  0  0  0  0  0  0  0  0  0  0
   -2.4738    0.3474    0.9149 C   0  0  0  0  0  0  0  0  0  0  0  0
   -2.9298   -0.7625    1.6315 C   0  0  0  0  0  0  0  0  0  0  0  0
   -3.7831   -1.7007    1.0388 C   0  0  0  0  0  0  0  0  0  0  0  0
   -4.2066   -1.5270   -0.2791 C   0  0  0  0  0  0  0  0  0  0  0  0
   -5.0454   -2.3590   -0.9696 O   0  0  0  0  0  0  0  0  0  0  0  0
   -5.5260   -3.5048   -0.2785 C   0  0  0  0  0  0  0  0  0  0  0  0
   -3.7686   -0.4122   -0.9992 C   0  0  0  0  0  0  0  0  0  0  0  0
   -2.8990    0.5139   -0.4134 C   0  0  0  0  0  0  0  0  0  0  0  0
   -2.4938    1.6357   -1.0972 O   0  0  0  0  0  0  0  0  0  0  0  0
   -1.8148    1.3043   -2.3067 C   0  0  0  0  0  0  0  0  0  0  0  0
    0.2120    0.3651    0.4341 N   0  0  0  0  0  0  0  0  0  0  0  0
    1.4802    0.4000    0.1434 C   0  0  0  0  0  0  0  0  0  0  0  0
    1.9227   -0.5546   -0.7212 N   0  0  0  0  0  0  0  0  0  0  0  0
    3.3117   -0.9501   -0.8284 C   0  0  0  0  0  0  0  0  0  0  0  0
    3.4631   -2.1258   -1.8107 C   0  0  0  0  0  0  0  0  0  0  0  0
    3.1328   -1.7372   -3.2456 C   0  0  0  0  0  0  0  0  0  0  0  0
    2.6022   -3.2065   -1.4321 O   0  0  0  0  0  0  0  0  0  0  0  0
    2.3902    1.3038    0.6326 N   0  0  0  0  0  0  0  0  0  0  0  0
    1.9511    2.1998    1.4467 C   0  0  0  0  0  0  0  0  0  0  0  0
    2.6383    3.2428    2.0710 N   0  0  0  0  0  0  0  0  0  0  0  0
    4.0271    3.0981    2.4589 C   0  0  0  0  0  0  0  0  0  0  0  0
    1.6984    4.8279    2.9880 H   0  0  0  0  0  0  0  0  0  0  0  0
   -0.3774    3.5932    3.2688 H   0  0  0  0  0  0  0  0  0  0  0  0
   -2.6141   -0.8944    2.6626 H   0  0  0  0  0  0  0  0  0  0  0  0
   -4.1022   -2.5460    1.6385 H   0  0  0  0  0  0  0  0  0  0  0  0
   -6.1258   -3.2184    0.5918 H   0  0  0  0  0  0  0  0  0  0  0  0
   -6.1759   -4.0593   -0.9623 H   0  0  0  0  0  0  0  0  0  0  0  0
   -4.7026   -4.1672    0.0085 H   0  0  0  0  0  0  0  0  0  0  0  0
   -4.1264   -0.2628   -2.0130 H   0  0  0  0  0  0  0  0  0  0  0  0
   -1.2143    2.1705   -2.6004 H   0  0  0  0  0  0  0  0  0  0  0  0
   -1.1374    0.4516   -2.1832 H   0  0  0  0  0  0  0  0  0  0  0  0
   -2.5343    1.1076   -3.1078 H   0  0  0  0  0  0  0  0  0  0  0  0
    1.2459   -1.2967   -0.8763 H   0  0  0  0  0  0  0  0  0  0  0  0
    3.9317   -0.1067   -1.1516 H   0  0  0  0  0  0  0  0  0  0  0  0
    3.6589   -1.2736    0.1601 H   0  0  0  0  0  0  0  0  0  0  0  0
    4.4942   -2.4949   -1.7729 H   0  0  0  0  0  0  0  0  0  0  0  0
    2.0818   -1.4469   -3.3505 H   0  0  0  0  0  0  0  0  0  0  0  0
    3.7631   -0.9115   -3.5890 H   0  0  0  0  0  0  0  0  0  0  0  0
    3.2856   -2.5921   -3.9134 H   0  0  0  0  0  0  0  0  0  0  0  0
    2.8053   -3.4359   -0.5085 H   0  0  0  0  0  0  0  0  0  0  0  0
    4.1364    2.3361    3.2376 H   0  0  0  0  0  0  0  0  0  0  0  0
    4.6395    2.8100    1.5985 H   0  0  0  0  0  0  0  0  0  0  0  0
    4.4162    4.0466    2.8432 H   0  0  0  0  0  0  0  0  0  0  0  0
  1  2  1  0
  2  3  2  0
  3  4  1  0
  4  5  2  3
  5  6  1  0
  6  7  2  0
  7  8  1  0
  8  9  2  0
  9 10  1  0
 10 11  1  0
  9 12  1  0
 12 13  2  0
 13 14  1  0
 14 15  1  0
  4 16  1  0
 16 17  2  0
 17 18  1  0
 18 19  1  0
 19 20  1  0
 20 21  1  0
 20 22  1  0
 17 23  1  0
 23 24  2  0
 24 25  1  0
 25 26  1  0
 25  1  1  0
 24  3  1  0
 13  6  1  0
  1 27  1  0
  2 28  1  0
  7 29  1  0
  8 30  1  0
 11 31  1  0
 11 32  1  0
 11 33  1  0
 12 34  1  0
 15 35  1  0
 15 36  1  0
 15 37  1  0
 18 38  1  0
 19 39  1  0
 19 40  1  0
 20 41  1  0
 21 42  1  0
 21 43  1  0
 21 44  1  0
 22 45  1  0
 26 46  1  0
 26 47  1  0
 26 48  1  0
M  END
>  <ScrubInfo>  (6) 
{"isomerGroup": 0, "isomerId": 5, "confId": 0, "nr_conformers:": 1, "nr_isomers:": 9}

$$$$
_i6
     RDKit          3D

 48 50  0  0  0  0  0  0  0  0999 V2000
    0.6031    0.2205    4.1560 N   0  0  0  0  0  0  0  0  0  0  0  0
    0.6326    0.7447    2.8690 C   0  0  0  0  0  0  0  0  0  0  0  0
   -0.3103    0.2233    2.0725 C   0  0  0  0  0  0  0  0  0  0  0  0
   -0.8018    0.3774    0.7050 C   0  0  0  0  0  0  0  0  0  0  0  0
   -0.2255    1.2177   -0.2157 N   0  0  0  0  0  0  0  0  0  0  0  0
    1.1068    1.1566   -0.7049 C   0  0  0  0  0  0  0  0  0  0  0  0
    2.0538    0.2334   -0.2460 C   0  0  0  0  0  0  0  0  0  0  0  0
    3.3696    0.2525   -0.7237 C   0  0  0  0  0  0  0  0  0  0  0  0
    3.7602    1.2018   -1.6642 C   0  0  0  0  0  0  0  0  0  0  0  0
    5.0093    1.3279   -2.2076 O   0  0  0  0  0  0  0  0  0  0  0  0
    5.9890    0.3799   -1.8017 C   0  0  0  0  0  0  0  0  0  0  0  0
    2.8266    2.1317   -2.1301 C   0  0  0  0  0  0  0  0  0  0  0  0
    1.5094    2.1177   -1.6606 C   0  0  0  0  0  0  0  0  0  0  0  0
    0.5189    2.9787   -2.0743 O   0  0  0  0  0  0  0  0  0  0  0  0
    0.8909    4.0042   -2.9874 C   0  0  0  0  0  0  0  0  0  0  0  0
   -1.8840   -0.2692    0.3651 N   0  0  0  0  0  0  0  0  0  0  0  0
   -2.4804   -1.1065    1.2852 C   0  0  0  0  0  0  0  0  0  0  0  0
   -3.5549   -1.7370    0.9651 N   0  0  0  0  0  0  0  0  0  0  0  0
   -4.1275   -1.5286   -0.3714 C   0  0  0  0  0  0  0  0  0  0  0  0
   -3.4994   -2.5327   -1.3484 C   0  0  0  0  0  0  0  0  0  0  0  0
   -4.1291   -2.4468   -2.7283 C   0  0  0  0  0  0  0  0  0  0  0  0
   -3.6916   -3.8582   -0.8438 O   0  0  0  0  0  0  0  0  0  0  0  0
   -2.0404   -1.3842    2.5567 N   0  0  0  0  0  0  0  0  0  0  0  0
   -0.9912   -0.7509    2.9492 C   0  0  0  0  0  0  0  0  0  0  0  0
   -0.3303   -0.8117    4.1771 N   0  0  0  0  0  0  0  0  0  0  0  0
   -1.0650   -1.0744    5.4008 C   0  0  0  0  0  0  0  0  0  0  0  0
    1.5273    0.0037    4.5355 H   0  0  0  0  0  0  0  0  0  0  0  0
    1.3701    1.4941    2.6183 H   0  0  0  0  0  0  0  0  0  0  0  0
   -0.8399    1.4433   -0.9967 H   0  0  0  0  0  0  0  0  0  0  0  0
    1.7864   -0.5415    0.4659 H   0  0  0  0  0  0  0  0  0  0  0  0
    4.0596   -0.4934   -0.3426 H   0  0  0  0  0  0  0  0  0  0  0  0
    6.9168    0.6091   -2.3348 H   0  0  0  0  0  0  0  0  0  0  0  0
    5.6907   -0.6378   -2.0741 H   0  0  0  0  0  0  0  0  0  0  0  0
    6.1931    0.4592   -0.7288 H   0  0  0  0  0  0  0  0  0  0  0  0
    3.1610    2.8539   -2.8677 H   0  0  0  0  0  0  0  0  0  0  0  0
    1.2184    3.5808   -3.9425 H   0  0  0  0  0  0  0  0  0  0  0  0
    1.6573    4.6579   -2.5581 H   0  0  0  0  0  0  0  0  0  0  0  0
    0.0040    4.6151   -3.1818 H   0  0  0  0  0  0  0  0  0  0  0  0
   -4.0284   -0.4969   -0.7283 H   0  0  0  0  0  0  0  0  0  0  0  0
   -5.2035   -1.7238   -0.2870 H   0  0  0  0  0  0  0  0  0  0  0  0
   -2.4192   -2.3694   -1.4273 H   0  0  0  0  0  0  0  0  0  0  0  0
   -3.6805   -3.1872   -3.3993 H   0  0  0  0  0  0  0  0  0  0  0  0
   -3.9947   -1.4527   -3.1651 H   0  0  0  0  0  0  0  0  0  0  0  0
   -5.2007   -2.6708   -2.6859 H   0  0  0  0  0  0  0  0  0  0  0  0
   -3.5888   -3.7684    0.1264 H   0  0  0  0  0  0  0  0  0  0  0  0
   -1.6258   -2.0110    5.3199 H   0  0  0  0  0  0  0  0  0  0  0  0
   -0.3748   -1.1701    6.2453 H   0  0  0  0  0  0  0  0  0  0  0  0
   -1.7671   -0.2619    5.6154 H   0  0  0  0  0  0  0  0  0  0  0  0
  1  2  1  0
  2  3  2  0
  3  4  1  0
  4  5  1  0
  5  6  1  0
  6  7  2  0
  7  8  1  0
  8  9  2  0
  9 10  1  0
 10 11  1  0
  9 12  1  0
 12 13  2  0
 13 14  1  0
 14 15  1  0
  4 16  2  0
 16 17  1  0
 17 18  2  3
 18 19  1  0
 19 20  1  0
 20 21  1  0
 20 22  1  0
 17 23  1  0
 23 24  2  0
 24 25  1  0
 25 26  1  0
 25  1  1  0
 24  3  1  0
 13  6  1  0
  1 27  1  0
  2 28  1  0
  5 29  1  0
  7 30  1  0
  8 31  1  0
 11 32  1  0
 11 33  1  0
 11 34  1  0
 12 35  1  0
 15 36  1  0
 15 37  1  0
 15 38  1  0
 19 39  1  0
 19 40  1  0
 20 41  1  0
 21 42  1  0
 21 43  1  0
 21 44  1  0
 22 45  1  0
 26 46  1  0
 26 47  1  0
 26 48  1  0
M  END
>  <ScrubInfo>  (7) 
{"isomerGroup": 0, "isomerId": 6, "confId": 0, "nr_conformers:": 1, "nr_isomers:": 9}

$$$$
_i7
     RDKit          3D

 48 50  0  0  0  0  0  0  0  0999 V2000
   -2.3629    0.9557   -0.4401 N   0  0  0  0  0  0  0  0  0  0  0  0
   -2.5445   -0.0619    0.4820 C   0  0  0  0  0  0  0  0  0  0  0  0
   -3.6586   -0.5723    0.8899 N   0  0  0  0  0  0  0  0  0  0  0  0
   -4.9090   -0.0303    0.3422 C   0  0  0  0  0  0  0  0  0  0  0  0
   -6.0921   -0.8069    0.9426 C   0  0  0  0  0  0  0  0  0  0  0  0
   -6.2440   -0.5873    2.4415 C   0  0  0  0  0  0  0  0  0  0  0  0
   -5.9039   -2.2021    0.6985 O   0  0  0  0  0  0  0  0  0  0  0  0
   -1.3632   -0.5506    0.9943 N   0  0  0  0  0  0  0  0  0  0  0  0
   -0.0469   -0.2241    0.7461 C   0  0  0  0  0  0  0  0  0  0  0  0
    0.9194   -0.8475    1.3498 N   0  0  0  0  0  0  0  0  0  0  0  0
    2.2675   -0.5816    1.0741 C   0  0  0  0  0  0  0  0  0  0  0  0
    2.9880    0.2080    1.9732 C   0  0  0  0  0  0  0  0  0  0  0  0
    4.3407    0.4670    1.7570 C   0  0  0  0  0  0  0  0  0  0  0  0
    4.9963   -0.0712    0.6487 C   0  0  0  0  0  0  0  0  0  0  0  0
    6.3193    0.2656    0.5570 O   0  0  0  0  0  0  0  0  0  0  0  0
    7.0448   -0.2456   -0.5538 C   0  0  0  0  0  0  0  0  0  0  0  0
    4.2896   -0.8809   -0.2460 C   0  0  0  0  0  0  0  0  0  0  0  0
    2.9283   -1.1473   -0.0376 C   0  0  0  0  0  0  0  0  0  0  0  0
    2.1482   -1.9226   -0.8614 O   0  0  0  0  0  0  0  0  0  0  0  0
    2.7746   -2.5392   -1.9765 C   0  0  0  0  0  0  0  0  0  0  0  0
    0.0416    0.8593   -0.2189 C   0  0  0  0  0  0  0  0  0  0  0  0
    1.0547    1.6320   -0.8162 C   0  0  0  0  0  0  0  0  0  0  0  0
    0.5771    2.5497   -1.6706 N   0  0  0  0  0  0  0  0  0  0  0  0
   -0.7597    2.3653   -1.6254 N   0  0  0  0  0  0  0  0  0  0  0  0
   -1.6129    3.2006   -2.4324 C   0  0  0  0  0  0  0  0  0  0  0  0
   -1.1169    1.3789   -0.7576 C   0  0  0  0  0  0  0  0  0  0  0  0
   -3.1913    1.3560   -0.8576 H   0  0  0  0  0  0  0  0  0  0  0  0
   -5.0098    1.0373    0.5686 H   0  0  0  0  0  0  0  0  0  0  0  0
   -4.9179   -0.1725   -0.7453 H   0  0  0  0  0  0  0  0  0  0  0  0
   -7.0168   -0.5039    0.4401 H   0  0  0  0  0  0  0  0  0  0  0  0
   -5.3727   -0.9578    2.9920 H   0  0  0  0  0  0  0  0  0  0  0  0
   -7.1083   -1.1446    2.8189 H   0  0  0  0  0  0  0  0  0  0  0  0
   -6.3845    0.4723    2.6752 H   0  0  0  0  0  0  0  0  0  0  0  0
   -4.9592   -2.3610    0.8993 H   0  0  0  0  0  0  0  0  0  0  0  0
   -1.4755   -1.3034    1.6574 H   0  0  0  0  0  0  0  0  0  0  0  0
    2.4906    0.6200    2.8469 H   0  0  0  0  0  0  0  0  0  0  0  0
    4.8890    1.0883    2.4610 H   0  0  0  0  0  0  0  0  0  0  0  0
    8.0736    0.1191   -0.4777 H   0  0  0  0  0  0  0  0  0  0  0  0
    7.0771   -1.3399   -0.5338 H   0  0  0  0  0  0  0  0  0  0  0  0
    6.6304    0.1215   -1.4986 H   0  0  0  0  0  0  0  0  0  0  0  0
    4.7967   -1.3033   -1.1028 H   0  0  0  0  0  0  0  0  0  0  0  0
    2.0175   -3.1302   -2.5008 H   0  0  0  0  0  0  0  0  0  0  0  0
    3.1553   -1.7900   -2.6783 H   0  0  0  0  0  0  0  0  0  0  0  0
    3.5676   -3.2234   -1.6571 H   0  0  0  0  0  0  0  0  0  0  0  0
    2.1254    1.5857   -0.6744 H   0  0  0  0  0  0  0  0  0  0  0  0
   -1.0818    3.4771   -3.3471 H   0  0  0  0  0  0  0  0  0  0  0  0
   -2.5191    2.6493   -2.6935 H   0  0  0  0  0  0  0  0  0  0  0  0
   -1.8618    4.0926   -1.8527 H   0  0  0  0  0  0  0  0  0  0  0  0
  1  2  1  0
  2  3  2  3
  3  4  1  0
  4  5  1  0
  5  6  1  0
  5  7  1  0
  2  8  1  0
  8  9  1  0
  9 10  2  3
 10 11  1  0
 11 12  2  0
 12 13  1  0
 13 14  2  0
 14 15  1  0
 15 16  1  0
 14 17  1  0
 17 18  2  0
 18 19  1  0
 19 20  1  0
  9 21  1  0
 21 22  1  0
 22 23  2  0
 23 24  1  0
 24 25  1  0
 24 26  1  0
 26  1  1  0
 18 11  1  0
 26 21  2  0
  1 27  1  0
  4 28  1  0
  4 29  1  0
  5 30  1  0
  6 31  1  0
  6 32  1  0
  6 33  1  0
  7 34  1  0
  8 35  1  0
 12 36  1  0
 13 37  1  0
 16 38  1  0
 16 39  1  0
 16 40  1  0
 17 41  1  0
 20 42  1  0
 20 43  1  0
 20 44  1  0
 22 45  1  0
 25 46  1  0
 25 47  1  0
 25 48  1  0
M  END
>  <ScrubInfo>  (8) 
{"isomerGroup": 0, "isomerId": 7, "confId": 0, "nr_conformers:": 1, "nr_isomers:": 9}

$$$$
_i8
     RDKit          3D

 48 50  0  0  0  0  0  0  0  0999 V2000
    2.1317    3.5562    2.2562 N   0  0  0  0  0  0  0  0  0  0  0  0
    0.8828    2.9466    2.3016 C   0  0  0  0  0  0  0  0  0  0  0  0
    0.7700    1.9258    1.4439 C   0  0  0  0  0  0  0  0  0  0  0  0
   -0.2530    0.9644    1.0250 C   0  0  0  0  0  0  0  0  0  0  0  0
   -1.4144    0.9846    1.6069 N   0  0  0  0  0  0  0  0  0  0  0  0
   -2.4080    0.0696    1.2100 C   0  0  0  0  0  0  0  0  0  0  0  0
   -2.8061   -0.8975    2.1382 C   0  0  0  0  0  0  0  0  0  0  0  0
   -3.8035   -1.8257    1.8284 C   0  0  0  0  0  0  0  0  0  0  0  0
   -4.4218   -1.7891    0.5810 C   0  0  0  0  0  0  0  0  0  0  0  0
   -5.4037   -2.6373    0.1468 O   0  0  0  0  0  0  0  0  0  0  0  0
   -5.8359   -3.6425    1.0558 C   0  0  0  0  0  0  0  0  0  0  0  0
   -4.0407   -0.8160   -0.3505 C   0  0  0  0  0  0  0  0  0  0  0  0
   -3.0468    0.1211   -0.0460 C   0  0  0  0  0  0  0  0  0  0  0  0
   -2.6055    1.0924   -0.9105 O   0  0  0  0  0  0  0  0  0  0  0  0
   -3.3729    1.3142   -2.0865 C   0  0  0  0  0  0  0  0  0  0  0  0
    0.1981    0.1374    0.0271 N   0  0  0  0  0  0  0  0  0  0  0  0
    1.4313    0.1669   -0.5664 C   0  0  0  0  0  0  0  0  0  0  0  0
    1.6618   -0.6554   -1.5389 N   0  0  0  0  0  0  0  0  0  0  0  0
    2.9839   -0.6059   -2.1882 C   0  0  0  0  0  0  0  0  0  0  0  0
    3.9541   -1.5333   -1.4424 C   0  0  0  0  0  0  0  0  0  0  0  0
    5.3155   -1.5822   -2.1152 C   0  0  0  0  0  0  0  0  0  0  0  0
    3.4117   -2.8581   -1.4233 O   0  0  0  0  0  0  0  0  0  0  0  0
    2.4225    1.0306   -0.1449 N   0  0  0  0  0  0  0  0  0  0  0  0
    2.1236    1.8550    0.8109 C   0  0  0  0  0  0  0  0  0  0  0  0
    2.9512    2.8069    1.4137 N   0  0  0  0  0  0  0  0  0  0  0  0
    3.9841    3.4850    0.6542 C   0  0  0  0  0  0  0  0  0  0  0  0
    2.5108    3.7683    3.1818 H   0  0  0  0  0  0  0  0  0  0  0  0
    0.1301    3.3124    2.9859 H   0  0  0  0  0  0  0  0  0  0  0  0
   -2.3321   -0.9221    3.1164 H   0  0  0  0  0  0  0  0  0  0  0  0
   -4.0720   -2.5564    2.5838 H   0  0  0  0  0  0  0  0  0  0  0  0
   -6.2730   -3.1986    1.9563 H   0  0  0  0  0  0  0  0  0  0  0  0
   -6.6167   -4.2276    0.5604 H   0  0  0  0  0  0  0  0  0  0  0  0
   -5.0175   -4.3250    1.3076 H   0  0  0  0  0  0  0  0  0  0  0  0
   -4.5407   -0.8202   -1.3138 H   0  0  0  0  0  0  0  0  0  0  0  0
   -2.9571    2.1886   -2.5962 H   0  0  0  0  0  0  0  0  0  0  0  0
   -3.2942    0.4630   -2.7705 H   0  0  0  0  0  0  0  0  0  0  0  0
   -4.4182    1.5349   -1.8459 H   0  0  0  0  0  0  0  0  0  0  0  0
   -0.4578   -0.5001   -0.3969 H   0  0  0  0  0  0  0  0  0  0  0  0
    3.3799    0.4125   -2.2761 H   0  0  0  0  0  0  0  0  0  0  0  0
    2.8430   -0.9714   -3.2128 H   0  0  0  0  0  0  0  0  0  0  0  0
    4.0708   -1.2151   -0.4010 H   0  0  0  0  0  0  0  0  0  0  0  0
    5.7816   -0.5926   -2.1409 H   0  0  0  0  0  0  0  0  0  0  0  0
    5.9811   -2.2684   -1.5806 H   0  0  0  0  0  0  0  0  0  0  0  0
    5.2338   -1.9597   -3.1404 H   0  0  0  0  0  0  0  0  0  0  0  0
    2.4525   -2.7281   -1.2861 H   0  0  0  0  0  0  0  0  0  0  0  0
    4.5847    4.1215    1.3122 H   0  0  0  0  0  0  0  0  0  0  0  0
    4.6573    2.7597    0.1860 H   0  0  0  0  0  0  0  0  0  0  0  0
    3.5436    4.1111   -0.1287 H   0  0  0  0  0  0  0  0  0  0  0  0
  1  2  1  0
  2  3  2  0
  3  4  1  0
  4  5  2  3
  5  6  1  0
  6  7  2  0
  7  8  1  0
  8  9  2  0
  9 10  1  0
 10 11  1  0
  9 12  1  0
 12 13  2  0
 13 14  1  0
 14 15  1  0
  4 16  1  0
 16 17  1  0
 17 18  2  3
 18 19  1  0
 19 20  1  0
 20 21  1  0
 20 22  1  0
 17 23  1  0
 23 24  2  0
 24 25  1  0
 25 26  1  0
 25  1  1  0
 24  3  1  0
 13  6  1  0
  1 27  1  0
  2 28  1  0
  7 29  1  0
  8 30  1  0
 11 31  1  0
 11 32  1  0
 11 33  1  0
 12 34  1  0
 15 35  1  0
 15 36  1  0
 15 37  1  0
 16 38  1  0
 19 39  1  0
 19 40  1  0
 20 41  1  0
 21 42  1  0
 21 43  1  0
 21 44  1  0
 22 45  1  0
 26 46  1  0
 26 47  1  0
 26 48  1  0
M  END
>  <ScrubInfo>  (9) 
{"isomerGroup": 0, "isomerId": 8, "confId": 0, "nr_conformers:": 1, "nr_isomers:": 9}

$$$$
