REMARK SMILES Cc1cccc(Nc2nc(NC[C@H]3CCCO3)nc(N)c2[N+](=O)[O-])c1
REMARK SMILES IDX 8 1 9 2 10 3 18 4 19 5 21 6 7 7 6 9 2 10 3 11 25 12 4 13
REMARK SMILES IDX 5 14 1 15 22 16 23 17 24 18 11 19 12 21 13 22 14 23 17 24
REMARK SMILES IDX 15 25 16 26 20 27
REMARK H PARENT 7 8 11 20 20 28 20 29
ROOT
ATOM      1  C   UNL     1       0.420  -0.014  -0.326  1.00  0.00     0.217 A 
ATOM      2  N   UNL     1      -0.579  -0.856  -0.001  1.00  0.00    -0.188 NA
ATOM      3  C   UNL     1      -1.653  -0.898  -0.802  1.00  0.00     0.227 A 
ATOM      4  N   UNL     1      -1.801  -0.130  -1.887  1.00  0.00    -0.189 NA
ATOM      5  C   UNL     1      -0.823   0.732  -2.202  1.00  0.00     0.210 A 
ATOM      6  C   UNL     1       0.311   0.816  -1.422  1.00  0.00     0.353 A 
ENDROOT
BRANCH   1   7
ATOM      7  N   UNL     1       1.527  -0.055   0.541  1.00  0.00    -0.334 N 
ATOM      8  H   UNL     1       1.285  -0.756   1.245  1.00  0.00     0.168 HD
BRANCH   7   9
ATOM      9  C   UNL     1       2.872  -0.277   0.153  1.00  0.00     0.040 A 
ATOM     10  C   UNL     1       5.241  -0.040   0.693  1.00  0.00    -0.049 A 
ATOM     11  C   UNL     1       5.565  -0.809  -0.429  1.00  0.00     0.003 A 
ATOM     12  C   UNL     1       3.891   0.198   0.989  1.00  0.00     0.029 A 
ATOM     13  C   UNL     1       4.558  -1.318  -1.247  1.00  0.00     0.002 A 
ATOM     14  C   UNL     1       3.218  -1.063  -0.952  1.00  0.00     0.026 A 
ATOM     15  C   UNL     1       6.318   0.473   1.602  1.00  0.00     0.044 C 
ENDBRANCH   7   9
ENDBRANCH   1   7
BRANCH   6  16
ATOM     16  N   UNL     1       1.314   1.785  -1.724  1.00  0.00     0.070 N 
ATOM     17  O   UNL     1       1.918   1.651  -2.799  1.00  0.00    -0.258 OA
ATOM     18  O   UNL     1       1.447   2.734  -0.939  1.00  0.00    -0.258 OA
ENDBRANCH   6  16
BRANCH   3  19
ATOM     19  N   UNL     1      -2.688  -1.766  -0.531  1.00  0.00    -0.351 N 
ATOM     20  H   UNL     1      -3.486  -1.477  -1.095  1.00  0.00     0.163 HD
BRANCH  19  21
ATOM     21  C   UNL     1      -3.040  -1.991   0.866  1.00  0.00     0.148 C 
BRANCH  21  22
ATOM     22  C   UNL     1      -4.058  -0.967   1.392  1.00  0.00     0.137 C 
ATOM     23  C   UNL     1      -3.519   0.422   1.699  1.00  0.00     0.036 C 
ATOM     24  O   UNL     1      -5.137  -0.786   0.448  1.00  0.00    -0.376 OA
ATOM     25  C   UNL     1      -4.769   1.261   1.581  1.00  0.00     0.031 C 
ATOM     26  C   UNL     1      -5.470   0.610   0.408  1.00  0.00     0.160 C 
ENDBRANCH  21  22
ENDBRANCH  19  21
ENDBRANCH   3  19
BRANCH   5  27
ATOM     27  N   UNL     1      -1.065   1.528  -3.331  1.00  0.00    -0.378 N 
ATOM     28  H   UNL     1      -0.315   1.421  -4.016  1.00  0.00     0.158 HD
ATOM     29  H   UNL     1      -1.121   2.514  -3.091  1.00  0.00     0.158 HD
ENDBRANCH   5  27
TORSDOF 7
