_i0
     RDKit          3D

 45 47  0  0  0  0  0  0  0  0999 V2000
    6.3183    0.4733    1.6016 C   0  0  0  0  0  0  0  0  0  0  0  0
    5.2410   -0.0398    0.6930 C   0  0  0  0  0  0  0  0  0  0  0  0
    5.5651   -0.8088   -0.4288 C   0  0  0  0  0  0  0  0  0  0  0  0
    4.5579   -1.3182   -1.2473 C   0  0  0  0  0  0  0  0  0  0  0  0
    3.2176   -1.0631   -0.9524 C   0  0  0  0  0  0  0  0  0  0  0  0
    2.8721   -0.2772    0.1527 C   0  0  0  0  0  0  0  0  0  0  0  0
    1.5270   -0.0551    0.5406 N   0  0  0  0  0  0  0  0  0  0  0  0
    0.4197   -0.0141   -0.3262 C   0  0  0  0  0  0  0  0  0  0  0  0
   -0.5793   -0.8555   -0.0009 N   0  0  0  0  0  0  0  0  0  0  0  0
   -1.6526   -0.8977   -0.8018 C   0  0  0  0  0  0  0  0  0  0  0  0
   -2.6879   -1.7663   -0.5312 N   0  0  0  0  0  0  0  0  0  0  0  0
   -3.0399   -1.9910    0.8664 C   0  0  0  0  0  0  0  0  0  0  0  0
   -4.0578   -0.9665    1.3922 C   0  0  0  0  0  0  0  0  0  0  0  0
   -3.5194    0.4225    1.6994 C   0  0  0  0  0  0  0  0  0  0  0  0
   -4.7685    1.2610    1.5805 C   0  0  0  0  0  0  0  0  0  0  0  0
   -5.4703    0.6096    0.4080 C   0  0  0  0  0  0  0  0  0  0  0  0
   -5.1371   -0.7863    0.4482 O   0  0  0  0  0  0  0  0  0  0  0  0
   -1.8012   -0.1301   -1.8868 N   0  0  0  0  0  0  0  0  0  0  0  0
   -0.8229    0.7322   -2.2024 C   0  0  0  0  0  0  0  0  0  0  0  0
   -1.0649    1.5276   -3.3314 N   0  0  0  0  0  0  0  0  0  0  0  0
    0.3115    0.8157   -1.4217 C   0  0  0  0  0  0  0  0  0  0  0  0
    1.3143    1.7850   -1.7242 N   0  0  0  0  0  4  0  0  0  0  0  0
    1.9181    1.6506   -2.7991 O   0  0  0  0  0  0  0  0  0  0  0  0
    1.4471    2.7337   -0.9394 O   0  0  0  0  0  1  0  0  0  0  0  0
    3.8914    0.1976    0.9886 C   0  0  0  0  0  0  0  0  0  0  0  0
    6.0205    1.4203    2.0639 H   0  0  0  0  0  0  0  0  0  0  0  0
    6.5221   -0.2575    2.3902 H   0  0  0  0  0  0  0  0  0  0  0  0
    7.2428    0.6608    1.0453 H   0  0  0  0  0  0  0  0  0  0  0  0
    6.6047   -1.0210   -0.6689 H   0  0  0  0  0  0  0  0  0  0  0  0
    4.8170   -1.9238   -2.1122 H   0  0  0  0  0  0  0  0  0  0  0  0
    2.4550   -1.5008   -1.5912 H   0  0  0  0  0  0  0  0  0  0  0  0
    1.2850   -0.7562    1.2447 H   0  0  0  0  0  0  0  0  0  0  0  0
   -3.4861   -1.4769   -1.0948 H   0  0  0  0  0  0  0  0  0  0  0  0
   -3.5229   -2.9754    0.8963 H   0  0  0  0  0  0  0  0  0  0  0  0
   -2.1676   -2.0590    1.5267 H   0  0  0  0  0  0  0  0  0  0  0  0
   -4.5100   -1.3740    2.3059 H   0  0  0  0  0  0  0  0  0  0  0  0
   -3.0491    0.4841    2.6847 H   0  0  0  0  0  0  0  0  0  0  0  0
   -2.7937    0.7617    0.9558 H   0  0  0  0  0  0  0  0  0  0  0  0
   -5.3753    1.1546    2.4875 H   0  0  0  0  0  0  0  0  0  0  0  0
   -4.5710    2.3244    1.4224 H   0  0  0  0  0  0  0  0  0  0  0  0
   -6.5563    0.7307    0.4472 H   0  0  0  0  0  0  0  0  0  0  0  0
   -5.1068    1.0109   -0.5441 H   0  0  0  0  0  0  0  0  0  0  0  0
   -0.3150    1.4213   -4.0156 H   0  0  0  0  0  0  0  0  0  0  0  0
   -1.1210    2.5145   -3.0915 H   0  0  0  0  0  0  0  0  0  0  0  0
    3.6284    0.7792    1.8701 H   0  0  0  0  0  0  0  0  0  0  0  0
  1  2  1  0
  2  3  2  0
  3  4  1  0
  4  5  2  0
  5  6  1  0
  6  7  1  0
  7  8  1  0
  8  9  2  0
  9 10  1  0
 10 11  1  0
 11 12  1  0
 12 13  1  0
 13 14  1  0
 14 15  1  0
 15 16  1  0
 16 17  1  0
 10 18  2  0
 18 19  1  0
 19 20  1  0
 19 21  2  0
 21 22  1  0
 22 23  2  0
 22 24  1  0
  6 25  2  0
 25  2  1  0
 21  8  1  0
 17 13  1  0
  1 26  1  0
  1 27  1  0
  1 28  1  0
  3 29  1  0
  4 30  1  0
  5 31  1  0
  7 32  1  0
 11 33  1  0
 12 34  1  0
 12 35  1  0
 13 36  1  0
 14 37  1  0
 14 38  1  0
 15 39  1  0
 15 40  1  0
 16 41  1  0
 16 42  1  0
 20 43  1  0
 20 44  1  0
 25 45  1  0
M  CHG  2  22   1  24  -1
M  END
>  <ScrubInfo>  (1) 
{"isomerGroup": 0, "isomerId": 0, "confId": 0, "nr_conformers:": 1, "nr_isomers:": 9}

$$$$
_i1
     RDKit          3D

 45 47  0  0  0  0  0  0  0  0999 V2000
    0.4452    0.3606    0.0124 N   0  0  0  0  0  0  0  0  0  0  0  0
    1.2054    1.4608    0.2300 C   0  0  0  0  0  0  0  0  0  0  0  0
    2.5391    1.3679   -0.0286 N   0  0  0  0  0  0  0  0  0  0  0  0
    3.3582    0.2224    0.3498 C   0  0  0  0  0  0  0  0  0  0  0  0
    4.8133    0.3958   -0.1196 C   0  0  0  0  0  0  0  0  0  0  0  0
    4.9785    0.3319   -1.6340 C   0  0  0  0  0  0  0  0  0  0  0  0
    5.3126   -1.1191   -1.8749 C   0  0  0  0  0  0  0  0  0  0  0  0
    6.1448   -1.4508   -0.6584 C   0  0  0  0  0  0  0  0  0  0  0  0
    5.6018   -0.6831    0.4244 O   0  0  0  0  0  0  0  0  0  0  0  0
    0.7127    2.5879    0.6618 N   0  0  0  0  0  0  0  0  0  0  0  0
   -0.6602    2.6674    0.8850 C   0  0  0  0  0  0  0  0  0  0  0  0
   -1.0965    3.9221    1.2951 N   0  0  0  0  0  0  0  0  0  0  0  0
   -1.4821    1.5978    0.7082 C   0  0  0  0  0  0  0  0  0  0  0  0
   -2.8831    1.8069    0.8588 N   0  0  0  0  0  4  0  0  0  0  0  0
   -3.3069    1.9672    2.0148 O   0  0  0  0  0  0  0  0  0  0  0  0
   -3.5657    1.8668   -0.1729 O   0  0  0  0  0  1  0  0  0  0  0  0
   -0.9034    0.2969    0.2675 C   0  0  0  0  0  0  0  0  0  0  0  0
   -1.4249   -0.8876    0.1104 N   0  0  0  0  0  0  0  0  0  0  0  0
   -2.7576   -1.1742    0.4114 C   0  0  0  0  0  0  0  0  0  0  0  0
   -3.1424   -1.4557    1.7243 C   0  0  0  0  0  0  0  0  0  0  0  0
   -4.4665   -1.7838    2.0153 C   0  0  0  0  0  0  0  0  0  0  0  0
   -5.4109   -1.8469    0.9906 C   0  0  0  0  0  0  0  0  0  0  0  0
   -5.0386   -1.5824   -0.3323 C   0  0  0  0  0  0  0  0  0  0  0  0
   -6.0421   -1.6843   -1.4418 C   0  0  0  0  0  0  0  0  0  0  0  0
   -3.7015   -1.2700   -0.6141 C   0  0  0  0  0  0  0  0  0  0  0  0
    0.8574   -0.4792   -0.3607 H   0  0  0  0  0  0  0  0  0  0  0  0
    2.9813    2.2521    0.2191 H   0  0  0  0  0  0  0  0  0  0  0  0
    2.9514   -0.7081   -0.0619 H   0  0  0  0  0  0  0  0  0  0  0  0
    3.3423    0.1092    1.4408 H   0  0  0  0  0  0  0  0  0  0  0  0
    5.2131    1.3394    0.2693 H   0  0  0  0  0  0  0  0  0  0  0  0
    5.8329    0.9522   -1.9324 H   0  0  0  0  0  0  0  0  0  0  0  0
    4.1073    0.6758   -2.1979 H   0  0  0  0  0  0  0  0  0  0  0  0
    5.8412   -1.2969   -2.8150 H   0  0  0  0  0  0  0  0  0  0  0  0
    4.3941   -1.7173   -1.8777 H   0  0  0  0  0  0  0  0  0  0  0  0
    6.1189   -2.5143   -0.4060 H   0  0  0  0  0  0  0  0  0  0  0  0
    7.1884   -1.1475   -0.7954 H   0  0  0  0  0  0  0  0  0  0  0  0
   -1.8555    3.8932    1.9762 H   0  0  0  0  0  0  0  0  0  0  0  0
   -0.2985    4.4532    1.6386 H   0  0  0  0  0  0  0  0  0  0  0  0
   -2.4094   -1.4238    2.5251 H   0  0  0  0  0  0  0  0  0  0  0  0
   -4.7619   -1.9930    3.0399 H   0  0  0  0  0  0  0  0  0  0  0  0
   -6.4400   -2.1052    1.2301 H   0  0  0  0  0  0  0  0  0  0  0  0
   -5.8050   -0.9819   -2.2479 H   0  0  0  0  0  0  0  0  0  0  0  0
   -7.0475   -1.4393   -1.0837 H   0  0  0  0  0  0  0  0  0  0  0  0
   -6.0493   -2.7005   -1.8477 H   0  0  0  0  0  0  0  0  0  0  0  0
   -3.3906   -1.0825   -1.6388 H   0  0  0  0  0  0  0  0  0  0  0  0
  1  2  1  0
  2  3  1  0
  3  4  1  0
  4  5  1  0
  5  6  1  0
  6  7  1  0
  7  8  1  0
  8  9  1  0
  2 10  2  0
 10 11  1  0
 11 12  1  0
 11 13  2  0
 13 14  1  0
 14 15  2  0
 14 16  1  0
 13 17  1  0
 17 18  2  3
 18 19  1  0
 19 20  2  0
 20 21  1  0
 21 22  2  0
 22 23  1  0
 23 24  1  0
 23 25  2  0
 17  1  1  0
 25 19  1  0
  9  5  1  0
  1 26  1  0
  3 27  1  0
  4 28  1  0
  4 29  1  0
  5 30  1  0
  6 31  1  0
  6 32  1  0
  7 33  1  0
  7 34  1  0
  8 35  1  0
  8 36  1  0
 12 37  1  0
 12 38  1  0
 20 39  1  0
 21 40  1  0
 22 41  1  0
 24 42  1  0
 24 43  1  0
 24 44  1  0
 25 45  1  0
M  CHG  2  14   1  16  -1
M  END
>  <ScrubInfo>  (2) 
{"isomerGroup": 0, "isomerId": 1, "confId": 0, "nr_conformers:": 1, "nr_isomers:": 9}

$$$$
_i2
     RDKit          3D

 45 47  0  0  0  0  0  0  0  0999 V2000
   -0.1160    0.8028   -0.1865 N   0  0  0  0  0  0  0  0  0  0  0  0
   -1.2157    1.6203   -0.3777 C   0  0  0  0  0  0  0  0  0  0  0  0
   -2.4819    1.0476   -0.4760 N   0  0  0  0  0  0  0  0  0  0  0  0
   -2.9910   -0.0825    0.2038 C   0  0  0  0  0  0  0  0  0  0  0  0
   -2.3785   -0.6656    1.3181 C   0  0  0  0  0  0  0  0  0  0  0  0
   -2.9178   -1.8079    1.9157 C   0  0  0  0  0  0  0  0  0  0  0  0
   -4.0795   -2.3847    1.4069 C   0  0  0  0  0  0  0  0  0  0  0  0
   -4.7202   -1.8160    0.3035 C   0  0  0  0  0  0  0  0  0  0  0  0
   -5.9510   -2.4503   -0.2731 C   0  0  0  0  0  0  0  0  0  0  0  0
   -4.1615   -0.6771   -0.2957 C   0  0  0  0  0  0  0  0  0  0  0  0
   -0.9365    2.9391   -0.5331 C   0  0  0  0  0  0  0  0  0  0  0  0
   -1.9728    3.8985   -0.8464 N   0  0  0  0  0  4  0  0  0  0  0  0
   -3.1573    3.5857   -0.6473 O   0  0  0  0  0  0  0  0  0  0  0  0
   -1.6199    4.9865   -1.3266 O   0  0  0  0  0  1  0  0  0  0  0  0
    0.4945    3.3868   -0.3963 C   0  0  0  0  0  0  0  0  0  0  0  0
    0.8877    4.7057   -0.4097 N   0  0  0  0  0  0  0  0  0  0  0  0
    1.4868    2.5453   -0.2435 N   0  0  0  0  0  0  0  0  0  0  0  0
    1.1820    1.2097   -0.1961 C   0  0  0  0  0  0  0  0  0  0  0  0
    2.1156    0.3206   -0.1603 N   0  0  0  0  0  0  0  0  0  0  0  0
    3.5031    0.8069   -0.1929 C   0  0  0  0  0  0  0  0  0  0  0  0
    4.4862   -0.3688   -0.2485 C   0  0  0  0  0  0  0  0  0  0  0  0
    4.3341   -1.3922    0.8692 C   0  0  0  0  0  0  0  0  0  0  0  0
    4.8631   -2.6436    0.2141 C   0  0  0  0  0  0  0  0  0  0  0  0
    4.3488   -2.4906   -1.2004 C   0  0  0  0  0  0  0  0  0  0  0  0
    4.3753   -1.0886   -1.4956 O   0  0  0  0  0  0  0  0  0  0  0  0
   -0.2694   -0.1929   -0.2792 H   0  0  0  0  0  0  0  0  0  0  0  0
   -3.2356    1.7161   -0.6733 H   0  0  0  0  0  0  0  0  0  0  0  0
   -1.4898   -0.2293    1.7650 H   0  0  0  0  0  0  0  0  0  0  0  0
   -2.4303   -2.2459    2.7832 H   0  0  0  0  0  0  0  0  0  0  0  0
   -4.4828   -3.2779    1.8788 H   0  0  0  0  0  0  0  0  0  0  0  0
   -6.6078   -1.6948   -0.7169 H   0  0  0  0  0  0  0  0  0  0  0  0
   -5.6722   -3.1749   -1.0443 H   0  0  0  0  0  0  0  0  0  0  0  0
   -6.5269   -2.9644    0.5037 H   0  0  0  0  0  0  0  0  0  0  0  0
   -4.6419   -0.2522   -1.1753 H   0  0  0  0  0  0  0  0  0  0  0  0
    0.2988    5.3572   -0.9299 H   0  0  0  0  0  0  0  0  0  0  0  0
    1.8807    4.8246   -0.5865 H   0  0  0  0  0  0  0  0  0  0  0  0
    3.6592    1.4267   -1.0845 H   0  0  0  0  0  0  0  0  0  0  0  0
    3.7128    1.4014    0.7043 H   0  0  0  0  0  0  0  0  0  0  0  0
    5.5059    0.0365   -0.2282 H   0  0  0  0  0  0  0  0  0  0  0  0
    3.2849   -1.5443    1.1456 H   0  0  0  0  0  0  0  0  0  0  0  0
    4.8825   -1.1122    1.7732 H   0  0  0  0  0  0  0  0  0  0  0  0
    4.5272   -3.5665    0.6938 H   0  0  0  0  0  0  0  0  0  0  0  0
    5.9594   -2.6297    0.2190 H   0  0  0  0  0  0  0  0  0  0  0  0
    3.3115   -2.8323   -1.2849 H   0  0  0  0  0  0  0  0  0  0  0  0
    4.9563   -3.0329   -1.9301 H   0  0  0  0  0  0  0  0  0  0  0  0
  1  2  1  0
  2  3  1  0
  3  4  1  0
  4  5  2  0
  5  6  1  0
  6  7  2  0
  7  8  1  0
  8  9  1  0
  8 10  2  0
  2 11  2  0
 11 12  1  0
 12 13  2  0
 12 14  1  0
 11 15  1  0
 15 16  1  0
 15 17  2  0
 17 18  1  0
 18 19  2  3
 19 20  1  0
 20 21  1  0
 21 22  1  0
 22 23  1  0
 23 24  1  0
 24 25  1  0
 18  1  1  0
 25 21  1  0
 10  4  1  0
  1 26  1  0
  3 27  1  0
  5 28  1  0
  6 29  1  0
  7 30  1  0
  9 31  1  0
  9 32  1  0
  9 33  1  0
 10 34  1  0
 16 35  1  0
 16 36  1  0
 20 37  1  0
 20 38  1  0
 21 39  1  0
 22 40  1  0
 22 41  1  0
 23 42  1  0
 23 43  1  0
 24 44  1  0
 24 45  1  0
M  CHG  2  12   1  14  -1
M  END
>  <ScrubInfo>  (3) 
{"isomerGroup": 0, "isomerId": 2, "confId": 0, "nr_conformers:": 1, "nr_isomers:": 9}

$$$$
_i3
     RDKit          3D

 45 47  0  0  0  0  0  0  0  0999 V2000
   -0.5406    2.1655   -1.5561 N   0  0  0  0  0  0  0  0  0  0  0  0
    0.5161    1.6781   -2.2893 C   0  0  0  0  0  0  0  0  0  0  0  0
    0.9016    2.3976   -3.4072 N   0  0  0  0  0  0  0  0  0  0  0  0
    1.0580    0.5197   -1.8501 C   0  0  0  0  0  0  0  0  0  0  0  0
    2.1057   -0.1114   -2.5988 N   0  0  0  0  0  4  0  0  0  0  0  0
    1.9780   -1.3141   -2.8627 O   0  0  0  0  0  0  0  0  0  0  0  0
    3.0576    0.5995   -2.9622 O   0  0  0  0  0  1  0  0  0  0  0  0
    0.5119   -0.1051   -0.6015 C   0  0  0  0  0  0  0  0  0  0  0  0
    1.0741   -1.2095    0.0175 N   0  0  0  0  0  0  0  0  0  0  0  0
    2.4264   -1.2302    0.4454 C   0  0  0  0  0  0  0  0  0  0  0  0
    3.0657   -2.4683    0.5683 C   0  0  0  0  0  0  0  0  0  0  0  0
    4.3738   -2.5485    1.0458 C   0  0  0  0  0  0  0  0  0  0  0  0
    5.0500   -1.3905    1.4261 C   0  0  0  0  0  0  0  0  0  0  0  0
    4.4231   -0.1436    1.3324 C   0  0  0  0  0  0  0  0  0  0  0  0
    5.1307    1.0976    1.7908 C   0  0  0  0  0  0  0  0  0  0  0  0
    3.1026   -0.0754    0.8644 C   0  0  0  0  0  0  0  0  0  0  0  0
   -0.5585    0.3674    0.0003 N   0  0  0  0  0  0  0  0  0  0  0  0
   -1.1361    1.4967   -0.5263 C   0  0  0  0  0  0  0  0  0  0  0  0
   -2.2498    1.9454   -0.0591 N   0  0  0  0  0  0  0  0  0  0  0  0
   -2.8961    1.2192    1.0438 C   0  0  0  0  0  0  0  0  0  0  0  0
   -3.7161    0.0327    0.5243 C   0  0  0  0  0  0  0  0  0  0  0  0
   -4.1964   -0.8787    1.6437 C   0  0  0  0  0  0  0  0  0  0  0  0
   -5.4047   -1.5238    1.0139 C   0  0  0  0  0  0  0  0  0  0  0  0
   -5.9988   -0.3741    0.2295 C   0  0  0  0  0  0  0  0  0  0  0  0
   -4.9121    0.4809   -0.1494 O   0  0  0  0  0  0  0  0  0  0  0  0
   -1.1114    2.8833   -1.9814 H   0  0  0  0  0  0  0  0  0  0  0  0
    1.8527    2.1816   -3.7250 H   0  0  0  0  0  0  0  0  0  0  0  0
    0.7858    3.4013   -3.2870 H   0  0  0  0  0  0  0  0  0  0  0  0
    0.4943   -1.4887    0.8083 H   0  0  0  0  0  0  0  0  0  0  0  0
    2.5516   -3.3793    0.2698 H   0  0  0  0  0  0  0  0  0  0  0  0
    4.8657   -3.5150    1.1209 H   0  0  0  0  0  0  0  0  0  0  0  0
    6.0683   -1.4680    1.8011 H   0  0  0  0  0  0  0  0  0  0  0  0
    4.9211    1.2783    2.8495 H   0  0  0  0  0  0  0  0  0  0  0  0
    6.2133    1.0035    1.6553 H   0  0  0  0  0  0  0  0  0  0  0  0
    4.8058    1.9679    1.2109 H   0  0  0  0  0  0  0  0  0  0  0  0
    2.6047    0.8914    0.8461 H   0  0  0  0  0  0  0  0  0  0  0  0
   -2.1618    0.8972    1.7923 H   0  0  0  0  0  0  0  0  0  0  0  0
   -3.5613    1.9299    1.5484 H   0  0  0  0  0  0  0  0  0  0  0  0
   -3.1441   -0.5511   -0.2068 H   0  0  0  0  0  0  0  0  0  0  0  0
   -4.5054   -0.2952    2.5196 H   0  0  0  0  0  0  0  0  0  0  0  0
   -3.4360   -1.5978    1.9605 H   0  0  0  0  0  0  0  0  0  0  0  0
   -6.1028   -1.9529    1.7373 H   0  0  0  0  0  0  0  0  0  0  0  0
   -5.0874   -2.3198    0.3298 H   0  0  0  0  0  0  0  0  0  0  0  0
   -6.6849    0.2144    0.8478 H   0  0  0  0  0  0  0  0  0  0  0  0
   -6.5343   -0.7082   -0.6636 H   0  0  0  0  0  0  0  0  0  0  0  0
  1  2  1  0
  2  3  1  0
  2  4  2  0
  4  5  1  0
  5  6  2  0
  5  7  1  0
  4  8  1  0
  8  9  1  0
  9 10  1  0
 10 11  2  0
 11 12  1  0
 12 13  2  0
 13 14  1  0
 14 15  1  0
 14 16  2  0
  8 17  2  0
 17 18  1  0
 18 19  2  3
 19 20  1  0
 20 21  1  0
 21 22  1  0
 22 23  1  0
 23 24  1  0
 24 25  1  0
 18  1  1  0
 25 21  1  0
 16 10  1  0
  1 26  1  0
  3 27  1  0
  3 28  1  0
  9 29  1  0
 11 30  1  0
 12 31  1  0
 13 32  1  0
 15 33  1  0
 15 34  1  0
 15 35  1  0
 16 36  1  0
 20 37  1  0
 20 38  1  0
 21 39  1  0
 22 40  1  0
 22 41  1  0
 23 42  1  0
 23 43  1  0
 24 44  1  0
 24 45  1  0
M  CHG  2   5   1   7  -1
M  END
>  <ScrubInfo>  (4) 
{"isomerGroup": 0, "isomerId": 3, "confId": 0, "nr_conformers:": 1, "nr_isomers:": 9}

$$$$
_i4
     RDKit          3D

 45 47  0  0  0  0  0  0  0  0999 V2000
    0.7850   -0.0713   -2.1759 N   0  0  0  0  0  0  0  0  0  0  0  0
    1.0177    0.2978   -0.8874 C   0  0  0  0  0  0  0  0  0  0  0  0
    2.2602    0.0265   -0.4003 N   0  0  0  0  0  0  0  0  0  0  0  0
    3.4792    0.4589   -1.0873 C   0  0  0  0  0  0  0  0  0  0  0  0
    4.7128    0.1750   -0.2210 C   0  0  0  0  0  0  0  0  0  0  0  0
    5.0002   -1.2994    0.0164 C   0  0  0  0  0  0  0  0  0  0  0  0
    5.7865   -1.2470    1.3028 C   0  0  0  0  0  0  0  0  0  0  0  0
    5.0774   -0.1457    2.0624 C   0  0  0  0  0  0  0  0  0  0  0  0
    4.5540    0.7684    1.0851 O   0  0  0  0  0  0  0  0  0  0  0  0
    0.1204    0.8565   -0.1265 N   0  0  0  0  0  0  0  0  0  0  0  0
   -1.1499    1.1066   -0.6634 C   0  0  0  0  0  0  0  0  0  0  0  0
   -2.0347    1.7587    0.2005 N   0  0  0  0  0  0  0  0  0  0  0  0
   -3.2370    1.1754    0.6855 C   0  0  0  0  0  0  0  0  0  0  0  0
   -4.2180    2.0297    1.2028 C   0  0  0  0  0  0  0  0  0  0  0  0
   -5.3893    1.5165    1.7605 C   0  0  0  0  0  0  0  0  0  0  0  0
   -5.5855    0.1382    1.8233 C   0  0  0  0  0  0  0  0  0  0  0  0
   -4.6127   -0.7360    1.3276 C   0  0  0  0  0  0  0  0  0  0  0  0
   -4.8019   -2.2206    1.4293 C   0  0  0  0  0  0  0  0  0  0  0  0
   -3.4311   -0.2091    0.7838 C   0  0  0  0  0  0  0  0  0  0  0  0
   -1.4536    0.7673   -1.9420 C   0  0  0  0  0  0  0  0  0  0  0  0
   -2.7199    1.1020   -2.5048 N   0  0  0  0  0  4  0  0  0  0  0  0
   -3.5530    0.1892   -2.6080 O   0  0  0  0  0  0  0  0  0  0  0  0
   -2.8880    2.2760   -2.8694 O   0  0  0  0  0  1  0  0  0  0  0  0
   -0.4274    0.1129   -2.7836 C   0  0  0  0  0  0  0  0  0  0  0  0
   -0.6422   -0.2651   -4.0037 N   0  0  0  0  0  0  0  0  0  0  0  0
    1.4790   -0.6426   -2.6272 H   0  0  0  0  0  0  0  0  0  0  0  0
    2.3108    0.3429    0.5727 H   0  0  0  0  0  0  0  0  0  0  0  0
    3.4093    1.5389   -1.2629 H   0  0  0  0  0  0  0  0  0  0  0  0
    3.5789   -0.0440   -2.0549 H   0  0  0  0  0  0  0  0  0  0  0  0
    5.5882    0.6491   -0.6824 H   0  0  0  0  0  0  0  0  0  0  0  0
    5.5498   -1.7612   -0.8086 H   0  0  0  0  0  0  0  0  0  0  0  0
    4.0784   -1.8707    0.1751 H   0  0  0  0  0  0  0  0  0  0  0  0
    6.8213   -0.9507    1.0938 H   0  0  0  0  0  0  0  0  0  0  0  0
    5.8059   -2.1955    1.8459 H   0  0  0  0  0  0  0  0  0  0  0  0
    5.7424    0.3882    2.7469 H   0  0  0  0  0  0  0  0  0  0  0  0
    4.2306   -0.5404    2.6337 H   0  0  0  0  0  0  0  0  0  0  0  0
   -1.4863    2.0237    1.0220 H   0  0  0  0  0  0  0  0  0  0  0  0
   -4.0780    3.1070    1.1554 H   0  0  0  0  0  0  0  0  0  0  0  0
   -6.1487    2.1925    2.1438 H   0  0  0  0  0  0  0  0  0  0  0  0
   -6.5024   -0.2498    2.2610 H   0  0  0  0  0  0  0  0  0  0  0  0
   -5.8647   -2.4829    1.4004 H   0  0  0  0  0  0  0  0  0  0  0  0
   -4.3723   -2.5891    2.3658 H   0  0  0  0  0  0  0  0  0  0  0  0
   -4.3187   -2.7333    0.5909 H   0  0  0  0  0  0  0  0  0  0  0  0
   -2.6627   -0.8960    0.4387 H   0  0  0  0  0  0  0  0  0  0  0  0
    0.1897   -0.6905   -4.4166 H   0  0  0  0  0  0  0  0  0  0  0  0
  1  2  1  0
  2  3  1  0
  3  4  1  0
  4  5  1  0
  5  6  1  0
  6  7  1  0
  7  8  1  0
  8  9  1  0
  2 10  2  0
 10 11  1  0
 11 12  1  0
 12 13  1  0
 13 14  2  0
 14 15  1  0
 15 16  2  0
 16 17  1  0
 17 18  1  0
 17 19  2  0
 11 20  2  0
 20 21  1  0
 21 22  2  0
 21 23  1  0
 20 24  1  0
 24 25  2  3
 24  1  1  0
  9  5  1  0
 19 13  1  0
  1 26  1  0
  3 27  1  0
  4 28  1  0
  4 29  1  0
  5 30  1  0
  6 31  1  0
  6 32  1  0
  7 33  1  0
  7 34  1  0
  8 35  1  0
  8 36  1  0
 12 37  1  0
 14 38  1  0
 15 39  1  0
 16 40  1  0
 18 41  1  0
 18 42  1  0
 18 43  1  0
 19 44  1  0
 25 45  1  0
M  CHG  2  21   1  23  -1
M  END
>  <ScrubInfo>  (5) 
{"isomerGroup": 0, "isomerId": 4, "confId": 0, "nr_conformers:": 1, "nr_isomers:": 9}

$$$$
_i5
     RDKit          3D

 45 47  0  0  0  0  0  0  0  0999 V2000
   -0.2540   -0.8368   -1.1420 N   0  0  0  0  0  0  0  0  0  0  0  0
    0.8737   -1.3203   -0.5547 C   0  0  0  0  0  0  0  0  0  0  0  0
    1.7494   -0.3335   -0.2052 N   0  0  0  0  0  0  0  0  0  0  0  0
    3.0807   -0.6576    0.3038 C   0  0  0  0  0  0  0  0  0  0  0  0
    3.7310    0.5659    0.9573 C   0  0  0  0  0  0  0  0  0  0  0  0
    3.0556    1.0041    2.2487 C   0  0  0  0  0  0  0  0  0  0  0  0
    4.1863    1.7032    2.9608 C   0  0  0  0  0  0  0  0  0  0  0  0
    5.3694    0.8317    2.5989 C   0  0  0  0  0  0  0  0  0  0  0  0
    5.1029    0.2869    1.2976 O   0  0  0  0  0  0  0  0  0  0  0  0
    1.0750   -2.5807   -0.3271 N   0  0  0  0  0  0  0  0  0  0  0  0
    0.1151   -3.4718   -0.7470 C   0  0  0  0  0  0  0  0  0  0  0  0
    0.4649   -4.7053   -0.6430 N   0  0  0  0  0  0  0  0  0  0  0  0
   -1.1561   -2.9596   -1.2882 C   0  0  0  0  0  0  0  0  0  0  0  0
   -2.2151   -3.8725   -1.5880 N   0  0  0  0  0  4  0  0  0  0  0  0
   -2.5813   -4.6477   -0.6959 O   0  0  0  0  0  0  0  0  0  0  0  0
   -2.7558   -3.7705   -2.7026 O   0  0  0  0  0  1  0  0  0  0  0  0
   -1.3349   -1.6336   -1.4871 C   0  0  0  0  0  0  0  0  0  0  0  0
   -2.4687   -1.0510   -2.0409 N   0  0  0  0  0  0  0  0  0  0  0  0
   -3.0944    0.1604   -1.6831 C   0  0  0  0  0  0  0  0  0  0  0  0
   -3.9814    0.7448   -2.5970 C   0  0  0  0  0  0  0  0  0  0  0  0
   -4.5985    1.9660   -2.3200 C   0  0  0  0  0  0  0  0  0  0  0  0
   -4.3295    2.6281   -1.1244 C   0  0  0  0  0  0  0  0  0  0  0  0
   -3.4351    2.0778   -0.2021 C   0  0  0  0  0  0  0  0  0  0  0  0
   -3.1789    2.7621    1.1085 C   0  0  0  0  0  0  0  0  0  0  0  0
   -2.8306    0.8430   -0.4872 C   0  0  0  0  0  0  0  0  0  0  0  0
   -0.3888    0.1551   -1.2768 H   0  0  0  0  0  0  0  0  0  0  0  0
    1.7599    0.4579   -0.8383 H   0  0  0  0  0  0  0  0  0  0  0  0
    3.0362   -1.4758    1.0334 H   0  0  0  0  0  0  0  0  0  0  0  0
    3.7104   -1.0113   -0.5214 H   0  0  0  0  0  0  0  0  0  0  0  0
    3.7479    1.4022    0.2466 H   0  0  0  0  0  0  0  0  0  0  0  0
    2.1879    1.6476    2.0787 H   0  0  0  0  0  0  0  0  0  0  0  0
    2.7310    0.1375    2.8372 H   0  0  0  0  0  0  0  0  0  0  0  0
    4.0376    1.7947    4.0398 H   0  0  0  0  0  0  0  0  0  0  0  0
    4.3210    2.7090    2.5457 H   0  0  0  0  0  0  0  0  0  0  0  0
    5.4720   -0.0069    3.2958 H   0  0  0  0  0  0  0  0  0  0  0  0
    6.3110    1.3875    2.5800 H   0  0  0  0  0  0  0  0  0  0  0  0
    1.4070   -4.6803   -0.2313 H   0  0  0  0  0  0  0  0  0  0  0  0
   -3.1015   -1.6941   -2.5260 H   0  0  0  0  0  0  0  0  0  0  0  0
   -4.1958    0.2521   -3.5429 H   0  0  0  0  0  0  0  0  0  0  0  0
   -5.2900    2.3995   -3.0380 H   0  0  0  0  0  0  0  0  0  0  0  0
   -4.8255    3.5735   -0.9155 H   0  0  0  0  0  0  0  0  0  0  0  0
   -2.1588    2.5678    1.4564 H   0  0  0  0  0  0  0  0  0  0  0  0
   -3.8856    2.4025    1.8627 H   0  0  0  0  0  0  0  0  0  0  0  0
   -3.2870    3.8474    1.0111 H   0  0  0  0  0  0  0  0  0  0  0  0
   -2.1788    0.4009    0.2628 H   0  0  0  0  0  0  0  0  0  0  0  0
  1  2  1  0
  2  3  1  0
  3  4  1  0
  4  5  1  0
  5  6  1  0
  6  7  1  0
  7  8  1  0
  8  9  1  0
  2 10  2  0
 10 11  1  0
 11 12  2  3
 11 13  1  0
 13 14  1  0
 14 15  2  0
 14 16  1  0
 13 17  2  0
 17 18  1  0
 18 19  1  0
 19 20  2  0
 20 21  1  0
 21 22  2  0
 22 23  1  0
 23 24  1  0
 23 25  2  0
 17  1  1  0
 25 19  1  0
  9  5  1  0
  1 26  1  0
  3 27  1  0
  4 28  1  0
  4 29  1  0
  5 30  1  0
  6 31  1  0
  6 32  1  0
  7 33  1  0
  7 34  1  0
  8 35  1  0
  8 36  1  0
 12 37  1  0
 18 38  1  0
 20 39  1  0
 21 40  1  0
 22 41  1  0
 24 42  1  0
 24 43  1  0
 24 44  1  0
 25 45  1  0
M  CHG  2  14   1  16  -1
M  END
>  <ScrubInfo>  (6) 
{"isomerGroup": 0, "isomerId": 5, "confId": 0, "nr_conformers:": 1, "nr_isomers:": 9}

$$$$
_i6
     RDKit          3D

 45 47  0  0  0  0  0  0  0  0999 V2000
    1.1147    0.1783   -2.0583 N   0  0  0  0  0  0  0  0  0  0  0  0
    1.3083   -0.9541   -1.3302 C   0  0  0  0  0  0  0  0  0  0  0  0
    2.5188   -1.5548   -1.4823 N   0  0  0  0  0  0  0  0  0  0  0  0
    3.7832   -0.8499   -1.2722 C   0  0  0  0  0  0  0  0  0  0  0  0
    4.1311   -0.6841    0.2198 C   0  0  0  0  0  0  0  0  0  0  0  0
    3.4045    0.4594    0.9188 C   0  0  0  0  0  0  0  0  0  0  0  0
    4.3804    1.6032    0.8024 C   0  0  0  0  0  0  0  0  0  0  0  0
    5.7044    0.8921    0.9469 C   0  0  0  0  0  0  0  0  0  0  0  0
    5.5429   -0.3866    0.3195 O   0  0  0  0  0  0  0  0  0  0  0  0
    0.4116   -1.4847   -0.5618 N   0  0  0  0  0  0  0  0  0  0  0  0
   -0.7754   -0.7887   -0.3739 C   0  0  0  0  0  0  0  0  0  0  0  0
   -1.3717   -1.1101    0.7280 N   0  0  0  0  0  0  0  0  0  0  0  0
   -2.5089   -0.4368    1.1790 C   0  0  0  0  0  0  0  0  0  0  0  0
   -2.4010    0.8161    1.7881 C   0  0  0  0  0  0  0  0  0  0  0  0
   -3.5410    1.4786    2.2434 C   0  0  0  0  0  0  0  0  0  0  0  0
   -4.7945    0.8806    2.1118 C   0  0  0  0  0  0  0  0  0  0  0  0
   -4.9149   -0.3935    1.5453 C   0  0  0  0  0  0  0  0  0  0  0  0
   -6.2621   -1.0302    1.3777 C   0  0  0  0  0  0  0  0  0  0  0  0
   -3.7635   -1.0436    1.0808 C   0  0  0  0  0  0  0  0  0  0  0  0
   -1.1101    0.2202   -1.4184 C   0  0  0  0  0  0  0  0  0  0  0  0
   -2.4687    0.5751   -1.6733 N   0  0  0  0  0  4  0  0  0  0  0  0
   -3.2360   -0.3385   -2.0060 O   0  0  0  0  0  0  0  0  0  0  0  0
   -2.7700    1.7778   -1.6344 O   0  0  0  0  0  1  0  0  0  0  0  0
   -0.1455    0.7135   -2.2323 C   0  0  0  0  0  0  0  0  0  0  0  0
   -0.2921    1.6654   -3.2252 N   0  0  0  0  0  0  0  0  0  0  0  0
    1.7888    0.3984   -2.7766 H   0  0  0  0  0  0  0  0  0  0  0  0
    2.5142   -2.4385   -0.9722 H   0  0  0  0  0  0  0  0  0  0  0  0
    3.7971    0.1173   -1.7878 H   0  0  0  0  0  0  0  0  0  0  0  0
    4.5712   -1.4435   -1.7517 H   0  0  0  0  0  0  0  0  0  0  0  0
    3.9520   -1.6289    0.7460 H   0  0  0  0  0  0  0  0  0  0  0  0
    2.4192    0.6958    0.5137 H   0  0  0  0  0  0  0  0  0  0  0  0
    3.2711    0.2082    1.9786 H   0  0  0  0  0  0  0  0  0  0  0  0
    4.2315    2.3846    1.5521 H   0  0  0  0  0  0  0  0  0  0  0  0
    4.3030    2.0587   -0.1916 H   0  0  0  0  0  0  0  0  0  0  0  0
    5.9530    0.7219    2.0000 H   0  0  0  0  0  0  0  0  0  0  0  0
    6.5288    1.4334    0.4748 H   0  0  0  0  0  0  0  0  0  0  0  0
   -1.4259    1.2783    1.9115 H   0  0  0  0  0  0  0  0  0  0  0  0
   -3.4530    2.4600    2.7016 H   0  0  0  0  0  0  0  0  0  0  0  0
   -5.6773    1.4116    2.4609 H   0  0  0  0  0  0  0  0  0  0  0  0
   -6.9508   -0.7010    2.1628 H   0  0  0  0  0  0  0  0  0  0  0  0
   -6.1895   -2.1207    1.4462 H   0  0  0  0  0  0  0  0  0  0  0  0
   -6.6832   -0.7634    0.4035 H   0  0  0  0  0  0  0  0  0  0  0  0
   -3.8380   -2.0281    0.6244 H   0  0  0  0  0  0  0  0  0  0  0  0
   -1.2516    1.9724   -3.4002 H   0  0  0  0  0  0  0  0  0  0  0  0
    0.1952    1.4425   -4.0888 H   0  0  0  0  0  0  0  0  0  0  0  0
  1  2  1  0
  2  3  1  0
  3  4  1  0
  4  5  1  0
  5  6  1  0
  6  7  1  0
  7  8  1  0
  8  9  1  0
  2 10  2  0
 10 11  1  0
 11 12  2  3
 12 13  1  0
 13 14  2  0
 14 15  1  0
 15 16  2  0
 16 17  1  0
 17 18  1  0
 17 19  2  0
 11 20  1  0
 20 21  1  0
 21 22  2  0
 21 23  1  0
 20 24  2  0
 24 25  1  0
 24  1  1  0
  9  5  1  0
 19 13  1  0
  1 26  1  0
  3 27  1  0
  4 28  1  0
  4 29  1  0
  5 30  1  0
  6 31  1  0
  6 32  1  0
  7 33  1  0
  7 34  1  0
  8 35  1  0
  8 36  1  0
 14 37  1  0
 15 38  1  0
 16 39  1  0
 18 40  1  0
 18 41  1  0
 18 42  1  0
 19 43  1  0
 25 44  1  0
 25 45  1  0
M  CHG  2  21   1  23  -1
M  END
>  <ScrubInfo>  (7) 
{"isomerGroup": 0, "isomerId": 6, "confId": 0, "nr_conformers:": 1, "nr_isomers:": 9}

$$$$
_i7
     RDKit          3D

 45 47  0  0  0  0  0  0  0  0999 V2000
    0.9237   -2.6190    0.2595 N   0  0  0  0  0  0  0  0  0  0  0  0
   -0.3573   -2.7052    0.7858 C   0  0  0  0  0  0  0  0  0  0  0  0
   -0.6346   -3.8378    1.5382 N   0  0  0  0  0  0  0  0  0  0  0  0
   -1.2239   -1.6855    0.5447 C   0  0  0  0  0  0  0  0  0  0  0  0
   -2.4809   -1.6971    1.2188 N   0  0  0  0  0  4  0  0  0  0  0  0
   -2.6497   -0.8663    2.1210 O   0  0  0  0  0  0  0  0  0  0  0  0
   -3.2819   -2.5917    0.9041 O   0  0  0  0  0  1  0  0  0  0  0  0
   -0.7648   -0.5446   -0.3092 C   0  0  0  0  0  0  0  0  0  0  0  0
   -1.4212    0.4601   -0.8232 N   0  0  0  0  0  0  0  0  0  0  0  0
   -2.8038    0.6087   -0.6977 C   0  0  0  0  0  0  0  0  0  0  0  0
   -3.6729   -0.1120   -1.5205 C   0  0  0  0  0  0  0  0  0  0  0  0
   -5.0527    0.0578   -1.4077 C   0  0  0  0  0  0  0  0  0  0  0  0
   -5.5703    0.9685   -0.4864 C   0  0  0  0  0  0  0  0  0  0  0  0
   -4.7118    1.7320    0.3127 C   0  0  0  0  0  0  0  0  0  0  0  0
   -5.2637    2.6915    1.3243 C   0  0  0  0  0  0  0  0  0  0  0  0
   -3.3276    1.5433    0.1988 C   0  0  0  0  0  0  0  0  0  0  0  0
    0.5732   -0.5678   -0.6590 N   0  0  0  0  0  0  0  0  0  0  0  0
    1.4820   -1.5621   -0.4164 C   0  0  0  0  0  0  0  0  0  0  0  0
    2.7306   -1.6201   -0.7250 N   0  0  0  0  0  0  0  0  0  0  0  0
    3.3401   -0.5074   -1.4549 C   0  0  0  0  0  0  0  0  0  0  0  0
    3.8312    0.5794   -0.4981 C   0  0  0  0  0  0  0  0  0  0  0  0
    5.0070    0.1559    0.3681 C   0  0  0  0  0  0  0  0  0  0  0  0
    5.6520    1.4851    0.6702 C   0  0  0  0  0  0  0  0  0  0  0  0
    5.4812    2.2213   -0.6414 C   0  0  0  0  0  0  0  0  0  0  0  0
    4.2753    1.7285   -1.2453 O   0  0  0  0  0  0  0  0  0  0  0  0
    1.5800   -3.3297    0.5566 H   0  0  0  0  0  0  0  0  0  0  0  0
   -1.6339   -4.0380    1.6399 H   0  0  0  0  0  0  0  0  0  0  0  0
   -0.1439   -4.6629    1.2015 H   0  0  0  0  0  0  0  0  0  0  0  0
   -3.2768   -0.8097   -2.2526 H   0  0  0  0  0  0  0  0  0  0  0  0
   -5.7249   -0.5194   -2.0369 H   0  0  0  0  0  0  0  0  0  0  0  0
   -6.6485    1.0835   -0.3993 H   0  0  0  0  0  0  0  0  0  0  0  0
   -4.5862    3.5399    1.4677 H   0  0  0  0  0  0  0  0  0  0  0  0
   -6.2259    3.0971    0.9945 H   0  0  0  0  0  0  0  0  0  0  0  0
   -5.4041    2.1839    2.2835 H   0  0  0  0  0  0  0  0  0  0  0  0
   -2.6464    2.1170    0.8225 H   0  0  0  0  0  0  0  0  0  0  0  0
    0.8592    0.2294   -1.2106 H   0  0  0  0  0  0  0  0  0  0  0  0
    2.6645   -0.0848   -2.2086 H   0  0  0  0  0  0  0  0  0  0  0  0
    4.1844   -0.8956   -2.0382 H   0  0  0  0  0  0  0  0  0  0  0  0
    3.0072    0.9220    0.1402 H   0  0  0  0  0  0  0  0  0  0  0  0
    4.7007   -0.3907    1.2644 H   0  0  0  0  0  0  0  0  0  0  0  0
    5.7069   -0.4722   -0.1960 H   0  0  0  0  0  0  0  0  0  0  0  0
    5.0936    1.9974    1.4626 H   0  0  0  0  0  0  0  0  0  0  0  0
    6.6964    1.4069    0.9831 H   0  0  0  0  0  0  0  0  0  0  0  0
    5.4107    3.3045   -0.5088 H   0  0  0  0  0  0  0  0  0  0  0  0
    6.3078    2.0061   -1.3269 H   0  0  0  0  0  0  0  0  0  0  0  0
  1  2  1  0
  2  3  1  0
  2  4  2  0
  4  5  1  0
  5  6  2  0
  5  7  1  0
  4  8  1  0
  8  9  2  3
  9 10  1  0
 10 11  2  0
 11 12  1  0
 12 13  2  0
 13 14  1  0
 14 15  1  0
 14 16  2  0
  8 17  1  0
 17 18  1  0
 18 19  2  3
 19 20  1  0
 20 21  1  0
 21 22  1  0
 22 23  1  0
 23 24  1  0
 24 25  1  0
 18  1  1  0
 25 21  1  0
 16 10  1  0
  1 26  1  0
  3 27  1  0
  3 28  1  0
 11 29  1  0
 12 30  1  0
 13 31  1  0
 15 32  1  0
 15 33  1  0
 15 34  1  0
 16 35  1  0
 17 36  1  0
 20 37  1  0
 20 38  1  0
 21 39  1  0
 22 40  1  0
 22 41  1  0
 23 42  1  0
 23 43  1  0
 24 44  1  0
 24 45  1  0
M  CHG  2   5   1   7  -1
M  END
>  <ScrubInfo>  (8) 
{"isomerGroup": 0, "isomerId": 7, "confId": 0, "nr_conformers:": 1, "nr_isomers:": 9}

$$$$
_i8
     RDKit          3D

 45 47  0  0  0  0  0  0  0  0999 V2000
    1.3442   -2.4542   -0.2594 N   0  0  0  0  0  0  0  0  0  0  0  0
    1.4073   -1.0896   -0.1060 C   0  0  0  0  0  0  0  0  0  0  0  0
    2.3683   -0.3752    0.3644 N   0  0  0  0  0  0  0  0  0  0  0  0
    3.6001   -1.0404    0.8012 C   0  0  0  0  0  0  0  0  0  0  0  0
    4.7177   -0.0185    1.0750 C   0  0  0  0  0  0  0  0  0  0  0  0
    4.3249    1.1394    1.9831 C   0  0  0  0  0  0  0  0  0  0  0  0
    4.0648    2.2682    1.0167 C   0  0  0  0  0  0  0  0  0  0  0  0
    5.0486    1.9741   -0.0919 C   0  0  0  0  0  0  0  0  0  0  0  0
    5.1735    0.5494   -0.1696 O   0  0  0  0  0  0  0  0  0  0  0  0
    0.2588   -0.4590   -0.5179 N   0  0  0  0  0  0  0  0  0  0  0  0
   -0.9117   -1.0479   -0.9922 C   0  0  0  0  0  0  0  0  0  0  0  0
   -1.9725   -0.2185   -1.3429 N   0  0  0  0  0  0  0  0  0  0  0  0
   -2.9312    0.2527   -0.4026 C   0  0  0  0  0  0  0  0  0  0  0  0
   -3.1675   -0.3717    0.8276 C   0  0  0  0  0  0  0  0  0  0  0  0
   -4.1686    0.0936    1.6839 C   0  0  0  0  0  0  0  0  0  0  0  0
   -4.9623    1.1771    1.3133 C   0  0  0  0  0  0  0  0  0  0  0  0
   -4.7652    1.8030    0.0799 C   0  0  0  0  0  0  0  0  0  0  0  0
   -5.6594    2.9267   -0.3537 C   0  0  0  0  0  0  0  0  0  0  0  0
   -3.7667    1.3181   -0.7781 C   0  0  0  0  0  0  0  0  0  0  0  0
   -0.9393   -2.3959   -1.1143 C   0  0  0  0  0  0  0  0  0  0  0  0
   -2.0971   -3.0510   -1.6251 N   0  0  0  0  0  4  0  0  0  0  0  0
   -2.2431   -3.0665   -2.8567 O   0  0  0  0  0  0  0  0  0  0  0  0
   -2.8748   -3.5488   -0.7977 O   0  0  0  0  0  1  0  0  0  0  0  0
    0.2685   -3.1715   -0.7378 C   0  0  0  0  0  0  0  0  0  0  0  0
    0.3193   -4.4620   -0.8530 N   0  0  0  0  0  0  0  0  0  0  0  0
    2.1632   -2.9753    0.0080 H   0  0  0  0  0  0  0  0  0  0  0  0
    3.9523   -1.7316    0.0261 H   0  0  0  0  0  0  0  0  0  0  0  0
    3.3993   -1.6045    1.7194 H   0  0  0  0  0  0  0  0  0  0  0  0
    5.5653   -0.5607    1.5105 H   0  0  0  0  0  0  0  0  0  0  0  0
    5.1778    1.4036    2.6208 H   0  0  0  0  0  0  0  0  0  0  0  0
    3.4795    0.9223    2.6424 H   0  0  0  0  0  0  0  0  0  0  0  0
    3.0396    2.2116    0.6351 H   0  0  0  0  0  0  0  0  0  0  0  0
    4.2049    3.2593    1.4567 H   0  0  0  0  0  0  0  0  0  0  0  0
    4.7245    2.3694   -1.0586 H   0  0  0  0  0  0  0  0  0  0  0  0
    6.0375    2.3851    0.1389 H   0  0  0  0  0  0  0  0  0  0  0  0
    0.2266    0.5399   -0.3551 H   0  0  0  0  0  0  0  0  0  0  0  0
   -1.6445    0.5786   -1.8877 H   0  0  0  0  0  0  0  0  0  0  0  0
   -2.5901   -1.2356    1.1433 H   0  0  0  0  0  0  0  0  0  0  0  0
   -4.3401   -0.4040    2.6352 H   0  0  0  0  0  0  0  0  0  0  0  0
   -5.7473    1.5170    1.9853 H   0  0  0  0  0  0  0  0  0  0  0  0
   -5.1222    3.6228   -1.0063 H   0  0  0  0  0  0  0  0  0  0  0  0
   -6.0139    3.4997    0.5096 H   0  0  0  0  0  0  0  0  0  0  0  0
   -6.5243    2.5297   -0.8940 H   0  0  0  0  0  0  0  0  0  0  0  0
   -3.6476    1.7761   -1.7580 H   0  0  0  0  0  0  0  0  0  0  0  0
    1.2227   -4.8347   -0.5543 H   0  0  0  0  0  0  0  0  0  0  0  0
  1  2  1  0
  2  3  2  3
  3  4  1  0
  4  5  1  0
  5  6  1  0
  6  7  1  0
  7  8  1  0
  8  9  1  0
  2 10  1  0
 10 11  1  0
 11 12  1  0
 12 13  1  0
 13 14  2  0
 14 15  1  0
 15 16  2  0
 16 17  1  0
 17 18  1  0
 17 19  2  0
 11 20  2  0
 20 21  1  0
 21 22  2  0
 21 23  1  0
 20 24  1  0
 24 25  2  3
 24  1  1  0
  9  5  1  0
 19 13  1  0
  1 26  1  0
  4 27  1  0
  4 28  1  0
  5 29  1  0
  6 30  1  0
  6 31  1  0
  7 32  1  0
  7 33  1  0
  8 34  1  0
  8 35  1  0
 10 36  1  0
 12 37  1  0
 14 38  1  0
 15 39  1  0
 16 40  1  0
 18 41  1  0
 18 42  1  0
 18 43  1  0
 19 44  1  0
 25 45  1  0
M  CHG  2  21   1  23  -1
M  END
>  <ScrubInfo>  (9) 
{"isomerGroup": 0, "isomerId": 8, "confId": 0, "nr_conformers:": 1, "nr_isomers:": 9}

$$$$
