REMARK SMILES COCCCNc1nc(Nc2ccccc2)c2cnn(C)c2n1
REMARK SMILES IDX 5 1 4 2 3 3 2 4 1 5 6 6 7 8 8 9 23 10 9 11 22 12 17 13 20 14
REMARK SMILES IDX 18 15 19 16 21 17 10 18 11 20 12 21 16 22 13 23 15 24 14 25
REMARK H PARENT 6 7 10 19
ROOT
ATOM      1  C   UNL     1       2.037  -1.030  -0.883  1.00  0.00     0.118 C 
ENDROOT
BRANCH   1   2
ATOM      2  C   UNL     1       2.397  -0.861   0.596  1.00  0.00     0.050 C 
BRANCH   2   3
ATOM      3  C   UNL     1       3.592   0.058   0.841  1.00  0.00     0.161 C 
BRANCH   3   4
ATOM      4  O   UNL     1       4.743  -0.324   0.092  1.00  0.00    -0.385 OA
ATOM      5  C   UNL     1       5.454  -1.411   0.670  1.00  0.00     0.194 C 
ENDBRANCH   3   4
ENDBRANCH   2   3
ENDBRANCH   1   2
BRANCH   1   6
ATOM      6  N   UNL     1       1.665   0.212  -1.537  1.00  0.00    -0.354 N 
ATOM      7  H   UNL     1       2.399   0.905  -1.626  1.00  0.00     0.163 HD
BRANCH   6   8
ATOM      8  C   UNL     1       0.505   0.845  -1.131  1.00  0.00     0.226 A 
ATOM      9  N   UNL     1      -0.511   0.116  -0.632  1.00  0.00    -0.195 NA
ATOM     10  N   UNL     1       0.513   2.177  -1.263  1.00  0.00    -0.193 NA
ATOM     11  C   UNL     1      -1.663   0.705  -0.218  1.00  0.00     0.147 A 
ATOM     12  C   UNL     1      -0.628   2.747  -0.851  1.00  0.00     0.165 A 
ATOM     13  C   UNL     1      -1.730   2.099  -0.329  1.00  0.00     0.082 A 
ATOM     14  N   UNL     1      -0.940   4.079  -0.860  1.00  0.00    -0.250 N 
ATOM     15  C   UNL     1      -2.644   3.137  -0.051  1.00  0.00     0.149 A 
ATOM     16  N   UNL     1      -2.171   4.348  -0.366  1.00  0.00    -0.179 NA
ATOM     17  C   UNL     1      -0.109   5.161  -1.325  1.00  0.00     0.176 C 
BRANCH  11  18
ATOM     18  N   UNL     1      -2.721  -0.036   0.329  1.00  0.00    -0.339 N 
ATOM     19  H   UNL     1      -3.491   0.530   0.654  1.00  0.00     0.168 HD
BRANCH  18  20
ATOM     20  C   UNL     1      -2.948  -1.420   0.437  1.00  0.00     0.040 A 
ATOM     21  C   UNL     1      -2.154  -2.391  -0.179  1.00  0.00     0.026 A 
ATOM     22  C   UNL     1      -4.004  -1.863   1.252  1.00  0.00     0.026 A 
ATOM     23  C   UNL     1      -2.412  -3.756  -0.007  1.00  0.00     0.002 A 
ATOM     24  C   UNL     1      -4.265  -3.226   1.429  1.00  0.00     0.002 A 
ATOM     25  C   UNL     1      -3.468  -4.173   0.797  1.00  0.00     0.000 A 
ENDBRANCH  18  20
ENDBRANCH  11  18
ENDBRANCH   6   8
ENDBRANCH   1   6
TORSDOF 7
