_i0
     RDKit          3D

 43 45  0  0  0  0  0  0  0  0999 V2000
    5.4537   -1.4109    0.6702 C   0  0  0  0  0  0  0  0  0  0  0  0
    4.7434   -0.3239    0.0917 O   0  0  0  0  0  0  0  0  0  0  0  0
    3.5916    0.0584    0.8413 C   0  0  0  0  0  0  0  0  0  0  0  0
    2.3973   -0.8610    0.5960 C   0  0  0  0  0  0  0  0  0  0  0  0
    2.0368   -1.0296   -0.8826 C   0  0  0  0  0  0  0  0  0  0  0  0
    1.6649    0.2123   -1.5371 N   0  0  0  0  0  0  0  0  0  0  0  0
    0.5051    0.8454   -1.1305 C   0  0  0  0  0  0  0  0  0  0  0  0
   -0.5106    0.1160   -0.6325 N   0  0  0  0  0  0  0  0  0  0  0  0
   -1.6629    0.7048   -0.2177 C   0  0  0  0  0  0  0  0  0  0  0  0
   -2.7215   -0.0364    0.3286 N   0  0  0  0  0  0  0  0  0  0  0  0
   -2.9480   -1.4198    0.4371 C   0  0  0  0  0  0  0  0  0  0  0  0
   -2.1538   -2.3914   -0.1793 C   0  0  0  0  0  0  0  0  0  0  0  0
   -2.4116   -3.7562   -0.0070 C   0  0  0  0  0  0  0  0  0  0  0  0
   -3.4677   -4.1735    0.7969 C   0  0  0  0  0  0  0  0  0  0  0  0
   -4.2651   -3.2257    1.4292 C   0  0  0  0  0  0  0  0  0  0  0  0
   -4.0036   -1.8634    1.2523 C   0  0  0  0  0  0  0  0  0  0  0  0
   -1.7298    2.0994   -0.3288 C   0  0  0  0  0  0  0  0  0  0  0  0
   -2.6441    3.1374   -0.0513 C   0  0  0  0  0  0  0  0  0  0  0  0
   -2.1709    4.3483   -0.3659 N   0  0  0  0  0  0  0  0  0  0  0  0
   -0.9396    4.0786   -0.8604 N   0  0  0  0  0  0  0  0  0  0  0  0
   -0.1088    5.1606   -1.3254 C   0  0  0  0  0  0  0  0  0  0  0  0
   -0.6277    2.7466   -0.8514 C   0  0  0  0  0  0  0  0  0  0  0  0
    0.5134    2.1768   -1.2627 N   0  0  0  0  0  0  0  0  0  0  0  0
    4.8438   -2.3181    0.6756 H   0  0  0  0  0  0  0  0  0  0  0  0
    5.7748   -1.1642    1.6867 H   0  0  0  0  0  0  0  0  0  0  0  0
    6.3429   -1.5992    0.0624 H   0  0  0  0  0  0  0  0  0  0  0  0
    3.3384    1.0799    0.5382 H   0  0  0  0  0  0  0  0  0  0  0  0
    3.8324    0.1011    1.9103 H   0  0  0  0  0  0  0  0  0  0  0  0
    2.6195   -1.8562    0.9985 H   0  0  0  0  0  0  0  0  0  0  0  0
    1.5392   -0.4835    1.1636 H   0  0  0  0  0  0  0  0  0  0  0  0
    2.8929   -1.4519   -1.4215 H   0  0  0  0  0  0  0  0  0  0  0  0
    1.2340   -1.7703   -0.9836 H   0  0  0  0  0  0  0  0  0  0  0  0
    2.3993    0.9048   -1.6263 H   0  0  0  0  0  0  0  0  0  0  0  0
   -3.4914    0.5298    0.6545 H   0  0  0  0  0  0  0  0  0  0  0  0
   -1.3283   -2.1077   -0.8244 H   0  0  0  0  0  0  0  0  0  0  0  0
   -1.7834   -4.4889   -0.5065 H   0  0  0  0  0  0  0  0  0  0  0  0
   -3.6665   -5.2333    0.9301 H   0  0  0  0  0  0  0  0  0  0  0  0
   -5.0886   -3.5431    2.0631 H   0  0  0  0  0  0  0  0  0  0  0  0
   -4.6367   -1.1460    1.7682 H   0  0  0  0  0  0  0  0  0  0  0  0
   -3.6387    3.0653    0.3683 H   0  0  0  0  0  0  0  0  0  0  0  0
    0.0789    5.8346   -0.4857 H   0  0  0  0  0  0  0  0  0  0  0  0
   -0.6408    5.6839   -2.1240 H   0  0  0  0  0  0  0  0  0  0  0  0
    0.8376    4.7702   -1.7059 H   0  0  0  0  0  0  0  0  0  0  0  0
  1  2  1  0
  2  3  1  0
  3  4  1  0
  4  5  1  0
  5  6  1  0
  6  7  1  0
  7  8  2  0
  8  9  1  0
  9 10  1  0
 10 11  1  0
 11 12  2  0
 12 13  1  0
 13 14  2  0
 14 15  1  0
 15 16  2  0
  9 17  2  0
 17 18  1  0
 18 19  2  0
 19 20  1  0
 20 21  1  0
 20 22  1  0
 22 23  2  0
 23  7  1  0
 16 11  1  0
 22 17  1  0
  1 24  1  0
  1 25  1  0
  1 26  1  0
  3 27  1  0
  3 28  1  0
  4 29  1  0
  4 30  1  0
  5 31  1  0
  5 32  1  0
  6 33  1  0
 10 34  1  0
 12 35  1  0
 13 36  1  0
 14 37  1  0
 15 38  1  0
 16 39  1  0
 18 40  1  0
 21 41  1  0
 21 42  1  0
 21 43  1  0
M  END
>  <ScrubInfo>  (1) 
{"isomerGroup": 0, "isomerId": 0, "confId": 0, "nr_conformers:": 1, "nr_isomers:": 9}

$$$$
_i1
     RDKit          3D

 43 45  0  0  0  0  0  0  0  0999 V2000
   -0.4190    0.7833   -0.3282 N   0  0  0  0  0  0  0  0  0  0  0  0
   -1.6979    1.2286   -0.0434 C   0  0  0  0  0  0  0  0  0  0  0  0
   -2.7540    0.3620    0.1706 N   0  0  0  0  0  0  0  0  0  0  0  0
   -2.7325   -0.9323    0.7280 C   0  0  0  0  0  0  0  0  0  0  0  0
   -1.6644   -1.4328    1.4830 C   0  0  0  0  0  0  0  0  0  0  0  0
   -1.6769   -2.7448    1.9667 C   0  0  0  0  0  0  0  0  0  0  0  0
   -2.7572   -3.5795    1.6955 C   0  0  0  0  0  0  0  0  0  0  0  0
   -3.8256   -3.1025    0.9422 C   0  0  0  0  0  0  0  0  0  0  0  0
   -3.8101   -1.7905    0.4608 C   0  0  0  0  0  0  0  0  0  0  0  0
   -1.8434    2.5588   -0.0381 C   0  0  0  0  0  0  0  0  0  0  0  0
   -2.9063    3.5390    0.2092 C   0  0  0  0  0  0  0  0  0  0  0  0
   -2.4949    4.7783    0.1238 N   0  0  0  0  0  0  0  0  0  0  0  0
   -1.1392    4.6946   -0.2337 N   0  0  0  0  0  0  0  0  0  0  0  0
   -0.3070    5.8674   -0.1168 C   0  0  0  0  0  0  0  0  0  0  0  0
   -0.6555    3.3977   -0.3045 C   0  0  0  0  0  0  0  0  0  0  0  0
    0.5345    2.9625   -0.5362 N   0  0  0  0  0  0  0  0  0  0  0  0
    0.6702    1.5913   -0.5620 C   0  0  0  0  0  0  0  0  0  0  0  0
    1.8675    1.2016   -0.8239 N   0  0  0  0  0  0  0  0  0  0  0  0
    2.1437   -0.2311   -0.8704 C   0  0  0  0  0  0  0  0  0  0  0  0
    3.6532   -0.4249   -0.9977 C   0  0  0  0  0  0  0  0  0  0  0  0
    4.0250   -1.8839   -1.2323 C   0  0  0  0  0  0  0  0  0  0  0  0
    3.5407   -2.6854   -0.1554 O   0  0  0  0  0  0  0  0  0  0  0  0
    3.9021   -4.0507   -0.3161 C   0  0  0  0  0  0  0  0  0  0  0  0
   -0.3273   -0.2115   -0.4624 H   0  0  0  0  0  0  0  0  0  0  0  0
   -3.6795    0.7783    0.1798 H   0  0  0  0  0  0  0  0  0  0  0  0
   -0.8185   -0.8018    1.7439 H   0  0  0  0  0  0  0  0  0  0  0  0
   -0.8422   -3.1102    2.5602 H   0  0  0  0  0  0  0  0  0  0  0  0
   -2.7658   -4.5994    2.0714 H   0  0  0  0  0  0  0  0  0  0  0  0
   -4.6690   -3.7520    0.7226 H   0  0  0  0  0  0  0  0  0  0  0  0
   -4.6468   -1.4472   -0.1429 H   0  0  0  0  0  0  0  0  0  0  0  0
   -3.9256    3.2208    0.4617 H   0  0  0  0  0  0  0  0  0  0  0  0
    0.5501    5.8076   -0.7951 H   0  0  0  0  0  0  0  0  0  0  0  0
    0.0650    5.9697    0.9073 H   0  0  0  0  0  0  0  0  0  0  0  0
   -0.8715    6.7702   -0.3719 H   0  0  0  0  0  0  0  0  0  0  0  0
    1.6403   -0.6789   -1.7354 H   0  0  0  0  0  0  0  0  0  0  0  0
    1.7900   -0.7275    0.0411 H   0  0  0  0  0  0  0  0  0  0  0  0
    4.0443    0.1838   -1.8217 H   0  0  0  0  0  0  0  0  0  0  0  0
    4.1315   -0.0675   -0.0772 H   0  0  0  0  0  0  0  0  0  0  0  0
    5.1156   -1.9749   -1.2942 H   0  0  0  0  0  0  0  0  0  0  0  0
    3.5898   -2.2370   -2.1745 H   0  0  0  0  0  0  0  0  0  0  0  0
    4.9908   -4.1603   -0.3265 H   0  0  0  0  0  0  0  0  0  0  0  0
    3.4732   -4.4545   -1.2383 H   0  0  0  0  0  0  0  0  0  0  0  0
    3.5024   -4.6145    0.5311 H   0  0  0  0  0  0  0  0  0  0  0  0
  1  2  1  0
  2  3  1  0
  3  4  1  0
  4  5  2  0
  5  6  1  0
  6  7  2  0
  7  8  1  0
  8  9  2  0
  2 10  2  0
 10 11  1  0
 11 12  2  0
 12 13  1  0
 13 14  1  0
 13 15  1  0
 15 16  2  0
 16 17  1  0
 17 18  2  3
 18 19  1  0
 19 20  1  0
 20 21  1  0
 21 22  1  0
 22 23  1  0
 17  1  1  0
  9  4  1  0
 15 10  1  0
  1 24  1  0
  3 25  1  0
  5 26  1  0
  6 27  1  0
  7 28  1  0
  8 29  1  0
  9 30  1  0
 11 31  1  0
 14 32  1  0
 14 33  1  0
 14 34  1  0
 19 35  1  0
 19 36  1  0
 20 37  1  0
 20 38  1  0
 21 39  1  0
 21 40  1  0
 23 41  1  0
 23 42  1  0
 23 43  1  0
M  END
>  <ScrubInfo>  (2) 
{"isomerGroup": 0, "isomerId": 1, "confId": 0, "nr_conformers:": 1, "nr_isomers:": 9}

$$$$
_i2
     RDKit          3D

 43 45  0  0  0  0  0  0  0  0999 V2000
    0.6737   -0.5819    0.4947 N   0  0  0  0  0  0  0  0  0  0  0  0
    0.7120   -1.9536    0.4697 C   0  0  0  0  0  0  0  0  0  0  0  0
    1.9101   -2.5534    0.7293 N   0  0  0  0  0  0  0  0  0  0  0  0
    2.9454   -2.0389    1.6039 C   0  0  0  0  0  0  0  0  0  0  0  0
    4.1927   -1.6541    0.8116 C   0  0  0  0  0  0  0  0  0  0  0  0
    3.9730   -0.5306   -0.1972 C   0  0  0  0  0  0  0  0  0  0  0  0
    3.3294    0.5701    0.4481 O   0  0  0  0  0  0  0  0  0  0  0  0
    3.2266    1.6984   -0.4191 C   0  0  0  0  0  0  0  0  0  0  0  0
   -0.3238   -2.7061    0.1874 N   0  0  0  0  0  0  0  0  0  0  0  0
   -1.4360   -1.9574   -0.0591 C   0  0  0  0  0  0  0  0  0  0  0  0
   -1.5641   -0.5764   -0.0684 C   0  0  0  0  0  0  0  0  0  0  0  0
   -2.9190   -0.3560   -0.3737 C   0  0  0  0  0  0  0  0  0  0  0  0
   -3.6039   -1.4937   -0.5496 N   0  0  0  0  0  0  0  0  0  0  0  0
   -2.6739   -2.4556   -0.3533 N   0  0  0  0  0  0  0  0  0  0  0  0
   -3.0575   -3.8402   -0.4638 C   0  0  0  0  0  0  0  0  0  0  0  0
   -0.3949    0.2357    0.2097 C   0  0  0  0  0  0  0  0  0  0  0  0
   -0.2832    1.5296    0.1995 N   0  0  0  0  0  0  0  0  0  0  0  0
   -1.3585    2.3655   -0.1031 C   0  0  0  0  0  0  0  0  0  0  0  0
   -1.6068    2.7482   -1.4242 C   0  0  0  0  0  0  0  0  0  0  0  0
   -2.6646    3.6090   -1.7231 C   0  0  0  0  0  0  0  0  0  0  0  0
   -3.4691    4.1052   -0.6978 C   0  0  0  0  0  0  0  0  0  0  0  0
   -3.2114    3.7483    0.6253 C   0  0  0  0  0  0  0  0  0  0  0  0
   -2.1531    2.8870    0.9212 C   0  0  0  0  0  0  0  0  0  0  0  0
    1.5445   -0.0844    0.6369 H   0  0  0  0  0  0  0  0  0  0  0  0
    1.8140   -3.5649    0.7487 H   0  0  0  0  0  0  0  0  0  0  0  0
    2.5882   -1.2025    2.2152 H   0  0  0  0  0  0  0  0  0  0  0  0
    3.2162   -2.8297    2.3137 H   0  0  0  0  0  0  0  0  0  0  0  0
    4.9534   -1.3298    1.5327 H   0  0  0  0  0  0  0  0  0  0  0  0
    4.5960   -2.5300    0.2898 H   0  0  0  0  0  0  0  0  0  0  0  0
    4.9415   -0.2119   -0.5997 H   0  0  0  0  0  0  0  0  0  0  0  0
    3.3498   -0.8767   -1.0296 H   0  0  0  0  0  0  0  0  0  0  0  0
    2.7151    2.4997    0.1206 H   0  0  0  0  0  0  0  0  0  0  0  0
    2.6426    1.4437   -1.3086 H   0  0  0  0  0  0  0  0  0  0  0  0
    4.2221    2.0492   -0.7069 H   0  0  0  0  0  0  0  0  0  0  0  0
   -3.4555    0.5766   -0.4790 H   0  0  0  0  0  0  0  0  0  0  0  0
   -3.8138   -4.0484    0.2973 H   0  0  0  0  0  0  0  0  0  0  0  0
   -3.4670   -4.0051   -1.4637 H   0  0  0  0  0  0  0  0  0  0  0  0
   -2.1902   -4.4858   -0.3100 H   0  0  0  0  0  0  0  0  0  0  0  0
   -0.9746    2.3698   -2.2224 H   0  0  0  0  0  0  0  0  0  0  0  0
   -2.8575    3.8942   -2.7539 H   0  0  0  0  0  0  0  0  0  0  0  0
   -4.2925    4.7763   -0.9292 H   0  0  0  0  0  0  0  0  0  0  0  0
   -3.8301    4.1427    1.4270 H   0  0  0  0  0  0  0  0  0  0  0  0
   -1.9454    2.6179    1.9531 H   0  0  0  0  0  0  0  0  0  0  0  0
  1  2  1  0
  2  3  1  0
  3  4  1  0
  4  5  1  0
  5  6  1  0
  6  7  1  0
  7  8  1  0
  2  9  2  0
  9 10  1  0
 10 11  2  0
 11 12  1  0
 12 13  2  0
 13 14  1  0
 14 15  1  0
 11 16  1  0
 16 17  2  3
 17 18  1  0
 18 19  2  0
 19 20  1  0
 20 21  2  0
 21 22  1  0
 22 23  2  0
 16  1  1  0
 23 18  1  0
 14 10  1  0
  1 24  1  0
  3 25  1  0
  4 26  1  0
  4 27  1  0
  5 28  1  0
  5 29  1  0
  6 30  1  0
  6 31  1  0
  8 32  1  0
  8 33  1  0
  8 34  1  0
 12 35  1  0
 15 36  1  0
 15 37  1  0
 15 38  1  0
 19 39  1  0
 20 40  1  0
 21 41  1  0
 22 42  1  0
 23 43  1  0
M  END
>  <ScrubInfo>  (3) 
{"isomerGroup": 0, "isomerId": 2, "confId": 0, "nr_conformers:": 1, "nr_isomers:": 9}

$$$$
_i3
     RDKit          3D

 43 45  0  0  0  0  0  0  0  0999 V2000
   -0.3834   -2.3000    1.4068 N   0  0  0  0  0  0  0  0  0  0  0  0
   -1.0587   -1.1541    1.0427 C   0  0  0  0  0  0  0  0  0  0  0  0
   -2.2333   -0.9577    1.5467 N   0  0  0  0  0  0  0  0  0  0  0  0
   -2.9579    0.2629    1.1774 C   0  0  0  0  0  0  0  0  0  0  0  0
   -3.8139    0.0007   -0.0606 C   0  0  0  0  0  0  0  0  0  0  0  0
   -4.7210    1.1806   -0.3881 C   0  0  0  0  0  0  0  0  0  0  0  0
   -3.9295    2.3177   -0.7283 O   0  0  0  0  0  0  0  0  0  0  0  0
   -4.7372    3.4460   -1.0351 C   0  0  0  0  0  0  0  0  0  0  0  0
   -0.5124   -0.2380    0.1578 N   0  0  0  0  0  0  0  0  0  0  0  0
    0.6745   -0.4570   -0.3357 C   0  0  0  0  0  0  0  0  0  0  0  0
    1.2702    0.3899   -1.2353 N   0  0  0  0  0  0  0  0  0  0  0  0
    2.5088    1.0464   -1.0117 C   0  0  0  0  0  0  0  0  0  0  0  0
    3.1408    1.6542   -2.1059 C   0  0  0  0  0  0  0  0  0  0  0  0
    4.3470    2.3397   -1.9462 C   0  0  0  0  0  0  0  0  0  0  0  0
    4.9297    2.4371   -0.6853 C   0  0  0  0  0  0  0  0  0  0  0  0
    4.3035    1.8553    0.4145 C   0  0  0  0  0  0  0  0  0  0  0  0
    3.0963    1.1695    0.2539 C   0  0  0  0  0  0  0  0  0  0  0  0
    1.4014   -1.6626   -0.0062 C   0  0  0  0  0  0  0  0  0  0  0  0
    2.6150   -2.2755   -0.3526 C   0  0  0  0  0  0  0  0  0  0  0  0
    2.7921   -3.4485    0.2778 N   0  0  0  0  0  0  0  0  0  0  0  0
    1.6691   -3.5875    1.0261 N   0  0  0  0  0  0  0  0  0  0  0  0
    1.5104   -4.7633    1.8428 C   0  0  0  0  0  0  0  0  0  0  0  0
    0.8223   -2.5381    0.8701 C   0  0  0  0  0  0  0  0  0  0  0  0
   -0.8873   -2.9034    2.0423 H   0  0  0  0  0  0  0  0  0  0  0  0
   -2.2962    1.1260    1.0394 H   0  0  0  0  0  0  0  0  0  0  0  0
   -3.6089    0.5222    2.0209 H   0  0  0  0  0  0  0  0  0  0  0  0
   -3.1597   -0.2056   -0.9160 H   0  0  0  0  0  0  0  0  0  0  0  0
   -4.4293   -0.8927    0.0992 H   0  0  0  0  0  0  0  0  0  0  0  0
   -5.3612    1.4176    0.4698 H   0  0  0  0  0  0  0  0  0  0  0  0
   -5.3598    0.9198   -1.2398 H   0  0  0  0  0  0  0  0  0  0  0  0
   -5.3812    3.2342   -1.8941 H   0  0  0  0  0  0  0  0  0  0  0  0
   -4.0795    4.2814   -1.2892 H   0  0  0  0  0  0  0  0  0  0  0  0
   -5.3438    3.7295   -0.1697 H   0  0  0  0  0  0  0  0  0  0  0  0
    0.5950    1.1038   -1.5059 H   0  0  0  0  0  0  0  0  0  0  0  0
    2.6999    1.5836   -3.0977 H   0  0  0  0  0  0  0  0  0  0  0  0
    4.8303    2.7963   -2.8060 H   0  0  0  0  0  0  0  0  0  0  0  0
    5.8685    2.9702   -0.5583 H   0  0  0  0  0  0  0  0  0  0  0  0
    4.7510    1.9385    1.4018 H   0  0  0  0  0  0  0  0  0  0  0  0
    2.6225    0.7462    1.1361 H   0  0  0  0  0  0  0  0  0  0  0  0
    3.3811   -1.9253   -1.0325 H   0  0  0  0  0  0  0  0  0  0  0  0
    1.4833   -5.6367    1.1865 H   0  0  0  0  0  0  0  0  0  0  0  0
    0.5815   -4.6982    2.4132 H   0  0  0  0  0  0  0  0  0  0  0  0
    2.3601   -4.8254    2.5274 H   0  0  0  0  0  0  0  0  0  0  0  0
  1  2  1  0
  2  3  2  3
  3  4  1  0
  4  5  1  0
  5  6  1  0
  6  7  1  0
  7  8  1  0
  2  9  1  0
  9 10  2  0
 10 11  1  0
 11 12  1  0
 12 13  2  0
 13 14  1  0
 14 15  2  0
 15 16  1  0
 16 17  2  0
 10 18  1  0
 18 19  1  0
 19 20  2  0
 20 21  1  0
 21 22  1  0
 21 23  1  0
 23  1  1  0
 17 12  1  0
 23 18  2  0
  1 24  1  0
  4 25  1  0
  4 26  1  0
  5 27  1  0
  5 28  1  0
  6 29  1  0
  6 30  1  0
  8 31  1  0
  8 32  1  0
  8 33  1  0
 11 34  1  0
 13 35  1  0
 14 36  1  0
 15 37  1  0
 16 38  1  0
 17 39  1  0
 19 40  1  0
 22 41  1  0
 22 42  1  0
 22 43  1  0
M  END
>  <ScrubInfo>  (4) 
{"isomerGroup": 0, "isomerId": 3, "confId": 0, "nr_conformers:": 1, "nr_isomers:": 9}

$$$$
_i4
     RDKit          3D

 43 45  0  0  0  0  0  0  0  0999 V2000
   -2.9013   -2.4433    0.4416 N   0  0  0  0  0  0  0  0  0  0  0  0
   -2.9656   -1.0614    0.2949 C   0  0  0  0  0  0  0  0  0  0  0  0
   -1.7730   -0.4913    0.0641 C   0  0  0  0  0  0  0  0  0  0  0  0
   -1.2083    0.8287   -0.1861 C   0  0  0  0  0  0  0  0  0  0  0  0
   -1.7638    1.9948   -0.1914 N   0  0  0  0  0  0  0  0  0  0  0  0
   -3.1259    2.1363    0.0797 C   0  0  0  0  0  0  0  0  0  0  0  0
   -4.0547    2.1451   -0.9643 C   0  0  0  0  0  0  0  0  0  0  0  0
   -5.4162    2.3019   -0.6978 C   0  0  0  0  0  0  0  0  0  0  0  0
   -5.8536    2.4672    0.6160 C   0  0  0  0  0  0  0  0  0  0  0  0
   -4.9303    2.4856    1.6611 C   0  0  0  0  0  0  0  0  0  0  0  0
   -3.5695    2.3282    1.3911 C   0  0  0  0  0  0  0  0  0  0  0  0
    0.1330    0.8121   -0.4601 N   0  0  0  0  0  0  0  0  0  0  0  0
    0.8564   -0.2639   -0.4391 C   0  0  0  0  0  0  0  0  0  0  0  0
    2.1922   -0.2228   -0.7279 N   0  0  0  0  0  0  0  0  0  0  0  0
    2.9742    0.9914   -0.5737 C   0  0  0  0  0  0  0  0  0  0  0  0
    4.2780    0.9032   -1.3671 C   0  0  0  0  0  0  0  0  0  0  0  0
    5.2683   -0.1186   -0.8206 C   0  0  0  0  0  0  0  0  0  0  0  0
    5.5947    0.2090    0.5280 O   0  0  0  0  0  0  0  0  0  0  0  0
    6.5355   -0.7036    1.0785 C   0  0  0  0  0  0  0  0  0  0  0  0
    0.4003   -1.5183   -0.1335 N   0  0  0  0  0  0  0  0  0  0  0  0
   -0.8561   -1.6451    0.1164 C   0  0  0  0  0  0  0  0  0  0  0  0
   -1.5612   -2.8033    0.4501 N   0  0  0  0  0  0  0  0  0  0  0  0
   -1.1762   -4.0908   -0.0958 C   0  0  0  0  0  0  0  0  0  0  0  0
   -3.4674   -2.7926    1.2182 H   0  0  0  0  0  0  0  0  0  0  0  0
   -3.9301   -0.5826    0.3803 H   0  0  0  0  0  0  0  0  0  0  0  0
   -3.7099    2.0340   -1.9890 H   0  0  0  0  0  0  0  0  0  0  0  0
   -6.1313    2.3068   -1.5162 H   0  0  0  0  0  0  0  0  0  0  0  0
   -6.9126    2.5985    0.8237 H   0  0  0  0  0  0  0  0  0  0  0  0
   -5.2663    2.6351    2.6837 H   0  0  0  0  0  0  0  0  0  0  0  0
   -2.8467    2.3620    2.2019 H   0  0  0  0  0  0  0  0  0  0  0  0
    2.6455   -1.0636   -0.3932 H   0  0  0  0  0  0  0  0  0  0  0  0
    3.1678    1.1763    0.4886 H   0  0  0  0  0  0  0  0  0  0  0  0
    2.4131    1.8519   -0.9570 H   0  0  0  0  0  0  0  0  0  0  0  0
    4.7511    1.8927   -1.3397 H   0  0  0  0  0  0  0  0  0  0  0  0
    4.0629    0.6716   -2.4170 H   0  0  0  0  0  0  0  0  0  0  0  0
    4.8498   -1.1301   -0.8654 H   0  0  0  0  0  0  0  0  0  0  0  0
    6.1802   -0.0962   -1.4288 H   0  0  0  0  0  0  0  0  0  0  0  0
    6.1248   -1.7178    1.0872 H   0  0  0  0  0  0  0  0  0  0  0  0
    7.4702   -0.6797    0.5100 H   0  0  0  0  0  0  0  0  0  0  0  0
    6.7450   -0.4026    2.1084 H   0  0  0  0  0  0  0  0  0  0  0  0
   -1.3075   -4.1081   -1.1828 H   0  0  0  0  0  0  0  0  0  0  0  0
   -0.1285   -4.3093    0.1345 H   0  0  0  0  0  0  0  0  0  0  0  0
   -1.7870   -4.8875    0.3412 H   0  0  0  0  0  0  0  0  0  0  0  0
  1  2  1  0
  2  3  2  0
  3  4  1  0
  4  5  2  3
  5  6  1  0
  6  7  2  0
  7  8  1  0
  8  9  2  0
  9 10  1  0
 10 11  2  0
  4 12  1  0
 12 13  2  0
 13 14  1  0
 14 15  1  0
 15 16  1  0
 16 17  1  0
 17 18  1  0
 18 19  1  0
 13 20  1  0
 20 21  2  0
 21 22  1  0
 22 23  1  0
 22  1  1  0
 21  3  1  0
 11  6  1  0
  1 24  1  0
  2 25  1  0
  7 26  1  0
  8 27  1  0
  9 28  1  0
 10 29  1  0
 11 30  1  0
 14 31  1  0
 15 32  1  0
 15 33  1  0
 16 34  1  0
 16 35  1  0
 17 36  1  0
 17 37  1  0
 19 38  1  0
 19 39  1  0
 19 40  1  0
 23 41  1  0
 23 42  1  0
 23 43  1  0
M  END
>  <ScrubInfo>  (5) 
{"isomerGroup": 0, "isomerId": 4, "confId": 0, "nr_conformers:": 1, "nr_isomers:": 9}

$$$$
_i5
     RDKit          3D

 43 45  0  0  0  0  0  0  0  0999 V2000
    1.0030    0.7625   -0.0578 N   0  0  0  0  0  0  0  0  0  0  0  0
    0.1961   -0.2083    0.4932 C   0  0  0  0  0  0  0  0  0  0  0  0
    0.8314   -1.2442    1.1111 N   0  0  0  0  0  0  0  0  0  0  0  0
    2.1016   -1.1611    1.8032 C   0  0  0  0  0  0  0  0  0  0  0  0
    3.1418   -2.0520    1.1320 C   0  0  0  0  0  0  0  0  0  0  0  0
    3.4111   -1.7104   -0.3304 C   0  0  0  0  0  0  0  0  0  0  0  0
    3.7418   -0.3234   -0.4641 O   0  0  0  0  0  0  0  0  0  0  0  0
    4.1844   -0.0360   -1.7893 C   0  0  0  0  0  0  0  0  0  0  0  0
   -1.1106   -0.2147    0.4602 N   0  0  0  0  0  0  0  0  0  0  0  0
   -1.7793    0.8278   -0.1681 C   0  0  0  0  0  0  0  0  0  0  0  0
   -3.0676    0.9266   -0.2538 N   0  0  0  0  0  0  0  0  0  0  0  0
   -3.8487   -0.0818    0.3261 C   0  0  0  0  0  0  0  0  0  0  0  0
   -4.3118    0.0514    1.6379 C   0  0  0  0  0  0  0  0  0  0  0  0
   -5.1204   -0.9346    2.2075 C   0  0  0  0  0  0  0  0  0  0  0  0
   -5.4802   -2.0564    1.4614 C   0  0  0  0  0  0  0  0  0  0  0  0
   -5.0356   -2.1897    0.1465 C   0  0  0  0  0  0  0  0  0  0  0  0
   -4.2273   -1.2016   -0.4197 C   0  0  0  0  0  0  0  0  0  0  0  0
   -0.9713    1.8616   -0.7622 C   0  0  0  0  0  0  0  0  0  0  0  0
   -1.2094    3.0392   -1.4832 C   0  0  0  0  0  0  0  0  0  0  0  0
   -0.0702    3.6620   -1.8317 N   0  0  0  0  0  0  0  0  0  0  0  0
    0.9016    2.8710   -1.3104 N   0  0  0  0  0  0  0  0  0  0  0  0
    2.2814    3.2561   -1.4555 C   0  0  0  0  0  0  0  0  0  0  0  0
    0.3902    1.7830   -0.6800 C   0  0  0  0  0  0  0  0  0  0  0  0
    2.0010    0.5753   -0.1234 H   0  0  0  0  0  0  0  0  0  0  0  0
    0.1576   -1.8683    1.5482 H   0  0  0  0  0  0  0  0  0  0  0  0
    2.4646   -0.1303    1.8826 H   0  0  0  0  0  0  0  0  0  0  0  0
    1.9567   -1.5050    2.8342 H   0  0  0  0  0  0  0  0  0  0  0  0
    4.0779   -1.9530    1.6953 H   0  0  0  0  0  0  0  0  0  0  0  0
    2.8342   -3.1024    1.1992 H   0  0  0  0  0  0  0  0  0  0  0  0
    4.2450   -2.3260   -0.6884 H   0  0  0  0  0  0  0  0  0  0  0  0
    2.5332   -1.9307   -0.9483 H   0  0  0  0  0  0  0  0  0  0  0  0
    3.3865   -0.2415   -2.5092 H   0  0  0  0  0  0  0  0  0  0  0  0
    4.4413    1.0249   -1.8425 H   0  0  0  0  0  0  0  0  0  0  0  0
    5.0765   -0.6212   -2.0324 H   0  0  0  0  0  0  0  0  0  0  0  0
   -4.0373    0.9293    2.2153 H   0  0  0  0  0  0  0  0  0  0  0  0
   -5.4708   -0.8232    3.2297 H   0  0  0  0  0  0  0  0  0  0  0  0
   -6.1110   -2.8234    1.9026 H   0  0  0  0  0  0  0  0  0  0  0  0
   -5.3194   -3.0586   -0.4404 H   0  0  0  0  0  0  0  0  0  0  0  0
   -3.8862   -1.3009   -1.4459 H   0  0  0  0  0  0  0  0  0  0  0  0
   -2.1597    3.4690   -1.7734 H   0  0  0  0  0  0  0  0  0  0  0  0
    2.6223    2.9348   -2.4424 H   0  0  0  0  0  0  0  0  0  0  0  0
    2.8773    2.7816   -0.6727 H   0  0  0  0  0  0  0  0  0  0  0  0
    2.3585    4.3425   -1.3608 H   0  0  0  0  0  0  0  0  0  0  0  0
  1  2  1  0
  2  3  1  0
  3  4  1  0
  4  5  1  0
  5  6  1  0
  6  7  1  0
  7  8  1  0
  2  9  2  0
  9 10  1  0
 10 11  2  3
 11 12  1  0
 12 13  2  0
 13 14  1  0
 14 15  2  0
 15 16  1  0
 16 17  2  0
 10 18  1  0
 18 19  1  0
 19 20  2  0
 20 21  1  0
 21 22  1  0
 21 23  1  0
 23  1  1  0
 17 12  1  0
 23 18  2  0
  1 24  1  0
  3 25  1  0
  4 26  1  0
  4 27  1  0
  5 28  1  0
  5 29  1  0
  6 30  1  0
  6 31  1  0
  8 32  1  0
  8 33  1  0
  8 34  1  0
 13 35  1  0
 14 36  1  0
 15 37  1  0
 16 38  1  0
 17 39  1  0
 19 40  1  0
 22 41  1  0
 22 42  1  0
 22 43  1  0
M  END
>  <ScrubInfo>  (6) 
{"isomerGroup": 0, "isomerId": 5, "confId": 0, "nr_conformers:": 1, "nr_isomers:": 9}

$$$$
_i6
     RDKit          3D

 43 45  0  0  0  0  0  0  0  0999 V2000
   -2.0740   -3.5394    2.1811 N   0  0  0  0  0  0  0  0  0  0  0  0
   -2.6727   -2.3093    1.9309 C   0  0  0  0  0  0  0  0  0  0  0  0
   -1.8960   -1.4853    1.2133 C   0  0  0  0  0  0  0  0  0  0  0  0
   -1.9435   -0.1181    0.6830 C   0  0  0  0  0  0  0  0  0  0  0  0
   -3.0811    0.6417    0.8899 N   0  0  0  0  0  0  0  0  0  0  0  0
   -3.3867    1.9543    0.4772 C   0  0  0  0  0  0  0  0  0  0  0  0
   -2.5415    2.7611   -0.2906 C   0  0  0  0  0  0  0  0  0  0  0  0
   -2.9142    4.0592   -0.6608 C   0  0  0  0  0  0  0  0  0  0  0  0
   -4.1439    4.5765   -0.2674 C   0  0  0  0  0  0  0  0  0  0  0  0
   -5.0023    3.7953    0.4973 C   0  0  0  0  0  0  0  0  0  0  0  0
   -4.6255    2.4994    0.8645 C   0  0  0  0  0  0  0  0  0  0  0  0
   -0.8875    0.2960    0.0460 N   0  0  0  0  0  0  0  0  0  0  0  0
    0.2052   -0.5248   -0.1048 C   0  0  0  0  0  0  0  0  0  0  0  0
    1.1940    0.0359   -0.7078 N   0  0  0  0  0  0  0  0  0  0  0  0
    2.3993   -0.7601   -0.9209 C   0  0  0  0  0  0  0  0  0  0  0  0
    3.4119    0.1003   -1.6723 C   0  0  0  0  0  0  0  0  0  0  0  0
    4.7242   -0.6492   -1.8800 C   0  0  0  0  0  0  0  0  0  0  0  0
    5.6359    0.0722   -2.7095 O   0  0  0  0  0  0  0  0  0  0  0  0
    6.2344    1.1837   -2.0574 C   0  0  0  0  0  0  0  0  0  0  0  0
    0.3186   -1.8315    0.3130 N   0  0  0  0  0  0  0  0  0  0  0  0
   -0.6994   -2.3096    0.9380 C   0  0  0  0  0  0  0  0  0  0  0  0
   -0.8857   -3.5895    1.4610 N   0  0  0  0  0  0  0  0  0  0  0  0
    0.2308   -4.3518    1.9868 C   0  0  0  0  0  0  0  0  0  0  0  0
   -2.7038   -4.3365    2.0603 H   0  0  0  0  0  0  0  0  0  0  0  0
   -3.6647   -2.1291    2.3177 H   0  0  0  0  0  0  0  0  0  0  0  0
   -3.8258    0.2111    1.4195 H   0  0  0  0  0  0  0  0  0  0  0  0
   -1.5709    2.4078   -0.6261 H   0  0  0  0  0  0  0  0  0  0  0  0
   -2.2342    4.6609   -1.2589 H   0  0  0  0  0  0  0  0  0  0  0  0
   -4.4291    5.5842   -0.5565 H   0  0  0  0  0  0  0  0  0  0  0  0
   -5.9645    4.1919    0.8097 H   0  0  0  0  0  0  0  0  0  0  0  0
   -5.3205    1.9169    1.4640 H   0  0  0  0  0  0  0  0  0  0  0  0
    2.8300   -1.0694    0.0393 H   0  0  0  0  0  0  0  0  0  0  0  0
    2.1756   -1.6543   -1.5154 H   0  0  0  0  0  0  0  0  0  0  0  0
    3.5892    1.0282   -1.1160 H   0  0  0  0  0  0  0  0  0  0  0  0
    3.0042    0.4099   -2.6427 H   0  0  0  0  0  0  0  0  0  0  0  0
    5.2017   -0.8937   -0.9236 H   0  0  0  0  0  0  0  0  0  0  0  0
    4.5243   -1.5972   -2.3914 H   0  0  0  0  0  0  0  0  0  0  0  0
    5.4966    1.9661   -1.8620 H   0  0  0  0  0  0  0  0  0  0  0  0
    6.9986    1.5967   -2.7217 H   0  0  0  0  0  0  0  0  0  0  0  0
    6.7168    0.8745   -1.1252 H   0  0  0  0  0  0  0  0  0  0  0  0
   -0.0931   -5.3609    2.2616 H   0  0  0  0  0  0  0  0  0  0  0  0
    1.0203   -4.4476    1.2346 H   0  0  0  0  0  0  0  0  0  0  0  0
    0.6492   -3.8665    2.8747 H   0  0  0  0  0  0  0  0  0  0  0  0
  1  2  1  0
  2  3  2  0
  3  4  1  0
  4  5  1  0
  5  6  1  0
  6  7  2  0
  7  8  1  0
  8  9  2  0
  9 10  1  0
 10 11  2  0
  4 12  2  0
 12 13  1  0
 13 14  2  3
 14 15  1  0
 15 16  1  0
 16 17  1  0
 17 18  1  0
 18 19  1  0
 13 20  1  0
 20 21  2  0
 21 22  1  0
 22 23  1  0
 22  1  1  0
 21  3  1  0
 11  6  1  0
  1 24  1  0
  2 25  1  0
  5 26  1  0
  7 27  1  0
  8 28  1  0
  9 29  1  0
 10 30  1  0
 11 31  1  0
 15 32  1  0
 15 33  1  0
 16 34  1  0
 16 35  1  0
 17 36  1  0
 17 37  1  0
 19 38  1  0
 19 39  1  0
 19 40  1  0
 23 41  1  0
 23 42  1  0
 23 43  1  0
M  END
>  <ScrubInfo>  (7) 
{"isomerGroup": 0, "isomerId": 6, "confId": 0, "nr_conformers:": 1, "nr_isomers:": 9}

$$$$
_i7
     RDKit          3D

 43 45  0  0  0  0  0  0  0  0999 V2000
   -3.0813   -2.1223   -0.1575 N   0  0  0  0  0  0  0  0  0  0  0  0
   -3.0190   -0.7383   -0.2743 C   0  0  0  0  0  0  0  0  0  0  0  0
   -1.7773   -0.2460   -0.1602 C   0  0  0  0  0  0  0  0  0  0  0  0
   -1.0664    1.0479   -0.1497 C   0  0  0  0  0  0  0  0  0  0  0  0
   -1.5371    2.2485   -0.3172 N   0  0  0  0  0  0  0  0  0  0  0  0
   -2.8984    2.4563   -0.5546 C   0  0  0  0  0  0  0  0  0  0  0  0
   -3.7711    2.6961    0.5100 C   0  0  0  0  0  0  0  0  0  0  0  0
   -5.1282    2.9234    0.2734 C   0  0  0  0  0  0  0  0  0  0  0  0
   -5.6160    2.9272   -1.0330 C   0  0  0  0  0  0  0  0  0  0  0  0
   -4.7466    2.7132   -2.1022 C   0  0  0  0  0  0  0  0  0  0  0  0
   -3.3900    2.4860   -1.8625 C   0  0  0  0  0  0  0  0  0  0  0  0
    0.2748    0.8973    0.0769 N   0  0  0  0  0  0  0  0  0  0  0  0
    0.9599   -0.2683    0.2690 C   0  0  0  0  0  0  0  0  0  0  0  0
    2.2321   -0.2054    0.4961 N   0  0  0  0  0  0  0  0  0  0  0  0
    2.9360   -1.4739    0.6955 C   0  0  0  0  0  0  0  0  0  0  0  0
    4.4139   -1.1863    0.9445 C   0  0  0  0  0  0  0  0  0  0  0  0
    5.1032   -0.6008   -0.2857 C   0  0  0  0  0  0  0  0  0  0  0  0
    6.5162   -0.4957   -0.0898 O   0  0  0  0  0  0  0  0  0  0  0  0
    6.8871    0.6442    0.6737 C   0  0  0  0  0  0  0  0  0  0  0  0
    0.3280   -1.4926    0.2193 N   0  0  0  0  0  0  0  0  0  0  0  0
   -0.9509   -1.4948    0.0033 C   0  0  0  0  0  0  0  0  0  0  0  0
   -1.7840   -2.6109   -0.1058 N   0  0  0  0  0  0  0  0  0  0  0  0
   -1.5147   -3.8218    0.6459 C   0  0  0  0  0  0  0  0  0  0  0  0
   -3.7020   -2.5593   -0.8427 H   0  0  0  0  0  0  0  0  0  0  0  0
   -3.9400   -0.1985   -0.4388 H   0  0  0  0  0  0  0  0  0  0  0  0
   -3.3883    2.7084    1.5268 H   0  0  0  0  0  0  0  0  0  0  0  0
   -5.8007    3.1072    1.1073 H   0  0  0  0  0  0  0  0  0  0  0  0
   -6.6712    3.1119   -1.2187 H   0  0  0  0  0  0  0  0  0  0  0  0
   -5.1212    2.7342   -3.1223 H   0  0  0  0  0  0  0  0  0  0  0  0
   -2.7097    2.3360   -2.6962 H   0  0  0  0  0  0  0  0  0  0  0  0
    0.8273    1.7401    0.1184 H   0  0  0  0  0  0  0  0  0  0  0  0
    2.5345   -1.9961    1.5725 H   0  0  0  0  0  0  0  0  0  0  0  0
    2.8323   -2.1262   -0.1801 H   0  0  0  0  0  0  0  0  0  0  0  0
    4.9232   -2.1145    1.2313 H   0  0  0  0  0  0  0  0  0  0  0  0
    4.5207   -0.5057    1.7969 H   0  0  0  0  0  0  0  0  0  0  0  0
    4.9578   -1.2739   -1.1377 H   0  0  0  0  0  0  0  0  0  0  0  0
    4.6868    0.3733   -0.5674 H   0  0  0  0  0  0  0  0  0  0  0  0
    6.5301    1.5618    0.1962 H   0  0  0  0  0  0  0  0  0  0  0  0
    6.5036    0.5752    1.6949 H   0  0  0  0  0  0  0  0  0  0  0  0
    7.9790    0.6819    0.7207 H   0  0  0  0  0  0  0  0  0  0  0  0
   -0.5034   -4.1871    0.4401 H   0  0  0  0  0  0  0  0  0  0  0  0
   -1.6104   -3.6411    1.7217 H   0  0  0  0  0  0  0  0  0  0  0  0
   -2.2185   -4.6109    0.3618 H   0  0  0  0  0  0  0  0  0  0  0  0
  1  2  1  0
  2  3  2  0
  3  4  1  0
  4  5  2  3
  5  6  1  0
  6  7  2  0
  7  8  1  0
  8  9  2  0
  9 10  1  0
 10 11  2  0
  4 12  1  0
 12 13  1  0
 13 14  2  3
 14 15  1  0
 15 16  1  0
 16 17  1  0
 17 18  1  0
 18 19  1  0
 13 20  1  0
 20 21  2  0
 21 22  1  0
 22 23  1  0
 22  1  1  0
 21  3  1  0
 11  6  1  0
  1 24  1  0
  2 25  1  0
  7 26  1  0
  8 27  1  0
  9 28  1  0
 10 29  1  0
 11 30  1  0
 12 31  1  0
 15 32  1  0
 15 33  1  0
 16 34  1  0
 16 35  1  0
 17 36  1  0
 17 37  1  0
 19 38  1  0
 19 39  1  0
 19 40  1  0
 23 41  1  0
 23 42  1  0
 23 43  1  0
M  END
>  <ScrubInfo>  (8) 
{"isomerGroup": 0, "isomerId": 7, "confId": 0, "nr_conformers:": 1, "nr_isomers:": 9}

$$$$
_i8
     RDKit          3D

 43 45  0  0  0  0  0  0  0  0999 V2000
   -0.9090   -0.4194    0.4255 N   0  0  0  0  0  0  0  0  0  0  0  0
   -0.1957    0.6966    0.0043 C   0  0  0  0  0  0  0  0  0  0  0  0
   -0.6597    1.8275   -0.4185 N   0  0  0  0  0  0  0  0  0  0  0  0
   -2.1107    2.0138   -0.4183 C   0  0  0  0  0  0  0  0  0  0  0  0
   -2.7543    1.3029   -1.6111 C   0  0  0  0  0  0  0  0  0  0  0  0
   -4.0932    0.6844   -1.2312 C   0  0  0  0  0  0  0  0  0  0  0  0
   -3.8737   -0.3295   -0.2395 O   0  0  0  0  0  0  0  0  0  0  0  0
   -5.1094   -0.9210    0.1551 C   0  0  0  0  0  0  0  0  0  0  0  0
    1.1756    0.5293    0.0505 N   0  0  0  0  0  0  0  0  0  0  0  0
    1.9468   -0.5489    0.4389 C   0  0  0  0  0  0  0  0  0  0  0  0
    3.2282   -0.7078    0.4888 N   0  0  0  0  0  0  0  0  0  0  0  0
    4.0340    0.3670    0.0947 C   0  0  0  0  0  0  0  0  0  0  0  0
    4.4463    0.4888   -1.2346 C   0  0  0  0  0  0  0  0  0  0  0  0
    5.2432    1.5642   -1.6310 C   0  0  0  0  0  0  0  0  0  0  0  0
    5.6402    2.5184   -0.6949 C   0  0  0  0  0  0  0  0  0  0  0  0
    5.2472    2.3937    0.6372 C   0  0  0  0  0  0  0  0  0  0  0  0
    4.4503    1.3171    1.0306 C   0  0  0  0  0  0  0  0  0  0  0  0
    1.1128   -1.6552    0.8426 C   0  0  0  0  0  0  0  0  0  0  0  0
    1.3415   -2.9620    1.2991 C   0  0  0  0  0  0  0  0  0  0  0  0
    0.1993   -3.6265    1.5379 N   0  0  0  0  0  0  0  0  0  0  0  0
   -0.7666   -2.7270    1.2295 N   0  0  0  0  0  0  0  0  0  0  0  0
   -2.1544   -3.0893    1.3606 C   0  0  0  0  0  0  0  0  0  0  0  0
   -0.2542   -1.5370    0.8137 C   0  0  0  0  0  0  0  0  0  0  0  0
   -1.9252   -0.3881    0.3461 H   0  0  0  0  0  0  0  0  0  0  0  0
   -2.3139    3.0886   -0.4950 H   0  0  0  0  0  0  0  0  0  0  0  0
   -2.5375    1.7106    0.5454 H   0  0  0  0  0  0  0  0  0  0  0  0
   -2.8973    2.0197   -2.4280 H   0  0  0  0  0  0  0  0  0  0  0  0
   -2.0994    0.5118   -1.9951 H   0  0  0  0  0  0  0  0  0  0  0  0
   -4.7685    1.4513   -0.8344 H   0  0  0  0  0  0  0  0  0  0  0  0
   -4.5518    0.2293   -2.1164 H   0  0  0  0  0  0  0  0  0  0  0  0
   -5.5911   -1.4049   -0.6999 H   0  0  0  0  0  0  0  0  0  0  0  0
   -5.7736   -0.1667    0.5879 H   0  0  0  0  0  0  0  0  0  0  0  0
   -4.9025   -1.6789    0.9146 H   0  0  0  0  0  0  0  0  0  0  0  0
    1.6815    1.3476   -0.2558 H   0  0  0  0  0  0  0  0  0  0  0  0
    4.1459   -0.2608   -1.9619 H   0  0  0  0  0  0  0  0  0  0  0  0
    5.5588    1.6526   -2.6673 H   0  0  0  0  0  0  0  0  0  0  0  0
    6.2645    3.3539   -1.0015 H   0  0  0  0  0  0  0  0  0  0  0  0
    5.5659    3.1294    1.3709 H   0  0  0  0  0  0  0  0  0  0  0  0
    4.1530    1.2140    2.0708 H   0  0  0  0  0  0  0  0  0  0  0  0
    2.2890   -3.4587    1.4646 H   0  0  0  0  0  0  0  0  0  0  0  0
   -2.5999   -3.1072    0.3631 H   0  0  0  0  0  0  0  0  0  0  0  0
   -2.6484   -2.3468    1.9918 H   0  0  0  0  0  0  0  0  0  0  0  0
   -2.2341   -4.0767    1.8226 H   0  0  0  0  0  0  0  0  0  0  0  0
  1  2  1  0
  2  3  2  3
  3  4  1  0
  4  5  1  0
  5  6  1  0
  6  7  1  0
  7  8  1  0
  2  9  1  0
  9 10  1  0
 10 11  2  3
 11 12  1  0
 12 13  2  0
 13 14  1  0
 14 15  2  0
 15 16  1  0
 16 17  2  0
 10 18  1  0
 18 19  1  0
 19 20  2  0
 20 21  1  0
 21 22  1  0
 21 23  1  0
 23  1  1  0
 17 12  1  0
 23 18  2  0
  1 24  1  0
  4 25  1  0
  4 26  1  0
  5 27  1  0
  5 28  1  0
  6 29  1  0
  6 30  1  0
  8 31  1  0
  8 32  1  0
  8 33  1  0
  9 34  1  0
 13 35  1  0
 14 36  1  0
 15 37  1  0
 16 38  1  0
 17 39  1  0
 19 40  1  0
 22 41  1  0
 22 42  1  0
 22 43  1  0
M  END
>  <ScrubInfo>  (9) 
{"isomerGroup": 0, "isomerId": 8, "confId": 0, "nr_conformers:": 1, "nr_isomers:": 9}

$$$$
