REMARK SMILES CC[NH+](CC)CCNc1nc(Nc2ccc(I)cc2)c2cnn(C)c2n1
REMARK SMILES IDX 7 1 6 2 3 3 2 5 1 6 4 7 5 8 8 9 9 11 10 12 26 13 11 14 25 15
REMARK SMILES IDX 20 16 23 17 21 18 22 19 24 20 12 21 13 23 14 24 19 25 15 26
REMARK SMILES IDX 18 27 16 28 17 29
REMARK H PARENT 3 4 8 10 12 22
ROOT
ATOM      1  C   UNL     1      -1.892   1.189   1.797  1.00  0.00     0.177 C 
ENDROOT
BRANCH   1   2
ATOM      2  C   UNL     1      -2.352   1.776   0.442  1.00  0.00     0.283 C 
BRANCH   2   3
ATOM      3  N   UNL     1      -3.314   0.800  -0.238  1.00  0.00    -0.334 N 
ATOM      4  H   UNL     1      -2.886  -0.113   0.009  1.00  0.00     0.348 HD
BRANCH   3   5
ATOM      5  C   UNL     1      -4.693   0.738   0.378  1.00  0.00     0.258 C 
ATOM      6  C   UNL     1      -5.511   1.987   0.103  1.00  0.00     0.071 C 
ENDBRANCH   3   5
BRANCH   3   7
ATOM      7  C   UNL     1      -3.330   0.884  -1.744  1.00  0.00     0.258 C 
ATOM      8  C   UNL     1      -2.093   0.242  -2.344  1.00  0.00     0.071 C 
ENDBRANCH   3   7
ENDBRANCH   2   3
ENDBRANCH   1   2
BRANCH   1   9
ATOM      9  N   UNL     1      -1.794  -0.275   1.720  1.00  0.00    -0.348 N 
ATOM     10  H   UNL     1      -1.896  -0.737   2.628  1.00  0.00     0.163 HD
BRANCH   9  11
ATOM     11  C   UNL     1      -0.540  -0.730   1.295  1.00  0.00     0.226 A 
ATOM     12  N   UNL     1       0.084  -0.075   0.299  1.00  0.00    -0.195 NA
ATOM     13  N   UNL     1      -0.107  -1.825   1.920  1.00  0.00    -0.193 NA
ATOM     14  C   UNL     1       1.303  -0.507  -0.130  1.00  0.00     0.147 A 
ATOM     15  C   UNL     1       1.073  -2.259   1.449  1.00  0.00     0.165 A 
ATOM     16  C   UNL     1       1.820  -1.672   0.445  1.00  0.00     0.082 A 
ATOM     17  N   UNL     1       1.778  -3.363   1.848  1.00  0.00    -0.250 N 
ATOM     18  C   UNL     1       2.937  -2.519   0.299  1.00  0.00     0.149 A 
ATOM     19  N   UNL     1       2.925  -3.545   1.157  1.00  0.00    -0.179 NA
ATOM     20  C   UNL     1       1.417  -4.305   2.878  1.00  0.00     0.176 C 
BRANCH  14  21
ATOM     21  N   UNL     1       1.909   0.216  -1.165  1.00  0.00    -0.339 N 
ATOM     22  H   UNL     1       1.302   0.978  -1.449  1.00  0.00     0.168 HD
BRANCH  21  23
ATOM     23  C   UNL     1       3.264   0.575  -1.321  1.00  0.00     0.040 A 
ATOM     24  C   UNL     1       4.177   0.606  -0.260  1.00  0.00     0.027 A 
ATOM     25  C   UNL     1       3.710   0.950  -2.596  1.00  0.00     0.027 A 
ATOM     26  C   UNL     1       5.508   0.982  -0.471  1.00  0.00     0.017 A 
ATOM     27  C   UNL     1       5.039   1.327  -2.813  1.00  0.00     0.017 A 
ATOM     28  C   UNL     1       5.935   1.339  -1.748  1.00  0.00     0.013 A 
ATOM     29  I   UNL     1       7.910   1.898  -2.062  1.00  0.00    -0.044 I 
ENDBRANCH  21  23
ENDBRANCH  14  21
ENDBRANCH   9  11
ENDBRANCH   1   9
TORSDOF 8
