_i0
     RDKit          3D

 51 53  0  0  0  0  0  0  0  0999 V2000
   -4.6931    0.7379    0.3776 C   0  0  0  0  0  0  0  0  0  0  0  0
   -3.3141    0.8000   -0.2380 N   0  0  0  0  0  4  0  0  0  0  0  0
   -3.3302    0.8842   -1.7436 C   0  0  0  0  0  0  0  0  0  0  0  0
   -2.3522    1.7755    0.4424 C   0  0  0  0  0  0  0  0  0  0  0  0
   -5.5115    1.9867    0.1031 C   0  0  0  0  0  0  0  0  0  0  0  0
   -2.0931    0.2419   -2.3443 C   0  0  0  0  0  0  0  0  0  0  0  0
   -1.8922    1.1893    1.7974 C   0  0  0  0  0  0  0  0  0  0  0  0
   -1.7935   -0.2747    1.7205 N   0  0  0  0  0  0  0  0  0  0  0  0
   -0.5405   -0.7300    1.2953 C   0  0  0  0  0  0  0  0  0  0  0  0
    0.0838   -0.0755    0.2992 N   0  0  0  0  0  0  0  0  0  0  0  0
   -0.1067   -1.8246    1.9199 N   0  0  0  0  0  0  0  0  0  0  0  0
    1.3031   -0.5067   -0.1300 C   0  0  0  0  0  0  0  0  0  0  0  0
    1.0731   -2.2587    1.4490 C   0  0  0  0  0  0  0  0  0  0  0  0
    1.9088    0.2162   -1.1654 N   0  0  0  0  0  0  0  0  0  0  0  0
    1.8196   -1.6718    0.4452 C   0  0  0  0  0  0  0  0  0  0  0  0
    1.7784   -3.3627    1.8481 N   0  0  0  0  0  0  0  0  0  0  0  0
    3.2637    0.5746   -1.3206 C   0  0  0  0  0  0  0  0  0  0  0  0
    2.9374   -2.5195    0.2988 C   0  0  0  0  0  0  0  0  0  0  0  0
    2.9245   -3.5446    1.1571 N   0  0  0  0  0  0  0  0  0  0  0  0
    1.4175   -4.3054    2.8776 C   0  0  0  0  0  0  0  0  0  0  0  0
    4.1771    0.6055   -0.2599 C   0  0  0  0  0  0  0  0  0  0  0  0
    3.7097    0.9500   -2.5959 C   0  0  0  0  0  0  0  0  0  0  0  0
    5.5084    0.9818   -0.4707 C   0  0  0  0  0  0  0  0  0  0  0  0
    5.0386    1.3265   -2.8131 C   0  0  0  0  0  0  0  0  0  0  0  0
    5.9347    1.3390   -1.7476 C   0  0  0  0  0  0  0  0  0  0  0  0
    7.9096    1.8977   -2.0615 I   0  0  0  0  0  0  0  0  0  0  0  0
   -4.5734    0.5780    1.4532 H   0  0  0  0  0  0  0  0  0  0  0  0
   -5.1845   -0.1482   -0.0388 H   0  0  0  0  0  0  0  0  0  0  0  0
   -2.8865   -0.1134    0.0092 H   0  0  0  0  0  0  0  0  0  0  0  0
   -4.2169    0.3448   -2.0935 H   0  0  0  0  0  0  0  0  0  0  0  0
   -3.4180    1.9394   -2.0216 H   0  0  0  0  0  0  0  0  0  0  0  0
   -2.8440    2.7453    0.5534 H   0  0  0  0  0  0  0  0  0  0  0  0
   -1.4936    1.9059   -0.2208 H   0  0  0  0  0  0  0  0  0  0  0  0
   -5.6492    2.1576   -0.9686 H   0  0  0  0  0  0  0  0  0  0  0  0
   -6.5064    1.8789    0.5479 H   0  0  0  0  0  0  0  0  0  0  0  0
   -5.0551    2.8794    0.5390 H   0  0  0  0  0  0  0  0  0  0  0  0
   -2.1837    0.2120   -3.4351 H   0  0  0  0  0  0  0  0  0  0  0  0
   -1.9649   -0.7861   -1.9906 H   0  0  0  0  0  0  0  0  0  0  0  0
   -1.1864    0.8055   -2.1108 H   0  0  0  0  0  0  0  0  0  0  0  0
   -2.6529    1.4277    2.5502 H   0  0  0  0  0  0  0  0  0  0  0  0
   -0.9639    1.6629    2.1402 H   0  0  0  0  0  0  0  0  0  0  0  0
   -1.8962   -0.7368    2.6281 H   0  0  0  0  0  0  0  0  0  0  0  0
    1.3021    0.9776   -1.4486 H   0  0  0  0  0  0  0  0  0  0  0  0
    3.7621   -2.4334   -0.3982 H   0  0  0  0  0  0  0  0  0  0  0  0
    1.2890   -5.2869    2.4146 H   0  0  0  0  0  0  0  0  0  0  0  0
    2.2223   -4.3329    3.6166 H   0  0  0  0  0  0  0  0  0  0  0  0
    0.4862   -3.9957    3.3569 H   0  0  0  0  0  0  0  0  0  0  0  0
    3.8721    0.3570    0.7531 H   0  0  0  0  0  0  0  0  0  0  0  0
    3.0260    0.9333   -3.4418 H   0  0  0  0  0  0  0  0  0  0  0  0
    6.1969    0.9940    0.3712 H   0  0  0  0  0  0  0  0  0  0  0  0
    5.3580    1.6012   -3.8155 H   0  0  0  0  0  0  0  0  0  0  0  0
  1  2  1  0
  2  3  1  0
  2  4  1  0
  5  1  1  0
  3  6  1  0
  4  7  1  0
  7  8  1  0
  8  9  1  0
  9 10  2  0
 11  9  1  0
 10 12  1  0
 13 11  2  0
 12 14  1  0
 12 15  2  0
 16 13  1  0
 13 15  1  0
 14 17  1  0
 15 18  1  0
 19 16  1  0
 16 20  1  0
 17 21  2  0
 22 17  1  0
 18 19  2  0
 21 23  1  0
 24 22  2  0
 23 25  2  0
 25 24  1  0
 25 26  1  0
  1 27  1  0
  1 28  1  0
  2 29  1  0
  3 30  1  0
  3 31  1  0
  4 32  1  0
  4 33  1  0
  5 34  1  0
  5 35  1  0
  5 36  1  0
  6 37  1  0
  6 38  1  0
  6 39  1  0
  7 40  1  0
  7 41  1  0
  8 42  1  0
 14 43  1  0
 18 44  1  0
 20 45  1  0
 20 46  1  0
 20 47  1  0
 21 48  1  0
 22 49  1  0
 23 50  1  0
 24 51  1  0
M  CHG  1   2   1
M  END
>  <ScrubInfo>  (1) 
{"isomerGroup": 0, "isomerId": 0, "confId": 0, "nr_conformers:": 1, "nr_isomers:": 9}

$$$$
_i1
     RDKit          3D

 51 53  0  0  0  0  0  0  0  0999 V2000
   -0.9114    0.7491   -0.4883 N   0  0  0  0  0  0  0  0  0  0  0  0
   -1.9627    0.3871    0.3372 C   0  0  0  0  0  0  0  0  0  0  0  0
   -3.0701    1.1995    0.4696 N   0  0  0  0  0  0  0  0  0  0  0  0
   -4.4240    0.8318    0.2909 C   0  0  0  0  0  0  0  0  0  0  0  0
   -5.4146    1.7310    0.7152 C   0  0  0  0  0  0  0  0  0  0  0  0
   -6.7726    1.4156    0.6056 C   0  0  0  0  0  0  0  0  0  0  0  0
   -7.1548    0.1879    0.0728 C   0  0  0  0  0  0  0  0  0  0  0  0
   -9.1688   -0.2883   -0.0933 I   0  0  0  0  0  0  0  0  0  0  0  0
   -6.1886   -0.7224   -0.3478 C   0  0  0  0  0  0  0  0  0  0  0  0
   -4.8308   -0.4017   -0.2344 C   0  0  0  0  0  0  0  0  0  0  0  0
   -1.7881   -0.7516    1.0204 C   0  0  0  0  0  0  0  0  0  0  0  0
   -2.5132   -1.5465    2.0184 C   0  0  0  0  0  0  0  0  0  0  0  0
   -1.8703   -2.6345    2.3615 N   0  0  0  0  0  0  0  0  0  0  0  0
   -0.6572   -2.6033    1.6547 N   0  0  0  0  0  0  0  0  0  0  0  0
    0.0924   -3.8326    1.5395 C   0  0  0  0  0  0  0  0  0  0  0  0
   -0.5480   -1.5256    0.7928 C   0  0  0  0  0  0  0  0  0  0  0  0
    0.3891   -1.2118   -0.0403 N   0  0  0  0  0  0  0  0  0  0  0  0
    0.1724   -0.0510   -0.7432 C   0  0  0  0  0  0  0  0  0  0  0  0
    1.0343    0.3172   -1.6387 N   0  0  0  0  0  0  0  0  0  0  0  0
    2.1202   -0.6356   -1.9594 C   0  0  0  0  0  0  0  0  0  0  0  0
    3.2751   -0.4738   -0.9621 C   0  0  0  0  0  0  0  0  0  0  0  0
    3.4585    1.0185   -0.6778 N   0  0  0  0  0  4  0  0  0  0  0  0
    3.7545    1.2953    0.7732 C   0  0  0  0  0  0  0  0  0  0  0  0
    3.6213    2.7730    1.0908 C   0  0  0  0  0  0  0  0  0  0  0  0
    4.3066    1.7307   -1.7024 C   0  0  0  0  0  0  0  0  0  0  0  0
    5.7905    1.4662   -1.5239 C   0  0  0  0  0  0  0  0  0  0  0  0
   -1.0951    1.4828   -1.1583 H   0  0  0  0  0  0  0  0  0  0  0  0
   -2.9189    2.1643    0.1876 H   0  0  0  0  0  0  0  0  0  0  0  0
   -5.1378    2.6879    1.1527 H   0  0  0  0  0  0  0  0  0  0  0  0
   -7.5155    2.1335    0.9451 H   0  0  0  0  0  0  0  0  0  0  0  0
   -6.4745   -1.6841   -0.7679 H   0  0  0  0  0  0  0  0  0  0  0  0
   -4.1081   -1.1297   -0.5917 H   0  0  0  0  0  0  0  0  0  0  0  0
   -3.4935   -1.2326    2.3994 H   0  0  0  0  0  0  0  0  0  0  0  0
    1.1438   -3.6270    1.3141 H   0  0  0  0  0  0  0  0  0  0  0  0
    0.0561   -4.3981    2.4763 H   0  0  0  0  0  0  0  0  0  0  0  0
   -0.3196   -4.4567    0.7404 H   0  0  0  0  0  0  0  0  0  0  0  0
    1.7780   -1.6762   -2.0089 H   0  0  0  0  0  0  0  0  0  0  0  0
    2.4737   -0.3941   -2.9684 H   0  0  0  0  0  0  0  0  0  0  0  0
    3.0302   -0.9629   -0.0143 H   0  0  0  0  0  0  0  0  0  0  0  0
    4.2140   -0.8894   -1.3365 H   0  0  0  0  0  0  0  0  0  0  0  0
    2.4957    1.3676   -0.8399 H   0  0  0  0  0  0  0  0  0  0  0  0
    4.7525    0.9094    1.0012 H   0  0  0  0  0  0  0  0  0  0  0  0
    3.0170    0.7388    1.3622 H   0  0  0  0  0  0  0  0  0  0  0  0
    4.4010    3.3658    0.6037 H   0  0  0  0  0  0  0  0  0  0  0  0
    2.6457    3.1601    0.7794 H   0  0  0  0  0  0  0  0  0  0  0  0
    3.7179    2.9316    2.1698 H   0  0  0  0  0  0  0  0  0  0  0  0
    4.0862    2.7996   -1.6201 H   0  0  0  0  0  0  0  0  0  0  0  0
    3.9710    1.4026   -2.6912 H   0  0  0  0  0  0  0  0  0  0  0  0
    6.3503    1.9561   -2.3275 H   0  0  0  0  0  0  0  0  0  0  0  0
    6.0269    0.3993   -1.5605 H   0  0  0  0  0  0  0  0  0  0  0  0
    6.1637    1.8692   -0.5779 H   0  0  0  0  0  0  0  0  0  0  0  0
  1  2  1  0
  2  3  1  0
  3  4  1  0
  4  5  2  0
  5  6  1  0
  6  7  2  0
  7  8  1  0
  7  9  1  0
  9 10  2  0
  2 11  2  0
 11 12  1  0
 12 13  2  0
 13 14  1  0
 14 15  1  0
 14 16  1  0
 16 17  2  0
 17 18  1  0
 18 19  2  3
 19 20  1  0
 20 21  1  0
 21 22  1  0
 22 23  1  0
 23 24  1  0
 22 25  1  0
 25 26  1  0
 18  1  1  0
 10  4  1  0
 16 11  1  0
  1 27  1  0
  3 28  1  0
  5 29  1  0
  6 30  1  0
  9 31  1  0
 10 32  1  0
 12 33  1  0
 15 34  1  0
 15 35  1  0
 15 36  1  0
 20 37  1  0
 20 38  1  0
 21 39  1  0
 21 40  1  0
 22 41  1  0
 23 42  1  0
 23 43  1  0
 24 44  1  0
 24 45  1  0
 24 46  1  0
 25 47  1  0
 25 48  1  0
 26 49  1  0
 26 50  1  0
 26 51  1  0
M  CHG  1  22   1
M  END
>  <ScrubInfo>  (2) 
{"isomerGroup": 0, "isomerId": 1, "confId": 0, "nr_conformers:": 1, "nr_isomers:": 9}

$$$$
_i2
     RDKit          3D

 51 53  0  0  0  0  0  0  0  0999 V2000
    1.0252   -0.9229    0.0752 N   0  0  0  0  0  0  0  0  0  0  0  0
    0.0243   -1.8392    0.2795 C   0  0  0  0  0  0  0  0  0  0  0  0
   -1.1826   -1.3306    0.6820 N   0  0  0  0  0  0  0  0  0  0  0  0
   -1.2912   -0.5141    1.8901 C   0  0  0  0  0  0  0  0  0  0  0  0
   -2.6177    0.2742    1.9289 C   0  0  0  0  0  0  0  0  0  0  0  0
   -2.7373    1.3899    0.8813 N   0  0  0  0  0  4  0  0  0  0  0  0
   -1.7012    2.4838    1.0889 C   0  0  0  0  0  0  0  0  0  0  0  0
   -2.2056    3.8164    0.5650 C   0  0  0  0  0  0  0  0  0  0  0  0
   -2.8203    0.9358   -0.5684 C   0  0  0  0  0  0  0  0  0  0  0  0
   -3.9977    0.0066   -0.7985 C   0  0  0  0  0  0  0  0  0  0  0  0
    0.1433   -3.1272    0.0912 N   0  0  0  0  0  0  0  0  0  0  0  0
    1.4071   -3.4525   -0.3118 C   0  0  0  0  0  0  0  0  0  0  0  0
    2.4743   -2.6019   -0.5405 C   0  0  0  0  0  0  0  0  0  0  0  0
    3.5332   -3.4290   -0.9356 C   0  0  0  0  0  0  0  0  0  0  0  0
    3.1803   -4.7200   -0.9577 N   0  0  0  0  0  0  0  0  0  0  0  0
    1.8805   -4.7093   -0.5763 N   0  0  0  0  0  0  0  0  0  0  0  0
    1.1625   -5.9563   -0.4916 C   0  0  0  0  0  0  0  0  0  0  0  0
    2.3082   -1.1845   -0.3594 C   0  0  0  0  0  0  0  0  0  0  0  0
    3.2870   -0.3814   -0.6142 N   0  0  0  0  0  0  0  0  0  0  0  0
    3.0637    0.9877   -0.4296 C   0  0  0  0  0  0  0  0  0  0  0  0
    2.6015    1.7734   -1.4890 C   0  0  0  0  0  0  0  0  0  0  0  0
    2.3233    3.1288   -1.2964 C   0  0  0  0  0  0  0  0  0  0  0  0
    2.5197    3.7012   -0.0396 C   0  0  0  0  0  0  0  0  0  0  0  0
    2.0793    5.7078    0.2600 I   0  0  0  0  0  0  0  0  0  0  0  0
    3.0084    2.9334    1.0176 C   0  0  0  0  0  0  0  0  0  0  0  0
    3.2845    1.5786    0.8175 C   0  0  0  0  0  0  0  0  0  0  0  0
    0.7812    0.0489    0.1039 H   0  0  0  0  0  0  0  0  0  0  0  0
   -1.8108   -2.1379    0.7378 H   0  0  0  0  0  0  0  0  0  0  0  0
   -1.2507   -1.1777    2.7617 H   0  0  0  0  0  0  0  0  0  0  0  0
   -0.4484    0.1790    1.9789 H   0  0  0  0  0  0  0  0  0  0  0  0
   -3.4816   -0.3847    1.7999 H   0  0  0  0  0  0  0  0  0  0  0  0
   -2.7281    0.7665    2.9020 H   0  0  0  0  0  0  0  0  0  0  0  0
   -3.6491    1.8250    1.0783 H   0  0  0  0  0  0  0  0  0  0  0  0
   -0.7755    2.1722    0.5946 H   0  0  0  0  0  0  0  0  0  0  0  0
   -1.5246    2.5656    2.1665 H   0  0  0  0  0  0  0  0  0  0  0  0
   -3.1748    4.0754    1.0031 H   0  0  0  0  0  0  0  0  0  0  0  0
   -2.3072    3.8173   -0.5236 H   0  0  0  0  0  0  0  0  0  0  0  0
   -1.4976    4.6093    0.8263 H   0  0  0  0  0  0  0  0  0  0  0  0
   -2.9704    1.8354   -1.1721 H   0  0  0  0  0  0  0  0  0  0  0  0
   -1.8645    0.4933   -0.8567 H   0  0  0  0  0  0  0  0  0  0  0  0
   -4.1213   -0.1755   -1.8711 H   0  0  0  0  0  0  0  0  0  0  0  0
   -4.9285    0.4436   -0.4229 H   0  0  0  0  0  0  0  0  0  0  0  0
   -3.8544   -0.9666   -0.3216 H   0  0  0  0  0  0  0  0  0  0  0  0
    4.5436   -3.1513   -1.2084 H   0  0  0  0  0  0  0  0  0  0  0  0
    1.1671   -6.4234   -1.4797 H   0  0  0  0  0  0  0  0  0  0  0  0
    0.1338   -5.7752   -0.1726 H   0  0  0  0  0  0  0  0  0  0  0  0
    1.6688   -6.5956    0.2361 H   0  0  0  0  0  0  0  0  0  0  0  0
    2.4725    1.3266   -2.4727 H   0  0  0  0  0  0  0  0  0  0  0  0
    1.9788    3.7248   -2.1385 H   0  0  0  0  0  0  0  0  0  0  0  0
    3.2014    3.3760    1.9923 H   0  0  0  0  0  0  0  0  0  0  0  0
    3.6875    0.9803    1.6320 H   0  0  0  0  0  0  0  0  0  0  0  0
  1  2  1  0
  2  3  1  0
  3  4  1  0
  4  5  1  0
  5  6  1  0
  6  7  1  0
  7  8  1  0
  6  9  1  0
  9 10  1  0
  2 11  2  0
 11 12  1  0
 12 13  2  0
 13 14  1  0
 14 15  2  0
 15 16  1  0
 16 17  1  0
 13 18  1  0
 18 19  2  3
 19 20  1  0
 20 21  2  0
 21 22  1  0
 22 23  2  0
 23 24  1  0
 23 25  1  0
 25 26  2  0
 18  1  1  0
 26 20  1  0
 16 12  1  0
  1 27  1  0
  3 28  1  0
  4 29  1  0
  4 30  1  0
  5 31  1  0
  5 32  1  0
  6 33  1  0
  7 34  1  0
  7 35  1  0
  8 36  1  0
  8 37  1  0
  8 38  1  0
  9 39  1  0
  9 40  1  0
 10 41  1  0
 10 42  1  0
 10 43  1  0
 14 44  1  0
 17 45  1  0
 17 46  1  0
 17 47  1  0
 21 48  1  0
 22 49  1  0
 25 50  1  0
 26 51  1  0
M  CHG  1   6   1
M  END
>  <ScrubInfo>  (3) 
{"isomerGroup": 0, "isomerId": 2, "confId": 0, "nr_conformers:": 1, "nr_isomers:": 9}

$$$$
_i3
     RDKit          3D

 51 53  0  0  0  0  0  0  0  0999 V2000
    0.3713   -1.9950   -1.7356 N   0  0  0  0  0  0  0  0  0  0  0  0
    0.0612   -1.0181   -0.8108 C   0  0  0  0  0  0  0  0  0  0  0  0
   -1.0784   -0.4507   -0.6332 N   0  0  0  0  0  0  0  0  0  0  0  0
   -2.2298   -0.8117   -1.4570 C   0  0  0  0  0  0  0  0  0  0  0  0
   -3.4374   -0.0517   -0.8707 C   0  0  0  0  0  0  0  0  0  0  0  0
   -2.9335    1.2686   -0.2937 N   0  0  0  0  0  4  0  0  0  0  0  0
   -3.5821    1.6886    0.9970 C   0  0  0  0  0  0  0  0  0  0  0  0
   -3.0370    0.8775    2.1603 C   0  0  0  0  0  0  0  0  0  0  0  0
   -2.7677    2.3741   -1.3027 C   0  0  0  0  0  0  0  0  0  0  0  0
   -4.0977    2.9624   -1.7384 C   0  0  0  0  0  0  0  0  0  0  0  0
    1.0066   -0.5148    0.0600 N   0  0  0  0  0  0  0  0  0  0  0  0
    2.2330   -0.9548    0.0393 C   0  0  0  0  0  0  0  0  0  0  0  0
    3.2844   -0.5496    0.8240 N   0  0  0  0  0  0  0  0  0  0  0  0
    3.2735    0.3160    1.9352 C   0  0  0  0  0  0  0  0  0  0  0  0
    2.1076    0.7432    2.5812 C   0  0  0  0  0  0  0  0  0  0  0  0
    2.1597    1.6292    3.6647 C   0  0  0  0  0  0  0  0  0  0  0  0
    3.3872    2.1098    4.1104 C   0  0  0  0  0  0  0  0  0  0  0  0
    3.4642    3.4266    5.7131 I   0  0  0  0  0  0  0  0  0  0  0  0
    4.5610    1.7088    3.4813 C   0  0  0  0  0  0  0  0  0  0  0  0
    4.5002    0.8208    2.4013 C   0  0  0  0  0  0  0  0  0  0  0  0
    2.5996   -1.9831   -0.9164 C   0  0  0  0  0  0  0  0  0  0  0  0
    3.7467   -2.7156   -1.2641 C   0  0  0  0  0  0  0  0  0  0  0  0
    3.5165   -3.5775   -2.2639 N   0  0  0  0  0  0  0  0  0  0  0  0
    2.2071   -3.4045   -2.5553 N   0  0  0  0  0  0  0  0  0  0  0  0
    1.6162   -4.1997   -3.6022 C   0  0  0  0  0  0  0  0  0  0  0  0
    1.6346   -2.4562   -1.7659 C   0  0  0  0  0  0  0  0  0  0  0  0
   -0.3541   -2.3387   -2.3466 H   0  0  0  0  0  0  0  0  0  0  0  0
   -2.4313   -1.8881   -1.4444 H   0  0  0  0  0  0  0  0  0  0  0  0
   -2.0649   -0.4927   -2.4922 H   0  0  0  0  0  0  0  0  0  0  0  0
   -4.2204    0.1394   -1.6084 H   0  0  0  0  0  0  0  0  0  0  0  0
   -3.8640   -0.6290   -0.0451 H   0  0  0  0  0  0  0  0  0  0  0  0
   -1.9521    1.0064   -0.0484 H   0  0  0  0  0  0  0  0  0  0  0  0
   -3.3495    2.7466    1.1578 H   0  0  0  0  0  0  0  0  0  0  0  0
   -4.6645    1.5706    0.8843 H   0  0  0  0  0  0  0  0  0  0  0  0
   -3.4885    1.2203    3.0968 H   0  0  0  0  0  0  0  0  0  0  0  0
   -1.9518    0.9952    2.2493 H   0  0  0  0  0  0  0  0  0  0  0  0
   -3.2567   -0.1889    2.0578 H   0  0  0  0  0  0  0  0  0  0  0  0
   -2.1386    3.1390   -0.8347 H   0  0  0  0  0  0  0  0  0  0  0  0
   -2.2214    1.9630   -2.1577 H   0  0  0  0  0  0  0  0  0  0  0  0
   -4.6447    3.3985   -0.8971 H   0  0  0  0  0  0  0  0  0  0  0  0
   -4.7398    2.2167   -2.2151 H   0  0  0  0  0  0  0  0  0  0  0  0
   -3.9258    3.7616   -2.4670 H   0  0  0  0  0  0  0  0  0  0  0  0
    4.2036   -0.9162    0.6166 H   0  0  0  0  0  0  0  0  0  0  0  0
    1.1323    0.3797    2.2736 H   0  0  0  0  0  0  0  0  0  0  0  0
    1.2345    1.9285    4.1499 H   0  0  0  0  0  0  0  0  0  0  0  0
    5.5288    2.0764    3.8143 H   0  0  0  0  0  0  0  0  0  0  0  0
    5.4343    0.5326    1.9235 H   0  0  0  0  0  0  0  0  0  0  0  0
    4.7442   -2.6744   -0.8462 H   0  0  0  0  0  0  0  0  0  0  0  0
    2.1543   -3.9998   -4.5323 H   0  0  0  0  0  0  0  0  0  0  0  0
    0.5632   -3.9361   -3.7201 H   0  0  0  0  0  0  0  0  0  0  0  0
    1.7059   -5.2535   -3.3264 H   0  0  0  0  0  0  0  0  0  0  0  0
  1  2  1  0
  2  3  2  3
  3  4  1  0
  4  5  1  0
  5  6  1  0
  6  7  1  0
  7  8  1  0
  6  9  1  0
  9 10  1  0
  2 11  1  0
 11 12  2  0
 12 13  1  0
 13 14  1  0
 14 15  2  0
 15 16  1  0
 16 17  2  0
 17 18  1  0
 17 19  1  0
 19 20  2  0
 12 21  1  0
 21 22  1  0
 22 23  2  0
 23 24  1  0
 24 25  1  0
 24 26  1  0
 26  1  1  0
 20 14  1  0
 26 21  2  0
  1 27  1  0
  4 28  1  0
  4 29  1  0
  5 30  1  0
  5 31  1  0
  6 32  1  0
  7 33  1  0
  7 34  1  0
  8 35  1  0
  8 36  1  0
  8 37  1  0
  9 38  1  0
  9 39  1  0
 10 40  1  0
 10 41  1  0
 10 42  1  0
 13 43  1  0
 15 44  1  0
 16 45  1  0
 19 46  1  0
 20 47  1  0
 22 48  1  0
 25 49  1  0
 25 50  1  0
 25 51  1  0
M  CHG  1   6   1
M  END
>  <ScrubInfo>  (4) 
{"isomerGroup": 0, "isomerId": 3, "confId": 0, "nr_conformers:": 1, "nr_isomers:": 9}

$$$$
_i4
     RDKit          3D

 51 53  0  0  0  0  0  0  0  0999 V2000
    0.3097   -1.8709    2.1348 N   0  0  0  0  0  0  0  0  0  0  0  0
   -0.3602   -0.7009    1.8773 C   0  0  0  0  0  0  0  0  0  0  0  0
   -1.4668   -0.5170    2.6636 N   0  0  0  0  0  0  0  0  0  0  0  0
   -2.0852    0.8064    2.7934 C   0  0  0  0  0  0  0  0  0  0  0  0
   -3.3433    1.0023    1.9167 C   0  0  0  0  0  0  0  0  0  0  0  0
   -3.1245    1.3181    0.4427 N   0  0  0  0  0  4  0  0  0  0  0  0
   -2.7552    0.1029   -0.3923 C   0  0  0  0  0  0  0  0  0  0  0  0
   -3.8781   -0.1944   -1.3728 C   0  0  0  0  0  0  0  0  0  0  0  0
   -2.2303    2.5215    0.2045 C   0  0  0  0  0  0  0  0  0  0  0  0
   -2.4655    3.0972   -1.1812 C   0  0  0  0  0  0  0  0  0  0  0  0
   -0.0269    0.1614    0.9631 N   0  0  0  0  0  0  0  0  0  0  0  0
    1.0831   -0.0569    0.1577 C   0  0  0  0  0  0  0  0  0  0  0  0
    1.2679    0.8369   -0.7599 N   0  0  0  0  0  0  0  0  0  0  0  0
    2.3319    0.7645   -1.6590 C   0  0  0  0  0  0  0  0  0  0  0  0
    2.1804    0.1064   -2.8832 C   0  0  0  0  0  0  0  0  0  0  0  0
    3.2359    0.0614   -3.7981 C   0  0  0  0  0  0  0  0  0  0  0  0
    4.4416    0.6929   -3.4934 C   0  0  0  0  0  0  0  0  0  0  0  0
    6.0128    0.6279   -4.8503 I   0  0  0  0  0  0  0  0  0  0  0  0
    4.5955    1.3735   -2.2860 C   0  0  0  0  0  0  0  0  0  0  0  0
    3.5365    1.4146   -1.3752 C   0  0  0  0  0  0  0  0  0  0  0  0
    1.8518   -1.2549    0.4257 C   0  0  0  0  0  0  0  0  0  0  0  0
    3.0118   -1.8779   -0.0653 C   0  0  0  0  0  0  0  0  0  0  0  0
    3.2746   -3.0384    0.5532 N   0  0  0  0  0  0  0  0  0  0  0  0
    2.2820   -3.1606    1.4601 N   0  0  0  0  0  0  0  0  0  0  0  0
    2.2673   -4.3144    2.3240 C   0  0  0  0  0  0  0  0  0  0  0  0
    1.4162   -2.1132    1.4062 C   0  0  0  0  0  0  0  0  0  0  0  0
   -0.0615   -2.5283    2.8077 H   0  0  0  0  0  0  0  0  0  0  0  0
   -1.3978   -0.9901    3.5605 H   0  0  0  0  0  0  0  0  0  0  0  0
   -2.4125    0.8949    3.8372 H   0  0  0  0  0  0  0  0  0  0  0  0
   -1.3565    1.6113    2.6489 H   0  0  0  0  0  0  0  0  0  0  0  0
   -4.0000    0.1256    1.9584 H   0  0  0  0  0  0  0  0  0  0  0  0
   -3.9118    1.8557    2.3053 H   0  0  0  0  0  0  0  0  0  0  0  0
   -4.0509    1.6141    0.1147 H   0  0  0  0  0  0  0  0  0  0  0  0
   -2.6190   -0.7553    0.2689 H   0  0  0  0  0  0  0  0  0  0  0  0
   -1.8249    0.3063   -0.9285 H   0  0  0  0  0  0  0  0  0  0  0  0
   -3.6259   -1.0711   -1.9775 H   0  0  0  0  0  0  0  0  0  0  0  0
   -4.8147   -0.4055   -0.8464 H   0  0  0  0  0  0  0  0  0  0  0  0
   -4.0490    0.6460   -2.0528 H   0  0  0  0  0  0  0  0  0  0  0  0
   -2.4984    3.2699    0.9579 H   0  0  0  0  0  0  0  0  0  0  0  0
   -1.1898    2.2313    0.3450 H   0  0  0  0  0  0  0  0  0  0  0  0
   -2.1629    2.4002   -1.9681 H   0  0  0  0  0  0  0  0  0  0  0  0
   -3.5197    3.3510   -1.3322 H   0  0  0  0  0  0  0  0  0  0  0  0
   -1.8782    4.0123   -1.3084 H   0  0  0  0  0  0  0  0  0  0  0  0
    1.2382   -0.3753   -3.1284 H   0  0  0  0  0  0  0  0  0  0  0  0
    3.1023   -0.4626   -4.7414 H   0  0  0  0  0  0  0  0  0  0  0  0
    5.5269    1.8793   -2.0430 H   0  0  0  0  0  0  0  0  0  0  0  0
    3.6529    1.9574   -0.4407 H   0  0  0  0  0  0  0  0  0  0  0  0
    3.6892   -1.5591   -0.8465 H   0  0  0  0  0  0  0  0  0  0  0  0
    2.1232   -5.2039    1.7057 H   0  0  0  0  0  0  0  0  0  0  0  0
    1.4537   -4.2278    3.0469 H   0  0  0  0  0  0  0  0  0  0  0  0
    3.2239   -4.3646    2.8505 H   0  0  0  0  0  0  0  0  0  0  0  0
  1  2  1  0
  2  3  1  0
  3  4  1  0
  4  5  1  0
  5  6  1  0
  6  7  1  0
  7  8  1  0
  6  9  1  0
  9 10  1  0
  2 11  2  0
 11 12  1  0
 12 13  2  3
 13 14  1  0
 14 15  2  0
 15 16  1  0
 16 17  2  0
 17 18  1  0
 17 19  1  0
 19 20  2  0
 12 21  1  0
 21 22  1  0
 22 23  2  0
 23 24  1  0
 24 25  1  0
 24 26  1  0
 26  1  1  0
 20 14  1  0
 26 21  2  0
  1 27  1  0
  3 28  1  0
  4 29  1  0
  4 30  1  0
  5 31  1  0
  5 32  1  0
  6 33  1  0
  7 34  1  0
  7 35  1  0
  8 36  1  0
  8 37  1  0
  8 38  1  0
  9 39  1  0
  9 40  1  0
 10 41  1  0
 10 42  1  0
 10 43  1  0
 15 44  1  0
 16 45  1  0
 19 46  1  0
 20 47  1  0
 22 48  1  0
 25 49  1  0
 25 50  1  0
 25 51  1  0
M  CHG  1   6   1
M  END
>  <ScrubInfo>  (5) 
{"isomerGroup": 0, "isomerId": 4, "confId": 0, "nr_conformers:": 1, "nr_isomers:": 9}

$$$$
_i5
     RDKit          3D

 51 53  0  0  0  0  0  0  0  0999 V2000
    2.8488   -1.5062    2.0454 N   0  0  0  0  0  0  0  0  0  0  0  0
    3.4731   -0.7280    1.0784 C   0  0  0  0  0  0  0  0  0  0  0  0
    2.6125   -0.1065    0.2574 C   0  0  0  0  0  0  0  0  0  0  0  0
    2.6445    0.7693   -0.9065 C   0  0  0  0  0  0  0  0  0  0  0  0
    3.6294    1.3398   -1.5126 N   0  0  0  0  0  0  0  0  0  0  0  0
    4.9407    1.1642   -1.0681 C   0  0  0  0  0  0  0  0  0  0  0  0
    5.4783    2.0086   -0.0923 C   0  0  0  0  0  0  0  0  0  0  0  0
    6.7962    1.8415    0.3409 C   0  0  0  0  0  0  0  0  0  0  0  0
    7.5842    0.8357   -0.2184 C   0  0  0  0  0  0  0  0  0  0  0  0
    9.5431    0.5809    0.4245 I   0  0  0  0  0  0  0  0  0  0  0  0
    7.0673    0.0049   -1.2123 C   0  0  0  0  0  0  0  0  0  0  0  0
    5.7483    0.1771   -1.6400 C   0  0  0  0  0  0  0  0  0  0  0  0
    1.4062    1.0271   -1.4337 N   0  0  0  0  0  0  0  0  0  0  0  0
    0.3080    0.5364   -0.9519 C   0  0  0  0  0  0  0  0  0  0  0  0
   -0.8375    0.9197   -1.5922 N   0  0  0  0  0  0  0  0  0  0  0  0
   -2.1001    1.0666   -0.9006 C   0  0  0  0  0  0  0  0  0  0  0  0
   -2.7473   -0.3028   -0.6106 C   0  0  0  0  0  0  0  0  0  0  0  0
   -4.2178   -0.2048   -0.1953 N   0  0  0  0  0  4  0  0  0  0  0  0
   -4.3995    0.5926    1.0814 C   0  0  0  0  0  0  0  0  0  0  0  0
   -5.7468    0.3045    1.7155 C   0  0  0  0  0  0  0  0  0  0  0  0
   -5.1259    0.2105   -1.3413 C   0  0  0  0  0  0  0  0  0  0  0  0
   -6.2153   -0.8279   -1.5397 C   0  0  0  0  0  0  0  0  0  0  0  0
    0.2040   -0.3019    0.1248 N   0  0  0  0  0  0  0  0  0  0  0  0
    1.3039   -0.6112    0.7251 C   0  0  0  0  0  0  0  0  0  0  0  0
    1.4846   -1.4382    1.8305 N   0  0  0  0  0  0  0  0  0  0  0  0
    0.6352   -2.5687    2.1302 C   0  0  0  0  0  0  0  0  0  0  0  0
    3.2838   -2.4222    2.1808 H   0  0  0  0  0  0  0  0  0  0  0  0
    4.5534   -0.7122    1.0537 H   0  0  0  0  0  0  0  0  0  0  0  0
    4.8690    2.8051    0.3267 H   0  0  0  0  0  0  0  0  0  0  0  0
    7.1941    2.5078    1.1023 H   0  0  0  0  0  0  0  0  0  0  0  0
    7.6784   -0.7684   -1.6708 H   0  0  0  0  0  0  0  0  0  0  0  0
    5.3491   -0.4536   -2.4301 H   0  0  0  0  0  0  0  0  0  0  0  0
   -0.6095    1.6716   -2.2413 H   0  0  0  0  0  0  0  0  0  0  0  0
   -2.7614    1.6637   -1.5371 H   0  0  0  0  0  0  0  0  0  0  0  0
   -1.9591    1.6339    0.0266 H   0  0  0  0  0  0  0  0  0  0  0  0
   -2.7183   -0.9558   -1.4909 H   0  0  0  0  0  0  0  0  0  0  0  0
   -2.2441   -0.8288    0.2063 H   0  0  0  0  0  0  0  0  0  0  0  0
   -4.4618   -1.1756    0.0434 H   0  0  0  0  0  0  0  0  0  0  0  0
   -3.6001    0.2895    1.7659 H   0  0  0  0  0  0  0  0  0  0  0  0
   -4.2862    1.6539    0.8386 H   0  0  0  0  0  0  0  0  0  0  0  0
   -5.8157    0.8052    2.6866 H   0  0  0  0  0  0  0  0  0  0  0  0
   -5.8895   -0.7685    1.8792 H   0  0  0  0  0  0  0  0  0  0  0  0
   -6.5705    0.6748    1.0983 H   0  0  0  0  0  0  0  0  0  0  0  0
   -5.5391    1.1986   -1.1161 H   0  0  0  0  0  0  0  0  0  0  0  0
   -4.5234    0.2847   -2.2523 H   0  0  0  0  0  0  0  0  0  0  0  0
   -6.8678   -0.5326   -2.3675 H   0  0  0  0  0  0  0  0  0  0  0  0
   -6.8370   -0.9429   -0.6476 H   0  0  0  0  0  0  0  0  0  0  0  0
   -5.7856   -1.8053   -1.7835 H   0  0  0  0  0  0  0  0  0  0  0  0
    0.7770   -3.3648    1.3922 H   0  0  0  0  0  0  0  0  0  0  0  0
    0.8651   -2.9692    3.1228 H   0  0  0  0  0  0  0  0  0  0  0  0
   -0.4186   -2.2721    2.1251 H   0  0  0  0  0  0  0  0  0  0  0  0
  1  2  1  0
  2  3  2  0
  3  4  1  0
  4  5  2  3
  5  6  1  0
  6  7  2  0
  7  8  1  0
  8  9  2  0
  9 10  1  0
  9 11  1  0
 11 12  2  0
  4 13  1  0
 13 14  2  0
 14 15  1  0
 15 16  1  0
 16 17  1  0
 17 18  1  0
 18 19  1  0
 19 20  1  0
 18 21  1  0
 21 22  1  0
 14 23  1  0
 23 24  2  0
 24 25  1  0
 25 26  1  0
 25  1  1  0
 24  3  1  0
 12  6  1  0
  1 27  1  0
  2 28  1  0
  7 29  1  0
  8 30  1  0
 11 31  1  0
 12 32  1  0
 15 33  1  0
 16 34  1  0
 16 35  1  0
 17 36  1  0
 17 37  1  0
 18 38  1  0
 19 39  1  0
 19 40  1  0
 20 41  1  0
 20 42  1  0
 20 43  1  0
 21 44  1  0
 21 45  1  0
 22 46  1  0
 22 47  1  0
 22 48  1  0
 26 49  1  0
 26 50  1  0
 26 51  1  0
M  CHG  1  18   1
M  END
>  <ScrubInfo>  (6) 
{"isomerGroup": 0, "isomerId": 5, "confId": 0, "nr_conformers:": 1, "nr_isomers:": 9}

$$$$
_i6
     RDKit          3D

 51 53  0  0  0  0  0  0  0  0999 V2000
    2.7446   -4.6353   -0.6279 N   0  0  0  0  0  0  0  0  0  0  0  0
    3.2561   -3.4394   -0.1390 C   0  0  0  0  0  0  0  0  0  0  0  0
    2.3828   -2.4265   -0.2271 C   0  0  0  0  0  0  0  0  0  0  0  0
    2.3126   -1.0055    0.1314 C   0  0  0  0  0  0  0  0  0  0  0  0
    3.3998   -0.4029    0.7350 N   0  0  0  0  0  0  0  0  0  0  0  0
    3.6288    0.9577    1.0183 C   0  0  0  0  0  0  0  0  0  0  0  0
    2.8694    2.0068    0.4883 C   0  0  0  0  0  0  0  0  0  0  0  0
    3.1262    3.3391    0.8363 C   0  0  0  0  0  0  0  0  0  0  0  0
    4.1458    3.6380    1.7348 C   0  0  0  0  0  0  0  0  0  0  0  0
    4.5232    5.6117    2.2551 I   0  0  0  0  0  0  0  0  0  0  0  0
    4.9098    2.6144    2.2850 C   0  0  0  0  0  0  0  0  0  0  0  0
    4.6484    1.2864    1.9292 C   0  0  0  0  0  0  0  0  0  0  0  0
    1.1905   -0.3913   -0.1244 N   0  0  0  0  0  0  0  0  0  0  0  0
    0.1540   -1.0734   -0.7051 C   0  0  0  0  0  0  0  0  0  0  0  0
   -0.8977   -0.3441   -0.8609 N   0  0  0  0  0  0  0  0  0  0  0  0
   -2.0757   -0.9768   -1.4731 C   0  0  0  0  0  0  0  0  0  0  0  0
   -3.1195    0.1354   -1.6695 C   0  0  0  0  0  0  0  0  0  0  0  0
   -2.9735    1.1365   -0.5221 N   0  0  0  0  0  4  0  0  0  0  0  0
   -3.6384    0.7016    0.7581 C   0  0  0  0  0  0  0  0  0  0  0  0
   -5.1433    0.8955    0.7287 C   0  0  0  0  0  0  0  0  0  0  0  0
   -3.1714    2.5627   -0.9542 C   0  0  0  0  0  0  0  0  0  0  0  0
   -2.6948    3.5349    0.1091 C   0  0  0  0  0  0  0  0  0  0  0  0
    0.1307   -2.3834   -1.1063 N   0  0  0  0  0  0  0  0  0  0  0  0
    1.2165   -3.0468   -0.8984 C   0  0  0  0  0  0  0  0  0  0  0  0
    1.5141   -4.3707   -1.2151 N   0  0  0  0  0  0  0  0  0  0  0  0
    0.4966   -5.4045   -1.2161 C   0  0  0  0  0  0  0  0  0  0  0  0
    3.4098   -5.1796   -1.1849 H   0  0  0  0  0  0  0  0  0  0  0  0
    4.2630   -3.4294    0.2527 H   0  0  0  0  0  0  0  0  0  0  0  0
    4.1787   -0.9979    0.9899 H   0  0  0  0  0  0  0  0  0  0  0  0
    2.0759    1.8171   -0.2276 H   0  0  0  0  0  0  0  0  0  0  0  0
    2.5237    4.1278    0.3935 H   0  0  0  0  0  0  0  0  0  0  0  0
    5.7078    2.8292    2.9917 H   0  0  0  0  0  0  0  0  0  0  0  0
    5.2546    0.5064    2.3849 H   0  0  0  0  0  0  0  0  0  0  0  0
   -1.8497   -1.4327   -2.4437 H   0  0  0  0  0  0  0  0  0  0  0  0
   -2.4830   -1.7434   -0.8038 H   0  0  0  0  0  0  0  0  0  0  0  0
   -2.8990    0.6736   -2.5976 H   0  0  0  0  0  0  0  0  0  0  0  0
   -4.1463   -0.2368   -1.7070 H   0  0  0  0  0  0  0  0  0  0  0  0
   -1.9517    1.0396   -0.3323 H   0  0  0  0  0  0  0  0  0  0  0  0
   -3.3885   -0.3519    0.9190 H   0  0  0  0  0  0  0  0  0  0  0  0
   -3.1841    1.2732    1.5734 H   0  0  0  0  0  0  0  0  0  0  0  0
   -5.5817    0.5131    1.6565 H   0  0  0  0  0  0  0  0  0  0  0  0
   -5.4149    1.9525    0.6538 H   0  0  0  0  0  0  0  0  0  0  0  0
   -5.6108    0.3600   -0.1021 H   0  0  0  0  0  0  0  0  0  0  0  0
   -2.5750    2.7096   -1.8613 H   0  0  0  0  0  0  0  0  0  0  0  0
   -4.2278    2.7038   -1.2011 H   0  0  0  0  0  0  0  0  0  0  0  0
   -3.3268    3.5032    1.0014 H   0  0  0  0  0  0  0  0  0  0  0  0
   -2.7313    4.5579   -0.2793 H   0  0  0  0  0  0  0  0  0  0  0  0
   -1.6625    3.3242    0.4069 H   0  0  0  0  0  0  0  0  0  0  0  0
    0.9093   -6.3456   -1.5937 H   0  0  0  0  0  0  0  0  0  0  0  0
    0.1132   -5.5728   -0.2044 H   0  0  0  0  0  0  0  0  0  0  0  0
   -0.3386   -5.1212   -1.8646 H   0  0  0  0  0  0  0  0  0  0  0  0
  1  2  1  0
  2  3  2  0
  3  4  1  0
  4  5  1  0
  5  6  1  0
  6  7  2  0
  7  8  1  0
  8  9  2  0
  9 10  1  0
  9 11  1  0
 11 12  2  0
  4 13  2  0
 13 14  1  0
 14 15  2  3
 15 16  1  0
 16 17  1  0
 17 18  1  0
 18 19  1  0
 19 20  1  0
 18 21  1  0
 21 22  1  0
 14 23  1  0
 23 24  2  0
 24 25  1  0
 25 26  1  0
 25  1  1  0
 24  3  1  0
 12  6  1  0
  1 27  1  0
  2 28  1  0
  5 29  1  0
  7 30  1  0
  8 31  1  0
 11 32  1  0
 12 33  1  0
 16 34  1  0
 16 35  1  0
 17 36  1  0
 17 37  1  0
 18 38  1  0
 19 39  1  0
 19 40  1  0
 20 41  1  0
 20 42  1  0
 20 43  1  0
 21 44  1  0
 21 45  1  0
 22 46  1  0
 22 47  1  0
 22 48  1  0
 26 49  1  0
 26 50  1  0
 26 51  1  0
M  CHG  1  18   1
M  END
>  <ScrubInfo>  (7) 
{"isomerGroup": 0, "isomerId": 6, "confId": 0, "nr_conformers:": 1, "nr_isomers:": 9}

$$$$
_i7
     RDKit          3D

 51 53  0  0  0  0  0  0  0  0999 V2000
    3.4881   -4.5513    1.9958 N   0  0  0  0  0  0  0  0  0  0  0  0
    3.8768   -3.2265    1.8396 C   0  0  0  0  0  0  0  0  0  0  0  0
    2.8794   -2.4423    1.4146 C   0  0  0  0  0  0  0  0  0  0  0  0
    2.6771   -1.0423    1.0430 C   0  0  0  0  0  0  0  0  0  0  0  0
    3.6592   -0.1966    1.1411 N   0  0  0  0  0  0  0  0  0  0  0  0
    3.4429    1.1362    0.7742 C   0  0  0  0  0  0  0  0  0  0  0  0
    2.9872    2.0625    1.7158 C   0  0  0  0  0  0  0  0  0  0  0  0
    2.7385    3.3860    1.3434 C   0  0  0  0  0  0  0  0  0  0  0  0
    2.9583    3.7846    0.0248 C   0  0  0  0  0  0  0  0  0  0  0  0
    2.5701    5.7454   -0.5393 I   0  0  0  0  0  0  0  0  0  0  0  0
    3.4378    2.8744   -0.9172 C   0  0  0  0  0  0  0  0  0  0  0  0
    3.6839    1.5526   -0.5377 C   0  0  0  0  0  0  0  0  0  0  0  0
    1.3961   -0.7910    0.6065 N   0  0  0  0  0  0  0  0  0  0  0  0
    0.3748   -1.7050    0.5115 C   0  0  0  0  0  0  0  0  0  0  0  0
   -0.8146   -1.4738    0.0795 N   0  0  0  0  0  0  0  0  0  0  0  0
   -1.2065   -0.1515   -0.3708 C   0  0  0  0  0  0  0  0  0  0  0  0
   -2.6821   -0.2334   -0.8009 C   0  0  0  0  0  0  0  0  0  0  0  0
   -3.2202    1.1279   -1.2347 N   0  0  0  0  0  4  0  0  0  0  0  0
   -2.7970    1.4702   -2.6531 C   0  0  0  0  0  0  0  0  0  0  0  0
   -2.7432    2.9771   -2.8333 C   0  0  0  0  0  0  0  0  0  0  0  0
   -4.7310    1.2023   -1.0632 C   0  0  0  0  0  0  0  0  0  0  0  0
   -5.0803    1.5201    0.3802 C   0  0  0  0  0  0  0  0  0  0  0  0
    0.5462   -3.0160    0.8976 N   0  0  0  0  0  0  0  0  0  0  0  0
    1.7116   -3.3744    1.3399 C   0  0  0  0  0  0  0  0  0  0  0  0
    2.1112   -4.6286    1.8051 N   0  0  0  0  0  0  0  0  0  0  0  0
    1.5415   -5.8506    1.2705 C   0  0  0  0  0  0  0  0  0  0  0  0
    3.8579   -4.9919    2.8422 H   0  0  0  0  0  0  0  0  0  0  0  0
    4.8959   -2.9378    2.0568 H   0  0  0  0  0  0  0  0  0  0  0  0
    2.8378    1.7526    2.7476 H   0  0  0  0  0  0  0  0  0  0  0  0
    2.3933    4.0931    2.0940 H   0  0  0  0  0  0  0  0  0  0  0  0
    3.6417    3.1800   -1.9406 H   0  0  0  0  0  0  0  0  0  0  0  0
    4.0783    0.8447   -1.2631 H   0  0  0  0  0  0  0  0  0  0  0  0
    1.2092    0.1547    0.3254 H   0  0  0  0  0  0  0  0  0  0  0  0
   -0.5800    0.1678   -1.2098 H   0  0  0  0  0  0  0  0  0  0  0  0
   -1.1048    0.5787    0.4406 H   0  0  0  0  0  0  0  0  0  0  0  0
   -2.8319   -0.9313   -1.6331 H   0  0  0  0  0  0  0  0  0  0  0  0
   -3.2851   -0.5791    0.0449 H   0  0  0  0  0  0  0  0  0  0  0  0
   -2.8116    1.8315   -0.6065 H   0  0  0  0  0  0  0  0  0  0  0  0
   -1.8011    1.0518   -2.8229 H   0  0  0  0  0  0  0  0  0  0  0  0
   -3.5023    0.9926   -3.3414 H   0  0  0  0  0  0  0  0  0  0  0  0
   -2.4021    3.2193   -3.8449 H   0  0  0  0  0  0  0  0  0  0  0  0
   -2.0429    3.4328   -2.1254 H   0  0  0  0  0  0  0  0  0  0  0  0
   -3.7218    3.4443   -2.6928 H   0  0  0  0  0  0  0  0  0  0  0  0
   -5.1567    0.2497   -1.3959 H   0  0  0  0  0  0  0  0  0  0  0  0
   -5.1076    2.0007   -1.7091 H   0  0  0  0  0  0  0  0  0  0  0  0
   -6.1658    1.6113    0.4890 H   0  0  0  0  0  0  0  0  0  0  0  0
   -4.6314    2.4684    0.6937 H   0  0  0  0  0  0  0  0  0  0  0  0
   -4.7432    0.7399    1.0681 H   0  0  0  0  0  0  0  0  0  0  0  0
    1.8116   -5.9766    0.2169 H   0  0  0  0  0  0  0  0  0  0  0  0
    1.9070   -6.7180    1.8297 H   0  0  0  0  0  0  0  0  0  0  0  0
    0.4501   -5.8354    1.3534 H   0  0  0  0  0  0  0  0  0  0  0  0
  1  2  1  0
  2  3  2  0
  3  4  1  0
  4  5  2  3
  5  6  1  0
  6  7  2  0
  7  8  1  0
  8  9  2  0
  9 10  1  0
  9 11  1  0
 11 12  2  0
  4 13  1  0
 13 14  1  0
 14 15  2  3
 15 16  1  0
 16 17  1  0
 17 18  1  0
 18 19  1  0
 19 20  1  0
 18 21  1  0
 21 22  1  0
 14 23  1  0
 23 24  2  0
 24 25  1  0
 25 26  1  0
 25  1  1  0
 24  3  1  0
 12  6  1  0
  1 27  1  0
  2 28  1  0
  7 29  1  0
  8 30  1  0
 11 31  1  0
 12 32  1  0
 13 33  1  0
 16 34  1  0
 16 35  1  0
 17 36  1  0
 17 37  1  0
 18 38  1  0
 19 39  1  0
 19 40  1  0
 20 41  1  0
 20 42  1  0
 20 43  1  0
 21 44  1  0
 21 45  1  0
 22 46  1  0
 22 47  1  0
 22 48  1  0
 26 49  1  0
 26 50  1  0
 26 51  1  0
M  CHG  1  18   1
M  END
>  <ScrubInfo>  (8) 
{"isomerGroup": 0, "isomerId": 7, "confId": 0, "nr_conformers:": 1, "nr_isomers:": 9}

$$$$
_i8
     RDKit          3D

 51 53  0  0  0  0  0  0  0  0999 V2000
    0.4050   -1.1329   -1.3260 N   0  0  0  0  0  0  0  0  0  0  0  0
   -0.2307   -0.5039   -0.2676 C   0  0  0  0  0  0  0  0  0  0  0  0
   -1.4961   -0.4931    0.0121 N   0  0  0  0  0  0  0  0  0  0  0  0
   -2.4000   -1.2480   -0.8706 C   0  0  0  0  0  0  0  0  0  0  0  0
   -3.8031   -1.2162   -0.2364 C   0  0  0  0  0  0  0  0  0  0  0  0
   -4.0139    0.1497    0.4055 N   0  0  0  0  0  4  0  0  0  0  0  0
   -4.8362    0.1276    1.6688 C   0  0  0  0  0  0  0  0  0  0  0  0
   -4.0070   -0.3727    2.8389 C   0  0  0  0  0  0  0  0  0  0  0  0
   -4.3935    1.2461   -0.5595 C   0  0  0  0  0  0  0  0  0  0  0  0
   -5.8231    1.1170   -1.0541 C   0  0  0  0  0  0  0  0  0  0  0  0
    0.6327    0.1861    0.5548 N   0  0  0  0  0  0  0  0  0  0  0  0
    2.0003    0.3611    0.5138 C   0  0  0  0  0  0  0  0  0  0  0  0
    2.5991    1.0677    1.4234 N   0  0  0  0  0  0  0  0  0  0  0  0
    3.9805    1.2666    1.4218 C   0  0  0  0  0  0  0  0  0  0  0  0
    4.5307    2.3841    0.7875 C   0  0  0  0  0  0  0  0  0  0  0  0
    5.9106    2.6041    0.8112 C   0  0  0  0  0  0  0  0  0  0  0  0
    6.7407    1.7106    1.4877 C   0  0  0  0  0  0  0  0  0  0  0  0
    8.7925    2.0327    1.5244 I   0  0  0  0  0  0  0  0  0  0  0  0
    6.2002    0.6060    2.1456 C   0  0  0  0  0  0  0  0  0  0  0  0
    4.8196    0.3918    2.1181 C   0  0  0  0  0  0  0  0  0  0  0  0
    2.5761   -0.3265   -0.6255 C   0  0  0  0  0  0  0  0  0  0  0  0
    3.8549   -0.5033   -1.1838 C   0  0  0  0  0  0  0  0  0  0  0  0
    3.8347   -1.2579   -2.2910 N   0  0  0  0  0  0  0  0  0  0  0  0
    2.5356   -1.5826   -2.4440 N   0  0  0  0  0  0  0  0  0  0  0  0
    2.1530   -2.4101   -3.5610 C   0  0  0  0  0  0  0  0  0  0  0  0
    1.7496   -1.0344   -1.4742 C   0  0  0  0  0  0  0  0  0  0  0  0
   -0.1527   -1.6625   -1.9816 H   0  0  0  0  0  0  0  0  0  0  0  0
   -2.0832   -2.2905   -0.9862 H   0  0  0  0  0  0  0  0  0  0  0  0
   -2.4343   -0.7764   -1.8592 H   0  0  0  0  0  0  0  0  0  0  0  0
   -4.6009   -1.4147   -0.9558 H   0  0  0  0  0  0  0  0  0  0  0  0
   -3.8544   -1.9640    0.5605 H   0  0  0  0  0  0  0  0  0  0  0  0
   -3.0416    0.3839    0.6892 H   0  0  0  0  0  0  0  0  0  0  0  0
   -5.1604    1.1538    1.8723 H   0  0  0  0  0  0  0  0  0  0  0  0
   -5.7151   -0.4997    1.4885 H   0  0  0  0  0  0  0  0  0  0  0  0
   -4.6014   -0.3385    3.7576 H   0  0  0  0  0  0  0  0  0  0  0  0
   -3.1206    0.2523    2.9901 H   0  0  0  0  0  0  0  0  0  0  0  0
   -3.6757   -1.4053    2.6982 H   0  0  0  0  0  0  0  0  0  0  0  0
   -4.2494    2.1948   -0.0309 H   0  0  0  0  0  0  0  0  0  0  0  0
   -3.6851    1.2145   -1.3931 H   0  0  0  0  0  0  0  0  0  0  0  0
   -6.5443    1.1615   -0.2327 H   0  0  0  0  0  0  0  0  0  0  0  0
   -5.9848    0.1856   -1.6033 H   0  0  0  0  0  0  0  0  0  0  0  0
   -6.0520    1.9427   -1.7361 H   0  0  0  0  0  0  0  0  0  0  0  0
    0.2119    0.6418    1.3504 H   0  0  0  0  0  0  0  0  0  0  0  0
    3.8828    3.0887    0.2733 H   0  0  0  0  0  0  0  0  0  0  0  0
    6.3196    3.4756    0.3059 H   0  0  0  0  0  0  0  0  0  0  0  0
    6.8363   -0.0899    2.6871 H   0  0  0  0  0  0  0  0  0  0  0  0
    4.3973   -0.4604    2.6437 H   0  0  0  0  0  0  0  0  0  0  0  0
    4.8115   -0.1230   -0.8512 H   0  0  0  0  0  0  0  0  0  0  0  0
    2.0474   -1.7682   -4.4388 H   0  0  0  0  0  0  0  0  0  0  0  0
    1.2077   -2.9101   -3.3394 H   0  0  0  0  0  0  0  0  0  0  0  0
    2.9292   -3.1616   -3.7284 H   0  0  0  0  0  0  0  0  0  0  0  0
  1  2  1  0
  2  3  2  3
  3  4  1  0
  4  5  1  0
  5  6  1  0
  6  7  1  0
  7  8  1  0
  6  9  1  0
  9 10  1  0
  2 11  1  0
 11 12  1  0
 12 13  2  3
 13 14  1  0
 14 15  2  0
 15 16  1  0
 16 17  2  0
 17 18  1  0
 17 19  1  0
 19 20  2  0
 12 21  1  0
 21 22  1  0
 22 23  2  0
 23 24  1  0
 24 25  1  0
 24 26  1  0
 26  1  1  0
 20 14  1  0
 26 21  2  0
  1 27  1  0
  4 28  1  0
  4 29  1  0
  5 30  1  0
  5 31  1  0
  6 32  1  0
  7 33  1  0
  7 34  1  0
  8 35  1  0
  8 36  1  0
  8 37  1  0
  9 38  1  0
  9 39  1  0
 10 40  1  0
 10 41  1  0
 10 42  1  0
 11 43  1  0
 15 44  1  0
 16 45  1  0
 19 46  1  0
 20 47  1  0
 22 48  1  0
 25 49  1  0
 25 50  1  0
 25 51  1  0
M  CHG  1   6   1
M  END
>  <ScrubInfo>  (9) 
{"isomerGroup": 0, "isomerId": 8, "confId": 0, "nr_conformers:": 1, "nr_isomers:": 9}

$$$$
