REMARK SMILES CC[NH+](CC)CCNc1cc(-c2ccc(OC)cc2)nc2ccccc12
REMARK SMILES IDX 7 1 6 2 3 3 2 5 1 6 4 7 5 8 8 9 9 11 10 12 26 13 11 14 25 15
REMARK SMILES IDX 21 16 20 17 24 18 22 19 23 20 12 21 13 22 19 23 14 24 18 25
REMARK SMILES IDX 15 26 16 27 17 28
REMARK H PARENT 3 4 8 10
ROOT
ATOM      1  C   UNL     1      -1.816   1.868  -1.602  1.00  0.00     0.174 C 
ENDROOT
BRANCH   1   2
ATOM      2  C   UNL     1      -2.427   1.813  -0.181  1.00  0.00     0.283 C 
BRANCH   2   3
ATOM      3  N   UNL     1      -3.279   0.551  -0.042  1.00  0.00    -0.334 N 
ATOM      4  H   UNL     1      -2.744  -0.124  -0.625  1.00  0.00     0.348 HD
BRANCH   3   5
ATOM      5  C   UNL     1      -4.628   0.622  -0.718  1.00  0.00     0.258 C 
ATOM      6  C   UNL     1      -5.597   1.536   0.011  1.00  0.00     0.071 C 
ENDBRANCH   3   5
BRANCH   3   7
ATOM      7  C   UNL     1      -3.328  -0.021   1.354  1.00  0.00     0.258 C 
ATOM      8  C   UNL     1      -2.047  -0.765   1.685  1.00  0.00     0.071 C 
ENDBRANCH   3   7
ENDBRANCH   2   3
ENDBRANCH   1   2
BRANCH   1   9
ATOM      9  N   UNL     1      -1.498   0.508  -2.078  1.00  0.00    -0.379 N 
ATOM     10  H   UNL     1      -1.413   0.499  -3.103  1.00  0.00     0.160 HD
BRANCH   9  11
ATOM     11  C   UNL     1      -0.373  -0.198  -1.581  1.00  0.00     0.046 A 
ATOM     12  C   UNL     1       0.644   0.414  -0.844  1.00  0.00     0.055 A 
ATOM     13  C   UNL     1      -0.262  -1.586  -1.862  1.00  0.00     0.023 A 
ATOM     14  C   UNL     1       1.710  -0.344  -0.366  1.00  0.00     0.073 A 
ATOM     15  C   UNL     1      -1.216  -2.312  -2.617  1.00  0.00     0.012 A 
ATOM     16  C   UNL     1       0.853  -2.274  -1.343  1.00  0.00     0.073 A 
ATOM     17  N   UNL     1       1.798  -1.670  -0.611  1.00  0.00    -0.248 NA
ATOM     18  C   UNL     1      -1.066  -3.678  -2.852  1.00  0.00     0.001 A 
ATOM     19  C   UNL     1       0.981  -3.634  -1.588  1.00  0.00     0.029 A 
ATOM     20  C   UNL     1       0.037  -4.341  -2.335  1.00  0.00     0.002 A 
BRANCH  14  21
ATOM     21  C   UNL     1       2.814   0.232   0.429  1.00  0.00     0.000 A 
ATOM     22  C   UNL     1       4.120  -0.282   0.320  1.00  0.00     0.014 A 
ATOM     23  C   UNL     1       2.619   1.296   1.326  1.00  0.00     0.014 A 
ATOM     24  C   UNL     1       5.188   0.248   1.057  1.00  0.00     0.047 A 
ATOM     25  C   UNL     1       3.685   1.826   2.063  1.00  0.00     0.047 A 
ATOM     26  C   UNL     1       4.973   1.308   1.932  1.00  0.00     0.118 A 
BRANCH  26  27
ATOM     27  O   UNL     1       5.916   1.920   2.709  1.00  0.00    -0.497 OA
ATOM     28  C   UNL     1       7.245   1.416   2.623  1.00  0.00     0.278 C 
ENDBRANCH  26  27
ENDBRANCH  14  21
ENDBRANCH   9  11
ENDBRANCH   1   9
TORSDOF 8
