_i0
     RDKit          3D

 54 56  0  0  0  0  0  0  0  0999 V2000
   -4.6276    0.6224   -0.7175 C   0  0  0  0  0  0  0  0  0  0  0  0
   -3.2788    0.5509   -0.0421 N   0  0  0  0  0  4  0  0  0  0  0  0
   -3.3281   -0.0213    1.3537 C   0  0  0  0  0  0  0  0  0  0  0  0
   -2.4270    1.8128   -0.1813 C   0  0  0  0  0  0  0  0  0  0  0  0
   -5.5972    1.5357    0.0107 C   0  0  0  0  0  0  0  0  0  0  0  0
   -2.0468   -0.7646    1.6855 C   0  0  0  0  0  0  0  0  0  0  0  0
   -1.8162    1.8678   -1.6019 C   0  0  0  0  0  0  0  0  0  0  0  0
   -1.4978    0.5076   -2.0777 N   0  0  0  0  0  0  0  0  0  0  0  0
   -0.3730   -0.1976   -1.5805 C   0  0  0  0  0  0  0  0  0  0  0  0
    0.6445    0.4145   -0.8441 C   0  0  0  0  0  0  0  0  0  0  0  0
   -0.2623   -1.5858   -1.8619 C   0  0  0  0  0  0  0  0  0  0  0  0
    1.7098   -0.3444   -0.3662 C   0  0  0  0  0  0  0  0  0  0  0  0
   -1.2165   -2.3120   -2.6168 C   0  0  0  0  0  0  0  0  0  0  0  0
    0.8530   -2.2741   -1.3428 C   0  0  0  0  0  0  0  0  0  0  0  0
    2.8144    0.2318    0.4289 C   0  0  0  0  0  0  0  0  0  0  0  0
    1.7975   -1.6703   -0.6108 N   0  0  0  0  0  0  0  0  0  0  0  0
   -1.0656   -3.6779   -2.8518 C   0  0  0  0  0  0  0  0  0  0  0  0
    0.9808   -3.6344   -1.5878 C   0  0  0  0  0  0  0  0  0  0  0  0
    4.1196   -0.2821    0.3196 C   0  0  0  0  0  0  0  0  0  0  0  0
    2.6194    1.2955    1.3260 C   0  0  0  0  0  0  0  0  0  0  0  0
    0.0371   -4.3413   -2.3347 C   0  0  0  0  0  0  0  0  0  0  0  0
    5.1875    0.2480    1.0573 C   0  0  0  0  0  0  0  0  0  0  0  0
    3.6847    1.8261    2.0633 C   0  0  0  0  0  0  0  0  0  0  0  0
    4.9729    1.3082    1.9321 C   0  0  0  0  0  0  0  0  0  0  0  0
    5.9162    1.9196    2.7086 O   0  0  0  0  0  0  0  0  0  0  0  0
    7.2445    1.4164    2.6232 C   0  0  0  0  0  0  0  0  0  0  0  0
   -5.0143   -0.4018   -0.7583 H   0  0  0  0  0  0  0  0  0  0  0  0
   -4.4678    0.9607   -1.7458 H   0  0  0  0  0  0  0  0  0  0  0  0
   -2.7443   -0.1241   -0.6246 H   0  0  0  0  0  0  0  0  0  0  0  0
   -4.1684   -0.7225    1.3949 H   0  0  0  0  0  0  0  0  0  0  0  0
   -3.5139    0.8042    2.0482 H   0  0  0  0  0  0  0  0  0  0  0  0
   -3.0372    2.6898    0.0478 H   0  0  0  0  0  0  0  0  0  0  0  0
   -1.6257    1.7476    0.5597 H   0  0  0  0  0  0  0  0  0  0  0  0
   -5.2449    2.5704    0.0366 H   0  0  0  0  0  0  0  0  0  0  0  0
   -5.7749    1.2064    1.0387 H   0  0  0  0  0  0  0  0  0  0  0  0
   -6.5629    1.5327   -0.5057 H   0  0  0  0  0  0  0  0  0  0  0  0
   -1.1767   -0.1030    1.6951 H   0  0  0  0  0  0  0  0  0  0  0  0
   -1.8609   -1.5714    0.9696 H   0  0  0  0  0  0  0  0  0  0  0  0
   -2.1266   -1.2150    2.6802 H   0  0  0  0  0  0  0  0  0  0  0  0
   -2.5708    2.2793   -2.2827 H   0  0  0  0  0  0  0  0  0  0  0  0
   -0.9610    2.5493   -1.6534 H   0  0  0  0  0  0  0  0  0  0  0  0
   -1.4126    0.4986   -3.1033 H   0  0  0  0  0  0  0  0  0  0  0  0
    0.6510    1.4808   -0.6597 H   0  0  0  0  0  0  0  0  0  0  0  0
   -2.0866   -1.8151   -3.0378 H   0  0  0  0  0  0  0  0  0  0  0  0
   -1.8008   -4.2212   -3.4410 H   0  0  0  0  0  0  0  0  0  0  0  0
    1.8445   -4.1621   -1.1870 H   0  0  0  0  0  0  0  0  0  0  0  0
    4.3181   -1.1147   -0.3554 H   0  0  0  0  0  0  0  0  0  0  0  0
    1.6332    1.7205    1.4859 H   0  0  0  0  0  0  0  0  0  0  0  0
    0.1728   -5.4058   -2.5121 H   0  0  0  0  0  0  0  0  0  0  0  0
    6.1686   -0.1956    0.9221 H   0  0  0  0  0  0  0  0  0  0  0  0
    3.5094    2.6479    2.7540 H   0  0  0  0  0  0  0  0  0  0  0  0
    7.6471    1.5364    1.6120 H   0  0  0  0  0  0  0  0  0  0  0  0
    7.2920    0.3714    2.9471 H   0  0  0  0  0  0  0  0  0  0  0  0
    7.8689    2.0046    3.3025 H   0  0  0  0  0  0  0  0  0  0  0  0
  1  2  1  0
  2  3  1  0
  2  4  1  0
  5  1  1  0
  3  6  1  0
  4  7  1  0
  7  8  1  0
  8  9  1  0
  9 10  2  0
 11  9  1  0
 10 12  1  0
 13 11  2  0
 11 14  1  0
 12 15  1  0
 12 16  2  0
 17 13  1  0
 16 14  1  0
 14 18  2  0
 15 19  2  0
 20 15  1  0
 21 17  2  0
 18 21  1  0
 19 22  1  0
 23 20  2  0
 22 24  2  0
 24 23  1  0
 24 25  1  0
 25 26  1  0
  1 27  1  0
  1 28  1  0
  2 29  1  0
  3 30  1  0
  3 31  1  0
  4 32  1  0
  4 33  1  0
  5 34  1  0
  5 35  1  0
  5 36  1  0
  6 37  1  0
  6 38  1  0
  6 39  1  0
  7 40  1  0
  7 41  1  0
  8 42  1  0
 10 43  1  0
 13 44  1  0
 17 45  1  0
 18 46  1  0
 19 47  1  0
 20 48  1  0
 21 49  1  0
 22 50  1  0
 23 51  1  0
 26 52  1  0
 26 53  1  0
 26 54  1  0
M  CHG  1   2   1
M  END
>  <ScrubInfo>  (1) 
{"isomerGroup": 0, "isomerId": 0, "confId": 0, "nr_conformers:": 1, "nr_isomers:": 2}

$$$$
_i1
     RDKit          3D

 54 56  0  0  0  0  0  0  0  0999 V2000
    1.5881    1.8153   -0.7413 N   0  0  0  0  0  0  0  0  0  0  0  0
    1.6779    0.5686   -0.1703 C   0  0  0  0  0  0  0  0  0  0  0  0
    2.9454   -0.1599   -0.3556 C   0  0  0  0  0  0  0  0  0  0  0  0
    3.7478   -0.5044    0.7401 C   0  0  0  0  0  0  0  0  0  0  0  0
    4.9526   -1.1939    0.5537 C   0  0  0  0  0  0  0  0  0  0  0  0
    5.3683   -1.5440   -0.7306 C   0  0  0  0  0  0  0  0  0  0  0  0
    6.5140   -2.2162   -1.0512 O   0  0  0  0  0  0  0  0  0  0  0  0
    7.3976   -2.5360    0.0169 C   0  0  0  0  0  0  0  0  0  0  0  0
    4.5717   -1.1976   -1.8243 C   0  0  0  0  0  0  0  0  0  0  0  0
    3.3708   -0.5073   -1.6427 C   0  0  0  0  0  0  0  0  0  0  0  0
    0.6782   -0.0112    0.5136 C   0  0  0  0  0  0  0  0  0  0  0  0
   -0.6126    0.7248    0.6824 C   0  0  0  0  0  0  0  0  0  0  0  0
   -1.7210    0.2340    1.1283 N   0  0  0  0  0  0  0  0  0  0  0  0
   -1.8414   -1.1613    1.5686 C   0  0  0  0  0  0  0  0  0  0  0  0
   -2.3996   -1.9932    0.4019 C   0  0  0  0  0  0  0  0  0  0  0  0
   -3.4138   -1.1305   -0.3491 N   0  0  0  0  0  4  0  0  0  0  0  0
   -3.4035   -1.3547   -1.8391 C   0  0  0  0  0  0  0  0  0  0  0  0
   -2.2450   -0.6099   -2.4792 C   0  0  0  0  0  0  0  0  0  0  0  0
   -4.7887   -1.1928    0.2705 C   0  0  0  0  0  0  0  0  0  0  0  0
   -5.5340    0.1090    0.0339 C   0  0  0  0  0  0  0  0  0  0  0  0
   -0.6071    2.1624    0.2486 C   0  0  0  0  0  0  0  0  0  0  0  0
   -1.7042    2.9930    0.5137 C   0  0  0  0  0  0  0  0  0  0  0  0
   -1.6975    4.3155    0.0702 C   0  0  0  0  0  0  0  0  0  0  0  0
   -0.6044    4.8053   -0.6433 C   0  0  0  0  0  0  0  0  0  0  0  0
    0.4917    3.9798   -0.9050 C   0  0  0  0  0  0  0  0  0  0  0  0
    0.5109    2.6609   -0.4415 C   0  0  0  0  0  0  0  0  0  0  0  0
    2.4657    2.2560   -1.0037 H   0  0  0  0  0  0  0  0  0  0  0  0
    3.4520   -0.2278    1.7500 H   0  0  0  0  0  0  0  0  0  0  0  0
    5.5437   -1.4374    1.4308 H   0  0  0  0  0  0  0  0  0  0  0  0
    7.7510   -1.6309    0.5218 H   0  0  0  0  0  0  0  0  0  0  0  0
    6.9254   -3.2252    0.7247 H   0  0  0  0  0  0  0  0  0  0  0  0
    8.2690   -3.0417   -0.4100 H   0  0  0  0  0  0  0  0  0  0  0  0
    4.8946   -1.4648   -2.8283 H   0  0  0  0  0  0  0  0  0  0  0  0
    2.7733   -0.2469   -2.5134 H   0  0  0  0  0  0  0  0  0  0  0  0
    0.7908   -1.0026    0.9267 H   0  0  0  0  0  0  0  0  0  0  0  0
   -2.5545   -1.1803    2.4008 H   0  0  0  0  0  0  0  0  0  0  0  0
   -0.9195   -1.5955    1.9638 H   0  0  0  0  0  0  0  0  0  0  0  0
   -2.8879   -2.9183    0.7237 H   0  0  0  0  0  0  0  0  0  0  0  0
   -1.5912   -2.2372   -0.2936 H   0  0  0  0  0  0  0  0  0  0  0  0
   -3.0542   -0.1728   -0.1610 H   0  0  0  0  0  0  0  0  0  0  0  0
   -4.3453   -0.9794   -2.2495 H   0  0  0  0  0  0  0  0  0  0  0  0
   -3.3508   -2.4340   -2.0162 H   0  0  0  0  0  0  0  0  0  0  0  0
   -1.2762   -0.9680   -2.1197 H   0  0  0  0  0  0  0  0  0  0  0  0
   -2.2671   -0.7488   -3.5648 H   0  0  0  0  0  0  0  0  0  0  0  0
   -2.3083    0.4646   -2.2778 H   0  0  0  0  0  0  0  0  0  0  0  0
   -5.3114   -2.0547   -0.1568 H   0  0  0  0  0  0  0  0  0  0  0  0
   -4.6691   -1.3492    1.3472 H   0  0  0  0  0  0  0  0  0  0  0  0
   -6.5127    0.0719    0.5229 H   0  0  0  0  0  0  0  0  0  0  0  0
   -5.7026    0.2996   -1.0296 H   0  0  0  0  0  0  0  0  0  0  0  0
   -4.9835    0.9595    0.4497 H   0  0  0  0  0  0  0  0  0  0  0  0
   -2.5594    2.6259    1.0740 H   0  0  0  0  0  0  0  0  0  0  0  0
   -2.5426    4.9674    0.2806 H   0  0  0  0  0  0  0  0  0  0  0  0
   -0.6027    5.8352   -0.9949 H   0  0  0  0  0  0  0  0  0  0  0  0
    1.3313    4.3795   -1.4687 H   0  0  0  0  0  0  0  0  0  0  0  0
  1  2  1  0
  2  3  1  0
  3  4  2  0
  4  5  1  0
  5  6  2  0
  6  7  1  0
  7  8  1  0
  6  9  1  0
  9 10  2  0
  2 11  2  0
 11 12  1  0
 12 13  2  3
 13 14  1  0
 14 15  1  0
 15 16  1  0
 16 17  1  0
 17 18  1  0
 16 19  1  0
 19 20  1  0
 12 21  1  0
 21 22  2  0
 22 23  1  0
 23 24  2  0
 24 25  1  0
 25 26  2  0
 26  1  1  0
 10  3  1  0
 26 21  1  0
  1 27  1  0
  4 28  1  0
  5 29  1  0
  8 30  1  0
  8 31  1  0
  8 32  1  0
  9 33  1  0
 10 34  1  0
 11 35  1  0
 14 36  1  0
 14 37  1  0
 15 38  1  0
 15 39  1  0
 16 40  1  0
 17 41  1  0
 17 42  1  0
 18 43  1  0
 18 44  1  0
 18 45  1  0
 19 46  1  0
 19 47  1  0
 20 48  1  0
 20 49  1  0
 20 50  1  0
 22 51  1  0
 23 52  1  0
 24 53  1  0
 25 54  1  0
M  CHG  1  16   1
M  END
>  <ScrubInfo>  (2) 
{"isomerGroup": 0, "isomerId": 1, "confId": 0, "nr_conformers:": 1, "nr_isomers:": 2}

$$$$
