_i0
     RDKit          3D

 48 51  0  0  0  0  0  0  0  0999 V2000
    5.3730    3.9883   -0.1957 C   0  0  0  0  0  0  0  0  0  0  0  0
    5.8477    2.6478   -0.2049 O   0  0  0  0  0  0  0  0  0  0  0  0
    4.9122    1.6630   -0.0540 C   0  0  0  0  0  0  0  0  0  0  0  0
    3.5429    1.8470    0.1143 C   0  0  0  0  0  0  0  0  0  0  0  0
    2.6908    0.7409    0.2583 C   0  0  0  0  0  0  0  0  0  0  0  0
    3.1821   -0.5670    0.2439 C   0  0  0  0  0  0  0  0  0  0  0  0
    2.3780   -1.7133    0.3625 N   0  0  0  0  0  0  0  0  0  0  0  0
    0.9878   -1.8946    0.4261 C   0  0  0  0  0  0  0  0  0  0  0  0
    0.1166   -0.8622    0.2760 N   0  0  0  0  0  0  0  0  0  0  0  0
   -1.2122   -1.0617    0.3283 C   0  0  0  0  0  0  0  0  0  0  0  0
   -1.9777    0.0873    0.1720 N   0  0  0  0  0  0  0  0  0  0  0  0
   -3.1977   -0.1056   -0.6043 C   0  0  0  0  0  0  0  0  0  0  0  0
   -3.8715    1.2447   -0.8857 C   0  0  0  0  0  0  0  0  0  0  0  0
   -4.3509    1.9902    0.3515 C   0  0  0  0  0  0  0  0  0  0  0  0
   -4.3395    3.4184   -0.1332 C   0  0  0  0  0  0  0  0  0  0  0  0
   -3.0991    3.4439   -1.0001 C   0  0  0  0  0  0  0  0  0  0  0  0
   -2.9644    2.1352   -1.5743 O   0  0  0  0  0  0  0  0  0  0  0  0
   -1.8186   -2.2410    0.5190 N   0  0  0  0  0  0  0  0  0  0  0  0
   -0.9495   -3.2504    0.6656 C   0  0  0  0  0  0  0  0  0  0  0  0
    0.4282   -3.1630    0.6308 C   0  0  0  0  0  0  0  0  0  0  0  0
    0.8661   -4.4895    0.8297 C   0  0  0  0  0  0  0  0  0  0  0  0
   -0.1422   -5.3557    0.9794 N   0  0  0  0  0  0  0  0  0  0  0  0
   -1.2401   -4.5699    0.8798 N   0  0  0  0  0  0  0  0  0  0  0  0
   -2.5488   -5.1608    1.0015 C   0  0  0  0  0  0  0  0  0  0  0  0
    4.5642   -0.7346    0.0672 C   0  0  0  0  0  0  0  0  0  0  0  0
    5.4176    0.3651   -0.0770 C   0  0  0  0  0  0  0  0  0  0  0  0
    6.2350    4.6490   -0.3293 H   0  0  0  0  0  0  0  0  0  0  0  0
    4.6834    4.1689   -1.0270 H   0  0  0  0  0  0  0  0  0  0  0  0
    4.9093    4.2364    0.7648 H   0  0  0  0  0  0  0  0  0  0  0  0
    3.0948    2.8344    0.1396 H   0  0  0  0  0  0  0  0  0  0  0  0
    1.6318    0.9362    0.3934 H   0  0  0  0  0  0  0  0  0  0  0  0
    2.9026   -2.5716    0.4538 H   0  0  0  0  0  0  0  0  0  0  0  0
   -1.3554    0.7770   -0.2445 H   0  0  0  0  0  0  0  0  0  0  0  0
   -3.9020   -0.7555   -0.0714 H   0  0  0  0  0  0  0  0  0  0  0  0
   -2.9466   -0.5720   -1.5658 H   0  0  0  0  0  0  0  0  0  0  0  0
   -4.7199    1.0801   -1.5618 H   0  0  0  0  0  0  0  0  0  0  0  0
   -3.6498    1.8836    1.1871 H   0  0  0  0  0  0  0  0  0  0  0  0
   -5.3356    1.6558    0.6902 H   0  0  0  0  0  0  0  0  0  0  0  0
   -4.3124    4.1564    0.6727 H   0  0  0  0  0  0  0  0  0  0  0  0
   -5.2287    3.6098   -0.7454 H   0  0  0  0  0  0  0  0  0  0  0  0
   -3.1578    4.1912   -1.7962 H   0  0  0  0  0  0  0  0  0  0  0  0
   -2.2021    3.6389   -0.4026 H   0  0  0  0  0  0  0  0  0  0  0  0
    1.8797   -4.8655    0.8729 H   0  0  0  0  0  0  0  0  0  0  0  0
   -2.6638   -5.9069    0.2111 H   0  0  0  0  0  0  0  0  0  0  0  0
   -2.6233   -5.6315    1.9851 H   0  0  0  0  0  0  0  0  0  0  0  0
   -3.3184   -4.3924    0.8998 H   0  0  0  0  0  0  0  0  0  0  0  0
    4.9997   -1.7298    0.0352 H   0  0  0  0  0  0  0  0  0  0  0  0
    6.4844    0.2050   -0.2113 H   0  0  0  0  0  0  0  0  0  0  0  0
  1  2  1  0
  2  3  1  0
  3  4  2  0
  4  5  1  0
  5  6  2  0
  6  7  1  0
  7  8  1  0
  8  9  2  0
  9 10  1  0
 10 11  1  0
 11 12  1  0
 12 13  1  0
 13 14  1  0
 14 15  1  0
 15 16  1  0
 16 17  1  0
 10 18  2  0
 18 19  1  0
 19 20  2  0
 20 21  1  0
 21 22  2  0
 22 23  1  0
 23 24  1  0
  6 25  1  0
 25 26  2  0
 26  3  1  0
 20  8  1  0
 17 13  1  0
 23 19  1  0
  1 27  1  0
  1 28  1  0
  1 29  1  0
  4 30  1  0
  5 31  1  0
  7 32  1  0
 11 33  1  0
 12 34  1  0
 12 35  1  0
 13 36  1  0
 14 37  1  0
 14 38  1  0
 15 39  1  0
 15 40  1  0
 16 41  1  0
 16 42  1  0
 21 43  1  0
 24 44  1  0
 24 45  1  0
 24 46  1  0
 25 47  1  0
 26 48  1  0
M  END
>  <ScrubInfo>  (1) 
{"isomerGroup": 0, "isomerId": 0, "confId": 0, "nr_conformers:": 1, "nr_isomers:": 9}

$$$$
_i1
     RDKit          3D

 48 51  0  0  0  0  0  0  0  0999 V2000
    0.3227   -0.4756   -1.4224 N   0  0  0  0  0  0  0  0  0  0  0  0
    1.4386    0.2600   -1.1046 C   0  0  0  0  0  0  0  0  0  0  0  0
    2.5250   -0.0711   -1.8705 N   0  0  0  0  0  0  0  0  0  0  0  0
    3.8497    0.4669   -1.5577 C   0  0  0  0  0  0  0  0  0  0  0  0
    4.4893   -0.3306   -0.4171 C   0  0  0  0  0  0  0  0  0  0  0  0
    5.8708    0.1693   -0.0336 C   0  0  0  0  0  0  0  0  0  0  0  0
    6.4782   -1.0692    0.5762 C   0  0  0  0  0  0  0  0  0  0  0  0
    5.9347   -2.1637   -0.3183 C   0  0  0  0  0  0  0  0  0  0  0  0
    4.6691   -1.7086   -0.8232 O   0  0  0  0  0  0  0  0  0  0  0  0
    1.4588    1.1853   -0.1800 N   0  0  0  0  0  0  0  0  0  0  0  0
    0.2488    1.3111    0.4348 C   0  0  0  0  0  0  0  0  0  0  0  0
   -0.9255    0.6178    0.1822 C   0  0  0  0  0  0  0  0  0  0  0  0
   -1.8437    1.1407    1.1100 C   0  0  0  0  0  0  0  0  0  0  0  0
   -1.3108    2.0921    1.8879 N   0  0  0  0  0  0  0  0  0  0  0  0
   -0.0336    2.1779    1.4524 N   0  0  0  0  0  0  0  0  0  0  0  0
    0.8601    3.1236    2.0717 C   0  0  0  0  0  0  0  0  0  0  0  0
   -0.9337   -0.3792   -0.8704 C   0  0  0  0  0  0  0  0  0  0  0  0
   -1.9217   -1.1040   -1.2997 N   0  0  0  0  0  0  0  0  0  0  0  0
   -3.2028   -1.0068   -0.7562 C   0  0  0  0  0  0  0  0  0  0  0  0
   -4.1296   -0.1066   -1.2870 C   0  0  0  0  0  0  0  0  0  0  0  0
   -5.4261   -0.0262   -0.7654 C   0  0  0  0  0  0  0  0  0  0  0  0
   -5.8102   -0.8616    0.2840 C   0  0  0  0  0  0  0  0  0  0  0  0
   -7.0379   -0.8860    0.8852 O   0  0  0  0  0  0  0  0  0  0  0  0
   -7.9990    0.0541    0.4219 C   0  0  0  0  0  0  0  0  0  0  0  0
   -4.8909   -1.7807    0.7965 C   0  0  0  0  0  0  0  0  0  0  0  0
   -3.5972   -1.8593    0.2751 C   0  0  0  0  0  0  0  0  0  0  0  0
    0.3727   -1.0762   -2.2287 H   0  0  0  0  0  0  0  0  0  0  0  0
    2.6001   -1.0673   -2.0630 H   0  0  0  0  0  0  0  0  0  0  0  0
    4.4596    0.3673   -2.4630 H   0  0  0  0  0  0  0  0  0  0  0  0
    3.7950    1.5342   -1.3157 H   0  0  0  0  0  0  0  0  0  0  0  0
    3.8359   -0.3438    0.4641 H   0  0  0  0  0  0  0  0  0  0  0  0
    5.8395    1.0205    0.6520 H   0  0  0  0  0  0  0  0  0  0  0  0
    6.4444    0.4616   -0.9215 H   0  0  0  0  0  0  0  0  0  0  0  0
    6.1044   -1.2021    1.5985 H   0  0  0  0  0  0  0  0  0  0  0  0
    7.5706   -1.0518    0.6127 H   0  0  0  0  0  0  0  0  0  0  0  0
    6.5913   -2.3353   -1.1776 H   0  0  0  0  0  0  0  0  0  0  0  0
    5.8001   -3.1104    0.2123 H   0  0  0  0  0  0  0  0  0  0  0  0
   -2.8816    0.8830    1.2688 H   0  0  0  0  0  0  0  0  0  0  0  0
    0.4438    4.1258    1.9417 H   0  0  0  0  0  0  0  0  0  0  0  0
    0.9384    2.8777    3.1337 H   0  0  0  0  0  0  0  0  0  0  0  0
    1.8468    3.0706    1.6067 H   0  0  0  0  0  0  0  0  0  0  0  0
   -3.8393    0.5384   -2.1121 H   0  0  0  0  0  0  0  0  0  0  0  0
   -6.1076    0.6938   -1.2051 H   0  0  0  0  0  0  0  0  0  0  0  0
   -8.2523   -0.1261   -0.6280 H   0  0  0  0  0  0  0  0  0  0  0  0
   -8.9106   -0.0815    1.0119 H   0  0  0  0  0  0  0  0  0  0  0  0
   -7.6529    1.0817    0.5752 H   0  0  0  0  0  0  0  0  0  0  0  0
   -5.1855   -2.4436    1.6063 H   0  0  0  0  0  0  0  0  0  0  0  0
   -2.8958   -2.5859    0.6752 H   0  0  0  0  0  0  0  0  0  0  0  0
  1  2  1  0
  2  3  1  0
  3  4  1  0
  4  5  1  0
  5  6  1  0
  6  7  1  0
  7  8  1  0
  8  9  1  0
  2 10  2  0
 10 11  1  0
 11 12  2  0
 12 13  1  0
 13 14  2  0
 14 15  1  0
 15 16  1  0
 12 17  1  0
 17 18  2  3
 18 19  1  0
 19 20  2  0
 20 21  1  0
 21 22  2  0
 22 23  1  0
 23 24  1  0
 22 25  1  0
 25 26  2  0
 17  1  1  0
 26 19  1  0
  9  5  1  0
 15 11  1  0
  1 27  1  0
  3 28  1  0
  4 29  1  0
  4 30  1  0
  5 31  1  0
  6 32  1  0
  6 33  1  0
  7 34  1  0
  7 35  1  0
  8 36  1  0
  8 37  1  0
 13 38  1  0
 16 39  1  0
 16 40  1  0
 16 41  1  0
 20 42  1  0
 21 43  1  0
 24 44  1  0
 24 45  1  0
 24 46  1  0
 25 47  1  0
 26 48  1  0
M  END
>  <ScrubInfo>  (2) 
{"isomerGroup": 0, "isomerId": 1, "confId": 0, "nr_conformers:": 1, "nr_isomers:": 9}

$$$$
_i2
     RDKit          3D

 48 51  0  0  0  0  0  0  0  0999 V2000
    0.0314   -1.2327    0.3666 N   0  0  0  0  0  0  0  0  0  0  0  0
    1.0606   -2.0622   -0.0454 C   0  0  0  0  0  0  0  0  0  0  0  0
    2.3846   -1.6643   -0.0265 N   0  0  0  0  0  0  0  0  0  0  0  0
    2.9201   -0.3748   -0.2104 C   0  0  0  0  0  0  0  0  0  0  0  0
    4.2109   -0.1142    0.2661 C   0  0  0  0  0  0  0  0  0  0  0  0
    4.7750    1.1607    0.1556 C   0  0  0  0  0  0  0  0  0  0  0  0
    4.0606    2.2065   -0.4275 C   0  0  0  0  0  0  0  0  0  0  0  0
    4.7255    3.3994   -0.4739 O   0  0  0  0  0  0  0  0  0  0  0  0
    4.0287    4.5032   -1.0384 C   0  0  0  0  0  0  0  0  0  0  0  0
    2.7740    1.9627   -0.9015 C   0  0  0  0  0  0  0  0  0  0  0  0
    2.2098    0.6840   -0.7882 C   0  0  0  0  0  0  0  0  0  0  0  0
    0.6821   -3.2908   -0.4167 C   0  0  0  0  0  0  0  0  0  0  0  0
    1.3037   -4.5129   -0.9388 C   0  0  0  0  0  0  0  0  0  0  0  0
    0.4393   -5.4615   -1.1948 N   0  0  0  0  0  0  0  0  0  0  0  0
   -0.8067   -4.9402   -0.8115 N   0  0  0  0  0  0  0  0  0  0  0  0
   -2.0115   -5.6200   -1.2208 C   0  0  0  0  0  0  0  0  0  0  0  0
   -0.7572   -3.6261   -0.3752 C   0  0  0  0  0  0  0  0  0  0  0  0
   -1.7028   -2.8306   -0.0116 N   0  0  0  0  0  0  0  0  0  0  0  0
   -1.2998   -1.5801    0.4025 C   0  0  0  0  0  0  0  0  0  0  0  0
   -2.2725   -0.8404    0.8015 N   0  0  0  0  0  0  0  0  0  0  0  0
   -1.9821    0.5157    1.2550 C   0  0  0  0  0  0  0  0  0  0  0  0
   -3.2809    1.2128    1.6838 C   0  0  0  0  0  0  0  0  0  0  0  0
   -4.2578    1.4512    0.5376 C   0  0  0  0  0  0  0  0  0  0  0  0
   -3.9154    2.8495    0.0889 C   0  0  0  0  0  0  0  0  0  0  0  0
   -3.5692    3.5162    1.3993 C   0  0  0  0  0  0  0  0  0  0  0  0
   -2.9404    2.5159    2.2103 O   0  0  0  0  0  0  0  0  0  0  0  0
    0.3237   -0.3709    0.8007 H   0  0  0  0  0  0  0  0  0  0  0  0
    3.0746   -2.3992   -0.1467 H   0  0  0  0  0  0  0  0  0  0  0  0
    4.7904   -0.8993    0.7456 H   0  0  0  0  0  0  0  0  0  0  0  0
    5.7783    1.3403    0.5346 H   0  0  0  0  0  0  0  0  0  0  0  0
    4.6879    5.3753   -0.9891 H   0  0  0  0  0  0  0  0  0  0  0  0
    3.1254    4.7355   -0.4647 H   0  0  0  0  0  0  0  0  0  0  0  0
    3.7929    4.3231   -2.0925 H   0  0  0  0  0  0  0  0  0  0  0  0
    2.1807    2.7403   -1.3712 H   0  0  0  0  0  0  0  0  0  0  0  0
    1.2160    0.5285   -1.2002 H   0  0  0  0  0  0  0  0  0  0  0  0
    2.3864   -4.5734   -1.1061 H   0  0  0  0  0  0  0  0  0  0  0  0
   -1.8611   -6.7044   -1.2301 H   0  0  0  0  0  0  0  0  0  0  0  0
   -2.8351   -5.4037   -0.5329 H   0  0  0  0  0  0  0  0  0  0  0  0
   -2.3045   -5.3026   -2.2264 H   0  0  0  0  0  0  0  0  0  0  0  0
   -1.3000    0.4981    2.1146 H   0  0  0  0  0  0  0  0  0  0  0  0
   -1.4918    1.0995    0.4657 H   0  0  0  0  0  0  0  0  0  0  0  0
   -3.7600    0.6335    2.4814 H   0  0  0  0  0  0  0  0  0  0  0  0
   -5.2835    1.4394    0.9269 H   0  0  0  0  0  0  0  0  0  0  0  0
   -4.2014    0.7124   -0.2663 H   0  0  0  0  0  0  0  0  0  0  0  0
   -3.0370    2.8262   -0.5662 H   0  0  0  0  0  0  0  0  0  0  0  0
   -4.7282    3.3505   -0.4432 H   0  0  0  0  0  0  0  0  0  0  0  0
   -2.8943    4.3673    1.2742 H   0  0  0  0  0  0  0  0  0  0  0  0
   -4.4694    3.8567    1.9225 H   0  0  0  0  0  0  0  0  0  0  0  0
  1  2  1  0
  2  3  1  0
  3  4  1  0
  4  5  2  0
  5  6  1  0
  6  7  2  0
  7  8  1  0
  8  9  1  0
  7 10  1  0
 10 11  2  0
  2 12  2  0
 12 13  1  0
 13 14  2  0
 14 15  1  0
 15 16  1  0
 15 17  1  0
 17 18  2  0
 18 19  1  0
 19 20  2  3
 20 21  1  0
 21 22  1  0
 22 23  1  0
 23 24  1  0
 24 25  1  0
 25 26  1  0
 19  1  1  0
 26 22  1  0
 11  4  1  0
 17 12  1  0
  1 27  1  0
  3 28  1  0
  5 29  1  0
  6 30  1  0
  9 31  1  0
  9 32  1  0
  9 33  1  0
 10 34  1  0
 11 35  1  0
 13 36  1  0
 16 37  1  0
 16 38  1  0
 16 39  1  0
 21 40  1  0
 21 41  1  0
 22 42  1  0
 23 43  1  0
 23 44  1  0
 24 45  1  0
 24 46  1  0
 25 47  1  0
 25 48  1  0
M  END
>  <ScrubInfo>  (3) 
{"isomerGroup": 0, "isomerId": 2, "confId": 0, "nr_conformers:": 1, "nr_isomers:": 9}

$$$$
_i3
     RDKit          3D

 48 51  0  0  0  0  0  0  0  0999 V2000
   -1.7849   -2.7861   -0.4970 N   0  0  0  0  0  0  0  0  0  0  0  0
   -1.5326   -1.4486   -0.2950 C   0  0  0  0  0  0  0  0  0  0  0  0
   -2.5449   -0.6496   -0.2030 N   0  0  0  0  0  0  0  0  0  0  0  0
   -2.2496    0.7704    0.0349 C   0  0  0  0  0  0  0  0  0  0  0  0
   -3.5647    1.5503    0.1409 C   0  0  0  0  0  0  0  0  0  0  0  0
   -3.3599    3.0555    0.0556 C   0  0  0  0  0  0  0  0  0  0  0  0
   -4.5802    3.5710    0.7750 C   0  0  0  0  0  0  0  0  0  0  0  0
   -4.7283    2.5656    1.8959 C   0  0  0  0  0  0  0  0  0  0  0  0
   -4.2093    1.3198    1.4132 O   0  0  0  0  0  0  0  0  0  0  0  0
   -0.2410   -0.9583   -0.1979 N   0  0  0  0  0  0  0  0  0  0  0  0
    0.7761   -1.7673   -0.2843 C   0  0  0  0  0  0  0  0  0  0  0  0
    2.1131   -1.4533   -0.2196 N   0  0  0  0  0  0  0  0  0  0  0  0
    2.7227   -0.2130    0.0500 C   0  0  0  0  0  0  0  0  0  0  0  0
    2.0320    0.9318    0.4519 C   0  0  0  0  0  0  0  0  0  0  0  0
    2.7040    2.1390    0.6832 C   0  0  0  0  0  0  0  0  0  0  0  0
    4.0838    2.2349    0.5126 C   0  0  0  0  0  0  0  0  0  0  0  0
    4.6115    3.4685    0.7708 O   0  0  0  0  0  0  0  0  0  0  0  0
    6.0167    3.6137    0.6106 C   0  0  0  0  0  0  0  0  0  0  0  0
    4.7892    1.1067    0.1064 C   0  0  0  0  0  0  0  0  0  0  0  0
    4.1130   -0.1002   -0.1231 C   0  0  0  0  0  0  0  0  0  0  0  0
    0.5443   -3.1892   -0.4863 C   0  0  0  0  0  0  0  0  0  0  0  0
    1.3063   -4.3629   -0.6194 C   0  0  0  0  0  0  0  0  0  0  0  0
    0.5456   -5.4546   -0.7918 N   0  0  0  0  0  0  0  0  0  0  0  0
   -0.7224   -4.9741   -0.7619 N   0  0  0  0  0  0  0  0  0  0  0  0
   -1.8259   -5.8879   -0.9128 C   0  0  0  0  0  0  0  0  0  0  0  0
   -0.7480   -3.6289   -0.5832 C   0  0  0  0  0  0  0  0  0  0  0  0
   -2.7663   -3.0274   -0.5311 H   0  0  0  0  0  0  0  0  0  0  0  0
   -1.6856    0.8860    0.9686 H   0  0  0  0  0  0  0  0  0  0  0  0
   -1.6637    1.1690   -0.8022 H   0  0  0  0  0  0  0  0  0  0  0  0
   -4.2669    1.2240   -0.6368 H   0  0  0  0  0  0  0  0  0  0  0  0
   -2.4565    3.3596    0.5984 H   0  0  0  0  0  0  0  0  0  0  0  0
   -3.2793    3.4150   -0.9740 H   0  0  0  0  0  0  0  0  0  0  0  0
   -4.4793    4.5986    1.1336 H   0  0  0  0  0  0  0  0  0  0  0  0
   -5.4515    3.5233    0.1110 H   0  0  0  0  0  0  0  0  0  0  0  0
   -4.1356    2.8567    2.7696 H   0  0  0  0  0  0  0  0  0  0  0  0
   -5.7683    2.4361    2.2083 H   0  0  0  0  0  0  0  0  0  0  0  0
    2.7775   -2.1978   -0.3704 H   0  0  0  0  0  0  0  0  0  0  0  0
    0.9584    0.9176    0.6099 H   0  0  0  0  0  0  0  0  0  0  0  0
    2.1379    3.0115    1.0008 H   0  0  0  0  0  0  0  0  0  0  0  0
    6.5623    2.9621    1.3012 H   0  0  0  0  0  0  0  0  0  0  0  0
    6.3167    3.4309   -0.4265 H   0  0  0  0  0  0  0  0  0  0  0  0
    6.2760    4.6485    0.8545 H   0  0  0  0  0  0  0  0  0  0  0  0
    5.8630    1.1270   -0.0450 H   0  0  0  0  0  0  0  0  0  0  0  0
    4.6974   -0.9583   -0.4473 H   0  0  0  0  0  0  0  0  0  0  0  0
    2.3802   -4.4895   -0.5998 H   0  0  0  0  0  0  0  0  0  0  0  0
   -2.7703   -5.3407   -0.8831 H   0  0  0  0  0  0  0  0  0  0  0  0
   -1.7230   -6.3964   -1.8747 H   0  0  0  0  0  0  0  0  0  0  0  0
   -1.7894   -6.6095   -0.0928 H   0  0  0  0  0  0  0  0  0  0  0  0
  1  2  1  0
  2  3  2  3
  3  4  1  0
  4  5  1  0
  5  6  1  0
  6  7  1  0
  7  8  1  0
  8  9  1  0
  2 10  1  0
 10 11  2  0
 11 12  1  0
 12 13  1  0
 13 14  2  0
 14 15  1  0
 15 16  2  0
 16 17  1  0
 17 18  1  0
 16 19  1  0
 19 20  2  0
 11 21  1  0
 21 22  1  0
 22 23  2  0
 23 24  1  0
 24 25  1  0
 24 26  1  0
 26  1  1  0
  9  5  1  0
 20 13  1  0
 26 21  2  0
  1 27  1  0
  4 28  1  0
  4 29  1  0
  5 30  1  0
  6 31  1  0
  6 32  1  0
  7 33  1  0
  7 34  1  0
  8 35  1  0
  8 36  1  0
 12 37  1  0
 14 38  1  0
 15 39  1  0
 18 40  1  0
 18 41  1  0
 18 42  1  0
 19 43  1  0
 20 44  1  0
 22 45  1  0
 25 46  1  0
 25 47  1  0
 25 48  1  0
M  END
>  <ScrubInfo>  (4) 
{"isomerGroup": 0, "isomerId": 3, "confId": 0, "nr_conformers:": 1, "nr_isomers:": 9}

$$$$
_i4
     RDKit          3D

 48 51  0  0  0  0  0  0  0  0999 V2000
   -1.2712   -0.3814    1.3655 N   0  0  0  0  0  0  0  0  0  0  0  0
   -1.5439   -0.1507    0.0406 C   0  0  0  0  0  0  0  0  0  0  0  0
   -2.8681   -0.1790   -0.2884 N   0  0  0  0  0  0  0  0  0  0  0  0
   -3.7029   -1.3444    0.0048 C   0  0  0  0  0  0  0  0  0  0  0  0
   -5.1251   -1.1586   -0.5523 C   0  0  0  0  0  0  0  0  0  0  0  0
   -5.8950    0.0080    0.0584 C   0  0  0  0  0  0  0  0  0  0  0  0
   -5.8438    1.0703   -1.0123 C   0  0  0  0  0  0  0  0  0  0  0  0
   -5.8241    0.2465   -2.2780 C   0  0  0  0  0  0  0  0  0  0  0  0
   -5.0597   -0.9272   -1.9753 O   0  0  0  0  0  0  0  0  0  0  0  0
   -0.6598    0.1057   -0.8799 N   0  0  0  0  0  0  0  0  0  0  0  0
    0.6911    0.1421   -0.5538 C   0  0  0  0  0  0  0  0  0  0  0  0
    1.5055    0.3523   -1.5387 N   0  0  0  0  0  0  0  0  0  0  0  0
    2.8874    0.4112   -1.3713 C   0  0  0  0  0  0  0  0  0  0  0  0
    3.5202    1.6407   -1.1748 C   0  0  0  0  0  0  0  0  0  0  0  0
    4.9110    1.7139   -1.0348 C   0  0  0  0  0  0  0  0  0  0  0  0
    5.6826    0.5536   -1.1084 C   0  0  0  0  0  0  0  0  0  0  0  0
    7.0427    0.4826   -0.9866 O   0  0  0  0  0  0  0  0  0  0  0  0
    7.7322    1.7057   -0.7617 C   0  0  0  0  0  0  0  0  0  0  0  0
    5.0517   -0.6729   -1.3328 C   0  0  0  0  0  0  0  0  0  0  0  0
    3.6635   -0.7437   -1.4733 C   0  0  0  0  0  0  0  0  0  0  0  0
    1.0263   -0.0530    0.8483 C   0  0  0  0  0  0  0  0  0  0  0  0
    2.1785   -0.0512    1.6558 C   0  0  0  0  0  0  0  0  0  0  0  0
    1.9076   -0.2719    2.9528 N   0  0  0  0  0  0  0  0  0  0  0  0
    0.5648   -0.4230    2.9787 N   0  0  0  0  0  0  0  0  0  0  0  0
   -0.0856   -0.6860    4.2368 C   0  0  0  0  0  0  0  0  0  0  0  0
    0.0156   -0.3023    1.7430 C   0  0  0  0  0  0  0  0  0  0  0  0
   -2.0516   -0.3472    2.0059 H   0  0  0  0  0  0  0  0  0  0  0  0
   -2.9440    0.0245   -1.2886 H   0  0  0  0  0  0  0  0  0  0  0  0
   -3.7528   -1.5227    1.0843 H   0  0  0  0  0  0  0  0  0  0  0  0
   -3.2471   -2.2223   -0.4683 H   0  0  0  0  0  0  0  0  0  0  0  0
   -5.6790   -2.0908   -0.3910 H   0  0  0  0  0  0  0  0  0  0  0  0
   -6.9380   -0.2926    0.2183 H   0  0  0  0  0  0  0  0  0  0  0  0
   -5.5027    0.3437    1.0228 H   0  0  0  0  0  0  0  0  0  0  0  0
   -6.6826    1.7702   -0.9724 H   0  0  0  0  0  0  0  0  0  0  0  0
   -4.9160    1.6462   -0.9232 H   0  0  0  0  0  0  0  0  0  0  0  0
   -6.8332   -0.0700   -2.5634 H   0  0  0  0  0  0  0  0  0  0  0  0
   -5.3700    0.7757   -3.1200 H   0  0  0  0  0  0  0  0  0  0  0  0
    2.9235    2.5484   -1.1335 H   0  0  0  0  0  0  0  0  0  0  0  0
    5.3554    2.6905   -0.8774 H   0  0  0  0  0  0  0  0  0  0  0  0
    8.7998    1.4783   -0.6853 H   0  0  0  0  0  0  0  0  0  0  0  0
    7.4217    2.1664    0.1819 H   0  0  0  0  0  0  0  0  0  0  0  0
    7.5979    2.3948   -1.6021 H   0  0  0  0  0  0  0  0  0  0  0  0
    5.6462   -1.5801   -1.4064 H   0  0  0  0  0  0  0  0  0  0  0  0
    3.1859   -1.7005   -1.6650 H   0  0  0  0  0  0  0  0  0  0  0  0
    3.2115    0.1059    1.3770 H   0  0  0  0  0  0  0  0  0  0  0  0
    0.4160   -1.5295    4.7182 H   0  0  0  0  0  0  0  0  0  0  0  0
   -1.1360   -0.9326    4.0688 H   0  0  0  0  0  0  0  0  0  0  0  0
   -0.0064    0.2104    4.8569 H   0  0  0  0  0  0  0  0  0  0  0  0
  1  2  1  0
  2  3  1  0
  3  4  1  0
  4  5  1  0
  5  6  1  0
  6  7  1  0
  7  8  1  0
  8  9  1  0
  2 10  2  0
 10 11  1  0
 11 12  2  3
 12 13  1  0
 13 14  2  0
 14 15  1  0
 15 16  2  0
 16 17  1  0
 17 18  1  0
 16 19  1  0
 19 20  2  0
 11 21  1  0
 21 22  1  0
 22 23  2  0
 23 24  1  0
 24 25  1  0
 24 26  1  0
 26  1  1  0
  9  5  1  0
 20 13  1  0
 26 21  2  0
  1 27  1  0
  3 28  1  0
  4 29  1  0
  4 30  1  0
  5 31  1  0
  6 32  1  0
  6 33  1  0
  7 34  1  0
  7 35  1  0
  8 36  1  0
  8 37  1  0
 14 38  1  0
 15 39  1  0
 18 40  1  0
 18 41  1  0
 18 42  1  0
 19 43  1  0
 20 44  1  0
 22 45  1  0
 25 46  1  0
 25 47  1  0
 25 48  1  0
M  END
>  <ScrubInfo>  (5) 
{"isomerGroup": 0, "isomerId": 4, "confId": 0, "nr_conformers:": 1, "nr_isomers:": 9}

$$$$
_i5
     RDKit          3D

 48 51  0  0  0  0  0  0  0  0999 V2000
   -1.5967   -3.0937   -0.7283 N   0  0  0  0  0  0  0  0  0  0  0  0
   -1.9911   -1.7724   -0.5446 C   0  0  0  0  0  0  0  0  0  0  0  0
   -0.9664   -0.9322   -0.3321 C   0  0  0  0  0  0  0  0  0  0  0  0
   -0.7297    0.4898   -0.1161 C   0  0  0  0  0  0  0  0  0  0  0  0
   -1.5594    1.4720    0.0088 N   0  0  0  0  0  0  0  0  0  0  0  0
   -2.9364    1.2544   -0.0468 C   0  0  0  0  0  0  0  0  0  0  0  0
   -3.6572    0.9979    1.1217 C   0  0  0  0  0  0  0  0  0  0  0  0
   -5.0413    0.7944    1.0770 C   0  0  0  0  0  0  0  0  0  0  0  0
   -5.7179    0.8615   -0.1414 C   0  0  0  0  0  0  0  0  0  0  0  0
   -7.0601    0.6779   -0.3271 O   0  0  0  0  0  0  0  0  0  0  0  0
   -7.8490    0.4810    0.8396 C   0  0  0  0  0  0  0  0  0  0  0  0
   -4.9999    1.1408   -1.3073 C   0  0  0  0  0  0  0  0  0  0  0  0
   -3.6189    1.3469   -1.2599 C   0  0  0  0  0  0  0  0  0  0  0  0
    0.5960    0.8251   -0.0382 N   0  0  0  0  0  0  0  0  0  0  0  0
    1.5587   -0.0464   -0.0959 C   0  0  0  0  0  0  0  0  0  0  0  0
    2.8252    0.4481   -0.0009 N   0  0  0  0  0  0  0  0  0  0  0  0
    3.9797   -0.2376   -0.5529 C   0  0  0  0  0  0  0  0  0  0  0  0
    5.2693    0.5227   -0.2232 C   0  0  0  0  0  0  0  0  0  0  0  0
    5.6016    0.6015    1.2599 C   0  0  0  0  0  0  0  0  0  0  0  0
    6.4469    1.8496    1.3143 C   0  0  0  0  0  0  0  0  0  0  0  0
    5.7491    2.7437    0.3120 C   0  0  0  0  0  0  0  0  0  0  0  0
    5.1952    1.8857   -0.6972 O   0  0  0  0  0  0  0  0  0  0  0  0
    1.3982   -1.3987   -0.2405 N   0  0  0  0  0  0  0  0  0  0  0  0
    0.1944   -1.8423   -0.3401 C   0  0  0  0  0  0  0  0  0  0  0  0
   -0.2338   -3.1637   -0.4810 N   0  0  0  0  0  0  0  0  0  0  0  0
    0.5651   -4.1327   -1.2059 C   0  0  0  0  0  0  0  0  0  0  0  0
   -2.1827   -3.7636   -0.2247 H   0  0  0  0  0  0  0  0  0  0  0  0
   -3.0461   -1.5447   -0.5864 H   0  0  0  0  0  0  0  0  0  0  0  0
   -3.1347    0.9627    2.0743 H   0  0  0  0  0  0  0  0  0  0  0  0
   -5.5563    0.5939    2.0101 H   0  0  0  0  0  0  0  0  0  0  0  0
   -8.8930    0.3879    0.5254 H   0  0  0  0  0  0  0  0  0  0  0  0
   -7.5712   -0.4468    1.3504 H   0  0  0  0  0  0  0  0  0  0  0  0
   -7.7796    1.3407    1.5144 H   0  0  0  0  0  0  0  0  0  0  0  0
   -5.5209    1.2100   -2.2590 H   0  0  0  0  0  0  0  0  0  0  0  0
   -3.0730    1.5828   -2.1692 H   0  0  0  0  0  0  0  0  0  0  0  0
    2.8446    1.4543   -0.1447 H   0  0  0  0  0  0  0  0  0  0  0  0
    3.8633   -0.2883   -1.6416 H   0  0  0  0  0  0  0  0  0  0  0  0
    4.0487   -1.2595   -0.1637 H   0  0  0  0  0  0  0  0  0  0  0  0
    6.1033    0.0506   -0.7578 H   0  0  0  0  0  0  0  0  0  0  0  0
    6.1211   -0.2894    1.6238 H   0  0  0  0  0  0  0  0  0  0  0  0
    4.7023    0.7438    1.8700 H   0  0  0  0  0  0  0  0  0  0  0  0
    7.4637    1.6244    0.9714 H   0  0  0  0  0  0  0  0  0  0  0  0
    6.5115    2.2943    2.3107 H   0  0  0  0  0  0  0  0  0  0  0  0
    4.9204    3.2886    0.7767 H   0  0  0  0  0  0  0  0  0  0  0  0
    6.4270    3.4664   -0.1505 H   0  0  0  0  0  0  0  0  0  0  0  0
    0.1135   -5.1276   -1.1355 H   0  0  0  0  0  0  0  0  0  0  0  0
    0.6430   -3.8601   -2.2636 H   0  0  0  0  0  0  0  0  0  0  0  0
    1.5736   -4.1935   -0.7844 H   0  0  0  0  0  0  0  0  0  0  0  0
  1  2  1  0
  2  3  2  0
  3  4  1  0
  4  5  2  3
  5  6  1  0
  6  7  2  0
  7  8  1  0
  8  9  2  0
  9 10  1  0
 10 11  1  0
  9 12  1  0
 12 13  2  0
  4 14  1  0
 14 15  2  0
 15 16  1  0
 16 17  1  0
 17 18  1  0
 18 19  1  0
 19 20  1  0
 20 21  1  0
 21 22  1  0
 15 23  1  0
 23 24  2  0
 24 25  1  0
 25 26  1  0
 25  1  1  0
 24  3  1  0
 13  6  1  0
 22 18  1  0
  1 27  1  0
  2 28  1  0
  7 29  1  0
  8 30  1  0
 11 31  1  0
 11 32  1  0
 11 33  1  0
 12 34  1  0
 13 35  1  0
 16 36  1  0
 17 37  1  0
 17 38  1  0
 18 39  1  0
 19 40  1  0
 19 41  1  0
 20 42  1  0
 20 43  1  0
 21 44  1  0
 21 45  1  0
 26 46  1  0
 26 47  1  0
 26 48  1  0
M  END
>  <ScrubInfo>  (6) 
{"isomerGroup": 0, "isomerId": 5, "confId": 0, "nr_conformers:": 1, "nr_isomers:": 9}

$$$$
_i6
     RDKit          3D

 48 51  0  0  0  0  0  0  0  0999 V2000
   -0.8541   -3.5743   -0.1095 N   0  0  0  0  0  0  0  0  0  0  0  0
   -1.5078   -2.4177    0.3017 C   0  0  0  0  0  0  0  0  0  0  0  0
   -0.7273   -1.3302    0.2483 C   0  0  0  0  0  0  0  0  0  0  0  0
   -0.8031    0.0961    0.5564 C   0  0  0  0  0  0  0  0  0  0  0  0
   -1.9416    0.7248    1.0140 N   0  0  0  0  0  0  0  0  0  0  0  0
   -3.2172    0.5913    0.4215 C   0  0  0  0  0  0  0  0  0  0  0  0
   -4.3465    0.8743    1.1997 C   0  0  0  0  0  0  0  0  0  0  0  0
   -5.6359    0.7992    0.6584 C   0  0  0  0  0  0  0  0  0  0  0  0
   -5.8123    0.4593   -0.6812 C   0  0  0  0  0  0  0  0  0  0  0  0
   -7.0076    0.3487   -1.3345 O   0  0  0  0  0  0  0  0  0  0  0  0
   -8.1816    0.6217   -0.5796 C   0  0  0  0  0  0  0  0  0  0  0  0
   -4.6893    0.2063   -1.4704 C   0  0  0  0  0  0  0  0  0  0  0  0
   -3.4019    0.2815   -0.9292 C   0  0  0  0  0  0  0  0  0  0  0  0
    0.2801    0.8121    0.4307 N   0  0  0  0  0  0  0  0  0  0  0  0
    1.4370    0.2061   -0.0103 C   0  0  0  0  0  0  0  0  0  0  0  0
    2.4491    0.9993   -0.0444 N   0  0  0  0  0  0  0  0  0  0  0  0
    3.7239    0.4472   -0.5034 C   0  0  0  0  0  0  0  0  0  0  0  0
    4.7915    1.5421   -0.4788 C   0  0  0  0  0  0  0  0  0  0  0  0
    5.0898    2.0818    0.9124 C   0  0  0  0  0  0  0  0  0  0  0  0
    6.4963    2.5968    0.7415 C   0  0  0  0  0  0  0  0  0  0  0  0
    7.1045    1.5487   -0.1648 C   0  0  0  0  0  0  0  0  0  0  0  0
    6.0450    1.0318   -0.9824 O   0  0  0  0  0  0  0  0  0  0  0  0
    1.5863   -1.1056   -0.3999 N   0  0  0  0  0  0  0  0  0  0  0  0
    0.5455   -1.8553   -0.2874 C   0  0  0  0  0  0  0  0  0  0  0  0
    0.3966   -3.2075   -0.5977 N   0  0  0  0  0  0  0  0  0  0  0  0
    1.5074   -4.1304   -0.4602 C   0  0  0  0  0  0  0  0  0  0  0  0
   -1.4209   -4.1664   -0.7212 H   0  0  0  0  0  0  0  0  0  0  0  0
   -2.5413   -2.4768    0.6129 H   0  0  0  0  0  0  0  0  0  0  0  0
   -1.7470    1.7103    1.1844 H   0  0  0  0  0  0  0  0  0  0  0  0
   -4.2287    1.1428    2.2476 H   0  0  0  0  0  0  0  0  0  0  0  0
   -6.4756    1.0147    1.3106 H   0  0  0  0  0  0  0  0  0  0  0  0
   -8.2926   -0.0875    0.2472 H   0  0  0  0  0  0  0  0  0  0  0  0
   -9.0425    0.4966   -1.2434 H   0  0  0  0  0  0  0  0  0  0  0  0
   -8.1871    1.6554   -0.2182 H   0  0  0  0  0  0  0  0  0  0  0  0
   -4.8160   -0.0403   -2.5222 H   0  0  0  0  0  0  0  0  0  0  0  0
   -2.5538    0.1114   -1.5875 H   0  0  0  0  0  0  0  0  0  0  0  0
    3.6408    0.0665   -1.5295 H   0  0  0  0  0  0  0  0  0  0  0  0
    4.0483   -0.3886    0.1300 H   0  0  0  0  0  0  0  0  0  0  0  0
    4.4938    2.3660   -1.1400 H   0  0  0  0  0  0  0  0  0  0  0  0
    4.3834    2.8532    1.2316 H   0  0  0  0  0  0  0  0  0  0  0  0
    5.0806    1.2764    1.6569 H   0  0  0  0  0  0  0  0  0  0  0  0
    6.4775    3.5675    0.2319 H   0  0  0  0  0  0  0  0  0  0  0  0
    7.0397    2.7148    1.6825 H   0  0  0  0  0  0  0  0  0  0  0  0
    7.8970    1.9531   -0.8008 H   0  0  0  0  0  0  0  0  0  0  0  0
    7.5142    0.7144    0.4144 H   0  0  0  0  0  0  0  0  0  0  0  0
    2.3693   -3.7848   -1.0399 H   0  0  0  0  0  0  0  0  0  0  0  0
    1.2280   -5.1205   -0.8347 H   0  0  0  0  0  0  0  0  0  0  0  0
    1.8059   -4.2264    0.5890 H   0  0  0  0  0  0  0  0  0  0  0  0
  1  2  1  0
  2  3  2  0
  3  4  1  0
  4  5  1  0
  5  6  1  0
  6  7  2  0
  7  8  1  0
  8  9  2  0
  9 10  1  0
 10 11  1  0
  9 12  1  0
 12 13  2  0
  4 14  2  0
 14 15  1  0
 15 16  2  3
 16 17  1  0
 17 18  1  0
 18 19  1  0
 19 20  1  0
 20 21  1  0
 21 22  1  0
 15 23  1  0
 23 24  2  0
 24 25  1  0
 25 26  1  0
 25  1  1  0
 24  3  1  0
 13  6  1  0
 22 18  1  0
  1 27  1  0
  2 28  1  0
  5 29  1  0
  7 30  1  0
  8 31  1  0
 11 32  1  0
 11 33  1  0
 11 34  1  0
 12 35  1  0
 13 36  1  0
 17 37  1  0
 17 38  1  0
 18 39  1  0
 19 40  1  0
 19 41  1  0
 20 42  1  0
 20 43  1  0
 21 44  1  0
 21 45  1  0
 26 46  1  0
 26 47  1  0
 26 48  1  0
M  END
>  <ScrubInfo>  (7) 
{"isomerGroup": 0, "isomerId": 6, "confId": 0, "nr_conformers:": 1, "nr_isomers:": 9}

$$$$
_i7
     RDKit          3D

 48 51  0  0  0  0  0  0  0  0999 V2000
   -1.6178   -2.7455   -0.5043 N   0  0  0  0  0  0  0  0  0  0  0  0
   -1.2659   -1.4227   -0.3115 C   0  0  0  0  0  0  0  0  0  0  0  0
   -2.2071   -0.5693   -0.0876 N   0  0  0  0  0  0  0  0  0  0  0  0
   -1.8426    0.8350    0.1299 C   0  0  0  0  0  0  0  0  0  0  0  0
   -3.0847    1.6207    0.5652 C   0  0  0  0  0  0  0  0  0  0  0  0
   -2.9063    3.1251    0.4339 C   0  0  0  0  0  0  0  0  0  0  0  0
   -3.9189    3.6374    1.4266 C   0  0  0  0  0  0  0  0  0  0  0  0
   -3.7963    2.6297    2.5495 C   0  0  0  0  0  0  0  0  0  0  0  0
   -3.3726    1.3921    1.9612 O   0  0  0  0  0  0  0  0  0  0  0  0
    0.0979   -1.1927   -0.3952 N   0  0  0  0  0  0  0  0  0  0  0  0
    1.1433   -2.0689   -0.6349 C   0  0  0  0  0  0  0  0  0  0  0  0
    2.4172   -1.8624   -0.7119 N   0  0  0  0  0  0  0  0  0  0  0  0
    2.8792   -0.5544   -0.5290 C   0  0  0  0  0  0  0  0  0  0  0  0
    2.9826    0.3179   -1.6123 C   0  0  0  0  0  0  0  0  0  0  0  0
    3.4221    1.6295   -1.4183 C   0  0  0  0  0  0  0  0  0  0  0  0
    3.7770    2.0800   -0.1440 C   0  0  0  0  0  0  0  0  0  0  0  0
    4.1847    3.3838   -0.0923 O   0  0  0  0  0  0  0  0  0  0  0  0
    4.6361    3.8671    1.1670 C   0  0  0  0  0  0  0  0  0  0  0  0
    3.6920    1.2030    0.9376 C   0  0  0  0  0  0  0  0  0  0  0  0
    3.2491   -0.1101    0.7419 C   0  0  0  0  0  0  0  0  0  0  0  0
    0.6617   -3.4167   -0.8189 C   0  0  0  0  0  0  0  0  0  0  0  0
    1.2561   -4.6599   -1.0790 C   0  0  0  0  0  0  0  0  0  0  0  0
    0.3524   -5.6488   -1.1625 N   0  0  0  0  0  0  0  0  0  0  0  0
   -0.8330   -5.0241   -0.9510 N   0  0  0  0  0  0  0  0  0  0  0  0
   -2.0444   -5.8041   -0.9680 C   0  0  0  0  0  0  0  0  0  0  0  0
   -0.6820   -3.6873   -0.7443 C   0  0  0  0  0  0  0  0  0  0  0  0
   -2.6123   -2.9256   -0.4297 H   0  0  0  0  0  0  0  0  0  0  0  0
   -1.0752    0.9142    0.9093 H   0  0  0  0  0  0  0  0  0  0  0  0
   -1.4555    1.2507   -0.8078 H   0  0  0  0  0  0  0  0  0  0  0  0
   -3.9654    1.2966   -0.0040 H   0  0  0  0  0  0  0  0  0  0  0  0
   -1.8992    3.4290    0.7448 H   0  0  0  0  0  0  0  0  0  0  0  0
   -3.0763    3.4859   -0.5843 H   0  0  0  0  0  0  0  0  0  0  0  0
   -3.7356    4.6644    1.7532 H   0  0  0  0  0  0  0  0  0  0  0  0
   -4.9239    3.5916    0.9907 H   0  0  0  0  0  0  0  0  0  0  0  0
   -3.0312    2.9328    3.2718 H   0  0  0  0  0  0  0  0  0  0  0  0
   -4.7392    2.4807    3.0831 H   0  0  0  0  0  0  0  0  0  0  0  0
    0.3864   -0.2382   -0.2570 H   0  0  0  0  0  0  0  0  0  0  0  0
    2.7234   -0.0246   -2.6105 H   0  0  0  0  0  0  0  0  0  0  0  0
    3.4981    2.3029   -2.2687 H   0  0  0  0  0  0  0  0  0  0  0  0
    5.4996    3.2960    1.5238 H   0  0  0  0  0  0  0  0  0  0  0  0
    4.9559    4.9048    1.0316 H   0  0  0  0  0  0  0  0  0  0  0  0
    3.8259    3.8619    1.9036 H   0  0  0  0  0  0  0  0  0  0  0  0
    3.9649    1.5034    1.9436 H   0  0  0  0  0  0  0  0  0  0  0  0
    3.1935   -0.7932    1.5861 H   0  0  0  0  0  0  0  0  0  0  0  0
    2.3060   -4.8886   -1.2105 H   0  0  0  0  0  0  0  0  0  0  0  0
   -2.9095   -5.1565   -0.8131 H   0  0  0  0  0  0  0  0  0  0  0  0
   -2.1227   -6.2981   -1.9398 H   0  0  0  0  0  0  0  0  0  0  0  0
   -1.9875   -6.5446   -0.1662 H   0  0  0  0  0  0  0  0  0  0  0  0
  1  2  1  0
  2  3  2  3
  3  4  1  0
  4  5  1  0
  5  6  1  0
  6  7  1  0
  7  8  1  0
  8  9  1  0
  2 10  1  0
 10 11  1  0
 11 12  2  3
 12 13  1  0
 13 14  2  0
 14 15  1  0
 15 16  2  0
 16 17  1  0
 17 18  1  0
 16 19  1  0
 19 20  2  0
 11 21  1  0
 21 22  1  0
 22 23  2  0
 23 24  1  0
 24 25  1  0
 24 26  1  0
 26  1  1  0
  9  5  1  0
 20 13  1  0
 26 21  2  0
  1 27  1  0
  4 28  1  0
  4 29  1  0
  5 30  1  0
  6 31  1  0
  6 32  1  0
  7 33  1  0
  7 34  1  0
  8 35  1  0
  8 36  1  0
 10 37  1  0
 14 38  1  0
 15 39  1  0
 18 40  1  0
 18 41  1  0
 18 42  1  0
 19 43  1  0
 20 44  1  0
 22 45  1  0
 25 46  1  0
 25 47  1  0
 25 48  1  0
M  END
>  <ScrubInfo>  (8) 
{"isomerGroup": 0, "isomerId": 7, "confId": 0, "nr_conformers:": 1, "nr_isomers:": 9}

$$$$
_i8
     RDKit          3D

 48 51  0  0  0  0  0  0  0  0999 V2000
   -1.4533   -3.1334    0.3605 N   0  0  0  0  0  0  0  0  0  0  0  0
   -1.9062   -1.8360    0.1507 C   0  0  0  0  0  0  0  0  0  0  0  0
   -0.9212   -0.9292    0.0817 C   0  0  0  0  0  0  0  0  0  0  0  0
   -0.7229    0.5162   -0.1467 C   0  0  0  0  0  0  0  0  0  0  0  0
   -1.6089    1.4504   -0.3308 N   0  0  0  0  0  0  0  0  0  0  0  0
   -2.9736    1.1539   -0.3269 C   0  0  0  0  0  0  0  0  0  0  0  0
   -3.6298    0.8268   -1.5135 C   0  0  0  0  0  0  0  0  0  0  0  0
   -4.9988    0.5480   -1.5058 C   0  0  0  0  0  0  0  0  0  0  0  0
   -5.7314    0.6125   -0.3176 C   0  0  0  0  0  0  0  0  0  0  0  0
   -7.0592    0.3138   -0.4484 O   0  0  0  0  0  0  0  0  0  0  0  0
   -7.8645    0.4390    0.7170 C   0  0  0  0  0  0  0  0  0  0  0  0
   -5.0818    0.9638    0.8661 C   0  0  0  0  0  0  0  0  0  0  0  0
   -3.7096    1.2399    0.8569 C   0  0  0  0  0  0  0  0  0  0  0  0
    0.6017    0.8587   -0.1578 N   0  0  0  0  0  0  0  0  0  0  0  0
    1.6759    0.0339    0.0171 C   0  0  0  0  0  0  0  0  0  0  0  0
    2.8609    0.5440   -0.0622 N   0  0  0  0  0  0  0  0  0  0  0  0
    3.9961   -0.3749    0.1138 C   0  0  0  0  0  0  0  0  0  0  0  0
    5.3254    0.3636   -0.0852 C   0  0  0  0  0  0  0  0  0  0  0  0
    5.5234    1.5875    0.7996 C   0  0  0  0  0  0  0  0  0  0  0  0
    6.4583    2.4243   -0.0376 C   0  0  0  0  0  0  0  0  0  0  0  0
    5.9384    2.1616   -1.4337 C   0  0  0  0  0  0  0  0  0  0  0  0
    5.4855    0.8023   -1.4517 O   0  0  0  0  0  0  0  0  0  0  0  0
    1.5173   -1.3095    0.2844 N   0  0  0  0  0  0  0  0  0  0  0  0
    0.3052   -1.7687    0.3284 C   0  0  0  0  0  0  0  0  0  0  0  0
   -0.0867   -3.0836    0.5936 N   0  0  0  0  0  0  0  0  0  0  0  0
    0.7388   -4.2032    0.1808 C   0  0  0  0  0  0  0  0  0  0  0  0
   -2.0109   -3.6547    1.0407 H   0  0  0  0  0  0  0  0  0  0  0  0
   -2.9707   -1.6765    0.0616 H   0  0  0  0  0  0  0  0  0  0  0  0
   -3.0744    0.7894   -2.4464 H   0  0  0  0  0  0  0  0  0  0  0  0
   -5.4995    0.2880   -2.4352 H   0  0  0  0  0  0  0  0  0  0  0  0
   -7.8549    1.4662    1.0964 H   0  0  0  0  0  0  0  0  0  0  0  0
   -7.5522   -0.2714    1.4894 H   0  0  0  0  0  0  0  0  0  0  0  0
   -8.8948    0.1965    0.4390 H   0  0  0  0  0  0  0  0  0  0  0  0
   -5.6099    1.0391    1.8105 H   0  0  0  0  0  0  0  0  0  0  0  0
   -3.2101    1.5281    1.7781 H   0  0  0  0  0  0  0  0  0  0  0  0
    0.8241    1.8246   -0.3452 H   0  0  0  0  0  0  0  0  0  0  0  0
    3.9377   -1.1824   -0.6264 H   0  0  0  0  0  0  0  0  0  0  0  0
    3.9792   -0.8040    1.1228 H   0  0  0  0  0  0  0  0  0  0  0  0
    6.1419   -0.3469    0.0968 H   0  0  0  0  0  0  0  0  0  0  0  0
    5.9319    1.3343    1.7822 H   0  0  0  0  0  0  0  0  0  0  0  0
    4.5880    2.1362    0.9553 H   0  0  0  0  0  0  0  0  0  0  0  0
    7.4826    2.0456    0.0597 H   0  0  0  0  0  0  0  0  0  0  0  0
    6.4555    3.4847    0.2274 H   0  0  0  0  0  0  0  0  0  0  0  0
    5.0824    2.8043   -1.6663 H   0  0  0  0  0  0  0  0  0  0  0  0
    6.7032    2.3060   -2.2017 H   0  0  0  0  0  0  0  0  0  0  0  0
    0.3157   -5.1439    0.5479 H   0  0  0  0  0  0  0  0  0  0  0  0
    0.8068   -4.2549   -0.9109 H   0  0  0  0  0  0  0  0  0  0  0  0
    1.7493   -4.1096    0.5914 H   0  0  0  0  0  0  0  0  0  0  0  0
  1  2  1  0
  2  3  2  0
  3  4  1  0
  4  5  2  3
  5  6  1  0
  6  7  2  0
  7  8  1  0
  8  9  2  0
  9 10  1  0
 10 11  1  0
  9 12  1  0
 12 13  2  0
  4 14  1  0
 14 15  1  0
 15 16  2  3
 16 17  1  0
 17 18  1  0
 18 19  1  0
 19 20  1  0
 20 21  1  0
 21 22  1  0
 15 23  1  0
 23 24  2  0
 24 25  1  0
 25 26  1  0
 25  1  1  0
 24  3  1  0
 13  6  1  0
 22 18  1  0
  1 27  1  0
  2 28  1  0
  7 29  1  0
  8 30  1  0
 11 31  1  0
 11 32  1  0
 11 33  1  0
 12 34  1  0
 13 35  1  0
 14 36  1  0
 17 37  1  0
 17 38  1  0
 18 39  1  0
 19 40  1  0
 19 41  1  0
 20 42  1  0
 20 43  1  0
 21 44  1  0
 21 45  1  0
 26 46  1  0
 26 47  1  0
 26 48  1  0
M  END
>  <ScrubInfo>  (9) 
{"isomerGroup": 0, "isomerId": 8, "confId": 0, "nr_conformers:": 1, "nr_isomers:": 9}

$$$$
