REMARK SMILES COc1ccc(Nc2nc(NC[C@H]3CCCO3)nc3c2cnn3C)cc1
REMARK SMILES IDX 8 1 9 2 10 3 18 4 19 5 20 6 21 7 22 8 23 9 24 10 7 11 6 13
REMARK SMILES IDX 3 14 4 15 26 16 5 17 25 18 2 19 1 20 11 21 12 23 13 24 14 25
REMARK SMILES IDX 17 26 15 27 16 28
REMARK H PARENT 7 12 11 22
ROOT
ATOM      1  C   UNL     1       0.988  -1.895   0.426  1.00  0.00     0.147 A 
ATOM      2  N   UNL     1       0.117  -0.862   0.276  1.00  0.00    -0.195 NA
ATOM      3  C   UNL     1      -1.212  -1.062   0.328  1.00  0.00     0.226 A 
ATOM      4  N   UNL     1      -1.819  -2.241   0.519  1.00  0.00    -0.193 NA
ATOM      5  C   UNL     1      -0.950  -3.250   0.666  1.00  0.00     0.165 A 
ATOM      6  C   UNL     1       0.428  -3.163   0.631  1.00  0.00     0.082 A 
ATOM      7  C   UNL     1       0.866  -4.489   0.830  1.00  0.00     0.149 A 
ATOM      8  N   UNL     1      -0.142  -5.356   0.979  1.00  0.00    -0.179 NA
ATOM      9  N   UNL     1      -1.240  -4.570   0.880  1.00  0.00    -0.250 N 
ATOM     10  C   UNL     1      -2.549  -5.161   1.002  1.00  0.00     0.176 C 
ENDROOT
BRANCH   1  11
ATOM     11  N   UNL     1       2.378  -1.713   0.362  1.00  0.00    -0.339 N 
ATOM     12  H   UNL     1       2.903  -2.572   0.454  1.00  0.00     0.168 HD
BRANCH  11  13
ATOM     13  C   UNL     1       3.182  -0.567   0.244  1.00  0.00     0.040 A 
ATOM     14  C   UNL     1       4.912   1.663  -0.054  1.00  0.00     0.119 A 
ATOM     15  C   UNL     1       3.543   1.847   0.114  1.00  0.00     0.048 A 
ATOM     16  C   UNL     1       5.418   0.365  -0.077  1.00  0.00     0.048 A 
ATOM     17  C   UNL     1       2.691   0.741   0.258  1.00  0.00     0.030 A 
ATOM     18  C   UNL     1       4.564  -0.735   0.067  1.00  0.00     0.030 A 
BRANCH  14  19
ATOM     19  O   UNL     1       5.848   2.648  -0.205  1.00  0.00    -0.497 OA
ATOM     20  C   UNL     1       5.373   3.988  -0.196  1.00  0.00     0.278 C 
ENDBRANCH  14  19
ENDBRANCH  11  13
ENDBRANCH   1  11
BRANCH   3  21
ATOM     21  N   UNL     1      -1.978   0.087   0.172  1.00  0.00    -0.351 N 
ATOM     22  H   UNL     1      -1.355   0.777  -0.244  1.00  0.00     0.163 HD
BRANCH  21  23
ATOM     23  C   UNL     1      -3.198  -0.106  -0.604  1.00  0.00     0.148 C 
BRANCH  23  24
ATOM     24  C   UNL     1      -3.872   1.245  -0.886  1.00  0.00     0.137 C 
ATOM     25  C   UNL     1      -4.351   1.990   0.351  1.00  0.00     0.036 C 
ATOM     26  O   UNL     1      -2.964   2.135  -1.574  1.00  0.00    -0.376 OA
ATOM     27  C   UNL     1      -4.340   3.418  -0.133  1.00  0.00     0.031 C 
ATOM     28  C   UNL     1      -3.099   3.444  -1.000  1.00  0.00     0.160 C 
ENDBRANCH  23  24
ENDBRANCH  21  23
ENDBRANCH   3  21
TORSDOF 6
