_i0
     RDKit          3D

 39 41  0  0  0  0  0  0  0  0999 V2000
    5.9832    2.5981    0.5059 C   0  0  0  0  0  0  0  0  0  0  0  0
    5.8552    1.2104    0.7889 O   0  0  0  0  0  0  0  0  0  0  0  0
    4.6262    0.6503    0.5794 C   0  0  0  0  0  0  0  0  0  0  0  0
    4.5452   -0.7108    0.8667 C   0  0  0  0  0  0  0  0  0  0  0  0
    3.3426   -1.4050    0.6947 C   0  0  0  0  0  0  0  0  0  0  0  0
    2.1852   -0.7541    0.2441 C   0  0  0  0  0  0  0  0  0  0  0  0
    1.0144   -1.5073    0.0689 N   0  0  0  0  0  0  0  0  0  0  0  0
   -0.3506   -1.1311   -0.0808 C   0  0  0  0  0  0  0  0  0  0  0  0
   -0.7113    0.1664   -0.0717 N   0  0  0  0  0  0  0  0  0  0  0  0
   -1.9953    0.4581   -0.2577 C   0  0  0  0  0  0  0  0  0  0  0  0
   -2.3080    1.8084   -0.2470 N   0  0  0  0  0  0  0  0  0  0  0  0
   -3.6381    2.1480    0.2330 C   0  0  0  0  0  0  0  0  0  0  0  0
   -4.6715    2.1613   -0.8985 C   0  0  0  0  0  0  0  0  0  0  0  0
   -5.9815    2.3722   -0.3733 O   0  0  0  0  0  0  0  0  0  0  0  0
   -2.9441   -0.4554   -0.4389 N   0  0  0  0  0  0  0  0  0  0  0  0
   -2.5871   -1.7326   -0.4467 C   0  0  0  0  0  0  0  0  0  0  0  0
   -3.5573   -2.6382   -0.6243 N   0  0  0  0  0  0  0  0  0  0  0  0
   -3.2135   -3.9461   -0.6294 C   0  0  0  0  0  0  0  0  0  0  0  0
   -1.9154   -4.3661   -0.4493 C   0  0  0  0  0  0  0  0  0  0  0  0
   -0.9138   -3.4876   -0.2582 N   0  0  0  0  0  0  0  0  0  0  0  0
   -1.2668   -2.1629   -0.2685 C   0  0  0  0  0  0  0  0  0  0  0  0
    2.2872    0.6064   -0.0584 C   0  0  0  0  0  0  0  0  0  0  0  0
    3.4913    1.3068    0.1114 C   0  0  0  0  0  0  0  0  0  0  0  0
    5.7986    2.8036   -0.5537 H   0  0  0  0  0  0  0  0  0  0  0  0
    5.3243    3.1943    1.1458 H   0  0  0  0  0  0  0  0  0  0  0  0
    7.0145    2.8903    0.7265 H   0  0  0  0  0  0  0  0  0  0  0  0
    5.4252   -1.2392    1.2246 H   0  0  0  0  0  0  0  0  0  0  0  0
    3.3228   -2.4677    0.9227 H   0  0  0  0  0  0  0  0  0  0  0  0
    1.0760   -2.4741    0.3804 H   0  0  0  0  0  0  0  0  0  0  0  0
   -1.5420    2.2758    0.2274 H   0  0  0  0  0  0  0  0  0  0  0  0
   -3.9620    1.4955    1.0548 H   0  0  0  0  0  0  0  0  0  0  0  0
   -3.6031    3.1541    0.6697 H   0  0  0  0  0  0  0  0  0  0  0  0
   -4.6794    1.2301   -1.4729 H   0  0  0  0  0  0  0  0  0  0  0  0
   -4.4531    2.9750   -1.5982 H   0  0  0  0  0  0  0  0  0  0  0  0
   -6.2629    1.5239    0.0137 H   0  0  0  0  0  0  0  0  0  0  0  0
   -4.0249   -4.6489   -0.7833 H   0  0  0  0  0  0  0  0  0  0  0  0
   -1.6463   -5.4161   -0.4532 H   0  0  0  0  0  0  0  0  0  0  0  0
    1.4346    1.1528   -0.4498 H   0  0  0  0  0  0  0  0  0  0  0  0
    3.5013    2.3617   -0.1404 H   0  0  0  0  0  0  0  0  0  0  0  0
  1  2  1  0
  2  3  1  0
  3  4  2  0
  4  5  1  0
  5  6  2  0
  6  7  1  0
  7  8  1  0
  8  9  2  0
  9 10  1  0
 10 11  1  0
 11 12  1  0
 12 13  1  0
 13 14  1  0
 10 15  2  0
 15 16  1  0
 16 17  2  0
 17 18  1  0
 18 19  2  0
 19 20  1  0
 20 21  2  0
  6 22  1  0
 22 23  2  0
 23  3  1  0
 21  8  1  0
 21 16  1  0
  1 24  1  0
  1 25  1  0
  1 26  1  0
  4 27  1  0
  5 28  1  0
  7 29  1  0
 11 30  1  0
 12 31  1  0
 12 32  1  0
 13 33  1  0
 13 34  1  0
 14 35  1  0
 18 36  1  0
 19 37  1  0
 22 38  1  0
 23 39  1  0
M  END
>  <ScrubInfo>  (1) 
{"isomerGroup": 0, "isomerId": 0, "confId": 0, "nr_conformers:": 1, "nr_isomers:": 9}

$$$$
_i1
     RDKit          3D

 39 41  0  0  0  0  0  0  0  0999 V2000
    1.4238   -1.3470   -1.1282 N   0  0  0  0  0  0  0  0  0  0  0  0
    2.6867   -0.8397   -1.0960 C   0  0  0  0  0  0  0  0  0  0  0  0
    3.6291   -1.7060   -1.5723 N   0  0  0  0  0  0  0  0  0  0  0  0
    5.0247   -1.3149   -1.7919 C   0  0  0  0  0  0  0  0  0  0  0  0
    5.7702   -1.0317   -0.4814 C   0  0  0  0  0  0  0  0  0  0  0  0
    5.6455    0.3290   -0.0804 O   0  0  0  0  0  0  0  0  0  0  0  0
    2.9576    0.3435   -0.6361 N   0  0  0  0  0  0  0  0  0  0  0  0
    1.8581    1.1066   -0.1834 C   0  0  0  0  0  0  0  0  0  0  0  0
    2.1953    2.3403    0.2608 N   0  0  0  0  0  0  0  0  0  0  0  0
    1.1694    3.1049    0.7029 C   0  0  0  0  0  0  0  0  0  0  0  0
   -0.1464    2.6662    0.7071 C   0  0  0  0  0  0  0  0  0  0  0  0
   -0.5041    1.4393    0.2706 N   0  0  0  0  0  0  0  0  0  0  0  0
    0.5221    0.6710   -0.1733 C   0  0  0  0  0  0  0  0  0  0  0  0
    0.2848   -0.7163   -0.6840 C   0  0  0  0  0  0  0  0  0  0  0  0
   -0.8299   -1.3991   -0.7560 N   0  0  0  0  0  0  0  0  0  0  0  0
   -2.0488   -0.8651   -0.3280 C   0  0  0  0  0  0  0  0  0  0  0  0
   -2.4852   -1.0648    0.9836 C   0  0  0  0  0  0  0  0  0  0  0  0
   -3.7255   -0.5725    1.4071 C   0  0  0  0  0  0  0  0  0  0  0  0
   -4.5484    0.1118    0.5119 C   0  0  0  0  0  0  0  0  0  0  0  0
   -5.7772    0.6430    0.7929 O   0  0  0  0  0  0  0  0  0  0  0  0
   -6.2602    0.4745    2.1195 C   0  0  0  0  0  0  0  0  0  0  0  0
   -4.1224    0.2908   -0.8066 C   0  0  0  0  0  0  0  0  0  0  0  0
   -2.8843   -0.2020   -1.2273 C   0  0  0  0  0  0  0  0  0  0  0  0
    1.2874   -2.3154   -1.3764 H   0  0  0  0  0  0  0  0  0  0  0  0
    3.2944   -2.3250   -2.3022 H   0  0  0  0  0  0  0  0  0  0  0  0
    5.5160   -2.1582   -2.2899 H   0  0  0  0  0  0  0  0  0  0  0  0
    5.0670   -0.4539   -2.4682 H   0  0  0  0  0  0  0  0  0  0  0  0
    6.8396   -1.2161   -0.6241 H   0  0  0  0  0  0  0  0  0  0  0  0
    5.4205   -1.6723    0.3346 H   0  0  0  0  0  0  0  0  0  0  0  0
    4.6878    0.5514   -0.1267 H   0  0  0  0  0  0  0  0  0  0  0  0
    1.4373    4.0939    1.0585 H   0  0  0  0  0  0  0  0  0  0  0  0
   -0.9530    3.2967    1.0654 H   0  0  0  0  0  0  0  0  0  0  0  0
   -1.8516   -1.6044    1.6812 H   0  0  0  0  0  0  0  0  0  0  0  0
   -4.0148   -0.7442    2.4377 H   0  0  0  0  0  0  0  0  0  0  0  0
   -7.2447    0.9484    2.1794 H   0  0  0  0  0  0  0  0  0  0  0  0
   -5.6069    0.9721    2.8438 H   0  0  0  0  0  0  0  0  0  0  0  0
   -6.3861   -0.5858    2.3624 H   0  0  0  0  0  0  0  0  0  0  0  0
   -4.7598    0.8151   -1.5135 H   0  0  0  0  0  0  0  0  0  0  0  0
   -2.5680   -0.0644   -2.2564 H   0  0  0  0  0  0  0  0  0  0  0  0
  1  2  1  0
  2  3  1  0
  3  4  1  0
  4  5  1  0
  5  6  1  0
  2  7  2  0
  7  8  1  0
  8  9  2  0
  9 10  1  0
 10 11  2  0
 11 12  1  0
 12 13  2  0
 13 14  1  0
 14 15  2  3
 15 16  1  0
 16 17  2  0
 17 18  1  0
 18 19  2  0
 19 20  1  0
 20 21  1  0
 19 22  1  0
 22 23  2  0
 14  1  1  0
 23 16  1  0
 13  8  1  0
  1 24  1  0
  3 25  1  0
  4 26  1  0
  4 27  1  0
  5 28  1  0
  5 29  1  0
  6 30  1  0
 10 31  1  0
 11 32  1  0
 17 33  1  0
 18 34  1  0
 21 35  1  0
 21 36  1  0
 21 37  1  0
 22 38  1  0
 23 39  1  0
M  END
>  <ScrubInfo>  (2) 
{"isomerGroup": 0, "isomerId": 1, "confId": 0, "nr_conformers:": 1, "nr_isomers:": 9}

$$$$
_i2
     RDKit          3D

 39 41  0  0  0  0  0  0  0  0999 V2000
   -1.5360   -0.3052   -0.4120 N   0  0  0  0  0  0  0  0  0  0  0  0
   -0.6300   -1.0918   -1.0875 C   0  0  0  0  0  0  0  0  0  0  0  0
    0.5687   -1.4852   -0.5037 N   0  0  0  0  0  0  0  0  0  0  0  0
    1.4181   -0.7287    0.3272 C   0  0  0  0  0  0  0  0  0  0  0  0
    2.4001   -1.4057    1.0633 C   0  0  0  0  0  0  0  0  0  0  0  0
    3.2567   -0.7236    1.9374 C   0  0  0  0  0  0  0  0  0  0  0  0
    3.1440    0.6559    2.0897 C   0  0  0  0  0  0  0  0  0  0  0  0
    3.9091    1.4433    2.9034 O   0  0  0  0  0  0  0  0  0  0  0  0
    4.9190    0.7927    3.6645 C   0  0  0  0  0  0  0  0  0  0  0  0
    2.1718    1.3398    1.3596 C   0  0  0  0  0  0  0  0  0  0  0  0
    1.3161    0.6561    0.4888 C   0  0  0  0  0  0  0  0  0  0  0  0
   -0.9526   -1.5377   -2.3256 C   0  0  0  0  0  0  0  0  0  0  0  0
   -0.1256   -2.3590   -3.0663 N   0  0  0  0  0  0  0  0  0  0  0  0
   -0.5728   -2.6589   -4.2405 C   0  0  0  0  0  0  0  0  0  0  0  0
   -1.8788   -2.1633   -4.7649 C   0  0  0  0  0  0  0  0  0  0  0  0
   -2.6677   -1.4076   -4.0826 N   0  0  0  0  0  0  0  0  0  0  0  0
   -2.2927   -1.0375   -2.8119 C   0  0  0  0  0  0  0  0  0  0  0  0
   -3.1249   -0.2978   -2.1618 N   0  0  0  0  0  0  0  0  0  0  0  0
   -2.7584    0.0660   -0.8950 C   0  0  0  0  0  0  0  0  0  0  0  0
   -3.6551    0.7559   -0.2883 N   0  0  0  0  0  0  0  0  0  0  0  0
   -3.4358    1.2417    1.0742 C   0  0  0  0  0  0  0  0  0  0  0  0
   -2.7561    2.6093    1.0160 C   0  0  0  0  0  0  0  0  0  0  0  0
   -3.5179    3.4927    0.1973 O   0  0  0  0  0  0  0  0  0  0  0  0
   -1.3010   -0.1365    0.5529 H   0  0  0  0  0  0  0  0  0  0  0  0
    1.0856   -2.1288   -1.1068 H   0  0  0  0  0  0  0  0  0  0  0  0
    2.4967   -2.4856    0.9722 H   0  0  0  0  0  0  0  0  0  0  0  0
    3.9938   -1.3025    2.4834 H   0  0  0  0  0  0  0  0  0  0  0  0
    4.4831    0.0705    4.3628 H   0  0  0  0  0  0  0  0  0  0  0  0
    5.4367    1.5553    4.2542 H   0  0  0  0  0  0  0  0  0  0  0  0
    5.6590    0.3162    3.0129 H   0  0  0  0  0  0  0  0  0  0  0  0
    2.0832    2.4191    1.4618 H   0  0  0  0  0  0  0  0  0  0  0  0
    0.5994    1.2377   -0.0839 H   0  0  0  0  0  0  0  0  0  0  0  0
   -0.0054   -3.3058   -4.9271 H   0  0  0  0  0  0  0  0  0  0  0  0
   -2.1297   -2.4888   -5.7858 H   0  0  0  0  0  0  0  0  0  0  0  0
   -2.8727    0.5408    1.6984 H   0  0  0  0  0  0  0  0  0  0  0  0
   -4.4222    1.3515    1.5394 H   0  0  0  0  0  0  0  0  0  0  0  0
   -1.7526    2.5338    0.5863 H   0  0  0  0  0  0  0  0  0  0  0  0
   -2.6742    3.0457    2.0155 H   0  0  0  0  0  0  0  0  0  0  0  0
   -3.8789    2.9263   -0.5174 H   0  0  0  0  0  0  0  0  0  0  0  0
  1  2  1  0
  2  3  1  0
  3  4  1  0
  4  5  2  0
  5  6  1  0
  6  7  2  0
  7  8  1  0
  8  9  1  0
  7 10  1  0
 10 11  2  0
  2 12  2  0
 12 13  1  0
 13 14  2  0
 14 15  1  0
 15 16  2  0
 16 17  1  0
 17 18  2  0
 18 19  1  0
 19 20  2  3
 20 21  1  0
 21 22  1  0
 22 23  1  0
 19  1  1  0
 11  4  1  0
 17 12  1  0
  1 24  1  0
  3 25  1  0
  5 26  1  0
  6 27  1  0
  9 28  1  0
  9 29  1  0
  9 30  1  0
 10 31  1  0
 11 32  1  0
 14 33  1  0
 15 34  1  0
 21 35  1  0
 21 36  1  0
 22 37  1  0
 22 38  1  0
 23 39  1  0
M  END
>  <ScrubInfo>  (3) 
{"isomerGroup": 0, "isomerId": 2, "confId": 0, "nr_conformers:": 1, "nr_isomers:": 9}

$$$$
_i3
     RDKit          3D

 39 41  0  0  0  0  0  0  0  0999 V2000
   -2.8470   -0.1655   -0.8447 N   0  0  0  0  0  0  0  0  0  0  0  0
   -2.7329    0.8479    0.0565 C   0  0  0  0  0  0  0  0  0  0  0  0
   -3.5989    1.7713    0.2799 N   0  0  0  0  0  0  0  0  0  0  0  0
   -4.8174    1.8527   -0.5301 C   0  0  0  0  0  0  0  0  0  0  0  0
   -5.8313    0.7720   -0.1588 C   0  0  0  0  0  0  0  0  0  0  0  0
   -5.5082   -0.4488   -0.8320 O   0  0  0  0  0  0  0  0  0  0  0  0
   -1.6083    0.9835    0.8373 N   0  0  0  0  0  0  0  0  0  0  0  0
   -0.6371    0.1115    0.7365 C   0  0  0  0  0  0  0  0  0  0  0  0
    0.4711    0.3209    1.5396 N   0  0  0  0  0  0  0  0  0  0  0  0
    1.7977    0.4012    1.0484 C   0  0  0  0  0  0  0  0  0  0  0  0
    2.8523    0.2364    1.9554 C   0  0  0  0  0  0  0  0  0  0  0  0
    4.1860    0.3573    1.5457 C   0  0  0  0  0  0  0  0  0  0  0  0
    4.4839    0.6655    0.2199 C   0  0  0  0  0  0  0  0  0  0  0  0
    5.7347    0.8134   -0.3122 O   0  0  0  0  0  0  0  0  0  0  0  0
    6.8338    0.6222    0.5694 C   0  0  0  0  0  0  0  0  0  0  0  0
    3.4374    0.8572   -0.6836 C   0  0  0  0  0  0  0  0  0  0  0  0
    2.1056    0.7355   -0.2737 C   0  0  0  0  0  0  0  0  0  0  0  0
   -0.7386   -1.0830   -0.1552 C   0  0  0  0  0  0  0  0  0  0  0  0
    0.2389   -2.0266   -0.1469 N   0  0  0  0  0  0  0  0  0  0  0  0
    0.0072   -3.0782   -0.9599 C   0  0  0  0  0  0  0  0  0  0  0  0
   -1.1445   -3.1850   -1.7253 C   0  0  0  0  0  0  0  0  0  0  0  0
   -2.1217   -2.2446   -1.7162 N   0  0  0  0  0  0  0  0  0  0  0  0
   -1.9040   -1.1772   -0.9103 C   0  0  0  0  0  0  0  0  0  0  0  0
   -3.7438   -0.3618   -1.2761 H   0  0  0  0  0  0  0  0  0  0  0  0
   -5.2642    2.8331   -0.3307 H   0  0  0  0  0  0  0  0  0  0  0  0
   -4.5745    1.8233   -1.5991 H   0  0  0  0  0  0  0  0  0  0  0  0
   -6.8310    1.0706   -0.4893 H   0  0  0  0  0  0  0  0  0  0  0  0
   -5.8484    0.5880    0.9200 H   0  0  0  0  0  0  0  0  0  0  0  0
   -6.1664   -1.1041   -0.5353 H   0  0  0  0  0  0  0  0  0  0  0  0
    0.3027    1.1343    2.1291 H   0  0  0  0  0  0  0  0  0  0  0  0
    2.6373   -0.0067    2.9936 H   0  0  0  0  0  0  0  0  0  0  0  0
    4.9618    0.2050    2.2880 H   0  0  0  0  0  0  0  0  0  0  0  0
    7.7531    0.7685   -0.0059 H   0  0  0  0  0  0  0  0  0  0  0  0
    6.8254    1.3617    1.3769 H   0  0  0  0  0  0  0  0  0  0  0  0
    6.8488   -0.3981    0.9668 H   0  0  0  0  0  0  0  0  0  0  0  0
    3.6588    1.1108   -1.7174 H   0  0  0  0  0  0  0  0  0  0  0  0
    1.3209    0.9170   -1.0022 H   0  0  0  0  0  0  0  0  0  0  0  0
    0.7761   -3.8427   -0.9809 H   0  0  0  0  0  0  0  0  0  0  0  0
   -1.3151   -4.0384   -2.3727 H   0  0  0  0  0  0  0  0  0  0  0  0
  1  2  1  0
  2  3  2  3
  3  4  1  0
  4  5  1  0
  5  6  1  0
  2  7  1  0
  7  8  2  0
  8  9  1  0
  9 10  1  0
 10 11  2  0
 11 12  1  0
 12 13  2  0
 13 14  1  0
 14 15  1  0
 13 16  1  0
 16 17  2  0
  8 18  1  0
 18 19  2  0
 19 20  1  0
 20 21  2  0
 21 22  1  0
 22 23  2  0
 23  1  1  0
 17 10  1  0
 23 18  1  0
  1 24  1  0
  4 25  1  0
  4 26  1  0
  5 27  1  0
  5 28  1  0
  6 29  1  0
  9 30  1  0
 11 31  1  0
 12 32  1  0
 15 33  1  0
 15 34  1  0
 15 35  1  0
 16 36  1  0
 17 37  1  0
 20 38  1  0
 21 39  1  0
M  END
>  <ScrubInfo>  (4) 
{"isomerGroup": 0, "isomerId": 3, "confId": 0, "nr_conformers:": 1, "nr_isomers:": 9}

$$$$
_i4
     RDKit          3D

 39 41  0  0  0  0  0  0  0  0999 V2000
   -2.4786   -1.7968    0.0422 N   0  0  0  0  0  0  0  0  0  0  0  0
   -1.7860   -0.6338    0.0738 C   0  0  0  0  0  0  0  0  0  0  0  0
   -2.5394    0.5016    0.0937 N   0  0  0  0  0  0  0  0  0  0  0  0
   -3.6531    0.7284   -0.8232 C   0  0  0  0  0  0  0  0  0  0  0  0
   -4.1941    2.1480   -0.6284 C   0  0  0  0  0  0  0  0  0  0  0  0
   -3.1738    3.0962   -0.9368 O   0  0  0  0  0  0  0  0  0  0  0  0
   -0.4944   -0.5296    0.1027 N   0  0  0  0  0  0  0  0  0  0  0  0
    0.2709   -1.6862    0.0781 C   0  0  0  0  0  0  0  0  0  0  0  0
    1.5702   -1.6232    0.0304 N   0  0  0  0  0  0  0  0  0  0  0  0
    2.1943   -0.3695   -0.0005 C   0  0  0  0  0  0  0  0  0  0  0  0
    2.5984    0.2469    1.1855 C   0  0  0  0  0  0  0  0  0  0  0  0
    3.2538    1.4838    1.1624 C   0  0  0  0  0  0  0  0  0  0  0  0
    3.5211    2.1102   -0.0555 C   0  0  0  0  0  0  0  0  0  0  0  0
    4.1512    3.3134   -0.2206 O   0  0  0  0  0  0  0  0  0  0  0  0
    4.5697    3.9837    0.9611 C   0  0  0  0  0  0  0  0  0  0  0  0
    3.1318    1.4865   -1.2436 C   0  0  0  0  0  0  0  0  0  0  0  0
    2.4783    0.2515   -1.2171 C   0  0  0  0  0  0  0  0  0  0  0  0
   -0.4064   -3.0168    0.1123 C   0  0  0  0  0  0  0  0  0  0  0  0
    0.3322   -4.1605    0.1620 N   0  0  0  0  0  0  0  0  0  0  0  0
   -0.3920   -5.2974    0.2160 C   0  0  0  0  0  0  0  0  0  0  0  0
   -1.7791   -5.2948    0.2229 C   0  0  0  0  0  0  0  0  0  0  0  0
   -2.5129   -4.1549    0.1726 N   0  0  0  0  0  0  0  0  0  0  0  0
   -1.7995   -3.0034    0.1146 C   0  0  0  0  0  0  0  0  0  0  0  0
   -3.4749   -1.8421    0.1619 H   0  0  0  0  0  0  0  0  0  0  0  0
   -1.9135    1.3119    0.0689 H   0  0  0  0  0  0  0  0  0  0  0  0
   -3.2971    0.6081   -1.8527 H   0  0  0  0  0  0  0  0  0  0  0  0
   -4.4555    0.0072   -0.6391 H   0  0  0  0  0  0  0  0  0  0  0  0
   -4.5101    2.3055    0.4081 H   0  0  0  0  0  0  0  0  0  0  0  0
   -5.0441    2.3250   -1.2941 H   0  0  0  0  0  0  0  0  0  0  0  0
   -3.5347    3.9797   -0.7465 H   0  0  0  0  0  0  0  0  0  0  0  0
    2.3963   -0.2430    2.1334 H   0  0  0  0  0  0  0  0  0  0  0  0
    3.5406    1.9232    2.1108 H   0  0  0  0  0  0  0  0  0  0  0  0
    5.3090    3.3916    1.5106 H   0  0  0  0  0  0  0  0  0  0  0  0
    5.0502    4.9202    0.6618 H   0  0  0  0  0  0  0  0  0  0  0  0
    3.7140    4.2372    1.5958 H   0  0  0  0  0  0  0  0  0  0  0  0
    3.3402    1.9626   -2.1977 H   0  0  0  0  0  0  0  0  0  0  0  0
    2.1856   -0.2292   -2.1453 H   0  0  0  0  0  0  0  0  0  0  0  0
    0.1751   -6.2210    0.2558 H   0  0  0  0  0  0  0  0  0  0  0  0
   -2.3435   -6.2201    0.2685 H   0  0  0  0  0  0  0  0  0  0  0  0
  1  2  1  0
  2  3  1  0
  3  4  1  0
  4  5  1  0
  5  6  1  0
  2  7  2  0
  7  8  1  0
  8  9  2  3
  9 10  1  0
 10 11  2  0
 11 12  1  0
 12 13  2  0
 13 14  1  0
 14 15  1  0
 13 16  1  0
 16 17  2  0
  8 18  1  0
 18 19  2  0
 19 20  1  0
 20 21  2  0
 21 22  1  0
 22 23  2  0
 23  1  1  0
 17 10  1  0
 23 18  1  0
  1 24  1  0
  3 25  1  0
  4 26  1  0
  4 27  1  0
  5 28  1  0
  5 29  1  0
  6 30  1  0
 11 31  1  0
 12 32  1  0
 15 33  1  0
 15 34  1  0
 15 35  1  0
 16 36  1  0
 17 37  1  0
 20 38  1  0
 21 39  1  0
M  END
>  <ScrubInfo>  (5) 
{"isomerGroup": 0, "isomerId": 4, "confId": 0, "nr_conformers:": 1, "nr_isomers:": 9}

$$$$
_i5
     RDKit          3D

 39 41  0  0  0  0  0  0  0  0999 V2000
   -3.3938   -3.2524    0.2865 N   0  0  0  0  0  0  0  0  0  0  0  0
   -2.7782   -4.3560    0.8114 C   0  0  0  0  0  0  0  0  0  0  0  0
   -1.4732   -4.3337    1.1304 C   0  0  0  0  0  0  0  0  0  0  0  0
   -0.6577   -3.2296    0.9635 N   0  0  0  0  0  0  0  0  0  0  0  0
   -1.2217   -2.1586    0.4589 C   0  0  0  0  0  0  0  0  0  0  0  0
   -0.3959   -0.9160    0.2501 C   0  0  0  0  0  0  0  0  0  0  0  0
    0.9259   -1.0196    0.6299 N   0  0  0  0  0  0  0  0  0  0  0  0
    1.9612   -0.0746    0.5826 C   0  0  0  0  0  0  0  0  0  0  0  0
    3.2352   -0.4567    1.0353 C   0  0  0  0  0  0  0  0  0  0  0  0
    4.3208    0.4306    1.0193 C   0  0  0  0  0  0  0  0  0  0  0  0
    4.1534    1.7282    0.5465 C   0  0  0  0  0  0  0  0  0  0  0  0
    5.1185    2.6927    0.4743 O   0  0  0  0  0  0  0  0  0  0  0  0
    6.4200    2.3353    0.9209 C   0  0  0  0  0  0  0  0  0  0  0  0
    2.8950    2.1210    0.0942 C   0  0  0  0  0  0  0  0  0  0  0  0
    1.8127    1.2313    0.1117 C   0  0  0  0  0  0  0  0  0  0  0  0
   -0.9941    0.1105   -0.2558 N   0  0  0  0  0  0  0  0  0  0  0  0
   -2.3198    0.0523   -0.5834 C   0  0  0  0  0  0  0  0  0  0  0  0
   -2.7690    1.1435   -1.0927 N   0  0  0  0  0  0  0  0  0  0  0  0
   -4.1831    1.1833   -1.4827 C   0  0  0  0  0  0  0  0  0  0  0  0
   -4.4736    2.5779   -2.0367 C   0  0  0  0  0  0  0  0  0  0  0  0
   -3.5976    2.8502   -3.1292 O   0  0  0  0  0  0  0  0  0  0  0  0
   -3.1648   -1.0151   -0.4243 N   0  0  0  0  0  0  0  0  0  0  0  0
   -2.6796   -2.1013    0.0714 C   0  0  0  0  0  0  0  0  0  0  0  0
   -4.3747   -3.2849    0.0405 H   0  0  0  0  0  0  0  0  0  0  0  0
   -3.4038   -5.2317    0.9485 H   0  0  0  0  0  0  0  0  0  0  0  0
   -0.9973   -5.2187    1.5465 H   0  0  0  0  0  0  0  0  0  0  0  0
    1.1834   -1.9303    1.0033 H   0  0  0  0  0  0  0  0  0  0  0  0
    3.4024   -1.4637    1.4113 H   0  0  0  0  0  0  0  0  0  0  0  0
    5.2778    0.0726    1.3828 H   0  0  0  0  0  0  0  0  0  0  0  0
    6.4146    2.0740    1.9842 H   0  0  0  0  0  0  0  0  0  0  0  0
    7.0679    3.2084    0.7961 H   0  0  0  0  0  0  0  0  0  0  0  0
    6.8359    1.5229    0.3158 H   0  0  0  0  0  0  0  0  0  0  0  0
    2.7468    3.1318   -0.2789 H   0  0  0  0  0  0  0  0  0  0  0  0
    0.8579    1.5971   -0.2539 H   0  0  0  0  0  0  0  0  0  0  0  0
   -4.8403    0.9918   -0.6272 H   0  0  0  0  0  0  0  0  0  0  0  0
   -4.3727    0.4430   -2.2692 H   0  0  0  0  0  0  0  0  0  0  0  0
   -5.5052    2.6487   -2.3930 H   0  0  0  0  0  0  0  0  0  0  0  0
   -4.3122    3.3459   -1.2734 H   0  0  0  0  0  0  0  0  0  0  0  0
   -2.7212    2.5501   -2.8110 H   0  0  0  0  0  0  0  0  0  0  0  0
  1  2  1  0
  2  3  2  0
  3  4  1  0
  4  5  2  0
  5  6  1  0
  6  7  1  0
  7  8  1  0
  8  9  2  0
  9 10  1  0
 10 11  2  0
 11 12  1  0
 12 13  1  0
 11 14  1  0
 14 15  2  0
  6 16  2  0
 16 17  1  0
 17 18  2  3
 18 19  1  0
 19 20  1  0
 20 21  1  0
 17 22  1  0
 22 23  2  0
 23  1  1  0
 23  5  1  0
 15  8  1  0
  1 24  1  0
  2 25  1  0
  3 26  1  0
  7 27  1  0
  9 28  1  0
 10 29  1  0
 13 30  1  0
 13 31  1  0
 13 32  1  0
 14 33  1  0
 15 34  1  0
 19 35  1  0
 19 36  1  0
 20 37  1  0
 20 38  1  0
 21 39  1  0
M  END
>  <ScrubInfo>  (6) 
{"isomerGroup": 0, "isomerId": 5, "confId": 0, "nr_conformers:": 1, "nr_isomers:": 9}

$$$$
_i6
     RDKit          3D

 39 41  0  0  0  0  0  0  0  0999 V2000
   -1.7133    2.7993    0.3904 N   0  0  0  0  0  0  0  0  0  0  0  0
   -0.5402    3.5009    0.3504 C   0  0  0  0  0  0  0  0  0  0  0  0
    0.6300    2.8698    0.1668 C   0  0  0  0  0  0  0  0  0  0  0  0
    0.7491    1.5034    0.0217 N   0  0  0  0  0  0  0  0  0  0  0  0
   -0.3495    0.7928    0.0560 C   0  0  0  0  0  0  0  0  0  0  0  0
   -0.4034   -0.7072   -0.0557 C   0  0  0  0  0  0  0  0  0  0  0  0
    0.6004   -1.5303   -0.0009 N   0  0  0  0  0  0  0  0  0  0  0  0
    1.9093   -1.0891    0.1995 C   0  0  0  0  0  0  0  0  0  0  0  0
    2.4128   -0.9252    1.4908 C   0  0  0  0  0  0  0  0  0  0  0  0
    3.7376   -0.5252    1.6850 C   0  0  0  0  0  0  0  0  0  0  0  0
    4.5806   -0.3024    0.5934 C   0  0  0  0  0  0  0  0  0  0  0  0
    5.8506    0.0860    0.9214 O   0  0  0  0  0  0  0  0  0  0  0  0
    6.7487    0.3147   -0.1567 C   0  0  0  0  0  0  0  0  0  0  0  0
    4.0877   -0.4920   -0.6981 C   0  0  0  0  0  0  0  0  0  0  0  0
    2.7599   -0.8923   -0.8904 C   0  0  0  0  0  0  0  0  0  0  0  0
   -1.6214   -1.3144   -0.2162 N   0  0  0  0  0  0  0  0  0  0  0  0
   -2.7115   -0.6191   -0.1249 C   0  0  0  0  0  0  0  0  0  0  0  0
   -3.8721   -1.3188   -0.2753 N   0  0  0  0  0  0  0  0  0  0  0  0
   -5.0952   -0.7208   -0.7851 C   0  0  0  0  0  0  0  0  0  0  0  0
   -6.3026   -1.5594   -0.3611 C   0  0  0  0  0  0  0  0  0  0  0  0
   -6.1824   -2.9015   -0.8294 O   0  0  0  0  0  0  0  0  0  0  0  0
   -2.7831    0.7256    0.1064 N   0  0  0  0  0  0  0  0  0  0  0  0
   -1.7106    1.4405    0.1934 C   0  0  0  0  0  0  0  0  0  0  0  0
   -2.5950    3.2901    0.4509 H   0  0  0  0  0  0  0  0  0  0  0  0
   -0.6184    4.5761    0.4679 H   0  0  0  0  0  0  0  0  0  0  0  0
    1.5606    3.4310    0.1344 H   0  0  0  0  0  0  0  0  0  0  0  0
    1.7732   -1.1107    2.3481 H   0  0  0  0  0  0  0  0  0  0  0  0
    4.1157   -0.3918    2.6950 H   0  0  0  0  0  0  0  0  0  0  0  0
    7.7113    0.6150    0.2683 H   0  0  0  0  0  0  0  0  0  0  0  0
    6.9119   -0.6002   -0.7359 H   0  0  0  0  0  0  0  0  0  0  0  0
    6.3983    1.1315   -0.7964 H   0  0  0  0  0  0  0  0  0  0  0  0
    4.7046   -0.3421   -1.5768 H   0  0  0  0  0  0  0  0  0  0  0  0
    2.3833   -1.0495   -1.8970 H   0  0  0  0  0  0  0  0  0  0  0  0
   -3.6770   -2.2378   -0.6606 H   0  0  0  0  0  0  0  0  0  0  0  0
   -5.2314    0.2994   -0.4112 H   0  0  0  0  0  0  0  0  0  0  0  0
   -5.0336   -0.6827   -1.8782 H   0  0  0  0  0  0  0  0  0  0  0  0
   -7.2182   -1.1361   -0.7852 H   0  0  0  0  0  0  0  0  0  0  0  0
   -6.4093   -1.5816    0.7289 H   0  0  0  0  0  0  0  0  0  0  0  0
   -5.5573   -3.3457   -0.2290 H   0  0  0  0  0  0  0  0  0  0  0  0
  1  2  1  0
  2  3  2  0
  3  4  1  0
  4  5  2  0
  5  6  1  0
  6  7  2  3
  7  8  1  0
  8  9  2  0
  9 10  1  0
 10 11  2  0
 11 12  1  0
 12 13  1  0
 11 14  1  0
 14 15  2  0
  6 16  1  0
 16 17  2  0
 17 18  1  0
 18 19  1  0
 19 20  1  0
 20 21  1  0
 17 22  1  0
 22 23  2  0
 23  1  1  0
 23  5  1  0
 15  8  1  0
  1 24  1  0
  2 25  1  0
  3 26  1  0
  9 27  1  0
 10 28  1  0
 13 29  1  0
 13 30  1  0
 13 31  1  0
 14 32  1  0
 15 33  1  0
 18 34  1  0
 19 35  1  0
 19 36  1  0
 20 37  1  0
 20 38  1  0
 21 39  1  0
M  END
>  <ScrubInfo>  (7) 
{"isomerGroup": 0, "isomerId": 6, "confId": 0, "nr_conformers:": 1, "nr_isomers:": 9}

$$$$
_i7
     RDKit          3D

 39 41  0  0  0  0  0  0  0  0999 V2000
   -2.7196   -0.2860   -0.7170 N   0  0  0  0  0  0  0  0  0  0  0  0
   -1.8025    0.5380   -0.1314 C   0  0  0  0  0  0  0  0  0  0  0  0
   -2.0174    1.6296    0.5219 N   0  0  0  0  0  0  0  0  0  0  0  0
   -3.3874    2.1535    0.6179 C   0  0  0  0  0  0  0  0  0  0  0  0
   -4.2577    1.3432    1.5778 C   0  0  0  0  0  0  0  0  0  0  0  0
   -4.8060    0.2099    0.8991 O   0  0  0  0  0  0  0  0  0  0  0  0
   -0.5091    0.1201   -0.2874 N   0  0  0  0  0  0  0  0  0  0  0  0
   -0.0179   -0.9884   -0.9496 C   0  0  0  0  0  0  0  0  0  0  0  0
    1.2371   -1.3128   -1.0887 N   0  0  0  0  0  0  0  0  0  0  0  0
    2.2246   -0.4898   -0.5377 C   0  0  0  0  0  0  0  0  0  0  0  0
    2.7450    0.5787   -1.2672 C   0  0  0  0  0  0  0  0  0  0  0  0
    3.7267    1.4001   -0.7077 C   0  0  0  0  0  0  0  0  0  0  0  0
    4.2093    1.1554    0.5807 C   0  0  0  0  0  0  0  0  0  0  0  0
    5.1661    2.0336    1.0087 O   0  0  0  0  0  0  0  0  0  0  0  0
    5.7165    1.8053    2.2997 C   0  0  0  0  0  0  0  0  0  0  0  0
    3.7027    0.0758    1.3049 C   0  0  0  0  0  0  0  0  0  0  0  0
    2.7178   -0.7446    0.7429 C   0  0  0  0  0  0  0  0  0  0  0  0
   -1.0674   -1.8774   -1.5426 C   0  0  0  0  0  0  0  0  0  0  0  0
   -0.6956   -3.0199   -2.1801 N   0  0  0  0  0  0  0  0  0  0  0  0
   -1.7220   -3.7607   -2.6450 C   0  0  0  0  0  0  0  0  0  0  0  0
   -3.0462   -3.3849   -2.4761 C   0  0  0  0  0  0  0  0  0  0  0  0
   -3.4130   -2.2465   -1.8364 N   0  0  0  0  0  0  0  0  0  0  0  0
   -2.3998   -1.4789   -1.3648 C   0  0  0  0  0  0  0  0  0  0  0  0
   -3.7112   -0.1499   -0.5386 H   0  0  0  0  0  0  0  0  0  0  0  0
   -3.3046    3.1764    1.0020 H   0  0  0  0  0  0  0  0  0  0  0  0
   -3.8437    2.2203   -0.3771 H   0  0  0  0  0  0  0  0  0  0  0  0
   -5.0986    1.9536    1.9213 H   0  0  0  0  0  0  0  0  0  0  0  0
   -3.6870    0.9958    2.4447 H   0  0  0  0  0  0  0  0  0  0  0  0
   -5.3310   -0.2775    1.5601 H   0  0  0  0  0  0  0  0  0  0  0  0
    0.1686    0.7446    0.1292 H   0  0  0  0  0  0  0  0  0  0  0  0
    2.3870    0.7692   -2.2750 H   0  0  0  0  0  0  0  0  0  0  0  0
    4.1236    2.2322   -1.2837 H   0  0  0  0  0  0  0  0  0  0  0  0
    6.2191    0.8336    2.3490 H   0  0  0  0  0  0  0  0  0  0  0  0
    6.4684    2.5786    2.4840 H   0  0  0  0  0  0  0  0  0  0  0  0
    4.9500    1.8945    3.0766 H   0  0  0  0  0  0  0  0  0  0  0  0
    4.0526   -0.1609    2.3037 H   0  0  0  0  0  0  0  0  0  0  0  0
    2.3331   -1.5924    1.3037 H   0  0  0  0  0  0  0  0  0  0  0  0
   -1.4527   -4.6757   -3.1610 H   0  0  0  0  0  0  0  0  0  0  0  0
   -3.8579   -3.9958   -2.8562 H   0  0  0  0  0  0  0  0  0  0  0  0
  1  2  1  0
  2  3  2  3
  3  4  1  0
  4  5  1  0
  5  6  1  0
  2  7  1  0
  7  8  1  0
  8  9  2  3
  9 10  1  0
 10 11  2  0
 11 12  1  0
 12 13  2  0
 13 14  1  0
 14 15  1  0
 13 16  1  0
 16 17  2  0
  8 18  1  0
 18 19  2  0
 19 20  1  0
 20 21  2  0
 21 22  1  0
 22 23  2  0
 23  1  1  0
 17 10  1  0
 23 18  1  0
  1 24  1  0
  4 25  1  0
  4 26  1  0
  5 27  1  0
  5 28  1  0
  6 29  1  0
  7 30  1  0
 11 31  1  0
 12 32  1  0
 15 33  1  0
 15 34  1  0
 15 35  1  0
 16 36  1  0
 17 37  1  0
 20 38  1  0
 21 39  1  0
M  END
>  <ScrubInfo>  (8) 
{"isomerGroup": 0, "isomerId": 7, "confId": 0, "nr_conformers:": 1, "nr_isomers:": 9}

$$$$
_i8
     RDKit          3D

 39 41  0  0  0  0  0  0  0  0999 V2000
   -3.5742    2.7518    0.6189 N   0  0  0  0  0  0  0  0  0  0  0  0
   -3.2804    3.8887    1.3188 C   0  0  0  0  0  0  0  0  0  0  0  0
   -2.0193    4.1724    1.6801 C   0  0  0  0  0  0  0  0  0  0  0  0
   -0.9352    3.3716    1.3881 N   0  0  0  0  0  0  0  0  0  0  0  0
   -1.1622    2.2723    0.7149 C   0  0  0  0  0  0  0  0  0  0  0  0
   -0.0347    1.3298    0.3442 C   0  0  0  0  0  0  0  0  0  0  0  0
    1.1740    1.6246    0.7129 N   0  0  0  0  0  0  0  0  0  0  0  0
    2.2098    0.7508    0.3663 C   0  0  0  0  0  0  0  0  0  0  0  0
    2.5826   -0.2791    1.2320 C   0  0  0  0  0  0  0  0  0  0  0  0
    3.6110   -1.1637    0.8873 C   0  0  0  0  0  0  0  0  0  0  0  0
    4.2827   -1.0154   -0.3265 C   0  0  0  0  0  0  0  0  0  0  0  0
    5.2987   -1.8063   -0.7862 O   0  0  0  0  0  0  0  0  0  0  0  0
    5.7148   -2.8737    0.0564 C   0  0  0  0  0  0  0  0  0  0  0  0
    3.9213    0.0271   -1.1838 C   0  0  0  0  0  0  0  0  0  0  0  0
    2.8952    0.9096   -0.8377 C   0  0  0  0  0  0  0  0  0  0  0  0
   -0.4819    0.2496   -0.3606 N   0  0  0  0  0  0  0  0  0  0  0  0
   -1.7587   -0.0383   -0.7264 C   0  0  0  0  0  0  0  0  0  0  0  0
   -1.9652   -1.1248   -1.3888 N   0  0  0  0  0  0  0  0  0  0  0  0
   -3.3352   -1.4640   -1.7988 C   0  0  0  0  0  0  0  0  0  0  0  0
   -4.0985   -2.1575   -0.6684 C   0  0  0  0  0  0  0  0  0  0  0  0
   -3.5909   -3.4724   -0.4505 O   0  0  0  0  0  0  0  0  0  0  0  0
   -2.8094    0.7848   -0.4061 N   0  0  0  0  0  0  0  0  0  0  0  0
   -2.5789    1.8751    0.2635 C   0  0  0  0  0  0  0  0  0  0  0  0
   -4.5269    2.5603    0.3406 H   0  0  0  0  0  0  0  0  0  0  0  0
   -4.1186    4.5341    1.5574 H   0  0  0  0  0  0  0  0  0  0  0  0
   -1.7981    5.0799    2.2365 H   0  0  0  0  0  0  0  0  0  0  0  0
    2.0715   -0.3903    2.1848 H   0  0  0  0  0  0  0  0  0  0  0  0
    3.8638   -1.9496    1.5908 H   0  0  0  0  0  0  0  0  0  0  0  0
    6.1043   -2.4968    1.0078 H   0  0  0  0  0  0  0  0  0  0  0  0
    4.9019   -3.5896    0.2169 H   0  0  0  0  0  0  0  0  0  0  0  0
    6.5281   -3.4020   -0.4504 H   0  0  0  0  0  0  0  0  0  0  0  0
    4.4482    0.1576   -2.1259 H   0  0  0  0  0  0  0  0  0  0  0  0
    2.6342    1.7251   -1.5064 H   0  0  0  0  0  0  0  0  0  0  0  0
    0.1924   -0.4430   -0.6554 H   0  0  0  0  0  0  0  0  0  0  0  0
   -3.8816   -0.5801   -2.1479 H   0  0  0  0  0  0  0  0  0  0  0  0
   -3.2592   -2.1425   -2.6562 H   0  0  0  0  0  0  0  0  0  0  0  0
   -5.1541   -2.2528   -0.9414 H   0  0  0  0  0  0  0  0  0  0  0  0
   -4.0278   -1.5996    0.2701 H   0  0  0  0  0  0  0  0  0  0  0  0
   -4.0434   -3.8240    0.3336 H   0  0  0  0  0  0  0  0  0  0  0  0
  1  2  1  0
  2  3  2  0
  3  4  1  0
  4  5  2  0
  5  6  1  0
  6  7  2  3
  7  8  1  0
  8  9  2  0
  9 10  1  0
 10 11  2  0
 11 12  1  0
 12 13  1  0
 11 14  1  0
 14 15  2  0
  6 16  1  0
 16 17  1  0
 17 18  2  3
 18 19  1  0
 19 20  1  0
 20 21  1  0
 17 22  1  0
 22 23  2  0
 23  1  1  0
 23  5  1  0
 15  8  1  0
  1 24  1  0
  2 25  1  0
  3 26  1  0
  9 27  1  0
 10 28  1  0
 13 29  1  0
 13 30  1  0
 13 31  1  0
 14 32  1  0
 15 33  1  0
 16 34  1  0
 19 35  1  0
 19 36  1  0
 20 37  1  0
 20 38  1  0
 21 39  1  0
M  END
>  <ScrubInfo>  (9) 
{"isomerGroup": 0, "isomerId": 8, "confId": 0, "nr_conformers:": 1, "nr_isomers:": 9}

$$$$
