REMARK SMILES COc1ccc(Nc2nc(NCCO)nc3nccnc23)cc1
REMARK SMILES IDX 8 1 9 2 10 3 15 4 16 5 17 6 18 7 19 8 20 9 21 10 7 11 6 13
REMARK SMILES IDX 3 14 4 15 23 16 5 17 22 18 2 19 1 20 11 21 12 23 13 24 14 25
REMARK H PARENT 7 12 11 22 14 26
ROOT
ATOM      1  C   UNL     1      -0.351  -1.131  -0.081  1.00  0.00     0.164 A 
ATOM      2  N   UNL     1      -0.711   0.166  -0.072  1.00  0.00    -0.193 NA
ATOM      3  C   UNL     1      -1.995   0.458  -0.258  1.00  0.00     0.226 A 
ATOM      4  N   UNL     1      -2.944  -0.455  -0.439  1.00  0.00    -0.191 NA
ATOM      5  C   UNL     1      -2.587  -1.733  -0.447  1.00  0.00     0.185 A 
ATOM      6  N   UNL     1      -3.557  -2.638  -0.624  1.00  0.00    -0.233 NA
ATOM      7  C   UNL     1      -3.213  -3.946  -0.629  1.00  0.00     0.133 A 
ATOM      8  C   UNL     1      -1.915  -4.366  -0.449  1.00  0.00     0.132 A 
ATOM      9  N   UNL     1      -0.914  -3.488  -0.258  1.00  0.00    -0.247 NA
ATOM     10  C   UNL     1      -1.267  -2.163  -0.269  1.00  0.00     0.150 A 
ENDROOT
BRANCH   1  11
ATOM     11  N   UNL     1       1.014  -1.507   0.069  1.00  0.00    -0.338 N 
ATOM     12  H   UNL     1       1.076  -2.474   0.380  1.00  0.00     0.168 HD
BRANCH  11  13
ATOM     13  C   UNL     1       2.185  -0.754   0.244  1.00  0.00     0.040 A 
ATOM     14  C   UNL     1       4.626   0.650   0.579  1.00  0.00     0.119 A 
ATOM     15  C   UNL     1       4.545  -0.711   0.867  1.00  0.00     0.048 A 
ATOM     16  C   UNL     1       3.491   1.307   0.111  1.00  0.00     0.048 A 
ATOM     17  C   UNL     1       3.343  -1.405   0.695  1.00  0.00     0.030 A 
ATOM     18  C   UNL     1       2.287   0.606  -0.058  1.00  0.00     0.030 A 
BRANCH  14  19
ATOM     19  O   UNL     1       5.855   1.210   0.789  1.00  0.00    -0.497 OA
ATOM     20  C   UNL     1       5.983   2.598   0.506  1.00  0.00     0.278 C 
ENDBRANCH  14  19
ENDBRANCH  11  13
ENDBRANCH   1  11
BRANCH   3  21
ATOM     21  N   UNL     1      -2.308   1.808  -0.247  1.00  0.00    -0.352 N 
ATOM     22  H   UNL     1      -1.542   2.276   0.227  1.00  0.00     0.163 HD
BRANCH  21  23
ATOM     23  C   UNL     1      -3.638   2.148   0.233  1.00  0.00     0.144 C 
BRANCH  23  24
ATOM     24  C   UNL     1      -4.671   2.161  -0.898  1.00  0.00     0.177 C 
BRANCH  24  25
ATOM     25  O   UNL     1      -5.981   2.372  -0.373  1.00  0.00    -0.395 OA
ATOM     26  H   UNL     1      -6.263   1.524   0.014  1.00  0.00     0.210 HD
ENDBRANCH  24  25
ENDBRANCH  23  24
ENDBRANCH  21  23
ENDBRANCH   3  21
TORSDOF 7
