_i0
     RDKit          3D

 50 52  0  0  0  0  0  0  0  0999 V2000
    5.4625    2.3346    0.4540 C   0  0  0  0  0  0  0  0  0  0  0  0
    5.6553    1.9320   -0.9989 C   0  0  0  0  0  0  0  0  0  0  0  0
    5.3989    0.4485   -1.2857 C   0  0  0  0  0  0  0  0  0  0  0  0
    3.9409    0.0082   -1.1202 C   0  0  0  0  0  0  0  0  0  0  0  0
    3.6313   -0.2079    0.2814 N   0  0  0  0  0  0  0  0  0  0  0  0
    2.3492   -0.6841    0.5312 C   0  0  0  0  0  0  0  0  0  0  0  0
    1.3304   -0.3038   -0.2632 N   0  0  0  0  0  0  0  0  0  0  0  0
    0.0655   -0.7269   -0.0104 C   0  0  0  0  0  0  0  0  0  0  0  0
   -0.9318   -0.2886   -0.8824 N   0  0  0  0  0  0  0  0  0  0  0  0
   -2.2380    0.1978   -0.6535 C   0  0  0  0  0  0  0  0  0  0  0  0
   -2.7640    0.3995    0.6272 C   0  0  0  0  0  0  0  0  0  0  0  0
   -4.0833    0.8307    0.8084 C   0  0  0  0  0  0  0  0  0  0  0  0
   -4.9003    1.0655   -0.2939 C   0  0  0  0  0  0  0  0  0  0  0  0
   -6.2013    1.4872   -0.2545 O   0  0  0  0  0  0  0  0  0  0  0  0
   -6.7747    1.6874    1.0317 C   0  0  0  0  0  0  0  0  0  0  0  0
   -4.3885    0.8743   -1.5803 C   0  0  0  0  0  0  0  0  0  0  0  0
   -3.0710    0.4430   -1.7692 C   0  0  0  0  0  0  0  0  0  0  0  0
   -2.4805    0.2439   -2.9966 O   0  0  0  0  0  0  0  0  0  0  0  0
   -3.3091    0.3804   -4.1440 C   0  0  0  0  0  0  0  0  0  0  0  0
   -0.1140   -1.6292    1.0409 C   0  0  0  0  0  0  0  0  0  0  0  0
   -1.1457   -2.4047    1.6103 C   0  0  0  0  0  0  0  0  0  0  0  0
   -0.7371   -3.1294    2.6589 N   0  0  0  0  0  0  0  0  0  0  0  0
    0.5813   -2.8351    2.7395 N   0  0  0  0  0  0  0  0  0  0  0  0
    1.3841   -3.4540    3.7637 C   0  0  0  0  0  0  0  0  0  0  0  0
    1.0061   -1.9586    1.7786 C   0  0  0  0  0  0  0  0  0  0  0  0
    2.2549   -1.5113    1.5800 N   0  0  0  0  0  0  0  0  0  0  0  0
    5.8082    3.3624    0.6061 H   0  0  0  0  0  0  0  0  0  0  0  0
    6.0326    1.6838    1.1241 H   0  0  0  0  0  0  0  0  0  0  0  0
    4.4084    2.3004    0.7431 H   0  0  0  0  0  0  0  0  0  0  0  0
    6.6900    2.1593   -1.2834 H   0  0  0  0  0  0  0  0  0  0  0  0
    5.0129    2.5511   -1.6360 H   0  0  0  0  0  0  0  0  0  0  0  0
    5.6856    0.2668   -2.3295 H   0  0  0  0  0  0  0  0  0  0  0  0
    6.0612   -0.1702   -0.6676 H   0  0  0  0  0  0  0  0  0  0  0  0
    3.8022   -0.9306   -1.6719 H   0  0  0  0  0  0  0  0  0  0  0  0
    3.2804    0.7621   -1.5657 H   0  0  0  0  0  0  0  0  0  0  0  0
    4.2606   -0.8280    0.7789 H   0  0  0  0  0  0  0  0  0  0  0  0
   -0.5202    0.1536   -1.7007 H   0  0  0  0  0  0  0  0  0  0  0  0
   -2.1490    0.2599    1.5111 H   0  0  0  0  0  0  0  0  0  0  0  0
   -4.4336    0.9780    1.8247 H   0  0  0  0  0  0  0  0  0  0  0  0
   -6.2508    2.4786    1.5782 H   0  0  0  0  0  0  0  0  0  0  0  0
   -6.7934    0.7549    1.6053 H   0  0  0  0  0  0  0  0  0  0  0  0
   -7.8102    2.0112    0.8890 H   0  0  0  0  0  0  0  0  0  0  0  0
   -5.0472    1.0755   -2.4185 H   0  0  0  0  0  0  0  0  0  0  0  0
   -2.7038    0.1389   -5.0230 H   0  0  0  0  0  0  0  0  0  0  0  0
   -4.1475   -0.3235   -4.1144 H   0  0  0  0  0  0  0  0  0  0  0  0
   -3.6593    1.4117   -4.2556 H   0  0  0  0  0  0  0  0  0  0  0  0
   -2.1812   -2.4707    1.3014 H   0  0  0  0  0  0  0  0  0  0  0  0
    1.4031   -4.5312    3.5801 H   0  0  0  0  0  0  0  0  0  0  0  0
    2.4000   -3.0537    3.7367 H   0  0  0  0  0  0  0  0  0  0  0  0
    0.9299   -3.2398    4.7346 H   0  0  0  0  0  0  0  0  0  0  0  0
  1  2  1  0
  2  3  1  0
  3  4  1  0
  4  5  1  0
  5  6  1  0
  6  7  2  0
  7  8  1  0
  8  9  1  0
  9 10  1  0
 10 11  2  0
 11 12  1  0
 12 13  2  0
 13 14  1  0
 14 15  1  0
 13 16  1  0
 16 17  2  0
 17 18  1  0
 18 19  1  0
  8 20  2  0
 20 21  1  0
 21 22  2  0
 22 23  1  0
 23 24  1  0
 23 25  1  0
 25 26  2  0
 26  6  1  0
 17 10  1  0
 25 20  1  0
  1 27  1  0
  1 28  1  0
  1 29  1  0
  2 30  1  0
  2 31  1  0
  3 32  1  0
  3 33  1  0
  4 34  1  0
  4 35  1  0
  5 36  1  0
  9 37  1  0
 11 38  1  0
 12 39  1  0
 15 40  1  0
 15 41  1  0
 15 42  1  0
 16 43  1  0
 19 44  1  0
 19 45  1  0
 19 46  1  0
 21 47  1  0
 24 48  1  0
 24 49  1  0
 24 50  1  0
M  END
>  <ScrubInfo>  (1) 
{"isomerGroup": 0, "isomerId": 0, "confId": 0, "nr_conformers:": 1, "nr_isomers:": 9}

$$$$
_i1
     RDKit          3D

 50 52  0  0  0  0  0  0  0  0999 V2000
   -0.5036   -0.4652   -0.4561 N   0  0  0  0  0  0  0  0  0  0  0  0
    0.2083   -1.4312    0.2280 C   0  0  0  0  0  0  0  0  0  0  0  0
    1.5837   -1.4448    0.3224 N   0  0  0  0  0  0  0  0  0  0  0  0
    2.5372   -0.4282    0.1006 C   0  0  0  0  0  0  0  0  0  0  0  0
    2.2311    0.9351    0.1753 C   0  0  0  0  0  0  0  0  0  0  0  0
    3.2017    1.9078   -0.0898 C   0  0  0  0  0  0  0  0  0  0  0  0
    4.4971    1.5289   -0.4327 C   0  0  0  0  0  0  0  0  0  0  0  0
    5.5339    2.3761   -0.7143 O   0  0  0  0  0  0  0  0  0  0  0  0
    5.2538    3.7705   -0.6818 C   0  0  0  0  0  0  0  0  0  0  0  0
    4.8213    0.1705   -0.5000 C   0  0  0  0  0  0  0  0  0  0  0  0
    3.8567   -0.8069   -0.2365 C   0  0  0  0  0  0  0  0  0  0  0  0
    4.0811   -2.1658   -0.2672 O   0  0  0  0  0  0  0  0  0  0  0  0
    5.3741   -2.5945   -0.6788 C   0  0  0  0  0  0  0  0  0  0  0  0
   -0.5455   -2.3933    0.7745 C   0  0  0  0  0  0  0  0  0  0  0  0
   -0.3470   -3.5882    1.6014 C   0  0  0  0  0  0  0  0  0  0  0  0
   -1.4686   -4.1799    1.9272 N   0  0  0  0  0  0  0  0  0  0  0  0
   -2.4791   -3.4372    1.2942 N   0  0  0  0  0  0  0  0  0  0  0  0
   -3.8510   -3.6402    1.6909 C   0  0  0  0  0  0  0  0  0  0  0  0
   -2.0149   -2.3206    0.6174 C   0  0  0  0  0  0  0  0  0  0  0  0
   -2.6590   -1.3991   -0.0141 N   0  0  0  0  0  0  0  0  0  0  0  0
   -1.8653   -0.4434   -0.6087 C   0  0  0  0  0  0  0  0  0  0  0  0
   -2.3867    0.4928   -1.3295 N   0  0  0  0  0  0  0  0  0  0  0  0
   -3.8387    0.5189   -1.5097 C   0  0  0  0  0  0  0  0  0  0  0  0
   -4.5101    1.3248   -0.3974 C   0  0  0  0  0  0  0  0  0  0  0  0
   -4.1033    2.8000   -0.4131 C   0  0  0  0  0  0  0  0  0  0  0  0
   -4.8237    3.5858    0.6715 C   0  0  0  0  0  0  0  0  0  0  0  0
    0.0169    0.1749   -1.0361 H   0  0  0  0  0  0  0  0  0  0  0  0
    2.0270   -2.3467    0.4851 H   0  0  0  0  0  0  0  0  0  0  0  0
    1.2430    1.2678    0.4818 H   0  0  0  0  0  0  0  0  0  0  0  0
    2.9110    2.9502   -0.0089 H   0  0  0  0  0  0  0  0  0  0  0  0
    6.1740    4.3022   -0.9423 H   0  0  0  0  0  0  0  0  0  0  0  0
    4.4932    4.0382   -1.4227 H   0  0  0  0  0  0  0  0  0  0  0  0
    4.9580    4.0895    0.3231 H   0  0  0  0  0  0  0  0  0  0  0  0
    5.8417   -0.0904   -0.7602 H   0  0  0  0  0  0  0  0  0  0  0  0
    5.5992   -2.2550   -1.6952 H   0  0  0  0  0  0  0  0  0  0  0  0
    5.3752   -3.6888   -0.6863 H   0  0  0  0  0  0  0  0  0  0  0  0
    6.1414   -2.2666    0.0300 H   0  0  0  0  0  0  0  0  0  0  0  0
    0.6568   -3.9029    1.9138 H   0  0  0  0  0  0  0  0  0  0  0  0
   -4.0340   -4.6928    1.9302 H   0  0  0  0  0  0  0  0  0  0  0  0
   -4.5364   -3.3574    0.8856 H   0  0  0  0  0  0  0  0  0  0  0  0
   -4.0847   -3.0385    2.5747 H   0  0  0  0  0  0  0  0  0  0  0  0
   -4.0512    0.9842   -2.4795 H   0  0  0  0  0  0  0  0  0  0  0  0
   -4.2724   -0.4866   -1.5672 H   0  0  0  0  0  0  0  0  0  0  0  0
   -5.5972    1.2505   -0.5228 H   0  0  0  0  0  0  0  0  0  0  0  0
   -4.2708    0.8895    0.5802 H   0  0  0  0  0  0  0  0  0  0  0  0
   -3.0222    2.8969   -0.2622 H   0  0  0  0  0  0  0  0  0  0  0  0
   -4.3360    3.2398   -1.3898 H   0  0  0  0  0  0  0  0  0  0  0  0
   -4.5876    3.1903    1.6645 H   0  0  0  0  0  0  0  0  0  0  0  0
   -5.9086    3.5423    0.5328 H   0  0  0  0  0  0  0  0  0  0  0  0
   -4.5197    4.6368    0.6432 H   0  0  0  0  0  0  0  0  0  0  0  0
  1  2  1  0
  2  3  1  0
  3  4  1  0
  4  5  2  0
  5  6  1  0
  6  7  2  0
  7  8  1  0
  8  9  1  0
  7 10  1  0
 10 11  2  0
 11 12  1  0
 12 13  1  0
  2 14  2  0
 14 15  1  0
 15 16  2  0
 16 17  1  0
 17 18  1  0
 17 19  1  0
 19 20  2  0
 20 21  1  0
 21 22  2  3
 22 23  1  0
 23 24  1  0
 24 25  1  0
 25 26  1  0
 21  1  1  0
 11  4  1  0
 19 14  1  0
  1 27  1  0
  3 28  1  0
  5 29  1  0
  6 30  1  0
  9 31  1  0
  9 32  1  0
  9 33  1  0
 10 34  1  0
 13 35  1  0
 13 36  1  0
 13 37  1  0
 15 38  1  0
 18 39  1  0
 18 40  1  0
 18 41  1  0
 23 42  1  0
 23 43  1  0
 24 44  1  0
 24 45  1  0
 25 46  1  0
 25 47  1  0
 26 48  1  0
 26 49  1  0
 26 50  1  0
M  END
>  <ScrubInfo>  (2) 
{"isomerGroup": 0, "isomerId": 1, "confId": 0, "nr_conformers:": 1, "nr_isomers:": 9}

$$$$
_i2
     RDKit          3D

 50 52  0  0  0  0  0  0  0  0999 V2000
    0.1792   -0.5154   -0.5416 N   0  0  0  0  0  0  0  0  0  0  0  0
    1.4956   -0.8806   -0.3509 C   0  0  0  0  0  0  0  0  0  0  0  0
    2.2941    0.1928   -0.0558 N   0  0  0  0  0  0  0  0  0  0  0  0
    3.7356    0.0347    0.0657 C   0  0  0  0  0  0  0  0  0  0  0  0
    4.3764    1.3280    0.5721 C   0  0  0  0  0  0  0  0  0  0  0  0
    3.9094    1.7788    1.9602 C   0  0  0  0  0  0  0  0  0  0  0  0
    4.2286    0.7821    3.0635 C   0  0  0  0  0  0  0  0  0  0  0  0
    1.9375   -2.1100   -0.4357 N   0  0  0  0  0  0  0  0  0  0  0  0
    0.9351   -2.9835   -0.7311 C   0  0  0  0  0  0  0  0  0  0  0  0
   -0.4048   -2.7095   -0.9188 C   0  0  0  0  0  0  0  0  0  0  0  0
   -1.0019   -3.9483   -1.1893 C   0  0  0  0  0  0  0  0  0  0  0  0
   -0.1143   -4.9520   -1.1811 N   0  0  0  0  0  0  0  0  0  0  0  0
    1.0605   -4.3347   -0.8964 N   0  0  0  0  0  0  0  0  0  0  0  0
    2.2647   -5.1194   -0.7970 C   0  0  0  0  0  0  0  0  0  0  0  0
   -0.8832   -1.3546   -0.8047 C   0  0  0  0  0  0  0  0  0  0  0  0
   -2.1483   -1.1424   -0.9467 N   0  0  0  0  0  0  0  0  0  0  0  0
   -2.6550    0.1673   -0.8814 C   0  0  0  0  0  0  0  0  0  0  0  0
   -3.3913    0.6301   -1.9754 C   0  0  0  0  0  0  0  0  0  0  0  0
   -3.9316    1.9226   -1.9935 C   0  0  0  0  0  0  0  0  0  0  0  0
   -3.7427    2.7760   -0.9070 C   0  0  0  0  0  0  0  0  0  0  0  0
   -4.2021    4.0594   -0.8026 O   0  0  0  0  0  0  0  0  0  0  0  0
   -4.9732    4.5579   -1.8890 C   0  0  0  0  0  0  0  0  0  0  0  0
   -3.0220    2.3220    0.1986 C   0  0  0  0  0  0  0  0  0  0  0  0
   -2.5087    1.0230    0.2221 C   0  0  0  0  0  0  0  0  0  0  0  0
   -1.7739    0.6622    1.3253 O   0  0  0  0  0  0  0  0  0  0  0  0
   -2.5444   -0.2002    2.1670 C   0  0  0  0  0  0  0  0  0  0  0  0
   -0.0805    0.3909   -0.1839 H   0  0  0  0  0  0  0  0  0  0  0  0
    2.0278    1.0486   -0.5282 H   0  0  0  0  0  0  0  0  0  0  0  0
    4.1546   -0.2074   -0.9181 H   0  0  0  0  0  0  0  0  0  0  0  0
    3.9783   -0.7953    0.7381 H   0  0  0  0  0  0  0  0  0  0  0  0
    4.1675    2.1364   -0.1401 H   0  0  0  0  0  0  0  0  0  0  0  0
    5.4655    1.1978    0.5859 H   0  0  0  0  0  0  0  0  0  0  0  0
    2.8321    1.9800    1.9523 H   0  0  0  0  0  0  0  0  0  0  0  0
    4.4021    2.7296    2.1968 H   0  0  0  0  0  0  0  0  0  0  0  0
    3.6586   -0.1440    2.9445 H   0  0  0  0  0  0  0  0  0  0  0  0
    5.2948    0.5353    3.0744 H   0  0  0  0  0  0  0  0  0  0  0  0
    3.9691    1.2063    4.0389 H   0  0  0  0  0  0  0  0  0  0  0  0
   -2.0431   -4.1629   -1.3912 H   0  0  0  0  0  0  0  0  0  0  0  0
    2.4225   -5.6294   -1.7508 H   0  0  0  0  0  0  0  0  0  0  0  0
    3.1179   -4.4737   -0.5782 H   0  0  0  0  0  0  0  0  0  0  0  0
    2.1350   -5.8471    0.0081 H   0  0  0  0  0  0  0  0  0  0  0  0
   -3.5423   -0.0266   -2.8295 H   0  0  0  0  0  0  0  0  0  0  0  0
   -4.4893    2.2269   -2.8731 H   0  0  0  0  0  0  0  0  0  0  0  0
   -5.2729    5.5814   -1.6441 H   0  0  0  0  0  0  0  0  0  0  0  0
   -5.8851    3.9682   -2.0296 H   0  0  0  0  0  0  0  0  0  0  0  0
   -4.3800    4.5955   -2.8086 H   0  0  0  0  0  0  0  0  0  0  0  0
   -2.8666    2.9802    1.0493 H   0  0  0  0  0  0  0  0  0  0  0  0
   -1.9774   -0.3556    3.0898 H   0  0  0  0  0  0  0  0  0  0  0  0
   -3.5042    0.2570    2.4332 H   0  0  0  0  0  0  0  0  0  0  0  0
   -2.7040   -1.1782    1.7029 H   0  0  0  0  0  0  0  0  0  0  0  0
  1  2  1  0
  2  3  1  0
  3  4  1  0
  4  5  1  0
  5  6  1  0
  6  7  1  0
  2  8  2  0
  8  9  1  0
  9 10  2  0
 10 11  1  0
 11 12  2  0
 12 13  1  0
 13 14  1  0
 10 15  1  0
 15 16  2  3
 16 17  1  0
 17 18  2  0
 18 19  1  0
 19 20  2  0
 20 21  1  0
 21 22  1  0
 20 23  1  0
 23 24  2  0
 24 25  1  0
 25 26  1  0
 15  1  1  0
 24 17  1  0
 13  9  1  0
  1 27  1  0
  3 28  1  0
  4 29  1  0
  4 30  1  0
  5 31  1  0
  5 32  1  0
  6 33  1  0
  6 34  1  0
  7 35  1  0
  7 36  1  0
  7 37  1  0
 11 38  1  0
 14 39  1  0
 14 40  1  0
 14 41  1  0
 18 42  1  0
 19 43  1  0
 22 44  1  0
 22 45  1  0
 22 46  1  0
 23 47  1  0
 26 48  1  0
 26 49  1  0
 26 50  1  0
M  END
>  <ScrubInfo>  (3) 
{"isomerGroup": 0, "isomerId": 2, "confId": 0, "nr_conformers:": 1, "nr_isomers:": 9}

$$$$
_i3
     RDKit          3D

 50 52  0  0  0  0  0  0  0  0999 V2000
   -2.2894   -0.1996   -1.5358 N   0  0  0  0  0  0  0  0  0  0  0  0
   -1.8117   -0.1792   -0.2362 C   0  0  0  0  0  0  0  0  0  0  0  0
   -2.5239   -0.2301    0.8340 N   0  0  0  0  0  0  0  0  0  0  0  0
   -3.9736   -0.3184    0.7288 C   0  0  0  0  0  0  0  0  0  0  0  0
   -4.5508   -0.3712    2.1435 C   0  0  0  0  0  0  0  0  0  0  0  0
   -6.0649   -0.5854    2.1753 C   0  0  0  0  0  0  0  0  0  0  0  0
   -6.8537    0.5693    1.5774 C   0  0  0  0  0  0  0  0  0  0  0  0
   -0.4545   -0.0978    0.0239 N   0  0  0  0  0  0  0  0  0  0  0  0
    0.4110   -0.0380   -0.9447 C   0  0  0  0  0  0  0  0  0  0  0  0
    1.7750    0.0450   -0.8548 N   0  0  0  0  0  0  0  0  0  0  0  0
    2.6100    0.0883    0.2840 C   0  0  0  0  0  0  0  0  0  0  0  0
    2.1419    0.0506    1.5981 C   0  0  0  0  0  0  0  0  0  0  0  0
    3.0334    0.0978    2.6738 C   0  0  0  0  0  0  0  0  0  0  0  0
    4.4087    0.1835    2.4613 C   0  0  0  0  0  0  0  0  0  0  0  0
    5.1588    0.2216    3.6046 O   0  0  0  0  0  0  0  0  0  0  0  0
    6.5695    0.3091    3.4547 C   0  0  0  0  0  0  0  0  0  0  0  0
    4.8974    0.2225    1.1549 C   0  0  0  0  0  0  0  0  0  0  0  0
    4.0087    0.1755    0.0716 C   0  0  0  0  0  0  0  0  0  0  0  0
    4.3827    0.2076   -1.2567 O   0  0  0  0  0  0  0  0  0  0  0  0
    5.7747    0.2948   -1.5369 C   0  0  0  0  0  0  0  0  0  0  0  0
   -0.0576   -0.0571   -2.3185 C   0  0  0  0  0  0  0  0  0  0  0  0
    0.4984   -0.0140   -3.6082 C   0  0  0  0  0  0  0  0  0  0  0  0
   -0.4344   -0.0645   -4.5715 N   0  0  0  0  0  0  0  0  0  0  0  0
   -1.6022   -0.1409   -3.8875 N   0  0  0  0  0  0  0  0  0  0  0  0
   -2.8398   -0.2116   -4.6215 C   0  0  0  0  0  0  0  0  0  0  0  0
   -1.4045   -0.1382   -2.5436 C   0  0  0  0  0  0  0  0  0  0  0  0
   -3.2877   -0.2597   -1.6615 H   0  0  0  0  0  0  0  0  0  0  0  0
   -4.2644   -1.2244    0.1841 H   0  0  0  0  0  0  0  0  0  0  0  0
   -4.3670    0.5566    0.1999 H   0  0  0  0  0  0  0  0  0  0  0  0
   -4.2944    0.5500    2.6819 H   0  0  0  0  0  0  0  0  0  0  0  0
   -4.0736   -1.1916    2.6949 H   0  0  0  0  0  0  0  0  0  0  0  0
   -6.3753   -0.7160    3.2188 H   0  0  0  0  0  0  0  0  0  0  0  0
   -6.3216   -1.5128    1.6502 H   0  0  0  0  0  0  0  0  0  0  0  0
   -7.9268    0.4020    1.7155 H   0  0  0  0  0  0  0  0  0  0  0  0
   -6.6700    0.6672    0.5035 H   0  0  0  0  0  0  0  0  0  0  0  0
   -6.5934    1.5157    2.0618 H   0  0  0  0  0  0  0  0  0  0  0  0
    2.3296    0.0849   -1.7019 H   0  0  0  0  0  0  0  0  0  0  0  0
    1.0810   -0.0160    1.8212 H   0  0  0  0  0  0  0  0  0  0  0  0
    2.6432    0.0669    3.6888 H   0  0  0  0  0  0  0  0  0  0  0  0
    7.0117    0.3293    4.4554 H   0  0  0  0  0  0  0  0  0  0  0  0
    6.8555    1.2353    2.9455 H   0  0  0  0  0  0  0  0  0  0  0  0
    6.9660   -0.5682    2.9330 H   0  0  0  0  0  0  0  0  0  0  0  0
    5.9625    0.2890    0.9820 H   0  0  0  0  0  0  0  0  0  0  0  0
    6.3097   -0.5810   -1.1555 H   0  0  0  0  0  0  0  0  0  0  0  0
    6.1991    1.2241   -1.1431 H   0  0  0  0  0  0  0  0  0  0  0  0
    5.8952    0.3097   -2.6244 H   0  0  0  0  0  0  0  0  0  0  0  0
    1.5372    0.0518   -3.9035 H   0  0  0  0  0  0  0  0  0  0  0  0
   -2.9265    0.6867   -5.2379 H   0  0  0  0  0  0  0  0  0  0  0  0
   -2.8170   -1.1058   -5.2496 H   0  0  0  0  0  0  0  0  0  0  0  0
   -3.6821   -0.2675   -3.9290 H   0  0  0  0  0  0  0  0  0  0  0  0
  1  2  1  0
  2  3  2  3
  3  4  1  0
  4  5  1  0
  5  6  1  0
  6  7  1  0
  2  8  1  0
  8  9  2  0
  9 10  1  0
 10 11  1  0
 11 12  2  0
 12 13  1  0
 13 14  2  0
 14 15  1  0
 15 16  1  0
 14 17  1  0
 17 18  2  0
 18 19  1  0
 19 20  1  0
  9 21  1  0
 21 22  1  0
 22 23  2  0
 23 24  1  0
 24 25  1  0
 24 26  1  0
 26  1  1  0
 18 11  1  0
 26 21  2  0
  1 27  1  0
  4 28  1  0
  4 29  1  0
  5 30  1  0
  5 31  1  0
  6 32  1  0
  6 33  1  0
  7 34  1  0
  7 35  1  0
  7 36  1  0
 10 37  1  0
 12 38  1  0
 13 39  1  0
 16 40  1  0
 16 41  1  0
 16 42  1  0
 17 43  1  0
 20 44  1  0
 20 45  1  0
 20 46  1  0
 22 47  1  0
 25 48  1  0
 25 49  1  0
 25 50  1  0
M  END
>  <ScrubInfo>  (4) 
{"isomerGroup": 0, "isomerId": 3, "confId": 0, "nr_conformers:": 1, "nr_isomers:": 9}

$$$$
_i4
     RDKit          3D

 50 52  0  0  0  0  0  0  0  0999 V2000
   -1.1998   -4.5602   -2.2688 N   0  0  0  0  0  0  0  0  0  0  0  0
    0.0134   -3.8894   -2.1466 C   0  0  0  0  0  0  0  0  0  0  0  0
   -0.1217   -2.6605   -1.6321 C   0  0  0  0  0  0  0  0  0  0  0  0
    0.7416   -1.5664   -1.2540 C   0  0  0  0  0  0  0  0  0  0  0  0
    2.0228   -1.6021   -1.4493 N   0  0  0  0  0  0  0  0  0  0  0  0
    2.7906   -0.5103   -1.0026 C   0  0  0  0  0  0  0  0  0  0  0  0
    3.1556    0.4744   -1.9271 C   0  0  0  0  0  0  0  0  0  0  0  0
    3.9341    1.5680   -1.5407 C   0  0  0  0  0  0  0  0  0  0  0  0
    4.3655    1.6803   -0.2207 C   0  0  0  0  0  0  0  0  0  0  0  0
    5.1289    2.6958    0.2900 O   0  0  0  0  0  0  0  0  0  0  0  0
    5.5117    3.7272   -0.6112 C   0  0  0  0  0  0  0  0  0  0  0  0
    4.0180    0.6906    0.7075 C   0  0  0  0  0  0  0  0  0  0  0  0
    3.2381   -0.4091    0.3298 C   0  0  0  0  0  0  0  0  0  0  0  0
    2.8634   -1.4281    1.1723 O   0  0  0  0  0  0  0  0  0  0  0  0
    3.2822   -1.3428    2.5259 C   0  0  0  0  0  0  0  0  0  0  0  0
    0.0885   -0.5027   -0.6879 N   0  0  0  0  0  0  0  0  0  0  0  0
   -1.2037   -0.4803   -0.5287 C   0  0  0  0  0  0  0  0  0  0  0  0
   -1.7082    0.6436    0.0594 N   0  0  0  0  0  0  0  0  0  0  0  0
   -2.9781    0.6591    0.7511 C   0  0  0  0  0  0  0  0  0  0  0  0
   -3.2895    2.0788    1.2232 C   0  0  0  0  0  0  0  0  0  0  0  0
   -4.6309    2.1416    1.9525 C   0  0  0  0  0  0  0  0  0  0  0  0
   -4.9430    3.5528    2.4244 C   0  0  0  0  0  0  0  0  0  0  0  0
   -2.0742   -1.4752   -0.8976 N   0  0  0  0  0  0  0  0  0  0  0  0
   -1.5709   -2.5237   -1.4497 C   0  0  0  0  0  0  0  0  0  0  0  0
   -2.2144   -3.6630   -1.9386 N   0  0  0  0  0  0  0  0  0  0  0  0
   -3.4191   -4.1652   -1.3075 C   0  0  0  0  0  0  0  0  0  0  0  0
   -1.3016   -5.0428   -3.1644 H   0  0  0  0  0  0  0  0  0  0  0  0
    0.9298   -4.3728   -2.4549 H   0  0  0  0  0  0  0  0  0  0  0  0
    2.8209    0.3848   -2.9568 H   0  0  0  0  0  0  0  0  0  0  0  0
    4.1826    2.3068   -2.2943 H   0  0  0  0  0  0  0  0  0  0  0  0
    6.1097    4.4537   -0.0527 H   0  0  0  0  0  0  0  0  0  0  0  0
    6.1365    3.3333   -1.4197 H   0  0  0  0  0  0  0  0  0  0  0  0
    4.6354    4.2514   -1.0067 H   0  0  0  0  0  0  0  0  0  0  0  0
    4.3779    0.8074    1.7239 H   0  0  0  0  0  0  0  0  0  0  0  0
    2.8938   -2.2203    3.0519 H   0  0  0  0  0  0  0  0  0  0  0  0
    4.3741   -1.3660    2.6044 H   0  0  0  0  0  0  0  0  0  0  0  0
    2.8678   -0.4542    3.0133 H   0  0  0  0  0  0  0  0  0  0  0  0
   -0.9669    1.1968    0.4736 H   0  0  0  0  0  0  0  0  0  0  0  0
   -2.9377   -0.0201    1.6105 H   0  0  0  0  0  0  0  0  0  0  0  0
   -3.7766    0.3145    0.0837 H   0  0  0  0  0  0  0  0  0  0  0  0
   -2.4907    2.4306    1.8884 H   0  0  0  0  0  0  0  0  0  0  0  0
   -3.3036    2.7586    0.3619 H   0  0  0  0  0  0  0  0  0  0  0  0
   -4.6164    1.4682    2.8173 H   0  0  0  0  0  0  0  0  0  0  0  0
   -5.4326    1.7993    1.2879 H   0  0  0  0  0  0  0  0  0  0  0  0
   -4.1760    3.9134    3.1172 H   0  0  0  0  0  0  0  0  0  0  0  0
   -4.9964    4.2463    1.5791 H   0  0  0  0  0  0  0  0  0  0  0  0
   -5.9065    3.5746    2.9430 H   0  0  0  0  0  0  0  0  0  0  0  0
   -3.2113   -4.5072   -0.2882 H   0  0  0  0  0  0  0  0  0  0  0  0
   -4.1861   -3.3851   -1.2659 H   0  0  0  0  0  0  0  0  0  0  0  0
   -3.8271   -5.0046   -1.8798 H   0  0  0  0  0  0  0  0  0  0  0  0
  1  2  1  0
  2  3  2  0
  3  4  1  0
  4  5  2  3
  5  6  1  0
  6  7  2  0
  7  8  1  0
  8  9  2  0
  9 10  1  0
 10 11  1  0
  9 12  1  0
 12 13  2  0
 13 14  1  0
 14 15  1  0
  4 16  1  0
 16 17  2  0
 17 18  1  0
 18 19  1  0
 19 20  1  0
 20 21  1  0
 21 22  1  0
 17 23  1  0
 23 24  2  0
 24 25  1  0
 25 26  1  0
 25  1  1  0
 24  3  1  0
 13  6  1  0
  1 27  1  0
  2 28  1  0
  7 29  1  0
  8 30  1  0
 11 31  1  0
 11 32  1  0
 11 33  1  0
 12 34  1  0
 15 35  1  0
 15 36  1  0
 15 37  1  0
 18 38  1  0
 19 39  1  0
 19 40  1  0
 20 41  1  0
 20 42  1  0
 21 43  1  0
 21 44  1  0
 22 45  1  0
 22 46  1  0
 22 47  1  0
 26 48  1  0
 26 49  1  0
 26 50  1  0
M  END
>  <ScrubInfo>  (5) 
{"isomerGroup": 0, "isomerId": 4, "confId": 0, "nr_conformers:": 1, "nr_isomers:": 9}

$$$$
_i5
     RDKit          3D

 50 52  0  0  0  0  0  0  0  0999 V2000
   -2.2447    1.2152    0.5848 N   0  0  0  0  0  0  0  0  0  0  0  0
   -2.1416    1.2749   -0.7810 C   0  0  0  0  0  0  0  0  0  0  0  0
   -3.2168    1.8036   -1.4328 N   0  0  0  0  0  0  0  0  0  0  0  0
   -4.5991    1.4273   -1.1807 C   0  0  0  0  0  0  0  0  0  0  0  0
   -4.9965    0.1521   -1.9284 C   0  0  0  0  0  0  0  0  0  0  0  0
   -4.3939   -1.1504   -1.3939 C   0  0  0  0  0  0  0  0  0  0  0  0
   -4.8163   -1.4793    0.0295 C   0  0  0  0  0  0  0  0  0  0  0  0
   -1.1148    0.8810   -1.4790 N   0  0  0  0  0  0  0  0  0  0  0  0
   -0.0036    0.3416   -0.8385 C   0  0  0  0  0  0  0  0  0  0  0  0
    0.9653   -0.0316   -1.6118 N   0  0  0  0  0  0  0  0  0  0  0  0
    2.1663   -0.5530   -1.1165 C   0  0  0  0  0  0  0  0  0  0  0  0
    2.3642   -1.9347   -1.1737 C   0  0  0  0  0  0  0  0  0  0  0  0
    3.5609   -2.4959   -0.7301 C   0  0  0  0  0  0  0  0  0  0  0  0
    4.5829   -1.6842   -0.2360 C   0  0  0  0  0  0  0  0  0  0  0  0
    5.6982   -2.3646    0.1712 O   0  0  0  0  0  0  0  0  0  0  0  0
    6.7783   -1.5941    0.6819 C   0  0  0  0  0  0  0  0  0  0  0  0
    4.4041   -0.2980   -0.1940 C   0  0  0  0  0  0  0  0  0  0  0  0
    3.2050    0.2760   -0.6420 C   0  0  0  0  0  0  0  0  0  0  0  0
    2.9325    1.6224   -0.6224 O   0  0  0  0  0  0  0  0  0  0  0  0
    4.0111    2.5073   -0.3592 C   0  0  0  0  0  0  0  0  0  0  0  0
   -0.0741    0.2462    0.6117 C   0  0  0  0  0  0  0  0  0  0  0  0
    0.7302   -0.2196    1.6678 C   0  0  0  0  0  0  0  0  0  0  0  0
    0.1635   -0.0475    2.8738 N   0  0  0  0  0  0  0  0  0  0  0  0
   -1.0245    0.5309    2.5878 N   0  0  0  0  0  0  0  0  0  0  0  0
   -1.9220    0.8553    3.6666 C   0  0  0  0  0  0  0  0  0  0  0  0
   -1.1984    0.7029    1.2527 C   0  0  0  0  0  0  0  0  0  0  0  0
   -2.9918    1.7395    1.0165 H   0  0  0  0  0  0  0  0  0  0  0  0
   -3.0086    1.8250   -2.4303 H   0  0  0  0  0  0  0  0  0  0  0  0
   -5.2261    2.2453   -1.5547 H   0  0  0  0  0  0  0  0  0  0  0  0
   -4.8153    1.3511   -0.1110 H   0  0  0  0  0  0  0  0  0  0  0  0
   -4.7228    0.2516   -2.9865 H   0  0  0  0  0  0  0  0  0  0  0  0
   -6.0899    0.0639   -1.8992 H   0  0  0  0  0  0  0  0  0  0  0  0
   -3.3018   -1.1273   -1.4578 H   0  0  0  0  0  0  0  0  0  0  0  0
   -4.7208   -1.9695   -2.0464 H   0  0  0  0  0  0  0  0  0  0  0  0
   -4.4328   -2.4640    0.3160 H   0  0  0  0  0  0  0  0  0  0  0  0
   -4.4261   -0.7524    0.7466 H   0  0  0  0  0  0  0  0  0  0  0  0
   -5.9069   -1.5024    0.1197 H   0  0  0  0  0  0  0  0  0  0  0  0
    1.5802   -2.5730   -1.5722 H   0  0  0  0  0  0  0  0  0  0  0  0
    3.6990   -3.5733   -0.7756 H   0  0  0  0  0  0  0  0  0  0  0  0
    7.5815   -2.2849    0.9560 H   0  0  0  0  0  0  0  0  0  0  0  0
    6.4830   -1.0514    1.5859 H   0  0  0  0  0  0  0  0  0  0  0  0
    7.1713   -0.9120   -0.0793 H   0  0  0  0  0  0  0  0  0  0  0  0
    5.1916    0.3345    0.1923 H   0  0  0  0  0  0  0  0  0  0  0  0
    4.3491    2.4139    0.6778 H   0  0  0  0  0  0  0  0  0  0  0  0
    3.6465    3.5297   -0.4980 H   0  0  0  0  0  0  0  0  0  0  0  0
    4.8372    2.3505   -1.0608 H   0  0  0  0  0  0  0  0  0  0  0  0
    1.7077   -0.6797    1.6329 H   0  0  0  0  0  0  0  0  0  0  0  0
   -2.8798    1.1943    3.2664 H   0  0  0  0  0  0  0  0  0  0  0  0
   -2.0748   -0.0412    4.2729 H   0  0  0  0  0  0  0  0  0  0  0  0
   -1.4660    1.6481    4.2647 H   0  0  0  0  0  0  0  0  0  0  0  0
  1  2  1  0
  2  3  1  0
  3  4  1  0
  4  5  1  0
  5  6  1  0
  6  7  1  0
  2  8  2  0
  8  9  1  0
  9 10  2  3
 10 11  1  0
 11 12  2  0
 12 13  1  0
 13 14  2  0
 14 15  1  0
 15 16  1  0
 14 17  1  0
 17 18  2  0
 18 19  1  0
 19 20  1  0
  9 21  1  0
 21 22  1  0
 22 23  2  0
 23 24  1  0
 24 25  1  0
 24 26  1  0
 26  1  1  0
 18 11  1  0
 26 21  2  0
  1 27  1  0
  3 28  1  0
  4 29  1  0
  4 30  1  0
  5 31  1  0
  5 32  1  0
  6 33  1  0
  6 34  1  0
  7 35  1  0
  7 36  1  0
  7 37  1  0
 12 38  1  0
 13 39  1  0
 16 40  1  0
 16 41  1  0
 16 42  1  0
 17 43  1  0
 20 44  1  0
 20 45  1  0
 20 46  1  0
 22 47  1  0
 25 48  1  0
 25 49  1  0
 25 50  1  0
M  END
>  <ScrubInfo>  (6) 
{"isomerGroup": 0, "isomerId": 5, "confId": 0, "nr_conformers:": 1, "nr_isomers:": 9}

$$$$
_i6
     RDKit          3D

 50 52  0  0  0  0  0  0  0  0999 V2000
   -1.7049   -3.9555    0.9957 N   0  0  0  0  0  0  0  0  0  0  0  0
   -0.4851   -3.3862    0.6454 C   0  0  0  0  0  0  0  0  0  0  0  0
   -0.6007   -2.1173    0.2296 C   0  0  0  0  0  0  0  0  0  0  0  0
    0.2710   -1.0299   -0.2248 C   0  0  0  0  0  0  0  0  0  0  0  0
    1.6253   -1.2612   -0.3336 N   0  0  0  0  0  0  0  0  0  0  0  0
    2.6831   -0.4131   -0.7307 C   0  0  0  0  0  0  0  0  0  0  0  0
    2.5191    0.9189   -1.1187 C   0  0  0  0  0  0  0  0  0  0  0  0
    3.6150    1.7022   -1.5025 C   0  0  0  0  0  0  0  0  0  0  0  0
    4.8980    1.1627   -1.5047 C   0  0  0  0  0  0  0  0  0  0  0  0
    6.0459    1.8192   -1.8566 O   0  0  0  0  0  0  0  0  0  0  0  0
    5.9104    3.1785   -2.2542 C   0  0  0  0  0  0  0  0  0  0  0  0
    5.0820   -0.1678   -1.1204 C   0  0  0  0  0  0  0  0  0  0  0  0
    3.9913   -0.9548   -0.7359 C   0  0  0  0  0  0  0  0  0  0  0  0
    4.0714   -2.2745   -0.3412 O   0  0  0  0  0  0  0  0  0  0  0  0
    5.3686   -2.8599   -0.3240 C   0  0  0  0  0  0  0  0  0  0  0  0
   -0.3037    0.1050   -0.4995 N   0  0  0  0  0  0  0  0  0  0  0  0
   -1.6635    0.2515   -0.3499 C   0  0  0  0  0  0  0  0  0  0  0  0
   -2.0783    1.4482   -0.5709 N   0  0  0  0  0  0  0  0  0  0  0  0
   -3.5039    1.7445   -0.4626 C   0  0  0  0  0  0  0  0  0  0  0  0
   -3.8369    2.1719    0.9659 C   0  0  0  0  0  0  0  0  0  0  0  0
   -5.3134    2.5380    1.1075 C   0  0  0  0  0  0  0  0  0  0  0  0
   -5.6480    2.9640    2.5280 C   0  0  0  0  0  0  0  0  0  0  0  0
   -2.5623   -0.7288    0.0028 N   0  0  0  0  0  0  0  0  0  0  0  0
   -2.0587   -1.8810    0.2751 C   0  0  0  0  0  0  0  0  0  0  0  0
   -2.7095   -3.0562    0.6529 N   0  0  0  0  0  0  0  0  0  0  0  0
   -3.9218   -3.0119    1.4484 C   0  0  0  0  0  0  0  0  0  0  0  0
   -1.8246   -4.9116    0.6525 H   0  0  0  0  0  0  0  0  0  0  0  0
    0.4113   -3.9827    0.7310 H   0  0  0  0  0  0  0  0  0  0  0  0
    1.9817   -2.1800   -0.0895 H   0  0  0  0  0  0  0  0  0  0  0  0
    1.5383    1.3856   -1.1335 H   0  0  0  0  0  0  0  0  0  0  0  0
    3.4207    2.7297   -1.7925 H   0  0  0  0  0  0  0  0  0  0  0  0
    5.5151    3.7913   -1.4373 H   0  0  0  0  0  0  0  0  0  0  0  0
    5.2907    3.2672   -3.1526 H   0  0  0  0  0  0  0  0  0  0  0  0
    6.9080    3.5554   -2.4999 H   0  0  0  0  0  0  0  0  0  0  0  0
    6.0936   -0.5588   -1.1331 H   0  0  0  0  0  0  0  0  0  0  0  0
    5.2612   -3.8962    0.0106 H   0  0  0  0  0  0  0  0  0  0  0  0
    5.8065   -2.8790   -1.3274 H   0  0  0  0  0  0  0  0  0  0  0  0
    6.0240   -2.3475    0.3879 H   0  0  0  0  0  0  0  0  0  0  0  0
   -4.1398    0.9127   -0.7888 H   0  0  0  0  0  0  0  0  0  0  0  0
   -3.7245    2.5707   -1.1491 H   0  0  0  0  0  0  0  0  0  0  0  0
   -3.5896    1.3641    1.6654 H   0  0  0  0  0  0  0  0  0  0  0  0
   -3.2131    3.0301    1.2459 H   0  0  0  0  0  0  0  0  0  0  0  0
   -5.5629    3.3539    0.4191 H   0  0  0  0  0  0  0  0  0  0  0  0
   -5.9376    1.6795    0.8334 H   0  0  0  0  0  0  0  0  0  0  0  0
   -6.7089    3.2214    2.6066 H   0  0  0  0  0  0  0  0  0  0  0  0
   -5.0629    3.8410    2.8227 H   0  0  0  0  0  0  0  0  0  0  0  0
   -5.4405    2.1575    3.2386 H   0  0  0  0  0  0  0  0  0  0  0  0
   -4.3360   -4.0184    1.5670 H   0  0  0  0  0  0  0  0  0  0  0  0
   -4.6813   -2.3934    0.9594 H   0  0  0  0  0  0  0  0  0  0  0  0
   -3.7200   -2.5990    2.4423 H   0  0  0  0  0  0  0  0  0  0  0  0
  1  2  1  0
  2  3  2  0
  3  4  1  0
  4  5  1  0
  5  6  1  0
  6  7  2  0
  7  8  1  0
  8  9  2  0
  9 10  1  0
 10 11  1  0
  9 12  1  0
 12 13  2  0
 13 14  1  0
 14 15  1  0
  4 16  2  0
 16 17  1  0
 17 18  2  3
 18 19  1  0
 19 20  1  0
 20 21  1  0
 21 22  1  0
 17 23  1  0
 23 24  2  0
 24 25  1  0
 25 26  1  0
 25  1  1  0
 24  3  1  0
 13  6  1  0
  1 27  1  0
  2 28  1  0
  5 29  1  0
  7 30  1  0
  8 31  1  0
 11 32  1  0
 11 33  1  0
 11 34  1  0
 12 35  1  0
 15 36  1  0
 15 37  1  0
 15 38  1  0
 19 39  1  0
 19 40  1  0
 20 41  1  0
 20 42  1  0
 21 43  1  0
 21 44  1  0
 22 45  1  0
 22 46  1  0
 22 47  1  0
 26 48  1  0
 26 49  1  0
 26 50  1  0
M  END
>  <ScrubInfo>  (7) 
{"isomerGroup": 0, "isomerId": 6, "confId": 0, "nr_conformers:": 1, "nr_isomers:": 9}

$$$$
_i7
     RDKit          3D

 50 52  0  0  0  0  0  0  0  0999 V2000
   -1.6148   -3.4860   -2.7224 N   0  0  0  0  0  0  0  0  0  0  0  0
   -0.3542   -2.9128   -2.5951 C   0  0  0  0  0  0  0  0  0  0  0  0
   -0.3112   -1.9486   -1.6683 C   0  0  0  0  0  0  0  0  0  0  0  0
    0.6829   -1.0458   -1.0824 C   0  0  0  0  0  0  0  0  0  0  0  0
    1.8994   -1.0650   -1.5386 N   0  0  0  0  0  0  0  0  0  0  0  0
    2.8644   -0.2076   -0.9769 C   0  0  0  0  0  0  0  0  0  0  0  0
    3.3738    0.8135   -1.7851 C   0  0  0  0  0  0  0  0  0  0  0  0
    4.3513    1.6901   -1.3074 C   0  0  0  0  0  0  0  0  0  0  0  0
    4.8374    1.5465   -0.0102 C   0  0  0  0  0  0  0  0  0  0  0  0
    5.7863    2.3340    0.5830 O   0  0  0  0  0  0  0  0  0  0  0  0
    6.3285    3.3905   -0.2001 C   0  0  0  0  0  0  0  0  0  0  0  0
    4.3442    0.5187    0.8026 C   0  0  0  0  0  0  0  0  0  0  0  0
    3.3685   -0.3666    0.3305 C   0  0  0  0  0  0  0  0  0  0  0  0
    2.8240   -1.3888    1.0679 O   0  0  0  0  0  0  0  0  0  0  0  0
    3.4204   -1.6774    2.3253 C   0  0  0  0  0  0  0  0  0  0  0  0
    0.1459   -0.2691   -0.0874 N   0  0  0  0  0  0  0  0  0  0  0  0
   -1.1455   -0.2940    0.3671 C   0  0  0  0  0  0  0  0  0  0  0  0
   -1.4543    0.4747    1.3597 N   0  0  0  0  0  0  0  0  0  0  0  0
   -2.8274    0.4568    1.8658 C   0  0  0  0  0  0  0  0  0  0  0  0
   -3.6615    1.5068    1.1341 C   0  0  0  0  0  0  0  0  0  0  0  0
   -5.0913    1.5542    1.6704 C   0  0  0  0  0  0  0  0  0  0  0  0
   -5.9241    2.5990    0.9449 C   0  0  0  0  0  0  0  0  0  0  0  0
   -2.1049   -1.1011   -0.2123 N   0  0  0  0  0  0  0  0  0  0  0  0
   -1.7234   -1.8744   -1.1806 C   0  0  0  0  0  0  0  0  0  0  0  0
   -2.5029   -2.7631   -1.9274 N   0  0  0  0  0  0  0  0  0  0  0  0
   -3.6279   -3.4520   -1.3247 C   0  0  0  0  0  0  0  0  0  0  0  0
   -1.8959   -3.6286   -3.6949 H   0  0  0  0  0  0  0  0  0  0  0  0
    0.4598   -3.2600   -3.2158 H   0  0  0  0  0  0  0  0  0  0  0  0
    3.0029    0.9215   -2.8014 H   0  0  0  0  0  0  0  0  0  0  0  0
    4.7095    2.4664   -1.9749 H   0  0  0  0  0  0  0  0  0  0  0  0
    7.0658    3.9169    0.4137 H   0  0  0  0  0  0  0  0  0  0  0  0
    6.8467    3.0016   -1.0828 H   0  0  0  0  0  0  0  0  0  0  0  0
    5.5535    4.1112   -0.4810 H   0  0  0  0  0  0  0  0  0  0  0  0
    4.7445    0.4385    1.8081 H   0  0  0  0  0  0  0  0  0  0  0  0
    2.9264   -2.5645    2.7332 H   0  0  0  0  0  0  0  0  0  0  0  0
    4.4851   -1.9094    2.2174 H   0  0  0  0  0  0  0  0  0  0  0  0
    3.2625   -0.8557    3.0313 H   0  0  0  0  0  0  0  0  0  0  0  0
    0.7597    0.3333    0.4383 H   0  0  0  0  0  0  0  0  0  0  0  0
   -2.7896    0.7025    2.9338 H   0  0  0  0  0  0  0  0  0  0  0  0
   -3.2917   -0.5349    1.8072 H   0  0  0  0  0  0  0  0  0  0  0  0
   -3.1902    2.4914    1.2458 H   0  0  0  0  0  0  0  0  0  0  0  0
   -3.6786    1.2884    0.0594 H   0  0  0  0  0  0  0  0  0  0  0  0
   -5.0801    1.7840    2.7421 H   0  0  0  0  0  0  0  0  0  0  0  0
   -5.5652    0.5725    1.5536 H   0  0  0  0  0  0  0  0  0  0  0  0
   -5.4942    3.5982    1.0683 H   0  0  0  0  0  0  0  0  0  0  0  0
   -5.9826    2.3797   -0.1260 H   0  0  0  0  0  0  0  0  0  0  0  0
   -6.9429    2.6158    1.3443 H   0  0  0  0  0  0  0  0  0  0  0  0
   -3.2899   -4.1352   -0.5385 H   0  0  0  0  0  0  0  0  0  0  0  0
   -4.3304   -2.7348   -0.8881 H   0  0  0  0  0  0  0  0  0  0  0  0
   -4.1687   -4.0312   -2.0801 H   0  0  0  0  0  0  0  0  0  0  0  0
  1  2  1  0
  2  3  2  0
  3  4  1  0
  4  5  2  3
  5  6  1  0
  6  7  2  0
  7  8  1  0
  8  9  2  0
  9 10  1  0
 10 11  1  0
  9 12  1  0
 12 13  2  0
 13 14  1  0
 14 15  1  0
  4 16  1  0
 16 17  1  0
 17 18  2  3
 18 19  1  0
 19 20  1  0
 20 21  1  0
 21 22  1  0
 17 23  1  0
 23 24  2  0
 24 25  1  0
 25 26  1  0
 25  1  1  0
 24  3  1  0
 13  6  1  0
  1 27  1  0
  2 28  1  0
  7 29  1  0
  8 30  1  0
 11 31  1  0
 11 32  1  0
 11 33  1  0
 12 34  1  0
 15 35  1  0
 15 36  1  0
 15 37  1  0
 16 38  1  0
 19 39  1  0
 19 40  1  0
 20 41  1  0
 20 42  1  0
 21 43  1  0
 21 44  1  0
 22 45  1  0
 22 46  1  0
 22 47  1  0
 26 48  1  0
 26 49  1  0
 26 50  1  0
M  END
>  <ScrubInfo>  (8) 
{"isomerGroup": 0, "isomerId": 7, "confId": 0, "nr_conformers:": 1, "nr_isomers:": 9}

$$$$
_i8
     RDKit          3D

 50 52  0  0  0  0  0  0  0  0999 V2000
   -1.4700   -1.1098   -1.6393 N   0  0  0  0  0  0  0  0  0  0  0  0
   -1.1209   -0.5229   -0.4311 C   0  0  0  0  0  0  0  0  0  0  0  0
   -1.9047    0.0144    0.4424 N   0  0  0  0  0  0  0  0  0  0  0  0
   -3.3397    0.0320    0.1731 C   0  0  0  0  0  0  0  0  0  0  0  0
   -4.0362    0.7093    1.3532 C   0  0  0  0  0  0  0  0  0  0  0  0
   -5.5622    0.6879    1.2527 C   0  0  0  0  0  0  0  0  0  0  0  0
   -6.1046    1.4974    0.0850 C   0  0  0  0  0  0  0  0  0  0  0  0
    0.2366   -0.5389   -0.1766 N   0  0  0  0  0  0  0  0  0  0  0  0
    1.2937   -1.0273   -0.9184 C   0  0  0  0  0  0  0  0  0  0  0  0
    2.5664   -1.0457   -0.6944 N   0  0  0  0  0  0  0  0  0  0  0  0
    3.0311   -0.4867    0.5075 C   0  0  0  0  0  0  0  0  0  0  0  0
    3.4168   -1.3532    1.5328 C   0  0  0  0  0  0  0  0  0  0  0  0
    3.8408   -0.8523    2.7662 C   0  0  0  0  0  0  0  0  0  0  0  0
    3.8866    0.5239    2.9976 C   0  0  0  0  0  0  0  0  0  0  0  0
    4.3028    0.8787    4.2508 O   0  0  0  0  0  0  0  0  0  0  0  0
    4.3632    2.2706    4.5381 C   0  0  0  0  0  0  0  0  0  0  0  0
    3.5207    1.3987    1.9756 C   0  0  0  0  0  0  0  0  0  0  0  0
    3.1236    0.8988    0.7290 C   0  0  0  0  0  0  0  0  0  0  0  0
    2.7678    1.8465   -0.1993 O   0  0  0  0  0  0  0  0  0  0  0  0
    3.4766    1.7041   -1.4313 C   0  0  0  0  0  0  0  0  0  0  0  0
    0.8239   -1.6095   -2.1537 C   0  0  0  0  0  0  0  0  0  0  0  0
    1.4343   -2.2297   -3.2534 C   0  0  0  0  0  0  0  0  0  0  0  0
    0.5439   -2.6075   -4.1834 N   0  0  0  0  0  0  0  0  0  0  0  0
   -0.6494   -2.2291   -3.6632 N   0  0  0  0  0  0  0  0  0  0  0  0
   -1.8500   -2.4879   -4.4168 C   0  0  0  0  0  0  0  0  0  0  0  0
   -0.5171   -1.6238   -2.4503 C   0  0  0  0  0  0  0  0  0  0  0  0
   -2.4518   -1.1216   -1.8776 H   0  0  0  0  0  0  0  0  0  0  0  0
   -3.5419    0.5889   -0.7483 H   0  0  0  0  0  0  0  0  0  0  0  0
   -3.7206   -0.9902    0.0631 H   0  0  0  0  0  0  0  0  0  0  0  0
   -3.6843    1.7445    1.4454 H   0  0  0  0  0  0  0  0  0  0  0  0
   -3.7433    0.2020    2.2815 H   0  0  0  0  0  0  0  0  0  0  0  0
   -5.9165   -0.3466    1.1750 H   0  0  0  0  0  0  0  0  0  0  0  0
   -5.9772    1.0958    2.1820 H   0  0  0  0  0  0  0  0  0  0  0  0
   -7.1985    1.5229    0.1220 H   0  0  0  0  0  0  0  0  0  0  0  0
   -5.8166    1.0592   -0.8751 H   0  0  0  0  0  0  0  0  0  0  0  0
   -5.7404    2.5290    0.1189 H   0  0  0  0  0  0  0  0  0  0  0  0
    0.4768   -0.0854    0.6931 H   0  0  0  0  0  0  0  0  0  0  0  0
    3.3764   -2.4277    1.3731 H   0  0  0  0  0  0  0  0  0  0  0  0
    4.1309   -1.5421    3.5553 H   0  0  0  0  0  0  0  0  0  0  0  0
    3.3728    2.7319    4.4654 H   0  0  0  0  0  0  0  0  0  0  0  0
    4.7083    2.3840    5.5703 H   0  0  0  0  0  0  0  0  0  0  0  0
    5.0847    2.7766    3.8882 H   0  0  0  0  0  0  0  0  0  0  0  0
    3.5423    2.4749    2.1082 H   0  0  0  0  0  0  0  0  0  0  0  0
    2.8810    1.1312   -2.1471 H   0  0  0  0  0  0  0  0  0  0  0  0
    4.4684    1.2546   -1.3044 H   0  0  0  0  0  0  0  0  0  0  0  0
    3.6174    2.7062   -1.8482 H   0  0  0  0  0  0  0  0  0  0  0  0
    2.4870   -2.4206   -3.4183 H   0  0  0  0  0  0  0  0  0  0  0  0
   -2.7275   -2.3202   -3.7892 H   0  0  0  0  0  0  0  0  0  0  0  0
   -1.8670   -1.8113   -5.2747 H   0  0  0  0  0  0  0  0  0  0  0  0
   -1.8346   -3.5286   -4.7511 H   0  0  0  0  0  0  0  0  0  0  0  0
  1  2  1  0
  2  3  2  3
  3  4  1  0
  4  5  1  0
  5  6  1  0
  6  7  1  0
  2  8  1  0
  8  9  1  0
  9 10  2  3
 10 11  1  0
 11 12  2  0
 12 13  1  0
 13 14  2  0
 14 15  1  0
 15 16  1  0
 14 17  1  0
 17 18  2  0
 18 19  1  0
 19 20  1  0
  9 21  1  0
 21 22  1  0
 22 23  2  0
 23 24  1  0
 24 25  1  0
 24 26  1  0
 26  1  1  0
 18 11  1  0
 26 21  2  0
  1 27  1  0
  4 28  1  0
  4 29  1  0
  5 30  1  0
  5 31  1  0
  6 32  1  0
  6 33  1  0
  7 34  1  0
  7 35  1  0
  7 36  1  0
  8 37  1  0
 12 38  1  0
 13 39  1  0
 16 40  1  0
 16 41  1  0
 16 42  1  0
 17 43  1  0
 20 44  1  0
 20 45  1  0
 20 46  1  0
 22 47  1  0
 25 48  1  0
 25 49  1  0
 25 50  1  0
M  END
>  <ScrubInfo>  (9) 
{"isomerGroup": 0, "isomerId": 8, "confId": 0, "nr_conformers:": 1, "nr_isomers:": 9}

$$$$
