_i0
     RDKit          3D

 51 53  0  0  0  0  0  0  0  0999 V2000
    7.0605   -1.4923    0.5392 C   0  0  0  0  0  0  0  0  0  0  0  0
    6.2220   -1.7106   -0.7104 C   0  0  0  0  0  0  0  0  0  0  0  0
    5.4275   -0.4742   -1.1373 C   0  0  0  0  0  0  0  0  0  0  0  0
    4.4242    0.0592   -0.1102 C   0  0  0  0  0  0  0  0  0  0  0  0
    3.3465   -0.9589    0.2701 C   0  0  0  0  0  0  0  0  0  0  0  0
    2.3715   -0.3601    1.1665 N   0  0  0  0  0  0  0  0  0  0  0  0
    1.2288    0.1604    0.5720 C   0  0  0  0  0  0  0  0  0  0  0  0
    0.1125    0.0397    1.3156 N   0  0  0  0  0  0  0  0  0  0  0  0
   -1.0703    0.5175    0.8524 C   0  0  0  0  0  0  0  0  0  0  0  0
   -2.1903    0.3646    1.6895 N   0  0  0  0  0  0  0  0  0  0  0  0
   -3.5025    0.0804    1.2546 C   0  0  0  0  0  0  0  0  0  0  0  0
   -4.5194    0.9643    1.6530 C   0  0  0  0  0  0  0  0  0  0  0  0
   -5.8613    0.7628    1.2928 C   0  0  0  0  0  0  0  0  0  0  0  0
   -6.8964    1.7591    1.7322 C   0  0  0  0  0  0  0  0  0  0  0  0
   -6.1780   -0.3662    0.5295 C   0  0  0  0  0  0  0  0  0  0  0  0
   -7.9557   -0.7371   -0.0276 Br  0  0  0  0  0  0  0  0  0  0  0  0
   -5.1808   -1.2733    0.1551 C   0  0  0  0  0  0  0  0  0  0  0  0
   -3.8415   -1.0761    0.5313 C   0  0  0  0  0  0  0  0  0  0  0  0
   -2.8192   -2.0979    0.1149 C   0  0  0  0  0  0  0  0  0  0  0  0
   -1.0815    1.1311   -0.4015 C   0  0  0  0  0  0  0  0  0  0  0  0
   -1.9985    1.7620   -1.2670 C   0  0  0  0  0  0  0  0  0  0  0  0
   -1.4338    2.1840   -2.4054 N   0  0  0  0  0  0  0  0  0  0  0  0
   -0.1369    1.8269   -2.2562 N   0  0  0  0  0  0  0  0  0  0  0  0
    0.8084    2.1371   -3.2986 C   0  0  0  0  0  0  0  0  0  0  0  0
    0.1218    1.1886   -1.0745 C   0  0  0  0  0  0  0  0  0  0  0  0
    1.3002    0.7152   -0.6451 N   0  0  0  0  0  0  0  0  0  0  0  0
    6.4325   -1.3272    1.4196 H   0  0  0  0  0  0  0  0  0  0  0  0
    7.7256   -0.6312    0.4208 H   0  0  0  0  0  0  0  0  0  0  0  0
    7.6794   -2.3739    0.7348 H   0  0  0  0  0  0  0  0  0  0  0  0
    6.8909   -1.9901   -1.5335 H   0  0  0  0  0  0  0  0  0  0  0  0
    5.5505   -2.5624   -0.5571 H   0  0  0  0  0  0  0  0  0  0  0  0
    6.1310    0.3310   -1.3835 H   0  0  0  0  0  0  0  0  0  0  0  0
    4.8925   -0.7091   -2.0660 H   0  0  0  0  0  0  0  0  0  0  0  0
    4.9490    0.3964    0.7918 H   0  0  0  0  0  0  0  0  0  0  0  0
    3.9580    0.9574   -0.5331 H   0  0  0  0  0  0  0  0  0  0  0  0
    2.8760   -1.3963   -0.6197 H   0  0  0  0  0  0  0  0  0  0  0  0
    3.8167   -1.7899    0.8080 H   0  0  0  0  0  0  0  0  0  0  0  0
    2.0428   -0.9619    1.9138 H   0  0  0  0  0  0  0  0  0  0  0  0
   -1.9016   -0.2653    2.4352 H   0  0  0  0  0  0  0  0  0  0  0  0
   -4.2457    1.8374    2.2445 H   0  0  0  0  0  0  0  0  0  0  0  0
   -6.4512    2.5651    2.3256 H   0  0  0  0  0  0  0  0  0  0  0  0
   -7.3760    2.2215    0.8636 H   0  0  0  0  0  0  0  0  0  0  0  0
   -7.6528    1.2752    2.3584 H   0  0  0  0  0  0  0  0  0  0  0  0
   -5.4488   -2.1512   -0.4303 H   0  0  0  0  0  0  0  0  0  0  0  0
   -2.2725   -1.7508   -0.7668 H   0  0  0  0  0  0  0  0  0  0  0  0
   -2.1151   -2.3032    0.9274 H   0  0  0  0  0  0  0  0  0  0  0  0
   -3.2944   -3.0529   -0.1352 H   0  0  0  0  0  0  0  0  0  0  0  0
   -3.0571    1.9297   -1.1159 H   0  0  0  0  0  0  0  0  0  0  0  0
    1.8032    1.7813   -3.0208 H   0  0  0  0  0  0  0  0  0  0  0  0
    0.8274    3.2214   -3.4340 H   0  0  0  0  0  0  0  0  0  0  0  0
    0.4818    1.6429   -4.2171 H   0  0  0  0  0  0  0  0  0  0  0  0
  1  2  1  0
  2  3  1  0
  3  4  1  0
  4  5  1  0
  5  6  1  0
  6  7  1  0
  7  8  2  0
  8  9  1  0
  9 10  1  0
 10 11  1  0
 11 12  2  0
 12 13  1  0
 13 14  1  0
 13 15  2  0
 15 16  1  0
 15 17  1  0
 17 18  2  0
 18 19  1  0
  9 20  2  0
 20 21  1  0
 21 22  2  0
 22 23  1  0
 23 24  1  0
 23 25  1  0
 25 26  2  0
 26  7  1  0
 18 11  1  0
 25 20  1  0
  1 27  1  0
  1 28  1  0
  1 29  1  0
  2 30  1  0
  2 31  1  0
  3 32  1  0
  3 33  1  0
  4 34  1  0
  4 35  1  0
  5 36  1  0
  5 37  1  0
  6 38  1  0
 10 39  1  0
 12 40  1  0
 14 41  1  0
 14 42  1  0
 14 43  1  0
 17 44  1  0
 19 45  1  0
 19 46  1  0
 19 47  1  0
 21 48  1  0
 24 49  1  0
 24 50  1  0
 24 51  1  0
M  END
>  <ScrubInfo>  (1) 
{"isomerGroup": 0, "isomerId": 0, "confId": 0, "nr_conformers:": 1, "nr_isomers:": 9}

$$$$
_i1
     RDKit          3D

 51 53  0  0  0  0  0  0  0  0999 V2000
    0.2371    0.8139    0.1204 N   0  0  0  0  0  0  0  0  0  0  0  0
   -0.9243    0.1066    0.3532 C   0  0  0  0  0  0  0  0  0  0  0  0
   -1.9725    0.6690    1.0595 N   0  0  0  0  0  0  0  0  0  0  0  0
   -3.3316    0.7102    0.6548 C   0  0  0  0  0  0  0  0  0  0  0  0
   -3.7163    0.5396   -0.6870 C   0  0  0  0  0  0  0  0  0  0  0  0
   -5.0637    0.5854   -1.0865 C   0  0  0  0  0  0  0  0  0  0  0  0
   -5.4043    0.3927   -2.5381 C   0  0  0  0  0  0  0  0  0  0  0  0
   -6.0396    0.8182   -0.1112 C   0  0  0  0  0  0  0  0  0  0  0  0
   -7.8885    0.9047   -0.5373 Br  0  0  0  0  0  0  0  0  0  0  0  0
   -5.6757    1.0011    1.2258 C   0  0  0  0  0  0  0  0  0  0  0  0
   -4.3292    0.9490    1.6203 C   0  0  0  0  0  0  0  0  0  0  0  0
   -3.9837    1.1363    3.0734 C   0  0  0  0  0  0  0  0  0  0  0  0
   -0.9232   -1.1517   -0.1060 C   0  0  0  0  0  0  0  0  0  0  0  0
   -1.8269   -2.3078   -0.1215 C   0  0  0  0  0  0  0  0  0  0  0  0
   -1.3265   -3.3398   -0.7549 N   0  0  0  0  0  0  0  0  0  0  0  0
   -0.0373   -2.9469   -1.1486 N   0  0  0  0  0  0  0  0  0  0  0  0
    0.6833   -3.7546   -2.1012 C   0  0  0  0  0  0  0  0  0  0  0  0
    0.2713   -1.6345   -0.8324 C   0  0  0  0  0  0  0  0  0  0  0  0
    1.3268   -0.9391   -1.0891 N   0  0  0  0  0  0  0  0  0  0  0  0
    1.3069    0.3477   -0.6009 C   0  0  0  0  0  0  0  0  0  0  0  0
    2.2973    1.1504   -0.8066 N   0  0  0  0  0  0  0  0  0  0  0  0
    3.4440    0.6706   -1.5797 C   0  0  0  0  0  0  0  0  0  0  0  0
    4.4761    0.0075   -0.6673 C   0  0  0  0  0  0  0  0  0  0  0  0
    5.0868    0.9870    0.3392 C   0  0  0  0  0  0  0  0  0  0  0  0
    6.1490    0.3045    1.2015 C   0  0  0  0  0  0  0  0  0  0  0  0
    6.7590    1.2717    2.2034 C   0  0  0  0  0  0  0  0  0  0  0  0
    0.2885    1.7828    0.3919 H   0  0  0  0  0  0  0  0  0  0  0  0
   -1.7182    1.5473    1.5041 H   0  0  0  0  0  0  0  0  0  0  0  0
   -2.9558    0.3894   -1.4510 H   0  0  0  0  0  0  0  0  0  0  0  0
   -6.0599   -0.4745   -2.6661 H   0  0  0  0  0  0  0  0  0  0  0  0
   -5.8914    1.2873   -2.9389 H   0  0  0  0  0  0  0  0  0  0  0  0
   -4.5076    0.2122   -3.1408 H   0  0  0  0  0  0  0  0  0  0  0  0
   -6.4478    1.1819    1.9714 H   0  0  0  0  0  0  0  0  0  0  0  0
   -3.3822    2.0413    3.2059 H   0  0  0  0  0  0  0  0  0  0  0  0
   -4.8820    1.2412    3.6911 H   0  0  0  0  0  0  0  0  0  0  0  0
   -3.4286    0.2700    3.4477 H   0  0  0  0  0  0  0  0  0  0  0  0
   -2.8183   -2.2640    0.3469 H   0  0  0  0  0  0  0  0  0  0  0  0
    1.7639   -3.6187   -1.9903 H   0  0  0  0  0  0  0  0  0  0  0  0
    0.4008   -3.4810   -3.1225 H   0  0  0  0  0  0  0  0  0  0  0  0
    0.4642   -4.8172   -1.9542 H   0  0  0  0  0  0  0  0  0  0  0  0
    3.8983    1.5328   -2.0820 H   0  0  0  0  0  0  0  0  0  0  0  0
    3.1501   -0.0144   -2.3840 H   0  0  0  0  0  0  0  0  0  0  0  0
    5.2749   -0.4095   -1.2927 H   0  0  0  0  0  0  0  0  0  0  0  0
    4.0195   -0.8321   -0.1299 H   0  0  0  0  0  0  0  0  0  0  0  0
    5.5366    1.8315   -0.1969 H   0  0  0  0  0  0  0  0  0  0  0  0
    4.3022    1.3958    0.9868 H   0  0  0  0  0  0  0  0  0  0  0  0
    5.7041   -0.5395    1.7415 H   0  0  0  0  0  0  0  0  0  0  0  0
    6.9432   -0.1005    0.5636 H   0  0  0  0  0  0  0  0  0  0  0  0
    7.5156    0.7631    2.8090 H   0  0  0  0  0  0  0  0  0  0  0  0
    7.2405    2.1125    1.6939 H   0  0  0  0  0  0  0  0  0  0  0  0
    5.9953    1.6706    2.8787 H   0  0  0  0  0  0  0  0  0  0  0  0
  1  2  1  0
  2  3  1  0
  3  4  1  0
  4  5  2  0
  5  6  1  0
  6  7  1  0
  6  8  2  0
  8  9  1  0
  8 10  1  0
 10 11  2  0
 11 12  1  0
  2 13  2  0
 13 14  1  0
 14 15  2  0
 15 16  1  0
 16 17  1  0
 16 18  1  0
 18 19  2  0
 19 20  1  0
 20 21  2  3
 21 22  1  0
 22 23  1  0
 23 24  1  0
 24 25  1  0
 25 26  1  0
 20  1  1  0
 11  4  1  0
 18 13  1  0
  1 27  1  0
  3 28  1  0
  5 29  1  0
  7 30  1  0
  7 31  1  0
  7 32  1  0
 10 33  1  0
 12 34  1  0
 12 35  1  0
 12 36  1  0
 14 37  1  0
 17 38  1  0
 17 39  1  0
 17 40  1  0
 22 41  1  0
 22 42  1  0
 23 43  1  0
 23 44  1  0
 24 45  1  0
 24 46  1  0
 25 47  1  0
 25 48  1  0
 26 49  1  0
 26 50  1  0
 26 51  1  0
M  END
>  <ScrubInfo>  (2) 
{"isomerGroup": 0, "isomerId": 1, "confId": 0, "nr_conformers:": 1, "nr_isomers:": 9}

$$$$
_i2
     RDKit          3D

 51 53  0  0  0  0  0  0  0  0999 V2000
    0.0586    1.2141   -0.3731 N   0  0  0  0  0  0  0  0  0  0  0  0
    0.6583    1.8094   -1.4590 C   0  0  0  0  0  0  0  0  0  0  0  0
    1.1388    0.9827   -2.4321 N   0  0  0  0  0  0  0  0  0  0  0  0
    1.7157   -0.3331   -2.2335 C   0  0  0  0  0  0  0  0  0  0  0  0
    0.6897   -1.4097   -2.5901 C   0  0  0  0  0  0  0  0  0  0  0  0
    1.2426   -2.8351   -2.4939 C   0  0  0  0  0  0  0  0  0  0  0  0
    1.0225   -3.5219   -1.1432 C   0  0  0  0  0  0  0  0  0  0  0  0
    1.7981   -2.9080    0.0083 C   0  0  0  0  0  0  0  0  0  0  0  0
    0.7712    3.1070   -1.6179 N   0  0  0  0  0  0  0  0  0  0  0  0
    0.2310    3.7889   -0.5687 C   0  0  0  0  0  0  0  0  0  0  0  0
   -0.3957    3.2743    0.5491 C   0  0  0  0  0  0  0  0  0  0  0  0
   -0.7695    4.3884    1.3119 C   0  0  0  0  0  0  0  0  0  0  0  0
   -0.4079    5.5420    0.7340 N   0  0  0  0  0  0  0  0  0  0  0  0
    0.1975    5.1471   -0.4145 N   0  0  0  0  0  0  0  0  0  0  0  0
    0.7190    6.1430   -1.3158 C   0  0  0  0  0  0  0  0  0  0  0  0
   -0.5363    1.8491    0.6964 C   0  0  0  0  0  0  0  0  0  0  0  0
   -1.1605    1.3878    1.7285 N   0  0  0  0  0  0  0  0  0  0  0  0
   -1.2905   -0.0030    1.8505 C   0  0  0  0  0  0  0  0  0  0  0  0
   -2.3016   -0.6670    1.1414 C   0  0  0  0  0  0  0  0  0  0  0  0
   -2.4569   -2.0605    1.2146 C   0  0  0  0  0  0  0  0  0  0  0  0
   -3.5492   -2.7187    0.4202 C   0  0  0  0  0  0  0  0  0  0  0  0
   -1.5822   -2.7830    2.0369 C   0  0  0  0  0  0  0  0  0  0  0  0
   -1.6877   -4.6723    2.2001 Br  0  0  0  0  0  0  0  0  0  0  0  0
   -0.5871   -2.1267    2.7699 C   0  0  0  0  0  0  0  0  0  0  0  0
   -0.4361   -0.7348    2.6878 C   0  0  0  0  0  0  0  0  0  0  0  0
    0.6419   -0.0469    3.4770 C   0  0  0  0  0  0  0  0  0  0  0  0
   -0.0542    0.2167   -0.4023 H   0  0  0  0  0  0  0  0  0  0  0  0
    1.6002    1.5233   -3.1601 H   0  0  0  0  0  0  0  0  0  0  0  0
    2.0894   -0.4381   -1.2119 H   0  0  0  0  0  0  0  0  0  0  0  0
    2.5858   -0.4312   -2.8933 H   0  0  0  0  0  0  0  0  0  0  0  0
   -0.2164   -1.3105   -1.9815 H   0  0  0  0  0  0  0  0  0  0  0  0
    0.3731   -1.2392   -3.6281 H   0  0  0  0  0  0  0  0  0  0  0  0
    2.3055   -2.8579   -2.7621 H   0  0  0  0  0  0  0  0  0  0  0  0
    0.7240   -3.4429   -3.2468 H   0  0  0  0  0  0  0  0  0  0  0  0
    1.3277   -4.5709   -1.2417 H   0  0  0  0  0  0  0  0  0  0  0  0
   -0.0462   -3.5302   -0.8999 H   0  0  0  0  0  0  0  0  0  0  0  0
    1.3987   -1.9270    0.2768 H   0  0  0  0  0  0  0  0  0  0  0  0
    1.7214   -3.5461    0.8946 H   0  0  0  0  0  0  0  0  0  0  0  0
    2.8586   -2.8014   -0.2396 H   0  0  0  0  0  0  0  0  0  0  0  0
   -1.2881    4.4104    2.2616 H   0  0  0  0  0  0  0  0  0  0  0  0
    1.1755    5.6627   -2.1839 H   0  0  0  0  0  0  0  0  0  0  0  0
    1.4695    6.7310   -0.7813 H   0  0  0  0  0  0  0  0  0  0  0  0
   -0.1076    6.7813   -1.6381 H   0  0  0  0  0  0  0  0  0  0  0  0
   -2.9768   -0.0749    0.5254 H   0  0  0  0  0  0  0  0  0  0  0  0
   -3.1257   -3.4304   -0.2958 H   0  0  0  0  0  0  0  0  0  0  0  0
   -4.2493   -3.2346    1.0850 H   0  0  0  0  0  0  0  0  0  0  0  0
   -4.1258   -1.9849   -0.1535 H   0  0  0  0  0  0  0  0  0  0  0  0
    0.0779   -2.7016    3.4115 H   0  0  0  0  0  0  0  0  0  0  0  0
    0.2179    0.7611    4.0821 H   0  0  0  0  0  0  0  0  0  0  0  0
    1.1411   -0.7403    4.1621 H   0  0  0  0  0  0  0  0  0  0  0  0
    1.4002    0.3628    2.8021 H   0  0  0  0  0  0  0  0  0  0  0  0
  1  2  1  0
  2  3  1  0
  3  4  1  0
  4  5  1  0
  5  6  1  0
  6  7  1  0
  7  8  1  0
  2  9  2  0
  9 10  1  0
 10 11  2  0
 11 12  1  0
 12 13  2  0
 13 14  1  0
 14 15  1  0
 11 16  1  0
 16 17  2  3
 17 18  1  0
 18 19  2  0
 19 20  1  0
 20 21  1  0
 20 22  2  0
 22 23  1  0
 22 24  1  0
 24 25  2  0
 25 26  1  0
 16  1  1  0
 25 18  1  0
 14 10  1  0
  1 27  1  0
  3 28  1  0
  4 29  1  0
  4 30  1  0
  5 31  1  0
  5 32  1  0
  6 33  1  0
  6 34  1  0
  7 35  1  0
  7 36  1  0
  8 37  1  0
  8 38  1  0
  8 39  1  0
 12 40  1  0
 15 41  1  0
 15 42  1  0
 15 43  1  0
 19 44  1  0
 21 45  1  0
 21 46  1  0
 21 47  1  0
 24 48  1  0
 26 49  1  0
 26 50  1  0
 26 51  1  0
M  END
>  <ScrubInfo>  (3) 
{"isomerGroup": 0, "isomerId": 2, "confId": 0, "nr_conformers:": 1, "nr_isomers:": 9}

$$$$
_i3
     RDKit          3D

 51 53  0  0  0  0  0  0  0  0999 V2000
    1.2564   -1.8575   -1.6296 N   0  0  0  0  0  0  0  0  0  0  0  0
    1.1110   -0.7081   -0.8710 C   0  0  0  0  0  0  0  0  0  0  0  0
    2.0593    0.0566   -0.4632 N   0  0  0  0  0  0  0  0  0  0  0  0
    3.4417   -0.2633   -0.7743 C   0  0  0  0  0  0  0  0  0  0  0  0
    4.3633    0.7434   -0.0820 C   0  0  0  0  0  0  0  0  0  0  0  0
    4.6079    0.4640    1.4068 C   0  0  0  0  0  0  0  0  0  0  0  0
    3.3936    0.5646    2.3324 C   0  0  0  0  0  0  0  0  0  0  0  0
    2.7535    1.9439    2.3521 C   0  0  0  0  0  0  0  0  0  0  0  0
   -0.1390   -0.2736   -0.4656 N   0  0  0  0  0  0  0  0  0  0  0  0
   -1.2066   -0.9582   -0.7508 C   0  0  0  0  0  0  0  0  0  0  0  0
   -2.5104   -0.6596   -0.4195 N   0  0  0  0  0  0  0  0  0  0  0  0
   -2.9066    0.5347    0.2256 C   0  0  0  0  0  0  0  0  0  0  0  0
   -3.8098    1.3794   -0.4508 C   0  0  0  0  0  0  0  0  0  0  0  0
   -4.2156    2.6175    0.0765 C   0  0  0  0  0  0  0  0  0  0  0  0
   -5.1757    3.4700   -0.7041 C   0  0  0  0  0  0  0  0  0  0  0  0
   -3.6878    3.0169    1.3083 C   0  0  0  0  0  0  0  0  0  0  0  0
   -4.1494    4.6748    2.1122 Br  0  0  0  0  0  0  0  0  0  0  0  0
   -2.7906    2.1933    1.9933 C   0  0  0  0  0  0  0  0  0  0  0  0
   -2.4016    0.9458    1.4723 C   0  0  0  0  0  0  0  0  0  0  0  0
   -1.4507    0.1144    2.2913 C   0  0  0  0  0  0  0  0  0  0  0  0
   -1.0874   -2.1849   -1.5132 C   0  0  0  0  0  0  0  0  0  0  0  0
   -1.9336   -3.1999   -1.9877 C   0  0  0  0  0  0  0  0  0  0  0  0
   -1.2678   -4.1431   -2.6710 N   0  0  0  0  0  0  0  0  0  0  0  0
    0.0240   -3.7347   -2.6147 N   0  0  0  0  0  0  0  0  0  0  0  0
    1.0407   -4.5361   -3.2469 C   0  0  0  0  0  0  0  0  0  0  0  0
    0.1584   -2.5722   -1.9249 C   0  0  0  0  0  0  0  0  0  0  0  0
    2.1928   -2.1195   -1.8960 H   0  0  0  0  0  0  0  0  0  0  0  0
    3.5981   -0.1865   -1.8570 H   0  0  0  0  0  0  0  0  0  0  0  0
    3.7020   -1.2804   -0.4587 H   0  0  0  0  0  0  0  0  0  0  0  0
    5.3395    0.6989   -0.5818 H   0  0  0  0  0  0  0  0  0  0  0  0
    3.9918    1.7648   -0.2232 H   0  0  0  0  0  0  0  0  0  0  0  0
    5.3751    1.1636    1.7625 H   0  0  0  0  0  0  0  0  0  0  0  0
    5.0401   -0.5392    1.5114 H   0  0  0  0  0  0  0  0  0  0  0  0
    3.7213    0.3238    3.3514 H   0  0  0  0  0  0  0  0  0  0  0  0
    2.6446   -0.1896    2.0703 H   0  0  0  0  0  0  0  0  0  0  0  0
    2.3173    2.2027    1.3834 H   0  0  0  0  0  0  0  0  0  0  0  0
    1.9498    1.9736    3.0950 H   0  0  0  0  0  0  0  0  0  0  0  0
    3.4868    2.7123    2.6166 H   0  0  0  0  0  0  0  0  0  0  0  0
   -3.2105   -0.9981   -1.0656 H   0  0  0  0  0  0  0  0  0  0  0  0
   -4.1902    1.0765   -1.4247 H   0  0  0  0  0  0  0  0  0  0  0  0
   -5.4899    2.9760   -1.6299 H   0  0  0  0  0  0  0  0  0  0  0  0
   -4.7054    4.4182   -0.9835 H   0  0  0  0  0  0  0  0  0  0  0  0
   -6.0802    3.6641   -0.1188 H   0  0  0  0  0  0  0  0  0  0  0  0
   -2.3842    2.5186    2.9495 H   0  0  0  0  0  0  0  0  0  0  0  0
   -1.5468   -0.9528    2.0705 H   0  0  0  0  0  0  0  0  0  0  0  0
   -1.6690    0.2269    3.3594 H   0  0  0  0  0  0  0  0  0  0  0  0
   -0.4187    0.4325    2.1170 H   0  0  0  0  0  0  0  0  0  0  0  0
   -3.0039   -3.3078   -1.8723 H   0  0  0  0  0  0  0  0  0  0  0  0
    0.7745   -4.6651   -4.2992 H   0  0  0  0  0  0  0  0  0  0  0  0
    1.0790   -5.5038   -2.7406 H   0  0  0  0  0  0  0  0  0  0  0  0
    2.0092   -4.0378   -3.1708 H   0  0  0  0  0  0  0  0  0  0  0  0
  1  2  1  0
  2  3  2  3
  3  4  1  0
  4  5  1  0
  5  6  1  0
  6  7  1  0
  7  8  1  0
  2  9  1  0
  9 10  2  0
 10 11  1  0
 11 12  1  0
 12 13  2  0
 13 14  1  0
 14 15  1  0
 14 16  2  0
 16 17  1  0
 16 18  1  0
 18 19  2  0
 19 20  1  0
 10 21  1  0
 21 22  1  0
 22 23  2  0
 23 24  1  0
 24 25  1  0
 24 26  1  0
 26  1  1  0
 19 12  1  0
 26 21  2  0
  1 27  1  0
  4 28  1  0
  4 29  1  0
  5 30  1  0
  5 31  1  0
  6 32  1  0
  6 33  1  0
  7 34  1  0
  7 35  1  0
  8 36  1  0
  8 37  1  0
  8 38  1  0
 11 39  1  0
 13 40  1  0
 15 41  1  0
 15 42  1  0
 15 43  1  0
 18 44  1  0
 20 45  1  0
 20 46  1  0
 20 47  1  0
 22 48  1  0
 25 49  1  0
 25 50  1  0
 25 51  1  0
M  END
>  <ScrubInfo>  (4) 
{"isomerGroup": 0, "isomerId": 3, "confId": 0, "nr_conformers:": 1, "nr_isomers:": 9}

$$$$
_i4
     RDKit          3D

 51 53  0  0  0  0  0  0  0  0999 V2000
   -1.4911   -4.8838   -0.5550 N   0  0  0  0  0  0  0  0  0  0  0  0
   -2.2680   -3.7525   -0.3248 C   0  0  0  0  0  0  0  0  0  0  0  0
   -1.5630   -2.6160   -0.3927 C   0  0  0  0  0  0  0  0  0  0  0  0
   -1.8036   -1.2035   -0.2138 C   0  0  0  0  0  0  0  0  0  0  0  0
   -2.9821   -0.7318    0.0519 N   0  0  0  0  0  0  0  0  0  0  0  0
   -3.1249    0.6553    0.2205 C   0  0  0  0  0  0  0  0  0  0  0  0
   -3.3463    1.4643   -0.9029 C   0  0  0  0  0  0  0  0  0  0  0  0
   -3.5138    2.8540   -0.7893 C   0  0  0  0  0  0  0  0  0  0  0  0
   -3.7337    3.6684   -2.0318 C   0  0  0  0  0  0  0  0  0  0  0  0
   -3.4655    3.4246    0.4894 C   0  0  0  0  0  0  0  0  0  0  0  0
   -3.6711    5.2936    0.7631 Br  0  0  0  0  0  0  0  0  0  0  0  0
   -3.2637    2.6252    1.6204 C   0  0  0  0  0  0  0  0  0  0  0  0
   -3.1039    1.2369    1.4979 C   0  0  0  0  0  0  0  0  0  0  0  0
   -2.8839    0.3951    2.7221 C   0  0  0  0  0  0  0  0  0  0  0  0
   -0.6868   -0.4205   -0.3360 N   0  0  0  0  0  0  0  0  0  0  0  0
    0.4850   -0.9128   -0.6204 C   0  0  0  0  0  0  0  0  0  0  0  0
    1.5016   -0.0065   -0.7071 N   0  0  0  0  0  0  0  0  0  0  0  0
    2.8892   -0.3694   -0.5231 C   0  0  0  0  0  0  0  0  0  0  0  0
    3.8105    0.8215   -0.7943 C   0  0  0  0  0  0  0  0  0  0  0  0
    3.6618    2.0077    0.1672 C   0  0  0  0  0  0  0  0  0  0  0  0
    3.8261    1.6852    1.6539 C   0  0  0  0  0  0  0  0  0  0  0  0
    5.1839    1.0950    2.0005 C   0  0  0  0  0  0  0  0  0  0  0  0
    0.7655   -2.2394   -0.8308 N   0  0  0  0  0  0  0  0  0  0  0  0
   -0.2136   -3.0710   -0.7466 C   0  0  0  0  0  0  0  0  0  0  0  0
   -0.2208   -4.4544   -0.9351 N   0  0  0  0  0  0  0  0  0  0  0  0
    0.9309   -5.2618   -0.5843 C   0  0  0  0  0  0  0  0  0  0  0  0
   -1.9409   -5.5594   -1.1773 H   0  0  0  0  0  0  0  0  0  0  0  0
   -3.3242   -3.8581   -0.1197 H   0  0  0  0  0  0  0  0  0  0  0  0
   -3.3775    0.9886   -1.8807 H   0  0  0  0  0  0  0  0  0  0  0  0
   -4.6985    4.1837   -1.9868 H   0  0  0  0  0  0  0  0  0  0  0  0
   -2.9293    4.4002   -2.1576 H   0  0  0  0  0  0  0  0  0  0  0  0
   -3.7435    3.0386   -2.9280 H   0  0  0  0  0  0  0  0  0  0  0  0
   -3.2327    3.0834    2.6063 H   0  0  0  0  0  0  0  0  0  0  0  0
   -3.0354    0.9748    3.6388 H   0  0  0  0  0  0  0  0  0  0  0  0
   -1.8607    0.0065    2.7345 H   0  0  0  0  0  0  0  0  0  0  0  0
   -3.5909   -0.4406    2.7464 H   0  0  0  0  0  0  0  0  0  0  0  0
    1.2153    0.8906   -0.3346 H   0  0  0  0  0  0  0  0  0  0  0  0
    3.0464   -0.7625    0.4867 H   0  0  0  0  0  0  0  0  0  0  0  0
    3.1558   -1.1681   -1.2255 H   0  0  0  0  0  0  0  0  0  0  0  0
    3.6348    1.1860   -1.8147 H   0  0  0  0  0  0  0  0  0  0  0  0
    4.8492    0.4706   -0.7717 H   0  0  0  0  0  0  0  0  0  0  0  0
    4.4019    2.7683   -0.1128 H   0  0  0  0  0  0  0  0  0  0  0  0
    2.6819    2.4771    0.0196 H   0  0  0  0  0  0  0  0  0  0  0  0
    3.0338    1.0063    1.9876 H   0  0  0  0  0  0  0  0  0  0  0  0
    3.6952    2.6135    2.2233 H   0  0  0  0  0  0  0  0  0  0  0  0
    5.9941    1.7490    1.6632 H   0  0  0  0  0  0  0  0  0  0  0  0
    5.3215    0.1099    1.5452 H   0  0  0  0  0  0  0  0  0  0  0  0
    5.2753    0.9745    3.0848 H   0  0  0  0  0  0  0  0  0  0  0  0
    0.7742   -6.3015   -0.8893 H   0  0  0  0  0  0  0  0  0  0  0  0
    1.8278   -4.8957   -1.0940 H   0  0  0  0  0  0  0  0  0  0  0  0
    1.1078   -5.2389    0.4961 H   0  0  0  0  0  0  0  0  0  0  0  0
  1  2  1  0
  2  3  2  0
  3  4  1  0
  4  5  2  3
  5  6  1  0
  6  7  2  0
  7  8  1  0
  8  9  1  0
  8 10  2  0
 10 11  1  0
 10 12  1  0
 12 13  2  0
 13 14  1  0
  4 15  1  0
 15 16  2  0
 16 17  1  0
 17 18  1  0
 18 19  1  0
 19 20  1  0
 20 21  1  0
 21 22  1  0
 16 23  1  0
 23 24  2  0
 24 25  1  0
 25 26  1  0
 25  1  1  0
 24  3  1  0
 13  6  1  0
  1 27  1  0
  2 28  1  0
  7 29  1  0
  9 30  1  0
  9 31  1  0
  9 32  1  0
 12 33  1  0
 14 34  1  0
 14 35  1  0
 14 36  1  0
 17 37  1  0
 18 38  1  0
 18 39  1  0
 19 40  1  0
 19 41  1  0
 20 42  1  0
 20 43  1  0
 21 44  1  0
 21 45  1  0
 22 46  1  0
 22 47  1  0
 22 48  1  0
 26 49  1  0
 26 50  1  0
 26 51  1  0
M  END
>  <ScrubInfo>  (5) 
{"isomerGroup": 0, "isomerId": 4, "confId": 0, "nr_conformers:": 1, "nr_isomers:": 9}

$$$$
_i5
     RDKit          3D

 51 53  0  0  0  0  0  0  0  0999 V2000
    0.5908   -2.3007    0.4221 N   0  0  0  0  0  0  0  0  0  0  0  0
    0.1281   -1.0477    0.7537 C   0  0  0  0  0  0  0  0  0  0  0  0
    0.9092   -0.3457    1.6264 N   0  0  0  0  0  0  0  0  0  0  0  0
    2.3433   -0.1621    1.4422 C   0  0  0  0  0  0  0  0  0  0  0  0
    2.6261    0.7375    0.2379 C   0  0  0  0  0  0  0  0  0  0  0  0
    4.1191    0.9144   -0.0512 C   0  0  0  0  0  0  0  0  0  0  0  0
    4.8656    1.6710    1.0480 C   0  0  0  0  0  0  0  0  0  0  0  0
    6.3158    1.9204    0.6623 C   0  0  0  0  0  0  0  0  0  0  0  0
   -0.9748   -0.5030    0.3174 N   0  0  0  0  0  0  0  0  0  0  0  0
   -1.7740   -1.2126   -0.5699 C   0  0  0  0  0  0  0  0  0  0  0  0
   -2.8701   -0.7596   -1.0896 N   0  0  0  0  0  0  0  0  0  0  0  0
   -3.2811    0.5360   -0.7397 C   0  0  0  0  0  0  0  0  0  0  0  0
   -2.8330    1.6236   -1.5027 C   0  0  0  0  0  0  0  0  0  0  0  0
   -3.2250    2.9402   -1.2111 C   0  0  0  0  0  0  0  0  0  0  0  0
   -2.7024    4.0642   -2.0590 C   0  0  0  0  0  0  0  0  0  0  0  0
   -4.0940    3.1488   -0.1320 C   0  0  0  0  0  0  0  0  0  0  0  0
   -4.6832    4.8869    0.3605 Br  0  0  0  0  0  0  0  0  0  0  0  0
   -4.5636    2.0695    0.6250 C   0  0  0  0  0  0  0  0  0  0  0  0
   -4.1735    0.7566    0.3211 C   0  0  0  0  0  0  0  0  0  0  0  0
   -4.6848   -0.3886    1.1478 C   0  0  0  0  0  0  0  0  0  0  0  0
   -1.3439   -2.5417   -0.9206 C   0  0  0  0  0  0  0  0  0  0  0  0
   -1.8404   -3.5842   -1.7138 C   0  0  0  0  0  0  0  0  0  0  0  0
   -1.0425   -4.6653   -1.6895 N   0  0  0  0  0  0  0  0  0  0  0  0
   -0.0265   -4.2997   -0.8679 N   0  0  0  0  0  0  0  0  0  0  0  0
    1.0373   -5.2358   -0.6104 C   0  0  0  0  0  0  0  0  0  0  0  0
   -0.1780   -3.0328   -0.4022 C   0  0  0  0  0  0  0  0  0  0  0  0
    1.3332   -2.6846    0.9898 H   0  0  0  0  0  0  0  0  0  0  0  0
    0.4498    0.5437    1.8190 H   0  0  0  0  0  0  0  0  0  0  0  0
    2.7365    0.2960    2.3555 H   0  0  0  0  0  0  0  0  0  0  0  0
    2.8480   -1.1278    1.3305 H   0  0  0  0  0  0  0  0  0  0  0  0
    2.1564    0.3087   -0.6563 H   0  0  0  0  0  0  0  0  0  0  0  0
    2.1590    1.7188    0.3890 H   0  0  0  0  0  0  0  0  0  0  0  0
    4.2211    1.4632   -0.9958 H   0  0  0  0  0  0  0  0  0  0  0  0
    4.5824   -0.0677   -0.2061 H   0  0  0  0  0  0  0  0  0  0  0  0
    4.8458    1.1021    1.9835 H   0  0  0  0  0  0  0  0  0  0  0  0
    4.3744    2.6321    1.2390 H   0  0  0  0  0  0  0  0  0  0  0  0
    6.8437    0.9768    0.4909 H   0  0  0  0  0  0  0  0  0  0  0  0
    6.8334    2.4590    1.4622 H   0  0  0  0  0  0  0  0  0  0  0  0
    6.3817    2.5222   -0.2498 H   0  0  0  0  0  0  0  0  0  0  0  0
   -2.1610    1.4254   -2.3349 H   0  0  0  0  0  0  0  0  0  0  0  0
   -3.5280    4.5943   -2.5443 H   0  0  0  0  0  0  0  0  0  0  0  0
   -2.1202    4.7641   -1.4511 H   0  0  0  0  0  0  0  0  0  0  0  0
   -2.0424    3.6955   -2.8518 H   0  0  0  0  0  0  0  0  0  0  0  0
   -5.2412    2.2479    1.4570 H   0  0  0  0  0  0  0  0  0  0  0  0
   -5.4900   -0.0695    1.8179 H   0  0  0  0  0  0  0  0  0  0  0  0
   -5.0920   -1.1762    0.5054 H   0  0  0  0  0  0  0  0  0  0  0  0
   -3.8779   -0.8011    1.7617 H   0  0  0  0  0  0  0  0  0  0  0  0
   -2.7483   -3.6075   -2.3029 H   0  0  0  0  0  0  0  0  0  0  0  0
    0.6179   -6.0948   -0.0808 H   0  0  0  0  0  0  0  0  0  0  0  0
    1.4639   -5.5472   -1.5673 H   0  0  0  0  0  0  0  0  0  0  0  0
    1.8094   -4.7630    0.0002 H   0  0  0  0  0  0  0  0  0  0  0  0
  1  2  1  0
  2  3  1  0
  3  4  1  0
  4  5  1  0
  5  6  1  0
  6  7  1  0
  7  8  1  0
  2  9  2  0
  9 10  1  0
 10 11  2  3
 11 12  1  0
 12 13  2  0
 13 14  1  0
 14 15  1  0
 14 16  2  0
 16 17  1  0
 16 18  1  0
 18 19  2  0
 19 20  1  0
 10 21  1  0
 21 22  1  0
 22 23  2  0
 23 24  1  0
 24 25  1  0
 24 26  1  0
 26  1  1  0
 19 12  1  0
 26 21  2  0
  1 27  1  0
  3 28  1  0
  4 29  1  0
  4 30  1  0
  5 31  1  0
  5 32  1  0
  6 33  1  0
  6 34  1  0
  7 35  1  0
  7 36  1  0
  8 37  1  0
  8 38  1  0
  8 39  1  0
 13 40  1  0
 15 41  1  0
 15 42  1  0
 15 43  1  0
 18 44  1  0
 20 45  1  0
 20 46  1  0
 20 47  1  0
 22 48  1  0
 25 49  1  0
 25 50  1  0
 25 51  1  0
M  END
>  <ScrubInfo>  (6) 
{"isomerGroup": 0, "isomerId": 5, "confId": 0, "nr_conformers:": 1, "nr_isomers:": 9}

$$$$
_i6
     RDKit          3D

 51 53  0  0  0  0  0  0  0  0999 V2000
   -0.4750    4.0374    2.2874 N   0  0  0  0  0  0  0  0  0  0  0  0
   -1.4114    3.0172    2.1562 C   0  0  0  0  0  0  0  0  0  0  0  0
   -0.9379    1.9579    1.4857 C   0  0  0  0  0  0  0  0  0  0  0  0
   -1.4111    0.6536    1.0211 C   0  0  0  0  0  0  0  0  0  0  0  0
   -2.6982    0.2386    1.3172 N   0  0  0  0  0  0  0  0  0  0  0  0
   -3.3888   -0.7656    0.6020 C   0  0  0  0  0  0  0  0  0  0  0  0
   -3.9802   -1.7967    1.3543 C   0  0  0  0  0  0  0  0  0  0  0  0
   -4.7544   -2.8058    0.7585 C   0  0  0  0  0  0  0  0  0  0  0  0
   -5.3242   -3.8983    1.6178 C   0  0  0  0  0  0  0  0  0  0  0  0
   -4.9535   -2.7547   -0.6249 C   0  0  0  0  0  0  0  0  0  0  0  0
   -5.9723   -4.0683   -1.5442 Br  0  0  0  0  0  0  0  0  0  0  0  0
   -4.4087   -1.7123   -1.3812 C   0  0  0  0  0  0  0  0  0  0  0  0
   -3.6498   -0.6940   -0.7776 C   0  0  0  0  0  0  0  0  0  0  0  0
   -3.1129    0.4048   -1.6532 C   0  0  0  0  0  0  0  0  0  0  0  0
   -0.5723   -0.0813    0.3474 N   0  0  0  0  0  0  0  0  0  0  0  0
    0.6899    0.3932    0.0723 C   0  0  0  0  0  0  0  0  0  0  0  0
    1.3822   -0.3803   -0.6874 N   0  0  0  0  0  0  0  0  0  0  0  0
    2.7384    0.0390   -1.0318 C   0  0  0  0  0  0  0  0  0  0  0  0
    3.3494   -1.0350   -1.9349 C   0  0  0  0  0  0  0  0  0  0  0  0
    4.7771   -0.7059   -2.3822 C   0  0  0  0  0  0  0  0  0  0  0  0
    5.8776   -1.3532   -1.5366 C   0  0  0  0  0  0  0  0  0  0  0  0
    5.9192   -0.8855   -0.0923 C   0  0  0  0  0  0  0  0  0  0  0  0
    1.2412    1.5739    0.5198 N   0  0  0  0  0  0  0  0  0  0  0  0
    0.4664    2.3306    1.2144 C   0  0  0  0  0  0  0  0  0  0  0  0
    0.7407    3.5648    1.8038 N   0  0  0  0  0  0  0  0  0  0  0  0
    1.6724    4.4941    1.1935 C   0  0  0  0  0  0  0  0  0  0  0  0
   -0.4514    4.4564    3.2204 H   0  0  0  0  0  0  0  0  0  0  0  0
   -2.3922    3.1545    2.5867 H   0  0  0  0  0  0  0  0  0  0  0  0
   -3.3378    0.9422    1.6648 H   0  0  0  0  0  0  0  0  0  0  0  0
   -3.8027   -1.8239    2.4285 H   0  0  0  0  0  0  0  0  0  0  0  0
   -4.9246   -4.8714    1.3150 H   0  0  0  0  0  0  0  0  0  0  0  0
   -6.4167   -3.9098    1.5495 H   0  0  0  0  0  0  0  0  0  0  0  0
   -5.0671   -3.7545    2.6729 H   0  0  0  0  0  0  0  0  0  0  0  0
   -4.5782   -1.6853   -2.4562 H   0  0  0  0  0  0  0  0  0  0  0  0
   -3.1331    1.3699   -1.1376 H   0  0  0  0  0  0  0  0  0  0  0  0
   -3.7266    0.5231   -2.5532 H   0  0  0  0  0  0  0  0  0  0  0  0
   -2.0903    0.1763   -1.9670 H   0  0  0  0  0  0  0  0  0  0  0  0
    2.7196    0.9928   -1.5736 H   0  0  0  0  0  0  0  0  0  0  0  0
    3.3422    0.1606   -0.1276 H   0  0  0  0  0  0  0  0  0  0  0  0
    3.3117   -2.0158   -1.4455 H   0  0  0  0  0  0  0  0  0  0  0  0
    2.7190   -1.1188   -2.8302 H   0  0  0  0  0  0  0  0  0  0  0  0
    4.9017   -1.0792   -3.4070 H   0  0  0  0  0  0  0  0  0  0  0  0
    4.9287    0.3789   -2.4312 H   0  0  0  0  0  0  0  0  0  0  0  0
    5.7687   -2.4440   -1.5600 H   0  0  0  0  0  0  0  0  0  0  0  0
    6.8445   -1.1263   -2.0022 H   0  0  0  0  0  0  0  0  0  0  0  0
    5.0494   -1.2428    0.4662 H   0  0  0  0  0  0  0  0  0  0  0  0
    6.8110   -1.2815    0.4044 H   0  0  0  0  0  0  0  0  0  0  0  0
    5.9546    0.2065   -0.0307 H   0  0  0  0  0  0  0  0  0  0  0  0
    1.8299    5.3588    1.8462 H   0  0  0  0  0  0  0  0  0  0  0  0
    2.6437    4.0157    1.0321 H   0  0  0  0  0  0  0  0  0  0  0  0
    1.2920    4.8496    0.2303 H   0  0  0  0  0  0  0  0  0  0  0  0
  1  2  1  0
  2  3  2  0
  3  4  1  0
  4  5  1  0
  5  6  1  0
  6  7  2  0
  7  8  1  0
  8  9  1  0
  8 10  2  0
 10 11  1  0
 10 12  1  0
 12 13  2  0
 13 14  1  0
  4 15  2  0
 15 16  1  0
 16 17  2  3
 17 18  1  0
 18 19  1  0
 19 20  1  0
 20 21  1  0
 21 22  1  0
 16 23  1  0
 23 24  2  0
 24 25  1  0
 25 26  1  0
 25  1  1  0
 24  3  1  0
 13  6  1  0
  1 27  1  0
  2 28  1  0
  5 29  1  0
  7 30  1  0
  9 31  1  0
  9 32  1  0
  9 33  1  0
 12 34  1  0
 14 35  1  0
 14 36  1  0
 14 37  1  0
 18 38  1  0
 18 39  1  0
 19 40  1  0
 19 41  1  0
 20 42  1  0
 20 43  1  0
 21 44  1  0
 21 45  1  0
 22 46  1  0
 22 47  1  0
 22 48  1  0
 26 49  1  0
 26 50  1  0
 26 51  1  0
M  END
>  <ScrubInfo>  (7) 
{"isomerGroup": 0, "isomerId": 6, "confId": 0, "nr_conformers:": 1, "nr_isomers:": 9}

$$$$
_i7
     RDKit          3D

 51 53  0  0  0  0  0  0  0  0999 V2000
   -1.2979   -4.4473   -1.5535 N   0  0  0  0  0  0  0  0  0  0  0  0
   -2.1268   -3.3765   -1.2374 C   0  0  0  0  0  0  0  0  0  0  0  0
   -1.4622   -2.3431   -0.7073 C   0  0  0  0  0  0  0  0  0  0  0  0
   -1.7652   -1.0170   -0.1652 C   0  0  0  0  0  0  0  0  0  0  0  0
   -2.9920   -0.5873   -0.1782 N   0  0  0  0  0  0  0  0  0  0  0  0
   -3.2621    0.6849    0.3477 C   0  0  0  0  0  0  0  0  0  0  0  0
   -3.1835    1.8010   -0.4960 C   0  0  0  0  0  0  0  0  0  0  0  0
   -3.4311    3.0996   -0.0224 C   0  0  0  0  0  0  0  0  0  0  0  0
   -3.3249    4.2586   -0.9726 C   0  0  0  0  0  0  0  0  0  0  0  0
   -3.7725    3.2594    1.3271 C   0  0  0  0  0  0  0  0  0  0  0  0
   -4.1223    4.9687    2.0787 Br  0  0  0  0  0  0  0  0  0  0  0  0
   -3.8711    2.1494    2.1739 C   0  0  0  0  0  0  0  0  0  0  0  0
   -3.6303    0.8547    1.6908 C   0  0  0  0  0  0  0  0  0  0  0  0
   -3.7437   -0.3239    2.6159 C   0  0  0  0  0  0  0  0  0  0  0  0
   -0.6444   -0.3859    0.3114 N   0  0  0  0  0  0  0  0  0  0  0  0
    0.6350   -0.8744    0.3064 C   0  0  0  0  0  0  0  0  0  0  0  0
    1.5632   -0.1387    0.8223 N   0  0  0  0  0  0  0  0  0  0  0  0
    2.9396   -0.6347    0.8333 C   0  0  0  0  0  0  0  0  0  0  0  0
    3.6732   -0.2342   -0.4473 C   0  0  0  0  0  0  0  0  0  0  0  0
    3.7194    1.2738   -0.7222 C   0  0  0  0  0  0  0  0  0  0  0  0
    4.3595    2.1296    0.3732 C   0  0  0  0  0  0  0  0  0  0  0  0
    5.8073    1.7645    0.6608 C   0  0  0  0  0  0  0  0  0  0  0  0
    0.9416   -2.1051   -0.2387 N   0  0  0  0  0  0  0  0  0  0  0  0
   -0.0368   -2.7974   -0.7334 C   0  0  0  0  0  0  0  0  0  0  0  0
    0.0224   -4.0492   -1.3520 N   0  0  0  0  0  0  0  0  0  0  0  0
    1.0022   -5.0376   -0.9440 C   0  0  0  0  0  0  0  0  0  0  0  0
   -1.5077   -4.8655   -2.4628 H   0  0  0  0  0  0  0  0  0  0  0  0
   -3.1885   -3.4441   -1.4291 H   0  0  0  0  0  0  0  0  0  0  0  0
   -2.9239    1.6422   -1.5410 H   0  0  0  0  0  0  0  0  0  0  0  0
   -4.2855    4.7773   -1.0532 H   0  0  0  0  0  0  0  0  0  0  0  0
   -2.5532    4.9590   -0.6379 H   0  0  0  0  0  0  0  0  0  0  0  0
   -3.0486    3.9276   -1.9796 H   0  0  0  0  0  0  0  0  0  0  0  0
   -4.1441    2.2907    3.2178 H   0  0  0  0  0  0  0  0  0  0  0  0
   -4.2065   -0.0417    3.5676 H   0  0  0  0  0  0  0  0  0  0  0  0
   -2.7511   -0.7321    2.8305 H   0  0  0  0  0  0  0  0  0  0  0  0
   -4.3695   -1.1043    2.1708 H   0  0  0  0  0  0  0  0  0  0  0  0
   -0.7372    0.5282    0.7279 H   0  0  0  0  0  0  0  0  0  0  0  0
    3.4471   -0.2103    1.7064 H   0  0  0  0  0  0  0  0  0  0  0  0
    2.9935   -1.7209    0.9749 H   0  0  0  0  0  0  0  0  0  0  0  0
    3.1924   -0.7187   -1.3062 H   0  0  0  0  0  0  0  0  0  0  0  0
    4.6940   -0.6316   -0.4084 H   0  0  0  0  0  0  0  0  0  0  0  0
    4.2656    1.4345   -1.6604 H   0  0  0  0  0  0  0  0  0  0  0  0
    2.7009    1.6407   -0.8992 H   0  0  0  0  0  0  0  0  0  0  0  0
    3.7750    2.0677    1.2975 H   0  0  0  0  0  0  0  0  0  0  0  0
    4.3222    3.1787    0.0552 H   0  0  0  0  0  0  0  0  0  0  0  0
    6.4103    1.7998   -0.2520 H   0  0  0  0  0  0  0  0  0  0  0  0
    5.8903    0.7629    1.0927 H   0  0  0  0  0  0  0  0  0  0  0  0
    6.2373    2.4710    1.3781 H   0  0  0  0  0  0  0  0  0  0  0  0
    0.9568   -5.9124   -1.6008 H   0  0  0  0  0  0  0  0  0  0  0  0
    2.0146   -4.6257   -1.0064 H   0  0  0  0  0  0  0  0  0  0  0  0
    0.8193   -5.3649    0.0848 H   0  0  0  0  0  0  0  0  0  0  0  0
  1  2  1  0
  2  3  2  0
  3  4  1  0
  4  5  2  3
  5  6  1  0
  6  7  2  0
  7  8  1  0
  8  9  1  0
  8 10  2  0
 10 11  1  0
 10 12  1  0
 12 13  2  0
 13 14  1  0
  4 15  1  0
 15 16  1  0
 16 17  2  3
 17 18  1  0
 18 19  1  0
 19 20  1  0
 20 21  1  0
 21 22  1  0
 16 23  1  0
 23 24  2  0
 24 25  1  0
 25 26  1  0
 25  1  1  0
 24  3  1  0
 13  6  1  0
  1 27  1  0
  2 28  1  0
  7 29  1  0
  9 30  1  0
  9 31  1  0
  9 32  1  0
 12 33  1  0
 14 34  1  0
 14 35  1  0
 14 36  1  0
 15 37  1  0
 18 38  1  0
 18 39  1  0
 19 40  1  0
 19 41  1  0
 20 42  1  0
 20 43  1  0
 21 44  1  0
 21 45  1  0
 22 46  1  0
 22 47  1  0
 22 48  1  0
 26 49  1  0
 26 50  1  0
 26 51  1  0
M  END
>  <ScrubInfo>  (8) 
{"isomerGroup": 0, "isomerId": 7, "confId": 0, "nr_conformers:": 1, "nr_isomers:": 9}

$$$$
_i8
     RDKit          3D

 51 53  0  0  0  0  0  0  0  0999 V2000
    1.3136   -2.2075   -1.4660 N   0  0  0  0  0  0  0  0  0  0  0  0
    1.0935   -0.9238   -1.0029 C   0  0  0  0  0  0  0  0  0  0  0  0
    2.1037   -0.1256   -0.9130 N   0  0  0  0  0  0  0  0  0  0  0  0
    1.8769    1.2289   -0.4179 C   0  0  0  0  0  0  0  0  0  0  0  0
    3.2150    1.9632   -0.3291 C   0  0  0  0  0  0  0  0  0  0  0  0
    4.2324    1.3348    0.6312 C   0  0  0  0  0  0  0  0  0  0  0  0
    3.7702    1.1808    2.0822 C   0  0  0  0  0  0  0  0  0  0  0  0
    3.3952    2.4976    2.7436 C   0  0  0  0  0  0  0  0  0  0  0  0
   -0.2308   -0.6656   -0.6879 N   0  0  0  0  0  0  0  0  0  0  0  0
   -1.3458   -1.4836   -0.7568 C   0  0  0  0  0  0  0  0  0  0  0  0
   -2.5819   -1.2530   -0.4567 N   0  0  0  0  0  0  0  0  0  0  0  0
   -2.9131    0.0214    0.0254 C   0  0  0  0  0  0  0  0  0  0  0  0
   -3.2856    1.0172   -0.8875 C   0  0  0  0  0  0  0  0  0  0  0  0
   -3.6017    2.3189   -0.4667 C   0  0  0  0  0  0  0  0  0  0  0  0
   -3.9909    3.3460   -1.4921 C   0  0  0  0  0  0  0  0  0  0  0  0
   -3.5451    2.6052    0.9038 C   0  0  0  0  0  0  0  0  0  0  0  0
   -3.9395    4.3336    1.5857 Br  0  0  0  0  0  0  0  0  0  0  0  0
   -3.1933    1.6124    1.8256 C   0  0  0  0  0  0  0  0  0  0  0  0
   -2.8887    0.3117    1.3981 C   0  0  0  0  0  0  0  0  0  0  0  0
   -2.5162   -0.7399    2.4051 C   0  0  0  0  0  0  0  0  0  0  0  0
   -1.0004   -2.7951   -1.2491 C   0  0  0  0  0  0  0  0  0  0  0  0
   -1.7062   -3.9782   -1.5104 C   0  0  0  0  0  0  0  0  0  0  0  0
   -0.9094   -4.9547   -1.9716 N   0  0  0  0  0  0  0  0  0  0  0  0
    0.3200   -4.3828   -2.0046 N   0  0  0  0  0  0  0  0  0  0  0  0
    1.4405   -5.1659   -2.4602 C   0  0  0  0  0  0  0  0  0  0  0  0
    0.2995   -3.0907   -1.5770 C   0  0  0  0  0  0  0  0  0  0  0  0
    2.2794   -2.4070   -1.6988 H   0  0  0  0  0  0  0  0  0  0  0  0
    1.2284    1.7757   -1.1131 H   0  0  0  0  0  0  0  0  0  0  0  0
    1.3887    1.2175    0.5627 H   0  0  0  0  0  0  0  0  0  0  0  0
    3.6685    1.9996   -1.3280 H   0  0  0  0  0  0  0  0  0  0  0  0
    3.0303    3.0039   -0.0387 H   0  0  0  0  0  0  0  0  0  0  0  0
    5.1435    1.9462    0.6133 H   0  0  0  0  0  0  0  0  0  0  0  0
    4.5238    0.3470    0.2537 H   0  0  0  0  0  0  0  0  0  0  0  0
    4.5857    0.7234    2.6556 H   0  0  0  0  0  0  0  0  0  0  0  0
    2.9254    0.4862    2.1425 H   0  0  0  0  0  0  0  0  0  0  0  0
    4.2172    3.2175    2.6798 H   0  0  0  0  0  0  0  0  0  0  0  0
    2.5090    2.9412    2.2805 H   0  0  0  0  0  0  0  0  0  0  0  0
    3.1691    2.3349    3.8024 H   0  0  0  0  0  0  0  0  0  0  0  0
   -0.4233    0.2631   -0.3502 H   0  0  0  0  0  0  0  0  0  0  0  0
   -3.3286    0.7600   -1.9446 H   0  0  0  0  0  0  0  0  0  0  0  0
   -3.9773    2.9273   -2.5043 H   0  0  0  0  0  0  0  0  0  0  0  0
   -3.2890    4.1859   -1.4787 H   0  0  0  0  0  0  0  0  0  0  0  0
   -5.0063    3.7093   -1.3043 H   0  0  0  0  0  0  0  0  0  0  0  0
   -3.1641    1.8490    2.8876 H   0  0  0  0  0  0  0  0  0  0  0  0
   -3.0815   -1.6608    2.2289 H   0  0  0  0  0  0  0  0  0  0  0  0
   -1.4445   -0.9544    2.3472 H   0  0  0  0  0  0  0  0  0  0  0  0
   -2.7423   -0.4127    3.4256 H   0  0  0  0  0  0  0  0  0  0  0  0
   -2.7639   -4.1718   -1.3849 H   0  0  0  0  0  0  0  0  0  0  0  0
    1.2262   -5.5182   -3.4724 H   0  0  0  0  0  0  0  0  0  0  0  0
    1.5676   -6.0118   -1.7799 H   0  0  0  0  0  0  0  0  0  0  0  0
    2.3461   -4.5562   -2.4665 H   0  0  0  0  0  0  0  0  0  0  0  0
  1  2  1  0
  2  3  2  3
  3  4  1  0
  4  5  1  0
  5  6  1  0
  6  7  1  0
  7  8  1  0
  2  9  1  0
  9 10  1  0
 10 11  2  3
 11 12  1  0
 12 13  2  0
 13 14  1  0
 14 15  1  0
 14 16  2  0
 16 17  1  0
 16 18  1  0
 18 19  2  0
 19 20  1  0
 10 21  1  0
 21 22  1  0
 22 23  2  0
 23 24  1  0
 24 25  1  0
 24 26  1  0
 26  1  1  0
 19 12  1  0
 26 21  2  0
  1 27  1  0
  4 28  1  0
  4 29  1  0
  5 30  1  0
  5 31  1  0
  6 32  1  0
  6 33  1  0
  7 34  1  0
  7 35  1  0
  8 36  1  0
  8 37  1  0
  8 38  1  0
  9 39  1  0
 13 40  1  0
 15 41  1  0
 15 42  1  0
 15 43  1  0
 18 44  1  0
 20 45  1  0
 20 46  1  0
 20 47  1  0
 22 48  1  0
 25 49  1  0
 25 50  1  0
 25 51  1  0
M  END
>  <ScrubInfo>  (9) 
{"isomerGroup": 0, "isomerId": 8, "confId": 0, "nr_conformers:": 1, "nr_isomers:": 9}

$$$$
