REMARK SMILES Cc1ccc(Nc2nc(NCC(C)C)nc(N)c2[N+](=O)[O-])cc1
REMARK SMILES IDX 7 1 8 2 9 3 15 4 16 5 18 6 6 7 5 9 2 10 3 11 23 12 4 13
REMARK SMILES IDX 22 14 1 15 19 16 20 17 21 18 10 19 11 21 12 22 13 23 14 24
REMARK SMILES IDX 17 25
REMARK H PARENT 6 8 10 20 17 26 17 27
ROOT
ATOM      1  C   UNL     1       1.133  -1.620  -0.740  1.00  0.00     0.217 A 
ATOM      2  N   UNL     1      -0.067  -1.096  -0.424  1.00  0.00    -0.188 NA
ATOM      3  C   UNL     1      -1.130  -1.905  -0.351  1.00  0.00     0.227 A 
ATOM      4  N   UNL     1      -1.071  -3.225  -0.544  1.00  0.00    -0.189 NA
ATOM      5  C   UNL     1       0.116  -3.774  -0.837  1.00  0.00     0.210 A 
ATOM      6  C   UNL     1       1.245  -2.984  -0.961  1.00  0.00     0.353 A 
ENDROOT
BRANCH   1   7
ATOM      7  N   UNL     1       2.270  -0.775  -0.789  1.00  0.00    -0.334 N 
ATOM      8  H   UNL     1       2.840  -0.983  -1.610  1.00  0.00     0.168 HD
BRANCH   7   9
ATOM      9  C   UNL     1       2.414   0.572  -0.389  1.00  0.00     0.040 A 
ATOM     10  C   UNL     1       2.880   3.241   0.445  1.00  0.00    -0.051 A 
ATOM     11  C   UNL     1       3.684   2.653  -0.534  1.00  0.00     0.005 A 
ATOM     12  C   UNL     1       1.845   2.489   1.005  1.00  0.00     0.005 A 
ATOM     13  C   UNL     1       3.462   1.330  -0.932  1.00  0.00     0.026 A 
ATOM     14  C   UNL     1       1.628   1.165   0.603  1.00  0.00     0.026 A 
ATOM     15  C   UNL     1       3.091   4.669   0.850  1.00  0.00     0.044 C 
ENDBRANCH   7   9
ENDBRANCH   1   7
BRANCH   6  16
ATOM     16  N   UNL     1       2.512  -3.566  -1.303  1.00  0.00     0.070 N 
ATOM     17  O   UNL     1       3.198  -2.979  -2.155  1.00  0.00    -0.258 OA
ATOM     18  O   UNL     1       2.829  -4.627  -0.746  1.00  0.00    -0.258 OA
ENDBRANCH   6  16
BRANCH   3  19
ATOM     19  N   UNL     1      -2.387  -1.396  -0.067  1.00  0.00    -0.354 N 
ATOM     20  H   UNL     1      -2.953  -2.185   0.229  1.00  0.00     0.163 HD
BRANCH  19  21
ATOM     21  C   UNL     1      -2.403  -0.238   0.810  1.00  0.00     0.119 C 
BRANCH  21  22
ATOM     22  C   UNL     1      -3.853   0.181   1.107  1.00  0.00     0.002 C 
ATOM     23  C   UNL     1      -4.562   0.693  -0.149  1.00  0.00     0.009 C 
ATOM     24  C   UNL     1      -3.876   1.259   2.192  1.00  0.00     0.009 C 
ENDBRANCH  21  22
ENDBRANCH  19  21
ENDBRANCH   3  19
BRANCH   5  25
ATOM     25  N   UNL     1       0.085  -5.156  -1.074  1.00  0.00    -0.378 N 
ATOM     26  H   UNL     1       0.821  -5.631  -0.548  1.00  0.00     0.158 HD
ATOM     27  H   UNL     1       0.229  -5.368  -2.058  1.00  0.00     0.158 HD
ENDBRANCH   5  25
TORSDOF 7
