_i0
     RDKit          3D

 43 44  0  0  0  0  0  0  0  0999 V2000
    3.0910    4.6693    0.8500 C   0  0  0  0  0  0  0  0  0  0  0  0
    2.8799    3.2413    0.4448 C   0  0  0  0  0  0  0  0  0  0  0  0
    3.6840    2.6531   -0.5340 C   0  0  0  0  0  0  0  0  0  0  0  0
    3.4620    1.3301   -0.9319 C   0  0  0  0  0  0  0  0  0  0  0  0
    2.4138    0.5715   -0.3886 C   0  0  0  0  0  0  0  0  0  0  0  0
    2.2703   -0.7750   -0.7889 N   0  0  0  0  0  0  0  0  0  0  0  0
    1.1328   -1.6199   -0.7399 C   0  0  0  0  0  0  0  0  0  0  0  0
   -0.0668   -1.0963   -0.4239 N   0  0  0  0  0  0  0  0  0  0  0  0
   -1.1300   -1.9050   -0.3511 C   0  0  0  0  0  0  0  0  0  0  0  0
   -2.3867   -1.3962   -0.0666 N   0  0  0  0  0  0  0  0  0  0  0  0
   -2.4027   -0.2377    0.8097 C   0  0  0  0  0  0  0  0  0  0  0  0
   -3.8534    0.1811    1.1074 C   0  0  0  0  0  0  0  0  0  0  0  0
   -4.5622    0.6929   -0.1492 C   0  0  0  0  0  0  0  0  0  0  0  0
   -3.8758    1.2593    2.1923 C   0  0  0  0  0  0  0  0  0  0  0  0
   -1.0709   -3.2252   -0.5442 N   0  0  0  0  0  0  0  0  0  0  0  0
    0.1163   -3.7744   -0.8373 C   0  0  0  0  0  0  0  0  0  0  0  0
    0.0847   -5.1558   -1.0740 N   0  0  0  0  0  0  0  0  0  0  0  0
    1.2450   -2.9840   -0.9608 C   0  0  0  0  0  0  0  0  0  0  0  0
    2.5121   -3.5656   -1.3027 N   0  0  0  0  0  4  0  0  0  0  0  0
    3.1980   -2.9792   -2.1546 O   0  0  0  0  0  0  0  0  0  0  0  0
    2.8295   -4.6272   -0.7462 O   0  0  0  0  0  1  0  0  0  0  0  0
    1.6277    1.1654    0.6033 C   0  0  0  0  0  0  0  0  0  0  0  0
    1.8447    2.4889    1.0051 C   0  0  0  0  0  0  0  0  0  0  0  0
    2.4959    5.3308    0.2130 H   0  0  0  0  0  0  0  0  0  0  0  0
    4.1463    4.9485    0.7625 H   0  0  0  0  0  0  0  0  0  0  0  0
    2.7995    4.8264    1.8939 H   0  0  0  0  0  0  0  0  0  0  0  0
    4.4937    3.2166   -0.9920 H   0  0  0  0  0  0  0  0  0  0  0  0
    4.1202    0.9004   -1.6833 H   0  0  0  0  0  0  0  0  0  0  0  0
    2.8400   -0.9831   -1.6104 H   0  0  0  0  0  0  0  0  0  0  0  0
   -2.9527   -2.1851    0.2294 H   0  0  0  0  0  0  0  0  0  0  0  0
   -1.8973   -0.4833    1.7529 H   0  0  0  0  0  0  0  0  0  0  0  0
   -1.8694    0.6049    0.3510 H   0  0  0  0  0  0  0  0  0  0  0  0
   -4.4085   -0.6889    1.4817 H   0  0  0  0  0  0  0  0  0  0  0  0
   -4.0408    1.5568   -0.5753 H   0  0  0  0  0  0  0  0  0  0  0  0
   -5.5882    0.9986    0.0825 H   0  0  0  0  0  0  0  0  0  0  0  0
   -4.6164   -0.0839   -0.9186 H   0  0  0  0  0  0  0  0  0  0  0  0
   -3.4107    0.8935    3.1139 H   0  0  0  0  0  0  0  0  0  0  0  0
   -4.9043    1.5500    2.4311 H   0  0  0  0  0  0  0  0  0  0  0  0
   -3.3351    2.1567    1.8726 H   0  0  0  0  0  0  0  0  0  0  0  0
    0.8212   -5.6307   -0.5483 H   0  0  0  0  0  0  0  0  0  0  0  0
    0.2292   -5.3683   -2.0576 H   0  0  0  0  0  0  0  0  0  0  0  0
    0.8337    0.6071    1.0893 H   0  0  0  0  0  0  0  0  0  0  0  0
    1.2003    2.9215    1.7669 H   0  0  0  0  0  0  0  0  0  0  0  0
  1  2  1  0
  2  3  2  0
  3  4  1  0
  4  5  2  0
  5  6  1  0
  6  7  1  0
  7  8  2  0
  8  9  1  0
  9 10  1  0
 10 11  1  0
 11 12  1  0
 12 13  1  0
 12 14  1  0
  9 15  2  0
 15 16  1  0
 16 17  1  0
 16 18  2  0
 18 19  1  0
 19 20  2  0
 19 21  1  0
  5 22  1  0
 22 23  2  0
 23  2  1  0
 18  7  1  0
  1 24  1  0
  1 25  1  0
  1 26  1  0
  3 27  1  0
  4 28  1  0
  6 29  1  0
 10 30  1  0
 11 31  1  0
 11 32  1  0
 12 33  1  0
 13 34  1  0
 13 35  1  0
 13 36  1  0
 14 37  1  0
 14 38  1  0
 14 39  1  0
 17 40  1  0
 17 41  1  0
 22 42  1  0
 23 43  1  0
M  CHG  2  19   1  21  -1
M  END
>  <ScrubInfo>  (1) 
{"isomerGroup": 0, "isomerId": 0, "confId": 0, "nr_conformers:": 1, "nr_isomers:": 9}

$$$$
_i1
     RDKit          3D

 43 44  0  0  0  0  0  0  0  0999 V2000
   -0.0077   -1.1076    0.5019 N   0  0  0  0  0  0  0  0  0  0  0  0
   -1.2846   -1.5219    0.2989 C   0  0  0  0  0  0  0  0  0  0  0  0
   -2.0137   -0.8494   -0.6357 N   0  0  0  0  0  0  0  0  0  0  0  0
   -2.0218    0.6027   -0.7570 C   0  0  0  0  0  0  0  0  0  0  0  0
   -2.9534    1.0531   -1.8955 C   0  0  0  0  0  0  0  0  0  0  0  0
   -4.4300    0.8715   -1.5333 C   0  0  0  0  0  0  0  0  0  0  0  0
   -2.6875    2.5212   -2.2373 C   0  0  0  0  0  0  0  0  0  0  0  0
   -1.8239   -2.5188    0.9438 N   0  0  0  0  0  0  0  0  0  0  0  0
   -1.0491   -3.2000    1.8816 C   0  0  0  0  0  0  0  0  0  0  0  0
   -1.7037   -4.2479    2.5173 N   0  0  0  0  0  0  0  0  0  0  0  0
    0.2376   -2.8472    2.1326 C   0  0  0  0  0  0  0  0  0  0  0  0
    1.0029   -3.5844    3.0873 N   0  0  0  0  0  4  0  0  0  0  0  0
    0.5739   -3.6170    4.2532 O   0  0  0  0  0  0  0  0  0  0  0  0
    2.0183   -4.1685    2.6853 O   0  0  0  0  0  1  0  0  0  0  0  0
    0.8409   -1.6991    1.4115 C   0  0  0  0  0  0  0  0  0  0  0  0
    2.0606   -1.3150    1.6657 N   0  0  0  0  0  0  0  0  0  0  0  0
    2.5936   -0.2226    0.9707 C   0  0  0  0  0  0  0  0  0  0  0  0
    2.4282    1.0748    1.4586 C   0  0  0  0  0  0  0  0  0  0  0  0
    2.9390    2.1664    0.7520 C   0  0  0  0  0  0  0  0  0  0  0  0
    3.6419    1.9695   -0.4426 C   0  0  0  0  0  0  0  0  0  0  0  0
    4.1712    3.1415   -1.2155 C   0  0  0  0  0  0  0  0  0  0  0  0
    3.8111    0.6666   -0.9265 C   0  0  0  0  0  0  0  0  0  0  0  0
    3.2991   -0.4221   -0.2168 C   0  0  0  0  0  0  0  0  0  0  0  0
    0.3792   -0.4192   -0.1237 H   0  0  0  0  0  0  0  0  0  0  0  0
   -2.9489   -1.2502   -0.6670 H   0  0  0  0  0  0  0  0  0  0  0  0
   -1.0057    0.9522   -0.9717 H   0  0  0  0  0  0  0  0  0  0  0  0
   -2.3323    1.0526    0.1936 H   0  0  0  0  0  0  0  0  0  0  0  0
   -2.7436    0.4536   -2.7908 H   0  0  0  0  0  0  0  0  0  0  0  0
   -4.6760   -0.1811   -1.3649 H   0  0  0  0  0  0  0  0  0  0  0  0
   -4.6877    1.4295   -0.6267 H   0  0  0  0  0  0  0  0  0  0  0  0
   -5.0737    1.2305   -2.3437 H   0  0  0  0  0  0  0  0  0  0  0  0
   -2.8774    3.1705   -1.3757 H   0  0  0  0  0  0  0  0  0  0  0  0
   -1.6478    2.6664   -2.5491 H   0  0  0  0  0  0  0  0  0  0  0  0
   -3.3300    2.8523   -3.0601 H   0  0  0  0  0  0  0  0  0  0  0  0
   -1.4273   -4.3690    3.4930 H   0  0  0  0  0  0  0  0  0  0  0  0
   -2.7088   -4.1211    2.4184 H   0  0  0  0  0  0  0  0  0  0  0  0
    1.9029    1.2351    2.3963 H   0  0  0  0  0  0  0  0  0  0  0  0
    2.7969    3.1695    1.1481 H   0  0  0  0  0  0  0  0  0  0  0  0
    4.4376    3.9644   -0.5439 H   0  0  0  0  0  0  0  0  0  0  0  0
    5.0760    2.8683   -1.7687 H   0  0  0  0  0  0  0  0  0  0  0  0
    3.4155    3.4935   -1.9244 H   0  0  0  0  0  0  0  0  0  0  0  0
    4.3543    0.4886   -1.8521 H   0  0  0  0  0  0  0  0  0  0  0  0
    3.4538   -1.4322   -0.5880 H   0  0  0  0  0  0  0  0  0  0  0  0
  1  2  1  0
  2  3  1  0
  3  4  1  0
  4  5  1  0
  5  6  1  0
  5  7  1  0
  2  8  2  0
  8  9  1  0
  9 10  1  0
  9 11  2  0
 11 12  1  0
 12 13  2  0
 12 14  1  0
 11 15  1  0
 15 16  2  3
 16 17  1  0
 17 18  2  0
 18 19  1  0
 19 20  2  0
 20 21  1  0
 20 22  1  0
 22 23  2  0
 15  1  1  0
 23 17  1  0
  1 24  1  0
  3 25  1  0
  4 26  1  0
  4 27  1  0
  5 28  1  0
  6 29  1  0
  6 30  1  0
  6 31  1  0
  7 32  1  0
  7 33  1  0
  7 34  1  0
 10 35  1  0
 10 36  1  0
 18 37  1  0
 19 38  1  0
 21 39  1  0
 21 40  1  0
 21 41  1  0
 22 42  1  0
 23 43  1  0
M  CHG  2  12   1  14  -1
M  END
>  <ScrubInfo>  (2) 
{"isomerGroup": 0, "isomerId": 1, "confId": 0, "nr_conformers:": 1, "nr_isomers:": 9}

$$$$
_i2
     RDKit          3D

 43 44  0  0  0  0  0  0  0  0999 V2000
   -0.0334   -0.2300   -0.0177 N   0  0  0  0  0  0  0  0  0  0  0  0
    0.7534   -1.3622   -0.1132 C   0  0  0  0  0  0  0  0  0  0  0  0
    1.9882   -1.3999    0.5243 N   0  0  0  0  0  0  0  0  0  0  0  0
    2.9235   -0.3645    0.7208 C   0  0  0  0  0  0  0  0  0  0  0  0
    2.8746    0.8658    0.0568 C   0  0  0  0  0  0  0  0  0  0  0  0
    3.8054    1.8737    0.3352 C   0  0  0  0  0  0  0  0  0  0  0  0
    4.7962    1.6801    1.3014 C   0  0  0  0  0  0  0  0  0  0  0  0
    5.8124    2.7481    1.5762 C   0  0  0  0  0  0  0  0  0  0  0  0
    4.8574    0.4529    1.9655 C   0  0  0  0  0  0  0  0  0  0  0  0
    3.9260   -0.5515    1.6831 C   0  0  0  0  0  0  0  0  0  0  0  0
    0.2049   -2.3895   -0.8063 C   0  0  0  0  0  0  0  0  0  0  0  0
    0.9266   -3.6226   -1.0032 N   0  0  0  0  0  4  0  0  0  0  0  0
    1.7477   -3.9719   -0.1400 O   0  0  0  0  0  0  0  0  0  0  0  0
    0.6898   -4.2632   -2.0387 O   0  0  0  0  0  1  0  0  0  0  0  0
   -1.1539   -2.2008   -1.4180 C   0  0  0  0  0  0  0  0  0  0  0  0
   -1.8012   -3.1695   -2.1503 N   0  0  0  0  0  0  0  0  0  0  0  0
   -1.8352   -1.0892   -1.2912 N   0  0  0  0  0  0  0  0  0  0  0  0
   -1.2803   -0.0837   -0.5431 C   0  0  0  0  0  0  0  0  0  0  0  0
   -1.9256    1.0067   -0.3100 N   0  0  0  0  0  0  0  0  0  0  0  0
   -3.2678    1.1936   -0.8606 C   0  0  0  0  0  0  0  0  0  0  0  0
   -4.2923    1.2532    0.2835 C   0  0  0  0  0  0  0  0  0  0  0  0
   -5.6468    1.7253   -0.2476 C   0  0  0  0  0  0  0  0  0  0  0  0
   -4.4484   -0.1037    0.9734 C   0  0  0  0  0  0  0  0  0  0  0  0
    0.2751    0.4932    0.6183 H   0  0  0  0  0  0  0  0  0  0  0  0
    2.4070   -2.3315    0.6095 H   0  0  0  0  0  0  0  0  0  0  0  0
    2.1375    1.0568   -0.7181 H   0  0  0  0  0  0  0  0  0  0  0  0
    3.7498    2.8117   -0.2133 H   0  0  0  0  0  0  0  0  0  0  0  0
    6.6730    2.6257    0.9115 H   0  0  0  0  0  0  0  0  0  0  0  0
    6.1574    2.7012    2.6145 H   0  0  0  0  0  0  0  0  0  0  0  0
    5.3840    3.7439    1.4214 H   0  0  0  0  0  0  0  0  0  0  0  0
    5.6260    0.2695    2.7130 H   0  0  0  0  0  0  0  0  0  0  0  0
    3.9869   -1.4878    2.2336 H   0  0  0  0  0  0  0  0  0  0  0  0
   -1.2178   -3.8442   -2.6458 H   0  0  0  0  0  0  0  0  0  0  0  0
   -2.5677   -2.8047   -2.7079 H   0  0  0  0  0  0  0  0  0  0  0  0
   -3.5651    0.4431   -1.6017 H   0  0  0  0  0  0  0  0  0  0  0  0
   -3.2658    2.1522   -1.3938 H   0  0  0  0  0  0  0  0  0  0  0  0
   -3.9490    1.9785    1.0324 H   0  0  0  0  0  0  0  0  0  0  0  0
   -6.0419    1.0343   -1.0000 H   0  0  0  0  0  0  0  0  0  0  0  0
   -5.5607    2.7153   -0.7079 H   0  0  0  0  0  0  0  0  0  0  0  0
   -6.3790    1.7981    0.5636 H   0  0  0  0  0  0  0  0  0  0  0  0
   -3.5093   -0.4244    1.4351 H   0  0  0  0  0  0  0  0  0  0  0  0
   -4.7597   -0.8771    0.2630 H   0  0  0  0  0  0  0  0  0  0  0  0
   -5.2019   -0.0508    1.7665 H   0  0  0  0  0  0  0  0  0  0  0  0
  1  2  1  0
  2  3  1  0
  3  4  1  0
  4  5  2  0
  5  6  1  0
  6  7  2  0
  7  8  1  0
  7  9  1  0
  9 10  2  0
  2 11  2  0
 11 12  1  0
 12 13  2  0
 12 14  1  0
 11 15  1  0
 15 16  1  0
 15 17  2  0
 17 18  1  0
 18 19  2  3
 19 20  1  0
 20 21  1  0
 21 22  1  0
 21 23  1  0
 18  1  1  0
 10  4  1  0
  1 24  1  0
  3 25  1  0
  5 26  1  0
  6 27  1  0
  8 28  1  0
  8 29  1  0
  8 30  1  0
  9 31  1  0
 10 32  1  0
 16 33  1  0
 16 34  1  0
 20 35  1  0
 20 36  1  0
 21 37  1  0
 22 38  1  0
 22 39  1  0
 22 40  1  0
 23 41  1  0
 23 42  1  0
 23 43  1  0
M  CHG  2  12   1  14  -1
M  END
>  <ScrubInfo>  (3) 
{"isomerGroup": 0, "isomerId": 2, "confId": 0, "nr_conformers:": 1, "nr_isomers:": 9}

$$$$
_i3
     RDKit          3D

 43 44  0  0  0  0  0  0  0  0999 V2000
   -1.3213    1.0134    2.0425 N   0  0  0  0  0  0  0  0  0  0  0  0
   -0.7746    2.2742    2.0536 C   0  0  0  0  0  0  0  0  0  0  0  0
   -1.3937    3.2046    2.8725 N   0  0  0  0  0  0  0  0  0  0  0  0
    0.3172    2.4698    1.2758 C   0  0  0  0  0  0  0  0  0  0  0  0
    0.9431    3.7719    1.2013 N   0  0  0  0  0  4  0  0  0  0  0  0
    2.1295    3.8161    0.8413 O   0  0  0  0  0  0  0  0  0  0  0  0
    0.2664    4.7756    1.4769 O   0  0  0  0  0  1  0  0  0  0  0  0
    0.8474    1.3132    0.4505 C   0  0  0  0  0  0  0  0  0  0  0  0
    1.9603    1.4924   -0.3680 N   0  0  0  0  0  0  0  0  0  0  0  0
    2.6010    0.6151   -1.2667 C   0  0  0  0  0  0  0  0  0  0  0  0
    3.8105    1.0361   -1.8486 C   0  0  0  0  0  0  0  0  0  0  0  0
    4.5089    0.2312   -2.7560 C   0  0  0  0  0  0  0  0  0  0  0  0
    4.0185   -1.0278   -3.1034 C   0  0  0  0  0  0  0  0  0  0  0  0
    4.7419   -1.8842   -4.0983 C   0  0  0  0  0  0  0  0  0  0  0  0
    2.8084   -1.4499   -2.5491 C   0  0  0  0  0  0  0  0  0  0  0  0
    2.1133   -0.6390   -1.6413 C   0  0  0  0  0  0  0  0  0  0  0  0
    0.2557    0.1458    0.5121 N   0  0  0  0  0  0  0  0  0  0  0  0
   -0.8254   -0.0406    1.3291 C   0  0  0  0  0  0  0  0  0  0  0  0
   -1.2632   -1.2456    1.3215 N   0  0  0  0  0  0  0  0  0  0  0  0
   -2.4019   -1.6444    2.1392 C   0  0  0  0  0  0  0  0  0  0  0  0
   -3.7259   -1.3490    1.4180 C   0  0  0  0  0  0  0  0  0  0  0  0
   -4.9049   -1.6313    2.3500 C   0  0  0  0  0  0  0  0  0  0  0  0
   -3.8637   -2.1735    0.1361 C   0  0  0  0  0  0  0  0  0  0  0  0
   -2.0455    0.8392    2.7198 H   0  0  0  0  0  0  0  0  0  0  0  0
   -2.4082    3.1298    2.8576 H   0  0  0  0  0  0  0  0  0  0  0  0
   -1.1111    4.1717    2.6692 H   0  0  0  0  0  0  0  0  0  0  0  0
    2.4765    2.3636   -0.2422 H   0  0  0  0  0  0  0  0  0  0  0  0
    4.2308    2.0081   -1.5996 H   0  0  0  0  0  0  0  0  0  0  0  0
    5.4386    0.5972   -3.1854 H   0  0  0  0  0  0  0  0  0  0  0  0
    4.3899   -1.6615   -5.1102 H   0  0  0  0  0  0  0  0  0  0  0  0
    4.5770   -2.9470   -3.8918 H   0  0  0  0  0  0  0  0  0  0  0  0
    5.8219   -1.7088   -4.0527 H   0  0  0  0  0  0  0  0  0  0  0  0
    2.3882   -2.4178   -2.8145 H   0  0  0  0  0  0  0  0  0  0  0  0
    1.1774   -1.0246   -1.2484 H   0  0  0  0  0  0  0  0  0  0  0  0
   -2.3740   -1.1681    3.1264 H   0  0  0  0  0  0  0  0  0  0  0  0
   -2.3181   -2.7207    2.3341 H   0  0  0  0  0  0  0  0  0  0  0  0
   -3.7608   -0.2878    1.1420 H   0  0  0  0  0  0  0  0  0  0  0  0
   -4.9269   -2.6825    2.6570 H   0  0  0  0  0  0  0  0  0  0  0  0
   -4.8422   -1.0150    3.2532 H   0  0  0  0  0  0  0  0  0  0  0  0
   -5.8551   -1.4024    1.8560 H   0  0  0  0  0  0  0  0  0  0  0  0
   -3.0640   -1.9387   -0.5737 H   0  0  0  0  0  0  0  0  0  0  0  0
   -4.8170   -1.9616   -0.3600 H   0  0  0  0  0  0  0  0  0  0  0  0
   -3.8252   -3.2474    0.3482 H   0  0  0  0  0  0  0  0  0  0  0  0
  1  2  1  0
  2  3  1  0
  2  4  2  0
  4  5  1  0
  5  6  2  0
  5  7  1  0
  4  8  1  0
  8  9  1  0
  9 10  1  0
 10 11  2  0
 11 12  1  0
 12 13  2  0
 13 14  1  0
 13 15  1  0
 15 16  2  0
  8 17  2  0
 17 18  1  0
 18 19  2  3
 19 20  1  0
 20 21  1  0
 21 22  1  0
 21 23  1  0
 18  1  1  0
 16 10  1  0
  1 24  1  0
  3 25  1  0
  3 26  1  0
  9 27  1  0
 11 28  1  0
 12 29  1  0
 14 30  1  0
 14 31  1  0
 14 32  1  0
 15 33  1  0
 16 34  1  0
 20 35  1  0
 20 36  1  0
 21 37  1  0
 22 38  1  0
 22 39  1  0
 22 40  1  0
 23 41  1  0
 23 42  1  0
 23 43  1  0
M  CHG  2   5   1   7  -1
M  END
>  <ScrubInfo>  (4) 
{"isomerGroup": 0, "isomerId": 3, "confId": 0, "nr_conformers:": 1, "nr_isomers:": 9}

$$$$
_i4
     RDKit          3D

 43 44  0  0  0  0  0  0  0  0999 V2000
   -1.6028    0.8942   -1.5039 N   0  0  0  0  0  0  0  0  0  0  0  0
   -1.6139    0.1157   -0.3889 C   0  0  0  0  0  0  0  0  0  0  0  0
   -2.7507    0.1503    0.3628 N   0  0  0  0  0  0  0  0  0  0  0  0
   -4.0684   -0.1045   -0.2120 C   0  0  0  0  0  0  0  0  0  0  0  0
   -5.1964    0.1531    0.8016 C   0  0  0  0  0  0  0  0  0  0  0  0
   -5.2107    1.6038    1.2859 C   0  0  0  0  0  0  0  0  0  0  0  0
   -5.1501   -0.8111    1.9879 C   0  0  0  0  0  0  0  0  0  0  0  0
   -0.6045   -0.6158   -0.0105 N   0  0  0  0  0  0  0  0  0  0  0  0
    0.5534   -0.6147   -0.8013 C   0  0  0  0  0  0  0  0  0  0  0  0
    1.5689   -1.4673   -0.3584 N   0  0  0  0  0  0  0  0  0  0  0  0
    2.8392   -1.0151    0.0906 C   0  0  0  0  0  0  0  0  0  0  0  0
    3.0615    0.2716    0.5933 C   0  0  0  0  0  0  0  0  0  0  0  0
    4.3186    0.6364    1.0864 C   0  0  0  0  0  0  0  0  0  0  0  0
    5.3672   -0.2887    1.1171 C   0  0  0  0  0  0  0  0  0  0  0  0
    6.7255    0.1164    1.6064 C   0  0  0  0  0  0  0  0  0  0  0  0
    5.1438   -1.5802    0.6307 C   0  0  0  0  0  0  0  0  0  0  0  0
    3.8872   -1.9421    0.1380 C   0  0  0  0  0  0  0  0  0  0  0  0
    0.6355    0.1352   -1.9298 C   0  0  0  0  0  0  0  0  0  0  0  0
    1.7824    0.0601   -2.7733 N   0  0  0  0  0  4  0  0  0  0  0  0
    1.8721   -0.9235   -3.5244 O   0  0  0  0  0  0  0  0  0  0  0  0
    2.5962    0.9934   -2.7079 O   0  0  0  0  0  1  0  0  0  0  0  0
   -0.5141    0.9770   -2.3291 C   0  0  0  0  0  0  0  0  0  0  0  0
   -0.5078    1.7410   -3.3747 N   0  0  0  0  0  0  0  0  0  0  0  0
   -2.3557    1.5525   -1.6165 H   0  0  0  0  0  0  0  0  0  0  0  0
   -2.5995   -0.4324    1.1855 H   0  0  0  0  0  0  0  0  0  0  0  0
   -4.1136   -1.1430   -0.5613 H   0  0  0  0  0  0  0  0  0  0  0  0
   -4.2320    0.5370   -1.0855 H   0  0  0  0  0  0  0  0  0  0  0  0
   -6.1435   -0.0268    0.2758 H   0  0  0  0  0  0  0  0  0  0  0  0
   -4.3154    1.8458    1.8682 H   0  0  0  0  0  0  0  0  0  0  0  0
   -5.2638    2.2958    0.4389 H   0  0  0  0  0  0  0  0  0  0  0  0
   -6.0826    1.7885    1.9226 H   0  0  0  0  0  0  0  0  0  0  0  0
   -5.1245   -1.8505    1.6445 H   0  0  0  0  0  0  0  0  0  0  0  0
   -6.0401   -0.6893    2.6149 H   0  0  0  0  0  0  0  0  0  0  0  0
   -4.2745   -0.6381    2.6217 H   0  0  0  0  0  0  0  0  0  0  0  0
    1.1688   -2.0168    0.4052 H   0  0  0  0  0  0  0  0  0  0  0  0
    2.2665    1.0113    0.6107 H   0  0  0  0  0  0  0  0  0  0  0  0
    4.4713    1.6510    1.4475 H   0  0  0  0  0  0  0  0  0  0  0  0
    7.3196    0.5117    0.7767 H   0  0  0  0  0  0  0  0  0  0  0  0
    7.2534   -0.7369    2.0450 H   0  0  0  0  0  0  0  0  0  0  0  0
    6.6478    0.8840    2.3837 H   0  0  0  0  0  0  0  0  0  0  0  0
    5.9464   -2.3139    0.6272 H   0  0  0  0  0  0  0  0  0  0  0  0
    3.7339   -2.9519   -0.2354 H   0  0  0  0  0  0  0  0  0  0  0  0
   -1.3949    2.2367   -3.4820 H   0  0  0  0  0  0  0  0  0  0  0  0
  1  2  1  0
  2  3  1  0
  3  4  1  0
  4  5  1  0
  5  6  1  0
  5  7  1  0
  2  8  2  0
  8  9  1  0
  9 10  1  0
 10 11  1  0
 11 12  2  0
 12 13  1  0
 13 14  2  0
 14 15  1  0
 14 16  1  0
 16 17  2  0
  9 18  2  0
 18 19  1  0
 19 20  2  0
 19 21  1  0
 18 22  1  0
 22 23  2  3
 22  1  1  0
 17 11  1  0
  1 24  1  0
  3 25  1  0
  4 26  1  0
  4 27  1  0
  5 28  1  0
  6 29  1  0
  6 30  1  0
  6 31  1  0
  7 32  1  0
  7 33  1  0
  7 34  1  0
 10 35  1  0
 12 36  1  0
 13 37  1  0
 15 38  1  0
 15 39  1  0
 15 40  1  0
 16 41  1  0
 17 42  1  0
 23 43  1  0
M  CHG  2  19   1  21  -1
M  END
>  <ScrubInfo>  (5) 
{"isomerGroup": 0, "isomerId": 4, "confId": 0, "nr_conformers:": 1, "nr_isomers:": 9}

$$$$
_i5
     RDKit          3D

 43 44  0  0  0  0  0  0  0  0999 V2000
   -0.3640   -0.2993   -1.2050 N   0  0  0  0  0  0  0  0  0  0  0  0
   -1.1568    0.5783   -1.8712 C   0  0  0  0  0  0  0  0  0  0  0  0
   -1.8999    1.4322   -1.1156 N   0  0  0  0  0  0  0  0  0  0  0  0
   -2.6045    1.0441    0.0978 C   0  0  0  0  0  0  0  0  0  0  0  0
   -3.3548    2.2469    0.6934 C   0  0  0  0  0  0  0  0  0  0  0  0
   -4.2577    1.7868    1.8392 C   0  0  0  0  0  0  0  0  0  0  0  0
   -2.3870    3.3227    1.1928 C   0  0  0  0  0  0  0  0  0  0  0  0
   -1.2142    0.6561   -3.1667 N   0  0  0  0  0  0  0  0  0  0  0  0
   -0.4595   -0.2377   -3.8922 C   0  0  0  0  0  0  0  0  0  0  0  0
   -0.7022   -0.2224   -5.1555 N   0  0  0  0  0  0  0  0  0  0  0  0
    0.4893   -1.1197   -3.1885 C   0  0  0  0  0  0  0  0  0  0  0  0
    1.3838   -1.9400   -3.9449 N   0  0  0  0  0  4  0  0  0  0  0  0
    1.4536   -3.1418   -3.6350 O   0  0  0  0  0  0  0  0  0  0  0  0
    2.0880   -1.3917   -4.8018 O   0  0  0  0  0  1  0  0  0  0  0  0
    0.5314   -1.1477   -1.8366 C   0  0  0  0  0  0  0  0  0  0  0  0
    1.3470   -1.9779   -1.0767 N   0  0  0  0  0  0  0  0  0  0  0  0
    2.0138   -1.6876    0.1302 C   0  0  0  0  0  0  0  0  0  0  0  0
    2.1931   -0.3901    0.6232 C   0  0  0  0  0  0  0  0  0  0  0  0
    2.8199   -0.1671    1.8544 C   0  0  0  0  0  0  0  0  0  0  0  0
    3.2830   -1.2402    2.6208 C   0  0  0  0  0  0  0  0  0  0  0  0
    3.9271   -1.0034    3.9543 C   0  0  0  0  0  0  0  0  0  0  0  0
    3.0888   -2.5399    2.1467 C   0  0  0  0  0  0  0  0  0  0  0  0
    2.4641   -2.7579    0.9146 C   0  0  0  0  0  0  0  0  0  0  0  0
   -0.3173   -0.2928   -0.1970 H   0  0  0  0  0  0  0  0  0  0  0  0
   -2.4730    2.0115   -1.7263 H   0  0  0  0  0  0  0  0  0  0  0  0
   -1.9050    0.6454    0.8412 H   0  0  0  0  0  0  0  0  0  0  0  0
   -3.3169    0.2480   -0.1494 H   0  0  0  0  0  0  0  0  0  0  0  0
   -3.9914    2.6937   -0.0812 H   0  0  0  0  0  0  0  0  0  0  0  0
   -3.6746    1.3331    2.6478 H   0  0  0  0  0  0  0  0  0  0  0  0
   -4.8170    2.6307    2.2568 H   0  0  0  0  0  0  0  0  0  0  0  0
   -4.9844    1.0465    1.4883 H   0  0  0  0  0  0  0  0  0  0  0  0
   -1.7152    2.9265    1.9619 H   0  0  0  0  0  0  0  0  0  0  0  0
   -1.7731    3.7142    0.3754 H   0  0  0  0  0  0  0  0  0  0  0  0
   -2.9356    4.1661    1.6257 H   0  0  0  0  0  0  0  0  0  0  0  0
   -1.4126    0.5099   -5.2821 H   0  0  0  0  0  0  0  0  0  0  0  0
    1.7680   -2.7629   -1.5820 H   0  0  0  0  0  0  0  0  0  0  0  0
    1.8853    0.4765    0.0439 H   0  0  0  0  0  0  0  0  0  0  0  0
    2.9529    0.8544    2.2045 H   0  0  0  0  0  0  0  0  0  0  0  0
    3.1660   -0.9912    4.7405 H   0  0  0  0  0  0  0  0  0  0  0  0
    4.6573   -1.7876    4.1803 H   0  0  0  0  0  0  0  0  0  0  0  0
    4.4630   -0.0484    3.9652 H   0  0  0  0  0  0  0  0  0  0  0  0
    3.4212   -3.3946    2.7318 H   0  0  0  0  0  0  0  0  0  0  0  0
    2.3200   -3.7818    0.5762 H   0  0  0  0  0  0  0  0  0  0  0  0
  1  2  1  0
  2  3  1  0
  3  4  1  0
  4  5  1  0
  5  6  1  0
  5  7  1  0
  2  8  2  0
  8  9  1  0
  9 10  2  3
  9 11  1  0
 11 12  1  0
 12 13  2  0
 12 14  1  0
 11 15  2  0
 15 16  1  0
 16 17  1  0
 17 18  2  0
 18 19  1  0
 19 20  2  0
 20 21  1  0
 20 22  1  0
 22 23  2  0
 15  1  1  0
 23 17  1  0
  1 24  1  0
  3 25  1  0
  4 26  1  0
  4 27  1  0
  5 28  1  0
  6 29  1  0
  6 30  1  0
  6 31  1  0
  7 32  1  0
  7 33  1  0
  7 34  1  0
 10 35  1  0
 16 36  1  0
 18 37  1  0
 19 38  1  0
 21 39  1  0
 21 40  1  0
 21 41  1  0
 22 42  1  0
 23 43  1  0
M  CHG  2  12   1  14  -1
M  END
>  <ScrubInfo>  (6) 
{"isomerGroup": 0, "isomerId": 5, "confId": 0, "nr_conformers:": 1, "nr_isomers:": 9}

$$$$
_i6
     RDKit          3D

 43 44  0  0  0  0  0  0  0  0999 V2000
   -1.7477   -1.6502   -1.2219 N   0  0  0  0  0  0  0  0  0  0  0  0
   -1.1093   -0.7946   -0.3755 C   0  0  0  0  0  0  0  0  0  0  0  0
   -1.8962    0.1240    0.2506 N   0  0  0  0  0  0  0  0  0  0  0  0
   -2.8586    0.9484   -0.4700 C   0  0  0  0  0  0  0  0  0  0  0  0
   -3.7017    1.8139    0.4820 C   0  0  0  0  0  0  0  0  0  0  0  0
   -2.8631    2.8541    1.2263 C   0  0  0  0  0  0  0  0  0  0  0  0
   -4.5070    0.9649    1.4668 C   0  0  0  0  0  0  0  0  0  0  0  0
    0.1612   -0.8242   -0.1248 N   0  0  0  0  0  0  0  0  0  0  0  0
    0.9390   -1.7653   -0.7824 C   0  0  0  0  0  0  0  0  0  0  0  0
    2.2352   -1.6799   -0.7701 N   0  0  0  0  0  0  0  0  0  0  0  0
    2.8475   -0.6378   -0.0600 C   0  0  0  0  0  0  0  0  0  0  0  0
    3.1740    0.5584   -0.7020 C   0  0  0  0  0  0  0  0  0  0  0  0
    3.8142    1.5867   -0.0045 C   0  0  0  0  0  0  0  0  0  0  0  0
    4.1384    1.4294    1.3483 C   0  0  0  0  0  0  0  0  0  0  0  0
    4.8586    2.5164    2.0890 C   0  0  0  0  0  0  0  0  0  0  0  0
    3.8393    0.2175    1.9821 C   0  0  0  0  0  0  0  0  0  0  0  0
    3.1994   -0.8078    1.2804 C   0  0  0  0  0  0  0  0  0  0  0  0
    0.2244   -2.8375   -1.5120 C   0  0  0  0  0  0  0  0  0  0  0  0
    0.9640   -3.9592   -2.0019 N   0  0  0  0  0  4  0  0  0  0  0  0
    1.6410   -4.6029   -1.1896 O   0  0  0  0  0  0  0  0  0  0  0  0
    0.8258   -4.2532   -3.2018 O   0  0  0  0  0  1  0  0  0  0  0  0
   -1.1044   -2.7528   -1.7495 C   0  0  0  0  0  0  0  0  0  0  0  0
   -1.8854   -3.6634   -2.4438 N   0  0  0  0  0  0  0  0  0  0  0  0
   -2.7352   -1.7918   -1.0526 H   0  0  0  0  0  0  0  0  0  0  0  0
   -1.2974    0.6893    0.8514 H   0  0  0  0  0  0  0  0  0  0  0  0
   -3.5354    0.3152   -1.0554 H   0  0  0  0  0  0  0  0  0  0  0  0
   -2.3234    1.5917   -1.1787 H   0  0  0  0  0  0  0  0  0  0  0  0
   -4.4199    2.3639   -0.1408 H   0  0  0  0  0  0  0  0  0  0  0  0
   -3.5105    3.5379    1.7861 H   0  0  0  0  0  0  0  0  0  0  0  0
   -2.1768    2.3904    1.9421 H   0  0  0  0  0  0  0  0  0  0  0  0
   -2.2733    3.4534    0.5250 H   0  0  0  0  0  0  0  0  0  0  0  0
   -5.1770    1.5960    2.0607 H   0  0  0  0  0  0  0  0  0  0  0  0
   -5.1233    0.2324    0.9351 H   0  0  0  0  0  0  0  0  0  0  0  0
   -3.8566    0.4232    2.1615 H   0  0  0  0  0  0  0  0  0  0  0  0
    2.9311    0.6866   -1.7524 H   0  0  0  0  0  0  0  0  0  0  0  0
    4.0619    2.5074   -0.5269 H   0  0  0  0  0  0  0  0  0  0  0  0
    4.5989    2.5022    3.1528 H   0  0  0  0  0  0  0  0  0  0  0  0
    4.5825    3.5025    1.7009 H   0  0  0  0  0  0  0  0  0  0  0  0
    5.9403    2.3859    1.9868 H   0  0  0  0  0  0  0  0  0  0  0  0
    4.1057    0.0593    3.0242 H   0  0  0  0  0  0  0  0  0  0  0  0
    2.9753   -1.7472    1.7776 H   0  0  0  0  0  0  0  0  0  0  0  0
   -1.3372   -4.2768   -3.0572 H   0  0  0  0  0  0  0  0  0  0  0  0
   -2.6181   -3.2060   -2.9819 H   0  0  0  0  0  0  0  0  0  0  0  0
  1  2  1  0
  2  3  1  0
  3  4  1  0
  4  5  1  0
  5  6  1  0
  5  7  1  0
  2  8  2  0
  8  9  1  0
  9 10  2  3
 10 11  1  0
 11 12  2  0
 12 13  1  0
 13 14  2  0
 14 15  1  0
 14 16  1  0
 16 17  2  0
  9 18  1  0
 18 19  1  0
 19 20  2  0
 19 21  1  0
 18 22  2  0
 22 23  1  0
 22  1  1  0
 17 11  1  0
  1 24  1  0
  3 25  1  0
  4 26  1  0
  4 27  1  0
  5 28  1  0
  6 29  1  0
  6 30  1  0
  6 31  1  0
  7 32  1  0
  7 33  1  0
  7 34  1  0
 12 35  1  0
 13 36  1  0
 15 37  1  0
 15 38  1  0
 15 39  1  0
 16 40  1  0
 17 41  1  0
 23 42  1  0
 23 43  1  0
M  CHG  2  19   1  21  -1
M  END
>  <ScrubInfo>  (7) 
{"isomerGroup": 0, "isomerId": 6, "confId": 0, "nr_conformers:": 1, "nr_isomers:": 9}

$$$$
_i7
     RDKit          3D

 43 44  0  0  0  0  0  0  0  0999 V2000
   -1.5970   -0.7914   -0.7492 N   0  0  0  0  0  0  0  0  0  0  0  0
   -0.4108   -1.4962   -0.5670 C   0  0  0  0  0  0  0  0  0  0  0  0
   -0.4630   -2.8517   -0.8648 N   0  0  0  0  0  0  0  0  0  0  0  0
    0.6816   -0.8301   -0.1041 C   0  0  0  0  0  0  0  0  0  0  0  0
    1.8405   -1.5911    0.2318 N   0  0  0  0  0  4  0  0  0  0  0  0
    2.4357   -2.1535   -0.7014 O   0  0  0  0  0  0  0  0  0  0  0  0
    2.1180   -1.7055    1.4327 O   0  0  0  0  0  1  0  0  0  0  0  0
    0.5698    0.6413    0.1472 C   0  0  0  0  0  0  0  0  0  0  0  0
    1.4803    1.5337    0.4276 N   0  0  0  0  0  0  0  0  0  0  0  0
    2.8438    1.2396    0.4805 C   0  0  0  0  0  0  0  0  0  0  0  0
    3.5962    1.1404   -0.6924 C   0  0  0  0  0  0  0  0  0  0  0  0
    4.9673    0.8784   -0.6343 C   0  0  0  0  0  0  0  0  0  0  0  0
    5.6058    0.7222    0.6012 C   0  0  0  0  0  0  0  0  0  0  0  0
    7.0824    0.4674    0.6676 C   0  0  0  0  0  0  0  0  0  0  0  0
    4.8586    0.8689    1.7754 C   0  0  0  0  0  0  0  0  0  0  0  0
    3.4877    1.1314    1.7129 C   0  0  0  0  0  0  0  0  0  0  0  0
   -0.7037    1.1556    0.0183 N   0  0  0  0  0  0  0  0  0  0  0  0
   -1.8324    0.5248   -0.4197 C   0  0  0  0  0  0  0  0  0  0  0  0
   -2.9369    1.1816   -0.4779 N   0  0  0  0  0  0  0  0  0  0  0  0
   -4.1528    0.5332   -0.9650 C   0  0  0  0  0  0  0  0  0  0  0  0
   -4.8931   -0.1673    0.1844 C   0  0  0  0  0  0  0  0  0  0  0  0
   -5.3907    0.8367    1.2267 C   0  0  0  0  0  0  0  0  0  0  0  0
   -6.0688   -0.9762   -0.3649 C   0  0  0  0  0  0  0  0  0  0  0  0
   -2.4003   -1.3750   -0.9337 H   0  0  0  0  0  0  0  0  0  0  0  0
    0.4567   -3.2820   -1.0038 H   0  0  0  0  0  0  0  0  0  0  0  0
   -1.0606   -3.0549   -1.6627 H   0  0  0  0  0  0  0  0  0  0  0  0
    3.1175    1.2739   -1.6582 H   0  0  0  0  0  0  0  0  0  0  0  0
    5.5335    0.7995   -1.5594 H   0  0  0  0  0  0  0  0  0  0  0  0
    7.4191   -0.1058   -0.2026 H   0  0  0  0  0  0  0  0  0  0  0  0
    7.6251    1.4172    0.6975 H   0  0  0  0  0  0  0  0  0  0  0  0
    7.3384   -0.1154    1.5586 H   0  0  0  0  0  0  0  0  0  0  0  0
    5.3364    0.7768    2.7480 H   0  0  0  0  0  0  0  0  0  0  0  0
    2.9176    1.2412    2.6312 H   0  0  0  0  0  0  0  0  0  0  0  0
   -0.8016    2.1433    0.2143 H   0  0  0  0  0  0  0  0  0  0  0  0
   -4.7946    1.3052   -1.4069 H   0  0  0  0  0  0  0  0  0  0  0  0
   -3.9349   -0.1678   -1.7798 H   0  0  0  0  0  0  0  0  0  0  0  0
   -4.2091   -0.8632    0.6858 H   0  0  0  0  0  0  0  0  0  0  0  0
   -6.0734    1.5677    0.7803 H   0  0  0  0  0  0  0  0  0  0  0  0
   -4.5572    1.3830    1.6796 H   0  0  0  0  0  0  0  0  0  0  0  0
   -5.9257    0.3242    2.0334 H   0  0  0  0  0  0  0  0  0  0  0  0
   -6.5920   -1.4997    0.4423 H   0  0  0  0  0  0  0  0  0  0  0  0
   -5.7216   -1.7293   -1.0801 H   0  0  0  0  0  0  0  0  0  0  0  0
   -6.7920   -0.3310   -0.8753 H   0  0  0  0  0  0  0  0  0  0  0  0
  1  2  1  0
  2  3  1  0
  2  4  2  0
  4  5  1  0
  5  6  2  0
  5  7  1  0
  4  8  1  0
  8  9  2  3
  9 10  1  0
 10 11  2  0
 11 12  1  0
 12 13  2  0
 13 14  1  0
 13 15  1  0
 15 16  2  0
  8 17  1  0
 17 18  1  0
 18 19  2  3
 19 20  1  0
 20 21  1  0
 21 22  1  0
 21 23  1  0
 18  1  1  0
 16 10  1  0
  1 24  1  0
  3 25  1  0
  3 26  1  0
 11 27  1  0
 12 28  1  0
 14 29  1  0
 14 30  1  0
 14 31  1  0
 15 32  1  0
 16 33  1  0
 17 34  1  0
 20 35  1  0
 20 36  1  0
 21 37  1  0
 22 38  1  0
 22 39  1  0
 22 40  1  0
 23 41  1  0
 23 42  1  0
 23 43  1  0
M  CHG  2   5   1   7  -1
M  END
>  <ScrubInfo>  (8) 
{"isomerGroup": 0, "isomerId": 7, "confId": 0, "nr_conformers:": 1, "nr_isomers:": 9}

$$$$
_i8
     RDKit          3D

 43 44  0  0  0  0  0  0  0  0999 V2000
    2.1814   -1.5629    0.2687 N   0  0  0  0  0  0  0  0  0  0  0  0
    1.4627   -0.5028    0.7634 C   0  0  0  0  0  0  0  0  0  0  0  0
    1.8930    0.6130    1.2362 N   0  0  0  0  0  0  0  0  0  0  0  0
    3.3258    0.8866    1.3145 C   0  0  0  0  0  0  0  0  0  0  0  0
    3.8437    1.4674   -0.0100 C   0  0  0  0  0  0  0  0  0  0  0  0
    5.3662    1.6020    0.0363 C   0  0  0  0  0  0  0  0  0  0  0  0
    3.2077    2.8255   -0.3150 C   0  0  0  0  0  0  0  0  0  0  0  0
    0.1106   -0.7266    0.7223 N   0  0  0  0  0  0  0  0  0  0  0  0
   -0.5714   -1.8466    0.2414 C   0  0  0  0  0  0  0  0  0  0  0  0
   -1.9619   -1.8702    0.3100 N   0  0  0  0  0  0  0  0  0  0  0  0
   -2.8780   -0.8232    0.0853 C   0  0  0  0  0  0  0  0  0  0  0  0
   -2.5333    0.3982   -0.5037 C   0  0  0  0  0  0  0  0  0  0  0  0
   -3.4788    1.4195   -0.6533 C   0  0  0  0  0  0  0  0  0  0  0  0
   -4.7941    1.2408   -0.2161 C   0  0  0  0  0  0  0  0  0  0  0  0
   -5.7978    2.3474   -0.3458 C   0  0  0  0  0  0  0  0  0  0  0  0
   -5.1419    0.0339    0.3949 C   0  0  0  0  0  0  0  0  0  0  0  0
   -4.1941   -0.9841    0.5410 C   0  0  0  0  0  0  0  0  0  0  0  0
    0.1803   -2.8789   -0.2215 C   0  0  0  0  0  0  0  0  0  0  0  0
   -0.4526   -4.0402   -0.7715 N   0  0  0  0  0  4  0  0  0  0  0  0
   -1.3311   -4.5872   -0.0836 O   0  0  0  0  0  0  0  0  0  0  0  0
   -0.1417   -4.3792   -1.9204 O   0  0  0  0  0  1  0  0  0  0  0  0
    1.6632   -2.7538   -0.1898 C   0  0  0  0  0  0  0  0  0  0  0  0
    2.4456   -3.7245   -0.5468 N   0  0  0  0  0  0  0  0  0  0  0  0
    3.1833   -1.4671    0.2737 H   0  0  0  0  0  0  0  0  0  0  0  0
    3.8889   -0.0098    1.6004 H   0  0  0  0  0  0  0  0  0  0  0  0
    3.4892    1.6060    2.1262 H   0  0  0  0  0  0  0  0  0  0  0  0
    3.5900    0.7841   -0.8300 H   0  0  0  0  0  0  0  0  0  0  0  0
    5.7514    1.9933   -0.9113 H   0  0  0  0  0  0  0  0  0  0  0  0
    5.6818    2.2802    0.8365 H   0  0  0  0  0  0  0  0  0  0  0  0
    5.8371    0.6288    0.2108 H   0  0  0  0  0  0  0  0  0  0  0  0
    3.5956    3.2323   -1.2551 H   0  0  0  0  0  0  0  0  0  0  0  0
    3.4183    3.5503    0.4787 H   0  0  0  0  0  0  0  0  0  0  0  0
    2.1210    2.7398   -0.4171 H   0  0  0  0  0  0  0  0  0  0  0  0
   -0.4736   -0.0126    1.1433 H   0  0  0  0  0  0  0  0  0  0  0  0
   -2.3917   -2.7954    0.2244 H   0  0  0  0  0  0  0  0  0  0  0  0
   -1.5325    0.5725   -0.8889 H   0  0  0  0  0  0  0  0  0  0  0  0
   -3.1783    2.3549   -1.1206 H   0  0  0  0  0  0  0  0  0  0  0  0
   -5.7671    2.9864    0.5420 H   0  0  0  0  0  0  0  0  0  0  0  0
   -6.8103    1.9453   -0.4579 H   0  0  0  0  0  0  0  0  0  0  0  0
   -5.5922    2.9595   -1.2302 H   0  0  0  0  0  0  0  0  0  0  0  0
   -6.1521   -0.1241    0.7658 H   0  0  0  0  0  0  0  0  0  0  0  0
   -4.4936   -1.9084    1.0303 H   0  0  0  0  0  0  0  0  0  0  0  0
    3.4314   -3.4703   -0.4581 H   0  0  0  0  0  0  0  0  0  0  0  0
  1  2  1  0
  2  3  2  3
  3  4  1  0
  4  5  1  0
  5  6  1  0
  5  7  1  0
  2  8  1  0
  8  9  1  0
  9 10  1  0
 10 11  1  0
 11 12  2  0
 12 13  1  0
 13 14  2  0
 14 15  1  0
 14 16  1  0
 16 17  2  0
  9 18  2  0
 18 19  1  0
 19 20  2  0
 19 21  1  0
 18 22  1  0
 22 23  2  3
 22  1  1  0
 17 11  1  0
  1 24  1  0
  4 25  1  0
  4 26  1  0
  5 27  1  0
  6 28  1  0
  6 29  1  0
  6 30  1  0
  7 31  1  0
  7 32  1  0
  7 33  1  0
  8 34  1  0
 10 35  1  0
 12 36  1  0
 13 37  1  0
 15 38  1  0
 15 39  1  0
 15 40  1  0
 16 41  1  0
 17 42  1  0
 23 43  1  0
M  CHG  2  19   1  21  -1
M  END
>  <ScrubInfo>  (9) 
{"isomerGroup": 0, "isomerId": 8, "confId": 0, "nr_conformers:": 1, "nr_isomers:": 9}

$$$$
