REMARK SMILES COc1ccc(Nc2nc(NCC(C)C)nc3c2cnn3C)c(OC)c1
REMARK SMILES IDX 8 1 9 2 10 3 16 4 17 5 18 6 19 7 20 8 21 9 22 10 7 11 6 13
REMARK SMILES IDX 3 14 4 15 26 16 5 17 23 18 2 19 1 20 24 21 25 22 11 23 12 25
REMARK SMILES IDX 13 26 14 27 15 28
REMARK H PARENT 7 12 11 24
ROOT
ATOM      1  C   UNL     1       0.017  -0.427  -1.018  1.00  0.00     0.147 A 
ATOM      2  N   UNL     1       1.191   0.145  -1.390  1.00  0.00    -0.195 NA
ATOM      3  C   UNL     1       2.362  -0.454  -1.105  1.00  0.00     0.226 A 
ATOM      4  N   UNL     1       2.506  -1.627  -0.475  1.00  0.00    -0.193 NA
ATOM      5  C   UNL     1       1.334  -2.200  -0.167  1.00  0.00     0.165 A 
ATOM      6  C   UNL     1       0.076  -1.681  -0.405  1.00  0.00     0.082 A 
ATOM      7  C   UNL     1      -0.805  -2.685   0.049  1.00  0.00     0.149 A 
ATOM      8  N   UNL     1      -0.170  -3.735   0.584  1.00  0.00    -0.179 NA
ATOM      9  N   UNL     1       1.135  -3.414   0.430  1.00  0.00    -0.250 N 
ATOM     10  C   UNL     1       2.150  -4.340   0.866  1.00  0.00     0.176 C 
ENDROOT
BRANCH   1  11
ATOM     11  N   UNL     1      -1.151   0.256  -1.356  1.00  0.00    -0.336 N 
ATOM     12  H   UNL     1      -0.956   0.996  -2.026  1.00  0.00     0.168 HD
BRANCH  11  13
ATOM     13  C   UNL     1      -2.337   0.522  -0.637  1.00  0.00     0.083 A 
ATOM     14  C   UNL     1      -4.788   0.990   0.684  1.00  0.00     0.122 A 
ATOM     15  C   UNL     1      -3.729   0.390   1.360  1.00  0.00     0.049 A 
ATOM     16  C   UNL     1      -4.624   1.364  -0.653  1.00  0.00     0.095 A 
ATOM     17  C   UNL     1      -2.515   0.158   0.702  1.00  0.00     0.034 A 
ATOM     18  C   UNL     1      -3.414   1.134  -1.317  1.00  0.00     0.146 A 
BRANCH  14  19
ATOM     19  O   UNL     1      -6.019   1.272   1.208  1.00  0.00    -0.497 OA
ATOM     20  C   UNL     1      -6.246   0.892   2.560  1.00  0.00     0.278 C 
ENDBRANCH  14  19
BRANCH  18  21
ATOM     21  O   UNL     1      -3.160   1.483  -2.624  1.00  0.00    -0.494 OA
ATOM     22  C   UNL     1      -4.251   1.987  -3.384  1.00  0.00     0.278 C 
ENDBRANCH  18  21
ENDBRANCH  11  13
ENDBRANCH   1  11
BRANCH   3  23
ATOM     23  N   UNL     1       3.481   0.251  -1.515  1.00  0.00    -0.354 N 
ATOM     24  H   UNL     1       3.176   1.192  -1.736  1.00  0.00     0.163 HD
BRANCH  23  25
ATOM     25  C   UNL     1       4.682   0.133  -0.706  1.00  0.00     0.119 C 
BRANCH  25  26
ATOM     26  C   UNL     1       4.559   0.836   0.660  1.00  0.00     0.002 C 
ATOM     27  C   UNL     1       5.790   0.523   1.515  1.00  0.00     0.009 C 
ATOM     28  C   UNL     1       4.404   2.351   0.513  1.00  0.00     0.009 C 
ENDBRANCH  25  26
ENDBRANCH  23  25
ENDBRANCH   3  23
TORSDOF 7
