_i0
     RDKit          3D

 50 52  0  0  0  0  0  0  0  0999 V2000
   -6.2461    0.8922    2.5603 C   0  0  0  0  0  0  0  0  0  0  0  0
   -6.0195    1.2717    1.2083 O   0  0  0  0  0  0  0  0  0  0  0  0
   -4.7877    0.9900    0.6838 C   0  0  0  0  0  0  0  0  0  0  0  0
   -3.7289    0.3903    1.3598 C   0  0  0  0  0  0  0  0  0  0  0  0
   -2.5152    0.1584    0.7022 C   0  0  0  0  0  0  0  0  0  0  0  0
   -2.3367    0.5220   -0.6370 C   0  0  0  0  0  0  0  0  0  0  0  0
   -1.1515    0.2561   -1.3562 N   0  0  0  0  0  0  0  0  0  0  0  0
    0.0168   -0.4269   -1.0175 C   0  0  0  0  0  0  0  0  0  0  0  0
    1.1912    0.1454   -1.3898 N   0  0  0  0  0  0  0  0  0  0  0  0
    2.3617   -0.4541   -1.1048 C   0  0  0  0  0  0  0  0  0  0  0  0
    3.4813    0.2512   -1.5150 N   0  0  0  0  0  0  0  0  0  0  0  0
    4.6819    0.1330   -0.7056 C   0  0  0  0  0  0  0  0  0  0  0  0
    4.5592    0.8356    0.6602 C   0  0  0  0  0  0  0  0  0  0  0  0
    5.7900    0.5233    1.5147 C   0  0  0  0  0  0  0  0  0  0  0  0
    4.4040    2.3513    0.5130 C   0  0  0  0  0  0  0  0  0  0  0  0
    2.5061   -1.6274   -0.4746 N   0  0  0  0  0  0  0  0  0  0  0  0
    1.3336   -2.1999   -0.1671 C   0  0  0  0  0  0  0  0  0  0  0  0
    0.0762   -1.6810   -0.4046 C   0  0  0  0  0  0  0  0  0  0  0  0
   -0.8049   -2.6851    0.0488 C   0  0  0  0  0  0  0  0  0  0  0  0
   -0.1703   -3.7353    0.5838 N   0  0  0  0  0  0  0  0  0  0  0  0
    1.1355   -3.4143    0.4302 N   0  0  0  0  0  0  0  0  0  0  0  0
    2.1497   -4.3404    0.8664 C   0  0  0  0  0  0  0  0  0  0  0  0
   -3.4144    1.1342   -1.3168 C   0  0  0  0  0  0  0  0  0  0  0  0
   -3.1601    1.4827   -2.6239 O   0  0  0  0  0  0  0  0  0  0  0  0
   -4.2510    1.9871   -3.3838 C   0  0  0  0  0  0  0  0  0  0  0  0
   -4.6242    1.3642   -0.6528 C   0  0  0  0  0  0  0  0  0  0  0  0
   -7.2719    1.1723    2.8185 H   0  0  0  0  0  0  0  0  0  0  0  0
   -6.1548   -0.1916    2.6872 H   0  0  0  0  0  0  0  0  0  0  0  0
   -5.5739    1.4286    3.2381 H   0  0  0  0  0  0  0  0  0  0  0  0
   -3.8064    0.0945    2.4009 H   0  0  0  0  0  0  0  0  0  0  0  0
   -1.7036   -0.2819    1.2735 H   0  0  0  0  0  0  0  0  0  0  0  0
   -0.9556    0.9956   -2.0264 H   0  0  0  0  0  0  0  0  0  0  0  0
    3.1759    1.1917   -1.7359 H   0  0  0  0  0  0  0  0  0  0  0  0
    5.5091    0.5821   -1.2693 H   0  0  0  0  0  0  0  0  0  0  0  0
    4.9533   -0.9224   -0.5746 H   0  0  0  0  0  0  0  0  0  0  0  0
    3.6797    0.4557    1.1945 H   0  0  0  0  0  0  0  0  0  0  0  0
    5.7096    0.9941    2.5002 H   0  0  0  0  0  0  0  0  0  0  0  0
    6.7074    0.8867    1.0391 H   0  0  0  0  0  0  0  0  0  0  0  0
    5.8921   -0.5561    1.6692 H   0  0  0  0  0  0  0  0  0  0  0  0
    4.3640    2.8336    1.4957 H   0  0  0  0  0  0  0  0  0  0  0  0
    5.2433    2.7849   -0.0413 H   0  0  0  0  0  0  0  0  0  0  0  0
    3.4794    2.6077   -0.0133 H   0  0  0  0  0  0  0  0  0  0  0  0
   -1.8868   -2.6927    0.0108 H   0  0  0  0  0  0  0  0  0  0  0  0
    2.0714   -5.2455    0.2589 H   0  0  0  0  0  0  0  0  0  0  0  0
    3.1401   -3.8956    0.7463 H   0  0  0  0  0  0  0  0  0  0  0  0
    1.9757   -4.5715    1.9205 H   0  0  0  0  0  0  0  0  0  0  0  0
   -3.8977    2.1508   -4.4064 H   0  0  0  0  0  0  0  0  0  0  0  0
   -5.0726    1.2644   -3.4278 H   0  0  0  0  0  0  0  0  0  0  0  0
   -4.5901    2.9514   -2.9916 H   0  0  0  0  0  0  0  0  0  0  0  0
   -5.4642    1.8389   -1.1488 H   0  0  0  0  0  0  0  0  0  0  0  0
  1  2  1  0
  2  3  1  0
  3  4  2  0
  4  5  1  0
  5  6  2  0
  6  7  1  0
  7  8  1  0
  8  9  2  0
  9 10  1  0
 10 11  1  0
 11 12  1  0
 12 13  1  0
 13 14  1  0
 13 15  1  0
 10 16  2  0
 16 17  1  0
 17 18  2  0
 18 19  1  0
 19 20  2  0
 20 21  1  0
 21 22  1  0
  6 23  1  0
 23 24  1  0
 24 25  1  0
 23 26  2  0
 26  3  1  0
 18  8  1  0
 21 17  1  0
  1 27  1  0
  1 28  1  0
  1 29  1  0
  4 30  1  0
  5 31  1  0
  7 32  1  0
 11 33  1  0
 12 34  1  0
 12 35  1  0
 13 36  1  0
 14 37  1  0
 14 38  1  0
 14 39  1  0
 15 40  1  0
 15 41  1  0
 15 42  1  0
 19 43  1  0
 22 44  1  0
 22 45  1  0
 22 46  1  0
 25 47  1  0
 25 48  1  0
 25 49  1  0
 26 50  1  0
M  END
>  <ScrubInfo>  (1) 
{"isomerGroup": 0, "isomerId": 0, "confId": 0, "nr_conformers:": 1, "nr_isomers:": 9}

$$$$
_i1
     RDKit          3D

 50 52  0  0  0  0  0  0  0  0999 V2000
   -0.9682    0.9844   -0.3132 N   0  0  0  0  0  0  0  0  0  0  0  0
   -2.0823    0.2138   -0.0807 C   0  0  0  0  0  0  0  0  0  0  0  0
   -3.2352    0.8065   -0.5266 N   0  0  0  0  0  0  0  0  0  0  0  0
   -4.5300    0.1874   -0.2675 C   0  0  0  0  0  0  0  0  0  0  0  0
   -5.6492    0.9240   -1.0230 C   0  0  0  0  0  0  0  0  0  0  0  0
   -5.9405    2.2995   -0.4170 C   0  0  0  0  0  0  0  0  0  0  0  0
   -6.9262    0.0804   -1.0158 C   0  0  0  0  0  0  0  0  0  0  0  0
   -2.0468   -0.9581    0.4987 N   0  0  0  0  0  0  0  0  0  0  0  0
   -0.7777   -1.3083    0.8514 C   0  0  0  0  0  0  0  0  0  0  0  0
    0.4009   -0.6066    0.6488 C   0  0  0  0  0  0  0  0  0  0  0  0
    1.3906   -1.4145    1.2355 C   0  0  0  0  0  0  0  0  0  0  0  0
    0.8964   -2.5425    1.7629 N   0  0  0  0  0  0  0  0  0  0  0  0
   -0.4281   -2.4577    1.5020 N   0  0  0  0  0  0  0  0  0  0  0  0
   -1.3027   -3.5201    1.9296 C   0  0  0  0  0  0  0  0  0  0  0  0
    0.3429    0.6703   -0.0351 C   0  0  0  0  0  0  0  0  0  0  0  0
    1.3130    1.4638   -0.3737 N   0  0  0  0  0  0  0  0  0  0  0  0
    2.6562    1.1220   -0.1629 C   0  0  0  0  0  0  0  0  0  0  0  0
    3.3323    1.7083    0.9118 C   0  0  0  0  0  0  0  0  0  0  0  0
    4.6804    1.4282    1.1479 C   0  0  0  0  0  0  0  0  0  0  0  0
    5.3703    0.5673    0.2966 C   0  0  0  0  0  0  0  0  0  0  0  0
    6.6864    0.2102    0.4117 O   0  0  0  0  0  0  0  0  0  0  0  0
    7.4047    0.7438    1.5173 C   0  0  0  0  0  0  0  0  0  0  0  0
    4.7057   -0.0072   -0.7941 C   0  0  0  0  0  0  0  0  0  0  0  0
    3.3545    0.2638   -1.0361 C   0  0  0  0  0  0  0  0  0  0  0  0
    2.6267   -0.2548   -2.0786 O   0  0  0  0  0  0  0  0  0  0  0  0
    3.2519   -1.2493   -2.8777 C   0  0  0  0  0  0  0  0  0  0  0  0
   -1.0675    1.7794   -0.9223 H   0  0  0  0  0  0  0  0  0  0  0  0
   -3.2431    1.8120   -0.4128 H   0  0  0  0  0  0  0  0  0  0  0  0
   -4.7323    0.1841    0.8104 H   0  0  0  0  0  0  0  0  0  0  0  0
   -4.4976   -0.8561   -0.6041 H   0  0  0  0  0  0  0  0  0  0  0  0
   -5.3437    1.0677   -2.0675 H   0  0  0  0  0  0  0  0  0  0  0  0
   -6.2227    2.2167    0.6382 H   0  0  0  0  0  0  0  0  0  0  0  0
   -6.7639    2.7894   -0.9481 H   0  0  0  0  0  0  0  0  0  0  0  0
   -5.0712    2.9603   -0.4849 H   0  0  0  0  0  0  0  0  0  0  0  0
   -7.7278    0.5822   -1.5682 H   0  0  0  0  0  0  0  0  0  0  0  0
   -6.7538   -0.8913   -1.4908 H   0  0  0  0  0  0  0  0  0  0  0  0
   -7.2785   -0.0989    0.0058 H   0  0  0  0  0  0  0  0  0  0  0  0
    2.4548   -1.2445    1.3167 H   0  0  0  0  0  0  0  0  0  0  0  0
   -1.3780   -3.4823    3.0191 H   0  0  0  0  0  0  0  0  0  0  0  0
   -2.2908   -3.3965    1.4809 H   0  0  0  0  0  0  0  0  0  0  0  0
   -0.8737   -4.4734    1.6098 H   0  0  0  0  0  0  0  0  0  0  0  0
    2.7994    2.3905    1.5690 H   0  0  0  0  0  0  0  0  0  0  0  0
    5.1584    1.9033    1.9977 H   0  0  0  0  0  0  0  0  0  0  0  0
    8.4258    0.3531    1.4722 H   0  0  0  0  0  0  0  0  0  0  0  0
    6.9659    0.4202    2.4670 H   0  0  0  0  0  0  0  0  0  0  0  0
    7.4631    1.8356    1.4593 H   0  0  0  0  0  0  0  0  0  0  0  0
    5.2774   -0.6628   -1.4427 H   0  0  0  0  0  0  0  0  0  0  0  0
    3.5604   -2.1089   -2.2734 H   0  0  0  0  0  0  0  0  0  0  0  0
    4.0969   -0.8317   -3.4346 H   0  0  0  0  0  0  0  0  0  0  0  0
    2.5165   -1.6030   -3.6067 H   0  0  0  0  0  0  0  0  0  0  0  0
  1  2  1  0
  2  3  1  0
  3  4  1  0
  4  5  1  0
  5  6  1  0
  5  7  1  0
  2  8  2  0
  8  9  1  0
  9 10  2  0
 10 11  1  0
 11 12  2  0
 12 13  1  0
 13 14  1  0
 10 15  1  0
 15 16  2  3
 16 17  1  0
 17 18  2  0
 18 19  1  0
 19 20  2  0
 20 21  1  0
 21 22  1  0
 20 23  1  0
 23 24  2  0
 24 25  1  0
 25 26  1  0
 15  1  1  0
 24 17  1  0
 13  9  1  0
  1 27  1  0
  3 28  1  0
  4 29  1  0
  4 30  1  0
  5 31  1  0
  6 32  1  0
  6 33  1  0
  6 34  1  0
  7 35  1  0
  7 36  1  0
  7 37  1  0
 11 38  1  0
 14 39  1  0
 14 40  1  0
 14 41  1  0
 18 42  1  0
 19 43  1  0
 22 44  1  0
 22 45  1  0
 22 46  1  0
 23 47  1  0
 26 48  1  0
 26 49  1  0
 26 50  1  0
M  END
>  <ScrubInfo>  (2) 
{"isomerGroup": 0, "isomerId": 1, "confId": 0, "nr_conformers:": 1, "nr_isomers:": 9}

$$$$
_i2
     RDKit          3D

 50 52  0  0  0  0  0  0  0  0999 V2000
   -1.4413   -0.0036    0.2361 N   0  0  0  0  0  0  0  0  0  0  0  0
   -0.1311   -0.3759   -0.0080 C   0  0  0  0  0  0  0  0  0  0  0  0
    0.8772    0.4577    0.4338 N   0  0  0  0  0  0  0  0  0  0  0  0
    2.2001    0.5737   -0.0510 C   0  0  0  0  0  0  0  0  0  0  0  0
    2.4864    0.5399   -1.4195 C   0  0  0  0  0  0  0  0  0  0  0  0
    3.8024    0.6579   -1.8673 C   0  0  0  0  0  0  0  0  0  0  0  0
    4.8511    0.8211   -0.9609 C   0  0  0  0  0  0  0  0  0  0  0  0
    6.0866    0.9209   -1.5395 O   0  0  0  0  0  0  0  0  0  0  0  0
    7.2015    1.0818   -0.6720 C   0  0  0  0  0  0  0  0  0  0  0  0
    4.5769    0.8746    0.4081 C   0  0  0  0  0  0  0  0  0  0  0  0
    3.2582    0.7573    0.8667 C   0  0  0  0  0  0  0  0  0  0  0  0
    2.8721    0.7975    2.1878 O   0  0  0  0  0  0  0  0  0  0  0  0
    3.8959    0.9764    3.1591 C   0  0  0  0  0  0  0  0  0  0  0  0
    0.0242   -1.5586   -0.6181 C   0  0  0  0  0  0  0  0  0  0  0  0
    1.1100   -2.4649   -1.0173 C   0  0  0  0  0  0  0  0  0  0  0  0
    0.6831   -3.5714   -1.5734 N   0  0  0  0  0  0  0  0  0  0  0  0
   -0.7134   -3.4504   -1.6172 N   0  0  0  0  0  0  0  0  0  0  0  0
   -1.5093   -4.6256   -1.8773 C   0  0  0  0  0  0  0  0  0  0  0  0
   -1.1950   -2.3041   -1.0054 C   0  0  0  0  0  0  0  0  0  0  0  0
   -2.4086   -1.9311   -0.7858 N   0  0  0  0  0  0  0  0  0  0  0  0
   -2.5519   -0.7166   -0.1547 C   0  0  0  0  0  0  0  0  0  0  0  0
   -3.7785   -0.3666    0.0031 N   0  0  0  0  0  0  0  0  0  0  0  0
   -4.0802    0.9000    0.6584 C   0  0  0  0  0  0  0  0  0  0  0  0
   -5.6055    1.0715    0.7424 C   0  0  0  0  0  0  0  0  0  0  0  0
   -5.9530    2.2793    1.6137 C   0  0  0  0  0  0  0  0  0  0  0  0
   -6.2301    1.2325   -0.6456 C   0  0  0  0  0  0  0  0  0  0  0  0
   -1.5658    0.9284    0.5960 H   0  0  0  0  0  0  0  0  0  0  0  0
    0.8422    0.6266    1.4398 H   0  0  0  0  0  0  0  0  0  0  0  0
    1.6886    0.4423   -2.1514 H   0  0  0  0  0  0  0  0  0  0  0  0
    4.0116    0.6297   -2.9345 H   0  0  0  0  0  0  0  0  0  0  0  0
    7.1285    2.0159   -0.1053 H   0  0  0  0  0  0  0  0  0  0  0  0
    8.1020    1.1376   -1.2912 H   0  0  0  0  0  0  0  0  0  0  0  0
    7.3093    0.2208   -0.0041 H   0  0  0  0  0  0  0  0  0  0  0  0
    5.3864    1.0087    1.1128 H   0  0  0  0  0  0  0  0  0  0  0  0
    4.6065    0.1436    3.1410 H   0  0  0  0  0  0  0  0  0  0  0  0
    3.4217    0.9872    4.1452 H   0  0  0  0  0  0  0  0  0  0  0  0
    4.4044    1.9366    3.0242 H   0  0  0  0  0  0  0  0  0  0  0  0
    2.1612   -2.2254   -0.8192 H   0  0  0  0  0  0  0  0  0  0  0  0
   -2.4867   -4.3525   -2.2878 H   0  0  0  0  0  0  0  0  0  0  0  0
   -1.6646   -5.1928   -0.9543 H   0  0  0  0  0  0  0  0  0  0  0  0
   -1.0129   -5.2765   -2.6044 H   0  0  0  0  0  0  0  0  0  0  0  0
   -3.6439    1.7388    0.1021 H   0  0  0  0  0  0  0  0  0  0  0  0
   -3.6623    0.9016    1.6728 H   0  0  0  0  0  0  0  0  0  0  0  0
   -6.0389    0.1775    1.2092 H   0  0  0  0  0  0  0  0  0  0  0  0
   -5.5494    2.1588    2.6246 H   0  0  0  0  0  0  0  0  0  0  0  0
   -7.0383    2.3973    1.7004 H   0  0  0  0  0  0  0  0  0  0  0  0
   -5.5437    3.2042    1.1931 H   0  0  0  0  0  0  0  0  0  0  0  0
   -6.0459    0.3510   -1.2680 H   0  0  0  0  0  0  0  0  0  0  0  0
   -7.3152    1.3611   -0.5693 H   0  0  0  0  0  0  0  0  0  0  0  0
   -5.8225    2.1061   -1.1657 H   0  0  0  0  0  0  0  0  0  0  0  0
  1  2  1  0
  2  3  1  0
  3  4  1  0
  4  5  2  0
  5  6  1  0
  6  7  2  0
  7  8  1  0
  8  9  1  0
  7 10  1  0
 10 11  2  0
 11 12  1  0
 12 13  1  0
  2 14  2  0
 14 15  1  0
 15 16  2  0
 16 17  1  0
 17 18  1  0
 17 19  1  0
 19 20  2  0
 20 21  1  0
 21 22  2  3
 22 23  1  0
 23 24  1  0
 24 25  1  0
 24 26  1  0
 21  1  1  0
 11  4  1  0
 19 14  1  0
  1 27  1  0
  3 28  1  0
  5 29  1  0
  6 30  1  0
  9 31  1  0
  9 32  1  0
  9 33  1  0
 10 34  1  0
 13 35  1  0
 13 36  1  0
 13 37  1  0
 15 38  1  0
 18 39  1  0
 18 40  1  0
 18 41  1  0
 23 42  1  0
 23 43  1  0
 24 44  1  0
 25 45  1  0
 25 46  1  0
 25 47  1  0
 26 48  1  0
 26 49  1  0
 26 50  1  0
M  END
>  <ScrubInfo>  (3) 
{"isomerGroup": 0, "isomerId": 2, "confId": 0, "nr_conformers:": 1, "nr_isomers:": 9}

$$$$
_i3
     RDKit          3D

 50 52  0  0  0  0  0  0  0  0999 V2000
   -2.0711   -0.8637    0.8016 N   0  0  0  0  0  0  0  0  0  0  0  0
   -2.0364    0.4901    0.5046 C   0  0  0  0  0  0  0  0  0  0  0  0
   -3.0208    1.1951    0.0694 N   0  0  0  0  0  0  0  0  0  0  0  0
   -4.3135    0.5629   -0.1577 C   0  0  0  0  0  0  0  0  0  0  0  0
   -5.2964    1.6112   -0.7036 C   0  0  0  0  0  0  0  0  0  0  0  0
   -6.7123    1.0350   -0.7452 C   0  0  0  0  0  0  0  0  0  0  0  0
   -4.8876    2.0921   -2.0980 C   0  0  0  0  0  0  0  0  0  0  0  0
   -0.8757    1.2316    0.6660 N   0  0  0  0  0  0  0  0  0  0  0  0
    0.2161    0.6463    1.0748 C   0  0  0  0  0  0  0  0  0  0  0  0
    1.3880    1.3382    1.2676 N   0  0  0  0  0  0  0  0  0  0  0  0
    2.6446    0.9391    0.7283 C   0  0  0  0  0  0  0  0  0  0  0  0
    3.7865    1.2522    1.4814 C   0  0  0  0  0  0  0  0  0  0  0  0
    5.0667    0.9513    1.0104 C   0  0  0  0  0  0  0  0  0  0  0  0
    5.2236    0.3584   -0.2389 C   0  0  0  0  0  0  0  0  0  0  0  0
    6.4132    0.0127   -0.8198 O   0  0  0  0  0  0  0  0  0  0  0  0
    7.5929    0.2407   -0.0586 C   0  0  0  0  0  0  0  0  0  0  0  0
    4.0939    0.0844   -1.0186 C   0  0  0  0  0  0  0  0  0  0  0  0
    2.8061    0.3822   -0.5569 C   0  0  0  0  0  0  0  0  0  0  0  0
    1.6632    0.1933   -1.2890 O   0  0  0  0  0  0  0  0  0  0  0  0
    1.7769   -0.4821   -2.5337 C   0  0  0  0  0  0  0  0  0  0  0  0
    0.2144   -0.7575    1.4195 C   0  0  0  0  0  0  0  0  0  0  0  0
    1.1114   -1.7087    1.9285 C   0  0  0  0  0  0  0  0  0  0  0  0
    0.5488   -2.9206    2.0669 N   0  0  0  0  0  0  0  0  0  0  0  0
   -0.7246   -2.7350    1.6411 N   0  0  0  0  0  0  0  0  0  0  0  0
   -1.6356   -3.8507    1.6550 C   0  0  0  0  0  0  0  0  0  0  0  0
   -0.9524   -1.4519    1.2579 C   0  0  0  0  0  0  0  0  0  0  0  0
   -2.9491   -1.3426    0.6791 H   0  0  0  0  0  0  0  0  0  0  0  0
   -4.2232   -0.2654   -0.8714 H   0  0  0  0  0  0  0  0  0  0  0  0
   -4.7014    0.1652    0.7883 H   0  0  0  0  0  0  0  0  0  0  0  0
   -5.3004    2.4792   -0.0317 H   0  0  0  0  0  0  0  0  0  0  0  0
   -7.4257    1.7814   -1.1103 H   0  0  0  0  0  0  0  0  0  0  0  0
   -7.0361    0.7259    0.2543 H   0  0  0  0  0  0  0  0  0  0  0  0
   -6.7674    0.1621   -1.4046 H   0  0  0  0  0  0  0  0  0  0  0  0
   -5.6004    2.8324   -2.4767 H   0  0  0  0  0  0  0  0  0  0  0  0
   -3.9001    2.5645   -2.0808 H   0  0  0  0  0  0  0  0  0  0  0  0
   -4.8535    1.2609   -2.8106 H   0  0  0  0  0  0  0  0  0  0  0  0
    1.2211    2.2961    0.9632 H   0  0  0  0  0  0  0  0  0  0  0  0
    3.6767    1.7203    2.4577 H   0  0  0  0  0  0  0  0  0  0  0  0
    5.9141    1.1973    1.6414 H   0  0  0  0  0  0  0  0  0  0  0  0
    7.5792   -0.3338    0.8735 H   0  0  0  0  0  0  0  0  0  0  0  0
    8.4451   -0.1062   -0.6510 H   0  0  0  0  0  0  0  0  0  0  0  0
    7.7355    1.3087    0.1362 H   0  0  0  0  0  0  0  0  0  0  0  0
    4.2574   -0.3534   -1.9982 H   0  0  0  0  0  0  0  0  0  0  0  0
    0.7685   -0.6026   -2.9410 H   0  0  0  0  0  0  0  0  0  0  0  0
    2.2048   -1.4819   -2.4051 H   0  0  0  0  0  0  0  0  0  0  0  0
    2.3564    0.1091   -3.2500 H   0  0  0  0  0  0  0  0  0  0  0  0
    2.1488   -1.5818    2.2082 H   0  0  0  0  0  0  0  0  0  0  0  0
   -1.7812   -4.1623    2.6923 H   0  0  0  0  0  0  0  0  0  0  0  0
   -1.1969   -4.6628    1.0695 H   0  0  0  0  0  0  0  0  0  0  0  0
   -2.5919   -3.5570    1.2173 H   0  0  0  0  0  0  0  0  0  0  0  0
  1  2  1  0
  2  3  2  3
  3  4  1  0
  4  5  1  0
  5  6  1  0
  5  7  1  0
  2  8  1  0
  8  9  2  0
  9 10  1  0
 10 11  1  0
 11 12  2  0
 12 13  1  0
 13 14  2  0
 14 15  1  0
 15 16  1  0
 14 17  1  0
 17 18  2  0
 18 19  1  0
 19 20  1  0
  9 21  1  0
 21 22  1  0
 22 23  2  0
 23 24  1  0
 24 25  1  0
 24 26  1  0
 26  1  1  0
 18 11  1  0
 26 21  2  0
  1 27  1  0
  4 28  1  0
  4 29  1  0
  5 30  1  0
  6 31  1  0
  6 32  1  0
  6 33  1  0
  7 34  1  0
  7 35  1  0
  7 36  1  0
 10 37  1  0
 12 38  1  0
 13 39  1  0
 16 40  1  0
 16 41  1  0
 16 42  1  0
 17 43  1  0
 20 44  1  0
 20 45  1  0
 20 46  1  0
 22 47  1  0
 25 48  1  0
 25 49  1  0
 25 50  1  0
M  END
>  <ScrubInfo>  (4) 
{"isomerGroup": 0, "isomerId": 3, "confId": 0, "nr_conformers:": 1, "nr_isomers:": 9}

$$$$
_i4
     RDKit          3D

 50 52  0  0  0  0  0  0  0  0999 V2000
   -2.3211   -1.9309   -0.1658 N   0  0  0  0  0  0  0  0  0  0  0  0
   -1.5437   -0.7918   -0.2152 C   0  0  0  0  0  0  0  0  0  0  0  0
   -2.1615    0.2096   -0.9183 N   0  0  0  0  0  0  0  0  0  0  0  0
   -1.4572    1.4654   -1.1625 C   0  0  0  0  0  0  0  0  0  0  0  0
   -2.3762    2.5296   -1.7861 C   0  0  0  0  0  0  0  0  0  0  0  0
   -3.5680    2.8582   -0.8857 C   0  0  0  0  0  0  0  0  0  0  0  0
   -2.8493    2.1449   -3.1887 C   0  0  0  0  0  0  0  0  0  0  0  0
   -0.3691   -0.6563    0.3325 N   0  0  0  0  0  0  0  0  0  0  0  0
    0.1934   -1.7246    1.0186 C   0  0  0  0  0  0  0  0  0  0  0  0
    1.3604   -1.7045    1.5786 N   0  0  0  0  0  0  0  0  0  0  0  0
    2.1337   -0.5385    1.4294 C   0  0  0  0  0  0  0  0  0  0  0  0
    2.1658    0.3808    2.4836 C   0  0  0  0  0  0  0  0  0  0  0  0
    2.9305    1.5465    2.3962 C   0  0  0  0  0  0  0  0  0  0  0  0
    3.6821    1.7985    1.2506 C   0  0  0  0  0  0  0  0  0  0  0  0
    4.4695    2.8975    1.0335 O   0  0  0  0  0  0  0  0  0  0  0  0
    4.5414    3.8534    2.0841 C   0  0  0  0  0  0  0  0  0  0  0  0
    3.6684    0.8756    0.1971 C   0  0  0  0  0  0  0  0  0  0  0  0
    2.9066   -0.2963    0.2762 C   0  0  0  0  0  0  0  0  0  0  0  0
    2.8472   -1.2578   -0.7036 O   0  0  0  0  0  0  0  0  0  0  0  0
    3.6248   -1.0481   -1.8723 C   0  0  0  0  0  0  0  0  0  0  0  0
   -0.6016   -2.9206    1.1275 C   0  0  0  0  0  0  0  0  0  0  0  0
   -0.4585   -4.1715    1.7416 C   0  0  0  0  0  0  0  0  0  0  0  0
   -1.5360   -4.9539    1.5586 N   0  0  0  0  0  0  0  0  0  0  0  0
   -2.3686   -4.1868    0.8108 N   0  0  0  0  0  0  0  0  0  0  0  0
   -3.6438   -4.7238    0.4112 C   0  0  0  0  0  0  0  0  0  0  0  0
   -1.8317   -2.9703    0.5333 C   0  0  0  0  0  0  0  0  0  0  0  0
   -3.2933   -1.8419   -0.4265 H   0  0  0  0  0  0  0  0  0  0  0  0
   -2.6401   -0.1326   -1.7416 H   0  0  0  0  0  0  0  0  0  0  0  0
   -1.0622    1.8568   -0.2166 H   0  0  0  0  0  0  0  0  0  0  0  0
   -0.6027    1.2814   -1.8249 H   0  0  0  0  0  0  0  0  0  0  0  0
   -1.7787    3.4455   -1.8868 H   0  0  0  0  0  0  0  0  0  0  0  0
   -4.1462    3.6906   -1.3011 H   0  0  0  0  0  0  0  0  0  0  0  0
   -4.2440    2.0033   -0.7794 H   0  0  0  0  0  0  0  0  0  0  0  0
   -3.2306    3.1526    0.1137 H   0  0  0  0  0  0  0  0  0  0  0  0
   -1.9990    1.8959   -3.8321 H   0  0  0  0  0  0  0  0  0  0  0  0
   -3.5281    1.2863   -3.1708 H   0  0  0  0  0  0  0  0  0  0  0  0
   -3.3855    2.9793   -3.6538 H   0  0  0  0  0  0  0  0  0  0  0  0
    1.5815    0.1820    3.3779 H   0  0  0  0  0  0  0  0  0  0  0  0
    2.9143    2.2293    3.2383 H   0  0  0  0  0  0  0  0  0  0  0  0
    4.9652    3.4117    2.9921 H   0  0  0  0  0  0  0  0  0  0  0  0
    3.5603    4.2984    2.2803 H   0  0  0  0  0  0  0  0  0  0  0  0
    5.2116    4.6556    1.7605 H   0  0  0  0  0  0  0  0  0  0  0  0
    4.2708    1.1016   -0.6760 H   0  0  0  0  0  0  0  0  0  0  0  0
    3.4671   -1.9032   -2.5367 H   0  0  0  0  0  0  0  0  0  0  0  0
    4.6930   -1.0053   -1.6351 H   0  0  0  0  0  0  0  0  0  0  0  0
    3.3005   -0.1492   -2.4068 H   0  0  0  0  0  0  0  0  0  0  0  0
    0.3782   -4.5448    2.3181 H   0  0  0  0  0  0  0  0  0  0  0  0
   -4.2416   -4.8939    1.3101 H   0  0  0  0  0  0  0  0  0  0  0  0
   -3.4730   -5.6646   -0.1183 H   0  0  0  0  0  0  0  0  0  0  0  0
   -4.1550   -4.0186   -0.2474 H   0  0  0  0  0  0  0  0  0  0  0  0
  1  2  1  0
  2  3  1  0
  3  4  1  0
  4  5  1  0
  5  6  1  0
  5  7  1  0
  2  8  2  0
  8  9  1  0
  9 10  2  3
 10 11  1  0
 11 12  2  0
 12 13  1  0
 13 14  2  0
 14 15  1  0
 15 16  1  0
 14 17  1  0
 17 18  2  0
 18 19  1  0
 19 20  1  0
  9 21  1  0
 21 22  1  0
 22 23  2  0
 23 24  1  0
 24 25  1  0
 24 26  1  0
 26  1  1  0
 18 11  1  0
 26 21  2  0
  1 27  1  0
  3 28  1  0
  4 29  1  0
  4 30  1  0
  5 31  1  0
  6 32  1  0
  6 33  1  0
  6 34  1  0
  7 35  1  0
  7 36  1  0
  7 37  1  0
 12 38  1  0
 13 39  1  0
 16 40  1  0
 16 41  1  0
 16 42  1  0
 17 43  1  0
 20 44  1  0
 20 45  1  0
 20 46  1  0
 22 47  1  0
 25 48  1  0
 25 49  1  0
 25 50  1  0
M  END
>  <ScrubInfo>  (5) 
{"isomerGroup": 0, "isomerId": 4, "confId": 0, "nr_conformers:": 1, "nr_isomers:": 9}

$$$$
_i5
     RDKit          3D

 50 52  0  0  0  0  0  0  0  0999 V2000
   -0.8924   -4.9860   -1.1822 N   0  0  0  0  0  0  0  0  0  0  0  0
    0.2612   -4.2079   -1.1666 C   0  0  0  0  0  0  0  0  0  0  0  0
    0.0083   -2.9074   -0.9720 C   0  0  0  0  0  0  0  0  0  0  0  0
    0.7675   -1.6875   -0.8278 C   0  0  0  0  0  0  0  0  0  0  0  0
    2.0585   -1.6627   -0.9444 N   0  0  0  0  0  0  0  0  0  0  0  0
    2.7175   -0.4362   -0.7374 C   0  0  0  0  0  0  0  0  0  0  0  0
    3.0826    0.3241   -1.8536 C   0  0  0  0  0  0  0  0  0  0  0  0
    3.7557    1.5392   -1.7050 C   0  0  0  0  0  0  0  0  0  0  0  0
    4.0806    2.0008   -0.4313 C   0  0  0  0  0  0  0  0  0  0  0  0
    4.7348    3.1688   -0.1441 O   0  0  0  0  0  0  0  0  0  0  0  0
    5.1127    3.9815   -1.2484 C   0  0  0  0  0  0  0  0  0  0  0  0
    3.7331    1.2379    0.6907 C   0  0  0  0  0  0  0  0  0  0  0  0
    3.0582    0.0191    0.5521 C   0  0  0  0  0  0  0  0  0  0  0  0
    2.6920   -0.7951    1.5969 O   0  0  0  0  0  0  0  0  0  0  0  0
    2.9943   -0.3475    2.9097 C   0  0  0  0  0  0  0  0  0  0  0  0
    0.0066   -0.5773   -0.5695 N   0  0  0  0  0  0  0  0  0  0  0  0
   -1.2919   -0.6243   -0.4836 C   0  0  0  0  0  0  0  0  0  0  0  0
   -1.9090    0.5623   -0.2098 N   0  0  0  0  0  0  0  0  0  0  0  0
   -3.2256    0.6379    0.3873 C   0  0  0  0  0  0  0  0  0  0  0  0
   -3.6857    2.0999    0.5166 C   0  0  0  0  0  0  0  0  0  0  0  0
   -2.9102    2.8481    1.6045 C   0  0  0  0  0  0  0  0  0  0  0  0
   -5.1833    2.1511    0.8277 C   0  0  0  0  0  0  0  0  0  0  0  0
   -2.0656   -1.7465   -0.6428 N   0  0  0  0  0  0  0  0  0  0  0  0
   -1.4559   -2.8510   -0.8995 C   0  0  0  0  0  0  0  0  0  0  0  0
   -1.9858   -4.1228   -1.1290 N   0  0  0  0  0  0  0  0  0  0  0  0
   -3.1931   -4.5582   -0.4548 C   0  0  0  0  0  0  0  0  0  0  0  0
   -0.9005   -5.6743   -1.9383 H   0  0  0  0  0  0  0  0  0  0  0  0
    1.2272   -4.6735   -1.3033 H   0  0  0  0  0  0  0  0  0  0  0  0
    2.8311   -0.0377   -2.8466 H   0  0  0  0  0  0  0  0  0  0  0  0
    4.0088    2.0931   -2.6020 H   0  0  0  0  0  0  0  0  0  0  0  0
    5.8200    3.4580   -1.9001 H   0  0  0  0  0  0  0  0  0  0  0  0
    4.2346    4.3208   -1.8077 H   0  0  0  0  0  0  0  0  0  0  0  0
    5.6181    4.8679   -0.8532 H   0  0  0  0  0  0  0  0  0  0  0  0
    4.0092    1.6247    1.6656 H   0  0  0  0  0  0  0  0  0  0  0  0
    2.4834    0.5946    3.1344 H   0  0  0  0  0  0  0  0  0  0  0  0
    2.6248   -1.1003    3.6128 H   0  0  0  0  0  0  0  0  0  0  0  0
    4.0755   -0.2582    3.0578 H   0  0  0  0  0  0  0  0  0  0  0  0
   -1.2333    1.2553    0.0877 H   0  0  0  0  0  0  0  0  0  0  0  0
   -3.2189    0.1523    1.3706 H   0  0  0  0  0  0  0  0  0  0  0  0
   -3.9363    0.0934   -0.2460 H   0  0  0  0  0  0  0  0  0  0  0  0
   -3.5201    2.6153   -0.4384 H   0  0  0  0  0  0  0  0  0  0  0  0
   -3.2722    3.8777    1.6985 H   0  0  0  0  0  0  0  0  0  0  0  0
   -1.8418    2.8982    1.3737 H   0  0  0  0  0  0  0  0  0  0  0  0
   -3.0239    2.3611    2.5790 H   0  0  0  0  0  0  0  0  0  0  0  0
   -5.4104    1.6468    1.7732 H   0  0  0  0  0  0  0  0  0  0  0  0
   -5.5302    3.1871    0.9038 H   0  0  0  0  0  0  0  0  0  0  0  0
   -5.7624    1.6644    0.0358 H   0  0  0  0  0  0  0  0  0  0  0  0
   -3.5035   -5.5403   -0.8261 H   0  0  0  0  0  0  0  0  0  0  0  0
   -3.0315   -4.6299    0.6258 H   0  0  0  0  0  0  0  0  0  0  0  0
   -4.0126   -3.8566   -0.6408 H   0  0  0  0  0  0  0  0  0  0  0  0
  1  2  1  0
  2  3  2  0
  3  4  1  0
  4  5  2  3
  5  6  1  0
  6  7  2  0
  7  8  1  0
  8  9  2  0
  9 10  1  0
 10 11  1  0
  9 12  1  0
 12 13  2  0
 13 14  1  0
 14 15  1  0
  4 16  1  0
 16 17  2  0
 17 18  1  0
 18 19  1  0
 19 20  1  0
 20 21  1  0
 20 22  1  0
 17 23  1  0
 23 24  2  0
 24 25  1  0
 25 26  1  0
 25  1  1  0
 24  3  1  0
 13  6  1  0
  1 27  1  0
  2 28  1  0
  7 29  1  0
  8 30  1  0
 11 31  1  0
 11 32  1  0
 11 33  1  0
 12 34  1  0
 15 35  1  0
 15 36  1  0
 15 37  1  0
 18 38  1  0
 19 39  1  0
 19 40  1  0
 20 41  1  0
 21 42  1  0
 21 43  1  0
 21 44  1  0
 22 45  1  0
 22 46  1  0
 22 47  1  0
 26 48  1  0
 26 49  1  0
 26 50  1  0
M  END
>  <ScrubInfo>  (6) 
{"isomerGroup": 0, "isomerId": 5, "confId": 0, "nr_conformers:": 1, "nr_isomers:": 9}

$$$$
_i6
     RDKit          3D

 50 52  0  0  0  0  0  0  0  0999 V2000
   -1.2396    3.9722    2.5481 N   0  0  0  0  0  0  0  0  0  0  0  0
   -0.1810    3.1021    2.3093 C   0  0  0  0  0  0  0  0  0  0  0  0
   -0.4689    2.1679    1.3924 C   0  0  0  0  0  0  0  0  0  0  0  0
    0.1812    1.0142    0.7639 C   0  0  0  0  0  0  0  0  0  0  0  0
    1.4822    0.7130    1.1043 N   0  0  0  0  0  0  0  0  0  0  0  0
    2.3395   -0.3223    0.6694 C   0  0  0  0  0  0  0  0  0  0  0  0
    1.9834   -1.2965   -0.2666 C   0  0  0  0  0  0  0  0  0  0  0  0
    2.8868   -2.2947   -0.6531 C   0  0  0  0  0  0  0  0  0  0  0  0
    4.1665   -2.3340   -0.1073 C   0  0  0  0  0  0  0  0  0  0  0  0
    5.1377   -3.2525   -0.4000 O   0  0  0  0  0  0  0  0  0  0  0  0
    4.8031   -4.2588   -1.3484 C   0  0  0  0  0  0  0  0  0  0  0  0
    4.5413   -1.3680    0.8297 C   0  0  0  0  0  0  0  0  0  0  0  0
    3.6433   -0.3688    1.2198 C   0  0  0  0  0  0  0  0  0  0  0  0
    3.9194    0.6260    2.1351 O   0  0  0  0  0  0  0  0  0  0  0  0
    5.2165    0.6146    2.7211 C   0  0  0  0  0  0  0  0  0  0  0  0
   -0.5290    0.3358   -0.0899 N   0  0  0  0  0  0  0  0  0  0  0  0
   -1.8265    0.7017   -0.3623 C   0  0  0  0  0  0  0  0  0  0  0  0
   -2.4280   -0.0978   -1.1711 N   0  0  0  0  0  0  0  0  0  0  0  0
   -3.8117    0.2075   -1.5273 C   0  0  0  0  0  0  0  0  0  0  0  0
   -4.3543   -0.8579   -2.4956 C   0  0  0  0  0  0  0  0  0  0  0  0
   -4.3783   -2.2478   -1.8578 C   0  0  0  0  0  0  0  0  0  0  0  0
   -3.5740   -0.8826   -3.8108 C   0  0  0  0  0  0  0  0  0  0  0  0
   -2.4952    1.7990    0.1319 N   0  0  0  0  0  0  0  0  0  0  0  0
   -1.8411    2.5217    0.9720 C   0  0  0  0  0  0  0  0  0  0  0  0
   -2.2424    3.6867    1.6271 N   0  0  0  0  0  0  0  0  0  0  0  0
   -3.6284    3.8897    2.0039 C   0  0  0  0  0  0  0  0  0  0  0  0
   -0.9573    4.9533    2.6120 H   0  0  0  0  0  0  0  0  0  0  0  0
    0.7412    3.2428    2.8537 H   0  0  0  0  0  0  0  0  0  0  0  0
    1.9522    1.2967    1.7892 H   0  0  0  0  0  0  0  0  0  0  0  0
    0.9969   -1.3085   -0.7210 H   0  0  0  0  0  0  0  0  0  0  0  0
    2.5486   -3.0221   -1.3840 H   0  0  0  0  0  0  0  0  0  0  0  0
    3.9751   -4.8794   -0.9901 H   0  0  0  0  0  0  0  0  0  0  0  0
    4.5762   -3.8203   -2.3258 H   0  0  0  0  0  0  0  0  0  0  0  0
    5.6764   -4.9070   -1.4694 H   0  0  0  0  0  0  0  0  0  0  0  0
    5.5452   -1.4255    1.2361 H   0  0  0  0  0  0  0  0  0  0  0  0
    5.3833   -0.3036    3.2938 H   0  0  0  0  0  0  0  0  0  0  0  0
    5.9934    0.7592    1.9633 H   0  0  0  0  0  0  0  0  0  0  0  0
    5.2734    1.4556    3.4190 H   0  0  0  0  0  0  0  0  0  0  0  0
   -3.8762    1.1897   -2.0126 H   0  0  0  0  0  0  0  0  0  0  0  0
   -4.4451    0.2240   -0.6313 H   0  0  0  0  0  0  0  0  0  0  0  0
   -5.3911   -0.5844   -2.7314 H   0  0  0  0  0  0  0  0  0  0  0  0
   -4.9485   -2.2365   -0.9231 H   0  0  0  0  0  0  0  0  0  0  0  0
   -4.8529   -2.9713   -2.5293 H   0  0  0  0  0  0  0  0  0  0  0  0
   -3.3689   -2.6102   -1.6367 H   0  0  0  0  0  0  0  0  0  0  0  0
   -2.5354   -1.1955   -3.6606 H   0  0  0  0  0  0  0  0  0  0  0  0
   -4.0339   -1.5810   -4.5182 H   0  0  0  0  0  0  0  0  0  0  0  0
   -3.5671    0.1081   -4.2772 H   0  0  0  0  0  0  0  0  0  0  0  0
   -3.7666    4.8929    2.4201 H   0  0  0  0  0  0  0  0  0  0  0  0
   -3.9390    3.1556    2.7546 H   0  0  0  0  0  0  0  0  0  0  0  0
   -4.2826    3.7972    1.1311 H   0  0  0  0  0  0  0  0  0  0  0  0
  1  2  1  0
  2  3  2  0
  3  4  1  0
  4  5  1  0
  5  6  1  0
  6  7  2  0
  7  8  1  0
  8  9  2  0
  9 10  1  0
 10 11  1  0
  9 12  1  0
 12 13  2  0
 13 14  1  0
 14 15  1  0
  4 16  2  0
 16 17  1  0
 17 18  2  3
 18 19  1  0
 19 20  1  0
 20 21  1  0
 20 22  1  0
 17 23  1  0
 23 24  2  0
 24 25  1  0
 25 26  1  0
 25  1  1  0
 24  3  1  0
 13  6  1  0
  1 27  1  0
  2 28  1  0
  5 29  1  0
  7 30  1  0
  8 31  1  0
 11 32  1  0
 11 33  1  0
 11 34  1  0
 12 35  1  0
 15 36  1  0
 15 37  1  0
 15 38  1  0
 19 39  1  0
 19 40  1  0
 20 41  1  0
 21 42  1  0
 21 43  1  0
 21 44  1  0
 22 45  1  0
 22 46  1  0
 22 47  1  0
 26 48  1  0
 26 49  1  0
 26 50  1  0
M  END
>  <ScrubInfo>  (7) 
{"isomerGroup": 0, "isomerId": 6, "confId": 0, "nr_conformers:": 1, "nr_isomers:": 9}

$$$$
_i7
     RDKit          3D

 50 52  0  0  0  0  0  0  0  0999 V2000
   -1.9962   -1.7136   -0.0646 N   0  0  0  0  0  0  0  0  0  0  0  0
   -1.3810   -0.4803    0.0976 C   0  0  0  0  0  0  0  0  0  0  0  0
   -1.8896    0.5981    0.5914 N   0  0  0  0  0  0  0  0  0  0  0  0
   -3.2770    0.5712    1.0469 C   0  0  0  0  0  0  0  0  0  0  0  0
   -3.6605    1.9648    1.5697 C   0  0  0  0  0  0  0  0  0  0  0  0
   -5.0287    1.9142    2.2508 C   0  0  0  0  0  0  0  0  0  0  0  0
   -3.6756    3.0022    0.4445 C   0  0  0  0  0  0  0  0  0  0  0  0
   -0.0695   -0.4516   -0.3346 N   0  0  0  0  0  0  0  0  0  0  0  0
    0.7261   -1.4354   -0.8871 C   0  0  0  0  0  0  0  0  0  0  0  0
    1.9532   -1.4229   -1.2926 N   0  0  0  0  0  0  0  0  0  0  0  0
    2.6690   -0.2192   -1.1854 C   0  0  0  0  0  0  0  0  0  0  0  0
    2.8774    0.5305   -2.3453 C   0  0  0  0  0  0  0  0  0  0  0  0
    3.5400    1.7592   -2.2892 C   0  0  0  0  0  0  0  0  0  0  0  0
    4.0062    2.2614   -1.0727 C   0  0  0  0  0  0  0  0  0  0  0  0
    4.6205    3.4802   -1.1558 O   0  0  0  0  0  0  0  0  0  0  0  0
    5.1099    4.0374    0.0580 C   0  0  0  0  0  0  0  0  0  0  0  0
    3.8194    1.5136    0.0890 C   0  0  0  0  0  0  0  0  0  0  0  0
    3.1815    0.2682    0.0300 C   0  0  0  0  0  0  0  0  0  0  0  0
    3.0341   -0.3755    1.2344 O   0  0  0  0  0  0  0  0  0  0  0  0
    3.5537   -1.7059    1.2152 C   0  0  0  0  0  0  0  0  0  0  0  0
   -0.0050   -2.6751   -1.0066 C   0  0  0  0  0  0  0  0  0  0  0  0
    0.2939   -3.9618   -1.4774 C   0  0  0  0  0  0  0  0  0  0  0  0
   -0.7500   -4.7981   -1.3702 N   0  0  0  0  0  0  0  0  0  0  0  0
   -1.7279   -4.0294   -0.8313 N   0  0  0  0  0  0  0  0  0  0  0  0
   -3.0162   -4.6217   -0.5748 C   0  0  0  0  0  0  0  0  0  0  0  0
   -1.3134   -2.7534   -0.5964 C   0  0  0  0  0  0  0  0  0  0  0  0
   -2.9559   -1.7922    0.2415 H   0  0  0  0  0  0  0  0  0  0  0  0
   -3.9493    0.2841    0.2288 H   0  0  0  0  0  0  0  0  0  0  0  0
   -3.3844   -0.1598    1.8578 H   0  0  0  0  0  0  0  0  0  0  0  0
   -2.9193    2.2816    2.3148 H   0  0  0  0  0  0  0  0  0  0  0  0
   -5.3020    2.8972    2.6487 H   0  0  0  0  0  0  0  0  0  0  0  0
   -5.0211    1.2069    3.0868 H   0  0  0  0  0  0  0  0  0  0  0  0
   -5.8107    1.6026    1.5499 H   0  0  0  0  0  0  0  0  0  0  0  0
   -3.9576    3.9878    0.8303 H   0  0  0  0  0  0  0  0  0  0  0  0
   -2.6882    3.0999   -0.0182 H   0  0  0  0  0  0  0  0  0  0  0  0
   -4.3914    2.7287   -0.3383 H   0  0  0  0  0  0  0  0  0  0  0  0
    0.3715    0.4446   -0.1861 H   0  0  0  0  0  0  0  0  0  0  0  0
    2.5109    0.1594   -3.2990 H   0  0  0  0  0  0  0  0  0  0  0  0
    3.6873    2.3324   -3.2016 H   0  0  0  0  0  0  0  0  0  0  0  0
    5.8851    3.4024    0.4994 H   0  0  0  0  0  0  0  0  0  0  0  0
    5.5659    5.0038   -0.1780 H   0  0  0  0  0  0  0  0  0  0  0  0
    4.2947    4.2180    0.7664 H   0  0  0  0  0  0  0  0  0  0  0  0
    4.1660    1.8619    1.0559 H   0  0  0  0  0  0  0  0  0  0  0  0
    4.3783   -1.8326    0.5040 H   0  0  0  0  0  0  0  0  0  0  0  0
    2.7535   -2.4224    1.0114 H   0  0  0  0  0  0  0  0  0  0  0  0
    3.9420   -1.9225    2.2154 H   0  0  0  0  0  0  0  0  0  0  0  0
    1.2254   -4.3263   -1.8912 H   0  0  0  0  0  0  0  0  0  0  0  0
   -2.9159   -5.3023    0.2742 H   0  0  0  0  0  0  0  0  0  0  0  0
   -3.3332   -5.1678   -1.4672 H   0  0  0  0  0  0  0  0  0  0  0  0
   -3.7460   -3.8422   -0.3469 H   0  0  0  0  0  0  0  0  0  0  0  0
  1  2  1  0
  2  3  2  3
  3  4  1  0
  4  5  1  0
  5  6  1  0
  5  7  1  0
  2  8  1  0
  8  9  1  0
  9 10  2  3
 10 11  1  0
 11 12  2  0
 12 13  1  0
 13 14  2  0
 14 15  1  0
 15 16  1  0
 14 17  1  0
 17 18  2  0
 18 19  1  0
 19 20  1  0
  9 21  1  0
 21 22  1  0
 22 23  2  0
 23 24  1  0
 24 25  1  0
 24 26  1  0
 26  1  1  0
 18 11  1  0
 26 21  2  0
  1 27  1  0
  4 28  1  0
  4 29  1  0
  5 30  1  0
  6 31  1  0
  6 32  1  0
  6 33  1  0
  7 34  1  0
  7 35  1  0
  7 36  1  0
  8 37  1  0
 12 38  1  0
 13 39  1  0
 16 40  1  0
 16 41  1  0
 16 42  1  0
 17 43  1  0
 20 44  1  0
 20 45  1  0
 20 46  1  0
 22 47  1  0
 25 48  1  0
 25 49  1  0
 25 50  1  0
M  END
>  <ScrubInfo>  (8) 
{"isomerGroup": 0, "isomerId": 7, "confId": 0, "nr_conformers:": 1, "nr_isomers:": 9}

$$$$
_i8
     RDKit          3D

 50 52  0  0  0  0  0  0  0  0999 V2000
    0.3550   -2.6698    1.6276 N   0  0  0  0  0  0  0  0  0  0  0  0
    1.0937   -1.6307    1.0721 C   0  0  0  0  0  0  0  0  0  0  0  0
    0.3390   -0.6597    0.5387 C   0  0  0  0  0  0  0  0  0  0  0  0
    0.4778    0.6509   -0.1273 C   0  0  0  0  0  0  0  0  0  0  0  0
    1.5544    1.2926   -0.4765 N   0  0  0  0  0  0  0  0  0  0  0  0
    2.8215    0.7372   -0.2498 C   0  0  0  0  0  0  0  0  0  0  0  0
    3.5208    1.1251    0.8967 C   0  0  0  0  0  0  0  0  0  0  0  0
    4.7743    0.5799    1.1848 C   0  0  0  0  0  0  0  0  0  0  0  0
    5.3554   -0.3574    0.3290 C   0  0  0  0  0  0  0  0  0  0  0  0
    6.5746   -0.8238    0.7358 O   0  0  0  0  0  0  0  0  0  0  0  0
    7.2327   -1.7422   -0.1284 C   0  0  0  0  0  0  0  0  0  0  0  0
    4.6768   -0.7348   -0.8292 C   0  0  0  0  0  0  0  0  0  0  0  0
    3.4309   -0.1706   -1.1346 C   0  0  0  0  0  0  0  0  0  0  0  0
    2.8529   -0.6326   -2.2919 O   0  0  0  0  0  0  0  0  0  0  0  0
    2.4005    0.4124   -3.1525 C   0  0  0  0  0  0  0  0  0  0  0  0
   -0.7359    1.2281   -0.3852 N   0  0  0  0  0  0  0  0  0  0  0  0
   -1.9738    0.7181   -0.1169 C   0  0  0  0  0  0  0  0  0  0  0  0
   -3.0094    1.4303   -0.4215 N   0  0  0  0  0  0  0  0  0  0  0  0
   -4.3249    0.8577   -0.1242 C   0  0  0  0  0  0  0  0  0  0  0  0
   -5.4112    1.8670   -0.5318 C   0  0  0  0  0  0  0  0  0  0  0  0
   -5.3656    3.1239    0.3404 C   0  0  0  0  0  0  0  0  0  0  0  0
   -6.7934    1.2192   -0.4410 C   0  0  0  0  0  0  0  0  0  0  0  0
   -2.1328   -0.5244    0.4584 N   0  0  0  0  0  0  0  0  0  0  0  0
   -1.0567   -1.1846    0.7558 C   0  0  0  0  0  0  0  0  0  0  0  0
   -0.9825   -2.4572    1.3274 N   0  0  0  0  0  0  0  0  0  0  0  0
   -1.9966   -2.9209    2.2547 C   0  0  0  0  0  0  0  0  0  0  0  0
    0.7265   -3.5943    1.3967 H   0  0  0  0  0  0  0  0  0  0  0  0
    2.1707   -1.6935    1.1178 H   0  0  0  0  0  0  0  0  0  0  0  0
    3.0805    1.8506    1.5759 H   0  0  0  0  0  0  0  0  0  0  0  0
    5.3000    0.8874    2.0858 H   0  0  0  0  0  0  0  0  0  0  0  0
    6.6568   -2.6679   -0.2313 H   0  0  0  0  0  0  0  0  0  0  0  0
    8.1949   -1.9977    0.3258 H   0  0  0  0  0  0  0  0  0  0  0  0
    7.4349   -1.2907   -1.1054 H   0  0  0  0  0  0  0  0  0  0  0  0
    5.0905   -1.4572   -1.5245 H   0  0  0  0  0  0  0  0  0  0  0  0
    1.3377    0.6073   -2.9850 H   0  0  0  0  0  0  0  0  0  0  0  0
    2.5107    0.0610   -4.1832 H   0  0  0  0  0  0  0  0  0  0  0  0
    2.9873    1.3328   -3.0522 H   0  0  0  0  0  0  0  0  0  0  0  0
   -0.7292    2.1382   -0.8196 H   0  0  0  0  0  0  0  0  0  0  0  0
   -4.4200    0.6267    0.9444 H   0  0  0  0  0  0  0  0  0  0  0  0
   -4.4642   -0.0679   -0.6970 H   0  0  0  0  0  0  0  0  0  0  0  0
   -5.2431    2.1692   -1.5736 H   0  0  0  0  0  0  0  0  0  0  0  0
   -6.1488    3.8297    0.0436 H   0  0  0  0  0  0  0  0  0  0  0  0
   -4.4044    3.6390    0.2440 H   0  0  0  0  0  0  0  0  0  0  0  0
   -5.5147    2.8793    1.3977 H   0  0  0  0  0  0  0  0  0  0  0  0
   -7.0153    0.8969    0.5821 H   0  0  0  0  0  0  0  0  0  0  0  0
   -7.5737    1.9219   -0.7520 H   0  0  0  0  0  0  0  0  0  0  0  0
   -6.8557    0.3422   -1.0939 H   0  0  0  0  0  0  0  0  0  0  0  0
   -1.9897   -2.3208    3.1706 H   0  0  0  0  0  0  0  0  0  0  0  0
   -1.8175   -3.9672    2.5231 H   0  0  0  0  0  0  0  0  0  0  0  0
   -2.9914   -2.8586    1.8019 H   0  0  0  0  0  0  0  0  0  0  0  0
  1  2  1  0
  2  3  2  0
  3  4  1  0
  4  5  2  3
  5  6  1  0
  6  7  2  0
  7  8  1  0
  8  9  2  0
  9 10  1  0
 10 11  1  0
  9 12  1  0
 12 13  2  0
 13 14  1  0
 14 15  1  0
  4 16  1  0
 16 17  1  0
 17 18  2  3
 18 19  1  0
 19 20  1  0
 20 21  1  0
 20 22  1  0
 17 23  1  0
 23 24  2  0
 24 25  1  0
 25 26  1  0
 25  1  1  0
 24  3  1  0
 13  6  1  0
  1 27  1  0
  2 28  1  0
  7 29  1  0
  8 30  1  0
 11 31  1  0
 11 32  1  0
 11 33  1  0
 12 34  1  0
 15 35  1  0
 15 36  1  0
 15 37  1  0
 16 38  1  0
 19 39  1  0
 19 40  1  0
 20 41  1  0
 21 42  1  0
 21 43  1  0
 21 44  1  0
 22 45  1  0
 22 46  1  0
 22 47  1  0
 26 48  1  0
 26 49  1  0
 26 50  1  0
M  END
>  <ScrubInfo>  (9) 
{"isomerGroup": 0, "isomerId": 8, "confId": 0, "nr_conformers:": 1, "nr_isomers:": 9}

$$$$
