REMARK SMILES c1ccc(Nc2nc(NCc3ccco3)nc(N3CCCCC3)n2)cc1
REMARK SMILES IDX 6 1 7 2 8 3 16 4 17 5 24 6 5 7 4 9 1 10 2 11 26 12 3 13
REMARK SMILES IDX 25 14 9 15 10 17 11 18 12 19 15 20 13 21 14 22 18 23 19 24
REMARK SMILES IDX 23 25 20 26 22 27 21 28
REMARK H PARENT 5 8 9 16
ROOT
ATOM      1  C   UNL     1       1.433  -1.556  -1.394  1.00  0.00     0.233 A 
ATOM      2  N   UNL     1       0.688  -1.001  -2.341  1.00  0.00    -0.177 NA
ATOM      3  C   UNL     1       1.112   0.168  -2.792  1.00  0.00     0.229 A 
ATOM      4  N   UNL     1       2.214   0.772  -2.379  1.00  0.00    -0.177 NA
ATOM      5  C   UNL     1       2.925   0.149  -1.446  1.00  0.00     0.231 A 
ATOM      6  N   UNL     1       2.554  -1.018  -0.932  1.00  0.00    -0.176 NA
ENDROOT
BRANCH   1   7
ATOM      7  N   UNL     1       0.967  -2.788  -0.936  1.00  0.00    -0.324 N 
ATOM      8  H   UNL     1       0.106  -3.013  -1.414  1.00  0.00     0.170 HD
BRANCH   7   9
ATOM      9  C   UNL     1       1.330  -3.633   0.119  1.00  0.00     0.041 A 
ATOM     10  C   UNL     1       2.033  -5.470   2.147  1.00  0.00     0.000 A 
ATOM     11  C   UNL     1       2.659  -4.230   2.074  1.00  0.00     0.002 A 
ATOM     12  C   UNL     1       1.062  -5.805   1.210  1.00  0.00     0.002 A 
ATOM     13  C   UNL     1       2.313  -3.325   1.064  1.00  0.00     0.026 A 
ATOM     14  C   UNL     1       0.720  -4.896   0.204  1.00  0.00     0.026 A 
ENDBRANCH   7   9
ENDBRANCH   1   7
BRANCH   3  15
ATOM     15  N   UNL     1       0.387   0.846  -3.764  1.00  0.00    -0.347 N 
ATOM     16  H   UNL     1       1.010   1.549  -4.147  1.00  0.00     0.164 HD
BRANCH  15  17
ATOM     17  C   UNL     1      -0.198  -0.020  -4.772  1.00  0.00     0.191 C 
BRANCH  17  18
ATOM     18  C   UNL     1      -0.797   0.741  -5.907  1.00  0.00     0.122 A 
ATOM     19  C   UNL     1      -1.990   1.414  -6.069  1.00  0.00     0.047 A 
ATOM     20  O   UNL     1      -0.047   0.841  -7.044  1.00  0.00    -0.467 OA
ATOM     21  C   UNL     1      -1.972   1.948  -7.380  1.00  0.00     0.042 A 
ATOM     22  C   UNL     1      -0.770   1.572  -7.931  1.00  0.00     0.195 A 
ENDBRANCH  17  18
ENDBRANCH  15  17
ENDBRANCH   3  15
BRANCH   5  23
ATOM     23  N   UNL     1       4.094   0.750  -0.979  1.00  0.00    -0.341 N 
ATOM     24  C   UNL     1       5.075  -0.130  -0.343  1.00  0.00     0.119 C 
ATOM     25  C   UNL     1       4.677   1.797  -1.821  1.00  0.00     0.119 C 
ATOM     26  C   UNL     1       5.941  -0.812  -1.406  1.00  0.00     0.022 C 
ATOM     27  C   UNL     1       5.534   1.172  -2.925  1.00  0.00     0.022 C 
ATOM     28  C   UNL     1       6.579   0.218  -2.341  1.00  0.00     0.004 C 
ENDBRANCH   5  23
TORSDOF 6
