_i0
     RDKit          3D

 48 51  0  0  0  0  0  0  0  0999 V2000
    2.0325   -5.4700    2.1475 C   0  0  0  0  0  0  0  0  0  0  0  0
    2.6588   -4.2298    2.0737 C   0  0  0  0  0  0  0  0  0  0  0  0
    2.3126   -3.3247    1.0637 C   0  0  0  0  0  0  0  0  0  0  0  0
    1.3297   -3.6332    0.1186 C   0  0  0  0  0  0  0  0  0  0  0  0
    0.9666   -2.7882   -0.9361 N   0  0  0  0  0  0  0  0  0  0  0  0
    1.4332   -1.5560   -1.3937 C   0  0  0  0  0  0  0  0  0  0  0  0
    0.6883   -1.0008   -2.3406 N   0  0  0  0  0  0  0  0  0  0  0  0
    1.1121    0.1684   -2.7915 C   0  0  0  0  0  0  0  0  0  0  0  0
    0.3869    0.8457   -3.7640 N   0  0  0  0  0  0  0  0  0  0  0  0
   -0.1983   -0.0204   -4.7723 C   0  0  0  0  0  0  0  0  0  0  0  0
   -0.7967    0.7405   -5.9074 C   0  0  0  0  0  0  0  0  0  0  0  0
   -1.9902    1.4138   -6.0693 C   0  0  0  0  0  0  0  0  0  0  0  0
   -1.9723    1.9482   -7.3799 C   0  0  0  0  0  0  0  0  0  0  0  0
   -0.7699    1.5723   -7.9309 C   0  0  0  0  0  0  0  0  0  0  0  0
   -0.0471    0.8412   -7.0438 O   0  0  0  0  0  0  0  0  0  0  0  0
    2.2138    0.7716   -2.3794 N   0  0  0  0  0  0  0  0  0  0  0  0
    2.9252    0.1491   -1.4461 C   0  0  0  0  0  0  0  0  0  0  0  0
    4.0944    0.7505   -0.9791 N   0  0  0  0  0  0  0  0  0  0  0  0
    5.0755   -0.1301   -0.3430 C   0  0  0  0  0  0  0  0  0  0  0  0
    5.9410   -0.8117   -1.4060 C   0  0  0  0  0  0  0  0  0  0  0  0
    6.5790    0.2183   -2.3415 C   0  0  0  0  0  0  0  0  0  0  0  0
    5.5340    1.1724   -2.9250 C   0  0  0  0  0  0  0  0  0  0  0  0
    4.6769    1.7973   -1.8206 C   0  0  0  0  0  0  0  0  0  0  0  0
    2.5536   -1.0175   -0.9323 N   0  0  0  0  0  0  0  0  0  0  0  0
    0.7196   -4.8961    0.2044 C   0  0  0  0  0  0  0  0  0  0  0  0
    1.0618   -5.8054    1.2100 C   0  0  0  0  0  0  0  0  0  0  0  0
    2.3025   -6.1723    2.9313 H   0  0  0  0  0  0  0  0  0  0  0  0
    3.4194   -3.9592    2.8013 H   0  0  0  0  0  0  0  0  0  0  0  0
    2.8188   -2.3651    1.0468 H   0  0  0  0  0  0  0  0  0  0  0  0
    0.1065   -3.0128   -1.4144 H   0  0  0  0  0  0  0  0  0  0  0  0
    1.0105    1.5488   -4.1466 H   0  0  0  0  0  0  0  0  0  0  0  0
    0.5601   -0.7055   -5.1750 H   0  0  0  0  0  0  0  0  0  0  0  0
   -0.9897   -0.6367   -4.3262 H   0  0  0  0  0  0  0  0  0  0  0  0
   -2.7697    1.5096   -5.3259 H   0  0  0  0  0  0  0  0  0  0  0  0
   -2.7380    2.5391   -7.8623 H   0  0  0  0  0  0  0  0  0  0  0  0
   -0.3015    1.7380   -8.8911 H   0  0  0  0  0  0  0  0  0  0  0  0
    5.7198    0.4802    0.3034 H   0  0  0  0  0  0  0  0  0  0  0  0
    4.6186   -0.8714    0.3215 H   0  0  0  0  0  0  0  0  0  0  0  0
    6.7245   -1.4045   -0.9210 H   0  0  0  0  0  0  0  0  0  0  0  0
    5.3312   -1.5066   -1.9962 H   0  0  0  0  0  0  0  0  0  0  0  0
    7.1092   -0.2936   -3.1522 H   0  0  0  0  0  0  0  0  0  0  0  0
    7.3264    0.7975   -1.7853 H   0  0  0  0  0  0  0  0  0  0  0  0
    6.0341    1.9621   -3.4967 H   0  0  0  0  0  0  0  0  0  0  0  0
    4.8965    0.6221   -3.6277 H   0  0  0  0  0  0  0  0  0  0  0  0
    5.3143    2.4319   -1.1911 H   0  0  0  0  0  0  0  0  0  0  0  0
    3.9243    2.4723   -2.2448 H   0  0  0  0  0  0  0  0  0  0  0  0
   -0.0343   -5.1885   -0.5226 H   0  0  0  0  0  0  0  0  0  0  0  0
    0.5719   -6.7742    1.2557 H   0  0  0  0  0  0  0  0  0  0  0  0
  1  2  2  0
  2  3  1  0
  3  4  2  0
  4  5  1  0
  5  6  1  0
  6  7  2  0
  7  8  1  0
  8  9  1  0
  9 10  1  0
 10 11  1  0
 11 12  2  0
 12 13  1  0
 13 14  2  0
 14 15  1  0
  8 16  2  0
 16 17  1  0
 17 18  1  0
 18 19  1  0
 19 20  1  0
 20 21  1  0
 21 22  1  0
 22 23  1  0
 17 24  2  0
  4 25  1  0
 25 26  2  0
 26  1  1  0
 24  6  1  0
 15 11  1  0
 23 18  1  0
  1 27  1  0
  2 28  1  0
  3 29  1  0
  5 30  1  0
  9 31  1  0
 10 32  1  0
 10 33  1  0
 12 34  1  0
 13 35  1  0
 14 36  1  0
 19 37  1  0
 19 38  1  0
 20 39  1  0
 20 40  1  0
 21 41  1  0
 21 42  1  0
 22 43  1  0
 22 44  1  0
 23 45  1  0
 23 46  1  0
 25 47  1  0
 26 48  1  0
M  END
>  <ScrubInfo>  (1) 
{"isomerGroup": 0, "isomerId": 0, "confId": 0, "nr_conformers:": 1, "nr_isomers:": 9}

$$$$
_i1
     RDKit          3D

 48 51  0  0  0  0  0  0  0  0999 V2000
    2.1044    0.3114    3.5996 N   0  0  0  0  0  0  0  0  0  0  0  0
    1.7815   -0.9730    3.3668 C   0  0  0  0  0  0  0  0  0  0  0  0
    1.2868   -1.6305    4.4539 N   0  0  0  0  0  0  0  0  0  0  0  0
    1.0500   -3.0654    4.4009 C   0  0  0  0  0  0  0  0  0  0  0  0
    0.5357   -3.6178    5.6855 C   0  0  0  0  0  0  0  0  0  0  0  0
   -0.6062   -4.3079    6.0359 C   0  0  0  0  0  0  0  0  0  0  0  0
   -0.5149   -4.5499    7.4279 C   0  0  0  0  0  0  0  0  0  0  0  0
    0.6725   -3.9910    7.8382 C   0  0  0  0  0  0  0  0  0  0  0  0
    1.3175   -3.4195    6.7888 O   0  0  0  0  0  0  0  0  0  0  0  0
    1.9266   -1.4988    2.1953 N   0  0  0  0  0  0  0  0  0  0  0  0
    2.4406   -0.6975    1.1935 C   0  0  0  0  0  0  0  0  0  0  0  0
    2.6260   -1.2751   -0.0562 N   0  0  0  0  0  0  0  0  0  0  0  0
    3.4106   -0.5809   -1.0808 C   0  0  0  0  0  0  0  0  0  0  0  0
    4.8701   -1.0280   -0.9840 C   0  0  0  0  0  0  0  0  0  0  0  0
    4.9870   -2.5515   -1.0827 C   0  0  0  0  0  0  0  0  0  0  0  0
    4.0514   -3.2529   -0.0942 C   0  0  0  0  0  0  0  0  0  0  0  0
    2.6210   -2.7276   -0.2244 C   0  0  0  0  0  0  0  0  0  0  0  0
    2.7512    0.5559    1.3756 N   0  0  0  0  0  0  0  0  0  0  0  0
    2.5565    1.1146    2.6036 C   0  0  0  0  0  0  0  0  0  0  0  0
    2.8277    2.3809    2.6791 N   0  0  0  0  0  0  0  0  0  0  0  0
    2.6567    3.0389    3.9017 C   0  0  0  0  0  0  0  0  0  0  0  0
    3.7025    3.0954    4.8266 C   0  0  0  0  0  0  0  0  0  0  0  0
    3.5274    3.7399    6.0524 C   0  0  0  0  0  0  0  0  0  0  0  0
    2.3057    4.3412    6.3540 C   0  0  0  0  0  0  0  0  0  0  0  0
    1.2636    4.3056    5.4279 C   0  0  0  0  0  0  0  0  0  0  0  0
    1.4422    3.6605    4.2029 C   0  0  0  0  0  0  0  0  0  0  0  0
    1.8250    0.7483    4.4598 H   0  0  0  0  0  0  0  0  0  0  0  0
    1.6850   -1.3600    5.3464 H   0  0  0  0  0  0  0  0  0  0  0  0
    1.9855   -3.5825    4.1545 H   0  0  0  0  0  0  0  0  0  0  0  0
    0.3318   -3.2881    3.6026 H   0  0  0  0  0  0  0  0  0  0  0  0
   -1.4062   -4.5972    5.3682 H   0  0  0  0  0  0  0  0  0  0  0  0
   -1.2270   -5.0662    8.0563 H   0  0  0  0  0  0  0  0  0  0  0  0
    1.1753   -3.9177    8.7926 H   0  0  0  0  0  0  0  0  0  0  0  0
    3.3376    0.5088   -0.9965 H   0  0  0  0  0  0  0  0  0  0  0  0
    3.0115   -0.8334   -2.0713 H   0  0  0  0  0  0  0  0  0  0  0  0
    5.2958   -0.6954   -0.0291 H   0  0  0  0  0  0  0  0  0  0  0  0
    5.4574   -0.5592   -1.7812 H   0  0  0  0  0  0  0  0  0  0  0  0
    4.7356   -2.8670   -2.1030 H   0  0  0  0  0  0  0  0  0  0  0  0
    6.0224   -2.8587   -0.8983 H   0  0  0  0  0  0  0  0  0  0  0  0
    4.0692   -4.3339   -0.2712 H   0  0  0  0  0  0  0  0  0  0  0  0
    4.4150   -3.0852    0.9273 H   0  0  0  0  0  0  0  0  0  0  0  0
    1.9632   -3.2307    0.4923 H   0  0  0  0  0  0  0  0  0  0  0  0
    2.2260   -2.9739   -1.2182 H   0  0  0  0  0  0  0  0  0  0  0  0
    4.6585    2.6392    4.5828 H   0  0  0  0  0  0  0  0  0  0  0  0
    4.3469    3.7820    6.7650 H   0  0  0  0  0  0  0  0  0  0  0  0
    2.1706    4.8509    7.3048 H   0  0  0  0  0  0  0  0  0  0  0  0
    0.3165    4.7889    5.6531 H   0  0  0  0  0  0  0  0  0  0  0  0
    0.6368    3.6446    3.4731 H   0  0  0  0  0  0  0  0  0  0  0  0
  1  2  1  0
  2  3  1  0
  3  4  1  0
  4  5  1  0
  5  6  2  0
  6  7  1  0
  7  8  2  0
  8  9  1  0
  2 10  2  0
 10 11  1  0
 11 12  1  0
 12 13  1  0
 13 14  1  0
 14 15  1  0
 15 16  1  0
 16 17  1  0
 11 18  2  0
 18 19  1  0
 19 20  2  3
 20 21  1  0
 21 22  2  0
 22 23  1  0
 23 24  2  0
 24 25  1  0
 25 26  2  0
 19  1  1  0
 26 21  1  0
  9  5  1  0
 17 12  1  0
  1 27  1  0
  3 28  1  0
  4 29  1  0
  4 30  1  0
  6 31  1  0
  7 32  1  0
  8 33  1  0
 13 34  1  0
 13 35  1  0
 14 36  1  0
 14 37  1  0
 15 38  1  0
 15 39  1  0
 16 40  1  0
 16 41  1  0
 17 42  1  0
 17 43  1  0
 22 44  1  0
 23 45  1  0
 24 46  1  0
 25 47  1  0
 26 48  1  0
M  END
>  <ScrubInfo>  (2) 
{"isomerGroup": 0, "isomerId": 1, "confId": 0, "nr_conformers:": 1, "nr_isomers:": 9}

$$$$
_i2
     RDKit          3D

 48 51  0  0  0  0  0  0  0  0999 V2000
    0.7008   -0.0192    3.0911 N   0  0  0  0  0  0  0  0  0  0  0  0
    1.2642   -1.1611    2.6474 C   0  0  0  0  0  0  0  0  0  0  0  0
    0.8275   -2.3320    3.1987 N   0  0  0  0  0  0  0  0  0  0  0  0
    0.6080   -2.5967    4.5683 C   0  0  0  0  0  0  0  0  0  0  0  0
   -0.1457   -3.7280    4.9131 C   0  0  0  0  0  0  0  0  0  0  0  0
   -0.4153   -4.0322    6.2496 C   0  0  0  0  0  0  0  0  0  0  0  0
    0.0698   -3.2090    7.2618 C   0  0  0  0  0  0  0  0  0  0  0  0
    0.8267   -2.0861    6.9374 C   0  0  0  0  0  0  0  0  0  0  0  0
    1.0943   -1.7825    5.5994 C   0  0  0  0  0  0  0  0  0  0  0  0
    2.1347   -1.1500    1.6884 N   0  0  0  0  0  0  0  0  0  0  0  0
    2.4948    0.0791    1.1707 C   0  0  0  0  0  0  0  0  0  0  0  0
    3.4541    0.0949    0.1670 N   0  0  0  0  0  0  0  0  0  0  0  0
    4.0710    1.3590   -0.2451 C   0  0  0  0  0  0  0  0  0  0  0  0
    5.3458    1.5848    0.5692 C   0  0  0  0  0  0  0  0  0  0  0  0
    6.2997    0.3941    0.4399 C   0  0  0  0  0  0  0  0  0  0  0  0
    5.5913   -0.9295    0.7415 C   0  0  0  0  0  0  0  0  0  0  0  0
    4.3087   -1.0660   -0.0804 C   0  0  0  0  0  0  0  0  0  0  0  0
    1.9740    1.2014    1.5820 N   0  0  0  0  0  0  0  0  0  0  0  0
    1.0278    1.1823    2.5618 C   0  0  0  0  0  0  0  0  0  0  0  0
    0.5575    2.3388    2.8646 N   0  0  0  0  0  0  0  0  0  0  0  0
   -0.4542    2.4184    3.9115 C   0  0  0  0  0  0  0  0  0  0  0  0
   -0.8303    3.8333    4.1696 C   0  0  0  0  0  0  0  0  0  0  0  0
   -0.4782    5.0409    3.6015 C   0  0  0  0  0  0  0  0  0  0  0  0
   -1.1916    6.0401    4.3041 C   0  0  0  0  0  0  0  0  0  0  0  0
   -1.9340    5.3815    5.2554 C   0  0  0  0  0  0  0  0  0  0  0  0
   -1.7227    4.0420    5.1829 O   0  0  0  0  0  0  0  0  0  0  0  0
   -0.0649   -0.0919    3.7371 H   0  0  0  0  0  0  0  0  0  0  0  0
    1.2321   -3.1402    2.7336 H   0  0  0  0  0  0  0  0  0  0  0  0
   -0.5437   -4.3768    4.1359 H   0  0  0  0  0  0  0  0  0  0  0  0
   -1.0060   -4.9103    6.4986 H   0  0  0  0  0  0  0  0  0  0  0  0
   -0.1371   -3.4446    8.3028 H   0  0  0  0  0  0  0  0  0  0  0  0
    1.2180   -1.4485    7.7267 H   0  0  0  0  0  0  0  0  0  0  0  0
    1.7175   -0.9176    5.3853 H   0  0  0  0  0  0  0  0  0  0  0  0
    3.3910    2.2109   -0.1359 H   0  0  0  0  0  0  0  0  0  0  0  0
    4.3186    1.3066   -1.3129 H   0  0  0  0  0  0  0  0  0  0  0  0
    5.0888    1.7270    1.6262 H   0  0  0  0  0  0  0  0  0  0  0  0
    5.8468    2.4988    0.2318 H   0  0  0  0  0  0  0  0  0  0  0  0
    6.7019    0.3635   -0.5804 H   0  0  0  0  0  0  0  0  0  0  0  0
    7.1516    0.5236    1.1165 H   0  0  0  0  0  0  0  0  0  0  0  0
    6.2639   -1.7667    0.5250 H   0  0  0  0  0  0  0  0  0  0  0  0
    5.3512   -0.9741    1.8110 H   0  0  0  0  0  0  0  0  0  0  0  0
    4.5570   -1.1097   -1.1484 H   0  0  0  0  0  0  0  0  0  0  0  0
    3.8076   -2.0122    0.1496 H   0  0  0  0  0  0  0  0  0  0  0  0
   -0.0750    1.9858    4.8455 H   0  0  0  0  0  0  0  0  0  0  0  0
   -1.3553    1.8699    3.6118 H   0  0  0  0  0  0  0  0  0  0  0  0
    0.2129    5.1674    2.7789 H   0  0  0  0  0  0  0  0  0  0  0  0
   -1.1676    7.1073    4.1372 H   0  0  0  0  0  0  0  0  0  0  0  0
   -2.6261    5.7040    6.0203 H   0  0  0  0  0  0  0  0  0  0  0  0
  1  2  1  0
  2  3  1  0
  3  4  1  0
  4  5  2  0
  5  6  1  0
  6  7  2  0
  7  8  1  0
  8  9  2  0
  2 10  2  0
 10 11  1  0
 11 12  1  0
 12 13  1  0
 13 14  1  0
 14 15  1  0
 15 16  1  0
 16 17  1  0
 11 18  2  0
 18 19  1  0
 19 20  2  3
 20 21  1  0
 21 22  1  0
 22 23  2  0
 23 24  1  0
 24 25  2  0
 25 26  1  0
 19  1  1  0
 26 22  1  0
  9  4  1  0
 17 12  1  0
  1 27  1  0
  3 28  1  0
  5 29  1  0
  6 30  1  0
  7 31  1  0
  8 32  1  0
  9 33  1  0
 13 34  1  0
 13 35  1  0
 14 36  1  0
 14 37  1  0
 15 38  1  0
 15 39  1  0
 16 40  1  0
 16 41  1  0
 17 42  1  0
 17 43  1  0
 21 44  1  0
 21 45  1  0
 23 46  1  0
 24 47  1  0
 25 48  1  0
M  END
>  <ScrubInfo>  (3) 
{"isomerGroup": 0, "isomerId": 2, "confId": 0, "nr_conformers:": 1, "nr_isomers:": 9}

$$$$
_i3
     RDKit          3D

 48 51  0  0  0  0  0  0  0  0999 V2000
   -1.5714   -0.1172   -1.2702 N   0  0  0  0  0  0  0  0  0  0  0  0
   -1.9706   -1.0816   -0.4175 C   0  0  0  0  0  0  0  0  0  0  0  0
   -1.4432   -2.3432   -0.6287 N   0  0  0  0  0  0  0  0  0  0  0  0
   -1.6654   -3.3790    0.3956 C   0  0  0  0  0  0  0  0  0  0  0  0
   -2.9776   -4.1157    0.1265 C   0  0  0  0  0  0  0  0  0  0  0  0
   -3.0032   -4.6931   -1.2888 C   0  0  0  0  0  0  0  0  0  0  0  0
   -2.6603   -3.6264   -2.3293 C   0  0  0  0  0  0  0  0  0  0  0  0
   -1.3515   -2.9169   -1.9802 C   0  0  0  0  0  0  0  0  0  0  0  0
   -2.7828   -0.7890    0.5512 N   0  0  0  0  0  0  0  0  0  0  0  0
   -3.2462    0.5033    0.6456 C   0  0  0  0  0  0  0  0  0  0  0  0
   -4.1675    0.8760    1.5872 N   0  0  0  0  0  0  0  0  0  0  0  0
   -4.7708    0.1853    2.6477 C   0  0  0  0  0  0  0  0  0  0  0  0
   -4.4609   -1.1258    3.0199 C   0  0  0  0  0  0  0  0  0  0  0  0
   -5.1226   -1.7584    4.0797 C   0  0  0  0  0  0  0  0  0  0  0  0
   -6.1159   -1.0884    4.7863 C   0  0  0  0  0  0  0  0  0  0  0  0
   -6.4482    0.2139    4.4323 C   0  0  0  0  0  0  0  0  0  0  0  0
   -5.7831    0.8398    3.3732 C   0  0  0  0  0  0  0  0  0  0  0  0
   -2.8617    1.4684   -0.1519 N   0  0  0  0  0  0  0  0  0  0  0  0
   -1.9486    1.1686   -1.1175 C   0  0  0  0  0  0  0  0  0  0  0  0
   -1.4380    2.0863   -1.8697 N   0  0  0  0  0  0  0  0  0  0  0  0
   -1.9097    3.4530   -1.6231 C   0  0  0  0  0  0  0  0  0  0  0  0
   -1.2474    4.4027   -2.5608 C   0  0  0  0  0  0  0  0  0  0  0  0
   -0.3074    4.2696   -3.5633 C   0  0  0  0  0  0  0  0  0  0  0  0
   -0.0898    5.5654   -4.0882 C   0  0  0  0  0  0  0  0  0  0  0  0
   -0.9088    6.4082   -3.3751 C   0  0  0  0  0  0  0  0  0  0  0  0
   -1.6151    5.7140   -2.4465 O   0  0  0  0  0  0  0  0  0  0  0  0
   -0.7697   -0.2651   -1.8564 H   0  0  0  0  0  0  0  0  0  0  0  0
   -0.8297   -4.0897    0.3696 H   0  0  0  0  0  0  0  0  0  0  0  0
   -1.6648   -2.9484    1.4036 H   0  0  0  0  0  0  0  0  0  0  0  0
   -3.1078   -4.9214    0.8574 H   0  0  0  0  0  0  0  0  0  0  0  0
   -3.8243   -3.4298    0.2501 H   0  0  0  0  0  0  0  0  0  0  0  0
   -2.2786   -5.5137   -1.3587 H   0  0  0  0  0  0  0  0  0  0  0  0
   -3.9905   -5.1180   -1.5008 H   0  0  0  0  0  0  0  0  0  0  0  0
   -2.5797   -4.0889   -3.3192 H   0  0  0  0  0  0  0  0  0  0  0  0
   -3.4757   -2.8940   -2.3789 H   0  0  0  0  0  0  0  0  0  0  0  0
   -1.1307   -2.1582   -2.7378 H   0  0  0  0  0  0  0  0  0  0  0  0
   -0.5193   -3.6312   -2.0114 H   0  0  0  0  0  0  0  0  0  0  0  0
   -4.4138    1.8521    1.5111 H   0  0  0  0  0  0  0  0  0  0  0  0
   -3.6906   -1.6875    2.5036 H   0  0  0  0  0  0  0  0  0  0  0  0
   -4.8563   -2.7771    4.3486 H   0  0  0  0  0  0  0  0  0  0  0  0
   -6.6289   -1.5805    5.6079 H   0  0  0  0  0  0  0  0  0  0  0  0
   -7.2251    0.7452    4.9755 H   0  0  0  0  0  0  0  0  0  0  0  0
   -6.0699    1.8569    3.1155 H   0  0  0  0  0  0  0  0  0  0  0  0
   -1.6729    3.7632   -0.5978 H   0  0  0  0  0  0  0  0  0  0  0  0
   -2.9939    3.5202   -1.7764 H   0  0  0  0  0  0  0  0  0  0  0  0
    0.1569    3.3424   -3.8683 H   0  0  0  0  0  0  0  0  0  0  0  0
    0.5801    5.8502   -4.8864 H   0  0  0  0  0  0  0  0  0  0  0  0
   -1.0964    7.4721   -3.4036 H   0  0  0  0  0  0  0  0  0  0  0  0
  1  2  1  0
  2  3  1  0
  3  4  1  0
  4  5  1  0
  5  6  1  0
  6  7  1  0
  7  8  1  0
  2  9  2  0
  9 10  1  0
 10 11  1  0
 11 12  1  0
 12 13  2  0
 13 14  1  0
 14 15  2  0
 15 16  1  0
 16 17  2  0
 10 18  2  0
 18 19  1  0
 19 20  2  3
 20 21  1  0
 21 22  1  0
 22 23  2  0
 23 24  1  0
 24 25  2  0
 25 26  1  0
 19  1  1  0
 26 22  1  0
  8  3  1  0
 17 12  1  0
  1 27  1  0
  4 28  1  0
  4 29  1  0
  5 30  1  0
  5 31  1  0
  6 32  1  0
  6 33  1  0
  7 34  1  0
  7 35  1  0
  8 36  1  0
  8 37  1  0
 11 38  1  0
 13 39  1  0
 14 40  1  0
 15 41  1  0
 16 42  1  0
 17 43  1  0
 21 44  1  0
 21 45  1  0
 23 46  1  0
 24 47  1  0
 25 48  1  0
M  END
>  <ScrubInfo>  (4) 
{"isomerGroup": 0, "isomerId": 3, "confId": 0, "nr_conformers:": 1, "nr_isomers:": 9}

$$$$
_i4
     RDKit          3D

 48 51  0  0  0  0  0  0  0  0999 V2000
    0.8767    1.2223   -0.7655 N   0  0  0  0  0  0  0  0  0  0  0  0
    0.7268    2.5267   -0.4559 C   0  0  0  0  0  0  0  0  0  0  0  0
   -0.4885    3.1026   -0.7840 N   0  0  0  0  0  0  0  0  0  0  0  0
   -0.7745    4.4646   -0.3000 C   0  0  0  0  0  0  0  0  0  0  0  0
   -0.2627    5.4986   -1.3030 C   0  0  0  0  0  0  0  0  0  0  0  0
   -0.8441    5.2493   -2.6949 C   0  0  0  0  0  0  0  0  0  0  0  0
   -0.6364    3.7987   -3.1314 C   0  0  0  0  0  0  0  0  0  0  0  0
   -1.1483    2.8253   -2.0690 C   0  0  0  0  0  0  0  0  0  0  0  0
    1.6869    3.1622    0.1461 N   0  0  0  0  0  0  0  0  0  0  0  0
    2.8461    2.4692    0.3999 C   0  0  0  0  0  0  0  0  0  0  0  0
    3.8947    3.1321    0.9649 N   0  0  0  0  0  0  0  0  0  0  0  0
    3.6996    4.3131    1.7755 C   0  0  0  0  0  0  0  0  0  0  0  0
    4.9739    4.8903    2.2892 C   0  0  0  0  0  0  0  0  0  0  0  0
    6.0086    5.5776    1.6878 C   0  0  0  0  0  0  0  0  0  0  0  0
    6.9514    5.8521    2.7072 C   0  0  0  0  0  0  0  0  0  0  0  0
    6.4350    5.3132    3.8620 C   0  0  0  0  0  0  0  0  0  0  0  0
    5.2354    4.7255    3.6186 O   0  0  0  0  0  0  0  0  0  0  0  0
    3.0243    1.2059    0.1447 N   0  0  0  0  0  0  0  0  0  0  0  0
    1.9824    0.5271   -0.4168 C   0  0  0  0  0  0  0  0  0  0  0  0
    2.0205   -0.7604   -0.6069 N   0  0  0  0  0  0  0  0  0  0  0  0
    3.1726   -1.4665   -0.2311 C   0  0  0  0  0  0  0  0  0  0  0  0
    4.2319   -1.6263   -1.1288 C   0  0  0  0  0  0  0  0  0  0  0  0
    5.3632   -2.3606   -0.7666 C   0  0  0  0  0  0  0  0  0  0  0  0
    5.4357   -2.9504    0.4950 C   0  0  0  0  0  0  0  0  0  0  0  0
    4.3769   -2.8090    1.3913 C   0  0  0  0  0  0  0  0  0  0  0  0
    3.2473   -2.0738    1.0254 C   0  0  0  0  0  0  0  0  0  0  0  0
    0.0762    0.6612   -0.9935 H   0  0  0  0  0  0  0  0  0  0  0  0
   -1.8586    4.5767   -0.1727 H   0  0  0  0  0  0  0  0  0  0  0  0
   -0.3340    4.6375    0.6889 H   0  0  0  0  0  0  0  0  0  0  0  0
   -0.5290    6.5065   -0.9660 H   0  0  0  0  0  0  0  0  0  0  0  0
    0.8319    5.4563   -1.3577 H   0  0  0  0  0  0  0  0  0  0  0  0
   -0.3810    5.9276   -3.4199 H   0  0  0  0  0  0  0  0  0  0  0  0
   -1.9178    5.4745   -2.6848 H   0  0  0  0  0  0  0  0  0  0  0  0
   -1.1556    3.6207   -4.0796 H   0  0  0  0  0  0  0  0  0  0  0  0
    0.4320    3.6235   -3.3088 H   0  0  0  0  0  0  0  0  0  0  0  0
   -0.9880    1.7961   -2.4049 H   0  0  0  0  0  0  0  0  0  0  0  0
   -2.2327    2.9411   -1.9480 H   0  0  0  0  0  0  0  0  0  0  0  0
    4.5901    2.4878    1.3220 H   0  0  0  0  0  0  0  0  0  0  0  0
    3.0461    4.0691    2.6221 H   0  0  0  0  0  0  0  0  0  0  0  0
    3.1896    5.0876    1.1894 H   0  0  0  0  0  0  0  0  0  0  0  0
    6.0710    5.8384    0.6402 H   0  0  0  0  0  0  0  0  0  0  0  0
    7.8933    6.3736    2.6125 H   0  0  0  0  0  0  0  0  0  0  0  0
    6.7802    5.2632    4.8854 H   0  0  0  0  0  0  0  0  0  0  0  0
    4.1729   -1.1690   -2.1119 H   0  0  0  0  0  0  0  0  0  0  0  0
    6.1844   -2.4712   -1.4691 H   0  0  0  0  0  0  0  0  0  0  0  0
    6.3156   -3.5216    0.7783 H   0  0  0  0  0  0  0  0  0  0  0  0
    4.4278   -3.2705    2.3734 H   0  0  0  0  0  0  0  0  0  0  0  0
    2.4203   -1.9669    1.7208 H   0  0  0  0  0  0  0  0  0  0  0  0
  1  2  1  0
  2  3  1  0
  3  4  1  0
  4  5  1  0
  5  6  1  0
  6  7  1  0
  7  8  1  0
  2  9  2  0
  9 10  1  0
 10 11  1  0
 11 12  1  0
 12 13  1  0
 13 14  2  0
 14 15  1  0
 15 16  2  0
 16 17  1  0
 10 18  2  0
 18 19  1  0
 19 20  2  3
 20 21  1  0
 21 22  2  0
 22 23  1  0
 23 24  2  0
 24 25  1  0
 25 26  2  0
 19  1  1  0
 26 21  1  0
  8  3  1  0
 17 13  1  0
  1 27  1  0
  4 28  1  0
  4 29  1  0
  5 30  1  0
  5 31  1  0
  6 32  1  0
  6 33  1  0
  7 34  1  0
  7 35  1  0
  8 36  1  0
  8 37  1  0
 11 38  1  0
 12 39  1  0
 12 40  1  0
 14 41  1  0
 15 42  1  0
 16 43  1  0
 22 44  1  0
 23 45  1  0
 24 46  1  0
 25 47  1  0
 26 48  1  0
M  END
>  <ScrubInfo>  (5) 
{"isomerGroup": 0, "isomerId": 4, "confId": 0, "nr_conformers:": 1, "nr_isomers:": 9}

$$$$
_i5
     RDKit          3D

 48 51  0  0  0  0  0  0  0  0999 V2000
   -1.7642   -1.1535    1.8278 N   0  0  0  0  0  0  0  0  0  0  0  0
   -1.8221   -0.5865    3.0553 C   0  0  0  0  0  0  0  0  0  0  0  0
   -2.4704    0.6094    3.1393 N   0  0  0  0  0  0  0  0  0  0  0  0
   -2.0453    1.7399    2.3203 C   0  0  0  0  0  0  0  0  0  0  0  0
   -2.8390    2.9771    2.5557 C   0  0  0  0  0  0  0  0  0  0  0  0
   -2.8506    3.9159    3.5674 C   0  0  0  0  0  0  0  0  0  0  0  0
   -3.8418    4.8649    3.2188 C   0  0  0  0  0  0  0  0  0  0  0  0
   -4.3700    4.4459    2.0206 C   0  0  0  0  0  0  0  0  0  0  0  0
   -3.7667    3.3014    1.6086 O   0  0  0  0  0  0  0  0  0  0  0  0
   -1.3147   -1.1440    4.1028 N   0  0  0  0  0  0  0  0  0  0  0  0
   -0.7033   -2.3591    3.8629 C   0  0  0  0  0  0  0  0  0  0  0  0
   -0.1066   -2.9942    4.8240 N   0  0  0  0  0  0  0  0  0  0  0  0
   -0.0835   -2.4347    6.1079 C   0  0  0  0  0  0  0  0  0  0  0  0
    1.0070   -1.6635    6.5197 C   0  0  0  0  0  0  0  0  0  0  0  0
    1.0531   -1.1322    7.8105 C   0  0  0  0  0  0  0  0  0  0  0  0
    0.0106   -1.3807    8.7028 C   0  0  0  0  0  0  0  0  0  0  0  0
   -1.0732   -2.1638    8.3066 C   0  0  0  0  0  0  0  0  0  0  0  0
   -1.1150   -2.6935    7.0151 C   0  0  0  0  0  0  0  0  0  0  0  0
   -0.6638   -3.0031    2.6460 N   0  0  0  0  0  0  0  0  0  0  0  0
   -1.2112   -2.3826    1.6433 C   0  0  0  0  0  0  0  0  0  0  0  0
   -1.2386   -2.9135    0.3664 N   0  0  0  0  0  0  0  0  0  0  0  0
   -1.8842   -2.3172   -0.8014 C   0  0  0  0  0  0  0  0  0  0  0  0
   -3.2494   -2.9741   -1.0011 C   0  0  0  0  0  0  0  0  0  0  0  0
   -3.1089   -4.4930   -1.1380 C   0  0  0  0  0  0  0  0  0  0  0  0
   -2.2837   -5.0888    0.0062 C   0  0  0  0  0  0  0  0  0  0  0  0
   -0.9568   -4.3463    0.1769 C   0  0  0  0  0  0  0  0  0  0  0  0
   -2.4930   -0.8688    1.1981 H   0  0  0  0  0  0  0  0  0  0  0  0
   -2.5033    0.8882    4.1183 H   0  0  0  0  0  0  0  0  0  0  0  0
   -2.1104    1.4737    1.2584 H   0  0  0  0  0  0  0  0  0  0  0  0
   -0.9901    1.9564    2.5286 H   0  0  0  0  0  0  0  0  0  0  0  0
   -2.2232    3.9137    4.4483 H   0  0  0  0  0  0  0  0  0  0  0  0
   -4.1378    5.7448    3.7728 H   0  0  0  0  0  0  0  0  0  0  0  0
   -5.1407    4.8299    1.3665 H   0  0  0  0  0  0  0  0  0  0  0  0
    1.8223   -1.4815    5.8257 H   0  0  0  0  0  0  0  0  0  0  0  0
    1.9044   -0.5319    8.1183 H   0  0  0  0  0  0  0  0  0  0  0  0
    0.0464   -0.9713    9.7087 H   0  0  0  0  0  0  0  0  0  0  0  0
   -1.8830   -2.3679    9.0012 H   0  0  0  0  0  0  0  0  0  0  0  0
   -1.9531   -3.3114    6.7064 H   0  0  0  0  0  0  0  0  0  0  0  0
   -1.2590   -2.4876   -1.6873 H   0  0  0  0  0  0  0  0  0  0  0  0
   -1.9856   -1.2307   -0.7196 H   0  0  0  0  0  0  0  0  0  0  0  0
   -3.8980   -2.7465   -0.1461 H   0  0  0  0  0  0  0  0  0  0  0  0
   -3.7337   -2.5656   -1.8948 H   0  0  0  0  0  0  0  0  0  0  0  0
   -4.1003   -4.9584   -1.1647 H   0  0  0  0  0  0  0  0  0  0  0  0
   -2.6201   -4.7247   -2.0925 H   0  0  0  0  0  0  0  0  0  0  0  0
   -2.8616   -5.0254    0.9368 H   0  0  0  0  0  0  0  0  0  0  0  0
   -2.0951   -6.1505   -0.1870 H   0  0  0  0  0  0  0  0  0  0  0  0
   -0.3355   -4.4784   -0.7178 H   0  0  0  0  0  0  0  0  0  0  0  0
   -0.3895   -4.7791    1.0078 H   0  0  0  0  0  0  0  0  0  0  0  0
  1  2  1  0
  2  3  1  0
  3  4  1  0
  4  5  1  0
  5  6  2  0
  6  7  1  0
  7  8  2  0
  8  9  1  0
  2 10  2  0
 10 11  1  0
 11 12  2  3
 12 13  1  0
 13 14  2  0
 14 15  1  0
 15 16  2  0
 16 17  1  0
 17 18  2  0
 11 19  1  0
 19 20  2  0
 20 21  1  0
 21 22  1  0
 22 23  1  0
 23 24  1  0
 24 25  1  0
 25 26  1  0
 20  1  1  0
 26 21  1  0
  9  5  1  0
 18 13  1  0
  1 27  1  0
  3 28  1  0
  4 29  1  0
  4 30  1  0
  6 31  1  0
  7 32  1  0
  8 33  1  0
 14 34  1  0
 15 35  1  0
 16 36  1  0
 17 37  1  0
 18 38  1  0
 22 39  1  0
 22 40  1  0
 23 41  1  0
 23 42  1  0
 24 43  1  0
 24 44  1  0
 25 45  1  0
 25 46  1  0
 26 47  1  0
 26 48  1  0
M  END
>  <ScrubInfo>  (6) 
{"isomerGroup": 0, "isomerId": 5, "confId": 0, "nr_conformers:": 1, "nr_isomers:": 9}

$$$$
_i6
     RDKit          3D

 48 51  0  0  0  0  0  0  0  0999 V2000
   -2.1387    0.3128    0.2478 N   0  0  0  0  0  0  0  0  0  0  0  0
   -2.9470    1.3302   -0.1696 C   0  0  0  0  0  0  0  0  0  0  0  0
   -3.2531    2.2008    0.8478 N   0  0  0  0  0  0  0  0  0  0  0  0
   -3.9923    3.4012    0.7779 C   0  0  0  0  0  0  0  0  0  0  0  0
   -4.2499    4.0900   -0.4123 C   0  0  0  0  0  0  0  0  0  0  0  0
   -4.9503    5.3017   -0.4118 C   0  0  0  0  0  0  0  0  0  0  0  0
   -5.3908    5.8566    0.7855 C   0  0  0  0  0  0  0  0  0  0  0  0
   -5.1243    5.2035    1.9838 C   0  0  0  0  0  0  0  0  0  0  0  0
   -4.4249    3.9924    1.9786 C   0  0  0  0  0  0  0  0  0  0  0  0
   -3.3451    1.3895   -1.3985 N   0  0  0  0  0  0  0  0  0  0  0  0
   -2.8918    0.3917   -2.2256 C   0  0  0  0  0  0  0  0  0  0  0  0
   -3.3531    0.4454   -3.4254 N   0  0  0  0  0  0  0  0  0  0  0  0
   -2.8953   -0.5963   -4.3427 C   0  0  0  0  0  0  0  0  0  0  0  0
   -3.5216   -0.4126   -5.6825 C   0  0  0  0  0  0  0  0  0  0  0  0
   -4.4168    0.4980   -6.2074 C   0  0  0  0  0  0  0  0  0  0  0  0
   -4.6211    0.1312   -7.5582 C   0  0  0  0  0  0  0  0  0  0  0  0
   -3.8396   -0.9789   -7.7742 C   0  0  0  0  0  0  0  0  0  0  0  0
   -3.1684   -1.3180   -6.6436 O   0  0  0  0  0  0  0  0  0  0  0  0
   -2.0129   -0.6046   -1.8678 N   0  0  0  0  0  0  0  0  0  0  0  0
   -1.6623   -0.6190   -0.6205 C   0  0  0  0  0  0  0  0  0  0  0  0
   -0.7738   -1.5330   -0.0803 N   0  0  0  0  0  0  0  0  0  0  0  0
   -0.0426   -2.4247   -1.0018 C   0  0  0  0  0  0  0  0  0  0  0  0
   -0.8598   -3.6864   -1.2801 C   0  0  0  0  0  0  0  0  0  0  0  0
   -1.2431   -4.3924    0.0204 C   0  0  0  0  0  0  0  0  0  0  0  0
   -1.9041   -3.4247    1.0022 C   0  0  0  0  0  0  0  0  0  0  0  0
   -1.0408   -2.1809    1.2135 C   0  0  0  0  0  0  0  0  0  0  0  0
   -1.5257    0.5172    1.0203 H   0  0  0  0  0  0  0  0  0  0  0  0
   -3.2788    1.7866    1.7687 H   0  0  0  0  0  0  0  0  0  0  0  0
   -3.9102    3.7041   -1.3698 H   0  0  0  0  0  0  0  0  0  0  0  0
   -5.1450    5.8087   -1.3536 H   0  0  0  0  0  0  0  0  0  0  0  0
   -5.9340    6.7976    0.7825 H   0  0  0  0  0  0  0  0  0  0  0  0
   -5.4574    5.6358    2.9236 H   0  0  0  0  0  0  0  0  0  0  0  0
   -4.2253    3.5122    2.9330 H   0  0  0  0  0  0  0  0  0  0  0  0
   -3.1729   -1.5909   -3.9716 H   0  0  0  0  0  0  0  0  0  0  0  0
   -1.8061   -0.5524   -4.4667 H   0  0  0  0  0  0  0  0  0  0  0  0
   -4.8591    1.3224   -5.6647 H   0  0  0  0  0  0  0  0  0  0  0  0
   -5.2585    0.6158   -8.2833 H   0  0  0  0  0  0  0  0  0  0  0  0
   -3.6588   -1.6122   -8.6309 H   0  0  0  0  0  0  0  0  0  0  0  0
    0.2037   -1.9113   -1.9387 H   0  0  0  0  0  0  0  0  0  0  0  0
    0.9164   -2.6978   -0.5439 H   0  0  0  0  0  0  0  0  0  0  0  0
   -1.7721   -3.4278   -1.8310 H   0  0  0  0  0  0  0  0  0  0  0  0
   -0.2841   -4.3686   -1.9154 H   0  0  0  0  0  0  0  0  0  0  0  0
   -1.9193   -5.2275   -0.1935 H   0  0  0  0  0  0  0  0  0  0  0  0
   -0.3430   -4.8179    0.4810 H   0  0  0  0  0  0  0  0  0  0  0  0
   -2.8875   -3.1310    0.6146 H   0  0  0  0  0  0  0  0  0  0  0  0
   -2.0711   -3.9283    1.9607 H   0  0  0  0  0  0  0  0  0  0  0  0
   -1.5355   -1.5030    1.9169 H   0  0  0  0  0  0  0  0  0  0  0  0
   -0.0873   -2.4616    1.6779 H   0  0  0  0  0  0  0  0  0  0  0  0
  1  2  1  0
  2  3  1  0
  3  4  1  0
  4  5  2  0
  5  6  1  0
  6  7  2  0
  7  8  1  0
  8  9  2  0
  2 10  2  0
 10 11  1  0
 11 12  2  3
 12 13  1  0
 13 14  1  0
 14 15  2  0
 15 16  1  0
 16 17  2  0
 17 18  1  0
 11 19  1  0
 19 20  2  0
 20 21  1  0
 21 22  1  0
 22 23  1  0
 23 24  1  0
 24 25  1  0
 25 26  1  0
 20  1  1  0
 26 21  1  0
  9  4  1  0
 18 14  1  0
  1 27  1  0
  3 28  1  0
  5 29  1  0
  6 30  1  0
  7 31  1  0
  8 32  1  0
  9 33  1  0
 13 34  1  0
 13 35  1  0
 15 36  1  0
 16 37  1  0
 17 38  1  0
 22 39  1  0
 22 40  1  0
 23 41  1  0
 23 42  1  0
 24 43  1  0
 24 44  1  0
 25 45  1  0
 25 46  1  0
 26 47  1  0
 26 48  1  0
M  END
>  <ScrubInfo>  (7) 
{"isomerGroup": 0, "isomerId": 6, "confId": 0, "nr_conformers:": 1, "nr_isomers:": 9}

$$$$
_i7
     RDKit          3D

 48 51  0  0  0  0  0  0  0  0999 V2000
   -1.7994    0.6730   -0.8426 N   0  0  0  0  0  0  0  0  0  0  0  0
   -2.5774   -0.0634    0.0077 C   0  0  0  0  0  0  0  0  0  0  0  0
   -2.3783   -1.4338   -0.0471 N   0  0  0  0  0  0  0  0  0  0  0  0
   -2.9523   -2.2623    1.0316 C   0  0  0  0  0  0  0  0  0  0  0  0
   -4.3913   -2.6563    0.6980 C   0  0  0  0  0  0  0  0  0  0  0  0
   -4.4719   -3.3462   -0.6633 C   0  0  0  0  0  0  0  0  0  0  0  0
   -3.7848   -2.5145   -1.7461 C   0  0  0  0  0  0  0  0  0  0  0  0
   -2.3593   -2.1449   -1.3349 C   0  0  0  0  0  0  0  0  0  0  0  0
   -3.4224    0.4926    0.8288 N   0  0  0  0  0  0  0  0  0  0  0  0
   -3.5127    1.8644    0.7626 C   0  0  0  0  0  0  0  0  0  0  0  0
   -4.3469    2.5212    1.5184 N   0  0  0  0  0  0  0  0  0  0  0  0
   -5.1622    1.8030    2.4061 C   0  0  0  0  0  0  0  0  0  0  0  0
   -6.4218    1.3510    2.0026 C   0  0  0  0  0  0  0  0  0  0  0  0
   -7.2467    0.6617    2.8942 C   0  0  0  0  0  0  0  0  0  0  0  0
   -6.8192    0.4310    4.2012 C   0  0  0  0  0  0  0  0  0  0  0  0
   -5.5706    0.8922    4.6170 C   0  0  0  0  0  0  0  0  0  0  0  0
   -4.7484    1.5808    3.7224 C   0  0  0  0  0  0  0  0  0  0  0  0
   -2.7218    2.5672   -0.1038 N   0  0  0  0  0  0  0  0  0  0  0  0
   -1.7902    2.0353   -0.9475 C   0  0  0  0  0  0  0  0  0  0  0  0
   -0.9705    2.6168   -1.7529 N   0  0  0  0  0  0  0  0  0  0  0  0
   -1.0150    4.0790   -1.8083 C   0  0  0  0  0  0  0  0  0  0  0  0
   -0.0187    4.5955   -2.7835 C   0  0  0  0  0  0  0  0  0  0  0  0
    0.9477    4.0106   -3.5770 C   0  0  0  0  0  0  0  0  0  0  0  0
    1.5749    5.0604   -4.2887 C   0  0  0  0  0  0  0  0  0  0  0  0
    0.9541    6.2189   -3.8859 C   0  0  0  0  0  0  0  0  0  0  0  0
   -0.0136    5.9484   -2.9728 O   0  0  0  0  0  0  0  0  0  0  0  0
   -1.0530    0.2040   -1.3286 H   0  0  0  0  0  0  0  0  0  0  0  0
   -2.3395   -3.1652    1.1468 H   0  0  0  0  0  0  0  0  0  0  0  0
   -2.9094   -1.7425    1.9961 H   0  0  0  0  0  0  0  0  0  0  0  0
   -5.0323   -1.7667    0.6880 H   0  0  0  0  0  0  0  0  0  0  0  0
   -4.7824   -3.3233    1.4743 H   0  0  0  0  0  0  0  0  0  0  0  0
   -3.9902   -4.3298   -0.6008 H   0  0  0  0  0  0  0  0  0  0  0  0
   -5.5197   -3.5186   -0.9330 H   0  0  0  0  0  0  0  0  0  0  0  0
   -3.7659   -3.0766   -2.6864 H   0  0  0  0  0  0  0  0  0  0  0  0
   -4.3665   -1.6018   -1.9257 H   0  0  0  0  0  0  0  0  0  0  0  0
   -1.8921   -1.5511   -2.1270 H   0  0  0  0  0  0  0  0  0  0  0  0
   -1.7519   -3.0529   -1.2341 H   0  0  0  0  0  0  0  0  0  0  0  0
   -6.7548    1.5344    0.9855 H   0  0  0  0  0  0  0  0  0  0  0  0
   -8.2208    0.3089    2.5679 H   0  0  0  0  0  0  0  0  0  0  0  0
   -7.4604   -0.1039    4.8967 H   0  0  0  0  0  0  0  0  0  0  0  0
   -5.2362    0.7194    5.6360 H   0  0  0  0  0  0  0  0  0  0  0  0
   -3.7774    1.9434    4.0458 H   0  0  0  0  0  0  0  0  0  0  0  0
   -2.8542    3.5632   -0.0523 H   0  0  0  0  0  0  0  0  0  0  0  0
   -0.7887    4.5038   -0.8228 H   0  0  0  0  0  0  0  0  0  0  0  0
   -2.0119    4.4169   -2.1166 H   0  0  0  0  0  0  0  0  0  0  0  0
    1.1636    2.9525   -3.6268 H   0  0  0  0  0  0  0  0  0  0  0  0
    2.3793    4.9832   -5.0059 H   0  0  0  0  0  0  0  0  0  0  0  0
    1.0772    7.2622   -4.1402 H   0  0  0  0  0  0  0  0  0  0  0  0
  1  2  1  0
  2  3  1  0
  3  4  1  0
  4  5  1  0
  5  6  1  0
  6  7  1  0
  7  8  1  0
  2  9  2  0
  9 10  1  0
 10 11  2  3
 11 12  1  0
 12 13  2  0
 13 14  1  0
 14 15  2  0
 15 16  1  0
 16 17  2  0
 10 18  1  0
 18 19  1  0
 19 20  2  3
 20 21  1  0
 21 22  1  0
 22 23  2  0
 23 24  1  0
 24 25  2  0
 25 26  1  0
 19  1  1  0
 26 22  1  0
  8  3  1  0
 17 12  1  0
  1 27  1  0
  4 28  1  0
  4 29  1  0
  5 30  1  0
  5 31  1  0
  6 32  1  0
  6 33  1  0
  7 34  1  0
  7 35  1  0
  8 36  1  0
  8 37  1  0
 13 38  1  0
 14 39  1  0
 15 40  1  0
 16 41  1  0
 17 42  1  0
 18 43  1  0
 21 44  1  0
 21 45  1  0
 23 46  1  0
 24 47  1  0
 25 48  1  0
M  END
>  <ScrubInfo>  (8) 
{"isomerGroup": 0, "isomerId": 7, "confId": 0, "nr_conformers:": 1, "nr_isomers:": 9}

$$$$
_i8
     RDKit          3D

 48 51  0  0  0  0  0  0  0  0999 V2000
    0.5349    0.8454   -2.8019 N   0  0  0  0  0  0  0  0  0  0  0  0
   -0.1321    1.1225   -1.6408 C   0  0  0  0  0  0  0  0  0  0  0  0
    0.2350    2.3045   -1.0188 N   0  0  0  0  0  0  0  0  0  0  0  0
   -0.1890    2.5183    0.3785 C   0  0  0  0  0  0  0  0  0  0  0  0
   -1.5693    3.1737    0.4253 C   0  0  0  0  0  0  0  0  0  0  0  0
   -1.5933    4.4663   -0.3897 C   0  0  0  0  0  0  0  0  0  0  0  0
   -1.0593    4.2381   -1.8036 C   0  0  0  0  0  0  0  0  0  0  0  0
    0.3132    3.5654   -1.7719 C   0  0  0  0  0  0  0  0  0  0  0  0
   -1.0252    0.3131   -1.1440 N   0  0  0  0  0  0  0  0  0  0  0  0
   -1.2744   -0.8295   -1.8657 C   0  0  0  0  0  0  0  0  0  0  0  0
   -2.1428   -1.6952   -1.4563 N   0  0  0  0  0  0  0  0  0  0  0  0
   -2.8580   -1.3995   -0.2093 C   0  0  0  0  0  0  0  0  0  0  0  0
   -2.1252   -1.9022    0.9850 C   0  0  0  0  0  0  0  0  0  0  0  0
   -1.1240   -2.8340    1.1733 C   0  0  0  0  0  0  0  0  0  0  0  0
   -0.8586   -2.8657    2.5626 C   0  0  0  0  0  0  0  0  0  0  0  0
   -1.7160   -1.9569    3.1357 C   0  0  0  0  0  0  0  0  0  0  0  0
   -2.4910   -1.3690    2.1887 O   0  0  0  0  0  0  0  0  0  0  0  0
   -0.5965   -1.0693   -3.0258 N   0  0  0  0  0  0  0  0  0  0  0  0
    0.3749   -0.2757   -3.5665 C   0  0  0  0  0  0  0  0  0  0  0  0
    1.0997   -0.4685   -4.6258 N   0  0  0  0  0  0  0  0  0  0  0  0
    0.8938   -1.6417   -5.3631 C   0  0  0  0  0  0  0  0  0  0  0  0
    1.6282   -2.7944   -5.0734 C   0  0  0  0  0  0  0  0  0  0  0  0
    1.4185   -3.9669   -5.8016 C   0  0  0  0  0  0  0  0  0  0  0  0
    0.4785   -3.9877   -6.8315 C   0  0  0  0  0  0  0  0  0  0  0  0
   -0.2458   -2.8361   -7.1375 C   0  0  0  0  0  0  0  0  0  0  0  0
   -0.0339   -1.6652   -6.4076 C   0  0  0  0  0  0  0  0  0  0  0  0
    1.3241    1.4199   -3.0477 H   0  0  0  0  0  0  0  0  0  0  0  0
   -0.1908    1.5770    0.9409 H   0  0  0  0  0  0  0  0  0  0  0  0
    0.5445    3.1664    0.8745 H   0  0  0  0  0  0  0  0  0  0  0  0
   -2.3254    2.4854    0.0292 H   0  0  0  0  0  0  0  0  0  0  0  0
   -1.8434    3.3865    1.4645 H   0  0  0  0  0  0  0  0  0  0  0  0
   -0.9789    5.2237    0.1125 H   0  0  0  0  0  0  0  0  0  0  0  0
   -2.6147    4.8600   -0.4350 H   0  0  0  0  0  0  0  0  0  0  0  0
   -1.7659    3.6104   -2.3608 H   0  0  0  0  0  0  0  0  0  0  0  0
   -0.9913    5.1958   -2.3313 H   0  0  0  0  0  0  0  0  0  0  0  0
    1.0429    4.2270   -1.2886 H   0  0  0  0  0  0  0  0  0  0  0  0
    0.6693    3.4125   -2.7957 H   0  0  0  0  0  0  0  0  0  0  0  0
   -3.1023   -0.3355   -0.1029 H   0  0  0  0  0  0  0  0  0  0  0  0
   -3.8245   -1.9157   -0.2563 H   0  0  0  0  0  0  0  0  0  0  0  0
   -0.6493   -3.4113    0.3926 H   0  0  0  0  0  0  0  0  0  0  0  0
   -0.1335   -3.4753    3.0820 H   0  0  0  0  0  0  0  0  0  0  0  0
   -1.8916   -1.6294    4.1504 H   0  0  0  0  0  0  0  0  0  0  0  0
   -0.8212   -1.9415   -3.4776 H   0  0  0  0  0  0  0  0  0  0  0  0
    2.3673   -2.7756   -4.2771 H   0  0  0  0  0  0  0  0  0  0  0  0
    1.9922   -4.8602   -5.5691 H   0  0  0  0  0  0  0  0  0  0  0  0
    0.3170   -4.8992   -7.4017 H   0  0  0  0  0  0  0  0  0  0  0  0
   -0.9707   -2.8473   -7.9473 H   0  0  0  0  0  0  0  0  0  0  0  0
   -0.5916   -0.7653   -6.6522 H   0  0  0  0  0  0  0  0  0  0  0  0
  1  2  1  0
  2  3  1  0
  3  4  1  0
  4  5  1  0
  5  6  1  0
  6  7  1  0
  7  8  1  0
  2  9  2  0
  9 10  1  0
 10 11  2  3
 11 12  1  0
 12 13  1  0
 13 14  2  0
 14 15  1  0
 15 16  2  0
 16 17  1  0
 10 18  1  0
 18 19  1  0
 19 20  2  3
 20 21  1  0
 21 22  2  0
 22 23  1  0
 23 24  2  0
 24 25  1  0
 25 26  2  0
 19  1  1  0
 26 21  1  0
  8  3  1  0
 17 13  1  0
  1 27  1  0
  4 28  1  0
  4 29  1  0
  5 30  1  0
  5 31  1  0
  6 32  1  0
  6 33  1  0
  7 34  1  0
  7 35  1  0
  8 36  1  0
  8 37  1  0
 12 38  1  0
 12 39  1  0
 14 40  1  0
 15 41  1  0
 16 42  1  0
 18 43  1  0
 22 44  1  0
 23 45  1  0
 24 46  1  0
 25 47  1  0
 26 48  1  0
M  END
>  <ScrubInfo>  (9) 
{"isomerGroup": 0, "isomerId": 8, "confId": 0, "nr_conformers:": 1, "nr_isomers:": 9}

$$$$
