REMARK SMILES CCCCNc1nc(Nc2ccc3cn[nH]c3c2)c2cnn(C)c2n1
REMARK SMILES IDX 5 1 4 3 3 4 2 5 1 6 6 7 7 8 25 9 8 10 24 11 19 12 22 13
REMARK SMILES IDX 20 14 21 15 23 16 9 17 10 19 11 20 18 21 12 22 17 23 13 24
REMARK SMILES IDX 16 25 14 26 15 27
REMARK H PARENT 5 2 9 18 16 28
ROOT
ATOM      1  N   UNL     1      -2.747   0.908  -0.025  1.00  0.00    -0.354 N 
ATOM      2  H   UNL     1      -2.423   1.851  -0.214  1.00  0.00     0.163 HD
ENDROOT
BRANCH   1   3
ATOM      3  C   UNL     1      -3.697   0.369  -0.981  1.00  0.00     0.116 C 
BRANCH   3   4
ATOM      4  C   UNL     1      -4.870   1.338  -1.162  1.00  0.00     0.021 C 
BRANCH   4   5
ATOM      5  C   UNL     1      -5.694   1.597   0.103  1.00  0.00    -0.002 C 
ATOM      6  C   UNL     1      -6.367   0.352   0.658  1.00  0.00     0.004 C 
ENDBRANCH   4   5
ENDBRANCH   3   4
ENDBRANCH   1   3
BRANCH   1   7
ATOM      7  C   UNL     1      -1.600   0.143   0.157  1.00  0.00     0.226 A 
ATOM      8  N   UNL     1      -0.484   0.860   0.388  1.00  0.00    -0.195 NA
ATOM      9  N   UNL     1      -1.673  -1.194   0.091  1.00  0.00    -0.193 NA
ATOM     10  C   UNL     1       0.703   0.230   0.579  1.00  0.00     0.147 A 
ATOM     11  C   UNL     1      -0.495  -1.792   0.316  1.00  0.00     0.165 A 
ATOM     12  C   UNL     1       0.710  -1.166   0.565  1.00  0.00     0.082 A 
ATOM     13  N   UNL     1      -0.237  -3.135   0.356  1.00  0.00    -0.250 N 
ATOM     14  C   UNL     1       1.622  -2.224   0.758  1.00  0.00     0.149 A 
ATOM     15  N   UNL     1       1.058  -3.429   0.617  1.00  0.00    -0.179 NA
ATOM     16  C   UNL     1      -1.183  -4.205   0.166  1.00  0.00     0.176 C 
BRANCH  10  17
ATOM     17  N   UNL     1       1.819   1.041   0.833  1.00  0.00    -0.339 N 
ATOM     18  H   UNL     1       1.497   2.007   0.811  1.00  0.00     0.168 HD
BRANCH  17  19
ATOM     19  C   UNL     1       3.122   0.931   0.299  1.00  0.00     0.042 A 
ATOM     20  C   UNL     1       3.397   0.250  -0.895  1.00  0.00     0.027 A 
ATOM     21  C   UNL     1       4.162   1.589   0.978  1.00  0.00     0.054 A 
ATOM     22  C   UNL     1       4.698   0.176  -1.418  1.00  0.00     0.014 A 
ATOM     23  C   UNL     1       5.453   1.503   0.443  1.00  0.00     0.067 A 
ATOM     24  C   UNL     1       5.740   0.814  -0.728  1.00  0.00     0.020 A 
ATOM     25  N   UNL     1       6.654   2.007   0.869  1.00  0.00    -0.278 N 
ATOM     26  C   UNL     1       7.132   0.979  -0.903  1.00  0.00     0.143 A 
ATOM     27  N   UNL     1       7.691   1.706   0.068  1.00  0.00    -0.183 NA
ATOM     28  H   UNL     1       6.832   2.563   1.697  1.00  0.00     0.190 HD
ENDBRANCH  17  19
ENDBRANCH  10  17
ENDBRANCH   1   7
TORSDOF 6
