_i0
     RDKit          3D

 45 48  0  0  0  0  0  0  0  0999 V2000
   -6.3673    0.3517    0.6576 C   0  0  0  0  0  0  0  0  0  0  0  0
   -5.6944    1.5975    0.1028 C   0  0  0  0  0  0  0  0  0  0  0  0
   -4.8695    1.3376   -1.1621 C   0  0  0  0  0  0  0  0  0  0  0  0
   -3.6968    0.3694   -0.9810 C   0  0  0  0  0  0  0  0  0  0  0  0
   -2.7467    0.9081   -0.0247 N   0  0  0  0  0  0  0  0  0  0  0  0
   -1.6004    0.1431    0.1565 C   0  0  0  0  0  0  0  0  0  0  0  0
   -0.4839    0.8597    0.3878 N   0  0  0  0  0  0  0  0  0  0  0  0
    0.7029    0.2301    0.5787 C   0  0  0  0  0  0  0  0  0  0  0  0
    1.8190    1.0413    0.8333 N   0  0  0  0  0  0  0  0  0  0  0  0
    3.1220    0.9308    0.2992 C   0  0  0  0  0  0  0  0  0  0  0  0
    3.3971    0.2501   -0.8948 C   0  0  0  0  0  0  0  0  0  0  0  0
    4.6979    0.1764   -1.4179 C   0  0  0  0  0  0  0  0  0  0  0  0
    5.7400    0.8143   -0.7281 C   0  0  0  0  0  0  0  0  0  0  0  0
    7.1317    0.9787   -0.9028 C   0  0  0  0  0  0  0  0  0  0  0  0
    7.6914    1.7059    0.0679 N   0  0  0  0  0  0  0  0  0  0  0  0
    6.6536    2.0068    0.8693 N   0  0  0  0  0  0  0  0  0  0  0  0
    5.4531    1.5026    0.4433 C   0  0  0  0  0  0  0  0  0  0  0  0
    4.1625    1.5889    0.9775 C   0  0  0  0  0  0  0  0  0  0  0  0
    0.7101   -1.1659    0.5649 C   0  0  0  0  0  0  0  0  0  0  0  0
    1.6223   -2.2238    0.7579 C   0  0  0  0  0  0  0  0  0  0  0  0
    1.0580   -3.4294    0.6166 N   0  0  0  0  0  0  0  0  0  0  0  0
   -0.2372   -3.1346    0.3563 N   0  0  0  0  0  0  0  0  0  0  0  0
   -1.1833   -4.2047    0.1655 C   0  0  0  0  0  0  0  0  0  0  0  0
   -0.4947   -1.7917    0.3162 C   0  0  0  0  0  0  0  0  0  0  0  0
   -1.6735   -1.1935    0.0914 N   0  0  0  0  0  0  0  0  0  0  0  0
   -5.6333   -0.3665    1.0344 H   0  0  0  0  0  0  0  0  0  0  0  0
   -7.0246    0.6199    1.4911 H   0  0  0  0  0  0  0  0  0  0  0  0
   -6.9750   -0.1412   -0.1076 H   0  0  0  0  0  0  0  0  0  0  0  0
   -5.0675    2.0493    0.8799 H   0  0  0  0  0  0  0  0  0  0  0  0
   -6.4706    2.3338   -0.1383 H   0  0  0  0  0  0  0  0  0  0  0  0
   -5.5303    0.9452   -1.9450 H   0  0  0  0  0  0  0  0  0  0  0  0
   -4.4886    2.2996   -1.5280 H   0  0  0  0  0  0  0  0  0  0  0  0
   -4.0725   -0.6090   -0.6604 H   0  0  0  0  0  0  0  0  0  0  0  0
   -3.2100    0.2330   -1.9553 H   0  0  0  0  0  0  0  0  0  0  0  0
   -2.4234    1.8507   -0.2139 H   0  0  0  0  0  0  0  0  0  0  0  0
    1.4968    2.0067    0.8111 H   0  0  0  0  0  0  0  0  0  0  0  0
    2.5972   -0.2262   -1.4570 H   0  0  0  0  0  0  0  0  0  0  0  0
    4.8869   -0.3600   -2.3431 H   0  0  0  0  0  0  0  0  0  0  0  0
    7.7573    0.5975   -1.6994 H   0  0  0  0  0  0  0  0  0  0  0  0
    6.8322    2.5632    1.6974 H   0  0  0  0  0  0  0  0  0  0  0  0
    3.9714    2.1302    1.8990 H   0  0  0  0  0  0  0  0  0  0  0  0
    2.6773   -2.1634    0.9936 H   0  0  0  0  0  0  0  0  0  0  0  0
   -2.1706   -3.7963   -0.0613 H   0  0  0  0  0  0  0  0  0  0  0  0
   -0.8394   -4.8236   -0.6672 H   0  0  0  0  0  0  0  0  0  0  0  0
   -1.2272   -4.7924    1.0859 H   0  0  0  0  0  0  0  0  0  0  0  0
  1  2  1  0
  2  3  1  0
  3  4  1  0
  4  5  1  0
  5  6  1  0
  6  7  2  0
  7  8  1  0
  8  9  1  0
  9 10  1  0
 10 11  2  0
 11 12  1  0
 12 13  2  0
 13 14  1  0
 14 15  2  0
 15 16  1  0
 16 17  1  0
 17 18  2  0
  8 19  2  0
 19 20  1  0
 20 21  2  0
 21 22  1  0
 22 23  1  0
 22 24  1  0
 24 25  2  0
 25  6  1  0
 18 10  1  0
 24 19  1  0
 17 13  1  0
  1 26  1  0
  1 27  1  0
  1 28  1  0
  2 29  1  0
  2 30  1  0
  3 31  1  0
  3 32  1  0
  4 33  1  0
  4 34  1  0
  5 35  1  0
  9 36  1  0
 11 37  1  0
 12 38  1  0
 14 39  1  0
 16 40  1  0
 18 41  1  0
 20 42  1  0
 23 43  1  0
 23 44  1  0
 23 45  1  0
M  END
>  <ScrubInfo>  (1) 
{"isomerGroup": 0, "isomerId": 0, "confId": 0, "nr_conformers:": 1, "nr_isomers:": 20}

$$$$
_i1
     RDKit          3D

 45 48  0  0  0  0  0  0  0  0999 V2000
    0.0553   -0.0861   -0.2608 N   0  0  0  0  0  0  0  0  0  0  0  0
    0.9202    0.8053   -0.8669 C   0  0  0  0  0  0  0  0  0  0  0  0
    2.1907    1.0609   -0.3836 N   0  0  0  0  0  0  0  0  0  0  0  0
    3.0664    0.1908    0.3029 C   0  0  0  0  0  0  0  0  0  0  0  0
    2.9143   -1.2030    0.3060 C   0  0  0  0  0  0  0  0  0  0  0  0
    3.7736   -2.0421    1.0341 C   0  0  0  0  0  0  0  0  0  0  0  0
    4.8056   -1.4622    1.7860 C   0  0  0  0  0  0  0  0  0  0  0  0
    5.8437   -1.9242    2.6245 C   0  0  0  0  0  0  0  0  0  0  0  0
    6.5848   -0.9305    3.1223 N   0  0  0  0  0  0  0  0  0  0  0  0
    6.0161    0.1723    2.6037 N   0  0  0  0  0  0  0  0  0  0  0  0
    4.9464   -0.0810    1.7855 C   0  0  0  0  0  0  0  0  0  0  0  0
    4.1003    0.7695    1.0631 C   0  0  0  0  0  0  0  0  0  0  0  0
    0.4063    1.4501   -1.9220 C   0  0  0  0  0  0  0  0  0  0  0  0
    0.8242    2.4773   -2.8823 C   0  0  0  0  0  0  0  0  0  0  0  0
   -0.1017    2.7705   -3.7594 N   0  0  0  0  0  0  0  0  0  0  0  0
   -1.1770    1.9159   -3.4656 N   0  0  0  0  0  0  0  0  0  0  0  0
   -2.4688    2.1932   -4.0461 C   0  0  0  0  0  0  0  0  0  0  0  0
   -0.9772    1.1303   -2.3416 C   0  0  0  0  0  0  0  0  0  0  0  0
   -1.7735    0.3095   -1.7458 N   0  0  0  0  0  0  0  0  0  0  0  0
   -1.2456   -0.3043   -0.6321 C   0  0  0  0  0  0  0  0  0  0  0  0
   -1.9699   -1.0859    0.0965 N   0  0  0  0  0  0  0  0  0  0  0  0
   -3.3589   -1.3300   -0.2920 C   0  0  0  0  0  0  0  0  0  0  0  0
   -4.2903   -0.2893    0.3314 C   0  0  0  0  0  0  0  0  0  0  0  0
   -4.2495   -0.2211    1.8612 C   0  0  0  0  0  0  0  0  0  0  0  0
   -4.6848   -1.5105    2.5398 C   0  0  0  0  0  0  0  0  0  0  0  0
    0.3328   -0.4664    0.6326 H   0  0  0  0  0  0  0  0  0  0  0  0
    2.6696    1.8582   -0.7890 H   0  0  0  0  0  0  0  0  0  0  0  0
    2.1400   -1.6775   -0.2930 H   0  0  0  0  0  0  0  0  0  0  0  0
    3.6385   -3.1195    1.0081 H   0  0  0  0  0  0  0  0  0  0  0  0
    6.0867   -2.9445    2.8913 H   0  0  0  0  0  0  0  0  0  0  0  0
    6.4098    1.0737    2.8479 H   0  0  0  0  0  0  0  0  0  0  0  0
    4.2306    1.8461    1.1051 H   0  0  0  0  0  0  0  0  0  0  0  0
    1.8172    2.9403   -2.8236 H   0  0  0  0  0  0  0  0  0  0  0  0
   -2.3613    2.5757   -5.0663 H   0  0  0  0  0  0  0  0  0  0  0  0
   -3.0787    1.2854   -4.0928 H   0  0  0  0  0  0  0  0  0  0  0  0
   -3.0015    2.9408   -3.4501 H   0  0  0  0  0  0  0  0  0  0  0  0
   -3.6358   -2.3343    0.0471 H   0  0  0  0  0  0  0  0  0  0  0  0
   -3.4926   -1.3516   -1.3804 H   0  0  0  0  0  0  0  0  0  0  0  0
   -5.3173   -0.5009    0.0095 H   0  0  0  0  0  0  0  0  0  0  0  0
   -4.0400    0.7038   -0.0612 H   0  0  0  0  0  0  0  0  0  0  0  0
   -3.2441    0.0494    2.2030 H   0  0  0  0  0  0  0  0  0  0  0  0
   -4.9170    0.5857    2.1873 H   0  0  0  0  0  0  0  0  0  0  0  0
   -3.9777   -2.3229    2.3484 H   0  0  0  0  0  0  0  0  0  0  0  0
   -5.6749   -1.8227    2.1933 H   0  0  0  0  0  0  0  0  0  0  0  0
   -4.7356   -1.3653    3.6238 H   0  0  0  0  0  0  0  0  0  0  0  0
  1  2  1  0
  2  3  1  0
  3  4  1  0
  4  5  2  0
  5  6  1  0
  6  7  2  0
  7  8  1  0
  8  9  2  0
  9 10  1  0
 10 11  1  0
 11 12  2  0
  2 13  2  0
 13 14  1  0
 14 15  2  0
 15 16  1  0
 16 17  1  0
 16 18  1  0
 18 19  2  0
 19 20  1  0
 20 21  2  3
 21 22  1  0
 22 23  1  0
 23 24  1  0
 24 25  1  0
 20  1  1  0
 12  4  1  0
 18 13  1  0
 11  7  1  0
  1 26  1  0
  3 27  1  0
  5 28  1  0
  6 29  1  0
  8 30  1  0
 10 31  1  0
 12 32  1  0
 14 33  1  0
 17 34  1  0
 17 35  1  0
 17 36  1  0
 22 37  1  0
 22 38  1  0
 23 39  1  0
 23 40  1  0
 24 41  1  0
 24 42  1  0
 25 43  1  0
 25 44  1  0
 25 45  1  0
M  END
>  <ScrubInfo>  (2) 
{"isomerGroup": 0, "isomerId": 1, "confId": 0, "nr_conformers:": 1, "nr_isomers:": 20}

$$$$
_i2
     RDKit          3D

 45 48  0  0  0  0  0  0  0  0999 V2000
   -0.7402    0.5153    0.4876 N   0  0  0  0  0  0  0  0  0  0  0  0
   -1.6098    0.9444   -0.4820 C   0  0  0  0  0  0  0  0  0  0  0  0
   -2.9198    1.0675   -0.1131 N   0  0  0  0  0  0  0  0  0  0  0  0
   -3.6332    0.0138    0.5967 C   0  0  0  0  0  0  0  0  0  0  0  0
   -5.0815    0.4463    0.8288 C   0  0  0  0  0  0  0  0  0  0  0  0
   -5.8816   -0.5435    1.6774 C   0  0  0  0  0  0  0  0  0  0  0  0
   -6.0777   -1.8951    1.0085 C   0  0  0  0  0  0  0  0  0  0  0  0
   -1.2531    1.2471   -1.7047 N   0  0  0  0  0  0  0  0  0  0  0  0
    0.0844    1.0629   -1.8951 C   0  0  0  0  0  0  0  0  0  0  0  0
    1.0374    0.6379   -0.9806 C   0  0  0  0  0  0  0  0  0  0  0  0
    2.2379    0.6225   -1.7125 C   0  0  0  0  0  0  0  0  0  0  0  0
    2.0738    1.0010   -2.9866 N   0  0  0  0  0  0  0  0  0  0  0  0
    0.7516    1.2716   -3.0693 N   0  0  0  0  0  0  0  0  0  0  0  0
    0.2012    1.7240   -4.3221 C   0  0  0  0  0  0  0  0  0  0  0  0
    0.6199    0.3431    0.3767 C   0  0  0  0  0  0  0  0  0  0  0  0
    1.3435   -0.0212    1.3915 N   0  0  0  0  0  0  0  0  0  0  0  0
    2.7266   -0.1864    1.2947 C   0  0  0  0  0  0  0  0  0  0  0  0
    3.5777    0.8918    1.5593 C   0  0  0  0  0  0  0  0  0  0  0  0
    4.9717    0.7515    1.5004 C   0  0  0  0  0  0  0  0  0  0  0  0
    5.5076   -0.5080    1.1845 C   0  0  0  0  0  0  0  0  0  0  0  0
    6.7991   -1.0582    1.0293 C   0  0  0  0  0  0  0  0  0  0  0  0
    6.7735   -2.3582    0.7229 N   0  0  0  0  0  0  0  0  0  0  0  0
    5.4594   -2.6429    0.6814 N   0  0  0  0  0  0  0  0  0  0  0  0
    4.6463   -1.5731    0.9477 C   0  0  0  0  0  0  0  0  0  0  0  0
    3.2538   -1.4519    1.0038 C   0  0  0  0  0  0  0  0  0  0  0  0
   -1.0861    0.4604    1.4308 H   0  0  0  0  0  0  0  0  0  0  0  0
   -3.4465    1.3931   -0.9222 H   0  0  0  0  0  0  0  0  0  0  0  0
   -3.1555   -0.1857    1.5619 H   0  0  0  0  0  0  0  0  0  0  0  0
   -3.5978   -0.9054    0.0024 H   0  0  0  0  0  0  0  0  0  0  0  0
   -5.0892    1.4204    1.3347 H   0  0  0  0  0  0  0  0  0  0  0  0
   -5.5839    0.5966   -0.1352 H   0  0  0  0  0  0  0  0  0  0  0  0
   -6.8676   -0.1089    1.8809 H   0  0  0  0  0  0  0  0  0  0  0  0
   -5.3915   -0.6845    2.6478 H   0  0  0  0  0  0  0  0  0  0  0  0
   -5.1284   -2.4254    0.8894 H   0  0  0  0  0  0  0  0  0  0  0  0
   -6.5383   -1.7824    0.0220 H   0  0  0  0  0  0  0  0  0  0  0  0
   -6.7338   -2.5242    1.6187 H   0  0  0  0  0  0  0  0  0  0  0  0
    3.2348    0.3539   -1.3920 H   0  0  0  0  0  0  0  0  0  0  0  0
   -0.8590    1.9585   -4.2055 H   0  0  0  0  0  0  0  0  0  0  0  0
    0.7440    2.6203   -4.6334 H   0  0  0  0  0  0  0  0  0  0  0  0
    0.3265    0.9267   -5.0591 H   0  0  0  0  0  0  0  0  0  0  0  0
    3.1505    1.8589    1.8141 H   0  0  0  0  0  0  0  0  0  0  0  0
    5.6181    1.6006    1.7005 H   0  0  0  0  0  0  0  0  0  0  0  0
    7.7556   -0.5620    1.1294 H   0  0  0  0  0  0  0  0  0  0  0  0
    5.1805   -3.5924    0.4625 H   0  0  0  0  0  0  0  0  0  0  0  0
    2.5990   -2.2982    0.8273 H   0  0  0  0  0  0  0  0  0  0  0  0
  1  2  1  0
  2  3  1  0
  3  4  1  0
  4  5  1  0
  5  6  1  0
  6  7  1  0
  2  8  2  0
  8  9  1  0
  9 10  2  0
 10 11  1  0
 11 12  2  0
 12 13  1  0
 13 14  1  0
 10 15  1  0
 15 16  2  3
 16 17  1  0
 17 18  2  0
 18 19  1  0
 19 20  2  0
 20 21  1  0
 21 22  2  0
 22 23  1  0
 23 24  1  0
 24 25  2  0
 15  1  1  0
 25 17  1  0
 13  9  1  0
 24 20  1  0
  1 26  1  0
  3 27  1  0
  4 28  1  0
  4 29  1  0
  5 30  1  0
  5 31  1  0
  6 32  1  0
  6 33  1  0
  7 34  1  0
  7 35  1  0
  7 36  1  0
 11 37  1  0
 14 38  1  0
 14 39  1  0
 14 40  1  0
 18 41  1  0
 19 42  1  0
 21 43  1  0
 23 44  1  0
 25 45  1  0
M  END
>  <ScrubInfo>  (3) 
{"isomerGroup": 0, "isomerId": 2, "confId": 0, "nr_conformers:": 1, "nr_isomers:": 20}

$$$$
_i3
     RDKit          3D

 45 48  0  0  0  0  0  0  0  0999 V2000
    1.4126   -1.4890    0.3995 N   0  0  0  0  0  0  0  0  0  0  0  0
    1.5719   -0.1676    0.0108 C   0  0  0  0  0  0  0  0  0  0  0  0
    2.6507    0.5260    0.1035 N   0  0  0  0  0  0  0  0  0  0  0  0
    3.8506   -0.0828    0.6591 C   0  0  0  0  0  0  0  0  0  0  0  0
    4.9835    0.9443    0.6530 C   0  0  0  0  0  0  0  0  0  0  0  0
    5.4373    1.3074   -0.7628 C   0  0  0  0  0  0  0  0  0  0  0  0
    6.5920    2.2967   -0.7389 C   0  0  0  0  0  0  0  0  0  0  0  0
    0.5195    0.5506   -0.5394 N   0  0  0  0  0  0  0  0  0  0  0  0
   -0.6453   -0.0144   -0.6813 C   0  0  0  0  0  0  0  0  0  0  0  0
   -1.7208    0.6322   -1.2370 N   0  0  0  0  0  0  0  0  0  0  0  0
   -2.9544    0.8428   -0.5598 C   0  0  0  0  0  0  0  0  0  0  0  0
   -3.0676    0.7982    0.8374 C   0  0  0  0  0  0  0  0  0  0  0  0
   -4.2880    1.0521    1.4824 C   0  0  0  0  0  0  0  0  0  0  0  0
   -5.4100    1.3743    0.7033 C   0  0  0  0  0  0  0  0  0  0  0  0
   -6.7655    1.6883    0.9450 C   0  0  0  0  0  0  0  0  0  0  0  0
   -7.4464    1.9337   -0.1777 N   0  0  0  0  0  0  0  0  0  0  0  0
   -6.5231    1.7762   -1.1430 N   0  0  0  0  0  0  0  0  0  0  0  0
   -5.2787    1.4402   -0.6779 C   0  0  0  0  0  0  0  0  0  0  0  0
   -4.0707    1.1934   -1.3396 C   0  0  0  0  0  0  0  0  0  0  0  0
   -0.8446   -1.3963   -0.3136 C   0  0  0  0  0  0  0  0  0  0  0  0
   -1.8758   -2.3462   -0.3566 C   0  0  0  0  0  0  0  0  0  0  0  0
   -1.4921   -3.5360    0.1337 N   0  0  0  0  0  0  0  0  0  0  0  0
   -0.1965   -3.3416    0.4823 N   0  0  0  0  0  0  0  0  0  0  0  0
    0.5479   -4.4382    1.0468 C   0  0  0  0  0  0  0  0  0  0  0  0
    0.2157   -2.0736    0.2210 C   0  0  0  0  0  0  0  0  0  0  0  0
    2.2189   -1.9614    0.7782 H   0  0  0  0  0  0  0  0  0  0  0  0
    4.1509   -0.9633    0.0788 H   0  0  0  0  0  0  0  0  0  0  0  0
    3.6706   -0.3928    1.6953 H   0  0  0  0  0  0  0  0  0  0  0  0
    5.8339    0.5297    1.2080 H   0  0  0  0  0  0  0  0  0  0  0  0
    4.6641    1.8510    1.1815 H   0  0  0  0  0  0  0  0  0  0  0  0
    5.7509    0.4025   -1.2962 H   0  0  0  0  0  0  0  0  0  0  0  0
    4.6062    1.7451   -1.3272 H   0  0  0  0  0  0  0  0  0  0  0  0
    7.4564    1.8786   -0.2132 H   0  0  0  0  0  0  0  0  0  0  0  0
    6.9016    2.5425   -1.7595 H   0  0  0  0  0  0  0  0  0  0  0  0
    6.3017    3.2262   -0.2387 H   0  0  0  0  0  0  0  0  0  0  0  0
   -1.4035    1.5414   -1.5718 H   0  0  0  0  0  0  0  0  0  0  0  0
   -2.2022    0.5734    1.4578 H   0  0  0  0  0  0  0  0  0  0  0  0
   -4.3553    1.0054    2.5654 H   0  0  0  0  0  0  0  0  0  0  0  0
   -7.2810    1.7483    1.8947 H   0  0  0  0  0  0  0  0  0  0  0  0
   -6.8082    1.9124   -2.1060 H   0  0  0  0  0  0  0  0  0  0  0  0
   -4.0008    1.2521   -2.4214 H   0  0  0  0  0  0  0  0  0  0  0  0
   -2.8892   -2.2318   -0.7194 H   0  0  0  0  0  0  0  0  0  0  0  0
    0.6099   -5.2326    0.2988 H   0  0  0  0  0  0  0  0  0  0  0  0
    0.0212   -4.7911    1.9371 H   0  0  0  0  0  0  0  0  0  0  0  0
    1.5515   -4.1060    1.3200 H   0  0  0  0  0  0  0  0  0  0  0  0
  1  2  1  0
  2  3  2  3
  3  4  1  0
  4  5  1  0
  5  6  1  0
  6  7  1  0
  2  8  1  0
  8  9  2  0
  9 10  1  0
 10 11  1  0
 11 12  2  0
 12 13  1  0
 13 14  2  0
 14 15  1  0
 15 16  2  0
 16 17  1  0
 17 18  1  0
 18 19  2  0
  9 20  1  0
 20 21  1  0
 21 22  2  0
 22 23  1  0
 23 24  1  0
 23 25  1  0
 25  1  1  0
 19 11  1  0
 25 20  2  0
 18 14  1  0
  1 26  1  0
  4 27  1  0
  4 28  1  0
  5 29  1  0
  5 30  1  0
  6 31  1  0
  6 32  1  0
  7 33  1  0
  7 34  1  0
  7 35  1  0
 10 36  1  0
 12 37  1  0
 13 38  1  0
 15 39  1  0
 17 40  1  0
 19 41  1  0
 21 42  1  0
 24 43  1  0
 24 44  1  0
 24 45  1  0
M  END
>  <ScrubInfo>  (4) 
{"isomerGroup": 0, "isomerId": 3, "confId": 0, "nr_conformers:": 1, "nr_isomers:": 20}

$$$$
_i4
     RDKit          3D

 45 48  0  0  0  0  0  0  0  0999 V2000
   -6.9148    0.8433   -2.1459 N   0  0  0  0  0  0  0  0  0  0  0  0
   -5.8269    0.5893   -2.9307 C   0  0  0  0  0  0  0  0  0  0  0  0
   -4.8153    0.3478   -2.0453 C   0  0  0  0  0  0  0  0  0  0  0  0
   -3.5057    0.0413   -2.3770 C   0  0  0  0  0  0  0  0  0  0  0  0
   -2.7232   -0.1473   -1.2130 C   0  0  0  0  0  0  0  0  0  0  0  0
   -3.2077   -0.0456    0.1377 C   0  0  0  0  0  0  0  0  0  0  0  0
   -2.3573   -0.2177    1.2577 N   0  0  0  0  0  0  0  0  0  0  0  0
   -0.9621   -0.2810    1.3869 C   0  0  0  0  0  0  0  0  0  0  0  0
   -0.1304    0.0033    0.3499 N   0  0  0  0  0  0  0  0  0  0  0  0
    1.2054   -0.0418    0.4996 C   0  0  0  0  0  0  0  0  0  0  0  0
    1.9219    0.2651   -0.6522 N   0  0  0  0  0  0  0  0  0  0  0  0
    3.1517    1.0013   -0.4212 C   0  0  0  0  0  0  0  0  0  0  0  0
    3.8028    1.3719   -1.7570 C   0  0  0  0  0  0  0  0  0  0  0  0
    4.2173    0.1804   -2.6267 C   0  0  0  0  0  0  0  0  0  0  0  0
    5.2626   -0.7131   -1.9773 C   0  0  0  0  0  0  0  0  0  0  0  0
    1.8543   -0.3437    1.6313 N   0  0  0  0  0  0  0  0  0  0  0  0
    1.0238   -0.6188    2.6462 C   0  0  0  0  0  0  0  0  0  0  0  0
   -0.3565   -0.6064    2.6075 C   0  0  0  0  0  0  0  0  0  0  0  0
   -0.7447   -0.9569    3.9178 C   0  0  0  0  0  0  0  0  0  0  0  0
    0.2956   -1.1737    4.7303 N   0  0  0  0  0  0  0  0  0  0  0  0
    1.3638   -0.9673    3.9246 N   0  0  0  0  0  0  0  0  0  0  0  0
    2.6943   -1.1234    4.4559 C   0  0  0  0  0  0  0  0  0  0  0  0
   -4.5656    0.2789    0.4103 C   0  0  0  0  0  0  0  0  0  0  0  0
   -5.3695    0.4727   -0.7255 C   0  0  0  0  0  0  0  0  0  0  0  0
   -6.6745    0.7814   -0.8211 N   0  0  0  0  0  0  0  0  0  0  0  0
   -7.8574    1.0673   -2.4462 H   0  0  0  0  0  0  0  0  0  0  0  0
   -5.8834    0.6068   -4.0090 H   0  0  0  0  0  0  0  0  0  0  0  0
   -3.1085   -0.0509   -3.3775 H   0  0  0  0  0  0  0  0  0  0  0  0
   -1.6794   -0.4106   -1.3779 H   0  0  0  0  0  0  0  0  0  0  0  0
   -2.8553   -0.3424    2.1285 H   0  0  0  0  0  0  0  0  0  0  0  0
    1.2535    0.7209   -1.2656 H   0  0  0  0  0  0  0  0  0  0  0  0
    2.9362    1.9288    0.1249 H   0  0  0  0  0  0  0  0  0  0  0  0
    3.8561    0.4187    0.1834 H   0  0  0  0  0  0  0  0  0  0  0  0
    4.6853    1.9920   -1.5566 H   0  0  0  0  0  0  0  0  0  0  0  0
    3.1082    1.9946   -2.3352 H   0  0  0  0  0  0  0  0  0  0  0  0
    4.6270    0.5676   -3.5675 H   0  0  0  0  0  0  0  0  0  0  0  0
    3.3400   -0.4200   -2.8931 H   0  0  0  0  0  0  0  0  0  0  0  0
    5.5947   -1.4784   -2.6862 H   0  0  0  0  0  0  0  0  0  0  0  0
    6.1388   -0.1340   -1.6692 H   0  0  0  0  0  0  0  0  0  0  0  0
    4.8606   -1.2283   -1.1000 H   0  0  0  0  0  0  0  0  0  0  0  0
   -1.7439   -1.0653    4.3188 H   0  0  0  0  0  0  0  0  0  0  0  0
    3.4347   -0.9302    3.6764 H   0  0  0  0  0  0  0  0  0  0  0  0
    2.8005   -2.1480    4.8213 H   0  0  0  0  0  0  0  0  0  0  0  0
    2.8232   -0.4105    5.2742 H   0  0  0  0  0  0  0  0  0  0  0  0
   -4.9701    0.3819    1.4066 H   0  0  0  0  0  0  0  0  0  0  0  0
  1  2  1  0
  2  3  2  0
  3  4  1  0
  4  5  2  0
  5  6  1  0
  6  7  1  0
  7  8  1  0
  8  9  2  0
  9 10  1  0
 10 11  1  0
 11 12  1  0
 12 13  1  0
 13 14  1  0
 14 15  1  0
 10 16  2  0
 16 17  1  0
 17 18  2  0
 18 19  1  0
 19 20  2  0
 20 21  1  0
 21 22  1  0
  6 23  2  0
 23 24  1  0
 24 25  2  0
 25  1  1  0
 24  3  1  0
 18  8  1  0
 21 17  1  0
  1 26  1  0
  2 27  1  0
  4 28  1  0
  5 29  1  0
  7 30  1  0
 11 31  1  0
 12 32  1  0
 12 33  1  0
 13 34  1  0
 13 35  1  0
 14 36  1  0
 14 37  1  0
 15 38  1  0
 15 39  1  0
 15 40  1  0
 19 41  1  0
 22 42  1  0
 22 43  1  0
 22 44  1  0
 23 45  1  0
M  END
>  <ScrubInfo>  (5) 
{"isomerGroup": 0, "isomerId": 4, "confId": 0, "nr_conformers:": 1, "nr_isomers:": 20}

$$$$
_i5
     RDKit          3D

 45 48  0  0  0  0  0  0  0  0999 V2000
   -1.2108   -2.5700    0.9946 N   0  0  0  0  0  0  0  0  0  0  0  0
   -1.7357   -1.4031    0.4491 C   0  0  0  0  0  0  0  0  0  0  0  0
   -0.8111   -0.6169   -0.1238 C   0  0  0  0  0  0  0  0  0  0  0  0
   -0.7276    0.6461   -0.8466 C   0  0  0  0  0  0  0  0  0  0  0  0
   -1.6379    1.5207   -1.1216 N   0  0  0  0  0  0  0  0  0  0  0  0
   -2.9565    1.3333   -0.7023 C   0  0  0  0  0  0  0  0  0  0  0  0
   -3.3689    1.8162    0.5442 C   0  0  0  0  0  0  0  0  0  0  0  0
   -4.6886    1.6525    0.9891 C   0  0  0  0  0  0  0  0  0  0  0  0
   -5.6054    1.0015    0.1470 C   0  0  0  0  0  0  0  0  0  0  0  0
   -6.9707    0.6447    0.2056 C   0  0  0  0  0  0  0  0  0  0  0  0
   -7.3891    0.0187   -0.8977 N   0  0  0  0  0  0  0  0  0  0  0  0
   -6.2925   -0.0065   -1.6772 N   0  0  0  0  0  0  0  0  0  0  0  0
   -5.1837    0.5531   -1.0994 C   0  0  0  0  0  0  0  0  0  0  0  0
   -3.8728    0.7105   -1.5603 C   0  0  0  0  0  0  0  0  0  0  0  0
    0.5285    0.9400   -1.3069 N   0  0  0  0  0  0  0  0  0  0  0  0
    1.5681    0.1958   -1.0699 C   0  0  0  0  0  0  0  0  0  0  0  0
    2.7457    0.6276   -1.6062 N   0  0  0  0  0  0  0  0  0  0  0  0
    4.0486    0.2453   -1.1098 C   0  0  0  0  0  0  0  0  0  0  0  0
    4.3763    0.9971    0.1798 C   0  0  0  0  0  0  0  0  0  0  0  0
    5.7680    0.6341    0.6959 C   0  0  0  0  0  0  0  0  0  0  0  0
    6.0981    1.3794    1.9793 C   0  0  0  0  0  0  0  0  0  0  0  0
    1.5669   -0.9573   -0.3325 N   0  0  0  0  0  0  0  0  0  0  0  0
    0.4373   -1.3587    0.1346 C   0  0  0  0  0  0  0  0  0  0  0  0
    0.1714   -2.4899    0.9082 N   0  0  0  0  0  0  0  0  0  0  0  0
    0.9380   -3.7085    0.7307 C   0  0  0  0  0  0  0  0  0  0  0  0
   -1.5940   -2.7948    1.9157 H   0  0  0  0  0  0  0  0  0  0  0  0
   -2.7992   -1.2347    0.5332 H   0  0  0  0  0  0  0  0  0  0  0  0
   -2.6512    2.3331    1.1773 H   0  0  0  0  0  0  0  0  0  0  0  0
   -4.9914    2.0317    1.9604 H   0  0  0  0  0  0  0  0  0  0  0  0
   -7.6745    0.8158    1.0097 H   0  0  0  0  0  0  0  0  0  0  0  0
   -6.3654   -0.4259   -2.5971 H   0  0  0  0  0  0  0  0  0  0  0  0
   -3.5647    0.3685   -2.5428 H   0  0  0  0  0  0  0  0  0  0  0  0
    2.6681    1.5695   -1.9716 H   0  0  0  0  0  0  0  0  0  0  0  0
    4.7928    0.4900   -1.8762 H   0  0  0  0  0  0  0  0  0  0  0  0
    4.1044   -0.8383   -0.9544 H   0  0  0  0  0  0  0  0  0  0  0  0
    4.3182    2.0782    0.0006 H   0  0  0  0  0  0  0  0  0  0  0  0
    3.6284    0.7661    0.9484 H   0  0  0  0  0  0  0  0  0  0  0  0
    5.8264   -0.4447    0.8815 H   0  0  0  0  0  0  0  0  0  0  0  0
    6.5214    0.8743   -0.0633 H   0  0  0  0  0  0  0  0  0  0  0  0
    5.3813    1.1357    2.7699 H   0  0  0  0  0  0  0  0  0  0  0  0
    7.0977    1.1049    2.3306 H   0  0  0  0  0  0  0  0  0  0  0  0
    6.0794    2.4623    1.8200 H   0  0  0  0  0  0  0  0  0  0  0  0
    0.7723   -4.1313   -0.2657 H   0  0  0  0  0  0  0  0  0  0  0  0
    0.6465   -4.4538    1.4778 H   0  0  0  0  0  0  0  0  0  0  0  0
    2.0079   -3.5122    0.8549 H   0  0  0  0  0  0  0  0  0  0  0  0
  1  2  1  0
  2  3  2  0
  3  4  1  0
  4  5  2  3
  5  6  1  0
  6  7  2  0
  7  8  1  0
  8  9  2  0
  9 10  1  0
 10 11  2  0
 11 12  1  0
 12 13  1  0
 13 14  2  0
  4 15  1  0
 15 16  2  0
 16 17  1  0
 17 18  1  0
 18 19  1  0
 19 20  1  0
 20 21  1  0
 16 22  1  0
 22 23  2  0
 23 24  1  0
 24 25  1  0
 24  1  1  0
 23  3  1  0
 14  6  1  0
 13  9  1  0
  1 26  1  0
  2 27  1  0
  7 28  1  0
  8 29  1  0
 10 30  1  0
 12 31  1  0
 14 32  1  0
 17 33  1  0
 18 34  1  0
 18 35  1  0
 19 36  1  0
 19 37  1  0
 20 38  1  0
 20 39  1  0
 21 40  1  0
 21 41  1  0
 21 42  1  0
 25 43  1  0
 25 44  1  0
 25 45  1  0
M  END
>  <ScrubInfo>  (6) 
{"isomerGroup": 0, "isomerId": 5, "confId": 0, "nr_conformers:": 1, "nr_isomers:": 20}

$$$$
_i6
     RDKit          3D

 45 48  0  0  0  0  0  0  0  0999 V2000
   -1.3237   -1.8216    0.7867 N   0  0  0  0  0  0  0  0  0  0  0  0
   -0.6638   -0.6145    0.7530 C   0  0  0  0  0  0  0  0  0  0  0  0
   -1.4443    0.4828    0.9824 N   0  0  0  0  0  0  0  0  0  0  0  0
   -2.6531    0.7347    0.2067 C   0  0  0  0  0  0  0  0  0  0  0  0
   -3.2955    2.0402    0.6766 C   0  0  0  0  0  0  0  0  0  0  0  0
   -4.6388    2.3312    0.0052 C   0  0  0  0  0  0  0  0  0  0  0  0
   -4.5276    2.5762   -1.4916 C   0  0  0  0  0  0  0  0  0  0  0  0
    0.6133   -0.4493    0.5412 N   0  0  0  0  0  0  0  0  0  0  0  0
    1.4104   -1.5649    0.3170 C   0  0  0  0  0  0  0  0  0  0  0  0
    2.6799   -1.5179    0.0660 N   0  0  0  0  0  0  0  0  0  0  0  0
    3.2974   -0.2605    0.0159 C   0  0  0  0  0  0  0  0  0  0  0  0
    3.8110    0.3164    1.1826 C   0  0  0  0  0  0  0  0  0  0  0  0
    4.4570    1.5612    1.1593 C   0  0  0  0  0  0  0  0  0  0  0  0
    4.5933    2.2240   -0.0716 C   0  0  0  0  0  0  0  0  0  0  0  0
    5.1516    3.4415   -0.5203 C   0  0  0  0  0  0  0  0  0  0  0  0
    5.0225    3.6156   -1.8388 N   0  0  0  0  0  0  0  0  0  0  0  0
    4.3849    2.4994   -2.2378 N   0  0  0  0  0  0  0  0  0  0  0  0
    4.0931    1.6277   -1.2231 C   0  0  0  0  0  0  0  0  0  0  0  0
    3.4477    0.3867   -1.2179 C   0  0  0  0  0  0  0  0  0  0  0  0
    0.7669   -2.8526    0.3740 C   0  0  0  0  0  0  0  0  0  0  0  0
    1.1737   -4.1878    0.2536 C   0  0  0  0  0  0  0  0  0  0  0  0
    0.1527   -5.0465    0.4150 N   0  0  0  0  0  0  0  0  0  0  0  0
   -0.9151   -4.2411    0.6435 N   0  0  0  0  0  0  0  0  0  0  0  0
   -2.2074   -4.8373    0.8646 C   0  0  0  0  0  0  0  0  0  0  0  0
   -0.5771   -2.9259    0.6139 C   0  0  0  0  0  0  0  0  0  0  0  0
   -2.2571   -1.8258    1.1744 H   0  0  0  0  0  0  0  0  0  0  0  0
   -0.8331    1.2992    0.9696 H   0  0  0  0  0  0  0  0  0  0  0  0
   -3.3652   -0.0878    0.3344 H   0  0  0  0  0  0  0  0  0  0  0  0
   -2.3909    0.7959   -0.8549 H   0  0  0  0  0  0  0  0  0  0  0  0
   -3.4545    1.9924    1.7616 H   0  0  0  0  0  0  0  0  0  0  0  0
   -2.6070    2.8770    0.5034 H   0  0  0  0  0  0  0  0  0  0  0  0
   -5.0750    3.2220    0.4727 H   0  0  0  0  0  0  0  0  0  0  0  0
   -5.3347    1.5043    0.1888 H   0  0  0  0  0  0  0  0  0  0  0  0
   -3.8143    3.3780   -1.7069 H   0  0  0  0  0  0  0  0  0  0  0  0
   -5.5009    2.8709   -1.8970 H   0  0  0  0  0  0  0  0  0  0  0  0
   -4.2073    1.6752   -2.0229 H   0  0  0  0  0  0  0  0  0  0  0  0
    3.7019   -0.2109    2.1269 H   0  0  0  0  0  0  0  0  0  0  0  0
    4.8427    1.9957    2.0760 H   0  0  0  0  0  0  0  0  0  0  0  0
    5.6464    4.2064    0.0635 H   0  0  0  0  0  0  0  0  0  0  0  0
    4.1741    2.3918   -3.2230 H   0  0  0  0  0  0  0  0  0  0  0  0
    3.0697   -0.0664   -2.1274 H   0  0  0  0  0  0  0  0  0  0  0  0
    2.1666   -4.5739    0.0613 H   0  0  0  0  0  0  0  0  0  0  0  0
   -2.4426   -5.4800    0.0124 H   0  0  0  0  0  0  0  0  0  0  0  0
   -2.9661   -4.0574    0.9580 H   0  0  0  0  0  0  0  0  0  0  0  0
   -2.1617   -5.4243    1.7854 H   0  0  0  0  0  0  0  0  0  0  0  0
  1  2  1  0
  2  3  1  0
  3  4  1  0
  4  5  1  0
  5  6  1  0
  6  7  1  0
  2  8  2  0
  8  9  1  0
  9 10  2  3
 10 11  1  0
 11 12  2  0
 12 13  1  0
 13 14  2  0
 14 15  1  0
 15 16  2  0
 16 17  1  0
 17 18  1  0
 18 19  2  0
  9 20  1  0
 20 21  1  0
 21 22  2  0
 22 23  1  0
 23 24  1  0
 23 25  1  0
 25  1  1  0
 19 11  1  0
 25 20  2  0
 18 14  1  0
  1 26  1  0
  3 27  1  0
  4 28  1  0
  4 29  1  0
  5 30  1  0
  5 31  1  0
  6 32  1  0
  6 33  1  0
  7 34  1  0
  7 35  1  0
  7 36  1  0
 12 37  1  0
 13 38  1  0
 15 39  1  0
 17 40  1  0
 19 41  1  0
 21 42  1  0
 24 43  1  0
 24 44  1  0
 24 45  1  0
M  END
>  <ScrubInfo>  (7) 
{"isomerGroup": 0, "isomerId": 6, "confId": 0, "nr_conformers:": 1, "nr_isomers:": 20}

$$$$
_i7
     RDKit          3D

 45 48  0  0  0  0  0  0  0  0999 V2000
   -5.0031   -3.2176   -0.6964 N   0  0  0  0  0  0  0  0  0  0  0  0
   -5.4136   -2.7906    0.5652 C   0  0  0  0  0  0  0  0  0  0  0  0
   -4.6409   -1.7783    0.9961 C   0  0  0  0  0  0  0  0  0  0  0  0
   -4.6601   -1.0438    2.2217 C   0  0  0  0  0  0  0  0  0  0  0  0
   -3.7146   -0.1121    2.4167 C   0  0  0  0  0  0  0  0  0  0  0  0
   -2.6496    0.1806    1.3877 C   0  0  0  0  0  0  0  0  0  0  0  0
   -1.7815    1.0917    1.7125 N   0  0  0  0  0  0  0  0  0  0  0  0
   -0.7387    1.4165    0.8518 C   0  0  0  0  0  0  0  0  0  0  0  0
    0.1300    0.4687    0.4544 N   0  0  0  0  0  0  0  0  0  0  0  0
    1.1533    0.8259   -0.3419 C   0  0  0  0  0  0  0  0  0  0  0  0
    2.0446   -0.1454   -0.7899 N   0  0  0  0  0  0  0  0  0  0  0  0
    2.2992   -1.2104    0.1666 C   0  0  0  0  0  0  0  0  0  0  0  0
    3.3389   -2.1884   -0.3884 C   0  0  0  0  0  0  0  0  0  0  0  0
    4.7507   -1.5982   -0.4322 C   0  0  0  0  0  0  0  0  0  0  0  0
    5.7649   -2.6231   -0.9165 C   0  0  0  0  0  0  0  0  0  0  0  0
    1.4154    2.0690   -0.7792 N   0  0  0  0  0  0  0  0  0  0  0  0
    0.5325    2.9791   -0.3359 C   0  0  0  0  0  0  0  0  0  0  0  0
   -0.5544    2.7343    0.4772 C   0  0  0  0  0  0  0  0  0  0  0  0
   -1.1539    3.9913    0.6684 C   0  0  0  0  0  0  0  0  0  0  0  0
   -0.5112    4.9724    0.0213 N   0  0  0  0  0  0  0  0  0  0  0  0
    0.5138    4.3246   -0.5838 N   0  0  0  0  0  0  0  0  0  0  0  0
    1.4457    5.0708   -1.3908 C   0  0  0  0  0  0  0  0  0  0  0  0
   -2.7224   -0.5914    0.0957 C   0  0  0  0  0  0  0  0  0  0  0  0
   -3.6897   -1.4953   -0.0743 C   0  0  0  0  0  0  0  0  0  0  0  0
   -4.0078   -2.3428   -1.1274 N   0  0  0  0  0  0  0  0  0  0  0  0
   -5.7850   -3.3570   -1.3406 H   0  0  0  0  0  0  0  0  0  0  0  0
   -6.2547   -3.2657    1.0473 H   0  0  0  0  0  0  0  0  0  0  0  0
   -5.4158   -1.2540    2.9686 H   0  0  0  0  0  0  0  0  0  0  0  0
   -3.6688    0.4686    3.3310 H   0  0  0  0  0  0  0  0  0  0  0  0
    2.8619    0.3659   -1.1046 H   0  0  0  0  0  0  0  0  0  0  0  0
    2.6464   -0.8035    1.1247 H   0  0  0  0  0  0  0  0  0  0  0  0
    1.3770   -1.7754    0.3517 H   0  0  0  0  0  0  0  0  0  0  0  0
    3.3486   -3.0796    0.2515 H   0  0  0  0  0  0  0  0  0  0  0  0
    3.0440   -2.5178   -1.3925 H   0  0  0  0  0  0  0  0  0  0  0  0
    5.0402   -1.2517    0.5667 H   0  0  0  0  0  0  0  0  0  0  0  0
    4.7820   -0.7299   -1.0990 H   0  0  0  0  0  0  0  0  0  0  0  0
    6.7666   -2.1826   -0.9409 H   0  0  0  0  0  0  0  0  0  0  0  0
    5.7926   -3.4925   -0.2520 H   0  0  0  0  0  0  0  0  0  0  0  0
    5.5210   -2.9691   -1.9260 H   0  0  0  0  0  0  0  0  0  0  0  0
   -2.0340    4.2303    1.2515 H   0  0  0  0  0  0  0  0  0  0  0  0
    0.8907    5.5548   -2.1984 H   0  0  0  0  0  0  0  0  0  0  0  0
    2.1989    4.3998   -1.8098 H   0  0  0  0  0  0  0  0  0  0  0  0
    1.9276    5.8189   -0.7562 H   0  0  0  0  0  0  0  0  0  0  0  0
   -2.0022   -0.3897   -0.6836 H   0  0  0  0  0  0  0  0  0  0  0  0
   -3.1846   -2.7569   -1.5681 H   0  0  0  0  0  0  0  0  0  0  0  0
  1  2  1  0
  2  3  2  0
  3  4  1  0
  4  5  2  0
  5  6  1  0
  6  7  2  3
  7  8  1  0
  8  9  2  0
  9 10  1  0
 10 11  1  0
 11 12  1  0
 12 13  1  0
 13 14  1  0
 14 15  1  0
 10 16  2  0
 16 17  1  0
 17 18  2  0
 18 19  1  0
 19 20  2  0
 20 21  1  0
 21 22  1  0
  6 23  1  0
 23 24  2  0
 24 25  1  0
 25  1  1  0
 24  3  1  0
 18  8  1  0
 21 17  1  0
  1 26  1  0
  2 27  1  0
  4 28  1  0
  5 29  1  0
 11 30  1  0
 12 31  1  0
 12 32  1  0
 13 33  1  0
 13 34  1  0
 14 35  1  0
 14 36  1  0
 15 37  1  0
 15 38  1  0
 15 39  1  0
 19 40  1  0
 22 41  1  0
 22 42  1  0
 22 43  1  0
 23 44  1  0
 25 45  1  0
M  END
>  <ScrubInfo>  (8) 
{"isomerGroup": 0, "isomerId": 7, "confId": 0, "nr_conformers:": 1, "nr_isomers:": 20}

$$$$
_i8
     RDKit          3D

 45 48  0  0  0  0  0  0  0  0999 V2000
   -2.0148   -3.4382    0.7398 N   0  0  0  0  0  0  0  0  0  0  0  0
   -2.0647   -2.0482    0.7173 C   0  0  0  0  0  0  0  0  0  0  0  0
   -0.8556   -1.4841    0.5949 C   0  0  0  0  0  0  0  0  0  0  0  0
   -0.2664   -0.1506    0.4930 C   0  0  0  0  0  0  0  0  0  0  0  0
   -0.9995    1.0165    0.5427 N   0  0  0  0  0  0  0  0  0  0  0  0
   -2.1442    1.2694   -0.2543 C   0  0  0  0  0  0  0  0  0  0  0  0
   -3.0492    2.2452    0.1890 C   0  0  0  0  0  0  0  0  0  0  0  0
   -4.1877    2.5876   -0.5551 C   0  0  0  0  0  0  0  0  0  0  0  0
   -4.4055    1.9448   -1.7833 C   0  0  0  0  0  0  0  0  0  0  0  0
   -5.3829    1.9924   -2.8016 C   0  0  0  0  0  0  0  0  0  0  0  0
   -5.1183    1.1574   -3.8097 N   0  0  0  0  0  0  0  0  0  0  0  0
   -3.9622    0.5777   -3.4403 N   0  0  0  0  0  0  0  0  0  0  0  0
   -3.4871    1.0017   -2.2264 C   0  0  0  0  0  0  0  0  0  0  0  0
   -2.3439    0.6482   -1.4990 C   0  0  0  0  0  0  0  0  0  0  0  0
    1.0299   -0.0530    0.3811 N   0  0  0  0  0  0  0  0  0  0  0  0
    1.7853   -1.2076    0.3209 C   0  0  0  0  0  0  0  0  0  0  0  0
    3.0524   -1.1274    0.1234 N   0  0  0  0  0  0  0  0  0  0  0  0
    3.6765    0.1805   -0.0501 C   0  0  0  0  0  0  0  0  0  0  0  0
    4.1290    0.7214    1.3052 C   0  0  0  0  0  0  0  0  0  0  0  0
    4.8353    2.0684    1.1593 C   0  0  0  0  0  0  0  0  0  0  0  0
    5.2878    2.6089    2.5064 C   0  0  0  0  0  0  0  0  0  0  0  0
    1.3291   -2.4972    0.4589 N   0  0  0  0  0  0  0  0  0  0  0  0
    0.0599   -2.6438    0.6098 C   0  0  0  0  0  0  0  0  0  0  0  0
   -0.6765   -3.8138    0.7938 N   0  0  0  0  0  0  0  0  0  0  0  0
   -0.2601   -5.0638    0.1886 C   0  0  0  0  0  0  0  0  0  0  0  0
   -2.6247   -3.8542    1.4480 H   0  0  0  0  0  0  0  0  0  0  0  0
   -3.0223   -1.5534    0.7985 H   0  0  0  0  0  0  0  0  0  0  0  0
   -0.3776    1.8220    0.4974 H   0  0  0  0  0  0  0  0  0  0  0  0
   -2.8802    2.7441    1.1419 H   0  0  0  0  0  0  0  0  0  0  0  0
   -4.8815    3.3369   -0.1855 H   0  0  0  0  0  0  0  0  0  0  0  0
   -6.2749    2.6035   -2.8476 H   0  0  0  0  0  0  0  0  0  0  0  0
   -3.5476   -0.1063   -4.0631 H   0  0  0  0  0  0  0  0  0  0  0  0
   -1.6378   -0.0718   -1.8998 H   0  0  0  0  0  0  0  0  0  0  0  0
    3.0301    0.8979   -0.5697 H   0  0  0  0  0  0  0  0  0  0  0  0
    4.5510    0.0484   -0.6984 H   0  0  0  0  0  0  0  0  0  0  0  0
    3.2648    0.8292    1.9719 H   0  0  0  0  0  0  0  0  0  0  0  0
    4.8033   -0.0016    1.7812 H   0  0  0  0  0  0  0  0  0  0  0  0
    5.7069    1.9631    0.5029 H   0  0  0  0  0  0  0  0  0  0  0  0
    4.1605    2.7934    0.6894 H   0  0  0  0  0  0  0  0  0  0  0  0
    5.9893    1.9213    2.9894 H   0  0  0  0  0  0  0  0  0  0  0  0
    5.7903    3.5727    2.3786 H   0  0  0  0  0  0  0  0  0  0  0  0
    4.4347    2.7567    3.1763 H   0  0  0  0  0  0  0  0  0  0  0  0
   -0.3163   -5.0046   -0.9033 H   0  0  0  0  0  0  0  0  0  0  0  0
   -0.9032   -5.8830    0.5262 H   0  0  0  0  0  0  0  0  0  0  0  0
    0.7683   -5.3070    0.4743 H   0  0  0  0  0  0  0  0  0  0  0  0
  1  2  1  0
  2  3  2  0
  3  4  1  0
  4  5  1  0
  5  6  1  0
  6  7  2  0
  7  8  1  0
  8  9  2  0
  9 10  1  0
 10 11  2  0
 11 12  1  0
 12 13  1  0
 13 14  2  0
  4 15  2  0
 15 16  1  0
 16 17  2  3
 17 18  1  0
 18 19  1  0
 19 20  1  0
 20 21  1  0
 16 22  1  0
 22 23  2  0
 23 24  1  0
 24 25  1  0
 24  1  1  0
 23  3  1  0
 14  6  1  0
 13  9  1  0
  1 26  1  0
  2 27  1  0
  5 28  1  0
  7 29  1  0
  8 30  1  0
 10 31  1  0
 12 32  1  0
 14 33  1  0
 18 34  1  0
 18 35  1  0
 19 36  1  0
 19 37  1  0
 20 38  1  0
 20 39  1  0
 21 40  1  0
 21 41  1  0
 21 42  1  0
 25 43  1  0
 25 44  1  0
 25 45  1  0
M  END
>  <ScrubInfo>  (9) 
{"isomerGroup": 0, "isomerId": 8, "confId": 0, "nr_conformers:": 1, "nr_isomers:": 20}

$$$$
_i9
     RDKit          3D

 45 48  0  0  0  0  0  0  0  0999 V2000
   -6.6647    2.3615    0.7824 N   0  0  0  0  0  0  0  0  0  0  0  0
   -5.9498    2.5782   -0.3607 C   0  0  0  0  0  0  0  0  0  0  0  0
   -4.9079    1.6983   -0.2854 C   0  0  0  0  0  0  0  0  0  0  0  0
   -3.9040    1.5514   -1.2296 C   0  0  0  0  0  0  0  0  0  0  0  0
   -2.9864    0.5506   -0.8350 C   0  0  0  0  0  0  0  0  0  0  0  0
   -3.0770   -0.2199    0.3790 C   0  0  0  0  0  0  0  0  0  0  0  0
   -2.0884   -1.1758    0.7311 N   0  0  0  0  0  0  0  0  0  0  0  0
   -0.7908   -1.3001    0.2716 C   0  0  0  0  0  0  0  0  0  0  0  0
   -0.0409   -0.2211   -0.1569 N   0  0  0  0  0  0  0  0  0  0  0  0
    1.2787   -0.2702   -0.5235 C   0  0  0  0  0  0  0  0  0  0  0  0
    1.8834    0.8385   -0.7917 N   0  0  0  0  0  0  0  0  0  0  0  0
    3.2911    0.7989   -1.1877 C   0  0  0  0  0  0  0  0  0  0  0  0
    4.2043    0.8806    0.0364 C   0  0  0  0  0  0  0  0  0  0  0  0
    4.0093    2.1275    0.9046 C   0  0  0  0  0  0  0  0  0  0  0  0
    4.3065    3.4290    0.1764 C   0  0  0  0  0  0  0  0  0  0  0  0
    1.9492   -1.4710   -0.5872 N   0  0  0  0  0  0  0  0  0  0  0  0
    1.2623   -2.4961   -0.2128 C   0  0  0  0  0  0  0  0  0  0  0  0
   -0.1379   -2.4692    0.2676 C   0  0  0  0  0  0  0  0  0  0  0  0
   -0.4010   -3.8665    0.6286 C   0  0  0  0  0  0  0  0  0  0  0  0
    0.6239   -4.6538    0.4223 N   0  0  0  0  0  0  0  0  0  0  0  0
    1.6171   -3.8337   -0.1383 N   0  0  0  0  0  0  0  0  0  0  0  0
    2.9747   -4.3198   -0.1931 C   0  0  0  0  0  0  0  0  0  0  0  0
   -4.1303   -0.0194    1.3106 C   0  0  0  0  0  0  0  0  0  0  0  0
   -5.0586    0.9691    0.9445 C   0  0  0  0  0  0  0  0  0  0  0  0
   -6.1583    1.4031    1.5836 N   0  0  0  0  0  0  0  0  0  0  0  0
   -7.5119    2.8318    1.0831 H   0  0  0  0  0  0  0  0  0  0  0  0
   -6.2481    3.3183   -1.0887 H   0  0  0  0  0  0  0  0  0  0  0  0
   -3.8159    2.1074   -2.1523 H   0  0  0  0  0  0  0  0  0  0  0  0
   -2.1775    0.3376   -1.5350 H   0  0  0  0  0  0  0  0  0  0  0  0
   -2.4732   -1.9790    1.2182 H   0  0  0  0  0  0  0  0  0  0  0  0
   -0.4243    0.7000   -0.0016 H   0  0  0  0  0  0  0  0  0  0  0  0
    3.5351   -0.0905   -1.7813 H   0  0  0  0  0  0  0  0  0  0  0  0
    3.4806    1.6459   -1.8561 H   0  0  0  0  0  0  0  0  0  0  0  0
    5.2471    0.8388   -0.3011 H   0  0  0  0  0  0  0  0  0  0  0  0
    4.0462   -0.0025    0.6674 H   0  0  0  0  0  0  0  0  0  0  0  0
    4.6793    2.0525    1.7697 H   0  0  0  0  0  0  0  0  0  0  0  0
    2.9888    2.1575    1.3031 H   0  0  0  0  0  0  0  0  0  0  0  0
    4.2523    4.2705    0.8747 H   0  0  0  0  0  0  0  0  0  0  0  0
    5.3102    3.4153   -0.2600 H   0  0  0  0  0  0  0  0  0  0  0  0
    3.5829    3.6159   -0.6224 H   0  0  0  0  0  0  0  0  0  0  0  0
   -1.3690   -4.1740    1.0439 H   0  0  0  0  0  0  0  0  0  0  0  0
    3.5397   -3.8116   -0.9811 H   0  0  0  0  0  0  0  0  0  0  0  0
    2.9938   -5.3931   -0.4083 H   0  0  0  0  0  0  0  0  0  0  0  0
    3.4792   -4.1491    0.7630 H   0  0  0  0  0  0  0  0  0  0  0  0
   -4.2198   -0.5619    2.2408 H   0  0  0  0  0  0  0  0  0  0  0  0
  1  2  1  0
  2  3  2  0
  3  4  1  0
  4  5  2  0
  5  6  1  0
  6  7  1  0
  7  8  1  0
  8  9  1  0
  9 10  1  0
 10 11  2  3
 11 12  1  0
 12 13  1  0
 13 14  1  0
 14 15  1  0
 10 16  1  0
 16 17  2  0
 17 18  1  0
 18 19  1  0
 19 20  2  0
 20 21  1  0
 21 22  1  0
  6 23  2  0
 23 24  1  0
 24 25  2  0
 25  1  1  0
 24  3  1  0
 18  8  2  0
 21 17  1  0
  1 26  1  0
  2 27  1  0
  4 28  1  0
  5 29  1  0
  7 30  1  0
  9 31  1  0
 12 32  1  0
 12 33  1  0
 13 34  1  0
 13 35  1  0
 14 36  1  0
 14 37  1  0
 15 38  1  0
 15 39  1  0
 15 40  1  0
 19 41  1  0
 22 42  1  0
 22 43  1  0
 22 44  1  0
 23 45  1  0
M  END
>  <ScrubInfo>  (10) 
{"isomerGroup": 0, "isomerId": 9, "confId": 0, "nr_conformers:": 1, "nr_isomers:": 20}

$$$$
_i10
     RDKit          3D

 45 48  0  0  0  0  0  0  0  0999 V2000
   -2.0238   -3.0192    1.1705 N   0  0  0  0  0  0  0  0  0  0  0  0
   -2.0312   -1.8020    0.4988 C   0  0  0  0  0  0  0  0  0  0  0  0
   -0.8135   -1.2570    0.3651 C   0  0  0  0  0  0  0  0  0  0  0  0
   -0.1553   -0.0815   -0.2332 C   0  0  0  0  0  0  0  0  0  0  0  0
   -0.6824    0.9324   -0.8555 N   0  0  0  0  0  0  0  0  0  0  0  0
   -2.0665    1.0216   -1.0308 C   0  0  0  0  0  0  0  0  0  0  0  0
   -2.8495    1.6735   -0.0724 C   0  0  0  0  0  0  0  0  0  0  0  0
   -4.2382    1.7933   -0.2249 C   0  0  0  0  0  0  0  0  0  0  0  0
   -4.8366    1.2544   -1.3760 C   0  0  0  0  0  0  0  0  0  0  0  0
   -6.1457    1.1611   -1.8977 C   0  0  0  0  0  0  0  0  0  0  0  0
   -6.1886    0.5325   -3.0754 N   0  0  0  0  0  0  0  0  0  0  0  0
   -4.8992    0.2363   -3.3189 N   0  0  0  0  0  0  0  0  0  0  0  0
   -4.0386    0.6321   -2.3292 C   0  0  0  0  0  0  0  0  0  0  0  0
   -2.6519    0.5068   -2.1952 C   0  0  0  0  0  0  0  0  0  0  0  0
    1.2068   -0.1097   -0.0883 N   0  0  0  0  0  0  0  0  0  0  0  0
    1.9575   -1.0701    0.5416 C   0  0  0  0  0  0  0  0  0  0  0  0
    3.2373   -1.0947    0.6508 N   0  0  0  0  0  0  0  0  0  0  0  0
    4.0683   -0.0568    0.0563 C   0  0  0  0  0  0  0  0  0  0  0  0
    4.2317    1.1041    1.0350 C   0  0  0  0  0  0  0  0  0  0  0  0
    5.1362    2.1932    0.4603 C   0  0  0  0  0  0  0  0  0  0  0  0
    5.3021    3.3501    1.4327 C   0  0  0  0  0  0  0  0  0  0  0  0
    1.3515   -2.1480    1.1530 N   0  0  0  0  0  0  0  0  0  0  0  0
    0.0613   -2.2412    1.0907 C   0  0  0  0  0  0  0  0  0  0  0  0
   -0.7411   -3.2378    1.6508 N   0  0  0  0  0  0  0  0  0  0  0  0
   -0.2550   -4.5976    1.7874 C   0  0  0  0  0  0  0  0  0  0  0  0
   -2.7817   -3.1138    1.8504 H   0  0  0  0  0  0  0  0  0  0  0  0
   -2.9798   -1.4166    0.1553 H   0  0  0  0  0  0  0  0  0  0  0  0
   -2.3714    2.0978    0.8075 H   0  0  0  0  0  0  0  0  0  0  0  0
   -4.8322    2.2996    0.5300 H   0  0  0  0  0  0  0  0  0  0  0  0
   -7.0680    1.5258   -1.4645 H   0  0  0  0  0  0  0  0  0  0  0  0
   -4.6711   -0.2432   -4.1825 H   0  0  0  0  0  0  0  0  0  0  0  0
   -2.0444    0.0291   -2.9564 H   0  0  0  0  0  0  0  0  0  0  0  0
    1.6851    0.6838   -0.4806 H   0  0  0  0  0  0  0  0  0  0  0  0
    3.6810    0.2849   -0.9105 H   0  0  0  0  0  0  0  0  0  0  0  0
    5.0508   -0.4947   -0.1561 H   0  0  0  0  0  0  0  0  0  0  0  0
    3.2509    1.5308    1.2774 H   0  0  0  0  0  0  0  0  0  0  0  0
    4.6521    0.7315    1.9775 H   0  0  0  0  0  0  0  0  0  0  0  0
    6.1224    1.7745    0.2280 H   0  0  0  0  0  0  0  0  0  0  0  0
    4.7141    2.5704   -0.4784 H   0  0  0  0  0  0  0  0  0  0  0  0
    5.7517    3.0119    2.3717 H   0  0  0  0  0  0  0  0  0  0  0  0
    5.9526    4.1174    1.0014 H   0  0  0  0  0  0  0  0  0  0  0  0
    4.3363    3.8124    1.6607 H   0  0  0  0  0  0  0  0  0  0  0  0
   -0.0804   -5.0487    0.8050 H   0  0  0  0  0  0  0  0  0  0  0  0
   -0.9848   -5.2104    2.3265 H   0  0  0  0  0  0  0  0  0  0  0  0
    0.6811   -4.6182    2.3547 H   0  0  0  0  0  0  0  0  0  0  0  0
  1  2  1  0
  2  3  2  0
  3  4  1  0
  4  5  2  3
  5  6  1  0
  6  7  2  0
  7  8  1  0
  8  9  2  0
  9 10  1  0
 10 11  2  0
 11 12  1  0
 12 13  1  0
 13 14  2  0
  4 15  1  0
 15 16  1  0
 16 17  2  3
 17 18  1  0
 18 19  1  0
 19 20  1  0
 20 21  1  0
 16 22  1  0
 22 23  2  0
 23 24  1  0
 24 25  1  0
 24  1  1  0
 23  3  1  0
 14  6  1  0
 13  9  1  0
  1 26  1  0
  2 27  1  0
  7 28  1  0
  8 29  1  0
 10 30  1  0
 12 31  1  0
 14 32  1  0
 15 33  1  0
 18 34  1  0
 18 35  1  0
 19 36  1  0
 19 37  1  0
 20 38  1  0
 20 39  1  0
 21 40  1  0
 21 41  1  0
 21 42  1  0
 25 43  1  0
 25 44  1  0
 25 45  1  0
M  END
>  <ScrubInfo>  (11) 
{"isomerGroup": 0, "isomerId": 10, "confId": 0, "nr_conformers:": 1, "nr_isomers:": 20}

$$$$
_i11
     RDKit          3D

 45 48  0  0  0  0  0  0  0  0999 V2000
    1.4647   -2.3387    0.0044 N   0  0  0  0  0  0  0  0  0  0  0  0
    1.1208   -1.0186    0.2279 C   0  0  0  0  0  0  0  0  0  0  0  0
    2.0701   -0.1645    0.4157 N   0  0  0  0  0  0  0  0  0  0  0  0
    1.7127    1.2320    0.6494 C   0  0  0  0  0  0  0  0  0  0  0  0
    2.9897    2.0539    0.8250 C   0  0  0  0  0  0  0  0  0  0  0  0
    3.8075    2.1475   -0.4652 C   0  0  0  0  0  0  0  0  0  0  0  0
    5.0489    3.0049   -0.2745 C   0  0  0  0  0  0  0  0  0  0  0  0
   -0.2459   -0.7902    0.2181 N   0  0  0  0  0  0  0  0  0  0  0  0
   -1.3008   -1.6659    0.0215 C   0  0  0  0  0  0  0  0  0  0  0  0
   -2.5773   -1.4619    0.0083 N   0  0  0  0  0  0  0  0  0  0  0  0
   -3.0344   -0.1558    0.2224 C   0  0  0  0  0  0  0  0  0  0  0  0
   -3.2859    0.2913    1.5234 C   0  0  0  0  0  0  0  0  0  0  0  0
   -3.7242    1.5997    1.7717 C   0  0  0  0  0  0  0  0  0  0  0  0
   -3.9196    2.4615    0.6797 C   0  0  0  0  0  0  0  0  0  0  0  0
   -4.3349    3.7989    0.4963 C   0  0  0  0  0  0  0  0  0  0  0  0
   -4.3600    4.1596   -0.7895 N   0  0  0  0  0  0  0  0  0  0  0  0
   -3.9792    3.0431   -1.4356 N   0  0  0  0  0  0  0  0  0  0  0  0
   -3.6840    1.9921   -0.6075 C   0  0  0  0  0  0  0  0  0  0  0  0
   -3.2479    0.6903   -0.8737 C   0  0  0  0  0  0  0  0  0  0  0  0
   -0.8272   -3.0107   -0.2010 C   0  0  0  0  0  0  0  0  0  0  0  0
   -1.4324   -4.2518   -0.4454 C   0  0  0  0  0  0  0  0  0  0  0  0
   -0.5327   -5.2373   -0.5889 N   0  0  0  0  0  0  0  0  0  0  0  0
    0.6611   -4.6131   -0.4315 N   0  0  0  0  0  0  0  0  0  0  0  0
    1.8709   -5.3903   -0.5244 C   0  0  0  0  0  0  0  0  0  0  0  0
    0.5191   -3.2795   -0.1988 C   0  0  0  0  0  0  0  0  0  0  0  0
    2.4622   -2.5164    0.0105 H   0  0  0  0  0  0  0  0  0  0  0  0
    1.1286    1.6337   -0.1872 H   0  0  0  0  0  0  0  0  0  0  0  0
    1.1157    1.3177    1.5651 H   0  0  0  0  0  0  0  0  0  0  0  0
    3.6053    1.6163    1.6206 H   0  0  0  0  0  0  0  0  0  0  0  0
    2.7130    3.0644    1.1495 H   0  0  0  0  0  0  0  0  0  0  0  0
    4.1134    1.1478   -0.7940 H   0  0  0  0  0  0  0  0  0  0  0  0
    3.1931    2.5782   -1.2644 H   0  0  0  0  0  0  0  0  0  0  0  0
    5.7010    2.5845    0.4977 H   0  0  0  0  0  0  0  0  0  0  0  0
    5.6186    3.0597   -1.2074 H   0  0  0  0  0  0  0  0  0  0  0  0
    4.7803    4.0246    0.0197 H   0  0  0  0  0  0  0  0  0  0  0  0
   -0.5272    0.1625    0.3831 H   0  0  0  0  0  0  0  0  0  0  0  0
   -3.1425   -0.3906    2.3589 H   0  0  0  0  0  0  0  0  0  0  0  0
   -3.9150    1.9319    2.7879 H   0  0  0  0  0  0  0  0  0  0  0  0
   -4.6183    4.5229    1.2493 H   0  0  0  0  0  0  0  0  0  0  0  0
   -3.9374    3.0646   -2.4483 H   0  0  0  0  0  0  0  0  0  0  0  0
   -3.0804    0.3385   -1.8865 H   0  0  0  0  0  0  0  0  0  0  0  0
   -2.4873   -4.4813   -0.5255 H   0  0  0  0  0  0  0  0  0  0  0  0
    1.9173   -5.8365   -1.5210 H   0  0  0  0  0  0  0  0  0  0  0  0
    2.7409   -4.7501   -0.3651 H   0  0  0  0  0  0  0  0  0  0  0  0
    1.8398   -6.1688    0.2421 H   0  0  0  0  0  0  0  0  0  0  0  0
  1  2  1  0
  2  3  2  3
  3  4  1  0
  4  5  1  0
  5  6  1  0
  6  7  1  0
  2  8  1  0
  8  9  1  0
  9 10  2  3
 10 11  1  0
 11 12  2  0
 12 13  1  0
 13 14  2  0
 14 15  1  0
 15 16  2  0
 16 17  1  0
 17 18  1  0
 18 19  2  0
  9 20  1  0
 20 21  1  0
 21 22  2  0
 22 23  1  0
 23 24  1  0
 23 25  1  0
 25  1  1  0
 19 11  1  0
 25 20  2  0
 18 14  1  0
  1 26  1  0
  4 27  1  0
  4 28  1  0
  5 29  1  0
  5 30  1  0
  6 31  1  0
  6 32  1  0
  7 33  1  0
  7 34  1  0
  7 35  1  0
  8 36  1  0
 12 37  1  0
 13 38  1  0
 15 39  1  0
 17 40  1  0
 19 41  1  0
 21 42  1  0
 24 43  1  0
 24 44  1  0
 24 45  1  0
M  END
>  <ScrubInfo>  (12) 
{"isomerGroup": 0, "isomerId": 11, "confId": 0, "nr_conformers:": 1, "nr_isomers:": 20}

$$$$
_i12
     RDKit          3D

 45 48  0  0  0  0  0  0  0  0999 V2000
   -5.4286   -2.2433    1.2631 N   0  0  0  0  0  0  0  0  0  0  0  0
   -5.7615   -2.0732   -0.0792 C   0  0  0  0  0  0  0  0  0  0  0  0
   -4.8357   -1.3238   -0.7031 C   0  0  0  0  0  0  0  0  0  0  0  0
   -4.7351   -0.9073   -2.0663 C   0  0  0  0  0  0  0  0  0  0  0  0
   -3.6539   -0.2047   -2.4365 C   0  0  0  0  0  0  0  0  0  0  0  0
   -2.5607    0.1550   -1.4621 C   0  0  0  0  0  0  0  0  0  0  0  0
   -1.5462    0.8072   -1.9553 N   0  0  0  0  0  0  0  0  0  0  0  0
   -0.5154    1.1511   -1.1215 C   0  0  0  0  0  0  0  0  0  0  0  0
    0.4763    0.2738   -0.7347 N   0  0  0  0  0  0  0  0  0  0  0  0
    1.5207    0.6017    0.0986 C   0  0  0  0  0  0  0  0  0  0  0  0
    2.4697   -0.1787    0.4756 N   0  0  0  0  0  0  0  0  0  0  0  0
    2.4882   -1.5550   -0.0011 C   0  0  0  0  0  0  0  0  0  0  0  0
    3.6944   -2.2779    0.5994 C   0  0  0  0  0  0  0  0  0  0  0  0
    5.0246   -1.7388    0.0681 C   0  0  0  0  0  0  0  0  0  0  0  0
    6.2045   -2.5030    0.6482 C   0  0  0  0  0  0  0  0  0  0  0  0
    1.6211    1.8754    0.6189 N   0  0  0  0  0  0  0  0  0  0  0  0
    0.7183    2.7105    0.2339 C   0  0  0  0  0  0  0  0  0  0  0  0
   -0.4094    2.3985   -0.6619 C   0  0  0  0  0  0  0  0  0  0  0  0
   -1.1561    3.6537   -0.7477 C   0  0  0  0  0  0  0  0  0  0  0  0
   -0.6245    4.6098   -0.0267 N   0  0  0  0  0  0  0  0  0  0  0  0
    0.5382    4.0507    0.5341 N   0  0  0  0  0  0  0  0  0  0  0  0
    1.2181    4.7522    1.5948 C   0  0  0  0  0  0  0  0  0  0  0  0
   -2.7564   -0.2651   -0.0267 C   0  0  0  0  0  0  0  0  0  0  0  0
   -3.8561   -0.9424    0.3104 C   0  0  0  0  0  0  0  0  0  0  0  0
   -4.3122   -1.4516    1.5178 N   0  0  0  0  0  0  0  0  0  0  0  0
   -6.2262   -2.1119    1.8903 H   0  0  0  0  0  0  0  0  0  0  0  0
   -6.6662   -2.5144   -0.4699 H   0  0  0  0  0  0  0  0  0  0  0  0
   -5.5146   -1.1688   -2.7720 H   0  0  0  0  0  0  0  0  0  0  0  0
   -3.5171    0.1300   -3.4589 H   0  0  0  0  0  0  0  0  0  0  0  0
    0.4540   -0.6274   -1.1829 H   0  0  0  0  0  0  0  0  0  0  0  0
    2.5458   -1.5914   -1.0954 H   0  0  0  0  0  0  0  0  0  0  0  0
    1.5781   -2.0771    0.3176 H   0  0  0  0  0  0  0  0  0  0  0  0
    3.6172   -3.3453    0.3590 H   0  0  0  0  0  0  0  0  0  0  0  0
    3.6717   -2.1907    1.6928 H   0  0  0  0  0  0  0  0  0  0  0  0
    5.0479   -1.8183   -1.0249 H   0  0  0  0  0  0  0  0  0  0  0  0
    5.1311   -0.6773    0.3187 H   0  0  0  0  0  0  0  0  0  0  0  0
    6.2283   -2.4183    1.7394 H   0  0  0  0  0  0  0  0  0  0  0  0
    7.1448   -2.1032    0.2558 H   0  0  0  0  0  0  0  0  0  0  0  0
    6.1515   -3.5646    0.3866 H   0  0  0  0  0  0  0  0  0  0  0  0
   -2.0735    3.7300   -1.3454 H   0  0  0  0  0  0  0  0  0  0  0  0
    0.7658    4.5105    2.5616 H   0  0  0  0  0  0  0  0  0  0  0  0
    2.2776    4.4790    1.6275 H   0  0  0  0  0  0  0  0  0  0  0  0
    1.1575    5.8351    1.4453 H   0  0  0  0  0  0  0  0  0  0  0  0
   -2.0196    0.0057    0.7157 H   0  0  0  0  0  0  0  0  0  0  0  0
   -3.5764   -1.8561    2.0988 H   0  0  0  0  0  0  0  0  0  0  0  0
  1  2  1  0
  2  3  2  0
  3  4  1  0
  4  5  2  0
  5  6  1  0
  6  7  2  3
  7  8  1  0
  8  9  1  0
  9 10  1  0
 10 11  2  3
 11 12  1  0
 12 13  1  0
 13 14  1  0
 14 15  1  0
 10 16  1  0
 16 17  2  0
 17 18  1  0
 18 19  1  0
 19 20  2  0
 20 21  1  0
 21 22  1  0
  6 23  1  0
 23 24  2  0
 24 25  1  0
 25  1  1  0
 24  3  1  0
 18  8  2  0
 21 17  1  0
  1 26  1  0
  2 27  1  0
  4 28  1  0
  5 29  1  0
  9 30  1  0
 12 31  1  0
 12 32  1  0
 13 33  1  0
 13 34  1  0
 14 35  1  0
 14 36  1  0
 15 37  1  0
 15 38  1  0
 15 39  1  0
 19 40  1  0
 22 41  1  0
 22 42  1  0
 22 43  1  0
 23 44  1  0
 25 45  1  0
M  END
>  <ScrubInfo>  (13) 
{"isomerGroup": 0, "isomerId": 12, "confId": 0, "nr_conformers:": 1, "nr_isomers:": 20}

$$$$
_i13
     RDKit          3D

 45 48  0  0  0  0  0  0  0  0999 V2000
   -6.8729    1.1267    1.6235 N   0  0  0  0  0  0  0  0  0  0  0  0
   -6.8740   -0.1315    1.0930 C   0  0  0  0  0  0  0  0  0  0  0  0
   -5.5625   -0.5126    1.1110 C   0  0  0  0  0  0  0  0  0  0  0  0
   -5.0699   -1.7311    0.6670 C   0  0  0  0  0  0  0  0  0  0  0  0
   -3.6696   -1.7889    0.8307 C   0  0  0  0  0  0  0  0  0  0  0  0
   -2.8679   -0.7232    1.3652 C   0  0  0  0  0  0  0  0  0  0  0  0
   -1.4901   -0.9301    1.4973 N   0  0  0  0  0  0  0  0  0  0  0  0
   -0.6521   -0.6127    0.5574 C   0  0  0  0  0  0  0  0  0  0  0  0
    0.7012   -0.8131    0.7053 N   0  0  0  0  0  0  0  0  0  0  0  0
    1.6996   -0.4874   -0.1813 C   0  0  0  0  0  0  0  0  0  0  0  0
    2.9476   -0.7974    0.2910 N   0  0  0  0  0  0  0  0  0  0  0  0
    4.1223   -0.6180   -0.5507 C   0  0  0  0  0  0  0  0  0  0  0  0
    5.4009   -0.8644    0.2519 C   0  0  0  0  0  0  0  0  0  0  0  0
    5.6166    0.0905    1.4307 C   0  0  0  0  0  0  0  0  0  0  0  0
    5.7498    1.5479    1.0172 C   0  0  0  0  0  0  0  0  0  0  0  0
    1.4826    0.0669   -1.3455 N   0  0  0  0  0  0  0  0  0  0  0  0
    0.1536    0.2672   -1.5710 C   0  0  0  0  0  0  0  0  0  0  0  0
   -0.9177   -0.0225   -0.7395 C   0  0  0  0  0  0  0  0  0  0  0  0
   -2.0460    0.3869   -1.4720 C   0  0  0  0  0  0  0  0  0  0  0  0
   -1.7311    0.8871   -2.6739 N   0  0  0  0  0  0  0  0  0  0  0  0
   -0.3812    0.8129   -2.7037 N   0  0  0  0  0  0  0  0  0  0  0  0
    0.3262    1.2854   -3.8669 C   0  0  0  0  0  0  0  0  0  0  0  0
   -3.4195    0.4943    1.8255 C   0  0  0  0  0  0  0  0  0  0  0  0
   -4.8118    0.5809    1.6754 C   0  0  0  0  0  0  0  0  0  0  0  0
   -5.6566    1.5795    1.9848 N   0  0  0  0  0  0  0  0  0  0  0  0
   -7.6683    1.7388    1.7708 H   0  0  0  0  0  0  0  0  0  0  0  0
   -7.7843   -0.6117    0.7656 H   0  0  0  0  0  0  0  0  0  0  0  0
   -5.6556   -2.5402    0.2551 H   0  0  0  0  0  0  0  0  0  0  0  0
   -3.1570   -2.7035    0.5303 H   0  0  0  0  0  0  0  0  0  0  0  0
    0.9713   -1.0990    1.6317 H   0  0  0  0  0  0  0  0  0  0  0  0
    2.9846   -1.6474    0.8405 H   0  0  0  0  0  0  0  0  0  0  0  0
    4.0815   -1.3330   -1.3808 H   0  0  0  0  0  0  0  0  0  0  0  0
    4.1367    0.3875   -0.9850 H   0  0  0  0  0  0  0  0  0  0  0  0
    6.2600   -0.7944   -0.4267 H   0  0  0  0  0  0  0  0  0  0  0  0
    5.3913   -1.8913    0.6386 H   0  0  0  0  0  0  0  0  0  0  0  0
    6.5340   -0.2085    1.9520 H   0  0  0  0  0  0  0  0  0  0  0  0
    4.8003   -0.0091    2.1552 H   0  0  0  0  0  0  0  0  0  0  0  0
    6.0081    2.1622    1.8858 H   0  0  0  0  0  0  0  0  0  0  0  0
    6.5369    1.6737    0.2672 H   0  0  0  0  0  0  0  0  0  0  0  0
    4.8129    1.9353    0.6062 H   0  0  0  0  0  0  0  0  0  0  0  0
   -3.0919    0.3493   -1.2016 H   0  0  0  0  0  0  0  0  0  0  0  0
    0.0407    2.3253   -4.0453 H   0  0  0  0  0  0  0  0  0  0  0  0
    0.0424    0.6605   -4.7175 H   0  0  0  0  0  0  0  0  0  0  0  0
    1.4042    1.2234   -3.7039 H   0  0  0  0  0  0  0  0  0  0  0  0
   -2.8254    1.2889    2.2520 H   0  0  0  0  0  0  0  0  0  0  0  0
  1  2  1  0
  2  3  2  0
  3  4  1  0
  4  5  2  0
  5  6  1  0
  6  7  1  0
  7  8  2  3
  8  9  1  0
  9 10  1  0
 10 11  1  0
 11 12  1  0
 12 13  1  0
 13 14  1  0
 14 15  1  0
 10 16  2  0
 16 17  1  0
 17 18  2  0
 18 19  1  0
 19 20  2  0
 20 21  1  0
 21 22  1  0
  6 23  2  0
 23 24  1  0
 24 25  2  0
 25  1  1  0
 24  3  1  0
 18  8  1  0
 21 17  1  0
  1 26  1  0
  2 27  1  0
  4 28  1  0
  5 29  1  0
  9 30  1  0
 11 31  1  0
 12 32  1  0
 12 33  1  0
 13 34  1  0
 13 35  1  0
 14 36  1  0
 14 37  1  0
 15 38  1  0
 15 39  1  0
 15 40  1  0
 19 41  1  0
 22 42  1  0
 22 43  1  0
 22 44  1  0
 23 45  1  0
M  END
>  <ScrubInfo>  (14) 
{"isomerGroup": 0, "isomerId": 13, "confId": 0, "nr_conformers:": 1, "nr_isomers:": 20}

$$$$
_i14
     RDKit          3D

 45 48  0  0  0  0  0  0  0  0999 V2000
   -7.6330    0.6634   -0.1375 N   0  0  0  0  0  0  0  0  0  0  0  0
   -6.8190    1.5388    0.5226 C   0  0  0  0  0  0  0  0  0  0  0  0
   -5.5530    1.1329    0.2090 C   0  0  0  0  0  0  0  0  0  0  0  0
   -4.3813    1.7296    0.6496 C   0  0  0  0  0  0  0  0  0  0  0  0
   -3.2506    1.0589    0.1328 C   0  0  0  0  0  0  0  0  0  0  0  0
   -3.3080   -0.1019   -0.7200 C   0  0  0  0  0  0  0  0  0  0  0  0
   -2.1162   -0.7071   -1.2331 N   0  0  0  0  0  0  0  0  0  0  0  0
   -0.8694   -0.5215   -0.6922 C   0  0  0  0  0  0  0  0  0  0  0  0
    0.1227   -0.0081   -1.3614 N   0  0  0  0  0  0  0  0  0  0  0  0
    1.3648    0.1324   -0.7572 C   0  0  0  0  0  0  0  0  0  0  0  0
    2.2351    0.6623   -1.5397 N   0  0  0  0  0  0  0  0  0  0  0  0
    3.5970    0.9232   -1.0944 C   0  0  0  0  0  0  0  0  0  0  0  0
    4.4678   -0.3087   -1.3373 C   0  0  0  0  0  0  0  0  0  0  0  0
    5.8975   -0.1523   -0.8168 C   0  0  0  0  0  0  0  0  0  0  0  0
    6.6924    0.9241   -1.5395 C   0  0  0  0  0  0  0  0  0  0  0  0
    1.5746   -0.2794    0.5500 N   0  0  0  0  0  0  0  0  0  0  0  0
    0.5547   -0.8403    1.2217 C   0  0  0  0  0  0  0  0  0  0  0  0
   -0.6821   -0.9911    0.6600 C   0  0  0  0  0  0  0  0  0  0  0  0
   -1.4385   -1.6297    1.6538 C   0  0  0  0  0  0  0  0  0  0  0  0
   -0.7273   -1.8486    2.7718 N   0  0  0  0  0  0  0  0  0  0  0  0
    0.5010   -1.3562    2.4773 N   0  0  0  0  0  0  0  0  0  0  0  0
    1.5433   -1.4381    3.4684 C   0  0  0  0  0  0  0  0  0  0  0  0
   -4.5380   -0.6576   -1.1590 C   0  0  0  0  0  0  0  0  0  0  0  0
   -5.6779   -0.0086   -0.6585 C   0  0  0  0  0  0  0  0  0  0  0  0
   -6.9808   -0.2722   -0.8552 N   0  0  0  0  0  0  0  0  0  0  0  0
   -8.6473    0.6445   -0.1456 H   0  0  0  0  0  0  0  0  0  0  0  0
   -7.2151    2.3385    1.1309 H   0  0  0  0  0  0  0  0  0  0  0  0
   -4.3155    2.5958    1.2927 H   0  0  0  0  0  0  0  0  0  0  0  0
   -2.2763    1.4703    0.4012 H   0  0  0  0  0  0  0  0  0  0  0  0
   -2.0733   -0.4855   -2.2275 H   0  0  0  0  0  0  0  0  0  0  0  0
    3.9768    1.7676   -1.6797 H   0  0  0  0  0  0  0  0  0  0  0  0
    3.6387    1.2440   -0.0473 H   0  0  0  0  0  0  0  0  0  0  0  0
    4.0177   -1.1792   -0.8443 H   0  0  0  0  0  0  0  0  0  0  0  0
    4.4862   -0.5409   -2.4095 H   0  0  0  0  0  0  0  0  0  0  0  0
    6.4179   -1.1099   -0.9379 H   0  0  0  0  0  0  0  0  0  0  0  0
    5.8812    0.0654    0.2574 H   0  0  0  0  0  0  0  0  0  0  0  0
    6.2815    1.9203   -1.3518 H   0  0  0  0  0  0  0  0  0  0  0  0
    7.7299    0.9229   -1.1898 H   0  0  0  0  0  0  0  0  0  0  0  0
    6.6991    0.7493   -2.6199 H   0  0  0  0  0  0  0  0  0  0  0  0
    2.5108   -0.2033    0.9157 H   0  0  0  0  0  0  0  0  0  0  0  0
   -2.4731   -1.9467    1.6205 H   0  0  0  0  0  0  0  0  0  0  0  0
    2.4455   -0.9438    3.1022 H   0  0  0  0  0  0  0  0  0  0  0  0
    1.7502   -2.4934    3.6628 H   0  0  0  0  0  0  0  0  0  0  0  0
    1.1950   -0.9424    4.3781 H   0  0  0  0  0  0  0  0  0  0  0  0
   -4.6057   -1.5173   -1.8107 H   0  0  0  0  0  0  0  0  0  0  0  0
  1  2  1  0
  2  3  2  0
  3  4  1  0
  4  5  2  0
  5  6  1  0
  6  7  1  0
  7  8  1  0
  8  9  2  0
  9 10  1  0
 10 11  2  3
 11 12  1  0
 12 13  1  0
 13 14  1  0
 14 15  1  0
 10 16  1  0
 16 17  1  0
 17 18  2  0
 18 19  1  0
 19 20  2  0
 20 21  1  0
 21 22  1  0
  6 23  2  0
 23 24  1  0
 24 25  2  0
 25  1  1  0
 24  3  1  0
 18  8  1  0
 21 17  1  0
  1 26  1  0
  2 27  1  0
  4 28  1  0
  5 29  1  0
  7 30  1  0
 12 31  1  0
 12 32  1  0
 13 33  1  0
 13 34  1  0
 14 35  1  0
 14 36  1  0
 15 37  1  0
 15 38  1  0
 15 39  1  0
 16 40  1  0
 19 41  1  0
 22 42  1  0
 22 43  1  0
 22 44  1  0
 23 45  1  0
M  END
>  <ScrubInfo>  (15) 
{"isomerGroup": 0, "isomerId": 14, "confId": 0, "nr_conformers:": 1, "nr_isomers:": 20}

$$$$
_i15
     RDKit          3D

 45 48  0  0  0  0  0  0  0  0999 V2000
   -5.1940   -2.8500    0.4960 N   0  0  0  0  0  0  0  0  0  0  0  0
   -5.3343   -2.0824    1.6505 C   0  0  0  0  0  0  0  0  0  0  0  0
   -4.3853   -1.1315    1.7033 C   0  0  0  0  0  0  0  0  0  0  0  0
   -4.1112   -0.1389    2.6939 C   0  0  0  0  0  0  0  0  0  0  0  0
   -3.0435    0.6541    2.5177 C   0  0  0  0  0  0  0  0  0  0  0  0
   -2.1416    0.5307    1.3144 C   0  0  0  0  0  0  0  0  0  0  0  0
   -1.1324    1.3473    1.2746 N   0  0  0  0  0  0  0  0  0  0  0  0
   -0.2511    1.2835    0.2390 C   0  0  0  0  0  0  0  0  0  0  0  0
    0.4421    0.2182   -0.0291 N   0  0  0  0  0  0  0  0  0  0  0  0
    1.3268    0.2629   -1.0951 C   0  0  0  0  0  0  0  0  0  0  0  0
    2.0328   -0.7750   -1.4026 N   0  0  0  0  0  0  0  0  0  0  0  0
    1.8805   -1.9947   -0.6077 C   0  0  0  0  0  0  0  0  0  0  0  0
    2.8299   -1.9862    0.5905 C   0  0  0  0  0  0  0  0  0  0  0  0
    4.3023   -1.9942    0.1733 C   0  0  0  0  0  0  0  0  0  0  0  0
    5.2217   -2.0360    1.3839 C   0  0  0  0  0  0  0  0  0  0  0  0
    1.4873    1.3993   -1.8633 N   0  0  0  0  0  0  0  0  0  0  0  0
    0.7718    2.4926   -1.5602 C   0  0  0  0  0  0  0  0  0  0  0  0
   -0.1118    2.4941   -0.5190 C   0  0  0  0  0  0  0  0  0  0  0  0
   -0.6503    3.7852   -0.5153 C   0  0  0  0  0  0  0  0  0  0  0  0
   -0.1416    4.5473   -1.4983 N   0  0  0  0  0  0  0  0  0  0  0  0
    0.7402    3.7264   -2.1252 N   0  0  0  0  0  0  0  0  0  0  0  0
    1.4922    4.2268   -3.2473 C   0  0  0  0  0  0  0  0  0  0  0  0
   -2.5183   -0.5006    0.2830 C   0  0  0  0  0  0  0  0  0  0  0  0
   -3.5997   -1.2582    0.4796 C   0  0  0  0  0  0  0  0  0  0  0  0
   -4.1871   -2.2678   -0.2714 N   0  0  0  0  0  0  0  0  0  0  0  0
   -6.0834   -3.0143    0.0185 H   0  0  0  0  0  0  0  0  0  0  0  0
   -6.1332   -2.2948    2.3449 H   0  0  0  0  0  0  0  0  0  0  0  0
   -4.7495   -0.0504    3.5646 H   0  0  0  0  0  0  0  0  0  0  0  0
   -2.7772    1.4163    3.2413 H   0  0  0  0  0  0  0  0  0  0  0  0
    2.1119   -2.8503   -1.2531 H   0  0  0  0  0  0  0  0  0  0  0  0
    0.8473   -2.1514   -0.2751 H   0  0  0  0  0  0  0  0  0  0  0  0
    2.6250   -2.8735    1.2019 H   0  0  0  0  0  0  0  0  0  0  0  0
    2.6331   -1.1113    1.2214 H   0  0  0  0  0  0  0  0  0  0  0  0
    4.5340   -1.1005   -0.4170 H   0  0  0  0  0  0  0  0  0  0  0  0
    4.5045   -2.8647   -0.4614 H   0  0  0  0  0  0  0  0  0  0  0  0
    6.2686   -2.0415    1.0647 H   0  0  0  0  0  0  0  0  0  0  0  0
    5.0664   -1.1621    2.0246 H   0  0  0  0  0  0  0  0  0  0  0  0
    5.0441   -2.9362    1.9809 H   0  0  0  0  0  0  0  0  0  0  0  0
    2.1736    1.3173   -2.6021 H   0  0  0  0  0  0  0  0  0  0  0  0
   -1.3884    4.2087    0.1536 H   0  0  0  0  0  0  0  0  0  0  0  0
    0.7879    4.5353   -4.0240 H   0  0  0  0  0  0  0  0  0  0  0  0
    2.1496    3.4447   -3.6329 H   0  0  0  0  0  0  0  0  0  0  0  0
    2.0879    5.0789   -2.9103 H   0  0  0  0  0  0  0  0  0  0  0  0
   -1.9226   -0.6031   -0.6121 H   0  0  0  0  0  0  0  0  0  0  0  0
   -3.5048   -2.9001   -0.6934 H   0  0  0  0  0  0  0  0  0  0  0  0
  1  2  1  0
  2  3  2  0
  3  4  1  0
  4  5  2  0
  5  6  1  0
  6  7  2  3
  7  8  1  0
  8  9  2  0
  9 10  1  0
 10 11  2  3
 11 12  1  0
 12 13  1  0
 13 14  1  0
 14 15  1  0
 10 16  1  0
 16 17  1  0
 17 18  2  0
 18 19  1  0
 19 20  2  0
 20 21  1  0
 21 22  1  0
  6 23  1  0
 23 24  2  0
 24 25  1  0
 25  1  1  0
 24  3  1  0
 18  8  1  0
 21 17  1  0
  1 26  1  0
  2 27  1  0
  4 28  1  0
  5 29  1  0
 12 30  1  0
 12 31  1  0
 13 32  1  0
 13 33  1  0
 14 34  1  0
 14 35  1  0
 15 36  1  0
 15 37  1  0
 15 38  1  0
 16 39  1  0
 19 40  1  0
 22 41  1  0
 22 42  1  0
 22 43  1  0
 23 44  1  0
 25 45  1  0
M  END
>  <ScrubInfo>  (16) 
{"isomerGroup": 0, "isomerId": 15, "confId": 0, "nr_conformers:": 1, "nr_isomers:": 20}

$$$$
_i16
     RDKit          3D

 45 48  0  0  0  0  0  0  0  0999 V2000
    1.1655    1.1973   -0.2588 N   0  0  0  0  0  0  0  0  0  0  0  0
    1.3305    0.1548    0.6175 C   0  0  0  0  0  0  0  0  0  0  0  0
    2.6018   -0.0135    1.0878 N   0  0  0  0  0  0  0  0  0  0  0  0
    3.7317   -0.1702    0.1805 C   0  0  0  0  0  0  0  0  0  0  0  0
    5.0153   -0.3519    0.9896 C   0  0  0  0  0  0  0  0  0  0  0  0
    6.2306   -0.5119    0.0774 C   0  0  0  0  0  0  0  0  0  0  0  0
    7.5093   -0.6936    0.8794 C   0  0  0  0  0  0  0  0  0  0  0  0
    0.3889   -0.6440    1.0304 N   0  0  0  0  0  0  0  0  0  0  0  0
   -0.9110   -0.4811    0.5648 C   0  0  0  0  0  0  0  0  0  0  0  0
   -1.7721   -1.3565    0.9771 N   0  0  0  0  0  0  0  0  0  0  0  0
   -3.1157   -1.3303    0.5933 C   0  0  0  0  0  0  0  0  0  0  0  0
   -3.5029   -2.0491   -0.5889 C   0  0  0  0  0  0  0  0  0  0  0  0
   -4.8236   -2.1305   -1.0788 C   0  0  0  0  0  0  0  0  0  0  0  0
   -5.6940   -1.4372   -0.2503 C   0  0  0  0  0  0  0  0  0  0  0  0
   -7.0418   -1.3175   -0.4363 C   0  0  0  0  0  0  0  0  0  0  0  0
   -7.4680   -0.5639    0.6194 N   0  0  0  0  0  0  0  0  0  0  0  0
   -6.4918   -0.1885    1.4682 N   0  0  0  0  0  0  0  0  0  0  0  0
   -5.3678   -0.7202    0.9572 C   0  0  0  0  0  0  0  0  0  0  0  0
   -4.0449   -0.6582    1.4202 C   0  0  0  0  0  0  0  0  0  0  0  0
   -1.1463    0.6438   -0.3267 C   0  0  0  0  0  0  0  0  0  0  0  0
   -2.2350    1.2435   -0.9861 C   0  0  0  0  0  0  0  0  0  0  0  0
   -1.8806    2.3203   -1.7065 N   0  0  0  0  0  0  0  0  0  0  0  0
   -0.5487    2.4206   -1.4995 N   0  0  0  0  0  0  0  0  0  0  0  0
    0.1789    3.4926   -2.1291 C   0  0  0  0  0  0  0  0  0  0  0  0
   -0.0842    1.4330   -0.6920 C   0  0  0  0  0  0  0  0  0  0  0  0
    1.9186    1.8690   -0.3148 H   0  0  0  0  0  0  0  0  0  0  0  0
    2.5740   -0.7809    1.7593 H   0  0  0  0  0  0  0  0  0  0  0  0
    3.8289    0.7109   -0.4633 H   0  0  0  0  0  0  0  0  0  0  0  0
    3.5661   -1.0421   -0.4631 H   0  0  0  0  0  0  0  0  0  0  0  0
    4.9221   -1.2320    1.6384 H   0  0  0  0  0  0  0  0  0  0  0  0
    5.1588    0.5122    1.6506 H   0  0  0  0  0  0  0  0  0  0  0  0
    6.0917   -1.3786   -0.5793 H   0  0  0  0  0  0  0  0  0  0  0  0
    6.3322    0.3699   -0.5660 H   0  0  0  0  0  0  0  0  0  0  0  0
    7.6945    0.1717    1.5238 H   0  0  0  0  0  0  0  0  0  0  0  0
    7.4532   -1.5865    1.5103 H   0  0  0  0  0  0  0  0  0  0  0  0
    8.3657   -0.8060    0.2072 H   0  0  0  0  0  0  0  0  0  0  0  0
   -2.7183   -2.5688   -1.1407 H   0  0  0  0  0  0  0  0  0  0  0  0
   -5.0945   -2.6719   -1.9736 H   0  0  0  0  0  0  0  0  0  0  0  0
   -7.7245   -1.6824   -1.1894 H   0  0  0  0  0  0  0  0  0  0  0  0
   -8.4149   -0.2648    0.8262 H   0  0  0  0  0  0  0  0  0  0  0  0
   -3.7623   -0.1430    2.3266 H   0  0  0  0  0  0  0  0  0  0  0  0
   -3.2793    0.9627   -0.9829 H   0  0  0  0  0  0  0  0  0  0  0  0
   -0.0535    3.4904   -3.1972 H   0  0  0  0  0  0  0  0  0  0  0  0
   -0.1349    4.4341   -1.6716 H   0  0  0  0  0  0  0  0  0  0  0  0
    1.2521    3.3480   -1.9880 H   0  0  0  0  0  0  0  0  0  0  0  0
  1  2  1  0
  2  3  1  0
  3  4  1  0
  4  5  1  0
  5  6  1  0
  6  7  1  0
  2  8  2  0
  8  9  1  0
  9 10  2  3
 10 11  1  0
 11 12  1  0
 12 13  2  0
 13 14  1  0
 14 15  2  0
 15 16  1  0
 16 17  1  0
 17 18  2  0
 18 19  1  0
  9 20  1  0
 20 21  1  0
 21 22  2  0
 22 23  1  0
 23 24  1  0
 23 25  1  0
 25  1  1  0
 19 11  2  0
 25 20  2  0
 18 14  1  0
  1 26  1  0
  3 27  1  0
  4 28  1  0
  4 29  1  0
  5 30  1  0
  5 31  1  0
  6 32  1  0
  6 33  1  0
  7 34  1  0
  7 35  1  0
  7 36  1  0
 12 37  1  0
 13 38  1  0
 15 39  1  0
 16 40  1  0
 19 41  1  0
 21 42  1  0
 24 43  1  0
 24 44  1  0
 24 45  1  0
M  END
>  <ScrubInfo>  (17) 
{"isomerGroup": 0, "isomerId": 16, "confId": 0, "nr_conformers:": 1, "nr_isomers:": 20}

$$$$
_i17
     RDKit          3D

 45 48  0  0  0  0  0  0  0  0999 V2000
   -1.4772   -1.0896    3.0498 N   0  0  0  0  0  0  0  0  0  0  0  0
   -1.9044   -0.7061    1.7825 C   0  0  0  0  0  0  0  0  0  0  0  0
   -0.8983   -0.4778    0.9243 C   0  0  0  0  0  0  0  0  0  0  0  0
   -0.6964   -0.0924   -0.4666 C   0  0  0  0  0  0  0  0  0  0  0  0
   -1.5457    0.2563   -1.3756 N   0  0  0  0  0  0  0  0  0  0  0  0
   -2.9146    0.3170   -1.0901 C   0  0  0  0  0  0  0  0  0  0  0  0
   -3.7241   -0.8244   -1.4133 C   0  0  0  0  0  0  0  0  0  0  0  0
   -5.1157   -0.9061   -1.1956 C   0  0  0  0  0  0  0  0  0  0  0  0
   -5.5911    0.2725   -0.6394 C   0  0  0  0  0  0  0  0  0  0  0  0
   -6.8916    0.5265   -0.3080 C   0  0  0  0  0  0  0  0  0  0  0  0
   -6.8775    1.7994    0.1857 N   0  0  0  0  0  0  0  0  0  0  0  0
   -5.6595    2.3746    0.2123 N   0  0  0  0  0  0  0  0  0  0  0  0
   -4.8324    1.4540   -0.3126 C   0  0  0  0  0  0  0  0  0  0  0  0
   -3.4502    1.5075   -0.5466 C   0  0  0  0  0  0  0  0  0  0  0  0
    0.6145   -0.1102   -0.8604 N   0  0  0  0  0  0  0  0  0  0  0  0
    1.5995   -0.3753   -0.0589 C   0  0  0  0  0  0  0  0  0  0  0  0
    2.8879   -0.3816   -0.5119 N   0  0  0  0  0  0  0  0  0  0  0  0
    3.2746    0.2843   -1.7390 C   0  0  0  0  0  0  0  0  0  0  0  0
    4.7453    0.0186   -2.0643 C   0  0  0  0  0  0  0  0  0  0  0  0
    5.7057    0.7667   -1.1360 C   0  0  0  0  0  0  0  0  0  0  0  0
    7.1553    0.5307   -1.5320 C   0  0  0  0  0  0  0  0  0  0  0  0
    1.4811   -0.6571    1.2752 N   0  0  0  0  0  0  0  0  0  0  0  0
    0.2917   -0.7064    1.7651 C   0  0  0  0  0  0  0  0  0  0  0  0
   -0.0945   -0.9750    3.0795 N   0  0  0  0  0  0  0  0  0  0  0  0
    0.6694   -1.8881    3.9079 C   0  0  0  0  0  0  0  0  0  0  0  0
   -1.9837   -0.6180    3.8033 H   0  0  0  0  0  0  0  0  0  0  0  0
   -2.9668   -0.6214    1.6075 H   0  0  0  0  0  0  0  0  0  0  0  0
   -3.2227   -1.6829   -1.8631 H   0  0  0  0  0  0  0  0  0  0  0  0
   -5.7071   -1.7749   -1.4459 H   0  0  0  0  0  0  0  0  0  0  0  0
   -7.8033   -0.0484   -0.3779 H   0  0  0  0  0  0  0  0  0  0  0  0
   -7.6641    2.3413    0.5274 H   0  0  0  0  0  0  0  0  0  0  0  0
   -2.8495    2.3788   -0.3300 H   0  0  0  0  0  0  0  0  0  0  0  0
    3.5479   -0.3397    0.2531 H   0  0  0  0  0  0  0  0  0  0  0  0
    3.0913    1.3620   -1.6584 H   0  0  0  0  0  0  0  0  0  0  0  0
    2.6666   -0.0966   -2.5680 H   0  0  0  0  0  0  0  0  0  0  0  0
    4.9502   -1.0583   -2.0204 H   0  0  0  0  0  0  0  0  0  0  0  0
    4.9327    0.3391   -3.0967 H   0  0  0  0  0  0  0  0  0  0  0  0
    5.4950    1.8419   -1.1717 H   0  0  0  0  0  0  0  0  0  0  0  0
    5.5668    0.4432   -0.0989 H   0  0  0  0  0  0  0  0  0  0  0  0
    7.4081   -0.5330   -1.4783 H   0  0  0  0  0  0  0  0  0  0  0  0
    7.8253    1.0738   -0.8581 H   0  0  0  0  0  0  0  0  0  0  0  0
    7.3452    0.8786   -2.5524 H   0  0  0  0  0  0  0  0  0  0  0  0
    0.2665   -1.9063    4.9258 H   0  0  0  0  0  0  0  0  0  0  0  0
    0.6347   -2.9044    3.5018 H   0  0  0  0  0  0  0  0  0  0  0  0
    1.7152   -1.5702    3.9687 H   0  0  0  0  0  0  0  0  0  0  0  0
  1  2  1  0
  2  3  2  0
  3  4  1  0
  4  5  2  3
  5  6  1  0
  6  7  1  0
  7  8  2  0
  8  9  1  0
  9 10  2  0
 10 11  1  0
 11 12  1  0
 12 13  2  0
 13 14  1  0
  4 15  1  0
 15 16  2  0
 16 17  1  0
 17 18  1  0
 18 19  1  0
 19 20  1  0
 20 21  1  0
 16 22  1  0
 22 23  2  0
 23 24  1  0
 24 25  1  0
 24  1  1  0
 23  3  1  0
 14  6  2  0
 13  9  1  0
  1 26  1  0
  2 27  1  0
  7 28  1  0
  8 29  1  0
 10 30  1  0
 11 31  1  0
 14 32  1  0
 17 33  1  0
 18 34  1  0
 18 35  1  0
 19 36  1  0
 19 37  1  0
 20 38  1  0
 20 39  1  0
 21 40  1  0
 21 41  1  0
 21 42  1  0
 25 43  1  0
 25 44  1  0
 25 45  1  0
M  END
>  <ScrubInfo>  (18) 
{"isomerGroup": 0, "isomerId": 17, "confId": 0, "nr_conformers:": 1, "nr_isomers:": 20}

$$$$
_i18
     RDKit          3D

 45 48  0  0  0  0  0  0  0  0999 V2000
    0.1387   -0.4274   -4.4172 N   0  0  0  0  0  0  0  0  0  0  0  0
   -0.9127   -0.5900   -3.5212 C   0  0  0  0  0  0  0  0  0  0  0  0
   -0.5863   -0.2561   -2.2645 C   0  0  0  0  0  0  0  0  0  0  0  0
   -1.2105   -0.2335   -0.9370 C   0  0  0  0  0  0  0  0  0  0  0  0
   -2.5318   -0.6244   -0.8119 N   0  0  0  0  0  0  0  0  0  0  0  0
   -3.3871   -0.6119    0.3226 C   0  0  0  0  0  0  0  0  0  0  0  0
   -4.6831   -1.2387    0.1514 C   0  0  0  0  0  0  0  0  0  0  0  0
   -5.6799   -1.3469    1.1471 C   0  0  0  0  0  0  0  0  0  0  0  0
   -5.2482   -0.7694    2.3291 C   0  0  0  0  0  0  0  0  0  0  0  0
   -5.9683   -0.7033    3.4882 C   0  0  0  0  0  0  0  0  0  0  0  0
   -5.1447   -0.0573    4.3645 N   0  0  0  0  0  0  0  0  0  0  0  0
   -3.9535    0.2986    3.8504 N   0  0  0  0  0  0  0  0  0  0  0  0
   -3.9806   -0.1363    2.5783 C   0  0  0  0  0  0  0  0  0  0  0  0
   -3.0078   -0.0481    1.5647 C   0  0  0  0  0  0  0  0  0  0  0  0
   -0.4603    0.1483    0.0542 N   0  0  0  0  0  0  0  0  0  0  0  0
    0.8523    0.5031   -0.1582 C   0  0  0  0  0  0  0  0  0  0  0  0
    1.4927    0.7813    0.9206 N   0  0  0  0  0  0  0  0  0  0  0  0
    2.8927    1.1902    0.8434 C   0  0  0  0  0  0  0  0  0  0  0  0
    3.7948   -0.0388    0.9556 C   0  0  0  0  0  0  0  0  0  0  0  0
    5.2819    0.2848    0.8028 C   0  0  0  0  0  0  0  0  0  0  0  0
    5.8299    1.1622    1.9174 C   0  0  0  0  0  0  0  0  0  0  0  0
    1.4976    0.5739   -1.3714 N   0  0  0  0  0  0  0  0  0  0  0  0
    0.8072    0.2194   -2.3969 C   0  0  0  0  0  0  0  0  0  0  0  0
    1.1832    0.1924   -3.7402 N   0  0  0  0  0  0  0  0  0  0  0  0
    2.5512   -0.1009   -4.1242 C   0  0  0  0  0  0  0  0  0  0  0  0
   -0.1373    0.0042   -5.3026 H   0  0  0  0  0  0  0  0  0  0  0  0
   -1.8584   -0.9530   -3.8950 H   0  0  0  0  0  0  0  0  0  0  0  0
   -2.9897   -0.9530   -1.6503 H   0  0  0  0  0  0  0  0  0  0  0  0
   -4.9250   -1.6722   -0.8201 H   0  0  0  0  0  0  0  0  0  0  0  0
   -6.6371   -1.8212    0.9866 H   0  0  0  0  0  0  0  0  0  0  0  0
   -6.9535   -1.0405    3.7741 H   0  0  0  0  0  0  0  0  0  0  0  0
   -5.3290    0.1776    5.3339 H   0  0  0  0  0  0  0  0  0  0  0  0
   -2.0598    0.4301    1.7608 H   0  0  0  0  0  0  0  0  0  0  0  0
    3.0804    1.8660    1.6850 H   0  0  0  0  0  0  0  0  0  0  0  0
    3.1198    1.7700   -0.0591 H   0  0  0  0  0  0  0  0  0  0  0  0
    3.6200   -0.5374    1.9172 H   0  0  0  0  0  0  0  0  0  0  0  0
    3.5212   -0.7654    0.1805 H   0  0  0  0  0  0  0  0  0  0  0  0
    5.4603    0.7693   -0.1642 H   0  0  0  0  0  0  0  0  0  0  0  0
    5.8430   -0.6573    0.7932 H   0  0  0  0  0  0  0  0  0  0  0  0
    5.6375    0.7172    2.8987 H   0  0  0  0  0  0  0  0  0  0  0  0
    5.3855    2.1615    1.8966 H   0  0  0  0  0  0  0  0  0  0  0  0
    6.9126    1.2792    1.8051 H   0  0  0  0  0  0  0  0  0  0  0  0
    2.6758    0.0147   -5.2057 H   0  0  0  0  0  0  0  0  0  0  0  0
    2.8207   -1.1262   -3.8502 H   0  0  0  0  0  0  0  0  0  0  0  0
    3.2457    0.5877   -3.6322 H   0  0  0  0  0  0  0  0  0  0  0  0
  1  2  1  0
  2  3  2  0
  3  4  1  0
  4  5  1  0
  5  6  1  0
  6  7  1  0
  7  8  2  0
  8  9  1  0
  9 10  2  0
 10 11  1  0
 11 12  1  0
 12 13  2  0
 13 14  1  0
  4 15  2  0
 15 16  1  0
 16 17  2  3
 17 18  1  0
 18 19  1  0
 19 20  1  0
 20 21  1  0
 16 22  1  0
 22 23  2  0
 23 24  1  0
 24 25  1  0
 24  1  1  0
 23  3  1  0
 14  6  2  0
 13  9  1  0
  1 26  1  0
  2 27  1  0
  5 28  1  0
  7 29  1  0
  8 30  1  0
 10 31  1  0
 11 32  1  0
 14 33  1  0
 18 34  1  0
 18 35  1  0
 19 36  1  0
 19 37  1  0
 20 38  1  0
 20 39  1  0
 21 40  1  0
 21 41  1  0
 21 42  1  0
 25 43  1  0
 25 44  1  0
 25 45  1  0
M  END
>  <ScrubInfo>  (19) 
{"isomerGroup": 0, "isomerId": 18, "confId": 0, "nr_conformers:": 1, "nr_isomers:": 20}

$$$$
_i19
     RDKit          3D

 45 48  0  0  0  0  0  0  0  0999 V2000
    0.2154   -1.4251   -4.1191 N   0  0  0  0  0  0  0  0  0  0  0  0
   -0.9053   -0.9534   -3.4424 C   0  0  0  0  0  0  0  0  0  0  0  0
   -0.5905   -0.1838   -2.3937 C   0  0  0  0  0  0  0  0  0  0  0  0
   -1.2197    0.5595   -1.3268 C   0  0  0  0  0  0  0  0  0  0  0  0
   -2.5823    0.5817   -1.3744 N   0  0  0  0  0  0  0  0  0  0  0  0
   -3.2871    0.2731   -0.3270 C   0  0  0  0  0  0  0  0  0  0  0  0
   -4.7846    0.3681   -0.4930 C   0  0  0  0  0  0  0  0  0  0  0  0
   -5.6343    0.0869    0.5065 C   0  0  0  0  0  0  0  0  0  0  0  0
   -5.0870   -0.3061    1.7665 C   0  0  0  0  0  0  0  0  0  0  0  0
   -5.6860   -0.5837    2.9377 C   0  0  0  0  0  0  0  0  0  0  0  0
   -4.7376   -0.8871    3.9123 N   0  0  0  0  0  0  0  0  0  0  0  0
   -3.4932   -0.9256    3.2858 N   0  0  0  0  0  0  0  0  0  0  0  0
   -3.6541   -0.4844    1.9785 C   0  0  0  0  0  0  0  0  0  0  0  0
   -2.7804   -0.1930    1.0123 C   0  0  0  0  0  0  0  0  0  0  0  0
   -0.5372    1.1904   -0.4360 N   0  0  0  0  0  0  0  0  0  0  0  0
    0.8335    1.0813   -0.5146 C   0  0  0  0  0  0  0  0  0  0  0  0
    1.4460    1.5862    0.4959 N   0  0  0  0  0  0  0  0  0  0  0  0
    2.9062    1.5531    0.5419 C   0  0  0  0  0  0  0  0  0  0  0  0
    3.3693    0.2819    1.2535 C   0  0  0  0  0  0  0  0  0  0  0  0
    4.8901    0.1197    1.2763 C   0  0  0  0  0  0  0  0  0  0  0  0
    5.6030    1.1931    2.0839 C   0  0  0  0  0  0  0  0  0  0  0  0
    1.5576    0.4836   -1.5259 N   0  0  0  0  0  0  0  0  0  0  0  0
    0.8830   -0.1232   -2.4414 C   0  0  0  0  0  0  0  0  0  0  0  0
    1.3380   -0.8093   -3.5680 N   0  0  0  0  0  0  0  0  0  0  0  0
    2.5992   -1.5253   -3.5483 C   0  0  0  0  0  0  0  0  0  0  0  0
    0.1270   -1.3679   -5.1367 H   0  0  0  0  0  0  0  0  0  0  0  0
   -1.8933   -1.2163   -3.7930 H   0  0  0  0  0  0  0  0  0  0  0  0
   -5.1399    0.6867   -1.4663 H   0  0  0  0  0  0  0  0  0  0  0  0
   -6.7074    0.1672    0.3827 H   0  0  0  0  0  0  0  0  0  0  0  0
   -6.7366   -0.5999    3.1853 H   0  0  0  0  0  0  0  0  0  0  0  0
   -4.9855   -1.7089    4.4679 H   0  0  0  0  0  0  0  0  0  0  0  0
   -2.7206   -0.4596    3.7661 H   0  0  0  0  0  0  0  0  0  0  0  0
   -1.7182   -0.3023    1.1744 H   0  0  0  0  0  0  0  0  0  0  0  0
    3.2332    2.4338    1.1055 H   0  0  0  0  0  0  0  0  0  0  0  0
    3.3674    1.6461   -0.4485 H   0  0  0  0  0  0  0  0  0  0  0  0
    2.9792    0.2710    2.2789 H   0  0  0  0  0  0  0  0  0  0  0  0
    2.9391   -0.5948    0.7536 H   0  0  0  0  0  0  0  0  0  0  0  0
    5.2796    0.1150    0.2516 H   0  0  0  0  0  0  0  0  0  0  0  0
    5.1285   -0.8587    1.7101 H   0  0  0  0  0  0  0  0  0  0  0  0
    5.2115    1.2419    3.1049 H   0  0  0  0  0  0  0  0  0  0  0  0
    5.4951    2.1795    1.6236 H   0  0  0  0  0  0  0  0  0  0  0  0
    6.6733    0.9704    2.1419 H   0  0  0  0  0  0  0  0  0  0  0  0
    2.8305   -1.9164   -4.5444 H   0  0  0  0  0  0  0  0  0  0  0  0
    2.5592   -2.3640   -2.8455 H   0  0  0  0  0  0  0  0  0  0  0  0
    3.4158   -0.8589   -3.2527 H   0  0  0  0  0  0  0  0  0  0  0  0
  1  2  1  0
  2  3  2  0
  3  4  1  0
  4  5  1  0
  5  6  2  3
  6  7  1  0
  7  8  2  0
  8  9  1  0
  9 10  2  0
 10 11  1  0
 11 12  1  0
 12 13  1  0
 13 14  2  0
  4 15  2  0
 15 16  1  0
 16 17  2  3
 17 18  1  0
 18 19  1  0
 19 20  1  0
 20 21  1  0
 16 22  1  0
 22 23  2  0
 23 24  1  0
 24 25  1  0
 24  1  1  0
 23  3  1  0
 14  6  1  0
 13  9  1  0
  1 26  1  0
  2 27  1  0
  7 28  1  0
  8 29  1  0
 10 30  1  0
 11 31  1  0
 12 32  1  0
 14 33  1  0
 18 34  1  0
 18 35  1  0
 19 36  1  0
 19 37  1  0
 20 38  1  0
 20 39  1  0
 21 40  1  0
 21 41  1  0
 21 42  1  0
 25 43  1  0
 25 44  1  0
 25 45  1  0
M  END
>  <ScrubInfo>  (20) 
{"isomerGroup": 0, "isomerId": 19, "confId": 0, "nr_conformers:": 1, "nr_isomers:": 20}

$$$$
