_i0
     RDKit          3D

 48 51  0  0  0  0  0  0  0  0999 V2000
    5.8912    4.2019   -0.9319 C   0  0  0  0  0  0  0  0  0  0  0  0
    4.5248    3.8331   -1.0689 O   0  0  0  0  0  0  0  0  0  0  0  0
    4.2077    2.5289   -0.8018 C   0  0  0  0  0  0  0  0  0  0  0  0
    5.0961    1.5358   -0.4000 C   0  0  0  0  0  0  0  0  0  0  0  0
    4.6271    0.2439   -0.1632 C   0  0  0  0  0  0  0  0  0  0  0  0
    3.2715   -0.0589   -0.3261 C   0  0  0  0  0  0  0  0  0  0  0  0
    2.3573    0.9181   -0.7255 C   0  0  0  0  0  0  0  0  0  0  0  0
    0.9923    0.6812   -0.9108 N   0  0  0  0  0  0  0  0  0  0  0  0
    0.1735   -0.4393   -0.7980 C   0  0  0  0  0  0  0  0  0  0  0  0
   -1.1231   -0.2008   -1.0221 N   0  0  0  0  0  0  0  0  0  0  0  0
   -1.9868   -1.2235   -0.9226 C   0  0  0  0  0  0  0  0  0  0  0  0
   -3.3331   -0.8870   -1.1503 N   0  0  0  0  0  0  0  0  0  0  0  0
   -4.1748   -0.8388    0.0573 C   0  0  0  0  0  0  0  0  0  0  0  0
   -3.8534    0.2848    1.0552 C   0  0  0  0  0  0  0  0  0  0  0  0
   -3.6290    1.6721    0.4774 C   0  0  0  0  0  0  0  0  0  0  0  0
   -2.8402    2.3297    1.5836 C   0  0  0  0  0  0  0  0  0  0  0  0
   -1.9738    1.1926    2.0853 C   0  0  0  0  0  0  0  0  0  0  0  0
   -2.7058   -0.0236    1.8707 O   0  0  0  0  0  0  0  0  0  0  0  0
   -1.5675   -2.5330   -0.6372 C   0  0  0  0  0  0  0  0  0  0  0  0
   -2.3980   -3.6849   -0.5724 C   0  0  0  0  0  0  0  0  0  0  0  0
   -1.8656   -4.9381   -0.2774 C   0  0  0  0  0  0  0  0  0  0  0  0
   -0.5030   -5.0600   -0.0496 C   0  0  0  0  0  0  0  0  0  0  0  0
    0.3144   -3.9295   -0.1257 C   0  0  0  0  0  0  0  0  0  0  0  0
   -0.1934   -2.6696   -0.4209 C   0  0  0  0  0  0  0  0  0  0  0  0
    0.6600   -1.6463   -0.4949 N   0  0  0  0  0  0  0  0  0  0  0  0
    2.8527    2.2120   -0.9609 C   0  0  0  0  0  0  0  0  0  0  0  0
    6.2327    4.0755    0.1008 H   0  0  0  0  0  0  0  0  0  0  0  0
    5.9776    5.2634   -1.1830 H   0  0  0  0  0  0  0  0  0  0  0  0
    6.5233    3.6425   -1.6295 H   0  0  0  0  0  0  0  0  0  0  0  0
    6.1538    1.7299   -0.2623 H   0  0  0  0  0  0  0  0  0  0  0  0
    5.3163   -0.5360    0.1501 H   0  0  0  0  0  0  0  0  0  0  0  0
    2.9498   -1.0770   -0.1298 H   0  0  0  0  0  0  0  0  0  0  0  0
    0.4169    1.4703   -1.1669 H   0  0  0  0  0  0  0  0  0  0  0  0
   -3.7100   -1.5471   -1.8242 H   0  0  0  0  0  0  0  0  0  0  0  0
   -5.2030   -0.6878   -0.2931 H   0  0  0  0  0  0  0  0  0  0  0  0
   -4.1590   -1.8028    0.5776 H   0  0  0  0  0  0  0  0  0  0  0  0
   -4.6938    0.3353    1.7610 H   0  0  0  0  0  0  0  0  0  0  0  0
   -4.5648    2.1902    0.2493 H   0  0  0  0  0  0  0  0  0  0  0  0
   -3.0247    1.6504   -0.4343 H   0  0  0  0  0  0  0  0  0  0  0  0
   -3.5206    2.6581    2.3784 H   0  0  0  0  0  0  0  0  0  0  0  0
   -2.2589    3.1950    1.2545 H   0  0  0  0  0  0  0  0  0  0  0  0
   -1.7326    1.2911    3.1476 H   0  0  0  0  0  0  0  0  0  0  0  0
   -1.0369    1.1296    1.5247 H   0  0  0  0  0  0  0  0  0  0  0  0
   -3.4659   -3.6074   -0.7543 H   0  0  0  0  0  0  0  0  0  0  0  0
   -2.5108   -5.8112   -0.2258 H   0  0  0  0  0  0  0  0  0  0  0  0
   -0.0686   -6.0287    0.1833 H   0  0  0  0  0  0  0  0  0  0  0  0
    1.3835   -4.0352    0.0470 H   0  0  0  0  0  0  0  0  0  0  0  0
    2.1746    3.0011   -1.2779 H   0  0  0  0  0  0  0  0  0  0  0  0
  1  2  1  0
  2  3  1  0
  3  4  2  0
  4  5  1  0
  5  6  2  0
  6  7  1  0
  7  8  1  0
  8  9  1  0
  9 10  2  0
 10 11  1  0
 11 12  1  0
 12 13  1  0
 13 14  1  0
 14 15  1  0
 15 16  1  0
 16 17  1  0
 17 18  1  0
 11 19  2  0
 19 20  1  0
 20 21  2  0
 21 22  1  0
 22 23  2  0
 23 24  1  0
 24 25  2  0
  7 26  2  0
 26  3  1  0
 25  9  1  0
 18 14  1  0
 24 19  1  0
  1 27  1  0
  1 28  1  0
  1 29  1  0
  4 30  1  0
  5 31  1  0
  6 32  1  0
  8 33  1  0
 12 34  1  0
 13 35  1  0
 13 36  1  0
 14 37  1  0
 15 38  1  0
 15 39  1  0
 16 40  1  0
 16 41  1  0
 17 42  1  0
 17 43  1  0
 20 44  1  0
 21 45  1  0
 22 46  1  0
 23 47  1  0
 26 48  1  0
M  END
>  <ScrubInfo>  (1) 
{"isomerGroup": 0, "isomerId": 0, "confId": 0, "nr_conformers:": 1, "nr_isomers:": 6}

$$$$
_i1
     RDKit          3D

 48 51  0  0  0  0  0  0  0  0999 V2000
   -0.2890    0.6932   -0.0035 N   0  0  0  0  0  0  0  0  0  0  0  0
   -1.2216   -0.3144    0.0067 C   0  0  0  0  0  0  0  0  0  0  0  0
   -2.5620   -0.0161    0.2279 N   0  0  0  0  0  0  0  0  0  0  0  0
   -3.0519    1.1475    0.9675 C   0  0  0  0  0  0  0  0  0  0  0  0
   -4.5867    1.1497    1.0037 C   0  0  0  0  0  0  0  0  0  0  0  0
   -5.2501    1.3770   -0.3461 C   0  0  0  0  0  0  0  0  0  0  0  0
   -6.6000    0.7409   -0.1267 C   0  0  0  0  0  0  0  0  0  0  0  0
   -6.2464   -0.4667    0.7151 C   0  0  0  0  0  0  0  0  0  0  0  0
   -5.0872   -0.1176    1.4880 O   0  0  0  0  0  0  0  0  0  0  0  0
   -0.7771   -1.5777   -0.2181 C   0  0  0  0  0  0  0  0  0  0  0  0
   -1.5797   -2.7875   -0.2854 C   0  0  0  0  0  0  0  0  0  0  0  0
   -1.0126   -3.9854   -0.4865 C   0  0  0  0  0  0  0  0  0  0  0  0
    0.4138   -4.1255   -0.6437 C   0  0  0  0  0  0  0  0  0  0  0  0
    1.2409   -3.0726   -0.6188 C   0  0  0  0  0  0  0  0  0  0  0  0
    0.7195   -1.6904   -0.4173 C   0  0  0  0  0  0  0  0  0  0  0  0
    1.5701   -0.7112   -0.4268 N   0  0  0  0  0  0  0  0  0  0  0  0
    1.0435    0.5392   -0.2401 C   0  0  0  0  0  0  0  0  0  0  0  0
    1.7953    1.6020   -0.2892 N   0  0  0  0  0  0  0  0  0  0  0  0
    3.1695    1.4539   -0.5283 C   0  0  0  0  0  0  0  0  0  0  0  0
    3.6653    1.4892   -1.8328 C   0  0  0  0  0  0  0  0  0  0  0  0
    5.0356    1.3796   -2.0689 C   0  0  0  0  0  0  0  0  0  0  0  0
    5.9230    1.2457   -0.9975 C   0  0  0  0  0  0  0  0  0  0  0  0
    5.4410    1.2250    0.3127 C   0  0  0  0  0  0  0  0  0  0  0  0
    6.2000    1.1076    1.4458 O   0  0  0  0  0  0  0  0  0  0  0  0
    7.6045    0.9809    1.2679 C   0  0  0  0  0  0  0  0  0  0  0  0
    4.0655    1.3354    0.5378 C   0  0  0  0  0  0  0  0  0  0  0  0
   -0.6157    1.6422    0.0441 H   0  0  0  0  0  0  0  0  0  0  0  0
   -3.1174   -0.8348    0.4751 H   0  0  0  0  0  0  0  0  0  0  0  0
   -2.6936    2.0792    0.5172 H   0  0  0  0  0  0  0  0  0  0  0  0
   -2.6715    1.0858    1.9937 H   0  0  0  0  0  0  0  0  0  0  0  0
   -4.9248    1.9172    1.7113 H   0  0  0  0  0  0  0  0  0  0  0  0
   -4.7234    0.8481   -1.1488 H   0  0  0  0  0  0  0  0  0  0  0  0
   -5.3087    2.4352   -0.6157 H   0  0  0  0  0  0  0  0  0  0  0  0
   -7.1188    0.4786   -1.0523 H   0  0  0  0  0  0  0  0  0  0  0  0
   -7.2425    1.4207    0.4455 H   0  0  0  0  0  0  0  0  0  0  0  0
   -7.0586   -0.7647    1.3839 H   0  0  0  0  0  0  0  0  0  0  0  0
   -5.9794   -1.3229    0.0865 H   0  0  0  0  0  0  0  0  0  0  0  0
   -2.6563   -2.7233   -0.1834 H   0  0  0  0  0  0  0  0  0  0  0  0
   -1.6195   -4.8846   -0.5400 H   0  0  0  0  0  0  0  0  0  0  0  0
    0.8089   -5.1263   -0.7913 H   0  0  0  0  0  0  0  0  0  0  0  0
    2.3126   -3.1750   -0.7422 H   0  0  0  0  0  0  0  0  0  0  0  0
    2.9750    1.5973   -2.6641 H   0  0  0  0  0  0  0  0  0  0  0  0
    5.4111    1.4002   -3.0881 H   0  0  0  0  0  0  0  0  0  0  0  0
    6.9812    1.1636   -1.2197 H   0  0  0  0  0  0  0  0  0  0  0  0
    8.0602    0.8913    2.2587 H   0  0  0  0  0  0  0  0  0  0  0  0
    8.0238    1.8716    0.7884 H   0  0  0  0  0  0  0  0  0  0  0  0
    7.8516    0.0745    0.7052 H   0  0  0  0  0  0  0  0  0  0  0  0
    3.6823    1.3246    1.5539 H   0  0  0  0  0  0  0  0  0  0  0  0
  1  2  1  0
  2  3  1  0
  3  4  1  0
  4  5  1  0
  5  6  1  0
  6  7  1  0
  7  8  1  0
  8  9  1  0
  2 10  2  0
 10 11  1  0
 11 12  2  0
 12 13  1  0
 13 14  2  0
 14 15  1  0
 15 16  2  0
 16 17  1  0
 17 18  2  3
 18 19  1  0
 19 20  2  0
 20 21  1  0
 21 22  2  0
 22 23  1  0
 23 24  1  0
 24 25  1  0
 23 26  2  0
 17  1  1  0
 26 19  1  0
  9  5  1  0
 15 10  1  0
  1 27  1  0
  3 28  1  0
  4 29  1  0
  4 30  1  0
  5 31  1  0
  6 32  1  0
  6 33  1  0
  7 34  1  0
  7 35  1  0
  8 36  1  0
  8 37  1  0
 11 38  1  0
 12 39  1  0
 13 40  1  0
 14 41  1  0
 20 42  1  0
 21 43  1  0
 22 44  1  0
 25 45  1  0
 25 46  1  0
 25 47  1  0
 26 48  1  0
M  END
>  <ScrubInfo>  (2) 
{"isomerGroup": 0, "isomerId": 1, "confId": 0, "nr_conformers:": 1, "nr_isomers:": 6}

$$$$
_i2
     RDKit          3D

 48 51  0  0  0  0  0  0  0  0999 V2000
    0.0781    0.1846    0.1203 N   0  0  0  0  0  0  0  0  0  0  0  0
   -1.0807   -0.5448    0.0290 C   0  0  0  0  0  0  0  0  0  0  0  0
   -2.1965    0.2529    0.1271 N   0  0  0  0  0  0  0  0  0  0  0  0
   -3.5444   -0.1619    0.2283 C   0  0  0  0  0  0  0  0  0  0  0  0
   -3.9243   -1.4167    0.7169 C   0  0  0  0  0  0  0  0  0  0  0  0
   -5.2712   -1.7627    0.8423 C   0  0  0  0  0  0  0  0  0  0  0  0
   -6.2602   -0.8472    0.4942 C   0  0  0  0  0  0  0  0  0  0  0  0
   -5.9137    0.4191    0.0259 C   0  0  0  0  0  0  0  0  0  0  0  0
   -6.9775    1.2270   -0.2699 O   0  0  0  0  0  0  0  0  0  0  0  0
   -6.6874    2.5136   -0.7994 C   0  0  0  0  0  0  0  0  0  0  0  0
   -4.5618    0.7583   -0.0951 C   0  0  0  0  0  0  0  0  0  0  0  0
   -1.0723   -1.8341   -0.1433 N   0  0  0  0  0  0  0  0  0  0  0  0
    0.1830   -2.4735   -0.2539 C   0  0  0  0  0  0  0  0  0  0  0  0
    0.2023   -3.8546   -0.4652 C   0  0  0  0  0  0  0  0  0  0  0  0
    1.4135   -4.5425   -0.5880 C   0  0  0  0  0  0  0  0  0  0  0  0
    2.6239   -3.8538   -0.5009 C   0  0  0  0  0  0  0  0  0  0  0  0
    2.6271   -2.4754   -0.2901 C   0  0  0  0  0  0  0  0  0  0  0  0
    1.4111   -1.7937   -0.1684 C   0  0  0  0  0  0  0  0  0  0  0  0
    1.3537   -0.3226    0.0663 C   0  0  0  0  0  0  0  0  0  0  0  0
    2.4615    0.3218    0.2078 N   0  0  0  0  0  0  0  0  0  0  0  0
    2.4320    1.7698    0.4319 C   0  0  0  0  0  0  0  0  0  0  0  0
    3.8274    2.3788    0.2411 C   0  0  0  0  0  0  0  0  0  0  0  0
    4.9451    1.7166    1.0364 C   0  0  0  0  0  0  0  0  0  0  0  0
    6.1458    1.9838    0.1632 C   0  0  0  0  0  0  0  0  0  0  0  0
    5.5560    1.8374   -1.2221 C   0  0  0  0  0  0  0  0  0  0  0  0
    4.2175    2.3450   -1.1485 O   0  0  0  0  0  0  0  0  0  0  0  0
   -0.0121    1.1366    0.4294 H   0  0  0  0  0  0  0  0  0  0  0  0
   -2.1032    1.1546   -0.3188 H   0  0  0  0  0  0  0  0  0  0  0  0
   -3.1786   -2.1474    1.0189 H   0  0  0  0  0  0  0  0  0  0  0  0
   -5.5450   -2.7455    1.2164 H   0  0  0  0  0  0  0  0  0  0  0  0
   -7.3078   -1.1201    0.5934 H   0  0  0  0  0  0  0  0  0  0  0  0
   -7.6390    3.0138   -1.0035 H   0  0  0  0  0  0  0  0  0  0  0  0
   -6.1412    2.4382   -1.7455 H   0  0  0  0  0  0  0  0  0  0  0  0
   -6.1397    3.1237   -0.0736 H   0  0  0  0  0  0  0  0  0  0  0  0
   -4.2778    1.7435   -0.4472 H   0  0  0  0  0  0  0  0  0  0  0  0
   -0.7381   -4.3951   -0.5367 H   0  0  0  0  0  0  0  0  0  0  0  0
    1.4094   -5.6170   -0.7534 H   0  0  0  0  0  0  0  0  0  0  0  0
    3.5643   -4.3905   -0.5979 H   0  0  0  0  0  0  0  0  0  0  0  0
    3.5685   -1.9367   -0.2232 H   0  0  0  0  0  0  0  0  0  0  0  0
    2.0882    1.9708    1.4529 H   0  0  0  0  0  0  0  0  0  0  0  0
    1.7491    2.2510   -0.2785 H   0  0  0  0  0  0  0  0  0  0  0  0
    3.7759    3.4419    0.5083 H   0  0  0  0  0  0  0  0  0  0  0  0
    4.7998    0.6347    1.1287 H   0  0  0  0  0  0  0  0  0  0  0  0
    5.0435    2.1282    2.0449 H   0  0  0  0  0  0  0  0  0  0  0  0
    6.9820    1.3042    0.3462 H   0  0  0  0  0  0  0  0  0  0  0  0
    6.4942    3.0120    0.3168 H   0  0  0  0  0  0  0  0  0  0  0  0
    5.5010    0.7851   -1.5219 H   0  0  0  0  0  0  0  0  0  0  0  0
    6.1186    2.3890   -1.9802 H   0  0  0  0  0  0  0  0  0  0  0  0
  1  2  1  0
  2  3  1  0
  3  4  1  0
  4  5  2  0
  5  6  1  0
  6  7  2  0
  7  8  1  0
  8  9  1  0
  9 10  1  0
  8 11  2  0
  2 12  2  0
 12 13  1  0
 13 14  2  0
 14 15  1  0
 15 16  2  0
 16 17  1  0
 17 18  2  0
 18 19  1  0
 19 20  2  3
 20 21  1  0
 21 22  1  0
 22 23  1  0
 23 24  1  0
 24 25  1  0
 25 26  1  0
 19  1  1  0
 26 22  1  0
 11  4  1  0
 18 13  1  0
  1 27  1  0
  3 28  1  0
  5 29  1  0
  6 30  1  0
  7 31  1  0
 10 32  1  0
 10 33  1  0
 10 34  1  0
 11 35  1  0
 14 36  1  0
 15 37  1  0
 16 38  1  0
 17 39  1  0
 21 40  1  0
 21 41  1  0
 22 42  1  0
 23 43  1  0
 23 44  1  0
 24 45  1  0
 24 46  1  0
 25 47  1  0
 25 48  1  0
M  END
>  <ScrubInfo>  (3) 
{"isomerGroup": 0, "isomerId": 2, "confId": 0, "nr_conformers:": 1, "nr_isomers:": 6}

$$$$
_i3
     RDKit          3D

 48 51  0  0  0  0  0  0  0  0999 V2000
    1.5654    0.9023    0.3882 N   0  0  0  0  0  0  0  0  0  0  0  0
    1.1677   -0.0976   -0.4612 C   0  0  0  0  0  0  0  0  0  0  0  0
    1.9527   -0.7857   -1.2355 N   0  0  0  0  0  0  0  0  0  0  0  0
    3.3267   -0.5205   -1.2364 C   0  0  0  0  0  0  0  0  0  0  0  0
    3.8622    0.3954   -2.1447 C   0  0  0  0  0  0  0  0  0  0  0  0
    5.2276    0.6728   -2.1384 C   0  0  0  0  0  0  0  0  0  0  0  0
    6.0608    0.0223   -1.2279 C   0  0  0  0  0  0  0  0  0  0  0  0
    5.5417   -0.9149   -0.3303 C   0  0  0  0  0  0  0  0  0  0  0  0
    6.4671   -1.4847    0.5010 O   0  0  0  0  0  0  0  0  0  0  0  0
    6.0038   -2.5238    1.3554 C   0  0  0  0  0  0  0  0  0  0  0  0
    4.1728   -1.1856   -0.3413 C   0  0  0  0  0  0  0  0  0  0  0  0
   -0.1497   -0.4692   -0.5575 N   0  0  0  0  0  0  0  0  0  0  0  0
   -1.0674    0.1944    0.0884 C   0  0  0  0  0  0  0  0  0  0  0  0
   -2.3873   -0.2103    0.0013 N   0  0  0  0  0  0  0  0  0  0  0  0
   -2.7445   -1.4988   -0.5904 C   0  0  0  0  0  0  0  0  0  0  0  0
   -4.2679   -1.6289   -0.6946 C   0  0  0  0  0  0  0  0  0  0  0  0
   -4.9148   -0.6870   -1.6985 C   0  0  0  0  0  0  0  0  0  0  0  0
   -6.3241   -0.6071   -1.1674 C   0  0  0  0  0  0  0  0  0  0  0  0
   -6.0978   -0.6017    0.3296 C   0  0  0  0  0  0  0  0  0  0  0  0
   -4.8948   -1.3459    0.5791 O   0  0  0  0  0  0  0  0  0  0  0  0
   -0.7305    1.3896    0.9265 C   0  0  0  0  0  0  0  0  0  0  0  0
   -1.6951    2.1809    1.5600 C   0  0  0  0  0  0  0  0  0  0  0  0
   -1.2943    3.2682    2.3385 C   0  0  0  0  0  0  0  0  0  0  0  0
    0.0611    3.5636    2.4812 C   0  0  0  0  0  0  0  0  0  0  0  0
    1.0206    2.7820    1.8343 C   0  0  0  0  0  0  0  0  0  0  0  0
    0.6287    1.7029    1.0369 C   0  0  0  0  0  0  0  0  0  0  0  0
    2.5224    1.2114    0.3412 H   0  0  0  0  0  0  0  0  0  0  0  0
    3.2073    0.8875   -2.8590 H   0  0  0  0  0  0  0  0  0  0  0  0
    5.6430    1.3855   -2.8454 H   0  0  0  0  0  0  0  0  0  0  0  0
    7.1273    0.2354   -1.2258 H   0  0  0  0  0  0  0  0  0  0  0  0
    6.8640   -2.9049    1.9142 H   0  0  0  0  0  0  0  0  0  0  0  0
    5.5867   -3.3557    0.7781 H   0  0  0  0  0  0  0  0  0  0  0  0
    5.2785   -2.1417    2.0812 H   0  0  0  0  0  0  0  0  0  0  0  0
    3.7241   -1.9076    0.3323 H   0  0  0  0  0  0  0  0  0  0  0  0
   -2.9711   -0.0221    0.8117 H   0  0  0  0  0  0  0  0  0  0  0  0
   -2.3622   -2.2918    0.0628 H   0  0  0  0  0  0  0  0  0  0  0  0
   -2.2948   -1.6157   -1.5826 H   0  0  0  0  0  0  0  0  0  0  0  0
   -4.5206   -2.6656   -0.9508 H   0  0  0  0  0  0  0  0  0  0  0  0
   -4.4567    0.3085   -1.6705 H   0  0  0  0  0  0  0  0  0  0  0  0
   -4.8594   -1.0599   -2.7250 H   0  0  0  0  0  0  0  0  0  0  0  0
   -6.8778    0.2677   -1.5181 H   0  0  0  0  0  0  0  0  0  0  0  0
   -6.8824   -1.5048   -1.4582 H   0  0  0  0  0  0  0  0  0  0  0  0
   -5.9402    0.4160    0.7022 H   0  0  0  0  0  0  0  0  0  0  0  0
   -6.9288   -1.0502    0.8811 H   0  0  0  0  0  0  0  0  0  0  0  0
   -2.7548    1.9768    1.4518 H   0  0  0  0  0  0  0  0  0  0  0  0
   -2.0396    3.8854    2.8346 H   0  0  0  0  0  0  0  0  0  0  0  0
    0.3714    4.4070    3.0937 H   0  0  0  0  0  0  0  0  0  0  0  0
    2.0729    3.0263    1.9540 H   0  0  0  0  0  0  0  0  0  0  0  0
  1  2  1  0
  2  3  2  3
  3  4  1  0
  4  5  2  0
  5  6  1  0
  6  7  2  0
  7  8  1  0
  8  9  1  0
  9 10  1  0
  8 11  2  0
  2 12  1  0
 12 13  2  0
 13 14  1  0
 14 15  1  0
 15 16  1  0
 16 17  1  0
 17 18  1  0
 18 19  1  0
 19 20  1  0
 13 21  1  0
 21 22  2  0
 22 23  1  0
 23 24  2  0
 24 25  1  0
 25 26  2  0
 26  1  1  0
 11  4  1  0
 20 16  1  0
 26 21  1  0
  1 27  1  0
  5 28  1  0
  6 29  1  0
  7 30  1  0
 10 31  1  0
 10 32  1  0
 10 33  1  0
 11 34  1  0
 14 35  1  0
 15 36  1  0
 15 37  1  0
 16 38  1  0
 17 39  1  0
 17 40  1  0
 18 41  1  0
 18 42  1  0
 19 43  1  0
 19 44  1  0
 22 45  1  0
 23 46  1  0
 24 47  1  0
 25 48  1  0
M  END
>  <ScrubInfo>  (4) 
{"isomerGroup": 0, "isomerId": 3, "confId": 0, "nr_conformers:": 1, "nr_isomers:": 6}

$$$$
_i4
     RDKit          3D

 48 51  0  0  0  0  0  0  0  0999 V2000
    1.1303    0.1940   -1.0080 N   0  0  0  0  0  0  0  0  0  0  0  0
    1.0783   -0.2720    0.2767 C   0  0  0  0  0  0  0  0  0  0  0  0
    2.2180   -0.8853    0.7260 N   0  0  0  0  0  0  0  0  0  0  0  0
    3.5140   -0.3131    0.6825 C   0  0  0  0  0  0  0  0  0  0  0  0
    3.7299    1.0683    0.6027 C   0  0  0  0  0  0  0  0  0  0  0  0
    5.0262    1.5825    0.5979 C   0  0  0  0  0  0  0  0  0  0  0  0
    6.1164    0.7187    0.6880 C   0  0  0  0  0  0  0  0  0  0  0  0
    5.9230   -0.6596    0.7937 C   0  0  0  0  0  0  0  0  0  0  0  0
    7.0748   -1.3918    0.8849 O   0  0  0  0  0  0  0  0  0  0  0  0
    6.9344   -2.8019    1.0064 C   0  0  0  0  0  0  0  0  0  0  0  0
    4.6221   -1.1684    0.7997 C   0  0  0  0  0  0  0  0  0  0  0  0
    0.0405   -0.2054    1.0533 N   0  0  0  0  0  0  0  0  0  0  0  0
   -1.1194    0.3284    0.5292 C   0  0  0  0  0  0  0  0  0  0  0  0
   -2.1790   -0.0869    1.1223 N   0  0  0  0  0  0  0  0  0  0  0  0
   -3.5383    0.1689    0.6691 C   0  0  0  0  0  0  0  0  0  0  0  0
   -4.4496   -0.9855    1.1376 C   0  0  0  0  0  0  0  0  0  0  0  0
   -5.9248   -0.6017    1.1254 C   0  0  0  0  0  0  0  0  0  0  0  0
   -6.3589   -0.9892   -0.2654 C   0  0  0  0  0  0  0  0  0  0  0  0
   -5.5582   -2.2496   -0.4975 C   0  0  0  0  0  0  0  0  0  0  0  0
   -4.3271   -2.0947    0.2170 O   0  0  0  0  0  0  0  0  0  0  0  0
   -1.0003    1.2627   -0.6343 C   0  0  0  0  0  0  0  0  0  0  0  0
   -1.9256    2.2607   -0.9513 C   0  0  0  0  0  0  0  0  0  0  0  0
   -1.7387    3.0499   -2.0887 C   0  0  0  0  0  0  0  0  0  0  0  0
   -0.6234    2.8535   -2.9020 C   0  0  0  0  0  0  0  0  0  0  0  0
    0.3288    1.8919   -2.5621 C   0  0  0  0  0  0  0  0  0  0  0  0
    0.1628    1.1205   -1.4085 C   0  0  0  0  0  0  0  0  0  0  0  0
    2.0293    0.2075   -1.4662 H   0  0  0  0  0  0  0  0  0  0  0  0
    2.0457   -1.2528    1.6607 H   0  0  0  0  0  0  0  0  0  0  0  0
    2.8934    1.7623    0.5658 H   0  0  0  0  0  0  0  0  0  0  0  0
    5.1875    2.6556    0.5366 H   0  0  0  0  0  0  0  0  0  0  0  0
    7.1263    1.1222    0.6871 H   0  0  0  0  0  0  0  0  0  0  0  0
    7.9379   -3.2331    1.0726 H   0  0  0  0  0  0  0  0  0  0  0  0
    6.3967   -3.0676    1.9226 H   0  0  0  0  0  0  0  0  0  0  0  0
    6.4468   -3.2273    0.1231 H   0  0  0  0  0  0  0  0  0  0  0  0
    4.4374   -2.2350    0.8796 H   0  0  0  0  0  0  0  0  0  0  0  0
   -3.5934    0.2374   -0.4221 H   0  0  0  0  0  0  0  0  0  0  0  0
   -3.8815    1.1051    1.1213 H   0  0  0  0  0  0  0  0  0  0  0  0
   -4.1489   -1.3265    2.1347 H   0  0  0  0  0  0  0  0  0  0  0  0
   -6.1163    0.4476    1.3664 H   0  0  0  0  0  0  0  0  0  0  0  0
   -6.4668   -1.2159    1.8553 H   0  0  0  0  0  0  0  0  0  0  0  0
   -6.0594   -0.2145   -0.9806 H   0  0  0  0  0  0  0  0  0  0  0  0
   -7.4365   -1.1453   -0.3616 H   0  0  0  0  0  0  0  0  0  0  0  0
   -5.3510   -2.4273   -1.5564 H   0  0  0  0  0  0  0  0  0  0  0  0
   -6.0731   -3.1266   -0.0908 H   0  0  0  0  0  0  0  0  0  0  0  0
   -2.7847    2.4530   -0.3193 H   0  0  0  0  0  0  0  0  0  0  0  0
   -2.4652    3.8193   -2.3403 H   0  0  0  0  0  0  0  0  0  0  0  0
   -0.4865    3.4627   -3.7924 H   0  0  0  0  0  0  0  0  0  0  0  0
    1.2061    1.7657   -3.1908 H   0  0  0  0  0  0  0  0  0  0  0  0
  1  2  1  0
  2  3  1  0
  3  4  1  0
  4  5  2  0
  5  6  1  0
  6  7  2  0
  7  8  1  0
  8  9  1  0
  9 10  1  0
  8 11  2  0
  2 12  2  0
 12 13  1  0
 13 14  2  3
 14 15  1  0
 15 16  1  0
 16 17  1  0
 17 18  1  0
 18 19  1  0
 19 20  1  0
 13 21  1  0
 21 22  2  0
 22 23  1  0
 23 24  2  0
 24 25  1  0
 25 26  2  0
 26  1  1  0
 11  4  1  0
 20 16  1  0
 26 21  1  0
  1 27  1  0
  3 28  1  0
  5 29  1  0
  6 30  1  0
  7 31  1  0
 10 32  1  0
 10 33  1  0
 10 34  1  0
 11 35  1  0
 15 36  1  0
 15 37  1  0
 16 38  1  0
 17 39  1  0
 17 40  1  0
 18 41  1  0
 18 42  1  0
 19 43  1  0
 19 44  1  0
 22 45  1  0
 23 46  1  0
 24 47  1  0
 25 48  1  0
M  END
>  <ScrubInfo>  (5) 
{"isomerGroup": 0, "isomerId": 4, "confId": 0, "nr_conformers:": 1, "nr_isomers:": 6}

$$$$
_i5
     RDKit          3D

 48 51  0  0  0  0  0  0  0  0999 V2000
    1.4459    0.9867    0.2237 N   0  0  0  0  0  0  0  0  0  0  0  0
    1.2195   -0.3517    0.4338 C   0  0  0  0  0  0  0  0  0  0  0  0
    2.1097   -1.2786    0.6456 N   0  0  0  0  0  0  0  0  0  0  0  0
    3.4637   -0.9187    0.6746 C   0  0  0  0  0  0  0  0  0  0  0  0
    4.0652   -0.5502    1.8799 C   0  0  0  0  0  0  0  0  0  0  0  0
    5.4082   -0.1806    1.9092 C   0  0  0  0  0  0  0  0  0  0  0  0
    6.1536   -0.1903    0.7300 C   0  0  0  0  0  0  0  0  0  0  0  0
    5.5696   -0.5777   -0.4792 C   0  0  0  0  0  0  0  0  0  0  0  0
    6.4126   -0.5483   -1.5562 O   0  0  0  0  0  0  0  0  0  0  0  0
    5.8896   -1.0186   -2.7927 C   0  0  0  0  0  0  0  0  0  0  0  0
    4.2235   -0.9451   -0.5008 C   0  0  0  0  0  0  0  0  0  0  0  0
   -0.1015   -0.7064    0.4063 N   0  0  0  0  0  0  0  0  0  0  0  0
   -1.2132    0.0771    0.2076 C   0  0  0  0  0  0  0  0  0  0  0  0
   -2.4456   -0.3048    0.1813 N   0  0  0  0  0  0  0  0  0  0  0  0
   -2.7537   -1.7230    0.3937 C   0  0  0  0  0  0  0  0  0  0  0  0
   -4.2704   -1.9464    0.4563 C   0  0  0  0  0  0  0  0  0  0  0  0
   -5.0567   -1.4011   -0.7292 C   0  0  0  0  0  0  0  0  0  0  0  0
   -6.3993   -1.1147   -0.1042 C   0  0  0  0  0  0  0  0  0  0  0  0
   -5.9987   -0.6114    1.2648 C   0  0  0  0  0  0  0  0  0  0  0  0
   -4.8350   -1.3553    1.6462 O   0  0  0  0  0  0  0  0  0  0  0  0
   -0.9260    1.5301   -0.0024 C   0  0  0  0  0  0  0  0  0  0  0  0
   -1.9485    2.4617   -0.2088 C   0  0  0  0  0  0  0  0  0  0  0  0
   -1.6271    3.8045   -0.4019 C   0  0  0  0  0  0  0  0  0  0  0  0
   -0.2923    4.2110   -0.3888 C   0  0  0  0  0  0  0  0  0  0  0  0
    0.7282    3.2776   -0.1807 C   0  0  0  0  0  0  0  0  0  0  0  0
    0.4232    1.9266    0.0179 C   0  0  0  0  0  0  0  0  0  0  0  0
    2.3972    1.3238    0.2515 H   0  0  0  0  0  0  0  0  0  0  0  0
    3.4809   -0.5537    2.7964 H   0  0  0  0  0  0  0  0  0  0  0  0
    5.8752    0.1071    2.8471 H   0  0  0  0  0  0  0  0  0  0  0  0
    7.2029    0.0950    0.7535 H   0  0  0  0  0  0  0  0  0  0  0  0
    6.6915   -0.9677   -3.5356 H   0  0  0  0  0  0  0  0  0  0  0  0
    5.0715   -0.3800   -3.1419 H   0  0  0  0  0  0  0  0  0  0  0  0
    5.5718   -2.0638   -2.7166 H   0  0  0  0  0  0  0  0  0  0  0  0
    3.7292   -1.2560   -1.4145 H   0  0  0  0  0  0  0  0  0  0  0  0
   -0.2451   -1.6904    0.5710 H   0  0  0  0  0  0  0  0  0  0  0  0
   -2.3156   -2.0600    1.3408 H   0  0  0  0  0  0  0  0  0  0  0  0
   -2.3389   -2.3179   -0.4282 H   0  0  0  0  0  0  0  0  0  0  0  0
   -4.4540   -3.0247    0.5448 H   0  0  0  0  0  0  0  0  0  0  0  0
   -5.1089   -2.1102   -1.5603 H   0  0  0  0  0  0  0  0  0  0  0  0
   -4.6295   -0.4674   -1.1112 H   0  0  0  0  0  0  0  0  0  0  0  0
   -7.0006   -0.3951   -0.6656 H   0  0  0  0  0  0  0  0  0  0  0  0
   -6.9705   -2.0458   -0.0102 H   0  0  0  0  0  0  0  0  0  0  0  0
   -5.7255    0.4490    1.2343 H   0  0  0  0  0  0  0  0  0  0  0  0
   -6.7858   -0.7490    2.0112 H   0  0  0  0  0  0  0  0  0  0  0  0
   -2.9880    2.1438   -0.2165 H   0  0  0  0  0  0  0  0  0  0  0  0
   -2.4180    4.5333   -0.5616 H   0  0  0  0  0  0  0  0  0  0  0  0
   -0.0450    5.2592   -0.5400 H   0  0  0  0  0  0  0  0  0  0  0  0
    1.7604    3.6180   -0.1743 H   0  0  0  0  0  0  0  0  0  0  0  0
  1  2  1  0
  2  3  2  3
  3  4  1  0
  4  5  2  0
  5  6  1  0
  6  7  2  0
  7  8  1  0
  8  9  1  0
  9 10  1  0
  8 11  2  0
  2 12  1  0
 12 13  1  0
 13 14  2  3
 14 15  1  0
 15 16  1  0
 16 17  1  0
 17 18  1  0
 18 19  1  0
 19 20  1  0
 13 21  1  0
 21 22  2  0
 22 23  1  0
 23 24  2  0
 24 25  1  0
 25 26  2  0
 26  1  1  0
 11  4  1  0
 20 16  1  0
 26 21  1  0
  1 27  1  0
  5 28  1  0
  6 29  1  0
  7 30  1  0
 10 31  1  0
 10 32  1  0
 10 33  1  0
 11 34  1  0
 12 35  1  0
 15 36  1  0
 15 37  1  0
 16 38  1  0
 17 39  1  0
 17 40  1  0
 18 41  1  0
 18 42  1  0
 19 43  1  0
 19 44  1  0
 22 45  1  0
 23 46  1  0
 24 47  1  0
 25 48  1  0
M  END
>  <ScrubInfo>  (6) 
{"isomerGroup": 0, "isomerId": 5, "confId": 0, "nr_conformers:": 1, "nr_isomers:": 6}

$$$$
