REMARK SMILES COc1cccc(Nc2nc(NC[C@@H]3CCCO3)c3ccccc3n2)c1
REMARK SMILES IDX 9 1 10 2 11 3 19 4 20 5 21 6 22 7 23 8 24 9 25 10 8 11 7 13
REMARK SMILES IDX 3 14 4 15 26 16 5 17 6 18 2 19 1 20 12 21 13 23 14 24 15 25
REMARK SMILES IDX 18 26 16 27 17 28
REMARK H PARENT 8 12 12 22
ROOT
ATOM      1  C   UNL     1       0.173  -0.439  -0.798  1.00  0.00     0.229 A 
ATOM      2  N   UNL     1      -1.123  -0.201  -1.022  1.00  0.00    -0.195 NA
ATOM      3  C   UNL     1      -1.987  -1.224  -0.923  1.00  0.00     0.139 A 
ATOM      4  C   UNL     1      -1.567  -2.533  -0.637  1.00  0.00     0.043 A 
ATOM      5  C   UNL     1      -2.398  -3.685  -0.572  1.00  0.00     0.014 A 
ATOM      6  C   UNL     1      -1.866  -4.938  -0.277  1.00  0.00     0.001 A 
ATOM      7  C   UNL     1      -0.503  -5.060  -0.050  1.00  0.00     0.002 A 
ATOM      8  C   UNL     1       0.314  -3.929  -0.126  1.00  0.00     0.029 A 
ATOM      9  C   UNL     1      -0.193  -2.670  -0.421  1.00  0.00     0.078 A 
ATOM     10  N   UNL     1       0.660  -1.646  -0.495  1.00  0.00    -0.213 NA
ENDROOT
BRANCH   1  11
ATOM     11  N   UNL     1       0.992   0.681  -0.911  1.00  0.00    -0.324 N 
ATOM     12  H   UNL     1       0.417   1.470  -1.167  1.00  0.00     0.170 HD
BRANCH  11  13
ATOM     13  C   UNL     1       2.357   0.918  -0.726  1.00  0.00     0.045 A 
ATOM     14  C   UNL     1       4.208   2.529  -0.802  1.00  0.00     0.120 A 
ATOM     15  C   UNL     1       5.096   1.536  -0.400  1.00  0.00     0.046 A 
ATOM     16  C   UNL     1       2.853   2.212  -0.961  1.00  0.00     0.072 A 
ATOM     17  C   UNL     1       4.627   0.244  -0.163  1.00  0.00     0.006 A 
ATOM     18  C   UNL     1       3.272  -0.059  -0.326  1.00  0.00     0.026 A 
BRANCH  14  19
ATOM     19  O   UNL     1       4.525   3.833  -1.069  1.00  0.00    -0.497 OA
ATOM     20  C   UNL     1       5.891   4.202  -0.932  1.00  0.00     0.278 C 
ENDBRANCH  14  19
ENDBRANCH  11  13
ENDBRANCH   1  11
BRANCH   3  21
ATOM     21  N   UNL     1      -3.333  -0.887  -1.150  1.00  0.00    -0.367 N 
ATOM     22  H   UNL     1      -3.710  -1.547  -1.824  1.00  0.00     0.162 HD
BRANCH  21  23
ATOM     23  C   UNL     1      -4.175  -0.839   0.057  1.00  0.00     0.146 C 
BRANCH  23  24
ATOM     24  C   UNL     1      -3.853   0.285   1.055  1.00  0.00     0.137 C 
ATOM     25  C   UNL     1      -3.629   1.672   0.477  1.00  0.00     0.036 C 
ATOM     26  O   UNL     1      -2.706  -0.024   1.871  1.00  0.00    -0.376 OA
ATOM     27  C   UNL     1      -2.840   2.330   1.584  1.00  0.00     0.031 C 
ATOM     28  C   UNL     1      -1.974   1.193   2.085  1.00  0.00     0.160 C 
ENDBRANCH  23  24
ENDBRANCH  21  23
ENDBRANCH   3  21
TORSDOF 6
