_i0
     RDKit          3D

 42 44  0  0  0  0  0  0  0  0999 V2000
    6.0621    1.0681    0.9212 C   0  0  0  0  0  0  0  0  0  0  0  0
    5.9020    0.8835   -0.5807 C   0  0  0  0  0  0  0  0  0  0  0  0
    4.8233    1.7917   -1.1684 C   0  0  0  0  0  0  0  0  0  0  0  0
    3.5550    1.6214   -0.5376 O   0  0  0  0  0  0  0  0  0  0  0  0
    2.8586    0.4528   -0.9754 C   0  0  0  0  0  0  0  0  0  0  0  0
    1.4858    0.4080   -0.2978 C   0  0  0  0  0  0  0  0  0  0  0  0
    0.7419   -0.7777   -0.7039 N   0  0  0  0  0  0  0  0  0  0  0  0
   -0.5785   -1.0582   -0.3343 C   0  0  0  0  0  0  0  0  0  0  0  0
   -1.5332   -0.1394   -0.1004 C   0  0  0  0  0  0  0  0  0  0  0  0
   -2.8962   -0.6460    0.2719 C   0  0  0  0  0  0  0  0  0  0  0  0
   -3.9408    0.3867    0.5353 C   0  0  0  0  0  0  0  0  0  0  0  0
   -3.6392    1.6010    1.1690 C   0  0  0  0  0  0  0  0  0  0  0  0
   -4.6515    2.5355    1.4034 C   0  0  0  0  0  0  0  0  0  0  0  0
   -5.9560    2.2511    1.0138 C   0  0  0  0  0  0  0  0  0  0  0  0
   -6.9221    3.1499    1.2418 F   0  0  0  0  0  0  0  0  0  0  0  0
   -6.2729    1.0457    0.3991 C   0  0  0  0  0  0  0  0  0  0  0  0
   -5.2652    0.1085    0.1635 C   0  0  0  0  0  0  0  0  0  0  0  0
   -3.2246   -1.9051    0.3575 N   0  0  0  0  0  0  0  0  0  0  0  0
   -2.2340   -2.8121    0.1173 C   0  0  0  0  0  0  0  0  0  0  0  0
   -2.2308   -4.1873    0.1383 C   0  0  0  0  0  0  0  0  0  0  0  0
   -0.9154   -4.5566   -0.1784 C   0  0  0  0  0  0  0  0  0  0  0  0
   -0.1164   -3.5096   -0.3893 N   0  0  0  0  0  0  0  0  0  0  0  0
   -0.9352   -2.4259   -0.2181 N   0  0  0  0  0  0  0  0  0  0  0  0
    6.8710    0.4325    1.2951 H   0  0  0  0  0  0  0  0  0  0  0  0
    5.1466    0.7954    1.4556 H   0  0  0  0  0  0  0  0  0  0  0  0
    6.3069    2.1069    1.1643 H   0  0  0  0  0  0  0  0  0  0  0  0
    6.8565    1.0958   -1.0754 H   0  0  0  0  0  0  0  0  0  0  0  0
    5.6645   -0.1669   -0.7794 H   0  0  0  0  0  0  0  0  0  0  0  0
    4.7327    1.6390   -2.2502 H   0  0  0  0  0  0  0  0  0  0  0  0
    5.1140    2.8373   -1.0173 H   0  0  0  0  0  0  0  0  0  0  0  0
    3.4287   -0.4443   -0.7117 H   0  0  0  0  0  0  0  0  0  0  0  0
    2.7352    0.4811   -2.0645 H   0  0  0  0  0  0  0  0  0  0  0  0
    1.6135    0.4149    0.7914 H   0  0  0  0  0  0  0  0  0  0  0  0
    0.9355    1.3200   -0.5571 H   0  0  0  0  0  0  0  0  0  0  0  0
    1.2920   -1.6453   -0.6744 H   0  0  0  0  0  0  0  0  0  0  0  0
   -1.3577    0.9195   -0.2134 H   0  0  0  0  0  0  0  0  0  0  0  0
   -2.6328    1.8264    1.5102 H   0  0  0  0  0  0  0  0  0  0  0  0
   -4.4338    3.4787    1.8953 H   0  0  0  0  0  0  0  0  0  0  0  0
   -7.2992    0.8402    0.1114 H   0  0  0  0  0  0  0  0  0  0  0  0
   -5.5147   -0.8381   -0.3123 H   0  0  0  0  0  0  0  0  0  0  0  0
   -3.0731   -4.8254    0.3594 H   0  0  0  0  0  0  0  0  0  0  0  0
   -0.5022   -5.5537   -0.2619 H   0  0  0  0  0  0  0  0  0  0  0  0
  1  2  1  0
  2  3  1  0
  3  4  1  0
  4  5  1  0
  5  6  1  0
  6  7  1  0
  7  8  1  0
  8  9  2  0
  9 10  1  0
 10 11  1  0
 11 12  2  0
 12 13  1  0
 13 14  2  0
 14 15  1  0
 14 16  1  0
 16 17  2  0
 10 18  2  0
 18 19  1  0
 19 20  2  0
 20 21  1  0
 21 22  2  0
 22 23  1  0
 23  8  1  0
 17 11  1  0
 23 19  1  0
  1 24  1  0
  1 25  1  0
  1 26  1  0
  2 27  1  0
  2 28  1  0
  3 29  1  0
  3 30  1  0
  5 31  1  0
  5 32  1  0
  6 33  1  0
  6 34  1  0
  7 35  1  0
  9 36  1  0
 12 37  1  0
 13 38  1  0
 16 39  1  0
 17 40  1  0
 20 41  1  0
 21 42  1  0
M  END
>  <ScrubInfo>  (1) 
{"isomerGroup": 0, "isomerId": 0, "confId": 0, "nr_conformers:": 1, "nr_isomers:": 3}

$$$$
_i1
     RDKit          3D

 42 44  0  0  0  0  0  0  0  0999 V2000
   -1.7989    1.4688    1.8857 N   0  0  0  0  0  0  0  0  0  0  0  0
   -2.1392    0.5696    0.8946 C   0  0  0  0  0  0  0  0  0  0  0  0
   -3.5352    0.1028    0.8535 C   0  0  0  0  0  0  0  0  0  0  0  0
   -3.8461   -1.2494    1.0652 C   0  0  0  0  0  0  0  0  0  0  0  0
   -5.1741   -1.6801    1.0306 C   0  0  0  0  0  0  0  0  0  0  0  0
   -6.1874   -0.7606    0.7864 C   0  0  0  0  0  0  0  0  0  0  0  0
   -7.4603   -1.1751    0.7539 F   0  0  0  0  0  0  0  0  0  0  0  0
   -5.8998    0.5830    0.5770 C   0  0  0  0  0  0  0  0  0  0  0  0
   -4.5730    1.0166    0.6118 C   0  0  0  0  0  0  0  0  0  0  0  0
   -1.2572    0.1316   -0.0243 C   0  0  0  0  0  0  0  0  0  0  0  0
    0.1684    0.6115    0.0034 C   0  0  0  0  0  0  0  0  0  0  0  0
    1.1245    0.2890   -0.7980 N   0  0  0  0  0  0  0  0  0  0  0  0
    0.8750   -0.6667   -1.8775 C   0  0  0  0  0  0  0  0  0  0  0  0
    2.1843   -0.9535   -2.6250 C   0  0  0  0  0  0  0  0  0  0  0  0
    2.9569   -2.0089   -2.0445 O   0  0  0  0  0  0  0  0  0  0  0  0
    3.5355   -1.7245   -0.7718 C   0  0  0  0  0  0  0  0  0  0  0  0
    4.6158   -0.6447   -0.8039 C   0  0  0  0  0  0  0  0  0  0  0  0
    5.7283   -0.9630   -1.7918 C   0  0  0  0  0  0  0  0  0  0  0  0
    0.4075    1.5202    1.0655 N   0  0  0  0  0  0  0  0  0  0  0  0
    1.6256    2.0814    1.3057 N   0  0  0  0  0  0  0  0  0  0  0  0
    1.4189    2.8487    2.3793 C   0  0  0  0  0  0  0  0  0  0  0  0
    0.0913    2.7997    2.8481 C   0  0  0  0  0  0  0  0  0  0  0  0
   -0.5377    1.9403    1.9867 C   0  0  0  0  0  0  0  0  0  0  0  0
   -2.5256    1.7052    2.5582 H   0  0  0  0  0  0  0  0  0  0  0  0
   -3.0588   -1.9729    1.2672 H   0  0  0  0  0  0  0  0  0  0  0  0
   -5.4240   -2.7237    1.1948 H   0  0  0  0  0  0  0  0  0  0  0  0
   -6.7081    1.2820    0.3862 H   0  0  0  0  0  0  0  0  0  0  0  0
   -4.3516    2.0683    0.4400 H   0  0  0  0  0  0  0  0  0  0  0  0
   -1.5415   -0.5606   -0.8052 H   0  0  0  0  0  0  0  0  0  0  0  0
    0.4692   -1.6048   -1.4823 H   0  0  0  0  0  0  0  0  0  0  0  0
    0.1624   -0.2268   -2.5846 H   0  0  0  0  0  0  0  0  0  0  0  0
    2.7914   -0.0523   -2.7575 H   0  0  0  0  0  0  0  0  0  0  0  0
    1.9260   -1.3069   -3.6296 H   0  0  0  0  0  0  0  0  0  0  0  0
    3.9894   -2.6611   -0.4274 H   0  0  0  0  0  0  0  0  0  0  0  0
    2.7590   -1.4840   -0.0400 H   0  0  0  0  0  0  0  0  0  0  0  0
    5.0439   -0.5409    0.1997 H   0  0  0  0  0  0  0  0  0  0  0  0
    4.1808    0.3258   -1.0637 H   0  0  0  0  0  0  0  0  0  0  0  0
    5.3501   -1.0086   -2.8177 H   0  0  0  0  0  0  0  0  0  0  0  0
    6.1990   -1.9226   -1.5553 H   0  0  0  0  0  0  0  0  0  0  0  0
    6.5003   -0.1880   -1.7525 H   0  0  0  0  0  0  0  0  0  0  0  0
    2.2502    3.4156    2.7795 H   0  0  0  0  0  0  0  0  0  0  0  0
   -0.3351    3.3199    3.6926 H   0  0  0  0  0  0  0  0  0  0  0  0
  1  2  1  0
  2  3  1  0
  3  4  2  0
  4  5  1  0
  5  6  2  0
  6  7  1  0
  6  8  1  0
  8  9  2  0
  2 10  2  0
 10 11  1  0
 11 12  2  3
 12 13  1  0
 13 14  1  0
 14 15  1  0
 15 16  1  0
 16 17  1  0
 17 18  1  0
 11 19  1  0
 19 20  1  0
 20 21  2  0
 21 22  1  0
 22 23  2  0
 23  1  1  0
  9  3  1  0
 23 19  1  0
  1 24  1  0
  4 25  1  0
  5 26  1  0
  8 27  1  0
  9 28  1  0
 10 29  1  0
 13 30  1  0
 13 31  1  0
 14 32  1  0
 14 33  1  0
 16 34  1  0
 16 35  1  0
 17 36  1  0
 17 37  1  0
 18 38  1  0
 18 39  1  0
 18 40  1  0
 21 41  1  0
 22 42  1  0
M  END
>  <ScrubInfo>  (2) 
{"isomerGroup": 0, "isomerId": 1, "confId": 0, "nr_conformers:": 1, "nr_isomers:": 3}

$$$$
_i2
     RDKit          3D

 42 44  0  0  0  0  0  0  0  0999 V2000
    0.0226   -0.2079   -3.1087 N   0  0  0  0  0  0  0  0  0  0  0  0
    0.7968    0.6079   -3.9315 C   0  0  0  0  0  0  0  0  0  0  0  0
    1.9342    1.0458   -3.3647 C   0  0  0  0  0  0  0  0  0  0  0  0
    1.8843    0.3781   -2.0393 C   0  0  0  0  0  0  0  0  0  0  0  0
    2.8044    0.4768   -1.1326 N   0  0  0  0  0  0  0  0  0  0  0  0
    2.5603   -0.2422    0.0338 C   0  0  0  0  0  0  0  0  0  0  0  0
    3.6007   -0.1555    1.0902 C   0  0  0  0  0  0  0  0  0  0  0  0
    4.1877    1.0873    1.3849 C   0  0  0  0  0  0  0  0  0  0  0  0
    5.1766    1.1967    2.3656 C   0  0  0  0  0  0  0  0  0  0  0  0
    5.5891    0.0611    3.0498 C   0  0  0  0  0  0  0  0  0  0  0  0
    6.5384    0.1640    3.9891 F   0  0  0  0  0  0  0  0  0  0  0  0
    5.0356   -1.1820    2.7695 C   0  0  0  0  0  0  0  0  0  0  0  0
    4.0461   -1.2918    1.7886 C   0  0  0  0  0  0  0  0  0  0  0  0
    1.4495   -0.9701    0.2838 C   0  0  0  0  0  0  0  0  0  0  0  0
    0.3848   -1.0452   -0.7721 C   0  0  0  0  0  0  0  0  0  0  0  0
   -0.6611   -1.7161   -0.4254 N   0  0  0  0  0  0  0  0  0  0  0  0
   -1.8283   -1.8426   -1.2955 C   0  0  0  0  0  0  0  0  0  0  0  0
   -2.7146   -0.5942   -1.2337 C   0  0  0  0  0  0  0  0  0  0  0  0
   -3.4369   -0.5736    0.0013 O   0  0  0  0  0  0  0  0  0  0  0  0
   -4.2087    0.6163    0.1436 C   0  0  0  0  0  0  0  0  0  0  0  0
   -4.9545    0.5459    1.4698 C   0  0  0  0  0  0  0  0  0  0  0  0
   -5.8062    1.7802    1.7056 C   0  0  0  0  0  0  0  0  0  0  0  0
    0.7197   -0.3659   -1.9271 N   0  0  0  0  0  0  0  0  0  0  0  0
   -0.2112   -1.0856   -3.5747 H   0  0  0  0  0  0  0  0  0  0  0  0
    0.4533    0.8010   -4.9393 H   0  0  0  0  0  0  0  0  0  0  0  0
    2.7254    1.6642   -3.7400 H   0  0  0  0  0  0  0  0  0  0  0  0
    3.8722    1.9787    0.8459 H   0  0  0  0  0  0  0  0  0  0  0  0
    5.6261    2.1575    2.5936 H   0  0  0  0  0  0  0  0  0  0  0  0
    5.3802   -2.0577    3.3099 H   0  0  0  0  0  0  0  0  0  0  0  0
    3.6370   -2.2748    1.5663 H   0  0  0  0  0  0  0  0  0  0  0  0
    1.2556   -1.4923    1.2117 H   0  0  0  0  0  0  0  0  0  0  0  0
   -2.4032   -2.7074   -0.9436 H   0  0  0  0  0  0  0  0  0  0  0  0
   -1.5376   -2.0747   -2.3226 H   0  0  0  0  0  0  0  0  0  0  0  0
   -2.1192    0.3202   -1.3267 H   0  0  0  0  0  0  0  0  0  0  0  0
   -3.4396   -0.6301   -2.0546 H   0  0  0  0  0  0  0  0  0  0  0  0
   -3.5442    1.4879    0.1290 H   0  0  0  0  0  0  0  0  0  0  0  0
   -4.9187    0.6942   -0.6878 H   0  0  0  0  0  0  0  0  0  0  0  0
   -5.5853   -0.3509    1.4896 H   0  0  0  0  0  0  0  0  0  0  0  0
   -4.2361    0.4273    2.2897 H   0  0  0  0  0  0  0  0  0  0  0  0
   -6.3297    1.7027    2.6636 H   0  0  0  0  0  0  0  0  0  0  0  0
   -5.1892    2.6841    1.7279 H   0  0  0  0  0  0  0  0  0  0  0  0
   -6.5566    1.8955    0.9169 H   0  0  0  0  0  0  0  0  0  0  0  0
  1  2  1  0
  2  3  2  0
  3  4  1  0
  4  5  2  0
  5  6  1  0
  6  7  1  0
  7  8  2  0
  8  9  1  0
  9 10  2  0
 10 11  1  0
 10 12  1  0
 12 13  2  0
  6 14  2  0
 14 15  1  0
 15 16  2  3
 16 17  1  0
 17 18  1  0
 18 19  1  0
 19 20  1  0
 20 21  1  0
 21 22  1  0
 15 23  1  0
 23  1  1  0
 23  4  1  0
 13  7  1  0
  1 24  1  0
  2 25  1  0
  3 26  1  0
  8 27  1  0
  9 28  1  0
 12 29  1  0
 13 30  1  0
 14 31  1  0
 17 32  1  0
 17 33  1  0
 18 34  1  0
 18 35  1  0
 20 36  1  0
 20 37  1  0
 21 38  1  0
 21 39  1  0
 22 40  1  0
 22 41  1  0
 22 42  1  0
M  END
>  <ScrubInfo>  (3) 
{"isomerGroup": 0, "isomerId": 2, "confId": 0, "nr_conformers:": 1, "nr_isomers:": 3}

$$$$
