REMARK SMILES CCCOCCNc1cc(-c2ccc(F)cc2)nc2ccnn12
REMARK SMILES IDX 5 1 4 2 3 3 2 4 1 5 6 6 7 7 8 9 9 10 23 11 10 12 22 13 19 14
REMARK SMILES IDX 18 15 21 16 20 17 11 18 12 19 17 20 13 21 16 22 14 23 15 24
REMARK H PARENT 7 8
ROOT
ATOM      1  C   UNL     1       2.859   0.453  -0.975  1.00  0.00     0.181 C 
ENDROOT
BRANCH   1   2
ATOM      2  O   UNL     1       3.555   1.621  -0.538  1.00  0.00    -0.380 OA
BRANCH   2   3
ATOM      3  C   UNL     1       4.823   1.792  -1.168  1.00  0.00     0.160 C 
BRANCH   3   4
ATOM      4  C   UNL     1       5.902   0.883  -0.581  1.00  0.00     0.025 C 
ATOM      5  C   UNL     1       6.062   1.068   0.921  1.00  0.00     0.006 C 
ENDBRANCH   3   4
ENDBRANCH   2   3
ENDBRANCH   1   2
BRANCH   1   6
ATOM      6  C   UNL     1       1.486   0.408  -0.298  1.00  0.00     0.143 C 
BRANCH   6   7
ATOM      7  N   UNL     1       0.742  -0.778  -0.704  1.00  0.00    -0.368 N 
ATOM      8  H   UNL     1       1.292  -1.645  -0.674  1.00  0.00     0.162 HD
BRANCH   7   9
ATOM      9  C   UNL     1      -0.579  -1.058  -0.334  1.00  0.00     0.132 A 
ATOM     10  C   UNL     1      -1.533  -0.139  -0.100  1.00  0.00     0.075 A 
ATOM     11  N   UNL     1      -0.935  -2.426  -0.218  1.00  0.00    -0.199 N 
ATOM     12  C   UNL     1      -2.896  -0.646   0.272  1.00  0.00     0.076 A 
ATOM     13  N   UNL     1      -0.116  -3.510  -0.389  1.00  0.00    -0.173 NA
ATOM     14  C   UNL     1      -2.234  -2.812   0.117  1.00  0.00     0.157 A 
ATOM     15  N   UNL     1      -3.225  -1.905   0.357  1.00  0.00    -0.228 NA
ATOM     16  C   UNL     1      -0.915  -4.557  -0.178  1.00  0.00     0.138 A 
ATOM     17  C   UNL     1      -2.231  -4.187   0.138  1.00  0.00     0.071 A 
BRANCH  12  18
ATOM     18  C   UNL     1      -3.941   0.387   0.535  1.00  0.00     0.001 A 
ATOM     19  C   UNL     1      -3.639   1.601   1.169  1.00  0.00     0.013 A 
ATOM     20  C   UNL     1      -5.265   0.108   0.164  1.00  0.00     0.013 A 
ATOM     21  C   UNL     1      -4.652   2.535   1.403  1.00  0.00     0.040 A 
ATOM     22  C   UNL     1      -6.273   1.046   0.399  1.00  0.00     0.040 A 
ATOM     23  C   UNL     1      -5.956   2.251   1.014  1.00  0.00     0.123 A 
ATOM     24  F   UNL     1      -6.922   3.150   1.242  1.00  0.00    -0.207 F 
ENDBRANCH  12  18
ENDBRANCH   7   9
ENDBRANCH   6   7
ENDBRANCH   1   6
TORSDOF 7
