REMARK SMILES COC(=O)CCCNc1nc(-c2ccc(Cl)cc2)nc2c1CCCC2
REMARK SMILES IDX 6 1 5 2 3 3 4 4 2 5 1 6 7 7 8 8 9 10 10 11 21 12 11 13 20 14
REMARK SMILES IDX 22 15 19 16 25 17 23 18 24 19 12 20 13 21 18 22 14 23 17 24
REMARK SMILES IDX 15 25 16 26
REMARK H PARENT 8 9
ROOT
ATOM      1  C   UNL     1       3.148  -0.793  -0.838  1.00  0.00     0.033 C 
ENDROOT
BRANCH   1   2
ATOM      2  C   UNL     1       2.716   0.390   0.028  1.00  0.00     0.124 C 
BRANCH   2   3
ATOM      3  C   UNL     1       3.890   1.009   0.746  1.00  0.00     0.305 C 
ATOM      4  O   UNL     1       5.055   0.650   0.647  1.00  0.00    -0.252 OA
BRANCH   3   5
ATOM      5  O   UNL     1       3.454   2.043   1.522  1.00  0.00    -0.469 OA
ATOM      6  C   UNL     1       4.491   2.702   2.248  1.00  0.00     0.282 C 
ENDBRANCH   3   5
ENDBRANCH   2   3
ENDBRANCH   1   2
BRANCH   1   7
ATOM      7  C   UNL     1       2.021  -1.373  -1.690  1.00  0.00     0.115 C 
BRANCH   7   8
ATOM      8  N   UNL     1       1.039  -2.075  -0.865  1.00  0.00    -0.370 N 
ATOM      9  H   UNL     1       0.790  -2.973  -1.272  1.00  0.00     0.162 HD
BRANCH   8  10
ATOM     10  C   UNL     1      -0.143  -1.390  -0.534  1.00  0.00     0.133 A 
ATOM     11  N   UNL     1      -0.306  -0.123  -0.946  1.00  0.00    -0.211 NA
ATOM     12  C   UNL     1      -1.096  -2.029   0.257  1.00  0.00     0.016 A 
ATOM     13  C   UNL     1      -1.440   0.513  -0.606  1.00  0.00     0.161 A 
ATOM     14  C   UNL     1      -2.245  -1.302   0.541  1.00  0.00     0.050 A 
ATOM     15  C   UNL     1      -0.921  -3.446   0.736  1.00  0.00     0.041 C 
ATOM     16  N   UNL     1      -2.426  -0.035   0.123  1.00  0.00    -0.233 NA
ATOM     17  C   UNL     1      -3.348  -1.867   1.399  1.00  0.00     0.057 C 
ATOM     18  C   UNL     1      -1.895  -3.847   1.843  1.00  0.00     0.005 C 
ATOM     19  C   UNL     1      -3.307  -3.388   1.505  1.00  0.00     0.007 C 
BRANCH  13  20
ATOM     20  C   UNL     1      -1.612   1.908  -1.063  1.00  0.00     0.019 A 
ATOM     21  C   UNL     1      -2.748   2.664  -0.710  1.00  0.00     0.013 A 
ATOM     22  C   UNL     1      -0.646   2.543  -1.871  1.00  0.00     0.013 A 
ATOM     23  C   UNL     1      -2.914   3.986  -1.140  1.00  0.00     0.021 A 
ATOM     24  C   UNL     1      -0.806   3.865  -2.304  1.00  0.00     0.021 A 
ATOM     25  C   UNL     1      -1.940   4.580  -1.936  1.00  0.00     0.041 A 
ATOM     26  Cl  UNL     1      -2.139   6.204  -2.466  1.00  0.00    -0.084 Cl
ENDBRANCH  13  20
ENDBRANCH   8  10
ENDBRANCH   7   8
ENDBRANCH   1   7
TORSDOF 7
