_i0
     RDKit          3D

 47 49  0  0  0  0  0  0  0  0999 V2000
    4.4913    2.7022    2.2482 C   0  0  0  0  0  0  0  0  0  0  0  0
    3.4542    2.0427    1.5217 O   0  0  0  0  0  0  0  0  0  0  0  0
    3.8898    1.0089    0.7463 C   0  0  0  0  0  0  0  0  0  0  0  0
    5.0548    0.6497    0.6467 O   0  0  0  0  0  0  0  0  0  0  0  0
    2.7164    0.3895    0.0275 C   0  0  0  0  0  0  0  0  0  0  0  0
    3.1481   -0.7928   -0.8377 C   0  0  0  0  0  0  0  0  0  0  0  0
    2.0207   -1.3732   -1.6901 C   0  0  0  0  0  0  0  0  0  0  0  0
    1.0394   -2.0752   -0.8652 N   0  0  0  0  0  0  0  0  0  0  0  0
   -0.1435   -1.3900   -0.5336 C   0  0  0  0  0  0  0  0  0  0  0  0
   -0.3058   -0.1232   -0.9458 N   0  0  0  0  0  0  0  0  0  0  0  0
   -1.4399    0.5129   -0.6055 C   0  0  0  0  0  0  0  0  0  0  0  0
   -1.6118    1.9081   -1.0632 C   0  0  0  0  0  0  0  0  0  0  0  0
   -2.7485    2.6637   -0.7104 C   0  0  0  0  0  0  0  0  0  0  0  0
   -2.9137    3.9859   -1.1403 C   0  0  0  0  0  0  0  0  0  0  0  0
   -1.9400    4.5802   -1.9356 C   0  0  0  0  0  0  0  0  0  0  0  0
   -2.1390    6.2042   -2.4656 Cl  0  0  0  0  0  0  0  0  0  0  0  0
   -0.8057    3.8648   -2.3040 C   0  0  0  0  0  0  0  0  0  0  0  0
   -0.6465    2.5430   -1.8711 C   0  0  0  0  0  0  0  0  0  0  0  0
   -2.4258   -0.0348    0.1226 N   0  0  0  0  0  0  0  0  0  0  0  0
   -2.2452   -1.3022    0.5410 C   0  0  0  0  0  0  0  0  0  0  0  0
   -1.0963   -2.0291    0.2565 C   0  0  0  0  0  0  0  0  0  0  0  0
   -0.9211   -3.4460    0.7357 C   0  0  0  0  0  0  0  0  0  0  0  0
   -1.8954   -3.8467    1.8435 C   0  0  0  0  0  0  0  0  0  0  0  0
   -3.3069   -3.3882    1.5050 C   0  0  0  0  0  0  0  0  0  0  0  0
   -3.3476   -1.8672    1.3986 C   0  0  0  0  0  0  0  0  0  0  0  0
    5.2186    3.1453    1.5608 H   0  0  0  0  0  0  0  0  0  0  0  0
    4.0362    3.5049    2.8350 H   0  0  0  0  0  0  0  0  0  0  0  0
    4.9809    2.0054    2.9357 H   0  0  0  0  0  0  0  0  0  0  0  0
    2.2602    1.1631   -0.5993 H   0  0  0  0  0  0  0  0  0  0  0  0
    1.9988    0.0620    0.7865 H   0  0  0  0  0  0  0  0  0  0  0  0
    3.9531   -0.4705   -1.5107 H   0  0  0  0  0  0  0  0  0  0  0  0
    3.5746   -1.5773   -0.1992 H   0  0  0  0  0  0  0  0  0  0  0  0
    1.5824   -0.6167   -2.3514 H   0  0  0  0  0  0  0  0  0  0  0  0
    2.4698   -2.1185   -2.3589 H   0  0  0  0  0  0  0  0  0  0  0  0
    0.7901   -2.9729   -1.2723 H   0  0  0  0  0  0  0  0  0  0  0  0
   -3.5237    2.2189   -0.0872 H   0  0  0  0  0  0  0  0  0  0  0  0
   -3.8026    4.5387   -0.8485 H   0  0  0  0  0  0  0  0  0  0  0  0
   -0.0413    4.3231   -2.9255 H   0  0  0  0  0  0  0  0  0  0  0  0
    0.2489    2.0019   -2.1734 H   0  0  0  0  0  0  0  0  0  0  0  0
    0.0983   -3.5976    1.1098 H   0  0  0  0  0  0  0  0  0  0  0  0
   -1.0647   -4.1150   -0.1223 H   0  0  0  0  0  0  0  0  0  0  0  0
   -1.8711   -4.9336    1.9805 H   0  0  0  0  0  0  0  0  0  0  0  0
   -1.5823   -3.3966    2.7943 H   0  0  0  0  0  0  0  0  0  0  0  0
   -4.0098   -3.7238    2.2755 H   0  0  0  0  0  0  0  0  0  0  0  0
   -3.6251   -3.8406    0.5573 H   0  0  0  0  0  0  0  0  0  0  0  0
   -4.3203   -1.5587    0.9978 H   0  0  0  0  0  0  0  0  0  0  0  0
   -3.2526   -1.4286    2.3997 H   0  0  0  0  0  0  0  0  0  0  0  0
  1  2  1  0
  2  3  1  0
  3  4  2  0
  3  5  1  0
  5  6  1  0
  6  7  1  0
  7  8  1  0
  8  9  1  0
  9 10  2  0
 10 11  1  0
 11 12  1  0
 12 13  2  0
 13 14  1  0
 14 15  2  0
 15 16  1  0
 15 17  1  0
 17 18  2  0
 11 19  2  0
 19 20  1  0
 20 21  2  0
 21 22  1  0
 22 23  1  0
 23 24  1  0
 24 25  1  0
 21  9  1  0
 18 12  1  0
 25 20  1  0
  1 26  1  0
  1 27  1  0
  1 28  1  0
  5 29  1  0
  5 30  1  0
  6 31  1  0
  6 32  1  0
  7 33  1  0
  7 34  1  0
  8 35  1  0
 13 36  1  0
 14 37  1  0
 17 38  1  0
 18 39  1  0
 22 40  1  0
 22 41  1  0
 23 42  1  0
 23 43  1  0
 24 44  1  0
 24 45  1  0
 25 46  1  0
 25 47  1  0
M  END
>  <ScrubInfo>  (1) 
{"isomerGroup": 0, "isomerId": 0, "confId": 0, "nr_conformers:": 1, "nr_isomers:": 3}

$$$$
_i1
     RDKit          3D

 47 49  0  0  0  0  0  0  0  0999 V2000
   -0.7652    0.1956   -0.0427 N   0  0  0  0  0  0  0  0  0  0  0  0
   -1.9660    0.0994   -0.7041 C   0  0  0  0  0  0  0  0  0  0  0  0
   -2.6813    1.3400   -1.1374 C   0  0  0  0  0  0  0  0  0  0  0  0
   -4.0719    1.3028   -1.3116 C   0  0  0  0  0  0  0  0  0  0  0  0
   -4.7642    2.4496   -1.7097 C   0  0  0  0  0  0  0  0  0  0  0  0
   -4.0659    3.6328   -1.9406 C   0  0  0  0  0  0  0  0  0  0  0  0
   -4.9154    5.0455   -2.4316 Cl  0  0  0  0  0  0  0  0  0  0  0  0
   -2.6812    3.6779   -1.7819 C   0  0  0  0  0  0  0  0  0  0  0  0
   -1.9856    2.5317   -1.3827 C   0  0  0  0  0  0  0  0  0  0  0  0
   -2.5175   -1.0554   -0.9639 N   0  0  0  0  0  0  0  0  0  0  0  0
   -1.8414   -2.1964   -0.5645 C   0  0  0  0  0  0  0  0  0  0  0  0
   -0.6555   -2.2217    0.0824 C   0  0  0  0  0  0  0  0  0  0  0  0
   -0.0508   -0.8893    0.3976 C   0  0  0  0  0  0  0  0  0  0  0  0
    1.0657   -0.8626    1.0504 N   0  0  0  0  0  0  0  0  0  0  0  0
    1.6669    0.4302    1.3592 C   0  0  0  0  0  0  0  0  0  0  0  0
    3.0331    0.1823    2.0002 C   0  0  0  0  0  0  0  0  0  0  0  0
    3.6848    1.4665    2.4973 C   0  0  0  0  0  0  0  0  0  0  0  0
    4.0071    2.4022    1.3612 C   0  0  0  0  0  0  0  0  0  0  0  0
    3.2115    3.2097    0.8979 O   0  0  0  0  0  0  0  0  0  0  0  0
    5.2727    2.1928    0.9111 O   0  0  0  0  0  0  0  0  0  0  0  0
    5.6454    3.0242   -0.1884 C   0  0  0  0  0  0  0  0  0  0  0  0
    0.0711   -3.4698    0.4879 C   0  0  0  0  0  0  0  0  0  0  0  0
   -0.5007   -4.7308   -0.1621 C   0  0  0  0  0  0  0  0  0  0  0  0
   -2.0238   -4.7077   -0.1539 C   0  0  0  0  0  0  0  0  0  0  0  0
   -2.5566   -3.4862   -0.9054 C   0  0  0  0  0  0  0  0  0  0  0  0
   -0.4349    1.1048    0.2334 H   0  0  0  0  0  0  0  0  0  0  0  0
   -4.6225    0.3806   -1.1347 H   0  0  0  0  0  0  0  0  0  0  0  0
   -5.8426    2.4095   -1.8389 H   0  0  0  0  0  0  0  0  0  0  0  0
   -2.1370    4.5991   -1.9761 H   0  0  0  0  0  0  0  0  0  0  0  0
   -0.9041    2.5861   -1.3002 H   0  0  0  0  0  0  0  0  0  0  0  0
    1.7919    1.0181    0.4432 H   0  0  0  0  0  0  0  0  0  0  0  0
    1.0284    0.9856    2.0562 H   0  0  0  0  0  0  0  0  0  0  0  0
    3.6887   -0.3188    1.2769 H   0  0  0  0  0  0  0  0  0  0  0  0
    2.9179   -0.5049    2.8478 H   0  0  0  0  0  0  0  0  0  0  0  0
    3.0351    1.9952    3.2042 H   0  0  0  0  0  0  0  0  0  0  0  0
    4.6076    1.2379    3.0432 H   0  0  0  0  0  0  0  0  0  0  0  0
    5.6057    4.0798    0.0982 H   0  0  0  0  0  0  0  0  0  0  0  0
    6.6744    2.7790   -0.4654 H   0  0  0  0  0  0  0  0  0  0  0  0
    4.9990    2.8313   -1.0504 H   0  0  0  0  0  0  0  0  0  0  0  0
    1.1331   -3.4003    0.2249 H   0  0  0  0  0  0  0  0  0  0  0  0
    0.0124   -3.5687    1.5790 H   0  0  0  0  0  0  0  0  0  0  0  0
   -0.1431   -4.8060   -1.1970 H   0  0  0  0  0  0  0  0  0  0  0  0
   -0.1332   -5.6176    0.3665 H   0  0  0  0  0  0  0  0  0  0  0  0
   -2.3843   -4.6899    0.8826 H   0  0  0  0  0  0  0  0  0  0  0  0
   -2.4166   -5.6222   -0.6124 H   0  0  0  0  0  0  0  0  0  0  0  0
   -2.4640   -3.6556   -1.9858 H   0  0  0  0  0  0  0  0  0  0  0  0
   -3.6273   -3.3862   -0.6884 H   0  0  0  0  0  0  0  0  0  0  0  0
  1  2  1  0
  2  3  1  0
  3  4  2  0
  4  5  1  0
  5  6  2  0
  6  7  1  0
  6  8  1  0
  8  9  2  0
  2 10  2  0
 10 11  1  0
 11 12  2  0
 12 13  1  0
 13 14  2  3
 14 15  1  0
 15 16  1  0
 16 17  1  0
 17 18  1  0
 18 19  2  0
 18 20  1  0
 20 21  1  0
 12 22  1  0
 22 23  1  0
 23 24  1  0
 24 25  1  0
 13  1  1  0
  9  3  1  0
 25 11  1  0
  1 26  1  0
  4 27  1  0
  5 28  1  0
  8 29  1  0
  9 30  1  0
 15 31  1  0
 15 32  1  0
 16 33  1  0
 16 34  1  0
 17 35  1  0
 17 36  1  0
 21 37  1  0
 21 38  1  0
 21 39  1  0
 22 40  1  0
 22 41  1  0
 23 42  1  0
 23 43  1  0
 24 44  1  0
 24 45  1  0
 25 46  1  0
 25 47  1  0
M  END
>  <ScrubInfo>  (2) 
{"isomerGroup": 0, "isomerId": 1, "confId": 0, "nr_conformers:": 1, "nr_isomers:": 3}

$$$$
_i2
     RDKit          3D

 47 49  0  0  0  0  0  0  0  0999 V2000
   -3.0181   -0.6569    0.0046 N   0  0  0  0  0  0  0  0  0  0  0  0
   -2.2287    0.4680    0.0165 C   0  0  0  0  0  0  0  0  0  0  0  0
   -2.8709    1.8195    0.0489 C   0  0  0  0  0  0  0  0  0  0  0  0
   -4.1529    2.0235   -0.4783 C   0  0  0  0  0  0  0  0  0  0  0  0
   -4.7330    3.2954   -0.4334 C   0  0  0  0  0  0  0  0  0  0  0  0
   -4.0325    4.3604    0.1326 C   0  0  0  0  0  0  0  0  0  0  0  0
   -4.7515    5.9221    0.1857 Cl  0  0  0  0  0  0  0  0  0  0  0  0
   -2.7531    4.1687    0.6497 C   0  0  0  0  0  0  0  0  0  0  0  0
   -2.1706    2.8993    0.6047 C   0  0  0  0  0  0  0  0  0  0  0  0
   -0.9296    0.4126    0.0089 N   0  0  0  0  0  0  0  0  0  0  0  0
   -0.2980   -0.8119   -0.0206 C   0  0  0  0  0  0  0  0  0  0  0  0
    0.9898   -0.8901   -0.0444 N   0  0  0  0  0  0  0  0  0  0  0  0
    1.7311    0.3689   -0.0501 C   0  0  0  0  0  0  0  0  0  0  0  0
    3.2221    0.0406   -0.0859 C   0  0  0  0  0  0  0  0  0  0  0  0
    4.0650    1.3119   -0.0971 C   0  0  0  0  0  0  0  0  0  0  0  0
    5.5444    1.0116   -0.1315 C   0  0  0  0  0  0  0  0  0  0  0  0
    6.0498   -0.1013   -0.1411 O   0  0  0  0  0  0  0  0  0  0  0  0
    6.2403    2.1857   -0.1489 O   0  0  0  0  0  0  0  0  0  0  0  0
    7.6580    2.0177   -0.1822 C   0  0  0  0  0  0  0  0  0  0  0  0
   -1.1303   -2.0567   -0.0132 C   0  0  0  0  0  0  0  0  0  0  0  0
   -2.4664   -1.9148    0.0117 C   0  0  0  0  0  0  0  0  0  0  0  0
   -3.3945   -3.1015    0.0648 C   0  0  0  0  0  0  0  0  0  0  0  0
   -2.6850   -4.4079    0.4302 C   0  0  0  0  0  0  0  0  0  0  0  0
   -1.3717   -4.5514   -0.3312 C   0  0  0  0  0  0  0  0  0  0  0  0
   -0.4276   -3.3830   -0.0342 C   0  0  0  0  0  0  0  0  0  0  0  0
   -4.0165   -0.5896    0.1554 H   0  0  0  0  0  0  0  0  0  0  0  0
   -4.7018    1.2166   -0.9543 H   0  0  0  0  0  0  0  0  0  0  0  0
   -5.7252    3.4516   -0.8492 H   0  0  0  0  0  0  0  0  0  0  0  0
   -2.2027    4.9984    1.0855 H   0  0  0  0  0  0  0  0  0  0  0  0
   -1.1702    2.7550    1.0083 H   0  0  0  0  0  0  0  0  0  0  0  0
    1.4712    0.9669   -0.9322 H   0  0  0  0  0  0  0  0  0  0  0  0
    1.5107    0.9516    0.8527 H   0  0  0  0  0  0  0  0  0  0  0  0
    3.4470   -0.5656   -0.9728 H   0  0  0  0  0  0  0  0  0  0  0  0
    3.4864   -0.5767    0.7823 H   0  0  0  0  0  0  0  0  0  0  0  0
    3.8581    1.9013    0.8032 H   0  0  0  0  0  0  0  0  0  0  0  0
    3.8184    1.9113   -0.9807 H   0  0  0  0  0  0  0  0  0  0  0  0
    7.9600    1.4855   -1.0897 H   0  0  0  0  0  0  0  0  0  0  0  0
    8.1165    3.0103   -0.1947 H   0  0  0  0  0  0  0  0  0  0  0  0
    8.0026    1.4885    0.7118 H   0  0  0  0  0  0  0  0  0  0  0  0
   -4.1930   -2.9226    0.7951 H   0  0  0  0  0  0  0  0  0  0  0  0
   -3.8746   -3.2102   -0.9158 H   0  0  0  0  0  0  0  0  0  0  0  0
   -3.3419   -5.2572    0.2114 H   0  0  0  0  0  0  0  0  0  0  0  0
   -2.4850   -4.4291    1.5092 H   0  0  0  0  0  0  0  0  0  0  0  0
   -1.5789   -4.5914   -1.4084 H   0  0  0  0  0  0  0  0  0  0  0  0
   -0.8834   -5.4961   -0.0663 H   0  0  0  0  0  0  0  0  0  0  0  0
    0.3690   -3.3863   -0.7875 H   0  0  0  0  0  0  0  0  0  0  0  0
    0.0471   -3.5424    0.9420 H   0  0  0  0  0  0  0  0  0  0  0  0
  1  2  1  0
  2  3  1  0
  3  4  2  0
  4  5  1  0
  5  6  2  0
  6  7  1  0
  6  8  1  0
  8  9  2  0
  2 10  2  0
 10 11  1  0
 11 12  2  3
 12 13  1  0
 13 14  1  0
 14 15  1  0
 15 16  1  0
 16 17  2  0
 16 18  1  0
 18 19  1  0
 11 20  1  0
 20 21  2  0
 21 22  1  0
 22 23  1  0
 23 24  1  0
 24 25  1  0
 21  1  1  0
  9  3  1  0
 25 20  1  0
  1 26  1  0
  4 27  1  0
  5 28  1  0
  8 29  1  0
  9 30  1  0
 13 31  1  0
 13 32  1  0
 14 33  1  0
 14 34  1  0
 15 35  1  0
 15 36  1  0
 19 37  1  0
 19 38  1  0
 19 39  1  0
 22 40  1  0
 22 41  1  0
 23 42  1  0
 23 43  1  0
 24 44  1  0
 24 45  1  0
 25 46  1  0
 25 47  1  0
M  END
>  <ScrubInfo>  (3) 
{"isomerGroup": 0, "isomerId": 2, "confId": 0, "nr_conformers:": 1, "nr_isomers:": 3}

$$$$
