_i0
     RDKit          3D

 50 52  0  0  0  0  0  0  0  0999 V2000
    6.6908   -0.1655   -1.1188 C   0  0  0  0  0  0  0  0  0  0  0  0
    5.3257    0.0585   -1.4720 O   0  0  0  0  0  0  0  0  0  0  0  0
    4.6580    0.8806   -0.6135 C   0  0  0  0  0  0  0  0  0  0  0  0
    5.1495    1.4125    0.3727 O   0  0  0  0  0  0  0  0  0  0  0  0
    3.2384    1.0672   -1.0893 C   0  0  0  0  0  0  0  0  0  0  0  0
    2.3267    1.6699   -0.0195 C   0  0  0  0  0  0  0  0  0  0  0  0
    2.1533    0.7938    1.2266 C   0  0  0  0  0  0  0  0  0  0  0  0
    1.7363   -0.5683    0.8922 N   0  0  0  0  0  0  0  0  0  0  0  0
    0.3717   -0.7593    0.5973 C   0  0  0  0  0  0  0  0  0  0  0  0
   -0.4576    0.2946    0.6167 N   0  0  0  0  0  0  0  0  0  0  0  0
   -1.7549    0.0858    0.3324 C   0  0  0  0  0  0  0  0  0  0  0  0
   -2.6622    1.2520    0.3558 C   0  0  0  0  0  0  0  0  0  0  0  0
   -2.1919    2.5454    0.6515 C   0  0  0  0  0  0  0  0  0  0  0  0
   -3.0490    3.6523    0.6744 C   0  0  0  0  0  0  0  0  0  0  0  0
   -4.4120    3.4980    0.4112 C   0  0  0  0  0  0  0  0  0  0  0  0
   -5.3261    4.6864    0.4017 C   0  0  0  0  0  0  0  0  0  0  0  0
   -4.8978    2.2258    0.1005 C   0  0  0  0  0  0  0  0  0  0  0  0
   -4.0361    1.1224    0.0790 C   0  0  0  0  0  0  0  0  0  0  0  0
   -2.2783   -1.1141    0.0307 N   0  0  0  0  0  0  0  0  0  0  0  0
   -1.4326   -2.1620    0.0045 C   0  0  0  0  0  0  0  0  0  0  0  0
   -0.0737   -2.0356    0.2624 C   0  0  0  0  0  0  0  0  0  0  0  0
    0.8496   -3.2244    0.2312 C   0  0  0  0  0  0  0  0  0  0  0  0
    0.2560   -4.4462   -0.4701 C   0  0  0  0  0  0  0  0  0  0  0  0
   -1.1773   -4.6803   -0.0136 C   0  0  0  0  0  0  0  0  0  0  0  0
   -2.0443   -3.4820   -0.3867 C   0  0  0  0  0  0  0  0  0  0  0  0
    7.1266   -0.8399   -1.8611 H   0  0  0  0  0  0  0  0  0  0  0  0
    6.7596   -0.6419   -0.1358 H   0  0  0  0  0  0  0  0  0  0  0  0
    7.2501    0.7751   -1.1348 H   0  0  0  0  0  0  0  0  0  0  0  0
    2.8429    0.1019   -1.4233 H   0  0  0  0  0  0  0  0  0  0  0  0
    3.2683    1.7388   -1.9548 H   0  0  0  0  0  0  0  0  0  0  0  0
    1.3505    1.8680   -0.4766 H   0  0  0  0  0  0  0  0  0  0  0  0
    2.7215    2.6440    0.2950 H   0  0  0  0  0  0  0  0  0  0  0  0
    1.4632    1.2656    1.9374 H   0  0  0  0  0  0  0  0  0  0  0  0
    3.1100    0.7241    1.7561 H   0  0  0  0  0  0  0  0  0  0  0  0
    1.9910   -1.2158    1.6344 H   0  0  0  0  0  0  0  0  0  0  0  0
   -1.1360    2.7023    0.8666 H   0  0  0  0  0  0  0  0  0  0  0  0
   -2.6393    4.6341    0.9007 H   0  0  0  0  0  0  0  0  0  0  0  0
   -4.9866    5.4462    1.1136 H   0  0  0  0  0  0  0  0  0  0  0  0
   -6.3422    4.4001    0.6931 H   0  0  0  0  0  0  0  0  0  0  0  0
   -5.3561    5.1276   -0.5992 H   0  0  0  0  0  0  0  0  0  0  0  0
   -5.9511    2.0786   -0.1273 H   0  0  0  0  0  0  0  0  0  0  0  0
   -4.4506    0.1445   -0.1622 H   0  0  0  0  0  0  0  0  0  0  0  0
    1.0932   -3.4930    1.2669 H   0  0  0  0  0  0  0  0  0  0  0  0
    1.7869   -2.9646   -0.2750 H   0  0  0  0  0  0  0  0  0  0  0  0
    0.2741   -4.2958   -1.5572 H   0  0  0  0  0  0  0  0  0  0  0  0
    0.8713   -5.3278   -0.2586 H   0  0  0  0  0  0  0  0  0  0  0  0
   -1.5801   -5.5870   -0.4785 H   0  0  0  0  0  0  0  0  0  0  0  0
   -1.1983   -4.8365    1.0723 H   0  0  0  0  0  0  0  0  0  0  0  0
   -3.0279   -3.5863    0.0860 H   0  0  0  0  0  0  0  0  0  0  0  0
   -2.2028   -3.4701   -1.4723 H   0  0  0  0  0  0  0  0  0  0  0  0
  1  2  1  0
  2  3  1  0
  3  4  2  0
  3  5  1  0
  5  6  1  0
  6  7  1  0
  7  8  1  0
  8  9  1  0
  9 10  2  0
 10 11  1  0
 11 12  1  0
 12 13  2  0
 13 14  1  0
 14 15  2  0
 15 16  1  0
 15 17  1  0
 17 18  2  0
 11 19  2  0
 19 20  1  0
 20 21  2  0
 21 22  1  0
 22 23  1  0
 23 24  1  0
 24 25  1  0
 21  9  1  0
 18 12  1  0
 25 20  1  0
  1 26  1  0
  1 27  1  0
  1 28  1  0
  5 29  1  0
  5 30  1  0
  6 31  1  0
  6 32  1  0
  7 33  1  0
  7 34  1  0
  8 35  1  0
 13 36  1  0
 14 37  1  0
 16 38  1  0
 16 39  1  0
 16 40  1  0
 17 41  1  0
 18 42  1  0
 22 43  1  0
 22 44  1  0
 23 45  1  0
 23 46  1  0
 24 47  1  0
 24 48  1  0
 25 49  1  0
 25 50  1  0
M  END
>  <ScrubInfo>  (1) 
{"isomerGroup": 0, "isomerId": 0, "confId": 0, "nr_conformers:": 1, "nr_isomers:": 3}

$$$$
_i1
     RDKit          3D

 50 52  0  0  0  0  0  0  0  0999 V2000
   -0.3439   -0.0165   -0.2782 N   0  0  0  0  0  0  0  0  0  0  0  0
   -1.7111    0.0921   -0.3740 C   0  0  0  0  0  0  0  0  0  0  0  0
   -2.3629    1.4321   -0.2420 C   0  0  0  0  0  0  0  0  0  0  0  0
   -3.6939    1.5074    0.1837 C   0  0  0  0  0  0  0  0  0  0  0  0
   -4.3203    2.7482    0.3248 C   0  0  0  0  0  0  0  0  0  0  0  0
   -3.6237    3.9295    0.0459 C   0  0  0  0  0  0  0  0  0  0  0  0
   -4.3081    5.2595    0.1632 C   0  0  0  0  0  0  0  0  0  0  0  0
   -2.3010    3.8499   -0.4062 C   0  0  0  0  0  0  0  0  0  0  0  0
   -1.6706    2.6095   -0.5479 C   0  0  0  0  0  0  0  0  0  0  0  0
   -2.4708   -0.9523   -0.5701 N   0  0  0  0  0  0  0  0  0  0  0  0
   -1.8525   -2.1855   -0.6919 C   0  0  0  0  0  0  0  0  0  0  0  0
   -0.5233   -2.4108   -0.6045 C   0  0  0  0  0  0  0  0  0  0  0  0
    0.3328   -1.2059   -0.3678 C   0  0  0  0  0  0  0  0  0  0  0  0
    1.6115   -1.3748   -0.2677 N   0  0  0  0  0  0  0  0  0  0  0  0
    2.4592   -0.2079   -0.0501 C   0  0  0  0  0  0  0  0  0  0  0  0
    3.9071   -0.6865    0.0687 C   0  0  0  0  0  0  0  0  0  0  0  0
    4.8999    0.4672    0.1306 C   0  0  0  0  0  0  0  0  0  0  0  0
    4.6995    1.3088    1.3636 C   0  0  0  0  0  0  0  0  0  0  0  0
    3.9371    2.2654    1.4174 O   0  0  0  0  0  0  0  0  0  0  0  0
    5.4457    0.8336    2.3959 O   0  0  0  0  0  0  0  0  0  0  0  0
    5.2852    1.5616    3.6137 C   0  0  0  0  0  0  0  0  0  0  0  0
    0.1245   -3.7591   -0.7169 C   0  0  0  0  0  0  0  0  0  0  0  0
   -0.8787   -4.9115   -0.6450 C   0  0  0  0  0  0  0  0  0  0  0  0
   -2.1270   -4.6022   -1.4613 C   0  0  0  0  0  0  0  0  0  0  0  0
   -2.8085   -3.3287   -0.9569 C   0  0  0  0  0  0  0  0  0  0  0  0
    0.1866    0.7966   -0.0141 H   0  0  0  0  0  0  0  0  0  0  0  0
   -4.2498    0.5997    0.4095 H   0  0  0  0  0  0  0  0  0  0  0  0
   -5.3570    2.7839    0.6530 H   0  0  0  0  0  0  0  0  0  0  0  0
   -5.0658    5.2404    0.9536 H   0  0  0  0  0  0  0  0  0  0  0  0
   -3.5910    6.0462    0.4203 H   0  0  0  0  0  0  0  0  0  0  0  0
   -4.7912    5.5165   -0.7845 H   0  0  0  0  0  0  0  0  0  0  0  0
   -1.7543    4.7564   -0.6588 H   0  0  0  0  0  0  0  0  0  0  0  0
   -0.6539    2.5881   -0.9273 H   0  0  0  0  0  0  0  0  0  0  0  0
    2.1646    0.3060    0.8716 H   0  0  0  0  0  0  0  0  0  0  0  0
    2.3696    0.4884   -0.8924 H   0  0  0  0  0  0  0  0  0  0  0  0
    4.1547   -1.3169   -0.7945 H   0  0  0  0  0  0  0  0  0  0  0  0
    4.0081   -1.3203    0.9588 H   0  0  0  0  0  0  0  0  0  0  0  0
    4.8082    1.1170   -0.7474 H   0  0  0  0  0  0  0  0  0  0  0  0
    5.9282    0.0871    0.1227 H   0  0  0  0  0  0  0  0  0  0  0  0
    4.2479    1.5066    3.9588 H   0  0  0  0  0  0  0  0  0  0  0  0
    5.9267    1.1019    4.3706 H   0  0  0  0  0  0  0  0  0  0  0  0
    5.5959    2.6028    3.4819 H   0  0  0  0  0  0  0  0  0  0  0  0
    0.8645   -3.8998    0.0796 H   0  0  0  0  0  0  0  0  0  0  0  0
    0.6622   -3.8088   -1.6720 H   0  0  0  0  0  0  0  0  0  0  0  0
   -1.1619   -5.0881    0.4007 H   0  0  0  0  0  0  0  0  0  0  0  0
   -0.4090   -5.8330   -1.0070 H   0  0  0  0  0  0  0  0  0  0  0  0
   -2.8294   -5.4416   -1.4079 H   0  0  0  0  0  0  0  0  0  0  0  0
   -1.8535   -4.4813   -2.5173 H   0  0  0  0  0  0  0  0  0  0  0  0
   -3.5592   -3.0221   -1.6958 H   0  0  0  0  0  0  0  0  0  0  0  0
   -3.3474   -3.5491   -0.0266 H   0  0  0  0  0  0  0  0  0  0  0  0
  1  2  1  0
  2  3  1  0
  3  4  2  0
  4  5  1  0
  5  6  2  0
  6  7  1  0
  6  8  1  0
  8  9  2  0
  2 10  2  0
 10 11  1  0
 11 12  2  0
 12 13  1  0
 13 14  2  3
 14 15  1  0
 15 16  1  0
 16 17  1  0
 17 18  1  0
 18 19  2  0
 18 20  1  0
 20 21  1  0
 12 22  1  0
 22 23  1  0
 23 24  1  0
 24 25  1  0
 13  1  1  0
  9  3  1  0
 25 11  1  0
  1 26  1  0
  4 27  1  0
  5 28  1  0
  7 29  1  0
  7 30  1  0
  7 31  1  0
  8 32  1  0
  9 33  1  0
 15 34  1  0
 15 35  1  0
 16 36  1  0
 16 37  1  0
 17 38  1  0
 17 39  1  0
 21 40  1  0
 21 41  1  0
 21 42  1  0
 22 43  1  0
 22 44  1  0
 23 45  1  0
 23 46  1  0
 24 47  1  0
 24 48  1  0
 25 49  1  0
 25 50  1  0
M  END
>  <ScrubInfo>  (2) 
{"isomerGroup": 0, "isomerId": 1, "confId": 0, "nr_conformers:": 1, "nr_isomers:": 3}

$$$$
_i2
     RDKit          3D

 50 52  0  0  0  0  0  0  0  0999 V2000
   -2.2086   -1.4929    0.1378 N   0  0  0  0  0  0  0  0  0  0  0  0
   -1.9582   -0.1472    0.0121 C   0  0  0  0  0  0  0  0  0  0  0  0
   -3.0863    0.7848   -0.3008 C   0  0  0  0  0  0  0  0  0  0  0  0
   -2.8196    1.9900   -0.9597 C   0  0  0  0  0  0  0  0  0  0  0  0
   -3.8605    2.8691   -1.2685 C   0  0  0  0  0  0  0  0  0  0  0  0
   -5.1803    2.5534   -0.9255 C   0  0  0  0  0  0  0  0  0  0  0  0
   -6.2920    3.5159   -1.2241 C   0  0  0  0  0  0  0  0  0  0  0  0
   -5.4402    1.3594   -0.2417 C   0  0  0  0  0  0  0  0  0  0  0  0
   -4.4008    0.4765    0.0675 C   0  0  0  0  0  0  0  0  0  0  0  0
   -0.7668    0.3575    0.1456 N   0  0  0  0  0  0  0  0  0  0  0  0
    0.2976   -0.4681    0.4325 C   0  0  0  0  0  0  0  0  0  0  0  0
    1.4860    0.0135    0.5828 N   0  0  0  0  0  0  0  0  0  0  0  0
    1.6339    1.4614    0.4454 C   0  0  0  0  0  0  0  0  0  0  0  0
    3.1025    1.8249    0.6512 C   0  0  0  0  0  0  0  0  0  0  0  0
    3.9965    1.2461   -0.4395 C   0  0  0  0  0  0  0  0  0  0  0  0
    5.4133    1.7185   -0.2584 C   0  0  0  0  0  0  0  0  0  0  0  0
    5.8850    2.7030   -0.8124 O   0  0  0  0  0  0  0  0  0  0  0  0
    6.0778    0.9175    0.6194 O   0  0  0  0  0  0  0  0  0  0  0  0
    7.4267    1.3160    0.8617 C   0  0  0  0  0  0  0  0  0  0  0  0
    0.0598   -1.9414    0.5553 C   0  0  0  0  0  0  0  0  0  0  0  0
   -1.1968   -2.3872    0.3871 C   0  0  0  0  0  0  0  0  0  0  0  0
   -1.5385   -3.8541    0.4459 C   0  0  0  0  0  0  0  0  0  0  0  0
   -0.3102   -4.7643    0.3653 C   0  0  0  0  0  0  0  0  0  0  0  0
    0.8155   -4.2483    1.2552 C   0  0  0  0  0  0  0  0  0  0  0  0
    1.2316   -2.8295    0.8570 C   0  0  0  0  0  0  0  0  0  0  0  0
   -3.1125   -1.8722   -0.1134 H   0  0  0  0  0  0  0  0  0  0  0  0
   -1.8002    2.2500   -1.2371 H   0  0  0  0  0  0  0  0  0  0  0  0
   -3.6315    3.8034   -1.7769 H   0  0  0  0  0  0  0  0  0  0  0  0
   -6.4157    4.2147   -0.3910 H   0  0  0  0  0  0  0  0  0  0  0  0
   -6.0815    4.0848   -2.1358 H   0  0  0  0  0  0  0  0  0  0  0  0
   -7.2360    2.9844   -1.3841 H   0  0  0  0  0  0  0  0  0  0  0  0
   -6.4556    1.1142    0.0631 H   0  0  0  0  0  0  0  0  0  0  0  0
   -4.6331   -0.4261    0.6237 H   0  0  0  0  0  0  0  0  0  0  0  0
    1.0390    1.9801    1.2069 H   0  0  0  0  0  0  0  0  0  0  0  0
    1.3098    1.8006   -0.5461 H   0  0  0  0  0  0  0  0  0  0  0  0
    3.4406    1.4706    1.6333 H   0  0  0  0  0  0  0  0  0  0  0  0
    3.1997    2.9176    0.6626 H   0  0  0  0  0  0  0  0  0  0  0  0
    3.6602    1.5643   -1.4332 H   0  0  0  0  0  0  0  0  0  0  0  0
    3.9844    0.1503   -0.4423 H   0  0  0  0  0  0  0  0  0  0  0  0
    7.4575    2.3171    1.3032 H   0  0  0  0  0  0  0  0  0  0  0  0
    8.0094    1.2816   -0.0642 H   0  0  0  0  0  0  0  0  0  0  0  0
    7.8659    0.6110    1.5729 H   0  0  0  0  0  0  0  0  0  0  0  0
   -2.2199   -4.1151   -0.3729 H   0  0  0  0  0  0  0  0  0  0  0  0
   -2.0742   -4.0480    1.3837 H   0  0  0  0  0  0  0  0  0  0  0  0
   -0.5868   -5.7828    0.6605 H   0  0  0  0  0  0  0  0  0  0  0  0
    0.0413   -4.8175   -0.6731 H   0  0  0  0  0  0  0  0  0  0  0  0
    0.4829   -4.2534    2.3012 H   0  0  0  0  0  0  0  0  0  0  0  0
    1.6815   -4.9170    1.1939 H   0  0  0  0  0  0  0  0  0  0  0  0
    1.8359   -2.4089    1.6693 H   0  0  0  0  0  0  0  0  0  0  0  0
    1.8715   -2.8779   -0.0329 H   0  0  0  0  0  0  0  0  0  0  0  0
  1  2  1  0
  2  3  1  0
  3  4  2  0
  4  5  1  0
  5  6  2  0
  6  7  1  0
  6  8  1  0
  8  9  2  0
  2 10  2  0
 10 11  1  0
 11 12  2  3
 12 13  1  0
 13 14  1  0
 14 15  1  0
 15 16  1  0
 16 17  2  0
 16 18  1  0
 18 19  1  0
 11 20  1  0
 20 21  2  0
 21 22  1  0
 22 23  1  0
 23 24  1  0
 24 25  1  0
 21  1  1  0
  9  3  1  0
 25 20  1  0
  1 26  1  0
  4 27  1  0
  5 28  1  0
  7 29  1  0
  7 30  1  0
  7 31  1  0
  8 32  1  0
  9 33  1  0
 13 34  1  0
 13 35  1  0
 14 36  1  0
 14 37  1  0
 15 38  1  0
 15 39  1  0
 19 40  1  0
 19 41  1  0
 19 42  1  0
 22 43  1  0
 22 44  1  0
 23 45  1  0
 23 46  1  0
 24 47  1  0
 24 48  1  0
 25 49  1  0
 25 50  1  0
M  END
>  <ScrubInfo>  (3) 
{"isomerGroup": 0, "isomerId": 2, "confId": 0, "nr_conformers:": 1, "nr_isomers:": 3}

$$$$
