_i0
     RDKit          3D

 43 45  0  0  0  0  0  0  0  0999 V2000
    0.5395   -4.3651    0.5300 C   0  0  0  0  0  0  0  0  0  0  0  0
    1.1734   -3.1311    0.1396 N   0  0  0  0  0  0  0  0  0  0  0  0
    2.5147   -3.0988   -0.0354 N   0  0  0  0  0  0  0  0  0  0  0  0
    2.7455   -1.8302   -0.3942 C   0  0  0  0  0  0  0  0  0  0  0  0
    1.5720   -1.0493   -0.4314 C   0  0  0  0  0  0  0  0  0  0  0  0
    1.1932    0.2646   -0.7151 C   0  0  0  0  0  0  0  0  0  0  0  0
    2.0669    1.2959   -1.0897 N   0  0  0  0  0  0  0  0  0  0  0  0
    3.3023    1.6541   -0.5141 C   0  0  0  0  0  0  0  0  0  0  0  0
    4.1673    2.4721   -1.2553 C   0  0  0  0  0  0  0  0  0  0  0  0
    5.3998    2.8755   -0.7335 C   0  0  0  0  0  0  0  0  0  0  0  0
    5.7725    2.4709    0.5446 C   0  0  0  0  0  0  0  0  0  0  0  0
    7.2869    2.9654    1.1923 Cl  0  0  0  0  0  0  0  0  0  0  0  0
    4.9209    1.6730    1.3034 C   0  0  0  0  0  0  0  0  0  0  0  0
    3.6885    1.2716    0.7767 C   0  0  0  0  0  0  0  0  0  0  0  0
   -0.1311    0.5613   -0.6877 N   0  0  0  0  0  0  0  0  0  0  0  0
   -1.0279   -0.3825   -0.3472 C   0  0  0  0  0  0  0  0  0  0  0  0
   -2.3471    0.0618   -0.3224 N   0  0  0  0  0  0  0  0  0  0  0  0
   -3.3182   -0.9176   -0.7914 C   0  0  0  0  0  0  0  0  0  0  0  0
   -4.7315   -0.3264   -0.7677 C   0  0  0  0  0  0  0  0  0  0  0  0
   -5.2617   -0.1045    0.6495 C   0  0  0  0  0  0  0  0  0  0  0  0
   -4.5860    0.9829    1.3236 N   0  0  0  0  0  0  0  0  0  0  0  0
   -5.0243    2.2777    1.2377 C   0  0  0  0  0  0  0  0  0  0  0  0
   -6.0528    2.6515    0.6935 O   0  0  0  0  0  0  0  0  0  0  0  0
   -0.7482   -1.6534   -0.0305 N   0  0  0  0  0  0  0  0  0  0  0  0
    0.5624   -1.9303   -0.0985 C   0  0  0  0  0  0  0  0  0  0  0  0
    0.9797   -4.6943    1.4747 H   0  0  0  0  0  0  0  0  0  0  0  0
    0.7181   -5.1057   -0.2536 H   0  0  0  0  0  0  0  0  0  0  0  0
   -0.5343   -4.2108    0.6571 H   0  0  0  0  0  0  0  0  0  0  0  0
    3.7610   -1.5248   -0.6131 H   0  0  0  0  0  0  0  0  0  0  0  0
    1.4995    2.1195   -1.2793 H   0  0  0  0  0  0  0  0  0  0  0  0
    3.8890    2.7890   -2.2583 H   0  0  0  0  0  0  0  0  0  0  0  0
    6.0592    3.5010   -1.3290 H   0  0  0  0  0  0  0  0  0  0  0  0
    5.2033    1.3645    2.3066 H   0  0  0  0  0  0  0  0  0  0  0  0
    3.0316    0.6734    1.4030 H   0  0  0  0  0  0  0  0  0  0  0  0
   -2.3418    0.9284   -0.8547 H   0  0  0  0  0  0  0  0  0  0  0  0
   -3.2996   -1.8224   -0.1712 H   0  0  0  0  0  0  0  0  0  0  0  0
   -3.0806   -1.2100   -1.8221 H   0  0  0  0  0  0  0  0  0  0  0  0
   -4.7587    0.6118   -1.3354 H   0  0  0  0  0  0  0  0  0  0  0  0
   -5.4013   -1.0311   -1.2752 H   0  0  0  0  0  0  0  0  0  0  0  0
   -6.3338    0.1171    0.6069 H   0  0  0  0  0  0  0  0  0  0  0  0
   -5.1274   -1.0031    1.2605 H   0  0  0  0  0  0  0  0  0  0  0  0
   -3.6159    0.8301    1.5829 H   0  0  0  0  0  0  0  0  0  0  0  0
   -4.3247    2.9784    1.7232 H   0  0  0  0  0  0  0  0  0  0  0  0
  1  2  1  0
  2  3  1  0
  3  4  2  0
  4  5  1  0
  5  6  2  0
  6  7  1  0
  7  8  1  0
  8  9  2  0
  9 10  1  0
 10 11  2  0
 11 12  1  0
 11 13  1  0
 13 14  2  0
  6 15  1  0
 15 16  2  0
 16 17  1  0
 17 18  1  0
 18 19  1  0
 19 20  1  0
 20 21  1  0
 21 22  1  0
 22 23  2  0
 16 24  1  0
 24 25  2  0
 25  2  1  0
 25  5  1  0
 14  8  1  0
  1 26  1  0
  1 27  1  0
  1 28  1  0
  4 29  1  0
  7 30  1  0
  9 31  1  0
 10 32  1  0
 13 33  1  0
 14 34  1  0
 17 35  1  0
 18 36  1  0
 18 37  1  0
 19 38  1  0
 19 39  1  0
 20 40  1  0
 20 41  1  0
 21 42  1  0
 22 43  1  0
M  END
>  <ScrubInfo>  (1) 
{"isomerGroup": 0, "isomerId": 0, "confId": 0, "nr_conformers:": 1, "nr_isomers:": 9}

$$$$
_i1
     RDKit          3D

 43 45  0  0  0  0  0  0  0  0999 V2000
   -0.8900   -0.6919    0.0342 N   0  0  0  0  0  0  0  0  0  0  0  0
    0.2051   -1.5173   -0.0733 C   0  0  0  0  0  0  0  0  0  0  0  0
    1.3524   -0.9349   -0.5370 N   0  0  0  0  0  0  0  0  0  0  0  0
    1.8912    0.2849    0.0528 C   0  0  0  0  0  0  0  0  0  0  0  0
    3.1658    0.6883   -0.6840 C   0  0  0  0  0  0  0  0  0  0  0  0
    3.7391    1.9789   -0.1142 C   0  0  0  0  0  0  0  0  0  0  0  0
    4.9609    2.3617   -0.7895 N   0  0  0  0  0  0  0  0  0  0  0  0
    5.8404    3.2386   -0.2044 C   0  0  0  0  0  0  0  0  0  0  0  0
    5.7479    3.6890    0.9276 O   0  0  0  0  0  0  0  0  0  0  0  0
    0.2034   -2.7946    0.2185 N   0  0  0  0  0  0  0  0  0  0  0  0
   -1.0197   -3.2000    0.6646 C   0  0  0  0  0  0  0  0  0  0  0  0
   -2.1683   -2.4452    0.8050 C   0  0  0  0  0  0  0  0  0  0  0  0
   -3.1372   -3.3307    1.2952 C   0  0  0  0  0  0  0  0  0  0  0  0
   -2.6524   -4.5682    1.4643 N   0  0  0  0  0  0  0  0  0  0  0  0
   -1.3589   -4.4615    1.0693 N   0  0  0  0  0  0  0  0  0  0  0  0
   -0.5102   -5.6252    1.1115 C   0  0  0  0  0  0  0  0  0  0  0  0
   -2.1550   -1.0491    0.4504 C   0  0  0  0  0  0  0  0  0  0  0  0
   -3.2482   -0.3691    0.5501 N   0  0  0  0  0  0  0  0  0  0  0  0
   -3.2111    0.9837    0.1978 C   0  0  0  0  0  0  0  0  0  0  0  0
   -2.8913    1.9536    1.1524 C   0  0  0  0  0  0  0  0  0  0  0  0
   -2.8486    3.3047    0.8000 C   0  0  0  0  0  0  0  0  0  0  0  0
   -3.1378    3.6859   -0.5092 C   0  0  0  0  0  0  0  0  0  0  0  0
   -3.0792    5.3478   -0.9480 Cl  0  0  0  0  0  0  0  0  0  0  0  0
   -3.4749    2.7290   -1.4650 C   0  0  0  0  0  0  0  0  0  0  0  0
   -3.5163    1.3791   -1.1077 C   0  0  0  0  0  0  0  0  0  0  0  0
   -0.8034    0.2232   -0.3734 H   0  0  0  0  0  0  0  0  0  0  0  0
    2.0655   -1.6623   -0.5867 H   0  0  0  0  0  0  0  0  0  0  0  0
    2.1064    0.1133    1.1139 H   0  0  0  0  0  0  0  0  0  0  0  0
    1.1594    1.0972   -0.0162 H   0  0  0  0  0  0  0  0  0  0  0  0
    2.9559    0.8141   -1.7540 H   0  0  0  0  0  0  0  0  0  0  0  0
    3.9113   -0.1140   -0.6099 H   0  0  0  0  0  0  0  0  0  0  0  0
    3.0292    2.8048   -0.2354 H   0  0  0  0  0  0  0  0  0  0  0  0
    3.9432    1.8699    0.9571 H   0  0  0  0  0  0  0  0  0  0  0  0
    5.0402    2.2232   -1.7896 H   0  0  0  0  0  0  0  0  0  0  0  0
    6.6675    3.5051   -0.8836 H   0  0  0  0  0  0  0  0  0  0  0  0
   -4.1730   -3.1293    1.5359 H   0  0  0  0  0  0  0  0  0  0  0  0
    0.4927   -5.3721    0.7611 H   0  0  0  0  0  0  0  0  0  0  0  0
   -0.4630   -5.9787    2.1446 H   0  0  0  0  0  0  0  0  0  0  0  0
   -0.9454   -6.3916    0.4651 H   0  0  0  0  0  0  0  0  0  0  0  0
   -2.6832    1.6532    2.1765 H   0  0  0  0  0  0  0  0  0  0  0  0
   -2.6005    4.0505    1.5506 H   0  0  0  0  0  0  0  0  0  0  0  0
   -3.7152    3.0251   -2.4827 H   0  0  0  0  0  0  0  0  0  0  0  0
   -3.7946    0.6307   -1.8459 H   0  0  0  0  0  0  0  0  0  0  0  0
  1  2  1  0
  2  3  1  0
  3  4  1  0
  4  5  1  0
  5  6  1  0
  6  7  1  0
  7  8  1  0
  8  9  2  0
  2 10  2  0
 10 11  1  0
 11 12  2  0
 12 13  1  0
 13 14  2  0
 14 15  1  0
 15 16  1  0
 12 17  1  0
 17 18  2  3
 18 19  1  0
 19 20  2  0
 20 21  1  0
 21 22  2  0
 22 23  1  0
 22 24  1  0
 24 25  2  0
 17  1  1  0
 25 19  1  0
 15 11  1  0
  1 26  1  0
  3 27  1  0
  4 28  1  0
  4 29  1  0
  5 30  1  0
  5 31  1  0
  6 32  1  0
  6 33  1  0
  7 34  1  0
  8 35  1  0
 13 36  1  0
 16 37  1  0
 16 38  1  0
 16 39  1  0
 20 40  1  0
 21 41  1  0
 24 42  1  0
 25 43  1  0
M  END
>  <ScrubInfo>  (2) 
{"isomerGroup": 0, "isomerId": 1, "confId": 0, "nr_conformers:": 1, "nr_isomers:": 9}

$$$$
_i2
     RDKit          3D

 43 45  0  0  0  0  0  0  0  0999 V2000
   -0.4029    1.5189    0.2525 N   0  0  0  0  0  0  0  0  0  0  0  0
   -1.5912    0.9347    0.6404 C   0  0  0  0  0  0  0  0  0  0  0  0
   -2.7930    1.5998    0.4889 N   0  0  0  0  0  0  0  0  0  0  0  0
   -3.9549    1.1199   -0.1573 C   0  0  0  0  0  0  0  0  0  0  0  0
   -3.9991   -0.0732   -0.8912 C   0  0  0  0  0  0  0  0  0  0  0  0
   -5.1927   -0.5137   -1.4743 C   0  0  0  0  0  0  0  0  0  0  0  0
   -6.3570    0.2329   -1.3210 C   0  0  0  0  0  0  0  0  0  0  0  0
   -7.8235   -0.3088   -2.0367 Cl  0  0  0  0  0  0  0  0  0  0  0  0
   -6.3379    1.4160   -0.5897 C   0  0  0  0  0  0  0  0  0  0  0  0
   -5.1430    1.8531   -0.0098 C   0  0  0  0  0  0  0  0  0  0  0  0
   -1.4678   -0.2608    1.2310 C   0  0  0  0  0  0  0  0  0  0  0  0
   -2.3346   -1.2446    1.8889 C   0  0  0  0  0  0  0  0  0  0  0  0
   -1.6777   -2.2841    2.3400 N   0  0  0  0  0  0  0  0  0  0  0  0
   -0.3380   -2.0711    1.9713 N   0  0  0  0  0  0  0  0  0  0  0  0
    0.6907   -2.8602    2.6060 C   0  0  0  0  0  0  0  0  0  0  0  0
   -0.1168   -0.8487    1.3574 C   0  0  0  0  0  0  0  0  0  0  0  0
    0.9822   -0.2933    0.9732 N   0  0  0  0  0  0  0  0  0  0  0  0
    0.8349    0.9430    0.3864 C   0  0  0  0  0  0  0  0  0  0  0  0
    1.8606    1.5855   -0.0661 N   0  0  0  0  0  0  0  0  0  0  0  0
    3.1870    0.9818    0.0919 C   0  0  0  0  0  0  0  0  0  0  0  0
    3.5079    0.1178   -1.1264 C   0  0  0  0  0  0  0  0  0  0  0  0
    4.8774   -0.5417   -1.0178 C   0  0  0  0  0  0  0  0  0  0  0  0
    5.9609    0.4159   -1.1043 N   0  0  0  0  0  0  0  0  0  0  0  0
    7.2222    0.1031   -0.6663 C   0  0  0  0  0  0  0  0  0  0  0  0
    7.5485   -0.9264   -0.0949 O   0  0  0  0  0  0  0  0  0  0  0  0
   -0.4241    2.3988   -0.2380 H   0  0  0  0  0  0  0  0  0  0  0  0
   -2.6811    2.5993    0.3413 H   0  0  0  0  0  0  0  0  0  0  0  0
   -3.1049   -0.6704   -1.0490 H   0  0  0  0  0  0  0  0  0  0  0  0
   -5.2025   -1.4374   -2.0474 H   0  0  0  0  0  0  0  0  0  0  0  0
   -7.2458    1.9994   -0.4610 H   0  0  0  0  0  0  0  0  0  0  0  0
   -5.1505    2.7709    0.5745 H   0  0  0  0  0  0  0  0  0  0  0  0
   -3.4138   -1.0747    1.9929 H   0  0  0  0  0  0  0  0  0  0  0  0
    1.5923   -2.8968    1.9862 H   0  0  0  0  0  0  0  0  0  0  0  0
    0.3498   -3.8891    2.7599 H   0  0  0  0  0  0  0  0  0  0  0  0
    0.9532   -2.4327    3.5787 H   0  0  0  0  0  0  0  0  0  0  0  0
    3.9116    1.8010    0.1662 H   0  0  0  0  0  0  0  0  0  0  0  0
    3.2875    0.4132    1.0242 H   0  0  0  0  0  0  0  0  0  0  0  0
    3.4533    0.7284   -2.0365 H   0  0  0  0  0  0  0  0  0  0  0  0
    2.7491   -0.6670   -1.2303 H   0  0  0  0  0  0  0  0  0  0  0  0
    5.0135   -1.2462   -1.8461 H   0  0  0  0  0  0  0  0  0  0  0  0
    4.9662   -1.1109   -0.0855 H   0  0  0  0  0  0  0  0  0  0  0  0
    5.8611    1.2111   -1.7225 H   0  0  0  0  0  0  0  0  0  0  0  0
    7.9429    0.9071   -0.8909 H   0  0  0  0  0  0  0  0  0  0  0  0
  1  2  1  0
  2  3  1  0
  3  4  1  0
  4  5  2  0
  5  6  1  0
  6  7  2  0
  7  8  1  0
  7  9  1  0
  9 10  2  0
  2 11  2  0
 11 12  1  0
 12 13  2  0
 13 14  1  0
 14 15  1  0
 14 16  1  0
 16 17  2  0
 17 18  1  0
 18 19  2  3
 19 20  1  0
 20 21  1  0
 21 22  1  0
 22 23  1  0
 23 24  1  0
 24 25  2  0
 18  1  1  0
 10  4  1  0
 16 11  1  0
  1 26  1  0
  3 27  1  0
  5 28  1  0
  6 29  1  0
  9 30  1  0
 10 31  1  0
 12 32  1  0
 15 33  1  0
 15 34  1  0
 15 35  1  0
 20 36  1  0
 20 37  1  0
 21 38  1  0
 21 39  1  0
 22 40  1  0
 22 41  1  0
 23 42  1  0
 24 43  1  0
M  END
>  <ScrubInfo>  (3) 
{"isomerGroup": 0, "isomerId": 2, "confId": 0, "nr_conformers:": 1, "nr_isomers:": 9}

$$$$
_i3
     RDKit          3D

 43 45  0  0  0  0  0  0  0  0999 V2000
   -0.4870   -1.8782   -0.8446 N   0  0  0  0  0  0  0  0  0  0  0  0
   -0.4961   -0.7333   -0.0673 C   0  0  0  0  0  0  0  0  0  0  0  0
   -1.5385   -0.1048    0.3493 N   0  0  0  0  0  0  0  0  0  0  0  0
   -2.8610   -0.6010   -0.0031 C   0  0  0  0  0  0  0  0  0  0  0  0
   -3.9157    0.3256    0.5954 C   0  0  0  0  0  0  0  0  0  0  0  0
   -3.8730    1.7187   -0.0285 C   0  0  0  0  0  0  0  0  0  0  0  0
   -4.9311    2.5659    0.4865 N   0  0  0  0  0  0  0  0  0  0  0  0
   -6.2102    2.5113   -0.0009 C   0  0  0  0  0  0  0  0  0  0  0  0
   -6.6009    1.7915   -0.9084 O   0  0  0  0  0  0  0  0  0  0  0  0
    0.6850   -0.1409    0.3448 N   0  0  0  0  0  0  0  0  0  0  0  0
    1.8385   -0.6418    0.0145 C   0  0  0  0  0  0  0  0  0  0  0  0
    3.0896   -0.1744    0.3415 N   0  0  0  0  0  0  0  0  0  0  0  0
    3.4457    0.9473    1.1163 C   0  0  0  0  0  0  0  0  0  0  0  0
    2.5255    1.8092    1.7247 C   0  0  0  0  0  0  0  0  0  0  0  0
    2.9494    2.9094    2.4817 C   0  0  0  0  0  0  0  0  0  0  0  0
    4.3067    3.1624    2.6398 C   0  0  0  0  0  0  0  0  0  0  0  0
    4.8282    4.5122    3.5685 Cl  0  0  0  0  0  0  0  0  0  0  0  0
    5.2439    2.3244    2.0471 C   0  0  0  0  0  0  0  0  0  0  0  0
    4.8139    1.2272    1.2923 C   0  0  0  0  0  0  0  0  0  0  0  0
    1.8826   -1.8431   -0.8011 C   0  0  0  0  0  0  0  0  0  0  0  0
    2.8563   -2.6854   -1.3642 C   0  0  0  0  0  0  0  0  0  0  0  0
    2.3193   -3.6997   -2.0583 N   0  0  0  0  0  0  0  0  0  0  0  0
    0.9836   -3.5041   -1.9385 N   0  0  0  0  0  0  0  0  0  0  0  0
    0.0803   -4.4277   -2.5767 C   0  0  0  0  0  0  0  0  0  0  0  0
    0.6979   -2.4049   -1.1930 C   0  0  0  0  0  0  0  0  0  0  0  0
   -1.3786   -2.2651   -1.1141 H   0  0  0  0  0  0  0  0  0  0  0  0
   -2.9879   -0.6466   -1.0914 H   0  0  0  0  0  0  0  0  0  0  0  0
   -3.0090   -1.6068    0.4075 H   0  0  0  0  0  0  0  0  0  0  0  0
   -4.9051   -0.1207    0.4375 H   0  0  0  0  0  0  0  0  0  0  0  0
   -3.7766    0.4047    1.6810 H   0  0  0  0  0  0  0  0  0  0  0  0
   -2.9263    2.2214    0.1934 H   0  0  0  0  0  0  0  0  0  0  0  0
   -3.9794    1.6524   -1.1172 H   0  0  0  0  0  0  0  0  0  0  0  0
   -4.7352    3.1491    1.2895 H   0  0  0  0  0  0  0  0  0  0  0  0
   -6.8804    3.2068    0.5313 H   0  0  0  0  0  0  0  0  0  0  0  0
    3.8863   -0.6855   -0.0082 H   0  0  0  0  0  0  0  0  0  0  0  0
    1.4546    1.6519    1.6301 H   0  0  0  0  0  0  0  0  0  0  0  0
    2.2080    3.5580    2.9407 H   0  0  0  0  0  0  0  0  0  0  0  0
    6.3069    2.5157    2.1657 H   0  0  0  0  0  0  0  0  0  0  0  0
    5.5702    0.5898    0.8400 H   0  0  0  0  0  0  0  0  0  0  0  0
    3.9347   -2.6207   -1.3100 H   0  0  0  0  0  0  0  0  0  0  0  0
    0.2572   -5.4235   -2.1627 H   0  0  0  0  0  0  0  0  0  0  0  0
   -0.9531   -4.1278   -2.3911 H   0  0  0  0  0  0  0  0  0  0  0  0
    0.2809   -4.4187   -3.6510 H   0  0  0  0  0  0  0  0  0  0  0  0
  1  2  1  0
  2  3  2  3
  3  4  1  0
  4  5  1  0
  5  6  1  0
  6  7  1  0
  7  8  1  0
  8  9  2  0
  2 10  1  0
 10 11  2  0
 11 12  1  0
 12 13  1  0
 13 14  2  0
 14 15  1  0
 15 16  2  0
 16 17  1  0
 16 18  1  0
 18 19  2  0
 11 20  1  0
 20 21  1  0
 21 22  2  0
 22 23  1  0
 23 24  1  0
 23 25  1  0
 25  1  1  0
 19 13  1  0
 25 20  2  0
  1 26  1  0
  4 27  1  0
  4 28  1  0
  5 29  1  0
  5 30  1  0
  6 31  1  0
  6 32  1  0
  7 33  1  0
  8 34  1  0
 12 35  1  0
 14 36  1  0
 15 37  1  0
 18 38  1  0
 19 39  1  0
 21 40  1  0
 24 41  1  0
 24 42  1  0
 24 43  1  0
M  END
>  <ScrubInfo>  (4) 
{"isomerGroup": 0, "isomerId": 3, "confId": 0, "nr_conformers:": 1, "nr_isomers:": 9}

$$$$
_i4
     RDKit          3D

 43 45  0  0  0  0  0  0  0  0999 V2000
    1.7512   -4.2290    0.6036 N   0  0  0  0  0  0  0  0  0  0  0  0
    2.5691   -3.1310    0.3563 C   0  0  0  0  0  0  0  0  0  0  0  0
    1.8921   -1.9760    0.3276 C   0  0  0  0  0  0  0  0  0  0  0  0
    2.1801   -0.5796    0.0983 C   0  0  0  0  0  0  0  0  0  0  0  0
    3.3852   -0.1463   -0.1058 N   0  0  0  0  0  0  0  0  0  0  0  0
    3.5749    1.2245   -0.3221 C   0  0  0  0  0  0  0  0  0  0  0  0
    3.8770    2.0708    0.7492 C   0  0  0  0  0  0  0  0  0  0  0  0
    4.0941    3.4343    0.5352 C   0  0  0  0  0  0  0  0  0  0  0  0
    4.0198    3.9496   -0.7576 C   0  0  0  0  0  0  0  0  0  0  0  0
    4.2846    5.6287   -1.0243 Cl  0  0  0  0  0  0  0  0  0  0  0  0
    3.7362    3.1139   -1.8362 C   0  0  0  0  0  0  0  0  0  0  0  0
    3.5202    1.7511   -1.6164 C   0  0  0  0  0  0  0  0  0  0  0  0
    1.0783    0.2343    0.1121 N   0  0  0  0  0  0  0  0  0  0  0  0
   -0.1203   -0.2165    0.3494 C   0  0  0  0  0  0  0  0  0  0  0  0
   -1.1188    0.7144    0.3192 N   0  0  0  0  0  0  0  0  0  0  0  0
   -2.3570    0.5551    1.0550 C   0  0  0  0  0  0  0  0  0  0  0  0
   -3.3836    1.5951    0.6109 C   0  0  0  0  0  0  0  0  0  0  0  0
   -3.8214    1.4364   -0.8455 C   0  0  0  0  0  0  0  0  0  0  0  0
   -4.4629    0.1663   -1.1142 N   0  0  0  0  0  0  0  0  0  0  0  0
   -5.7678   -0.0810   -0.7794 C   0  0  0  0  0  0  0  0  0  0  0  0
   -6.5279    0.7088   -0.2396 O   0  0  0  0  0  0  0  0  0  0  0  0
   -0.4448   -1.5207    0.6246 N   0  0  0  0  0  0  0  0  0  0  0  0
    0.5145   -2.3794    0.6332 C   0  0  0  0  0  0  0  0  0  0  0  0
    0.4755   -3.7501    0.8955 N   0  0  0  0  0  0  0  0  0  0  0  0
   -0.6770   -4.5494    0.5289 C   0  0  0  0  0  0  0  0  0  0  0  0
    2.1512   -4.8855    1.2782 H   0  0  0  0  0  0  0  0  0  0  0  0
    3.6318   -3.2728    0.2165 H   0  0  0  0  0  0  0  0  0  0  0  0
    3.9397    1.6620    1.7536 H   0  0  0  0  0  0  0  0  0  0  0  0
    4.3219    4.0820    1.3768 H   0  0  0  0  0  0  0  0  0  0  0  0
    3.6839    3.5114   -2.8456 H   0  0  0  0  0  0  0  0  0  0  0  0
    3.3036    1.0937   -2.4535 H   0  0  0  0  0  0  0  0  0  0  0  0
   -0.7294    1.6512    0.3236 H   0  0  0  0  0  0  0  0  0  0  0  0
   -2.7687   -0.4514    0.9214 H   0  0  0  0  0  0  0  0  0  0  0  0
   -2.1541    0.6848    2.1243 H   0  0  0  0  0  0  0  0  0  0  0  0
   -2.9684    2.6016    0.7448 H   0  0  0  0  0  0  0  0  0  0  0  0
   -4.2591    1.5223    1.2672 H   0  0  0  0  0  0  0  0  0  0  0  0
   -4.5281    2.2358   -1.0966 H   0  0  0  0  0  0  0  0  0  0  0  0
   -2.9687    1.5223   -1.5267 H   0  0  0  0  0  0  0  0  0  0  0  0
   -3.9041   -0.5843   -1.5017 H   0  0  0  0  0  0  0  0  0  0  0  0
   -6.0729   -1.1058   -1.0491 H   0  0  0  0  0  0  0  0  0  0  0  0
   -0.7979   -4.5821   -0.5589 H   0  0  0  0  0  0  0  0  0  0  0  0
   -0.5628   -5.5740    0.8974 H   0  0  0  0  0  0  0  0  0  0  0  0
   -1.5891   -4.1352    0.9704 H   0  0  0  0  0  0  0  0  0  0  0  0
  1  2  1  0
  2  3  2  0
  3  4  1  0
  4  5  2  3
  5  6  1  0
  6  7  2  0
  7  8  1  0
  8  9  2  0
  9 10  1  0
  9 11  1  0
 11 12  2  0
  4 13  1  0
 13 14  2  0
 14 15  1  0
 15 16  1  0
 16 17  1  0
 17 18  1  0
 18 19  1  0
 19 20  1  0
 20 21  2  0
 14 22  1  0
 22 23  2  0
 23 24  1  0
 24 25  1  0
 24  1  1  0
 23  3  1  0
 12  6  1  0
  1 26  1  0
  2 27  1  0
  7 28  1  0
  8 29  1  0
 11 30  1  0
 12 31  1  0
 15 32  1  0
 16 33  1  0
 16 34  1  0
 17 35  1  0
 17 36  1  0
 18 37  1  0
 18 38  1  0
 19 39  1  0
 20 40  1  0
 25 41  1  0
 25 42  1  0
 25 43  1  0
M  END
>  <ScrubInfo>  (5) 
{"isomerGroup": 0, "isomerId": 4, "confId": 0, "nr_conformers:": 1, "nr_isomers:": 9}

$$$$
_i5
     RDKit          3D

 43 45  0  0  0  0  0  0  0  0999 V2000
    0.1171   -2.0167    0.3177 N   0  0  0  0  0  0  0  0  0  0  0  0
    0.0442   -0.6615    0.0867 C   0  0  0  0  0  0  0  0  0  0  0  0
    1.2204    0.0175    0.2377 N   0  0  0  0  0  0  0  0  0  0  0  0
    2.4254   -0.3814   -0.4777 C   0  0  0  0  0  0  0  0  0  0  0  0
    3.5632    0.6026   -0.2175 C   0  0  0  0  0  0  0  0  0  0  0  0
    4.0133    0.5990    1.2422 C   0  0  0  0  0  0  0  0  0  0  0  0
    5.1606    1.4592    1.4525 N   0  0  0  0  0  0  0  0  0  0  0  0
    5.0330    2.8209    1.5551 C   0  0  0  0  0  0  0  0  0  0  0  0
    3.9857    3.4451    1.4771 O   0  0  0  0  0  0  0  0  0  0  0  0
   -1.0327   -0.0010   -0.2398 N   0  0  0  0  0  0  0  0  0  0  0  0
   -2.2299   -0.6902   -0.3860 C   0  0  0  0  0  0  0  0  0  0  0  0
   -3.3499   -0.1443   -0.7382 N   0  0  0  0  0  0  0  0  0  0  0  0
   -3.3633    1.2323   -0.9937 C   0  0  0  0  0  0  0  0  0  0  0  0
   -3.5396    2.1492    0.0477 C   0  0  0  0  0  0  0  0  0  0  0  0
   -3.5823    3.5207   -0.2156 C   0  0  0  0  0  0  0  0  0  0  0  0
   -3.4613    3.9748   -1.5276 C   0  0  0  0  0  0  0  0  0  0  0  0
   -3.5151    5.6630   -1.8563 Cl  0  0  0  0  0  0  0  0  0  0  0  0
   -3.3027    3.0707   -2.5764 C   0  0  0  0  0  0  0  0  0  0  0  0
   -3.2596    1.7004   -2.3071 C   0  0  0  0  0  0  0  0  0  0  0  0
   -2.2077   -2.1060   -0.1208 C   0  0  0  0  0  0  0  0  0  0  0  0
   -3.1505   -3.1422   -0.1054 C   0  0  0  0  0  0  0  0  0  0  0  0
   -2.6042   -4.3207    0.2388 N   0  0  0  0  0  0  0  0  0  0  0  0
   -1.2967   -4.0238    0.4454 N   0  0  0  0  0  0  0  0  0  0  0  0
   -0.3936   -5.0756    0.8358 C   0  0  0  0  0  0  0  0  0  0  0  0
   -1.0314   -2.7096    0.2273 C   0  0  0  0  0  0  0  0  0  0  0  0
    0.9481   -2.3627    0.7760 H   0  0  0  0  0  0  0  0  0  0  0  0
    1.0232    1.0089    0.0871 H   0  0  0  0  0  0  0  0  0  0  0  0
    2.2142   -0.4055   -1.5532 H   0  0  0  0  0  0  0  0  0  0  0  0
    2.7355   -1.3886   -0.1781 H   0  0  0  0  0  0  0  0  0  0  0  0
    3.2577    1.6137   -0.5140 H   0  0  0  0  0  0  0  0  0  0  0  0
    4.4135    0.3350   -0.8574 H   0  0  0  0  0  0  0  0  0  0  0  0
    4.3085   -0.4089    1.5523 H   0  0  0  0  0  0  0  0  0  0  0  0
    3.2044    0.9367    1.8993 H   0  0  0  0  0  0  0  0  0  0  0  0
    6.0857    1.0528    1.5072 H   0  0  0  0  0  0  0  0  0  0  0  0
    6.0066    3.3137    1.7146 H   0  0  0  0  0  0  0  0  0  0  0  0
   -3.6379    1.7895    1.0681 H   0  0  0  0  0  0  0  0  0  0  0  0
   -3.7107    4.2223    0.6034 H   0  0  0  0  0  0  0  0  0  0  0  0
   -3.2150    3.4214   -3.6005 H   0  0  0  0  0  0  0  0  0  0  0  0
   -3.1432    0.9904   -3.1210 H   0  0  0  0  0  0  0  0  0  0  0  0
   -4.2097   -3.0914   -0.3233 H   0  0  0  0  0  0  0  0  0  0  0  0
    0.6265   -4.6894    0.8894 H   0  0  0  0  0  0  0  0  0  0  0  0
   -0.7027   -5.4475    1.8158 H   0  0  0  0  0  0  0  0  0  0  0  0
   -0.4471   -5.8726    0.0897 H   0  0  0  0  0  0  0  0  0  0  0  0
  1  2  1  0
  2  3  1  0
  3  4  1  0
  4  5  1  0
  5  6  1  0
  6  7  1  0
  7  8  1  0
  8  9  2  0
  2 10  2  0
 10 11  1  0
 11 12  2  3
 12 13  1  0
 13 14  2  0
 14 15  1  0
 15 16  2  0
 16 17  1  0
 16 18  1  0
 18 19  2  0
 11 20  1  0
 20 21  1  0
 21 22  2  0
 22 23  1  0
 23 24  1  0
 23 25  1  0
 25  1  1  0
 19 13  1  0
 25 20  2  0
  1 26  1  0
  3 27  1  0
  4 28  1  0
  4 29  1  0
  5 30  1  0
  5 31  1  0
  6 32  1  0
  6 33  1  0
  7 34  1  0
  8 35  1  0
 14 36  1  0
 15 37  1  0
 18 38  1  0
 19 39  1  0
 21 40  1  0
 24 41  1  0
 24 42  1  0
 24 43  1  0
M  END
>  <ScrubInfo>  (6) 
{"isomerGroup": 0, "isomerId": 5, "confId": 0, "nr_conformers:": 1, "nr_isomers:": 9}

$$$$
_i6
     RDKit          3D

 43 45  0  0  0  0  0  0  0  0999 V2000
   -2.4277    4.6342   -0.0683 N   0  0  0  0  0  0  0  0  0  0  0  0
   -2.8665    3.3149   -0.1062 C   0  0  0  0  0  0  0  0  0  0  0  0
   -1.8624    2.4280   -0.0536 C   0  0  0  0  0  0  0  0  0  0  0  0
   -1.6836    0.9727   -0.0316 C   0  0  0  0  0  0  0  0  0  0  0  0
   -2.7977    0.1550   -0.0937 N   0  0  0  0  0  0  0  0  0  0  0  0
   -2.8765   -1.2406   -0.2623 C   0  0  0  0  0  0  0  0  0  0  0  0
   -1.8024   -2.0429   -0.6641 C   0  0  0  0  0  0  0  0  0  0  0  0
   -1.9354   -3.4323   -0.7798 C   0  0  0  0  0  0  0  0  0  0  0  0
   -3.1503   -4.0395   -0.4836 C   0  0  0  0  0  0  0  0  0  0  0  0
   -3.3165   -5.7450   -0.6229 Cl  0  0  0  0  0  0  0  0  0  0  0  0
   -4.2321   -3.2686   -0.0733 C   0  0  0  0  0  0  0  0  0  0  0  0
   -4.0922   -1.8808    0.0387 C   0  0  0  0  0  0  0  0  0  0  0  0
   -0.4629    0.5295    0.0708 N   0  0  0  0  0  0  0  0  0  0  0  0
    0.5899    1.4160    0.1566 C   0  0  0  0  0  0  0  0  0  0  0  0
    1.7831    0.9665    0.3299 N   0  0  0  0  0  0  0  0  0  0  0  0
    1.9563   -0.4802    0.4261 C   0  0  0  0  0  0  0  0  0  0  0  0
    3.4449   -0.7727    0.5971 C   0  0  0  0  0  0  0  0  0  0  0  0
    3.6884   -2.2623    0.8108 C   0  0  0  0  0  0  0  0  0  0  0  0
    5.1001   -2.5512    0.9619 N   0  0  0  0  0  0  0  0  0  0  0  0
    5.8924   -2.8878   -0.1047 C   0  0  0  0  0  0  0  0  0  0  0  0
    5.5176   -3.0516   -1.2560 O   0  0  0  0  0  0  0  0  0  0  0  0
    0.5201    2.7853    0.0776 N   0  0  0  0  0  0  0  0  0  0  0  0
   -0.6585    3.2860   -0.0368 C   0  0  0  0  0  0  0  0  0  0  0  0
   -1.0397    4.6229   -0.1474 N   0  0  0  0  0  0  0  0  0  0  0  0
   -0.2784    5.6719    0.5040 C   0  0  0  0  0  0  0  0  0  0  0  0
   -2.9063    5.2478   -0.7324 H   0  0  0  0  0  0  0  0  0  0  0  0
   -3.9273    3.1253   -0.1745 H   0  0  0  0  0  0  0  0  0  0  0  0
   -3.7017    0.6056   -0.0457 H   0  0  0  0  0  0  0  0  0  0  0  0
   -0.8412   -1.6061   -0.9184 H   0  0  0  0  0  0  0  0  0  0  0  0
   -1.0841   -4.0261   -1.1024 H   0  0  0  0  0  0  0  0  0  0  0  0
   -5.1828   -3.7373    0.1658 H   0  0  0  0  0  0  0  0  0  0  0  0
   -4.9501   -1.3038    0.3760 H   0  0  0  0  0  0  0  0  0  0  0  0
    1.4070   -0.8748    1.2897 H   0  0  0  0  0  0  0  0  0  0  0  0
    1.5975   -0.9782   -0.4827 H   0  0  0  0  0  0  0  0  0  0  0  0
    3.9951   -0.4211   -0.2850 H   0  0  0  0  0  0  0  0  0  0  0  0
    3.8420   -0.2077    1.4503 H   0  0  0  0  0  0  0  0  0  0  0  0
    3.1940   -2.6037    1.7264 H   0  0  0  0  0  0  0  0  0  0  0  0
    3.2883   -2.8411   -0.0290 H   0  0  0  0  0  0  0  0  0  0  0  0
    5.5426   -2.3578    1.8507 H   0  0  0  0  0  0  0  0  0  0  0  0
    6.9472   -3.0079    0.1937 H   0  0  0  0  0  0  0  0  0  0  0  0
   -0.3314    5.5715    1.5930 H   0  0  0  0  0  0  0  0  0  0  0  0
    0.7720    5.6327    0.1984 H   0  0  0  0  0  0  0  0  0  0  0  0
   -0.6708    6.6554    0.2258 H   0  0  0  0  0  0  0  0  0  0  0  0
  1  2  1  0
  2  3  2  0
  3  4  1  0
  4  5  1  0
  5  6  1  0
  6  7  2  0
  7  8  1  0
  8  9  2  0
  9 10  1  0
  9 11  1  0
 11 12  2  0
  4 13  2  0
 13 14  1  0
 14 15  2  3
 15 16  1  0
 16 17  1  0
 17 18  1  0
 18 19  1  0
 19 20  1  0
 20 21  2  0
 14 22  1  0
 22 23  2  0
 23 24  1  0
 24 25  1  0
 24  1  1  0
 23  3  1  0
 12  6  1  0
  1 26  1  0
  2 27  1  0
  5 28  1  0
  7 29  1  0
  8 30  1  0
 11 31  1  0
 12 32  1  0
 16 33  1  0
 16 34  1  0
 17 35  1  0
 17 36  1  0
 18 37  1  0
 18 38  1  0
 19 39  1  0
 20 40  1  0
 25 41  1  0
 25 42  1  0
 25 43  1  0
M  END
>  <ScrubInfo>  (7) 
{"isomerGroup": 0, "isomerId": 6, "confId": 0, "nr_conformers:": 1, "nr_isomers:": 9}

$$$$
_i7
     RDKit          3D

 43 45  0  0  0  0  0  0  0  0999 V2000
   -0.4591   -1.3216    0.3432 N   0  0  0  0  0  0  0  0  0  0  0  0
   -0.9561   -0.0309    0.4131 C   0  0  0  0  0  0  0  0  0  0  0  0
   -2.1909    0.3417    0.4711 N   0  0  0  0  0  0  0  0  0  0  0  0
   -3.2243   -0.6900    0.4676 C   0  0  0  0  0  0  0  0  0  0  0  0
   -4.5962   -0.0246    0.5300 C   0  0  0  0  0  0  0  0  0  0  0  0
   -4.9026    0.7749   -0.7343 C   0  0  0  0  0  0  0  0  0  0  0  0
   -6.2432    1.3258   -0.7054 N   0  0  0  0  0  0  0  0  0  0  0  0
   -7.3412    0.5821   -1.0505 C   0  0  0  0  0  0  0  0  0  0  0  0
   -7.3271   -0.5788   -1.4324 O   0  0  0  0  0  0  0  0  0  0  0  0
    0.0280    0.9329    0.4178 N   0  0  0  0  0  0  0  0  0  0  0  0
    1.4023    0.8446    0.3642 C   0  0  0  0  0  0  0  0  0  0  0  0
    2.1436    1.9115    0.3830 N   0  0  0  0  0  0  0  0  0  0  0  0
    3.5358    1.8579    0.3312 C   0  0  0  0  0  0  0  0  0  0  0  0
    4.2837    1.8153    1.5119 C   0  0  0  0  0  0  0  0  0  0  0  0
    5.6801    1.8020    1.4641 C   0  0  0  0  0  0  0  0  0  0  0  0
    6.3289    1.8491    0.2314 C   0  0  0  0  0  0  0  0  0  0  0  0
    8.0478    1.8337    0.1695 Cl  0  0  0  0  0  0  0  0  0  0  0  0
    5.5941    1.9155   -0.9512 C   0  0  0  0  0  0  0  0  0  0  0  0
    4.1979    1.9285   -0.8983 C   0  0  0  0  0  0  0  0  0  0  0  0
    1.8277   -0.5432    0.2893 C   0  0  0  0  0  0  0  0  0  0  0  0
    3.0416   -1.2501    0.2069 C   0  0  0  0  0  0  0  0  0  0  0  0
    2.8688   -2.5791    0.1550 N   0  0  0  0  0  0  0  0  0  0  0  0
    1.5286   -2.7330    0.2117 N   0  0  0  0  0  0  0  0  0  0  0  0
    0.9694   -4.0610    0.1715 C   0  0  0  0  0  0  0  0  0  0  0  0
    0.8752   -1.5408    0.2858 C   0  0  0  0  0  0  0  0  0  0  0  0
   -1.1327   -2.0754    0.3322 H   0  0  0  0  0  0  0  0  0  0  0  0
   -3.1568   -1.3106   -0.4339 H   0  0  0  0  0  0  0  0  0  0  0  0
   -3.1118   -1.3371    1.3457 H   0  0  0  0  0  0  0  0  0  0  0  0
   -5.3568   -0.8028    0.6683 H   0  0  0  0  0  0  0  0  0  0  0  0
   -4.6579    0.6338    1.4056 H   0  0  0  0  0  0  0  0  0  0  0  0
   -4.2134    1.6185   -0.8429 H   0  0  0  0  0  0  0  0  0  0  0  0
   -4.8071    0.1381   -1.6211 H   0  0  0  0  0  0  0  0  0  0  0  0
   -6.3790    2.2571   -0.3344 H   0  0  0  0  0  0  0  0  0  0  0  0
   -8.2758    1.1572   -0.9411 H   0  0  0  0  0  0  0  0  0  0  0  0
   -0.3231    1.8780    0.4716 H   0  0  0  0  0  0  0  0  0  0  0  0
    3.7746    1.7947    2.4719 H   0  0  0  0  0  0  0  0  0  0  0  0
    6.2509    1.7621    2.3878 H   0  0  0  0  0  0  0  0  0  0  0  0
    6.0978    1.9641   -1.9127 H   0  0  0  0  0  0  0  0  0  0  0  0
    3.6219    1.9962   -1.8175 H   0  0  0  0  0  0  0  0  0  0  0  0
    4.0549   -0.8743    0.1786 H   0  0  0  0  0  0  0  0  0  0  0  0
    0.0257   -4.0744    0.7215 H   0  0  0  0  0  0  0  0  0  0  0  0
    0.8060   -4.3290   -0.8750 H   0  0  0  0  0  0  0  0  0  0  0  0
    1.6699   -4.7586    0.6382 H   0  0  0  0  0  0  0  0  0  0  0  0
  1  2  1  0
  2  3  2  3
  3  4  1  0
  4  5  1  0
  5  6  1  0
  6  7  1  0
  7  8  1  0
  8  9  2  0
  2 10  1  0
 10 11  1  0
 11 12  2  3
 12 13  1  0
 13 14  2  0
 14 15  1  0
 15 16  2  0
 16 17  1  0
 16 18  1  0
 18 19  2  0
 11 20  1  0
 20 21  1  0
 21 22  2  0
 22 23  1  0
 23 24  1  0
 23 25  1  0
 25  1  1  0
 19 13  1  0
 25 20  2  0
  1 26  1  0
  4 27  1  0
  4 28  1  0
  5 29  1  0
  5 30  1  0
  6 31  1  0
  6 32  1  0
  7 33  1  0
  8 34  1  0
 10 35  1  0
 14 36  1  0
 15 37  1  0
 18 38  1  0
 19 39  1  0
 21 40  1  0
 24 41  1  0
 24 42  1  0
 24 43  1  0
M  END
>  <ScrubInfo>  (8) 
{"isomerGroup": 0, "isomerId": 7, "confId": 0, "nr_conformers:": 1, "nr_isomers:": 9}

$$$$
_i8
     RDKit          3D

 43 45  0  0  0  0  0  0  0  0999 V2000
    1.9325   -4.1981    0.7028 N   0  0  0  0  0  0  0  0  0  0  0  0
    2.6761   -3.0544    0.4352 C   0  0  0  0  0  0  0  0  0  0  0  0
    1.9210   -1.9538    0.3406 C   0  0  0  0  0  0  0  0  0  0  0  0
    2.1121   -0.5178    0.1236 C   0  0  0  0  0  0  0  0  0  0  0  0
    3.3098   -0.0581   -0.0848 N   0  0  0  0  0  0  0  0  0  0  0  0
    3.4782    1.3160   -0.2864 C   0  0  0  0  0  0  0  0  0  0  0  0
    3.7178    2.1635    0.7990 C   0  0  0  0  0  0  0  0  0  0  0  0
    3.8911    3.5354    0.5995 C   0  0  0  0  0  0  0  0  0  0  0  0
    3.8351    4.0576   -0.6915 C   0  0  0  0  0  0  0  0  0  0  0  0
    4.0478    5.7461   -0.9405 Cl  0  0  0  0  0  0  0  0  0  0  0  0
    3.6120    3.2196   -1.7827 C   0  0  0  0  0  0  0  0  0  0  0  0
    3.4391    1.8484   -1.5781 C   0  0  0  0  0  0  0  0  0  0  0  0
    0.9290    0.1751    0.1796 N   0  0  0  0  0  0  0  0  0  0  0  0
   -0.3153   -0.3498    0.4078 C   0  0  0  0  0  0  0  0  0  0  0  0
   -1.3187    0.4653    0.4632 N   0  0  0  0  0  0  0  0  0  0  0  0
   -2.6375   -0.1196    0.7203 C   0  0  0  0  0  0  0  0  0  0  0  0
   -3.6827    0.9957    0.7517 C   0  0  0  0  0  0  0  0  0  0  0  0
   -3.8462    1.7173   -0.5853 C   0  0  0  0  0  0  0  0  0  0  0  0
   -4.3395    0.8517   -1.6379 N   0  0  0  0  0  0  0  0  0  0  0  0
   -5.6701    0.5635   -1.7863 C   0  0  0  0  0  0  0  0  0  0  0  0
   -6.5823    1.0112   -1.1076 O   0  0  0  0  0  0  0  0  0  0  0  0
   -0.5167   -1.7062    0.5683 N   0  0  0  0  0  0  0  0  0  0  0  0
    0.5291   -2.4720    0.5247 C   0  0  0  0  0  0  0  0  0  0  0  0
    0.5811   -3.8636    0.6424 N   0  0  0  0  0  0  0  0  0  0  0  0
   -0.3576   -4.5763    1.4885 C   0  0  0  0  0  0  0  0  0  0  0  0
    2.2224   -5.0093    0.1518 H   0  0  0  0  0  0  0  0  0  0  0  0
    3.7496   -3.1247    0.3281 H   0  0  0  0  0  0  0  0  0  0  0  0
    3.7752    1.7506    1.8029 H   0  0  0  0  0  0  0  0  0  0  0  0
    4.0756    4.1853    1.4507 H   0  0  0  0  0  0  0  0  0  0  0  0
    3.5790    3.6232   -2.7911 H   0  0  0  0  0  0  0  0  0  0  0  0
    3.2793    1.1898   -2.4279 H   0  0  0  0  0  0  0  0  0  0  0  0
    0.9449    1.1783    0.0773 H   0  0  0  0  0  0  0  0  0  0  0  0
   -2.9005   -0.8554   -0.0489 H   0  0  0  0  0  0  0  0  0  0  0  0
   -2.6435   -0.6205    1.6962 H   0  0  0  0  0  0  0  0  0  0  0  0
   -3.4015    1.7325    1.5142 H   0  0  0  0  0  0  0  0  0  0  0  0
   -4.6443    0.5669    1.0587 H   0  0  0  0  0  0  0  0  0  0  0  0
   -4.5533    2.5457   -0.4621 H   0  0  0  0  0  0  0  0  0  0  0  0
   -2.8965    2.1402   -0.9281 H   0  0  0  0  0  0  0  0  0  0  0  0
   -3.6647    0.3515   -2.2017 H   0  0  0  0  0  0  0  0  0  0  0  0
   -5.8440   -0.1446   -2.6135 H   0  0  0  0  0  0  0  0  0  0  0  0
   -1.3883   -4.3403    1.2048 H   0  0  0  0  0  0  0  0  0  0  0  0
   -0.2212   -5.6573    1.3820 H   0  0  0  0  0  0  0  0  0  0  0  0
   -0.2133   -4.3091    2.5405 H   0  0  0  0  0  0  0  0  0  0  0  0
  1  2  1  0
  2  3  2  0
  3  4  1  0
  4  5  2  3
  5  6  1  0
  6  7  2  0
  7  8  1  0
  8  9  2  0
  9 10  1  0
  9 11  1  0
 11 12  2  0
  4 13  1  0
 13 14  1  0
 14 15  2  3
 15 16  1  0
 16 17  1  0
 17 18  1  0
 18 19  1  0
 19 20  1  0
 20 21  2  0
 14 22  1  0
 22 23  2  0
 23 24  1  0
 24 25  1  0
 24  1  1  0
 23  3  1  0
 12  6  1  0
  1 26  1  0
  2 27  1  0
  7 28  1  0
  8 29  1  0
 11 30  1  0
 12 31  1  0
 13 32  1  0
 16 33  1  0
 16 34  1  0
 17 35  1  0
 17 36  1  0
 18 37  1  0
 18 38  1  0
 19 39  1  0
 20 40  1  0
 25 41  1  0
 25 42  1  0
 25 43  1  0
M  END
>  <ScrubInfo>  (9) 
{"isomerGroup": 0, "isomerId": 8, "confId": 0, "nr_conformers:": 1, "nr_isomers:": 9}

$$$$
