REMARK SMILES Cn1ncc2c(Nc3ccc(Cl)cc3)nc(NCCCNC=O)nc21
REMARK SMILES IDX 17 1 16 3 2 4 3 5 25 6 4 7 24 8 5 9 6 10 15 11 1 12 7 13
REMARK SMILES IDX 8 15 9 16 14 17 10 18 13 19 11 20 12 21 18 22 19 23 20 24
REMARK SMILES IDX 21 25 22 26 23 28
REMARK H PARENT 17 2 7 14 21 27
ROOT
ATOM      1  N   UNL     1      -2.347   0.062  -0.322  1.00  0.00    -0.354 N 
ATOM      2  H   UNL     1      -2.342   0.928  -0.855  1.00  0.00     0.163 HD
ENDROOT
BRANCH   1   3
ATOM      3  C   UNL     1      -1.028  -0.383  -0.347  1.00  0.00     0.226 A 
ATOM      4  N   UNL     1       1.173  -3.131   0.140  1.00  0.00    -0.250 N 
ATOM      5  N   UNL     1       2.515  -3.099  -0.035  1.00  0.00    -0.179 NA
ATOM      6  C   UNL     1       0.562  -1.930  -0.099  1.00  0.00     0.165 A 
ATOM      7  C   UNL     1       2.745  -1.830  -0.394  1.00  0.00     0.149 A 
ATOM      8  N   UNL     1      -0.748  -1.653  -0.030  1.00  0.00    -0.193 NA
ATOM      9  C   UNL     1       1.572  -1.049  -0.431  1.00  0.00     0.082 A 
ATOM     10  C   UNL     1       1.193   0.265  -0.715  1.00  0.00     0.147 A 
ATOM     11  N   UNL     1      -0.131   0.561  -0.688  1.00  0.00    -0.195 NA
ATOM     12  C   UNL     1       0.539  -4.365   0.530  1.00  0.00     0.176 C 
BRANCH  10  13
ATOM     13  N   UNL     1       2.067   1.296  -1.090  1.00  0.00    -0.339 N 
ATOM     14  H   UNL     1       1.500   2.119  -1.279  1.00  0.00     0.168 HD
BRANCH  13  15
ATOM     15  C   UNL     1       3.302   1.654  -0.514  1.00  0.00     0.040 A 
ATOM     16  C   UNL     1       4.167   2.472  -1.255  1.00  0.00     0.027 A 
ATOM     17  C   UNL     1       3.688   1.272   0.777  1.00  0.00     0.027 A 
ATOM     18  C   UNL     1       5.400   2.876  -0.734  1.00  0.00     0.022 A 
ATOM     19  C   UNL     1       4.921   1.673   1.303  1.00  0.00     0.022 A 
ATOM     20  C   UNL     1       5.772   2.471   0.545  1.00  0.00     0.041 A 
ATOM     21  Cl  UNL     1       7.287   2.965   1.192  1.00  0.00    -0.084 Cl
ENDBRANCH  13  15
ENDBRANCH  10  13
ENDBRANCH   1   3
BRANCH   1  22
ATOM     22  C   UNL     1      -3.318  -0.918  -0.791  1.00  0.00     0.118 C 
BRANCH  22  23
ATOM     23  C   UNL     1      -4.731  -0.326  -0.768  1.00  0.00     0.042 C 
BRANCH  23  24
ATOM     24  C   UNL     1      -5.262  -0.104   0.649  1.00  0.00     0.117 C 
BRANCH  24  25
ATOM     25  N   UNL     1      -4.586   0.983   1.324  1.00  0.00    -0.359 N 
ATOM     26  C   UNL     1      -5.024   2.278   1.238  1.00  0.00     0.337 C 
ATOM     27  H   UNL     1      -3.616   0.830   1.583  1.00  0.00     0.163 HD
ATOM     28  O   UNL     1      -6.053   2.651   0.694  1.00  0.00    -0.279 OA
ENDBRANCH  24  25
ENDBRANCH  23  24
ENDBRANCH  22  23
ENDBRANCH   1  22
TORSDOF 7
