_i0
     RDKit          3D

 46 48  0  0  0  0  0  0  0  0999 V2000
    5.4878    0.1429    0.2701 C   0  0  0  0  0  0  0  0  0  0  0  0
    5.1012    1.3150    1.1608 C   0  0  0  0  0  0  0  0  0  0  0  0
    4.4024    2.4469    0.4023 C   0  0  0  0  0  0  0  0  0  0  0  0
    2.8715    2.4070    0.4557 C   0  0  0  0  0  0  0  0  0  0  0  0
    2.2496    1.1792   -0.2090 C   0  0  0  0  0  0  0  0  0  0  0  0
    0.8074    1.3491   -0.2661 N   0  0  0  0  0  0  0  0  0  0  0  0
    0.1180    0.2477   -0.7643 C   0  0  0  0  0  0  0  0  0  0  0  0
   -1.0730    0.0275   -0.1794 N   0  0  0  0  0  0  0  0  0  0  0  0
   -1.8617   -1.0111   -0.5645 C   0  0  0  0  0  0  0  0  0  0  0  0
   -3.0991   -1.2694    0.0442 N   0  0  0  0  0  0  0  0  0  0  0  0
   -3.8668   -0.5431    0.9712 C   0  0  0  0  0  0  0  0  0  0  0  0
   -3.5688    0.7619    1.3796 C   0  0  0  0  0  0  0  0  0  0  0  0
   -4.3551    1.4255    2.3298 C   0  0  0  0  0  0  0  0  0  0  0  0
   -5.4479    0.7767    2.8883 C   0  0  0  0  0  0  0  0  0  0  0  0
   -6.2400    1.3835    3.8161 O   0  0  0  0  0  0  0  0  0  0  0  0
   -5.7635   -0.5201    2.5131 C   0  0  0  0  0  0  0  0  0  0  0  0
   -4.9746   -1.1751    1.5630 C   0  0  0  0  0  0  0  0  0  0  0  0
   -1.3639   -1.8345   -1.5828 C   0  0  0  0  0  0  0  0  0  0  0  0
   -1.7616   -2.9816   -2.3016 C   0  0  0  0  0  0  0  0  0  0  0  0
   -0.8587   -3.3682   -3.2096 N   0  0  0  0  0  0  0  0  0  0  0  0
    0.1267   -2.4497   -3.0743 N   0  0  0  0  0  0  0  0  0  0  0  0
    1.2950   -2.5328   -3.9142 C   0  0  0  0  0  0  0  0  0  0  0  0
   -0.1275   -1.5151   -2.1083 C   0  0  0  0  0  0  0  0  0  0  0  0
    0.6578   -0.4938   -1.7401 N   0  0  0  0  0  0  0  0  0  0  0  0
    6.0145   -0.6161    0.8575 H   0  0  0  0  0  0  0  0  0  0  0  0
    4.6166   -0.3331   -0.1853 H   0  0  0  0  0  0  0  0  0  0  0  0
    6.1569    0.4682   -0.5332 H   0  0  0  0  0  0  0  0  0  0  0  0
    6.0254    1.7124    1.5986 H   0  0  0  0  0  0  0  0  0  0  0  0
    4.4842    0.9658    1.9963 H   0  0  0  0  0  0  0  0  0  0  0  0
    4.7413    2.4833   -0.6398 H   0  0  0  0  0  0  0  0  0  0  0  0
    4.7117    3.3965    0.8582 H   0  0  0  0  0  0  0  0  0  0  0  0
    2.4916    3.3131   -0.0345 H   0  0  0  0  0  0  0  0  0  0  0  0
    2.5396    2.4660    1.5003 H   0  0  0  0  0  0  0  0  0  0  0  0
    2.4951    0.2826    0.3717 H   0  0  0  0  0  0  0  0  0  0  0  0
    2.6626    1.0704   -1.2191 H   0  0  0  0  0  0  0  0  0  0  0  0
    0.3610    1.5590    0.6212 H   0  0  0  0  0  0  0  0  0  0  0  0
   -3.5504   -2.1093   -0.2898 H   0  0  0  0  0  0  0  0  0  0  0  0
   -2.7275    1.2990    0.9530 H   0  0  0  0  0  0  0  0  0  0  0  0
   -4.0944    2.4402    2.6123 H   0  0  0  0  0  0  0  0  0  0  0  0
   -5.8983    2.2790    3.9733 H   0  0  0  0  0  0  0  0  0  0  0  0
   -6.6166   -1.0233    2.9584 H   0  0  0  0  0  0  0  0  0  0  0  0
   -5.2354   -2.1952    1.2933 H   0  0  0  0  0  0  0  0  0  0  0  0
   -2.6735   -3.5557   -2.2042 H   0  0  0  0  0  0  0  0  0  0  0  0
    0.9752   -2.4537   -4.9563 H   0  0  0  0  0  0  0  0  0  0  0  0
    1.9864   -1.7214   -3.6766 H   0  0  0  0  0  0  0  0  0  0  0  0
    1.7790   -3.4962   -3.7350 H   0  0  0  0  0  0  0  0  0  0  0  0
  1  2  1  0
  2  3  1  0
  3  4  1  0
  4  5  1  0
  5  6  1  0
  6  7  1  0
  7  8  2  0
  8  9  1  0
  9 10  1  0
 10 11  1  0
 11 12  2  0
 12 13  1  0
 13 14  2  0
 14 15  1  0
 14 16  1  0
 16 17  2  0
  9 18  2  0
 18 19  1  0
 19 20  2  0
 20 21  1  0
 21 22  1  0
 21 23  1  0
 23 24  2  0
 24  7  1  0
 17 11  1  0
 23 18  1  0
  1 25  1  0
  1 26  1  0
  1 27  1  0
  2 28  1  0
  2 29  1  0
  3 30  1  0
  3 31  1  0
  4 32  1  0
  4 33  1  0
  5 34  1  0
  5 35  1  0
  6 36  1  0
 10 37  1  0
 12 38  1  0
 13 39  1  0
 15 40  1  0
 16 41  1  0
 17 42  1  0
 19 43  1  0
 22 44  1  0
 22 45  1  0
 22 46  1  0
M  END
>  <ScrubInfo>  (1) 
{"isomerGroup": 0, "isomerId": 0, "confId": 0, "nr_conformers:": 1, "nr_isomers:": 9}

$$$$
_i1
     RDKit          3D

 46 48  0  0  0  0  0  0  0  0999 V2000
   -0.1911   -0.1585    0.6667 N   0  0  0  0  0  0  0  0  0  0  0  0
   -1.4898    0.3177    0.6749 C   0  0  0  0  0  0  0  0  0  0  0  0
   -2.5176   -0.4357    1.2102 N   0  0  0  0  0  0  0  0  0  0  0  0
   -3.7017   -0.8384    0.5499 C   0  0  0  0  0  0  0  0  0  0  0  0
   -4.7221   -1.4211    1.3195 C   0  0  0  0  0  0  0  0  0  0  0  0
   -5.9355   -1.8059    0.7409 C   0  0  0  0  0  0  0  0  0  0  0  0
   -6.1360   -1.6017   -0.6179 C   0  0  0  0  0  0  0  0  0  0  0  0
   -7.3002   -1.9588   -1.2284 O   0  0  0  0  0  0  0  0  0  0  0  0
   -5.1469   -1.0205   -1.3991 C   0  0  0  0  0  0  0  0  0  0  0  0
   -3.9359   -0.6354   -0.8163 C   0  0  0  0  0  0  0  0  0  0  0  0
   -1.6533    1.5543    0.1898 C   0  0  0  0  0  0  0  0  0  0  0  0
   -2.7461    2.5134   -0.0067 C   0  0  0  0  0  0  0  0  0  0  0  0
   -2.3516    3.6305   -0.5658 N   0  0  0  0  0  0  0  0  0  0  0  0
   -0.9620    3.4977   -0.7214 N   0  0  0  0  0  0  0  0  0  0  0  0
   -0.2551    4.4317   -1.5628 C   0  0  0  0  0  0  0  0  0  0  0  0
   -0.4683    2.2641   -0.3304 C   0  0  0  0  0  0  0  0  0  0  0  0
    0.7259    1.7844   -0.3873 N   0  0  0  0  0  0  0  0  0  0  0  0
    0.8801    0.5089    0.1094 C   0  0  0  0  0  0  0  0  0  0  0  0
    2.0770    0.0574   -0.0136 N   0  0  0  0  0  0  0  0  0  0  0  0
    2.3956   -1.2761    0.4755 C   0  0  0  0  0  0  0  0  0  0  0  0
    3.8866   -1.5455    0.2632 C   0  0  0  0  0  0  0  0  0  0  0  0
    4.7711   -0.6539    1.1413 C   0  0  0  0  0  0  0  0  0  0  0  0
    6.2582   -1.0056    1.0545 C   0  0  0  0  0  0  0  0  0  0  0  0
    6.8626   -0.7510   -0.3177 C   0  0  0  0  0  0  0  0  0  0  0  0
   -0.0642   -1.1242    0.9170 H   0  0  0  0  0  0  0  0  0  0  0  0
   -2.1991   -1.1551    1.8529 H   0  0  0  0  0  0  0  0  0  0  0  0
   -4.5830   -1.5672    2.3883 H   0  0  0  0  0  0  0  0  0  0  0  0
   -6.7042   -2.2522    1.3636 H   0  0  0  0  0  0  0  0  0  0  0  0
   -7.9003   -2.3364   -0.5646 H   0  0  0  0  0  0  0  0  0  0  0  0
   -5.3144   -0.8669   -2.4618 H   0  0  0  0  0  0  0  0  0  0  0  0
   -3.1778   -0.1996   -1.4610 H   0  0  0  0  0  0  0  0  0  0  0  0
   -3.7763    2.2716    0.2841 H   0  0  0  0  0  0  0  0  0  0  0  0
    0.7962    4.5059   -1.2671 H   0  0  0  0  0  0  0  0  0  0  0  0
   -0.3015    4.1123   -2.6085 H   0  0  0  0  0  0  0  0  0  0  0  0
   -0.6941    5.4318   -1.4866 H   0  0  0  0  0  0  0  0  0  0  0  0
    1.8253   -2.0271   -0.0840 H   0  0  0  0  0  0  0  0  0  0  0  0
    2.1522   -1.3764    1.5399 H   0  0  0  0  0  0  0  0  0  0  0  0
    4.0884   -2.5973    0.4991 H   0  0  0  0  0  0  0  0  0  0  0  0
    4.1332   -1.3958   -0.7941 H   0  0  0  0  0  0  0  0  0  0  0  0
    4.4562   -0.7562    2.1872 H   0  0  0  0  0  0  0  0  0  0  0  0
    4.6307    0.3994    0.8708 H   0  0  0  0  0  0  0  0  0  0  0  0
    6.8010   -0.4016    1.7914 H   0  0  0  0  0  0  0  0  0  0  0  0
    6.4107   -2.0551    1.3315 H   0  0  0  0  0  0  0  0  0  0  0  0
    7.9427   -0.9281   -0.2907 H   0  0  0  0  0  0  0  0  0  0  0  0
    6.4373   -1.4174   -1.0736 H   0  0  0  0  0  0  0  0  0  0  0  0
    6.6971    0.2836   -0.6345 H   0  0  0  0  0  0  0  0  0  0  0  0
  1  2  1  0
  2  3  1  0
  3  4  1  0
  4  5  2  0
  5  6  1  0
  6  7  2  0
  7  8  1  0
  7  9  1  0
  9 10  2  0
  2 11  2  0
 11 12  1  0
 12 13  2  0
 13 14  1  0
 14 15  1  0
 14 16  1  0
 16 17  2  0
 17 18  1  0
 18 19  2  3
 19 20  1  0
 20 21  1  0
 21 22  1  0
 22 23  1  0
 23 24  1  0
 18  1  1  0
 10  4  1  0
 16 11  1  0
  1 25  1  0
  3 26  1  0
  5 27  1  0
  6 28  1  0
  8 29  1  0
  9 30  1  0
 10 31  1  0
 12 32  1  0
 15 33  1  0
 15 34  1  0
 15 35  1  0
 20 36  1  0
 20 37  1  0
 21 38  1  0
 21 39  1  0
 22 40  1  0
 22 41  1  0
 23 42  1  0
 23 43  1  0
 24 44  1  0
 24 45  1  0
 24 46  1  0
M  END
>  <ScrubInfo>  (2) 
{"isomerGroup": 0, "isomerId": 1, "confId": 0, "nr_conformers:": 1, "nr_isomers:": 9}

$$$$
_i2
     RDKit          3D

 46 48  0  0  0  0  0  0  0  0999 V2000
   -1.1602   -0.5329    0.2043 N   0  0  0  0  0  0  0  0  0  0  0  0
   -0.0435   -1.2574    0.5504 C   0  0  0  0  0  0  0  0  0  0  0  0
    1.0859   -0.5331    0.8134 N   0  0  0  0  0  0  0  0  0  0  0  0
    1.5831    0.4853   -0.1037 C   0  0  0  0  0  0  0  0  0  0  0  0
    2.8436    1.1522    0.4528 C   0  0  0  0  0  0  0  0  0  0  0  0
    4.0810    0.2512    0.3729 C   0  0  0  0  0  0  0  0  0  0  0  0
    5.3375    0.8964    0.9637 C   0  0  0  0  0  0  0  0  0  0  0  0
    5.8237    2.1092    0.1853 C   0  0  0  0  0  0  0  0  0  0  0  0
   -0.0102   -2.5636    0.6547 N   0  0  0  0  0  0  0  0  0  0  0  0
   -1.2200   -3.1166    0.3546 C   0  0  0  0  0  0  0  0  0  0  0  0
   -2.3871   -2.4698   -0.0033 C   0  0  0  0  0  0  0  0  0  0  0  0
   -3.3294   -3.4874   -0.2031 C   0  0  0  0  0  0  0  0  0  0  0  0
   -2.8117   -4.7053    0.0065 N   0  0  0  0  0  0  0  0  0  0  0  0
   -1.5238   -4.4498    0.3489 N   0  0  0  0  0  0  0  0  0  0  0  0
   -0.6446   -5.5487    0.6576 C   0  0  0  0  0  0  0  0  0  0  0  0
   -2.4125   -1.0319   -0.0842 C   0  0  0  0  0  0  0  0  0  0  0  0
   -3.5220   -0.4419   -0.3822 N   0  0  0  0  0  0  0  0  0  0  0  0
   -3.5152    0.9559   -0.4505 C   0  0  0  0  0  0  0  0  0  0  0  0
   -3.9058    1.7123    0.6585 C   0  0  0  0  0  0  0  0  0  0  0  0
   -3.8880    3.1081    0.6065 C   0  0  0  0  0  0  0  0  0  0  0  0
   -3.4847    3.7404   -0.5653 C   0  0  0  0  0  0  0  0  0  0  0  0
   -3.4477    5.0992   -0.6622 O   0  0  0  0  0  0  0  0  0  0  0  0
   -3.1089    3.0021   -1.6819 C   0  0  0  0  0  0  0  0  0  0  0  0
   -3.1319    1.6079   -1.6261 C   0  0  0  0  0  0  0  0  0  0  0  0
   -1.0995    0.4654    0.3129 H   0  0  0  0  0  0  0  0  0  0  0  0
    1.8184   -1.1913    1.0718 H   0  0  0  0  0  0  0  0  0  0  0  0
    0.8225    1.2616   -0.2415 H   0  0  0  0  0  0  0  0  0  0  0  0
    1.7854    0.0408   -1.0849 H   0  0  0  0  0  0  0  0  0  0  0  0
    3.0242    2.0620   -0.1308 H   0  0  0  0  0  0  0  0  0  0  0  0
    2.6757    1.4621    1.4915 H   0  0  0  0  0  0  0  0  0  0  0  0
    4.2682   -0.0271   -0.6714 H   0  0  0  0  0  0  0  0  0  0  0  0
    3.8964   -0.6807    0.9190 H   0  0  0  0  0  0  0  0  0  0  0  0
    5.1559    1.1806    2.0068 H   0  0  0  0  0  0  0  0  0  0  0  0
    6.1385    0.1475    0.9745 H   0  0  0  0  0  0  0  0  0  0  0  0
    5.9789    1.8630   -0.8698 H   0  0  0  0  0  0  0  0  0  0  0  0
    5.1128    2.9381    0.2474 H   0  0  0  0  0  0  0  0  0  0  0  0
    6.7765    2.4601    0.5947 H   0  0  0  0  0  0  0  0  0  0  0  0
   -4.3686   -3.3949   -0.4913 H   0  0  0  0  0  0  0  0  0  0  0  0
    0.3484   -5.1749    0.9166 H   0  0  0  0  0  0  0  0  0  0  0  0
   -1.0651   -6.0982    1.5037 H   0  0  0  0  0  0  0  0  0  0  0  0
   -0.5791   -6.1940   -0.2221 H   0  0  0  0  0  0  0  0  0  0  0  0
   -4.2285    1.2065    1.5652 H   0  0  0  0  0  0  0  0  0  0  0  0
   -4.1934    3.6758    1.4797 H   0  0  0  0  0  0  0  0  0  0  0  0
   -3.8089    5.4806    0.1552 H   0  0  0  0  0  0  0  0  0  0  0  0
   -2.8109    3.5090   -2.5953 H   0  0  0  0  0  0  0  0  0  0  0  0
   -2.8556    1.0261   -2.5013 H   0  0  0  0  0  0  0  0  0  0  0  0
  1  2  1  0
  2  3  1  0
  3  4  1  0
  4  5  1  0
  5  6  1  0
  6  7  1  0
  7  8  1  0
  2  9  2  0
  9 10  1  0
 10 11  2  0
 11 12  1  0
 12 13  2  0
 13 14  1  0
 14 15  1  0
 11 16  1  0
 16 17  2  3
 17 18  1  0
 18 19  2  0
 19 20  1  0
 20 21  2  0
 21 22  1  0
 21 23  1  0
 23 24  2  0
 16  1  1  0
 24 18  1  0
 14 10  1  0
  1 25  1  0
  3 26  1  0
  4 27  1  0
  4 28  1  0
  5 29  1  0
  5 30  1  0
  6 31  1  0
  6 32  1  0
  7 33  1  0
  7 34  1  0
  8 35  1  0
  8 36  1  0
  8 37  1  0
 12 38  1  0
 15 39  1  0
 15 40  1  0
 15 41  1  0
 19 42  1  0
 20 43  1  0
 22 44  1  0
 23 45  1  0
 24 46  1  0
M  END
>  <ScrubInfo>  (3) 
{"isomerGroup": 0, "isomerId": 2, "confId": 0, "nr_conformers:": 1, "nr_isomers:": 9}

$$$$
_i3
     RDKit          3D

 46 48  0  0  0  0  0  0  0  0999 V2000
    0.5395    1.1582    0.2707 N   0  0  0  0  0  0  0  0  0  0  0  0
    0.5851    0.0569    1.1117 C   0  0  0  0  0  0  0  0  0  0  0  0
    1.6416   -0.5526    1.5152 N   0  0  0  0  0  0  0  0  0  0  0  0
    2.9719   -0.1028    1.1289 C   0  0  0  0  0  0  0  0  0  0  0  0
    3.3744   -0.7485   -0.1962 C   0  0  0  0  0  0  0  0  0  0  0  0
    4.7217   -0.2546   -0.7290 C   0  0  0  0  0  0  0  0  0  0  0  0
    5.9049   -0.6403    0.1594 C   0  0  0  0  0  0  0  0  0  0  0  0
    7.2273   -0.2257   -0.4679 C   0  0  0  0  0  0  0  0  0  0  0  0
   -0.5793   -0.5119    1.6099 N   0  0  0  0  0  0  0  0  0  0  0  0
   -1.7372   -0.0222    1.2698 C   0  0  0  0  0  0  0  0  0  0  0  0
   -2.9232   -0.5239    1.7440 N   0  0  0  0  0  0  0  0  0  0  0  0
   -3.9498   -1.0472    0.9148 C   0  0  0  0  0  0  0  0  0  0  0  0
   -3.7336   -1.4551   -0.4080 C   0  0  0  0  0  0  0  0  0  0  0  0
   -4.7760   -2.0009   -1.1615 C   0  0  0  0  0  0  0  0  0  0  0  0
   -6.0328   -2.1562   -0.5914 C   0  0  0  0  0  0  0  0  0  0  0  0
   -7.0188   -2.6929   -1.3637 O   0  0  0  0  0  0  0  0  0  0  0  0
   -6.2661   -1.7805    0.7258 C   0  0  0  0  0  0  0  0  0  0  0  0
   -5.2216   -1.2350    1.4773 C   0  0  0  0  0  0  0  0  0  0  0  0
   -1.8249    1.1381    0.4152 C   0  0  0  0  0  0  0  0  0  0  0  0
   -2.8244    1.9664   -0.1163 C   0  0  0  0  0  0  0  0  0  0  0  0
   -2.3185    2.9485   -0.8798 N   0  0  0  0  0  0  0  0  0  0  0  0
   -0.9792    2.7452   -0.8253 N   0  0  0  0  0  0  0  0  0  0  0  0
   -0.1064    3.6402   -1.5411 C   0  0  0  0  0  0  0  0  0  0  0  0
   -0.6582    1.6753   -0.0520 C   0  0  0  0  0  0  0  0  0  0  0  0
    1.4159    1.5163   -0.0749 H   0  0  0  0  0  0  0  0  0  0  0  0
    3.6641   -0.4136    1.9188 H   0  0  0  0  0  0  0  0  0  0  0  0
    3.0447    0.9896    1.0820 H   0  0  0  0  0  0  0  0  0  0  0  0
    3.3971   -1.8395   -0.0826 H   0  0  0  0  0  0  0  0  0  0  0  0
    2.6100   -0.5368   -0.9541 H   0  0  0  0  0  0  0  0  0  0  0  0
    4.8707   -0.6809   -1.7290 H   0  0  0  0  0  0  0  0  0  0  0  0
    4.6905    0.8348   -0.8527 H   0  0  0  0  0  0  0  0  0  0  0  0
    5.8175   -0.1605    1.1399 H   0  0  0  0  0  0  0  0  0  0  0  0
    5.9097   -1.7239    0.3245 H   0  0  0  0  0  0  0  0  0  0  0  0
    7.2659    0.8575   -0.6212 H   0  0  0  0  0  0  0  0  0  0  0  0
    7.3735   -0.7157   -1.4359 H   0  0  0  0  0  0  0  0  0  0  0  0
    8.0604   -0.5068    0.1838 H   0  0  0  0  0  0  0  0  0  0  0  0
   -2.7098   -1.2341    2.4433 H   0  0  0  0  0  0  0  0  0  0  0  0
   -2.7538   -1.3668   -0.8708 H   0  0  0  0  0  0  0  0  0  0  0  0
   -4.6032   -2.3094   -2.1889 H   0  0  0  0  0  0  0  0  0  0  0  0
   -7.8369   -2.7341   -0.8419 H   0  0  0  0  0  0  0  0  0  0  0  0
   -7.2425   -1.9032    1.1834 H   0  0  0  0  0  0  0  0  0  0  0  0
   -5.4080   -0.9408    2.5079 H   0  0  0  0  0  0  0  0  0  0  0  0
   -3.8973    1.9032    0.0127 H   0  0  0  0  0  0  0  0  0  0  0  0
   -0.3925    3.6316   -2.5959 H   0  0  0  0  0  0  0  0  0  0  0  0
   -0.2226    4.6425   -1.1212 H   0  0  0  0  0  0  0  0  0  0  0  0
    0.9300    3.3122   -1.4379 H   0  0  0  0  0  0  0  0  0  0  0  0
  1  2  1  0
  2  3  2  3
  3  4  1  0
  4  5  1  0
  5  6  1  0
  6  7  1  0
  7  8  1  0
  2  9  1  0
  9 10  2  0
 10 11  1  0
 11 12  1  0
 12 13  2  0
 13 14  1  0
 14 15  2  0
 15 16  1  0
 15 17  1  0
 17 18  2  0
 10 19  1  0
 19 20  1  0
 20 21  2  0
 21 22  1  0
 22 23  1  0
 22 24  1  0
 24  1  1  0
 18 12  1  0
 24 19  2  0
  1 25  1  0
  4 26  1  0
  4 27  1  0
  5 28  1  0
  5 29  1  0
  6 30  1  0
  6 31  1  0
  7 32  1  0
  7 33  1  0
  8 34  1  0
  8 35  1  0
  8 36  1  0
 11 37  1  0
 13 38  1  0
 14 39  1  0
 16 40  1  0
 17 41  1  0
 18 42  1  0
 20 43  1  0
 23 44  1  0
 23 45  1  0
 23 46  1  0
M  END
>  <ScrubInfo>  (4) 
{"isomerGroup": 0, "isomerId": 3, "confId": 0, "nr_conformers:": 1, "nr_isomers:": 9}

$$$$
_i4
     RDKit          3D

 46 48  0  0  0  0  0  0  0  0999 V2000
   -3.1017   -2.7792   -0.3092 N   0  0  0  0  0  0  0  0  0  0  0  0
   -3.1453   -1.3940   -0.1927 C   0  0  0  0  0  0  0  0  0  0  0  0
   -1.9352   -0.8154   -0.2319 C   0  0  0  0  0  0  0  0  0  0  0  0
   -1.3399    0.5120   -0.1443 C   0  0  0  0  0  0  0  0  0  0  0  0
   -1.8898    1.6782   -0.0648 N   0  0  0  0  0  0  0  0  0  0  0  0
   -3.2787    1.8130   -0.0569 C   0  0  0  0  0  0  0  0  0  0  0  0
   -3.9810    1.8236    1.1515 C   0  0  0  0  0  0  0  0  0  0  0  0
   -5.3689    1.9725    1.1583 C   0  0  0  0  0  0  0  0  0  0  0  0
   -6.0482    2.1324   -0.0442 C   0  0  0  0  0  0  0  0  0  0  0  0
   -7.4027    2.2765    0.0064 O   0  0  0  0  0  0  0  0  0  0  0  0
   -5.3628    2.1509   -1.2550 C   0  0  0  0  0  0  0  0  0  0  0  0
   -3.9744    1.9972   -1.2564 C   0  0  0  0  0  0  0  0  0  0  0  0
    0.0291    0.5051   -0.1497 N   0  0  0  0  0  0  0  0  0  0  0  0
    0.7396   -0.5716   -0.2868 C   0  0  0  0  0  0  0  0  0  0  0  0
    2.1037   -0.5149   -0.2759 N   0  0  0  0  0  0  0  0  0  0  0  0
    2.8284    0.7149   -0.5189 C   0  0  0  0  0  0  0  0  0  0  0  0
    4.3312    0.5025   -0.3244 C   0  0  0  0  0  0  0  0  0  0  0  0
    4.7007    0.2342    1.1387 C   0  0  0  0  0  0  0  0  0  0  0  0
    6.1917   -0.0433    1.3449 C   0  0  0  0  0  0  0  0  0  0  0  0
    7.0811    1.1528    1.0426 C   0  0  0  0  0  0  0  0  0  0  0  0
    0.2394   -1.8336   -0.4613 N   0  0  0  0  0  0  0  0  0  0  0  0
   -1.0405   -1.9694   -0.4409 C   0  0  0  0  0  0  0  0  0  0  0  0
   -1.7909   -3.1378   -0.5885 N   0  0  0  0  0  0  0  0  0  0  0  0
   -1.2907   -4.4079   -0.0972 C   0  0  0  0  0  0  0  0  0  0  0  0
   -3.8180   -3.1569   -0.9335 H   0  0  0  0  0  0  0  0  0  0  0  0
   -4.1106   -0.9208   -0.0883 H   0  0  0  0  0  0  0  0  0  0  0  0
   -3.4414    1.7180    2.0888 H   0  0  0  0  0  0  0  0  0  0  0  0
   -5.9137    1.9756    2.0979 H   0  0  0  0  0  0  0  0  0  0  0  0
   -7.7295    2.4606   -0.8895 H   0  0  0  0  0  0  0  0  0  0  0  0
   -5.8823    2.2895   -2.1974 H   0  0  0  0  0  0  0  0  0  0  0  0
   -3.4245    2.0269   -2.1935 H   0  0  0  0  0  0  0  0  0  0  0  0
    2.5176   -1.3595   -0.6489 H   0  0  0  0  0  0  0  0  0  0  0  0
    2.4802    1.5095    0.1513 H   0  0  0  0  0  0  0  0  0  0  0  0
    2.6455    1.0418   -1.5490 H   0  0  0  0  0  0  0  0  0  0  0  0
    4.6750   -0.3296   -0.9510 H   0  0  0  0  0  0  0  0  0  0  0  0
    4.8474    1.4040   -0.6730 H   0  0  0  0  0  0  0  0  0  0  0  0
    4.3967    1.0865    1.7586 H   0  0  0  0  0  0  0  0  0  0  0  0
    4.1423   -0.6362    1.5036 H   0  0  0  0  0  0  0  0  0  0  0  0
    6.5019   -0.8943    0.7274 H   0  0  0  0  0  0  0  0  0  0  0  0
    6.3481   -0.3368    2.3899 H   0  0  0  0  0  0  0  0  0  0  0  0
    7.0580    1.4123   -0.0197 H   0  0  0  0  0  0  0  0  0  0  0  0
    6.7717    2.0290    1.6209 H   0  0  0  0  0  0  0  0  0  0  0  0
    8.1193    0.9238    1.3041 H   0  0  0  0  0  0  0  0  0  0  0  0
   -0.3124   -4.6318   -0.5345 H   0  0  0  0  0  0  0  0  0  0  0  0
   -1.1924   -4.3924    0.9933 H   0  0  0  0  0  0  0  0  0  0  0  0
   -1.9731   -5.2182   -0.3736 H   0  0  0  0  0  0  0  0  0  0  0  0
  1  2  1  0
  2  3  2  0
  3  4  1  0
  4  5  2  3
  5  6  1  0
  6  7  2  0
  7  8  1  0
  8  9  2  0
  9 10  1  0
  9 11  1  0
 11 12  2  0
  4 13  1  0
 13 14  2  0
 14 15  1  0
 15 16  1  0
 16 17  1  0
 17 18  1  0
 18 19  1  0
 19 20  1  0
 14 21  1  0
 21 22  2  0
 22 23  1  0
 23 24  1  0
 23  1  1  0
 22  3  1  0
 12  6  1  0
  1 25  1  0
  2 26  1  0
  7 27  1  0
  8 28  1  0
 10 29  1  0
 11 30  1  0
 12 31  1  0
 15 32  1  0
 16 33  1  0
 16 34  1  0
 17 35  1  0
 17 36  1  0
 18 37  1  0
 18 38  1  0
 19 39  1  0
 19 40  1  0
 20 41  1  0
 20 42  1  0
 20 43  1  0
 24 44  1  0
 24 45  1  0
 24 46  1  0
M  END
>  <ScrubInfo>  (5) 
{"isomerGroup": 0, "isomerId": 4, "confId": 0, "nr_conformers:": 1, "nr_isomers:": 9}

$$$$
_i5
     RDKit          3D

 46 48  0  0  0  0  0  0  0  0999 V2000
    0.4025    1.8478    0.7371 N   0  0  0  0  0  0  0  0  0  0  0  0
    0.9996    0.6296    0.9405 C   0  0  0  0  0  0  0  0  0  0  0  0
    2.3294    0.6682    1.2465 N   0  0  0  0  0  0  0  0  0  0  0  0
    3.3067    1.4360    0.4888 C   0  0  0  0  0  0  0  0  0  0  0  0
    3.4312    0.9568   -0.9567 C   0  0  0  0  0  0  0  0  0  0  0  0
    3.8706   -0.4997   -1.1539 C   0  0  0  0  0  0  0  0  0  0  0  0
    5.2904   -0.8149   -0.6743 C   0  0  0  0  0  0  0  0  0  0  0  0
    5.3437   -1.3997    0.7293 C   0  0  0  0  0  0  0  0  0  0  0  0
    0.4013   -0.5257    0.8766 N   0  0  0  0  0  0  0  0  0  0  0  0
   -0.9511   -0.5904    0.5615 C   0  0  0  0  0  0  0  0  0  0  0  0
   -1.4527   -1.7809    0.4682 N   0  0  0  0  0  0  0  0  0  0  0  0
   -2.7910   -2.0093    0.1546 C   0  0  0  0  0  0  0  0  0  0  0  0
   -3.7316   -2.1819    1.1756 C   0  0  0  0  0  0  0  0  0  0  0  0
   -5.0698   -2.4423    0.8710 C   0  0  0  0  0  0  0  0  0  0  0  0
   -5.4569   -2.5462   -0.4616 C   0  0  0  0  0  0  0  0  0  0  0  0
   -6.7512   -2.7981   -0.8070 O   0  0  0  0  0  0  0  0  0  0  0  0
   -4.5294   -2.4031   -1.4873 C   0  0  0  0  0  0  0  0  0  0  0  0
   -3.1931   -2.1443   -1.1776 C   0  0  0  0  0  0  0  0  0  0  0  0
   -1.6372    0.6789    0.3795 C   0  0  0  0  0  0  0  0  0  0  0  0
   -2.9437    1.1308    0.1179 C   0  0  0  0  0  0  0  0  0  0  0  0
   -3.0336    2.4702    0.0721 N   0  0  0  0  0  0  0  0  0  0  0  0
   -1.7675    2.8846    0.3008 N   0  0  0  0  0  0  0  0  0  0  0  0
   -1.4851    4.2971    0.3162 C   0  0  0  0  0  0  0  0  0  0  0  0
   -0.9166    1.8424    0.4828 C   0  0  0  0  0  0  0  0  0  0  0  0
    0.9166    2.6667    1.0297 H   0  0  0  0  0  0  0  0  0  0  0  0
    2.6455   -0.2884    1.3992 H   0  0  0  0  0  0  0  0  0  0  0  0
    3.0343    2.4976    0.4946 H   0  0  0  0  0  0  0  0  0  0  0  0
    4.2754    1.3779    0.9943 H   0  0  0  0  0  0  0  0  0  0  0  0
    2.4672    1.0907   -1.4639 H   0  0  0  0  0  0  0  0  0  0  0  0
    4.1403    1.6121   -1.4782 H   0  0  0  0  0  0  0  0  0  0  0  0
    3.1447   -1.1891   -0.7081 H   0  0  0  0  0  0  0  0  0  0  0  0
    3.8392   -0.6908   -2.2349 H   0  0  0  0  0  0  0  0  0  0  0  0
    5.7230   -1.5600   -1.3539 H   0  0  0  0  0  0  0  0  0  0  0  0
    5.9302    0.0724   -0.7365 H   0  0  0  0  0  0  0  0  0  0  0  0
    6.3725   -1.6791    0.9788 H   0  0  0  0  0  0  0  0  0  0  0  0
    5.0034   -0.6883    1.4843 H   0  0  0  0  0  0  0  0  0  0  0  0
    4.7252   -2.3001    0.8024 H   0  0  0  0  0  0  0  0  0  0  0  0
   -3.4132   -2.1149    2.2126 H   0  0  0  0  0  0  0  0  0  0  0  0
   -5.7834   -2.5660    1.6790 H   0  0  0  0  0  0  0  0  0  0  0  0
   -7.2762   -2.8924    0.0046 H   0  0  0  0  0  0  0  0  0  0  0  0
   -4.8419   -2.5004   -2.5229 H   0  0  0  0  0  0  0  0  0  0  0  0
   -2.4607   -2.0494   -1.9743 H   0  0  0  0  0  0  0  0  0  0  0  0
   -3.8489    0.5601   -0.0377 H   0  0  0  0  0  0  0  0  0  0  0  0
   -1.9553    4.7302    1.2025 H   0  0  0  0  0  0  0  0  0  0  0  0
   -0.4059    4.4608    0.3474 H   0  0  0  0  0  0  0  0  0  0  0  0
   -1.8968    4.7444   -0.5923 H   0  0  0  0  0  0  0  0  0  0  0  0
  1  2  1  0
  2  3  1  0
  3  4  1  0
  4  5  1  0
  5  6  1  0
  6  7  1  0
  7  8  1  0
  2  9  2  0
  9 10  1  0
 10 11  2  3
 11 12  1  0
 12 13  2  0
 13 14  1  0
 14 15  2  0
 15 16  1  0
 15 17  1  0
 17 18  2  0
 10 19  1  0
 19 20  1  0
 20 21  2  0
 21 22  1  0
 22 23  1  0
 22 24  1  0
 24  1  1  0
 18 12  1  0
 24 19  2  0
  1 25  1  0
  3 26  1  0
  4 27  1  0
  4 28  1  0
  5 29  1  0
  5 30  1  0
  6 31  1  0
  6 32  1  0
  7 33  1  0
  7 34  1  0
  8 35  1  0
  8 36  1  0
  8 37  1  0
 13 38  1  0
 14 39  1  0
 16 40  1  0
 17 41  1  0
 18 42  1  0
 20 43  1  0
 23 44  1  0
 23 45  1  0
 23 46  1  0
M  END
>  <ScrubInfo>  (6) 
{"isomerGroup": 0, "isomerId": 5, "confId": 0, "nr_conformers:": 1, "nr_isomers:": 9}

$$$$
_i6
     RDKit          3D

 46 48  0  0  0  0  0  0  0  0999 V2000
   -1.4368   -3.8150    1.5396 N   0  0  0  0  0  0  0  0  0  0  0  0
   -2.2924   -2.8732    0.9778 C   0  0  0  0  0  0  0  0  0  0  0  0
   -1.6824   -1.7126    0.6982 C   0  0  0  0  0  0  0  0  0  0  0  0
   -2.0148   -0.4126    0.1042 C   0  0  0  0  0  0  0  0  0  0  0  0
   -3.3174   -0.1724   -0.2964 N   0  0  0  0  0  0  0  0  0  0  0  0
   -3.8882    0.9653   -0.9017 C   0  0  0  0  0  0  0  0  0  0  0  0
   -5.2667    0.9398   -1.1920 C   0  0  0  0  0  0  0  0  0  0  0  0
   -5.9126    2.0294   -1.7877 C   0  0  0  0  0  0  0  0  0  0  0  0
   -5.1801    3.1652   -2.1000 C   0  0  0  0  0  0  0  0  0  0  0  0
   -5.7610    4.2521   -2.6804 O   0  0  0  0  0  0  0  0  0  0  0  0
   -3.8225    3.2218   -1.8248 C   0  0  0  0  0  0  0  0  0  0  0  0
   -3.1828    2.1281   -1.2285 C   0  0  0  0  0  0  0  0  0  0  0  0
   -1.0410    0.4425   -0.0075 N   0  0  0  0  0  0  0  0  0  0  0  0
    0.2296    0.1148    0.4056 C   0  0  0  0  0  0  0  0  0  0  0  0
    1.1039    1.0216    0.1496 N   0  0  0  0  0  0  0  0  0  0  0  0
    2.4941    0.8128    0.5485 C   0  0  0  0  0  0  0  0  0  0  0  0
    3.2615    0.1456   -0.5898 C   0  0  0  0  0  0  0  0  0  0  0  0
    4.6936   -0.2632   -0.2309 C   0  0  0  0  0  0  0  0  0  0  0  0
    5.6317    0.9018    0.0969 C   0  0  0  0  0  0  0  0  0  0  0  0
    5.7460    1.1822    1.5883 C   0  0  0  0  0  0  0  0  0  0  0  0
    0.6149   -1.0479    1.0319 N   0  0  0  0  0  0  0  0  0  0  0  0
   -0.3047   -1.9336    1.1873 C   0  0  0  0  0  0  0  0  0  0  0  0
   -0.2182   -3.1917    1.7840 N   0  0  0  0  0  0  0  0  0  0  0  0
    1.0044   -3.9691    1.7071 C   0  0  0  0  0  0  0  0  0  0  0  0
   -1.8440   -4.3243    2.3279 H   0  0  0  0  0  0  0  0  0  0  0  0
   -3.3263   -3.1426    0.8218 H   0  0  0  0  0  0  0  0  0  0  0  0
   -3.9784   -0.9246   -0.1631 H   0  0  0  0  0  0  0  0  0  0  0  0
   -5.8616    0.0613   -0.9547 H   0  0  0  0  0  0  0  0  0  0  0  0
   -6.9758    1.9699   -1.9957 H   0  0  0  0  0  0  0  0  0  0  0  0
   -6.7051    4.0691   -2.8117 H   0  0  0  0  0  0  0  0  0  0  0  0
   -3.2515    4.1131   -2.0699 H   0  0  0  0  0  0  0  0  0  0  0  0
   -2.1186    2.2217   -1.0334 H   0  0  0  0  0  0  0  0  0  0  0  0
    2.5893    0.2463    1.4821 H   0  0  0  0  0  0  0  0  0  0  0  0
    2.9221    1.8008    0.7490 H   0  0  0  0  0  0  0  0  0  0  0  0
    3.2765    0.8139   -1.4602 H   0  0  0  0  0  0  0  0  0  0  0  0
    2.7256   -0.7560   -0.9125 H   0  0  0  0  0  0  0  0  0  0  0  0
    4.6822   -0.9951    0.5856 H   0  0  0  0  0  0  0  0  0  0  0  0
    5.1032   -0.7861   -1.1050 H   0  0  0  0  0  0  0  0  0  0  0  0
    5.3267    1.8101   -0.4349 H   0  0  0  0  0  0  0  0  0  0  0  0
    6.6355    0.6484   -0.2663 H   0  0  0  0  0  0  0  0  0  0  0  0
    4.7904    1.4798    2.0254 H   0  0  0  0  0  0  0  0  0  0  0  0
    6.4601    1.9935    1.7631 H   0  0  0  0  0  0  0  0  0  0  0  0
    6.1059    0.2982    2.1248 H   0  0  0  0  0  0  0  0  0  0  0  0
    0.9147   -4.8797    2.3084 H   0  0  0  0  0  0  0  0  0  0  0  0
    1.8516   -3.3945    2.0951 H   0  0  0  0  0  0  0  0  0  0  0  0
    1.2191   -4.2550    0.6721 H   0  0  0  0  0  0  0  0  0  0  0  0
  1  2  1  0
  2  3  2  0
  3  4  1  0
  4  5  1  0
  5  6  1  0
  6  7  2  0
  7  8  1  0
  8  9  2  0
  9 10  1  0
  9 11  1  0
 11 12  2  0
  4 13  2  0
 13 14  1  0
 14 15  2  3
 15 16  1  0
 16 17  1  0
 17 18  1  0
 18 19  1  0
 19 20  1  0
 14 21  1  0
 21 22  2  0
 22 23  1  0
 23 24  1  0
 23  1  1  0
 22  3  1  0
 12  6  1  0
  1 25  1  0
  2 26  1  0
  5 27  1  0
  7 28  1  0
  8 29  1  0
 10 30  1  0
 11 31  1  0
 12 32  1  0
 16 33  1  0
 16 34  1  0
 17 35  1  0
 17 36  1  0
 18 37  1  0
 18 38  1  0
 19 39  1  0
 19 40  1  0
 20 41  1  0
 20 42  1  0
 20 43  1  0
 24 44  1  0
 24 45  1  0
 24 46  1  0
M  END
>  <ScrubInfo>  (7) 
{"isomerGroup": 0, "isomerId": 6, "confId": 0, "nr_conformers:": 1, "nr_isomers:": 9}

$$$$
_i7
     RDKit          3D

 46 48  0  0  0  0  0  0  0  0999 V2000
   -2.7323   -2.8389    0.2546 N   0  0  0  0  0  0  0  0  0  0  0  0
   -2.9501   -1.4823    0.0434 C   0  0  0  0  0  0  0  0  0  0  0  0
   -1.8205   -0.7761   -0.1081 C   0  0  0  0  0  0  0  0  0  0  0  0
   -1.3684    0.6125   -0.3099 C   0  0  0  0  0  0  0  0  0  0  0  0
   -2.0714    1.6957   -0.4684 N   0  0  0  0  0  0  0  0  0  0  0  0
   -3.4676    1.6476   -0.4695 C   0  0  0  0  0  0  0  0  0  0  0  0
   -4.1815    1.8139    0.7205 C   0  0  0  0  0  0  0  0  0  0  0  0
   -5.5770    1.7843    0.7141 C   0  0  0  0  0  0  0  0  0  0  0  0
   -6.2550    1.6082   -0.4868 C   0  0  0  0  0  0  0  0  0  0  0  0
   -7.6171    1.5864   -0.4486 O   0  0  0  0  0  0  0  0  0  0  0  0
   -5.5613    1.4658   -1.6844 C   0  0  0  0  0  0  0  0  0  0  0  0
   -4.1646    1.4927   -1.6723 C   0  0  0  0  0  0  0  0  0  0  0  0
   -0.0028    0.7248   -0.3228 N   0  0  0  0  0  0  0  0  0  0  0  0
    0.9162   -0.2849   -0.1859 C   0  0  0  0  0  0  0  0  0  0  0  0
    2.1955   -0.1553   -0.1710 N   0  0  0  0  0  0  0  0  0  0  0  0
    2.7835    1.1711   -0.3012 C   0  0  0  0  0  0  0  0  0  0  0  0
    4.3072    1.0534   -0.2297 C   0  0  0  0  0  0  0  0  0  0  0  0
    4.7939    0.6119    1.1547 C   0  0  0  0  0  0  0  0  0  0  0  0
    6.3181    0.6286    1.2928 C   0  0  0  0  0  0  0  0  0  0  0  0
    7.0189   -0.3862    0.4028 C   0  0  0  0  0  0  0  0  0  0  0  0
    0.5096   -1.5957   -0.0509 N   0  0  0  0  0  0  0  0  0  0  0  0
   -0.7619   -1.8411   -0.0263 C   0  0  0  0  0  0  0  0  0  0  0  0
   -1.3783   -3.0894    0.0883 N   0  0  0  0  0  0  0  0  0  0  0  0
   -0.7562   -4.1593    0.8452 C   0  0  0  0  0  0  0  0  0  0  0  0
   -3.3709   -3.4413   -0.2694 H   0  0  0  0  0  0  0  0  0  0  0  0
   -3.9700   -1.1275    0.0236 H   0  0  0  0  0  0  0  0  0  0  0  0
   -3.6478    1.9671    1.6543 H   0  0  0  0  0  0  0  0  0  0  0  0
   -6.1311    1.9075    1.6403 H   0  0  0  0  0  0  0  0  0  0  0  0
   -7.9545    1.5228   -1.3573 H   0  0  0  0  0  0  0  0  0  0  0  0
   -6.0819    1.3404   -2.6282 H   0  0  0  0  0  0  0  0  0  0  0  0
   -3.6123    1.3966   -2.6033 H   0  0  0  0  0  0  0  0  0  0  0  0
    0.3398    1.6637   -0.4415 H   0  0  0  0  0  0  0  0  0  0  0  0
    2.4291    1.8396    0.4924 H   0  0  0  0  0  0  0  0  0  0  0  0
    2.5153    1.6080   -1.2705 H   0  0  0  0  0  0  0  0  0  0  0  0
    4.6504    0.3454   -0.9928 H   0  0  0  0  0  0  0  0  0  0  0  0
    4.7445    2.0297   -0.4710 H   0  0  0  0  0  0  0  0  0  0  0  0
    4.3746    1.2849    1.9129 H   0  0  0  0  0  0  0  0  0  0  0  0
    4.4196   -0.3932    1.3829 H   0  0  0  0  0  0  0  0  0  0  0  0
    6.7020    1.6319    1.0749 H   0  0  0  0  0  0  0  0  0  0  0  0
    6.5741    0.4114    2.3367 H   0  0  0  0  0  0  0  0  0  0  0  0
    6.8941   -0.1447   -0.6567 H   0  0  0  0  0  0  0  0  0  0  0  0
    6.6320   -1.3952    0.5766 H   0  0  0  0  0  0  0  0  0  0  0  0
    8.0927   -0.3939    0.6160 H   0  0  0  0  0  0  0  0  0  0  0  0
    0.2522   -4.3619    0.4705 H   0  0  0  0  0  0  0  0  0  0  0  0
   -0.6907   -3.8977    1.9065 H   0  0  0  0  0  0  0  0  0  0  0  0
   -1.3387   -5.0814    0.7498 H   0  0  0  0  0  0  0  0  0  0  0  0
  1  2  1  0
  2  3  2  0
  3  4  1  0
  4  5  2  3
  5  6  1  0
  6  7  2  0
  7  8  1  0
  8  9  2  0
  9 10  1  0
  9 11  1  0
 11 12  2  0
  4 13  1  0
 13 14  1  0
 14 15  2  3
 15 16  1  0
 16 17  1  0
 17 18  1  0
 18 19  1  0
 19 20  1  0
 14 21  1  0
 21 22  2  0
 22 23  1  0
 23 24  1  0
 23  1  1  0
 22  3  1  0
 12  6  1  0
  1 25  1  0
  2 26  1  0
  7 27  1  0
  8 28  1  0
 10 29  1  0
 11 30  1  0
 12 31  1  0
 13 32  1  0
 16 33  1  0
 16 34  1  0
 17 35  1  0
 17 36  1  0
 18 37  1  0
 18 38  1  0
 19 39  1  0
 19 40  1  0
 20 41  1  0
 20 42  1  0
 20 43  1  0
 24 44  1  0
 24 45  1  0
 24 46  1  0
M  END
>  <ScrubInfo>  (8) 
{"isomerGroup": 0, "isomerId": 7, "confId": 0, "nr_conformers:": 1, "nr_isomers:": 9}

$$$$
_i8
     RDKit          3D

 46 48  0  0  0  0  0  0  0  0999 V2000
    0.1460    2.7640   -0.1418 N   0  0  0  0  0  0  0  0  0  0  0  0
    1.0421    1.7584    0.1587 C   0  0  0  0  0  0  0  0  0  0  0  0
    2.2893    2.0699    0.2624 N   0  0  0  0  0  0  0  0  0  0  0  0
    3.2714    1.0404    0.5960 C   0  0  0  0  0  0  0  0  0  0  0  0
    3.7495    0.3484   -0.6795 C   0  0  0  0  0  0  0  0  0  0  0  0
    4.8772   -0.6580   -0.4389 C   0  0  0  0  0  0  0  0  0  0  0  0
    4.4360   -1.8765    0.3731 C   0  0  0  0  0  0  0  0  0  0  0  0
    5.5555   -2.8996    0.4899 C   0  0  0  0  0  0  0  0  0  0  0  0
    0.4438    0.5214    0.3024 N   0  0  0  0  0  0  0  0  0  0  0  0
   -0.8769    0.1314    0.1939 C   0  0  0  0  0  0  0  0  0  0  0  0
   -1.2138   -1.1112    0.3714 N   0  0  0  0  0  0  0  0  0  0  0  0
   -2.5356   -1.5461    0.2711 C   0  0  0  0  0  0  0  0  0  0  0  0
   -3.0324   -2.0169   -0.9477 C   0  0  0  0  0  0  0  0  0  0  0  0
   -4.3451   -2.4825   -1.0403 C   0  0  0  0  0  0  0  0  0  0  0  0
   -5.1520   -2.4924    0.0917 C   0  0  0  0  0  0  0  0  0  0  0  0
   -6.4274   -2.9539   -0.0428 O   0  0  0  0  0  0  0  0  0  0  0  0
   -4.6665   -2.0511    1.3186 C   0  0  0  0  0  0  0  0  0  0  0  0
   -3.3521   -1.5857    1.4063 C   0  0  0  0  0  0  0  0  0  0  0  0
   -1.7349    1.2597   -0.1246 C   0  0  0  0  0  0  0  0  0  0  0  0
   -3.1037    1.4883   -0.3592 C   0  0  0  0  0  0  0  0  0  0  0  0
   -3.3799    2.7741   -0.6253 N   0  0  0  0  0  0  0  0  0  0  0  0
   -2.1751    3.3826   -0.5612 N   0  0  0  0  0  0  0  0  0  0  0  0
   -2.0878    4.7996   -0.8089 C   0  0  0  0  0  0  0  0  0  0  0  0
   -1.1730    2.5096   -0.2707 C   0  0  0  0  0  0  0  0  0  0  0  0
    0.5705    3.6769   -0.2564 H   0  0  0  0  0  0  0  0  0  0  0  0
    2.8794    0.3290    1.3300 H   0  0  0  0  0  0  0  0  0  0  0  0
    4.1206    1.5347    1.0823 H   0  0  0  0  0  0  0  0  0  0  0  0
    2.9101   -0.1526   -1.1765 H   0  0  0  0  0  0  0  0  0  0  0  0
    4.1097    1.1103   -1.3826 H   0  0  0  0  0  0  0  0  0  0  0  0
    5.2488   -0.9945   -1.4149 H   0  0  0  0  0  0  0  0  0  0  0  0
    5.7157   -0.1601    0.0631 H   0  0  0  0  0  0  0  0  0  0  0  0
    4.1323   -1.5741    1.3808 H   0  0  0  0  0  0  0  0  0  0  0  0
    3.5675   -2.3470   -0.1022 H   0  0  0  0  0  0  0  0  0  0  0  0
    6.4304   -2.4684    0.9869 H   0  0  0  0  0  0  0  0  0  0  0  0
    5.8630   -3.2597   -0.4970 H   0  0  0  0  0  0  0  0  0  0  0  0
    5.2216   -3.7613    1.0765 H   0  0  0  0  0  0  0  0  0  0  0  0
    1.0521   -0.2556    0.5039 H   0  0  0  0  0  0  0  0  0  0  0  0
   -2.3947   -2.0201   -1.8270 H   0  0  0  0  0  0  0  0  0  0  0  0
   -4.7331   -2.8405   -1.9895 H   0  0  0  0  0  0  0  0  0  0  0  0
   -6.8696   -2.9043    0.8205 H   0  0  0  0  0  0  0  0  0  0  0  0
   -5.2852   -2.0659    2.2100 H   0  0  0  0  0  0  0  0  0  0  0  0
   -2.9588   -1.2512    2.3625 H   0  0  0  0  0  0  0  0  0  0  0  0
   -3.9272    0.7876   -0.3546 H   0  0  0  0  0  0  0  0  0  0  0  0
   -2.0405    4.9533   -1.8896 H   0  0  0  0  0  0  0  0  0  0  0  0
   -2.9732    5.2877   -0.3929 H   0  0  0  0  0  0  0  0  0  0  0  0
   -1.1937    5.2020   -0.3279 H   0  0  0  0  0  0  0  0  0  0  0  0
  1  2  1  0
  2  3  2  3
  3  4  1  0
  4  5  1  0
  5  6  1  0
  6  7  1  0
  7  8  1  0
  2  9  1  0
  9 10  1  0
 10 11  2  3
 11 12  1  0
 12 13  2  0
 13 14  1  0
 14 15  2  0
 15 16  1  0
 15 17  1  0
 17 18  2  0
 10 19  1  0
 19 20  1  0
 20 21  2  0
 21 22  1  0
 22 23  1  0
 22 24  1  0
 24  1  1  0
 18 12  1  0
 24 19  2  0
  1 25  1  0
  4 26  1  0
  4 27  1  0
  5 28  1  0
  5 29  1  0
  6 30  1  0
  6 31  1  0
  7 32  1  0
  7 33  1  0
  8 34  1  0
  8 35  1  0
  8 36  1  0
  9 37  1  0
 13 38  1  0
 14 39  1  0
 16 40  1  0
 17 41  1  0
 18 42  1  0
 20 43  1  0
 23 44  1  0
 23 45  1  0
 23 46  1  0
M  END
>  <ScrubInfo>  (9) 
{"isomerGroup": 0, "isomerId": 8, "confId": 0, "nr_conformers:": 1, "nr_isomers:": 9}

$$$$
