REMARK SMILES CCCCCNc1nc(Nc2ccc(O)cc2)c2cnn(C)c2n1
REMARK SMILES IDX 6 1 5 3 4 4 3 5 2 6 1 7 7 8 8 9 24 10 9 11 23 12 18 13 21 14
REMARK SMILES IDX 19 15 20 16 22 17 10 18 11 20 12 21 17 22 13 23 16 24 14 25
REMARK SMILES IDX 15 26
REMARK H PARENT 6 2 10 19 15 27
ROOT
ATOM      1  N   UNL     1       0.807   1.349  -0.266  1.00  0.00    -0.354 N 
ATOM      2  H   UNL     1       0.361   1.559   0.621  1.00  0.00     0.163 HD
ENDROOT
BRANCH   1   3
ATOM      3  C   UNL     1       2.250   1.179  -0.209  1.00  0.00     0.116 C 
BRANCH   3   4
ATOM      4  C   UNL     1       2.872   2.407   0.456  1.00  0.00     0.021 C 
BRANCH   4   5
ATOM      5  C   UNL     1       4.402   2.447   0.402  1.00  0.00     0.002 C 
BRANCH   5   6
ATOM      6  C   UNL     1       5.101   1.315   1.161  1.00  0.00    -0.003 C 
ATOM      7  C   UNL     1       5.488   0.143   0.270  1.00  0.00     0.004 C 
ENDBRANCH   5   6
ENDBRANCH   4   5
ENDBRANCH   3   4
ENDBRANCH   1   3
BRANCH   1   8
ATOM      8  C   UNL     1       0.118   0.248  -0.764  1.00  0.00     0.226 A 
ATOM      9  N   UNL     1      -1.073   0.028  -0.179  1.00  0.00    -0.195 NA
ATOM     10  N   UNL     1       0.658  -0.494  -1.740  1.00  0.00    -0.193 NA
ATOM     11  C   UNL     1      -1.862  -1.011  -0.565  1.00  0.00     0.147 A 
ATOM     12  C   UNL     1      -0.128  -1.515  -2.108  1.00  0.00     0.165 A 
ATOM     13  C   UNL     1      -1.364  -1.835  -1.583  1.00  0.00     0.082 A 
ATOM     14  N   UNL     1       0.127  -2.450  -3.074  1.00  0.00    -0.250 N 
ATOM     15  C   UNL     1      -1.762  -2.982  -2.302  1.00  0.00     0.149 A 
ATOM     16  N   UNL     1      -0.859  -3.368  -3.210  1.00  0.00    -0.179 NA
ATOM     17  C   UNL     1       1.295  -2.533  -3.914  1.00  0.00     0.176 C 
BRANCH  11  18
ATOM     18  N   UNL     1      -3.099  -1.269   0.044  1.00  0.00    -0.339 N 
ATOM     19  H   UNL     1      -3.550  -2.109  -0.290  1.00  0.00     0.168 HD
BRANCH  18  20
ATOM     20  C   UNL     1      -3.867  -0.543   0.971  1.00  0.00     0.040 A 
ATOM     21  C   UNL     1      -3.569   0.762   1.380  1.00  0.00     0.030 A 
ATOM     22  C   UNL     1      -4.975  -1.175   1.563  1.00  0.00     0.030 A 
ATOM     23  C   UNL     1      -4.355   1.425   2.330  1.00  0.00     0.048 A 
ATOM     24  C   UNL     1      -5.763  -0.520   2.513  1.00  0.00     0.048 A 
ATOM     25  C   UNL     1      -5.448   0.777   2.888  1.00  0.00     0.115 A 
BRANCH  25  26
ATOM     26  O   UNL     1      -6.240   1.383   3.816  1.00  0.00    -0.508 OA
ATOM     27  H   UNL     1      -5.898   2.279   3.973  1.00  0.00     0.293 HD
ENDBRANCH  25  26
ENDBRANCH  18  20
ENDBRANCH  11  18
ENDBRANCH   1   8
TORSDOF 8
