_i0
     RDKit          3D

 45 47  0  0  0  0  0  0  0  0999 V2000
    5.4742    2.0697    1.5926 C   0  0  0  0  0  0  0  0  0  0  0  0
    4.9006    0.8665    2.3243 C   0  0  0  0  0  0  0  0  0  0  0  0
    4.4346   -0.2525    1.3899 C   0  0  0  0  0  0  0  0  0  0  0  0
    3.3371    0.1283    0.3916 C   0  0  0  0  0  0  0  0  0  0  0  0
    2.0483    0.6100    1.0618 C   0  0  0  0  0  0  0  0  0  0  0  0
    1.0175    0.8587    0.0675 N   0  0  0  0  0  0  0  0  0  0  0  0
    0.1337   -0.1856   -0.1740 C   0  0  0  0  0  0  0  0  0  0  0  0
   -1.1198    0.2051   -0.4708 N   0  0  0  0  0  0  0  0  0  0  0  0
   -2.0905   -0.7050   -0.7450 C   0  0  0  0  0  0  0  0  0  0  0  0
   -3.4016   -0.3179   -1.0527 N   0  0  0  0  0  0  0  0  0  0  0  0
   -4.0237    0.9379   -1.2112 C   0  0  0  0  0  0  0  0  0  0  0  0
   -3.3271    2.1522   -1.1716 C   0  0  0  0  0  0  0  0  0  0  0  0
   -3.9903    3.3790   -1.3178 C   0  0  0  0  0  0  0  0  0  0  0  0
   -3.0374    4.8202   -1.2520 Cl  0  0  0  0  0  0  0  0  0  0  0  0
   -5.3743    3.4091   -1.5087 C   0  0  0  0  0  0  0  0  0  0  0  0
   -6.2549    4.8834   -1.6949 Cl  0  0  0  0  0  0  0  0  0  0  0  0
   -6.0918    2.2153   -1.5546 C   0  0  0  0  0  0  0  0  0  0  0  0
   -5.4213    0.9988   -1.4067 C   0  0  0  0  0  0  0  0  0  0  0  0
   -6.3606   -0.4567   -1.4704 Cl  0  0  0  0  0  0  0  0  0  0  0  0
   -1.7230   -2.0553   -0.6907 C   0  0  0  0  0  0  0  0  0  0  0  0
   -2.3192   -3.3205   -0.8767 C   0  0  0  0  0  0  0  0  0  0  0  0
   -1.4644   -4.3322   -0.6898 N   0  0  0  0  0  0  0  0  0  0  0  0
   -0.3039   -3.7040   -0.3872 N   0  0  0  0  0  0  0  0  0  0  0  0
    0.8791   -4.4843   -0.1247 C   0  0  0  0  0  0  0  0  0  0  0  0
   -0.4111   -2.3405   -0.3695 C   0  0  0  0  0  0  0  0  0  0  0  0
    0.5552   -1.4534   -0.0987 N   0  0  0  0  0  0  0  0  0  0  0  0
    4.7078    2.5856    1.0069 H   0  0  0  0  0  0  0  0  0  0  0  0
    5.8804    2.7880    2.3119 H   0  0  0  0  0  0  0  0  0  0  0  0
    6.2834    1.7709    0.9188 H   0  0  0  0  0  0  0  0  0  0  0  0
    4.0793    1.1894    2.9733 H   0  0  0  0  0  0  0  0  0  0  0  0
    5.6750    0.4606    2.9867 H   0  0  0  0  0  0  0  0  0  0  0  0
    4.0808   -1.0913    2.0023 H   0  0  0  0  0  0  0  0  0  0  0  0
    5.2991   -0.6265    0.8270 H   0  0  0  0  0  0  0  0  0  0  0  0
    3.7041    0.8968   -0.2994 H   0  0  0  0  0  0  0  0  0  0  0  0
    3.1297   -0.7517   -0.2294 H   0  0  0  0  0  0  0  0  0  0  0  0
    2.2461    1.5602    1.5709 H   0  0  0  0  0  0  0  0  0  0  0  0
    1.7138   -0.0902    1.8379 H   0  0  0  0  0  0  0  0  0  0  0  0
    0.4369    1.6717    0.2443 H   0  0  0  0  0  0  0  0  0  0  0  0
   -4.0425   -1.0947   -1.1772 H   0  0  0  0  0  0  0  0  0  0  0  0
   -2.2502    2.1661   -1.0361 H   0  0  0  0  0  0  0  0  0  0  0  0
   -7.1685    2.2302   -1.7036 H   0  0  0  0  0  0  0  0  0  0  0  0
   -3.3428   -3.5519   -1.1410 H   0  0  0  0  0  0  0  0  0  0  0  0
    1.0998   -5.0830   -1.0120 H   0  0  0  0  0  0  0  0  0  0  0  0
    0.6803   -5.1314    0.7334 H   0  0  0  0  0  0  0  0  0  0  0  0
    1.7218   -3.8252    0.0959 H   0  0  0  0  0  0  0  0  0  0  0  0
  1  2  1  0
  2  3  1  0
  3  4  1  0
  4  5  1  0
  5  6  1  0
  6  7  1  0
  7  8  2  0
  8  9  1  0
  9 10  1  0
 10 11  1  0
 11 12  2  0
 12 13  1  0
 13 14  1  0
 13 15  2  0
 15 16  1  0
 15 17  1  0
 17 18  2  0
 18 19  1  0
  9 20  2  0
 20 21  1  0
 21 22  2  0
 22 23  1  0
 23 24  1  0
 23 25  1  0
 25 26  2  0
 26  7  1  0
 18 11  1  0
 25 20  1  0
  1 27  1  0
  1 28  1  0
  1 29  1  0
  2 30  1  0
  2 31  1  0
  3 32  1  0
  3 33  1  0
  4 34  1  0
  4 35  1  0
  5 36  1  0
  5 37  1  0
  6 38  1  0
 10 39  1  0
 12 40  1  0
 17 41  1  0
 21 42  1  0
 24 43  1  0
 24 44  1  0
 24 45  1  0
M  END
>  <ScrubInfo>  (1) 
{"isomerGroup": 0, "isomerId": 0, "confId": 0, "nr_conformers:": 1, "nr_isomers:": 9}

$$$$
_i1
     RDKit          3D

 45 47  0  0  0  0  0  0  0  0999 V2000
   -0.9036    0.4951   -1.0964 N   0  0  0  0  0  0  0  0  0  0  0  0
   -1.9993   -0.1779   -0.5995 C   0  0  0  0  0  0  0  0  0  0  0  0
   -3.2357   -0.0652   -1.2025 N   0  0  0  0  0  0  0  0  0  0  0  0
   -4.4361    0.4297   -0.6274 C   0  0  0  0  0  0  0  0  0  0  0  0
   -4.5368    0.8020    0.7213 C   0  0  0  0  0  0  0  0  0  0  0  0
   -5.7577    1.2239    1.2672 C   0  0  0  0  0  0  0  0  0  0  0  0
   -5.7750    1.6722    2.9360 Cl  0  0  0  0  0  0  0  0  0  0  0  0
   -6.9049    1.2700    0.4697 C   0  0  0  0  0  0  0  0  0  0  0  0
   -8.4388    1.7780    1.0790 Cl  0  0  0  0  0  0  0  0  0  0  0  0
   -6.8308    0.8966   -0.8714 C   0  0  0  0  0  0  0  0  0  0  0  0
   -5.6116    0.4776   -1.4089 C   0  0  0  0  0  0  0  0  0  0  0  0
   -5.5740    0.0302   -3.0811 Cl  0  0  0  0  0  0  0  0  0  0  0  0
   -1.7445   -0.9911    0.4329 C   0  0  0  0  0  0  0  0  0  0  0  0
   -2.4683   -1.9688    1.2522 C   0  0  0  0  0  0  0  0  0  0  0  0
   -1.7128   -2.5353    2.1590 N   0  0  0  0  0  0  0  0  0  0  0  0
   -0.4485   -1.9363    2.0217 N   0  0  0  0  0  0  0  0  0  0  0  0
    0.6906   -2.5653    2.6461 C   0  0  0  0  0  0  0  0  0  0  0  0
   -0.3656   -1.0437    0.9651 C   0  0  0  0  0  0  0  0  0  0  0  0
    0.6438   -0.3908    0.4982 N   0  0  0  0  0  0  0  0  0  0  0  0
    0.3641    0.4228   -0.5766 C   0  0  0  0  0  0  0  0  0  0  0  0
    1.2888    1.1372   -1.1261 N   0  0  0  0  0  0  0  0  0  0  0  0
    2.6437    1.0792   -0.5722 C   0  0  0  0  0  0  0  0  0  0  0  0
    3.4435   -0.0113   -1.2844 C   0  0  0  0  0  0  0  0  0  0  0  0
    4.8482   -0.2094   -0.7094 C   0  0  0  0  0  0  0  0  0  0  0  0
    5.7607    1.0020   -0.9036 C   0  0  0  0  0  0  0  0  0  0  0  0
    7.1732    0.7155   -0.4171 C   0  0  0  0  0  0  0  0  0  0  0  0
   -1.0266    1.1500   -1.8529 H   0  0  0  0  0  0  0  0  0  0  0  0
   -3.1816    0.1815   -2.1907 H   0  0  0  0  0  0  0  0  0  0  0  0
   -3.6621    0.7947    1.3666 H   0  0  0  0  0  0  0  0  0  0  0  0
   -7.7199    0.9292   -1.4969 H   0  0  0  0  0  0  0  0  0  0  0  0
   -3.5283   -2.1889    1.0722 H   0  0  0  0  0  0  0  0  0  0  0  0
    1.4936   -1.8403    2.8132 H   0  0  0  0  0  0  0  0  0  0  0  0
    1.0749   -3.3715    2.0135 H   0  0  0  0  0  0  0  0  0  0  0  0
    0.4153   -2.9880    3.6178 H   0  0  0  0  0  0  0  0  0  0  0  0
    2.6543    0.9369    0.5149 H   0  0  0  0  0  0  0  0  0  0  0  0
    3.1069    2.0560   -0.7493 H   0  0  0  0  0  0  0  0  0  0  0  0
    2.9066   -0.9652   -1.2102 H   0  0  0  0  0  0  0  0  0  0  0  0
    3.5094    0.2195   -2.3550 H   0  0  0  0  0  0  0  0  0  0  0  0
    4.7770   -0.4527    0.3578 H   0  0  0  0  0  0  0  0  0  0  0  0
    5.2992   -1.0802   -1.2015 H   0  0  0  0  0  0  0  0  0  0  0  0
    5.3701    1.8652   -0.3543 H   0  0  0  0  0  0  0  0  0  0  0  0
    5.7949    1.2771   -1.9640 H   0  0  0  0  0  0  0  0  0  0  0  0
    7.8091    1.5946   -0.5610 H   0  0  0  0  0  0  0  0  0  0  0  0
    7.6173   -0.1187   -0.9696 H   0  0  0  0  0  0  0  0  0  0  0  0
    7.1774    0.4636    0.6483 H   0  0  0  0  0  0  0  0  0  0  0  0
  1  2  1  0
  2  3  1  0
  3  4  1  0
  4  5  2  0
  5  6  1  0
  6  7  1  0
  6  8  2  0
  8  9  1  0
  8 10  1  0
 10 11  2  0
 11 12  1  0
  2 13  2  0
 13 14  1  0
 14 15  2  0
 15 16  1  0
 16 17  1  0
 16 18  1  0
 18 19  2  0
 19 20  1  0
 20 21  2  3
 21 22  1  0
 22 23  1  0
 23 24  1  0
 24 25  1  0
 25 26  1  0
 20  1  1  0
 11  4  1  0
 18 13  1  0
  1 27  1  0
  3 28  1  0
  5 29  1  0
 10 30  1  0
 14 31  1  0
 17 32  1  0
 17 33  1  0
 17 34  1  0
 22 35  1  0
 22 36  1  0
 23 37  1  0
 23 38  1  0
 24 39  1  0
 24 40  1  0
 25 41  1  0
 25 42  1  0
 26 43  1  0
 26 44  1  0
 26 45  1  0
M  END
>  <ScrubInfo>  (2) 
{"isomerGroup": 0, "isomerId": 1, "confId": 0, "nr_conformers:": 1, "nr_isomers:": 9}

$$$$
_i2
     RDKit          3D

 45 47  0  0  0  0  0  0  0  0999 V2000
   -0.6427    0.7435   -0.4593 N   0  0  0  0  0  0  0  0  0  0  0  0
    0.3951   -0.0334   -0.0025 C   0  0  0  0  0  0  0  0  0  0  0  0
    1.6121    0.3745   -0.4821 N   0  0  0  0  0  0  0  0  0  0  0  0
    2.8365   -0.2698   -0.0242 C   0  0  0  0  0  0  0  0  0  0  0  0
    4.0258    0.2612   -0.8252 C   0  0  0  0  0  0  0  0  0  0  0  0
    5.3324   -0.3993   -0.3814 C   0  0  0  0  0  0  0  0  0  0  0  0
    6.5401    0.0200   -1.2222 C   0  0  0  0  0  0  0  0  0  0  0  0
    6.8995    1.4908   -1.0781 C   0  0  0  0  0  0  0  0  0  0  0  0
    0.2360   -1.0583    0.7936 N   0  0  0  0  0  0  0  0  0  0  0  0
   -1.0721   -1.2438    1.1265 C   0  0  0  0  0  0  0  0  0  0  0  0
   -2.1795   -0.5150    0.7190 C   0  0  0  0  0  0  0  0  0  0  0  0
   -3.2610   -1.1438    1.3596 C   0  0  0  0  0  0  0  0  0  0  0  0
   -2.8863   -2.1836    2.1141 N   0  0  0  0  0  0  0  0  0  0  0  0
   -1.5437   -2.2228    1.9550 N   0  0  0  0  0  0  0  0  0  0  0  0
   -0.7810   -3.2398    2.6340 C   0  0  0  0  0  0  0  0  0  0  0  0
   -1.9834    0.5989   -0.1874 C   0  0  0  0  0  0  0  0  0  0  0  0
   -2.8725    1.3804   -0.7219 N   0  0  0  0  0  0  0  0  0  0  0  0
   -4.2399    1.2669   -0.4412 C   0  0  0  0  0  0  0  0  0  0  0  0
   -5.0417    0.5146   -1.3073 C   0  0  0  0  0  0  0  0  0  0  0  0
   -6.4205    0.4155   -1.0975 C   0  0  0  0  0  0  0  0  0  0  0  0
   -7.3339   -0.5435   -2.2062 Cl  0  0  0  0  0  0  0  0  0  0  0  0
   -7.0124    1.0841   -0.0197 C   0  0  0  0  0  0  0  0  0  0  0  0
   -8.7081    1.0045    0.2998 Cl  0  0  0  0  0  0  0  0  0  0  0  0
   -6.2262    1.8540    0.8405 C   0  0  0  0  0  0  0  0  0  0  0  0
   -4.8497    1.9517    0.6251 C   0  0  0  0  0  0  0  0  0  0  0  0
   -3.9215    2.9268    1.7085 Cl  0  0  0  0  0  0  0  0  0  0  0  0
   -0.4373    1.4305   -1.1654 H   0  0  0  0  0  0  0  0  0  0  0  0
    1.7076    1.3800   -0.5610 H   0  0  0  0  0  0  0  0  0  0  0  0
    2.9821   -0.0662    1.0431 H   0  0  0  0  0  0  0  0  0  0  0  0
    2.7604   -1.3552   -0.1585 H   0  0  0  0  0  0  0  0  0  0  0  0
    4.0898    1.3482   -0.6976 H   0  0  0  0  0  0  0  0  0  0  0  0
    3.8607    0.0764   -1.8940 H   0  0  0  0  0  0  0  0  0  0  0  0
    5.5224   -0.1711    0.6745 H   0  0  0  0  0  0  0  0  0  0  0  0
    5.2263   -1.4888   -0.4549 H   0  0  0  0  0  0  0  0  0  0  0  0
    6.3574   -0.2091   -2.2785 H   0  0  0  0  0  0  0  0  0  0  0  0
    7.4036   -0.5809   -0.9126 H   0  0  0  0  0  0  0  0  0  0  0  0
    7.0559    1.7563   -0.0278 H   0  0  0  0  0  0  0  0  0  0  0  0
    6.1173    2.1372   -1.4865 H   0  0  0  0  0  0  0  0  0  0  0  0
    7.8243    1.7061   -1.6231 H   0  0  0  0  0  0  0  0  0  0  0  0
   -4.3147   -0.9102    1.3238 H   0  0  0  0  0  0  0  0  0  0  0  0
   -0.9590   -3.1435    3.7082 H   0  0  0  0  0  0  0  0  0  0  0  0
   -1.1179   -4.2165    2.2774 H   0  0  0  0  0  0  0  0  0  0  0  0
    0.2836   -3.1162    2.4244 H   0  0  0  0  0  0  0  0  0  0  0  0
   -4.5796    0.0079   -2.1517 H   0  0  0  0  0  0  0  0  0  0  0  0
   -6.6844    2.3810    1.6741 H   0  0  0  0  0  0  0  0  0  0  0  0
  1  2  1  0
  2  3  1  0
  3  4  1  0
  4  5  1  0
  5  6  1  0
  6  7  1  0
  7  8  1  0
  2  9  2  0
  9 10  1  0
 10 11  2  0
 11 12  1  0
 12 13  2  0
 13 14  1  0
 14 15  1  0
 11 16  1  0
 16 17  2  3
 17 18  1  0
 18 19  2  0
 19 20  1  0
 20 21  1  0
 20 22  2  0
 22 23  1  0
 22 24  1  0
 24 25  2  0
 25 26  1  0
 16  1  1  0
 25 18  1  0
 14 10  1  0
  1 27  1  0
  3 28  1  0
  4 29  1  0
  4 30  1  0
  5 31  1  0
  5 32  1  0
  6 33  1  0
  6 34  1  0
  7 35  1  0
  7 36  1  0
  8 37  1  0
  8 38  1  0
  8 39  1  0
 12 40  1  0
 15 41  1  0
 15 42  1  0
 15 43  1  0
 19 44  1  0
 24 45  1  0
M  END
>  <ScrubInfo>  (3) 
{"isomerGroup": 0, "isomerId": 2, "confId": 0, "nr_conformers:": 1, "nr_isomers:": 9}

$$$$
_i3
     RDKit          3D

 45 47  0  0  0  0  0  0  0  0999 V2000
   -0.1265   -1.8841   -0.2454 N   0  0  0  0  0  0  0  0  0  0  0  0
    0.0204   -0.5127   -0.1289 C   0  0  0  0  0  0  0  0  0  0  0  0
   -0.9234    0.3596   -0.1656 N   0  0  0  0  0  0  0  0  0  0  0  0
   -2.2996   -0.0790   -0.3449 C   0  0  0  0  0  0  0  0  0  0  0  0
   -3.1981    1.1570   -0.3500 C   0  0  0  0  0  0  0  0  0  0  0  0
   -4.6679    0.7789   -0.5348 C   0  0  0  0  0  0  0  0  0  0  0  0
   -5.5641    2.0170   -0.5395 C   0  0  0  0  0  0  0  0  0  0  0  0
   -7.0269    1.6453   -0.7231 C   0  0  0  0  0  0  0  0  0  0  0  0
    1.2699    0.0580    0.0465 N   0  0  0  0  0  0  0  0  0  0  0  0
    2.3392   -0.6775    0.1066 C   0  0  0  0  0  0  0  0  0  0  0  0
    3.6354   -0.2603    0.2758 N   0  0  0  0  0  0  0  0  0  0  0  0
    4.1500    1.0479    0.4269 C   0  0  0  0  0  0  0  0  0  0  0  0
    3.3551    2.2023    0.4268 C   0  0  0  0  0  0  0  0  0  0  0  0
    3.9207    3.4772    0.5810 C   0  0  0  0  0  0  0  0  0  0  0  0
    2.8556    4.8390    0.5673 Cl  0  0  0  0  0  0  0  0  0  0  0  0
    5.3023    3.6173    0.7388 C   0  0  0  0  0  0  0  0  0  0  0  0
    6.0657    5.1546    0.9334 Cl  0  0  0  0  0  0  0  0  0  0  0  0
    6.1158    2.4860    0.7426 C   0  0  0  0  0  0  0  0  0  0  0  0
    5.5430    1.2217    0.5885 C   0  0  0  0  0  0  0  0  0  0  0  0
    6.5991   -0.1531    0.6002 Cl  0  0  0  0  0  0  0  0  0  0  0  0
    2.2204   -2.1189   -0.0120 C   0  0  0  0  0  0  0  0  0  0  0  0
    3.0689   -3.2390   -0.0037 C   0  0  0  0  0  0  0  0  0  0  0  0
    2.3990   -4.3906   -0.1599 N   0  0  0  0  0  0  0  0  0  0  0  0
    1.1053   -4.0025   -0.2696 N   0  0  0  0  0  0  0  0  0  0  0  0
    0.0865   -5.0049   -0.4521 C   0  0  0  0  0  0  0  0  0  0  0  0
    0.9725   -2.6532   -0.1846 C   0  0  0  0  0  0  0  0  0  0  0  0
   -1.0613   -2.2409   -0.3715 H   0  0  0  0  0  0  0  0  0  0  0  0
   -2.6013   -0.7440    0.4732 H   0  0  0  0  0  0  0  0  0  0  0  0
   -2.4124   -0.6140   -1.2954 H   0  0  0  0  0  0  0  0  0  0  0  0
   -3.0714    1.7065    0.5913 H   0  0  0  0  0  0  0  0  0  0  0  0
   -2.8849    1.8348   -1.1541 H   0  0  0  0  0  0  0  0  0  0  0  0
   -4.9780    0.1040    0.2723 H   0  0  0  0  0  0  0  0  0  0  0  0
   -4.7911    0.2326   -1.4779 H   0  0  0  0  0  0  0  0  0  0  0  0
   -5.2609    2.6933   -1.3472 H   0  0  0  0  0  0  0  0  0  0  0  0
   -5.4479    2.5646    0.4030 H   0  0  0  0  0  0  0  0  0  0  0  0
   -7.3709    0.9945    0.0871 H   0  0  0  0  0  0  0  0  0  0  0  0
   -7.6495    2.5454   -0.7234 H   0  0  0  0  0  0  0  0  0  0  0  0
   -7.1829    1.1238   -1.6728 H   0  0  0  0  0  0  0  0  0  0  0  0
    4.3649   -0.9635    0.3020 H   0  0  0  0  0  0  0  0  0  0  0  0
    2.2765    2.1377    0.3069 H   0  0  0  0  0  0  0  0  0  0  0  0
    7.1913    2.5872    0.8649 H   0  0  0  0  0  0  0  0  0  0  0  0
    4.1441   -3.2854    0.1077 H   0  0  0  0  0  0  0  0  0  0  0  0
   -0.8948   -4.5314   -0.5221 H   0  0  0  0  0  0  0  0  0  0  0  0
    0.3013   -5.5500   -1.3747 H   0  0  0  0  0  0  0  0  0  0  0  0
    0.1110   -5.6810    0.4063 H   0  0  0  0  0  0  0  0  0  0  0  0
  1  2  1  0
  2  3  2  3
  3  4  1  0
  4  5  1  0
  5  6  1  0
  6  7  1  0
  7  8  1  0
  2  9  1  0
  9 10  2  0
 10 11  1  0
 11 12  1  0
 12 13  2  0
 13 14  1  0
 14 15  1  0
 14 16  2  0
 16 17  1  0
 16 18  1  0
 18 19  2  0
 19 20  1  0
 10 21  1  0
 21 22  1  0
 22 23  2  0
 23 24  1  0
 24 25  1  0
 24 26  1  0
 26  1  1  0
 19 12  1  0
 26 21  2  0
  1 27  1  0
  4 28  1  0
  4 29  1  0
  5 30  1  0
  5 31  1  0
  6 32  1  0
  6 33  1  0
  7 34  1  0
  7 35  1  0
  8 36  1  0
  8 37  1  0
  8 38  1  0
 11 39  1  0
 13 40  1  0
 18 41  1  0
 22 42  1  0
 25 43  1  0
 25 44  1  0
 25 45  1  0
M  END
>  <ScrubInfo>  (4) 
{"isomerGroup": 0, "isomerId": 3, "confId": 0, "nr_conformers:": 1, "nr_isomers:": 9}

$$$$
_i4
     RDKit          3D

 45 47  0  0  0  0  0  0  0  0999 V2000
   -2.8273    2.6530    0.9996 N   0  0  0  0  0  0  0  0  0  0  0  0
   -3.0374    1.3279    0.6331 C   0  0  0  0  0  0  0  0  0  0  0  0
   -1.9291    0.7127    0.1925 C   0  0  0  0  0  0  0  0  0  0  0  0
   -1.5146   -0.5828   -0.3296 C   0  0  0  0  0  0  0  0  0  0  0  0
   -2.1688   -1.6893   -0.4582 N   0  0  0  0  0  0  0  0  0  0  0  0
   -3.5009   -1.8045   -0.0436 C   0  0  0  0  0  0  0  0  0  0  0  0
   -4.5054   -1.7084   -1.0137 C   0  0  0  0  0  0  0  0  0  0  0  0
   -5.8509   -1.8591   -0.6667 C   0  0  0  0  0  0  0  0  0  0  0  0
   -7.0273   -1.7027   -1.9215 Cl  0  0  0  0  0  0  0  0  0  0  0  0
   -6.2026   -2.1236    0.6617 C   0  0  0  0  0  0  0  0  0  0  0  0
   -7.8444   -2.3113    1.1648 Cl  0  0  0  0  0  0  0  0  0  0  0  0
   -5.2090   -2.2418    1.6361 C   0  0  0  0  0  0  0  0  0  0  0  0
   -3.8658   -2.0901    1.2839 C   0  0  0  0  0  0  0  0  0  0  0  0
   -2.6786   -2.2421    2.5300 Cl  0  0  0  0  0  0  0  0  0  0  0  0
   -0.2161   -0.6172   -0.7583 N   0  0  0  0  0  0  0  0  0  0  0  0
    0.6052    0.3795   -0.6364 C   0  0  0  0  0  0  0  0  0  0  0  0
    1.8927    0.2854   -1.0822 N   0  0  0  0  0  0  0  0  0  0  0  0
    2.5372   -0.9937   -1.2995 C   0  0  0  0  0  0  0  0  0  0  0  0
    3.9155   -0.8137   -1.9385 C   0  0  0  0  0  0  0  0  0  0  0  0
    4.9573   -0.0871   -1.0789 C   0  0  0  0  0  0  0  0  0  0  0  0
    5.2531   -0.7876    0.2474 C   0  0  0  0  0  0  0  0  0  0  0  0
    6.3873   -0.1029    0.9950 C   0  0  0  0  0  0  0  0  0  0  0  0
    0.3038    1.5872   -0.0676 N   0  0  0  0  0  0  0  0  0  0  0  0
   -0.9050    1.7650    0.3368 C   0  0  0  0  0  0  0  0  0  0  0  0
   -1.4635    2.8972    0.9320 N   0  0  0  0  0  0  0  0  0  0  0  0
   -1.0022    4.2272    0.5811 C   0  0  0  0  0  0  0  0  0  0  0  0
   -3.2870    2.9127    1.8758 H   0  0  0  0  0  0  0  0  0  0  0  0
   -4.0346    0.9282    0.7332 H   0  0  0  0  0  0  0  0  0  0  0  0
   -4.2230   -1.5216   -2.0479 H   0  0  0  0  0  0  0  0  0  0  0  0
   -5.4789   -2.4569    2.6674 H   0  0  0  0  0  0  0  0  0  0  0  0
    2.4692    1.0158   -0.6858 H   0  0  0  0  0  0  0  0  0  0  0  0
    2.6118   -1.5450   -0.3565 H   0  0  0  0  0  0  0  0  0  0  0  0
    1.9275   -1.5997   -1.9804 H   0  0  0  0  0  0  0  0  0  0  0  0
    3.8053   -0.2643   -2.8822 H   0  0  0  0  0  0  0  0  0  0  0  0
    4.3077   -1.8047   -2.1991 H   0  0  0  0  0  0  0  0  0  0  0  0
    5.8848   -0.0181   -1.6616 H   0  0  0  0  0  0  0  0  0  0  0  0
    4.6383    0.9441   -0.8893 H   0  0  0  0  0  0  0  0  0  0  0  0
    5.5228   -1.8342    0.0653 H   0  0  0  0  0  0  0  0  0  0  0  0
    4.3634   -0.7842    0.8861 H   0  0  0  0  0  0  0  0  0  0  0  0
    6.1375    0.9395    1.2169 H   0  0  0  0  0  0  0  0  0  0  0  0
    6.5801   -0.6154    1.9427 H   0  0  0  0  0  0  0  0  0  0  0  0
    7.3107   -0.1180    0.4072 H   0  0  0  0  0  0  0  0  0  0  0  0
    0.0775    4.3148    0.7392 H   0  0  0  0  0  0  0  0  0  0  0  0
   -1.2228    4.4518   -0.4677 H   0  0  0  0  0  0  0  0  0  0  0  0
   -1.4934    4.9781    1.2085 H   0  0  0  0  0  0  0  0  0  0  0  0
  1  2  1  0
  2  3  2  0
  3  4  1  0
  4  5  2  3
  5  6  1  0
  6  7  2  0
  7  8  1  0
  8  9  1  0
  8 10  2  0
 10 11  1  0
 10 12  1  0
 12 13  2  0
 13 14  1  0
  4 15  1  0
 15 16  2  0
 16 17  1  0
 17 18  1  0
 18 19  1  0
 19 20  1  0
 20 21  1  0
 21 22  1  0
 16 23  1  0
 23 24  2  0
 24 25  1  0
 25 26  1  0
 25  1  1  0
 24  3  1  0
 13  6  1  0
  1 27  1  0
  2 28  1  0
  7 29  1  0
 12 30  1  0
 17 31  1  0
 18 32  1  0
 18 33  1  0
 19 34  1  0
 19 35  1  0
 20 36  1  0
 20 37  1  0
 21 38  1  0
 21 39  1  0
 22 40  1  0
 22 41  1  0
 22 42  1  0
 26 43  1  0
 26 44  1  0
 26 45  1  0
M  END
>  <ScrubInfo>  (5) 
{"isomerGroup": 0, "isomerId": 4, "confId": 0, "nr_conformers:": 1, "nr_isomers:": 9}

$$$$
_i5
     RDKit          3D

 45 47  0  0  0  0  0  0  0  0999 V2000
   -0.0315   -1.1549    0.5694 N   0  0  0  0  0  0  0  0  0  0  0  0
    0.3601   -0.1897   -0.3308 C   0  0  0  0  0  0  0  0  0  0  0  0
   -0.6364    0.3410   -1.0966 N   0  0  0  0  0  0  0  0  0  0  0  0
   -1.9388    0.7336   -0.5827 C   0  0  0  0  0  0  0  0  0  0  0  0
   -3.0154   -0.1713   -1.1794 C   0  0  0  0  0  0  0  0  0  0  0  0
   -4.4375    0.2313   -0.7813 C   0  0  0  0  0  0  0  0  0  0  0  0
   -4.7247    0.0429    0.7089 C   0  0  0  0  0  0  0  0  0  0  0  0
   -6.1793    0.3454    1.0355 C   0  0  0  0  0  0  0  0  0  0  0  0
    1.5842    0.2312   -0.5090 N   0  0  0  0  0  0  0  0  0  0  0  0
    2.6032   -0.3162    0.2616 C   0  0  0  0  0  0  0  0  0  0  0  0
    3.8436    0.0495    0.1833 N   0  0  0  0  0  0  0  0  0  0  0  0
    4.1732    1.0368   -0.7617 C   0  0  0  0  0  0  0  0  0  0  0  0
    4.2575    2.3676   -0.3360 C   0  0  0  0  0  0  0  0  0  0  0  0
    4.5903    3.3841   -1.2352 C   0  0  0  0  0  0  0  0  0  0  0  0
    4.6544    5.0019   -0.6317 Cl  0  0  0  0  0  0  0  0  0  0  0  0
    4.8568    3.0722   -2.5733 C   0  0  0  0  0  0  0  0  0  0  0  0
    5.2714    4.2783   -3.7394 Cl  0  0  0  0  0  0  0  0  0  0  0  0
    4.7950    1.7462   -3.0067 C   0  0  0  0  0  0  0  0  0  0  0  0
    4.4595    0.7340   -2.1045 C   0  0  0  0  0  0  0  0  0  0  0  0
    4.4139   -0.8927   -2.6890 Cl  0  0  0  0  0  0  0  0  0  0  0  0
    2.2412   -1.3443    1.2014 C   0  0  0  0  0  0  0  0  0  0  0  0
    2.9205   -2.1577    2.1174 C   0  0  0  0  0  0  0  0  0  0  0  0
    2.0931   -2.9988    2.7604 N   0  0  0  0  0  0  0  0  0  0  0  0
    0.8736   -2.7178    2.2364 N   0  0  0  0  0  0  0  0  0  0  0  0
   -0.2751   -3.4510    2.7029 C   0  0  0  0  0  0  0  0  0  0  0  0
    0.9333   -1.7257    1.3106 C   0  0  0  0  0  0  0  0  0  0  0  0
   -0.9640   -1.5312    0.4739 H   0  0  0  0  0  0  0  0  0  0  0  0
   -0.2472    1.0370   -1.7291 H   0  0  0  0  0  0  0  0  0  0  0  0
   -2.1301    1.7741   -0.8699 H   0  0  0  0  0  0  0  0  0  0  0  0
   -1.9524    0.7003    0.5117 H   0  0  0  0  0  0  0  0  0  0  0  0
   -2.9420   -0.1394   -2.2743 H   0  0  0  0  0  0  0  0  0  0  0  0
   -2.8337   -1.2141   -0.8917 H   0  0  0  0  0  0  0  0  0  0  0  0
   -4.6188    1.2749   -1.0658 H   0  0  0  0  0  0  0  0  0  0  0  0
   -5.1404   -0.3802   -1.3608 H   0  0  0  0  0  0  0  0  0  0  0  0
   -4.0878    0.7032    1.3068 H   0  0  0  0  0  0  0  0  0  0  0  0
   -4.4968   -0.9874    1.0055 H   0  0  0  0  0  0  0  0  0  0  0  0
   -6.8519   -0.3219    0.4872 H   0  0  0  0  0  0  0  0  0  0  0  0
   -6.4326    1.3783    0.7763 H   0  0  0  0  0  0  0  0  0  0  0  0
   -6.3637    0.2084    2.1057 H   0  0  0  0  0  0  0  0  0  0  0  0
    4.0527    2.6017    0.7058 H   0  0  0  0  0  0  0  0  0  0  0  0
    5.0091    1.4993   -4.0434 H   0  0  0  0  0  0  0  0  0  0  0  0
    3.9791   -2.1799    2.3427 H   0  0  0  0  0  0  0  0  0  0  0  0
   -1.1819   -3.0557    2.2403 H   0  0  0  0  0  0  0  0  0  0  0  0
   -0.1457   -4.5014    2.4306 H   0  0  0  0  0  0  0  0  0  0  0  0
   -0.3378   -3.3420    3.7886 H   0  0  0  0  0  0  0  0  0  0  0  0
  1  2  1  0
  2  3  1  0
  3  4  1  0
  4  5  1  0
  5  6  1  0
  6  7  1  0
  7  8  1  0
  2  9  2  0
  9 10  1  0
 10 11  2  3
 11 12  1  0
 12 13  2  0
 13 14  1  0
 14 15  1  0
 14 16  2  0
 16 17  1  0
 16 18  1  0
 18 19  2  0
 19 20  1  0
 10 21  1  0
 21 22  1  0
 22 23  2  0
 23 24  1  0
 24 25  1  0
 24 26  1  0
 26  1  1  0
 19 12  1  0
 26 21  2  0
  1 27  1  0
  3 28  1  0
  4 29  1  0
  4 30  1  0
  5 31  1  0
  5 32  1  0
  6 33  1  0
  6 34  1  0
  7 35  1  0
  7 36  1  0
  8 37  1  0
  8 38  1  0
  8 39  1  0
 13 40  1  0
 18 41  1  0
 22 42  1  0
 25 43  1  0
 25 44  1  0
 25 45  1  0
M  END
>  <ScrubInfo>  (6) 
{"isomerGroup": 0, "isomerId": 5, "confId": 0, "nr_conformers:": 1, "nr_isomers:": 9}

$$$$
_i6
     RDKit          3D

 45 47  0  0  0  0  0  0  0  0999 V2000
   -2.3244   -4.4074    0.6839 N   0  0  0  0  0  0  0  0  0  0  0  0
   -2.9239   -3.1538    0.6312 C   0  0  0  0  0  0  0  0  0  0  0  0
   -2.0486   -2.1662    0.3958 C   0  0  0  0  0  0  0  0  0  0  0  0
   -2.0605   -0.7123    0.2074 C   0  0  0  0  0  0  0  0  0  0  0  0
   -3.2559   -0.0287    0.3093 N   0  0  0  0  0  0  0  0  0  0  0  0
   -3.5456    1.3488    0.1738 C   0  0  0  0  0  0  0  0  0  0  0  0
   -2.5819    2.3289   -0.0988 C   0  0  0  0  0  0  0  0  0  0  0  0
   -2.9313    3.6827   -0.2202 C   0  0  0  0  0  0  0  0  0  0  0  0
   -1.6686    4.8145   -0.5572 Cl  0  0  0  0  0  0  0  0  0  0  0  0
   -4.2626    4.0802   -0.0691 C   0  0  0  0  0  0  0  0  0  0  0  0
   -4.7638    5.7276   -0.2052 Cl  0  0  0  0  0  0  0  0  0  0  0  0
   -5.2415    3.1268    0.2029 C   0  0  0  0  0  0  0  0  0  0  0  0
   -4.8829    1.7823    0.3220 C   0  0  0  0  0  0  0  0  0  0  0  0
   -6.1398    0.6368    0.6624 Cl  0  0  0  0  0  0  0  0  0  0  0  0
   -0.9198   -0.1452   -0.0520 N   0  0  0  0  0  0  0  0  0  0  0  0
    0.2269   -0.8996   -0.1479 C   0  0  0  0  0  0  0  0  0  0  0  0
    1.2647   -0.2154   -0.4769 N   0  0  0  0  0  0  0  0  0  0  0  0
    2.5362   -0.9228   -0.5969 C   0  0  0  0  0  0  0  0  0  0  0  0
    3.6286    0.0786   -0.9764 C   0  0  0  0  0  0  0  0  0  0  0  0
    3.9194    1.0816    0.1441 C   0  0  0  0  0  0  0  0  0  0  0  0
    5.0426    2.0414   -0.2493 C   0  0  0  0  0  0  0  0  0  0  0  0
    5.3356    3.0400    0.8591 C   0  0  0  0  0  0  0  0  0  0  0  0
    0.3431   -2.2529    0.0722 N   0  0  0  0  0  0  0  0  0  0  0  0
   -0.7501   -2.8728    0.3484 C   0  0  0  0  0  0  0  0  0  0  0  0
   -0.9470   -4.2253    0.6274 N   0  0  0  0  0  0  0  0  0  0  0  0
   -0.1216   -5.2439    0.0062 C   0  0  0  0  0  0  0  0  0  0  0  0
   -2.6679   -4.9987    1.4449 H   0  0  0  0  0  0  0  0  0  0  0  0
   -3.9920   -3.0843    0.7766 H   0  0  0  0  0  0  0  0  0  0  0  0
   -4.0882   -0.5775    0.5020 H   0  0  0  0  0  0  0  0  0  0  0  0
   -1.5350    2.0651   -0.2235 H   0  0  0  0  0  0  0  0  0  0  0  0
   -6.2791    3.4285    0.3220 H   0  0  0  0  0  0  0  0  0  0  0  0
    2.4753   -1.6806   -1.3875 H   0  0  0  0  0  0  0  0  0  0  0  0
    2.8066   -1.4175    0.3439 H   0  0  0  0  0  0  0  0  0  0  0  0
    4.5455   -0.4763   -1.2094 H   0  0  0  0  0  0  0  0  0  0  0  0
    3.3366    0.6174   -1.8863 H   0  0  0  0  0  0  0  0  0  0  0  0
    3.0152    1.6568    0.3759 H   0  0  0  0  0  0  0  0  0  0  0  0
    4.2012    0.5412    1.0560 H   0  0  0  0  0  0  0  0  0  0  0  0
    4.7654    2.5857   -1.1596 H   0  0  0  0  0  0  0  0  0  0  0  0
    5.9545    1.4759   -0.4739 H   0  0  0  0  0  0  0  0  0  0  0  0
    6.1416    3.7160    0.5569 H   0  0  0  0  0  0  0  0  0  0  0  0
    5.6467    2.5286    1.7756 H   0  0  0  0  0  0  0  0  0  0  0  0
    4.4519    3.6450    1.0858 H   0  0  0  0  0  0  0  0  0  0  0  0
   -0.2844   -5.2693   -1.0763 H   0  0  0  0  0  0  0  0  0  0  0  0
    0.9387   -5.0499    0.1972 H   0  0  0  0  0  0  0  0  0  0  0  0
   -0.3604   -6.2301    0.4174 H   0  0  0  0  0  0  0  0  0  0  0  0
  1  2  1  0
  2  3  2  0
  3  4  1  0
  4  5  1  0
  5  6  1  0
  6  7  2  0
  7  8  1  0
  8  9  1  0
  8 10  2  0
 10 11  1  0
 10 12  1  0
 12 13  2  0
 13 14  1  0
  4 15  2  0
 15 16  1  0
 16 17  2  3
 17 18  1  0
 18 19  1  0
 19 20  1  0
 20 21  1  0
 21 22  1  0
 16 23  1  0
 23 24  2  0
 24 25  1  0
 25 26  1  0
 25  1  1  0
 24  3  1  0
 13  6  1  0
  1 27  1  0
  2 28  1  0
  5 29  1  0
  7 30  1  0
 12 31  1  0
 18 32  1  0
 18 33  1  0
 19 34  1  0
 19 35  1  0
 20 36  1  0
 20 37  1  0
 21 38  1  0
 21 39  1  0
 22 40  1  0
 22 41  1  0
 22 42  1  0
 26 43  1  0
 26 44  1  0
 26 45  1  0
M  END
>  <ScrubInfo>  (7) 
{"isomerGroup": 0, "isomerId": 6, "confId": 0, "nr_conformers:": 1, "nr_isomers:": 9}

$$$$
_i7
     RDKit          3D

 45 47  0  0  0  0  0  0  0  0999 V2000
   -2.7186    2.7932    0.7528 N   0  0  0  0  0  0  0  0  0  0  0  0
   -2.9078    1.4702    0.3714 C   0  0  0  0  0  0  0  0  0  0  0  0
   -1.7824    0.7413    0.3899 C   0  0  0  0  0  0  0  0  0  0  0  0
   -1.3142   -0.6356    0.1477 C   0  0  0  0  0  0  0  0  0  0  0  0
   -1.9841   -1.6779   -0.2504 N   0  0  0  0  0  0  0  0  0  0  0  0
   -3.3634   -1.6095   -0.4918 C   0  0  0  0  0  0  0  0  0  0  0  0
   -3.8024   -1.3768   -1.8000 C   0  0  0  0  0  0  0  0  0  0  0  0
   -5.1678   -1.3402   -2.0979 C   0  0  0  0  0  0  0  0  0  0  0  0
   -5.6236   -1.0232   -3.7334 Cl  0  0  0  0  0  0  0  0  0  0  0  0
   -6.1095   -1.5526   -1.0845 C   0  0  0  0  0  0  0  0  0  0  0  0
   -7.8108   -1.5124   -1.3797 Cl  0  0  0  0  0  0  0  0  0  0  0  0
   -5.6839   -1.8062    0.2212 C   0  0  0  0  0  0  0  0  0  0  0  0
   -4.3187   -1.8413    0.5137 C   0  0  0  0  0  0  0  0  0  0  0  0
   -3.8422   -2.1595    2.1437 Cl  0  0  0  0  0  0  0  0  0  0  0  0
    0.0254   -0.7881    0.3899 N   0  0  0  0  0  0  0  0  0  0  0  0
    0.9110    0.1728    0.8081 C   0  0  0  0  0  0  0  0  0  0  0  0
    2.1585    0.0087    1.0639 N   0  0  0  0  0  0  0  0  0  0  0  0
    2.7944   -1.2965    0.9550 C   0  0  0  0  0  0  0  0  0  0  0  0
    3.2661   -1.5605   -0.4751 C   0  0  0  0  0  0  0  0  0  0  0  0
    4.2477   -0.5245   -1.0353 C   0  0  0  0  0  0  0  0  0  0  0  0
    5.5620   -0.4473   -0.2580 C   0  0  0  0  0  0  0  0  0  0  0  0
    6.5451    0.5031   -0.9246 C   0  0  0  0  0  0  0  0  0  0  0  0
    0.5000    1.4770    0.9863 N   0  0  0  0  0  0  0  0  0  0  0  0
   -0.7471    1.7594    0.7837 C   0  0  0  0  0  0  0  0  0  0  0  0
   -1.3567    3.0110    0.8923 N   0  0  0  0  0  0  0  0  0  0  0  0
   -0.8872    3.9864    1.8584 C   0  0  0  0  0  0  0  0  0  0  0  0
   -3.2245    3.4672    0.1733 H   0  0  0  0  0  0  0  0  0  0  0  0
   -3.9069    1.1617    0.1066 H   0  0  0  0  0  0  0  0  0  0  0  0
   -3.0664   -1.2288   -2.5872 H   0  0  0  0  0  0  0  0  0  0  0  0
   -6.4129   -1.9800    1.0094 H   0  0  0  0  0  0  0  0  0  0  0  0
    0.3746   -1.7212    0.2485 H   0  0  0  0  0  0  0  0  0  0  0  0
    3.6455   -1.3238    1.6438 H   0  0  0  0  0  0  0  0  0  0  0  0
    2.1329   -2.1038    1.2902 H   0  0  0  0  0  0  0  0  0  0  0  0
    2.3969   -1.6005   -1.1427 H   0  0  0  0  0  0  0  0  0  0  0  0
    3.7322   -2.5526   -0.5131 H   0  0  0  0  0  0  0  0  0  0  0  0
    4.4636   -0.7919   -2.0774 H   0  0  0  0  0  0  0  0  0  0  0  0
    3.7742    0.4642   -1.0613 H   0  0  0  0  0  0  0  0  0  0  0  0
    6.0146   -1.4432   -0.1902 H   0  0  0  0  0  0  0  0  0  0  0  0
    5.3799   -0.1000    0.7646 H   0  0  0  0  0  0  0  0  0  0  0  0
    6.1331    1.5156   -0.9831 H   0  0  0  0  0  0  0  0  0  0  0  0
    7.4767    0.5476   -0.3518 H   0  0  0  0  0  0  0  0  0  0  0  0
    6.7863    0.1705   -1.9393 H   0  0  0  0  0  0  0  0  0  0  0  0
    0.1794    4.1882    1.7167 H   0  0  0  0  0  0  0  0  0  0  0  0
   -1.4245    4.9325    1.7358 H   0  0  0  0  0  0  0  0  0  0  0  0
   -1.0442    3.6274    2.8809 H   0  0  0  0  0  0  0  0  0  0  0  0
  1  2  1  0
  2  3  2  0
  3  4  1  0
  4  5  2  3
  5  6  1  0
  6  7  2  0
  7  8  1  0
  8  9  1  0
  8 10  2  0
 10 11  1  0
 10 12  1  0
 12 13  2  0
 13 14  1  0
  4 15  1  0
 15 16  1  0
 16 17  2  3
 17 18  1  0
 18 19  1  0
 19 20  1  0
 20 21  1  0
 21 22  1  0
 16 23  1  0
 23 24  2  0
 24 25  1  0
 25 26  1  0
 25  1  1  0
 24  3  1  0
 13  6  1  0
  1 27  1  0
  2 28  1  0
  7 29  1  0
 12 30  1  0
 15 31  1  0
 18 32  1  0
 18 33  1  0
 19 34  1  0
 19 35  1  0
 20 36  1  0
 20 37  1  0
 21 38  1  0
 21 39  1  0
 22 40  1  0
 22 41  1  0
 22 42  1  0
 26 43  1  0
 26 44  1  0
 26 45  1  0
M  END
>  <ScrubInfo>  (8) 
{"isomerGroup": 0, "isomerId": 7, "confId": 0, "nr_conformers:": 1, "nr_isomers:": 9}

$$$$
_i8
     RDKit          3D

 45 47  0  0  0  0  0  0  0  0999 V2000
   -0.2915   -1.3403   -1.0326 N   0  0  0  0  0  0  0  0  0  0  0  0
   -0.7605   -0.1237   -0.5822 C   0  0  0  0  0  0  0  0  0  0  0  0
   -2.0369    0.0451   -0.4986 N   0  0  0  0  0  0  0  0  0  0  0  0
   -2.5351    1.3309   -0.0181 C   0  0  0  0  0  0  0  0  0  0  0  0
   -4.0634    1.2975    0.0099 C   0  0  0  0  0  0  0  0  0  0  0  0
   -4.6090    0.3304    1.0649 C   0  0  0  0  0  0  0  0  0  0  0  0
   -6.1373    0.3510    1.0976 C   0  0  0  0  0  0  0  0  0  0  0  0
   -6.6851   -0.6068    2.1437 C   0  0  0  0  0  0  0  0  0  0  0  0
    0.2471    0.7706   -0.2755 N   0  0  0  0  0  0  0  0  0  0  0  0
    1.6211    0.6458   -0.3351 C   0  0  0  0  0  0  0  0  0  0  0  0
    2.3907    1.6317    0.0198 N   0  0  0  0  0  0  0  0  0  0  0  0
    3.7882    1.5412    0.0138 C   0  0  0  0  0  0  0  0  0  0  0  0
    4.4853    2.0342   -1.0951 C   0  0  0  0  0  0  0  0  0  0  0  0
    5.8830    2.0142   -1.1258 C   0  0  0  0  0  0  0  0  0  0  0  0
    6.6631    2.6280   -2.5392 Cl  0  0  0  0  0  0  0  0  0  0  0  0
    6.5981    1.5099   -0.0334 C   0  0  0  0  0  0  0  0  0  0  0  0
    8.3242    1.4522   -0.0047 Cl  0  0  0  0  0  0  0  0  0  0  0  0
    5.9148    1.0337    1.0878 C   0  0  0  0  0  0  0  0  0  0  0  0
    4.5186    1.0578    1.1143 C   0  0  0  0  0  0  0  0  0  0  0  0
    3.7194    0.4695    2.5290 Cl  0  0  0  0  0  0  0  0  0  0  0  0
    2.0112   -0.6645   -0.8274 C   0  0  0  0  0  0  0  0  0  0  0  0
    3.2035   -1.3503   -1.1230 C   0  0  0  0  0  0  0  0  0  0  0  0
    2.9931   -2.5930   -1.5801 N   0  0  0  0  0  0  0  0  0  0  0  0
    1.6473   -2.7160   -1.5721 N   0  0  0  0  0  0  0  0  0  0  0  0
    1.0486   -3.9508   -2.0127 C   0  0  0  0  0  0  0  0  0  0  0  0
    1.0314   -1.5813   -1.1430 C   0  0  0  0  0  0  0  0  0  0  0  0
   -1.0202   -2.0062   -1.2625 H   0  0  0  0  0  0  0  0  0  0  0  0
   -2.2175    2.1327   -0.6954 H   0  0  0  0  0  0  0  0  0  0  0  0
   -2.1532    1.5500    0.9860 H   0  0  0  0  0  0  0  0  0  0  0  0
   -4.4310    2.3083    0.2244 H   0  0  0  0  0  0  0  0  0  0  0  0
   -4.4457    1.0174   -0.9794 H   0  0  0  0  0  0  0  0  0  0  0  0
   -4.2172    0.6051    2.0518 H   0  0  0  0  0  0  0  0  0  0  0  0
   -4.2640   -0.6886    0.8528 H   0  0  0  0  0  0  0  0  0  0  0  0
   -6.5346    0.0746    0.1140 H   0  0  0  0  0  0  0  0  0  0  0  0
   -6.4918    1.3647    1.3179 H   0  0  0  0  0  0  0  0  0  0  0  0
   -6.3317   -0.3385    3.1445 H   0  0  0  0  0  0  0  0  0  0  0  0
   -6.3756   -1.6356    1.9340 H   0  0  0  0  0  0  0  0  0  0  0  0
   -7.7791   -0.5758    2.1501 H   0  0  0  0  0  0  0  0  0  0  0  0
   -0.0427    1.6709    0.0722 H   0  0  0  0  0  0  0  0  0  0  0  0
    3.9260    2.4392   -1.9357 H   0  0  0  0  0  0  0  0  0  0  0  0
    6.4678    0.6490    1.9416 H   0  0  0  0  0  0  0  0  0  0  0  0
    4.2282   -1.0193   -1.0389 H   0  0  0  0  0  0  0  0  0  0  0  0
    0.0607   -4.0610   -1.5600 H   0  0  0  0  0  0  0  0  0  0  0  0
    0.9674   -3.9195   -3.1018 H   0  0  0  0  0  0  0  0  0  0  0  0
    1.6842   -4.7842   -1.7016 H   0  0  0  0  0  0  0  0  0  0  0  0
  1  2  1  0
  2  3  2  3
  3  4  1  0
  4  5  1  0
  5  6  1  0
  6  7  1  0
  7  8  1  0
  2  9  1  0
  9 10  1  0
 10 11  2  3
 11 12  1  0
 12 13  2  0
 13 14  1  0
 14 15  1  0
 14 16  2  0
 16 17  1  0
 16 18  1  0
 18 19  2  0
 19 20  1  0
 10 21  1  0
 21 22  1  0
 22 23  2  0
 23 24  1  0
 24 25  1  0
 24 26  1  0
 26  1  1  0
 19 12  1  0
 26 21  2  0
  1 27  1  0
  4 28  1  0
  4 29  1  0
  5 30  1  0
  5 31  1  0
  6 32  1  0
  6 33  1  0
  7 34  1  0
  7 35  1  0
  8 36  1  0
  8 37  1  0
  8 38  1  0
  9 39  1  0
 13 40  1  0
 18 41  1  0
 22 42  1  0
 25 43  1  0
 25 44  1  0
 25 45  1  0
M  END
>  <ScrubInfo>  (9) 
{"isomerGroup": 0, "isomerId": 8, "confId": 0, "nr_conformers:": 1, "nr_isomers:": 9}

$$$$
