_i0
     RDKit          3D

 42 44  0  0  0  0  0  0  0  0999 V2000
    5.7269   -0.6924   -1.0170 C   0  0  0  0  0  0  0  0  0  0  0  0
    4.6861   -1.6628   -1.5537 C   0  0  0  0  0  0  0  0  0  0  0  0
    3.4805   -1.8390   -0.6285 C   0  0  0  0  0  0  0  0  0  0  0  0
    2.6429   -0.5671   -0.4725 C   0  0  0  0  0  0  0  0  0  0  0  0
    1.4714   -0.8661    0.3336 N   0  0  0  0  0  0  0  0  0  0  0  0
    0.5782    0.1923    0.4681 C   0  0  0  0  0  0  0  0  0  0  0  0
   -0.7162   -0.1735    0.4941 N   0  0  0  0  0  0  0  0  0  0  0  0
   -1.7025    0.7522    0.6268 C   0  0  0  0  0  0  0  0  0  0  0  0
   -3.0576    0.3984    0.6454 N   0  0  0  0  0  0  0  0  0  0  0  0
   -3.7331   -0.8387    0.6275 C   0  0  0  0  0  0  0  0  0  0  0  0
   -3.0758   -2.0718    0.7137 C   0  0  0  0  0  0  0  0  0  0  0  0
   -3.7831   -3.2798    0.6780 C   0  0  0  0  0  0  0  0  0  0  0  0
   -5.1686   -3.2801    0.5520 C   0  0  0  0  0  0  0  0  0  0  0  0
   -5.8511   -2.0709    0.4630 C   0  0  0  0  0  0  0  0  0  0  0  0
   -5.1394   -0.8667    0.5000 C   0  0  0  0  0  0  0  0  0  0  0  0
   -6.1393    0.7506    0.3734 Br  0  0  0  0  0  0  0  0  0  0  0  0
   -1.3006    2.0906    0.7238 C   0  0  0  0  0  0  0  0  0  0  0  0
   -1.8946    3.3629    0.8636 C   0  0  0  0  0  0  0  0  0  0  0  0
   -0.9985    4.3552    0.9067 N   0  0  0  0  0  0  0  0  0  0  0  0
    0.1850    3.7063    0.8006 N   0  0  0  0  0  0  0  0  0  0  0  0
    1.4125    4.4611    0.8204 C   0  0  0  0  0  0  0  0  0  0  0  0
    0.0549    2.3497    0.6822 C   0  0  0  0  0  0  0  0  0  0  0  0
    1.0370    1.4476    0.5525 N   0  0  0  0  0  0  0  0  0  0  0  0
    6.6047   -0.6839   -1.6712 H   0  0  0  0  0  0  0  0  0  0  0  0
    5.3382    0.3291   -0.9727 H   0  0  0  0  0  0  0  0  0  0  0  0
    6.0550   -0.9828   -0.0139 H   0  0  0  0  0  0  0  0  0  0  0  0
    5.1618   -2.6408   -1.6938 H   0  0  0  0  0  0  0  0  0  0  0  0
    4.3518   -1.3288   -2.5428 H   0  0  0  0  0  0  0  0  0  0  0  0
    3.8168   -2.1846    0.3572 H   0  0  0  0  0  0  0  0  0  0  0  0
    2.8491   -2.6392   -1.0359 H   0  0  0  0  0  0  0  0  0  0  0  0
    3.2460    0.2085    0.0129 H   0  0  0  0  0  0  0  0  0  0  0  0
    2.3426   -0.2040   -1.4634 H   0  0  0  0  0  0  0  0  0  0  0  0
    0.9091   -1.6461    0.0087 H   0  0  0  0  0  0  0  0  0  0  0  0
   -3.6919    1.1878    0.6704 H   0  0  0  0  0  0  0  0  0  0  0  0
   -1.9974   -2.1224    0.8250 H   0  0  0  0  0  0  0  0  0  0  0  0
   -3.2428   -4.2206    0.7521 H   0  0  0  0  0  0  0  0  0  0  0  0
   -5.7141   -4.2197    0.5249 H   0  0  0  0  0  0  0  0  0  0  0  0
   -6.9334   -2.0741    0.3651 H   0  0  0  0  0  0  0  0  0  0  0  0
   -2.9452    3.6119    0.9363 H   0  0  0  0  0  0  0  0  0  0  0  0
    1.4674    5.0030    1.7680 H   0  0  0  0  0  0  0  0  0  0  0  0
    1.3994    5.1603   -0.0195 H   0  0  0  0  0  0  0  0  0  0  0  0
    2.2681    3.7884    0.7288 H   0  0  0  0  0  0  0  0  0  0  0  0
  1  2  1  0
  2  3  1  0
  3  4  1  0
  4  5  1  0
  5  6  1  0
  6  7  2  0
  7  8  1  0
  8  9  1  0
  9 10  1  0
 10 11  2  0
 11 12  1  0
 12 13  2  0
 13 14  1  0
 14 15  2  0
 15 16  1  0
  8 17  2  0
 17 18  1  0
 18 19  2  0
 19 20  1  0
 20 21  1  0
 20 22  1  0
 22 23  2  0
 23  6  1  0
 15 10  1  0
 22 17  1  0
  1 24  1  0
  1 25  1  0
  1 26  1  0
  2 27  1  0
  2 28  1  0
  3 29  1  0
  3 30  1  0
  4 31  1  0
  4 32  1  0
  5 33  1  0
  9 34  1  0
 11 35  1  0
 12 36  1  0
 13 37  1  0
 14 38  1  0
 18 39  1  0
 21 40  1  0
 21 41  1  0
 21 42  1  0
M  END
>  <ScrubInfo>  (1) 
{"isomerGroup": 0, "isomerId": 0, "confId": 0, "nr_conformers:": 1, "nr_isomers:": 9}

$$$$
_i1
     RDKit          3D

 42 44  0  0  0  0  0  0  0  0999 V2000
   -0.2909   -0.4424    0.3186 N   0  0  0  0  0  0  0  0  0  0  0  0
   -1.4340   -0.9598   -0.2675 C   0  0  0  0  0  0  0  0  0  0  0  0
   -2.6595   -0.3274   -0.1986 N   0  0  0  0  0  0  0  0  0  0  0  0
   -2.9697    1.0419   -0.0501 C   0  0  0  0  0  0  0  0  0  0  0  0
   -2.0395    2.0580   -0.3154 C   0  0  0  0  0  0  0  0  0  0  0  0
   -2.3572    3.4045   -0.1082 C   0  0  0  0  0  0  0  0  0  0  0  0
   -3.6126    3.7623    0.3746 C   0  0  0  0  0  0  0  0  0  0  0  0
   -4.5564    2.7749    0.6449 C   0  0  0  0  0  0  0  0  0  0  0  0
   -4.2362    1.4297    0.4351 C   0  0  0  0  0  0  0  0  0  0  0  0
   -5.5723    0.1310    0.8250 Br  0  0  0  0  0  0  0  0  0  0  0  0
   -1.2788   -2.1540   -0.8514 C   0  0  0  0  0  0  0  0  0  0  0  0
   -2.1054   -3.1380   -1.5590 C   0  0  0  0  0  0  0  0  0  0  0  0
   -1.4330   -4.1915   -1.9470 N   0  0  0  0  0  0  0  0  0  0  0  0
   -0.1041   -3.9454   -1.5636 N   0  0  0  0  0  0  0  0  0  0  0  0
    0.8402   -5.0366   -1.5659 C   0  0  0  0  0  0  0  0  0  0  0  0
    0.0648   -2.7698   -0.8495 C   0  0  0  0  0  0  0  0  0  0  0  0
    1.1121   -2.2811   -0.2811 N   0  0  0  0  0  0  0  0  0  0  0  0
    0.9302   -1.0778    0.3639 C   0  0  0  0  0  0  0  0  0  0  0  0
    1.9813   -0.6640    0.9771 N   0  0  0  0  0  0  0  0  0  0  0  0
    1.9348    0.6043    1.6911 C   0  0  0  0  0  0  0  0  0  0  0  0
    3.3293    0.9317    2.2273 C   0  0  0  0  0  0  0  0  0  0  0  0
    4.4042    1.1154    1.1512 C   0  0  0  0  0  0  0  0  0  0  0  0
    4.1269    2.2733    0.2050 C   0  0  0  0  0  0  0  0  0  0  0  0
   -0.4433    0.3403    0.9342 H   0  0  0  0  0  0  0  0  0  0  0  0
   -3.4782   -0.8982   -0.3932 H   0  0  0  0  0  0  0  0  0  0  0  0
   -1.0624    1.8251   -0.7315 H   0  0  0  0  0  0  0  0  0  0  0  0
   -1.6229    4.1747   -0.3343 H   0  0  0  0  0  0  0  0  0  0  0  0
   -3.8579    4.8096    0.5337 H   0  0  0  0  0  0  0  0  0  0  0  0
   -5.5362    3.0610    1.0188 H   0  0  0  0  0  0  0  0  0  0  0  0
   -3.1799   -2.9746   -1.7100 H   0  0  0  0  0  0  0  0  0  0  0  0
    0.6478   -5.7137   -2.4044 H   0  0  0  0  0  0  0  0  0  0  0  0
    1.8653   -4.6658   -1.6655 H   0  0  0  0  0  0  0  0  0  0  0  0
    0.7645   -5.6077   -0.6353 H   0  0  0  0  0  0  0  0  0  0  0  0
    1.2486    0.5266    2.5431 H   0  0  0  0  0  0  0  0  0  0  0  0
    1.5814    1.4157    1.0452 H   0  0  0  0  0  0  0  0  0  0  0  0
    3.6514    0.1274    2.9008 H   0  0  0  0  0  0  0  0  0  0  0  0
    3.2687    1.8439    2.8333 H   0  0  0  0  0  0  0  0  0  0  0  0
    5.3636    1.2965    1.6508 H   0  0  0  0  0  0  0  0  0  0  0  0
    4.5237    0.1929    0.5718 H   0  0  0  0  0  0  0  0  0  0  0  0
    3.9678    3.2042    0.7583 H   0  0  0  0  0  0  0  0  0  0  0  0
    3.2459    2.0825   -0.4148 H   0  0  0  0  0  0  0  0  0  0  0  0
    4.9781    2.4202   -0.4676 H   0  0  0  0  0  0  0  0  0  0  0  0
  1  2  1  0
  2  3  1  0
  3  4  1  0
  4  5  2  0
  5  6  1  0
  6  7  2  0
  7  8  1  0
  8  9  2  0
  9 10  1  0
  2 11  2  0
 11 12  1  0
 12 13  2  0
 13 14  1  0
 14 15  1  0
 14 16  1  0
 16 17  2  0
 17 18  1  0
 18 19  2  3
 19 20  1  0
 20 21  1  0
 21 22  1  0
 22 23  1  0
 18  1  1  0
  9  4  1  0
 16 11  1  0
  1 24  1  0
  3 25  1  0
  5 26  1  0
  6 27  1  0
  7 28  1  0
  8 29  1  0
 12 30  1  0
 15 31  1  0
 15 32  1  0
 15 33  1  0
 20 34  1  0
 20 35  1  0
 21 36  1  0
 21 37  1  0
 22 38  1  0
 22 39  1  0
 23 40  1  0
 23 41  1  0
 23 42  1  0
M  END
>  <ScrubInfo>  (2) 
{"isomerGroup": 0, "isomerId": 1, "confId": 0, "nr_conformers:": 1, "nr_isomers:": 9}

$$$$
_i2
     RDKit          3D

 42 44  0  0  0  0  0  0  0  0999 V2000
   -0.7754   -0.2554    0.2473 N   0  0  0  0  0  0  0  0  0  0  0  0
    0.4924   -0.7964    0.3010 C   0  0  0  0  0  0  0  0  0  0  0  0
    1.4661    0.1654    0.3772 N   0  0  0  0  0  0  0  0  0  0  0  0
    2.8661   -0.2140    0.5172 C   0  0  0  0  0  0  0  0  0  0  0  0
    3.7673    1.0171    0.4138 C   0  0  0  0  0  0  0  0  0  0  0  0
    3.7533    1.6395   -0.9846 C   0  0  0  0  0  0  0  0  0  0  0  0
    4.6942    2.8311   -1.0711 C   0  0  0  0  0  0  0  0  0  0  0  0
    0.7442   -2.0807    0.2743 N   0  0  0  0  0  0  0  0  0  0  0  0
   -0.4001   -2.8160    0.1970 C   0  0  0  0  0  0  0  0  0  0  0  0
   -1.7019   -2.3609    0.1332 C   0  0  0  0  0  0  0  0  0  0  0  0
   -2.4954   -3.5137    0.0630 C   0  0  0  0  0  0  0  0  0  0  0  0
   -1.7627   -4.6353    0.0884 N   0  0  0  0  0  0  0  0  0  0  0  0
   -0.4865   -4.1800    0.1621 N   0  0  0  0  0  0  0  0  0  0  0  0
    0.5997   -5.1261    0.1951 C   0  0  0  0  0  0  0  0  0  0  0  0
   -1.9651   -0.9453    0.1382 C   0  0  0  0  0  0  0  0  0  0  0  0
   -3.1875   -0.5417    0.0397 N   0  0  0  0  0  0  0  0  0  0  0  0
   -3.4305    0.8424    0.0416 C   0  0  0  0  0  0  0  0  0  0  0  0
   -3.7713    1.4553    1.2535 C   0  0  0  0  0  0  0  0  0  0  0  0
   -4.0264    2.8268    1.3158 C   0  0  0  0  0  0  0  0  0  0  0  0
   -3.9531    3.6016    0.1602 C   0  0  0  0  0  0  0  0  0  0  0  0
   -3.6310    3.0052   -1.0590 C   0  0  0  0  0  0  0  0  0  0  0  0
   -3.3766    1.6313   -1.1197 C   0  0  0  0  0  0  0  0  0  0  0  0
   -2.9438    0.8804   -2.8094 Br  0  0  0  0  0  0  0  0  0  0  0  0
   -0.8309    0.7380    0.1012 H   0  0  0  0  0  0  0  0  0  0  0  0
    1.2183    0.9583    0.9568 H   0  0  0  0  0  0  0  0  0  0  0  0
    3.1456   -0.9412   -0.2542 H   0  0  0  0  0  0  0  0  0  0  0  0
    3.0149   -0.6856    1.4954 H   0  0  0  0  0  0  0  0  0  0  0  0
    3.4621    1.7669    1.1542 H   0  0  0  0  0  0  0  0  0  0  0  0
    4.7930    0.7190    0.6635 H   0  0  0  0  0  0  0  0  0  0  0  0
    4.0525    0.8911   -1.7276 H   0  0  0  0  0  0  0  0  0  0  0  0
    2.7404    1.9677   -1.2441 H   0  0  0  0  0  0  0  0  0  0  0  0
    4.6700    3.2607   -2.0775 H   0  0  0  0  0  0  0  0  0  0  0  0
    4.4040    3.6121   -0.3611 H   0  0  0  0  0  0  0  0  0  0  0  0
    5.7250    2.5339   -0.8535 H   0  0  0  0  0  0  0  0  0  0  0  0
   -3.5732   -3.5853   -0.0050 H   0  0  0  0  0  0  0  0  0  0  0  0
    0.4787   -5.7572    1.0791 H   0  0  0  0  0  0  0  0  0  0  0  0
    0.5568   -5.7307   -0.7145 H   0  0  0  0  0  0  0  0  0  0  0  0
    1.5556   -4.6001    0.2441 H   0  0  0  0  0  0  0  0  0  0  0  0
   -3.8460    0.8518    2.1554 H   0  0  0  0  0  0  0  0  0  0  0  0
   -4.2937    3.2860    2.2647 H   0  0  0  0  0  0  0  0  0  0  0  0
   -4.1598    4.6684    0.2060 H   0  0  0  0  0  0  0  0  0  0  0  0
   -3.5896    3.6160   -1.9576 H   0  0  0  0  0  0  0  0  0  0  0  0
  1  2  1  0
  2  3  1  0
  3  4  1  0
  4  5  1  0
  5  6  1  0
  6  7  1  0
  2  8  2  0
  8  9  1  0
  9 10  2  0
 10 11  1  0
 11 12  2  0
 12 13  1  0
 13 14  1  0
 10 15  1  0
 15 16  2  3
 16 17  1  0
 17 18  2  0
 18 19  1  0
 19 20  2  0
 20 21  1  0
 21 22  2  0
 22 23  1  0
 15  1  1  0
 22 17  1  0
 13  9  1  0
  1 24  1  0
  3 25  1  0
  4 26  1  0
  4 27  1  0
  5 28  1  0
  5 29  1  0
  6 30  1  0
  6 31  1  0
  7 32  1  0
  7 33  1  0
  7 34  1  0
 11 35  1  0
 14 36  1  0
 14 37  1  0
 14 38  1  0
 18 39  1  0
 19 40  1  0
 20 41  1  0
 21 42  1  0
M  END
>  <ScrubInfo>  (3) 
{"isomerGroup": 0, "isomerId": 2, "confId": 0, "nr_conformers:": 1, "nr_isomers:": 9}

$$$$
_i3
     RDKit          3D

 42 44  0  0  0  0  0  0  0  0999 V2000
    0.9275   -1.4191   -0.2522 N   0  0  0  0  0  0  0  0  0  0  0  0
    0.4295   -0.1304   -0.1385 C   0  0  0  0  0  0  0  0  0  0  0  0
    1.1034    0.9558   -0.2830 N   0  0  0  0  0  0  0  0  0  0  0  0
    2.5251    0.8862   -0.5894 C   0  0  0  0  0  0  0  0  0  0  0  0
    3.0558    2.3148   -0.7110 C   0  0  0  0  0  0  0  0  0  0  0  0
    4.5194    2.3848   -1.1494 C   0  0  0  0  0  0  0  0  0  0  0  0
    5.4859    1.7964   -0.1333 C   0  0  0  0  0  0  0  0  0  0  0  0
   -0.9067    0.0956    0.1495 N   0  0  0  0  0  0  0  0  0  0  0  0
   -1.7208   -0.9015    0.3371 C   0  0  0  0  0  0  0  0  0  0  0  0
   -3.0697   -0.8402    0.6173 N   0  0  0  0  0  0  0  0  0  0  0  0
   -3.7600    0.3918    0.7001 C   0  0  0  0  0  0  0  0  0  0  0  0
   -4.6809    0.7140   -0.3118 C   0  0  0  0  0  0  0  0  0  0  0  0
   -5.3401    1.9460   -0.3196 C   0  0  0  0  0  0  0  0  0  0  0  0
   -5.0837    2.8801    0.6800 C   0  0  0  0  0  0  0  0  0  0  0  0
   -4.1713    2.5823    1.6910 C   0  0  0  0  0  0  0  0  0  0  0  0
   -3.5100    1.3486    1.7017 C   0  0  0  0  0  0  0  0  0  0  0  0
   -2.3640    0.9906    3.1790 Br  0  0  0  0  0  0  0  0  0  0  0  0
   -1.2303   -2.2600    0.2430 C   0  0  0  0  0  0  0  0  0  0  0  0
   -1.7363   -3.5597    0.4014 C   0  0  0  0  0  0  0  0  0  0  0  0
   -0.8040   -4.5004    0.1863 N   0  0  0  0  0  0  0  0  0  0  0  0
    0.3188   -3.7892   -0.0839 N   0  0  0  0  0  0  0  0  0  0  0  0
    1.5477   -4.4932   -0.3480 C   0  0  0  0  0  0  0  0  0  0  0  0
    0.0903   -2.4505   -0.0551 C   0  0  0  0  0  0  0  0  0  0  0  0
    1.9114   -1.5183   -0.4474 H   0  0  0  0  0  0  0  0  0  0  0  0
    2.6884    0.3565   -1.5353 H   0  0  0  0  0  0  0  0  0  0  0  0
    3.0574    0.3594    0.2101 H   0  0  0  0  0  0  0  0  0  0  0  0
    2.4485    2.8615   -1.4439 H   0  0  0  0  0  0  0  0  0  0  0  0
    2.9286    2.8389    0.2446 H   0  0  0  0  0  0  0  0  0  0  0  0
    4.7831    3.4366   -1.3126 H   0  0  0  0  0  0  0  0  0  0  0  0
    4.6458    1.8739   -2.1111 H   0  0  0  0  0  0  0  0  0  0  0  0
    6.5183    1.9617   -0.4578 H   0  0  0  0  0  0  0  0  0  0  0  0
    5.3433    0.7176   -0.0218 H   0  0  0  0  0  0  0  0  0  0  0  0
    5.3598    2.2663    0.8472 H   0  0  0  0  0  0  0  0  0  0  0  0
   -3.6251   -1.5655    0.1832 H   0  0  0  0  0  0  0  0  0  0  0  0
   -4.8765    0.0144   -1.1206 H   0  0  0  0  0  0  0  0  0  0  0  0
   -6.0431    2.1811   -1.1149 H   0  0  0  0  0  0  0  0  0  0  0  0
   -5.5905    3.8418    0.6718 H   0  0  0  0  0  0  0  0  0  0  0  0
   -3.9813    3.3162    2.4702 H   0  0  0  0  0  0  0  0  0  0  0  0
   -2.7370   -3.8758    0.6646 H   0  0  0  0  0  0  0  0  0  0  0  0
    1.3830   -5.1718   -1.1888 H   0  0  0  0  0  0  0  0  0  0  0  0
    1.8215   -5.0546    0.5488 H   0  0  0  0  0  0  0  0  0  0  0  0
    2.3385   -3.7827   -0.5973 H   0  0  0  0  0  0  0  0  0  0  0  0
  1  2  1  0
  2  3  2  3
  3  4  1  0
  4  5  1  0
  5  6  1  0
  6  7  1  0
  2  8  1  0
  8  9  2  0
  9 10  1  0
 10 11  1  0
 11 12  2  0
 12 13  1  0
 13 14  2  0
 14 15  1  0
 15 16  2  0
 16 17  1  0
  9 18  1  0
 18 19  1  0
 19 20  2  0
 20 21  1  0
 21 22  1  0
 21 23  1  0
 23  1  1  0
 16 11  1  0
 23 18  2  0
  1 24  1  0
  4 25  1  0
  4 26  1  0
  5 27  1  0
  5 28  1  0
  6 29  1  0
  6 30  1  0
  7 31  1  0
  7 32  1  0
  7 33  1  0
 10 34  1  0
 12 35  1  0
 13 36  1  0
 14 37  1  0
 15 38  1  0
 19 39  1  0
 22 40  1  0
 22 41  1  0
 22 42  1  0
M  END
>  <ScrubInfo>  (4) 
{"isomerGroup": 0, "isomerId": 3, "confId": 0, "nr_conformers:": 1, "nr_isomers:": 9}

$$$$
_i4
     RDKit          3D

 42 44  0  0  0  0  0  0  0  0999 V2000
   -2.3360    2.4510    0.8593 N   0  0  0  0  0  0  0  0  0  0  0  0
   -2.4924    1.1719    0.3360 C   0  0  0  0  0  0  0  0  0  0  0  0
   -1.3367    0.5998   -0.0354 C   0  0  0  0  0  0  0  0  0  0  0  0
   -0.8582   -0.6378   -0.6387 C   0  0  0  0  0  0  0  0  0  0  0  0
   -1.4940   -1.7061   -0.9890 N   0  0  0  0  0  0  0  0  0  0  0  0
   -2.8811   -1.8071   -0.8175 C   0  0  0  0  0  0  0  0  0  0  0  0
   -3.3668   -2.4025    0.3538 C   0  0  0  0  0  0  0  0  0  0  0  0
   -4.7391   -2.5503    0.5670 C   0  0  0  0  0  0  0  0  0  0  0  0
   -5.6440   -2.1162   -0.3992 C   0  0  0  0  0  0  0  0  0  0  0  0
   -5.1778   -1.5418   -1.5821 C   0  0  0  0  0  0  0  0  0  0  0  0
   -3.8029   -1.3947   -1.7943 C   0  0  0  0  0  0  0  0  0  0  0  0
   -3.2338   -0.6082   -3.4266 Br  0  0  0  0  0  0  0  0  0  0  0  0
    0.4926   -0.6596   -0.8635 N   0  0  0  0  0  0  0  0  0  0  0  0
    1.2879    0.3145   -0.5337 C   0  0  0  0  0  0  0  0  0  0  0  0
    2.6049    0.1380   -0.8404 N   0  0  0  0  0  0  0  0  0  0  0  0
    3.6922    0.8344   -0.1925 C   0  0  0  0  0  0  0  0  0  0  0  0
    3.9348    0.3213    1.2284 C   0  0  0  0  0  0  0  0  0  0  0  0
    4.2871   -1.1660    1.3342 C   0  0  0  0  0  0  0  0  0  0  0  0
    5.5640   -1.5434    0.5999 C   0  0  0  0  0  0  0  0  0  0  0  0
    0.9091    1.4707    0.0929 N   0  0  0  0  0  0  0  0  0  0  0  0
   -0.3432    1.6208    0.3475 C   0  0  0  0  0  0  0  0  0  0  0  0
   -0.9756    2.6933    0.9794 N   0  0  0  0  0  0  0  0  0  0  0  0
   -0.4846    4.0476    0.8074 C   0  0  0  0  0  0  0  0  0  0  0  0
   -2.9003    2.6201    1.6950 H   0  0  0  0  0  0  0  0  0  0  0  0
   -3.4908    0.7649    0.2787 H   0  0  0  0  0  0  0  0  0  0  0  0
   -2.6626   -2.7611    1.1010 H   0  0  0  0  0  0  0  0  0  0  0  0
   -5.0981   -3.0158    1.4816 H   0  0  0  0  0  0  0  0  0  0  0  0
   -6.7126   -2.2379   -0.2384 H   0  0  0  0  0  0  0  0  0  0  0  0
   -5.8908   -1.2193   -2.3367 H   0  0  0  0  0  0  0  0  0  0  0  0
    2.7972   -0.8077   -1.1483 H   0  0  0  0  0  0  0  0  0  0  0  0
    3.4896    1.9115   -0.1631 H   0  0  0  0  0  0  0  0  0  0  0  0
    4.5971    0.7167   -0.7978 H   0  0  0  0  0  0  0  0  0  0  0  0
    4.7444    0.9106    1.6767 H   0  0  0  0  0  0  0  0  0  0  0  0
    3.0436    0.5061    1.8409 H   0  0  0  0  0  0  0  0  0  0  0  0
    3.4585   -1.7808    0.9649 H   0  0  0  0  0  0  0  0  0  0  0  0
    4.4093   -1.4154    2.3952 H   0  0  0  0  0  0  0  0  0  0  0  0
    6.4040   -0.9228    0.9271 H   0  0  0  0  0  0  0  0  0  0  0  0
    5.8172   -2.5894    0.8008 H   0  0  0  0  0  0  0  0  0  0  0  0
    5.4515   -1.4331   -0.4826 H   0  0  0  0  0  0  0  0  0  0  0  0
   -1.0504    4.7404    1.4387 H   0  0  0  0  0  0  0  0  0  0  0  0
   -0.5821    4.3679   -0.2352 H   0  0  0  0  0  0  0  0  0  0  0  0
    0.5686    4.1155    1.0983 H   0  0  0  0  0  0  0  0  0  0  0  0
  1  2  1  0
  2  3  2  0
  3  4  1  0
  4  5  2  3
  5  6  1  0
  6  7  2  0
  7  8  1  0
  8  9  2  0
  9 10  1  0
 10 11  2  0
 11 12  1  0
  4 13  1  0
 13 14  2  0
 14 15  1  0
 15 16  1  0
 16 17  1  0
 17 18  1  0
 18 19  1  0
 14 20  1  0
 20 21  2  0
 21 22  1  0
 22 23  1  0
 22  1  1  0
 21  3  1  0
 11  6  1  0
  1 24  1  0
  2 25  1  0
  7 26  1  0
  8 27  1  0
  9 28  1  0
 10 29  1  0
 15 30  1  0
 16 31  1  0
 16 32  1  0
 17 33  1  0
 17 34  1  0
 18 35  1  0
 18 36  1  0
 19 37  1  0
 19 38  1  0
 19 39  1  0
 23 40  1  0
 23 41  1  0
 23 42  1  0
M  END
>  <ScrubInfo>  (5) 
{"isomerGroup": 0, "isomerId": 4, "confId": 0, "nr_conformers:": 1, "nr_isomers:": 9}

$$$$
_i5
     RDKit          3D

 42 44  0  0  0  0  0  0  0  0999 V2000
    0.8701   -1.3088    0.7387 N   0  0  0  0  0  0  0  0  0  0  0  0
    1.0511    0.0122    0.3996 C   0  0  0  0  0  0  0  0  0  0  0  0
    2.3801    0.3404    0.3466 N   0  0  0  0  0  0  0  0  0  0  0  0
    2.7800    1.7183    0.0826 C   0  0  0  0  0  0  0  0  0  0  0  0
    4.2989    1.8151   -0.0665 C   0  0  0  0  0  0  0  0  0  0  0  0
    4.8131    1.1000   -1.3184 C   0  0  0  0  0  0  0  0  0  0  0  0
    6.3187    1.2542   -1.4665 C   0  0  0  0  0  0  0  0  0  0  0  0
    0.0950    0.8573    0.1466 N   0  0  0  0  0  0  0  0  0  0  0  0
   -1.2323    0.4593    0.2339 C   0  0  0  0  0  0  0  0  0  0  0  0
   -2.1154    1.3894    0.0532 N   0  0  0  0  0  0  0  0  0  0  0  0
   -3.4913    1.1497    0.1389 C   0  0  0  0  0  0  0  0  0  0  0  0
   -4.2021    0.9220   -1.0465 C   0  0  0  0  0  0  0  0  0  0  0  0
   -5.5816    0.7058   -1.0246 C   0  0  0  0  0  0  0  0  0  0  0  0
   -6.2709    0.7320    0.1859 C   0  0  0  0  0  0  0  0  0  0  0  0
   -5.5838    0.9837    1.3737 C   0  0  0  0  0  0  0  0  0  0  0  0
   -4.2020    1.2006    1.3502 C   0  0  0  0  0  0  0  0  0  0  0  0
   -3.3283    1.5504    3.0003 Br  0  0  0  0  0  0  0  0  0  0  0  0
   -1.4700   -0.9476    0.5117 C   0  0  0  0  0  0  0  0  0  0  0  0
   -2.5672   -1.8234    0.5996 C   0  0  0  0  0  0  0  0  0  0  0  0
   -2.2060   -3.0879    0.8720 N   0  0  0  0  0  0  0  0  0  0  0  0
   -0.8589   -3.0230    0.9648 N   0  0  0  0  0  0  0  0  0  0  0  0
   -0.1186   -4.2226    1.2616 C   0  0  0  0  0  0  0  0  0  0  0  0
   -0.3944   -1.7648    0.7524 C   0  0  0  0  0  0  0  0  0  0  0  0
    1.6783   -1.9129    0.6789 H   0  0  0  0  0  0  0  0  0  0  0  0
    2.9224   -0.0796    1.0918 H   0  0  0  0  0  0  0  0  0  0  0  0
    2.4616    2.3524    0.9182 H   0  0  0  0  0  0  0  0  0  0  0  0
    2.2958    2.0902   -0.8280 H   0  0  0  0  0  0  0  0  0  0  0  0
    4.5760    2.8750   -0.1197 H   0  0  0  0  0  0  0  0  0  0  0  0
    4.7889    1.3998    0.8229 H   0  0  0  0  0  0  0  0  0  0  0  0
    4.3211    1.5089   -2.2086 H   0  0  0  0  0  0  0  0  0  0  0  0
    4.5685    0.0327   -1.2736 H   0  0  0  0  0  0  0  0  0  0  0  0
    6.8432    0.8272   -0.6057 H   0  0  0  0  0  0  0  0  0  0  0  0
    6.6659    0.7371   -2.3666 H   0  0  0  0  0  0  0  0  0  0  0  0
    6.5988    2.3090   -1.5516 H   0  0  0  0  0  0  0  0  0  0  0  0
   -3.6701    0.9174   -1.9950 H   0  0  0  0  0  0  0  0  0  0  0  0
   -6.1165    0.5254   -1.9538 H   0  0  0  0  0  0  0  0  0  0  0  0
   -7.3456    0.5673    0.2040 H   0  0  0  0  0  0  0  0  0  0  0  0
   -6.1324    1.0150    2.3116 H   0  0  0  0  0  0  0  0  0  0  0  0
   -3.6209   -1.6189    0.4711 H   0  0  0  0  0  0  0  0  0  0  0  0
   -0.1635   -4.8770    0.3876 H   0  0  0  0  0  0  0  0  0  0  0  0
    0.9195   -3.9721    1.4896 H   0  0  0  0  0  0  0  0  0  0  0  0
   -0.5755   -4.7092    2.1273 H   0  0  0  0  0  0  0  0  0  0  0  0
  1  2  1  0
  2  3  1  0
  3  4  1  0
  4  5  1  0
  5  6  1  0
  6  7  1  0
  2  8  2  0
  8  9  1  0
  9 10  2  3
 10 11  1  0
 11 12  2  0
 12 13  1  0
 13 14  2  0
 14 15  1  0
 15 16  2  0
 16 17  1  0
  9 18  1  0
 18 19  1  0
 19 20  2  0
 20 21  1  0
 21 22  1  0
 21 23  1  0
 23  1  1  0
 16 11  1  0
 23 18  2  0
  1 24  1  0
  3 25  1  0
  4 26  1  0
  4 27  1  0
  5 28  1  0
  5 29  1  0
  6 30  1  0
  6 31  1  0
  7 32  1  0
  7 33  1  0
  7 34  1  0
 12 35  1  0
 13 36  1  0
 14 37  1  0
 15 38  1  0
 19 39  1  0
 22 40  1  0
 22 41  1  0
 22 42  1  0
M  END
>  <ScrubInfo>  (6) 
{"isomerGroup": 0, "isomerId": 5, "confId": 0, "nr_conformers:": 1, "nr_isomers:": 9}

$$$$
_i6
     RDKit          3D

 42 44  0  0  0  0  0  0  0  0999 V2000
   -2.2100    2.7195   -1.0567 N   0  0  0  0  0  0  0  0  0  0  0  0
   -2.5517    1.5717   -0.3494 C   0  0  0  0  0  0  0  0  0  0  0  0
   -1.4950    0.9627    0.2056 C   0  0  0  0  0  0  0  0  0  0  0  0
   -1.1926   -0.2244    1.0040 C   0  0  0  0  0  0  0  0  0  0  0  0
   -2.1351   -1.1249    1.4593 N   0  0  0  0  0  0  0  0  0  0  0  0
   -3.2658   -1.5141    0.7049 C   0  0  0  0  0  0  0  0  0  0  0  0
   -4.5228   -1.3677    1.3135 C   0  0  0  0  0  0  0  0  0  0  0  0
   -5.6911   -1.7613    0.6584 C   0  0  0  0  0  0  0  0  0  0  0  0
   -5.6182   -2.3320   -0.6088 C   0  0  0  0  0  0  0  0  0  0  0  0
   -4.3766   -2.5230   -1.2141 C   0  0  0  0  0  0  0  0  0  0  0  0
   -3.2041   -2.1301   -0.5579 C   0  0  0  0  0  0  0  0  0  0  0  0
   -1.5585   -2.5044   -1.4308 Br  0  0  0  0  0  0  0  0  0  0  0  0
    0.0512   -0.4491    1.3285 N   0  0  0  0  0  0  0  0  0  0  0  0
    1.0291    0.4128    0.8829 C   0  0  0  0  0  0  0  0  0  0  0  0
    2.2212    0.0402    1.1910 N   0  0  0  0  0  0  0  0  0  0  0  0
    3.3295    0.8887    0.7623 C   0  0  0  0  0  0  0  0  0  0  0  0
    4.6467    0.2478    1.2029 C   0  0  0  0  0  0  0  0  0  0  0  0
    4.9392   -1.0585    0.4609 C   0  0  0  0  0  0  0  0  0  0  0  0
    6.2732   -1.6518    0.8865 C   0  0  0  0  0  0  0  0  0  0  0  0
    0.8420    1.5800    0.1770 N   0  0  0  0  0  0  0  0  0  0  0  0
   -0.3731    1.8617   -0.1428 C   0  0  0  0  0  0  0  0  0  0  0  0
   -0.8609    2.9719   -0.8338 N   0  0  0  0  0  0  0  0  0  0  0  0
   -0.0773    3.6000   -1.8804 C   0  0  0  0  0  0  0  0  0  0  0  0
   -2.8463    3.5030   -0.8921 H   0  0  0  0  0  0  0  0  0  0  0  0
   -3.5900    1.2770   -0.3037 H   0  0  0  0  0  0  0  0  0  0  0  0
   -1.6598   -1.9423    1.8393 H   0  0  0  0  0  0  0  0  0  0  0  0
   -4.5934   -0.9306    2.3080 H   0  0  0  0  0  0  0  0  0  0  0  0
   -6.6562   -1.6280    1.1417 H   0  0  0  0  0  0  0  0  0  0  0  0
   -6.5262   -2.6436   -1.1197 H   0  0  0  0  0  0  0  0  0  0  0  0
   -4.3312   -2.9924   -2.1942 H   0  0  0  0  0  0  0  0  0  0  0  0
    3.3346    1.0180   -0.3269 H   0  0  0  0  0  0  0  0  0  0  0  0
    3.2539    1.8765    1.2330 H   0  0  0  0  0  0  0  0  0  0  0  0
    5.4610    0.9582    1.0150 H   0  0  0  0  0  0  0  0  0  0  0  0
    4.6242    0.0607    2.2837 H   0  0  0  0  0  0  0  0  0  0  0  0
    4.9558   -0.8764   -0.6199 H   0  0  0  0  0  0  0  0  0  0  0  0
    4.1470   -1.7906    0.6544 H   0  0  0  0  0  0  0  0  0  0  0  0
    6.2792   -1.8747    1.9582 H   0  0  0  0  0  0  0  0  0  0  0  0
    6.4637   -2.5835    0.3446 H   0  0  0  0  0  0  0  0  0  0  0  0
    7.0956   -0.9613    0.6740 H   0  0  0  0  0  0  0  0  0  0  0  0
    0.0617    2.9173   -2.7252 H   0  0  0  0  0  0  0  0  0  0  0  0
   -0.5796    4.5032   -2.2418 H   0  0  0  0  0  0  0  0  0  0  0  0
    0.9067    3.8939   -1.5014 H   0  0  0  0  0  0  0  0  0  0  0  0
  1  2  1  0
  2  3  2  0
  3  4  1  0
  4  5  1  0
  5  6  1  0
  6  7  2  0
  7  8  1  0
  8  9  2  0
  9 10  1  0
 10 11  2  0
 11 12  1  0
  4 13  2  0
 13 14  1  0
 14 15  2  3
 15 16  1  0
 16 17  1  0
 17 18  1  0
 18 19  1  0
 14 20  1  0
 20 21  2  0
 21 22  1  0
 22 23  1  0
 22  1  1  0
 21  3  1  0
 11  6  1  0
  1 24  1  0
  2 25  1  0
  5 26  1  0
  7 27  1  0
  8 28  1  0
  9 29  1  0
 10 30  1  0
 16 31  1  0
 16 32  1  0
 17 33  1  0
 17 34  1  0
 18 35  1  0
 18 36  1  0
 19 37  1  0
 19 38  1  0
 19 39  1  0
 23 40  1  0
 23 41  1  0
 23 42  1  0
M  END
>  <ScrubInfo>  (7) 
{"isomerGroup": 0, "isomerId": 6, "confId": 0, "nr_conformers:": 1, "nr_isomers:": 9}

$$$$
_i7
     RDKit          3D

 42 44  0  0  0  0  0  0  0  0999 V2000
   -2.4018    2.5764   -0.2453 N   0  0  0  0  0  0  0  0  0  0  0  0
   -2.6552    1.2192   -0.0835 C   0  0  0  0  0  0  0  0  0  0  0  0
   -1.5585    0.4972    0.1875 C   0  0  0  0  0  0  0  0  0  0  0  0
   -1.1488   -0.9020    0.4208 C   0  0  0  0  0  0  0  0  0  0  0  0
   -1.8771   -1.9788    0.4586 N   0  0  0  0  0  0  0  0  0  0  0  0
   -3.2628   -1.9211    0.2483 C   0  0  0  0  0  0  0  0  0  0  0  0
   -4.1042   -1.8115    1.3626 C   0  0  0  0  0  0  0  0  0  0  0  0
   -5.4921   -1.7754    1.2110 C   0  0  0  0  0  0  0  0  0  0  0  0
   -6.0561   -1.8636   -0.0601 C   0  0  0  0  0  0  0  0  0  0  0  0
   -5.2341   -1.9959   -1.1795 C   0  0  0  0  0  0  0  0  0  0  0  0
   -3.8443   -2.0324   -1.0259 C   0  0  0  0  0  0  0  0  0  0  0  0
   -2.7795   -2.2208   -2.5874 Br  0  0  0  0  0  0  0  0  0  0  0  0
    0.2004   -1.0185    0.6150 N   0  0  0  0  0  0  0  0  0  0  0  0
    1.1313   -0.0194    0.6090 C   0  0  0  0  0  0  0  0  0  0  0  0
    2.3738   -0.3360    0.7764 N   0  0  0  0  0  0  0  0  0  0  0  0
    3.3486    0.7555    0.7660 C   0  0  0  0  0  0  0  0  0  0  0  0
    4.7504    0.1725    0.9528 C   0  0  0  0  0  0  0  0  0  0  0  0
    5.1995   -0.6677   -0.2451 C   0  0  0  0  0  0  0  0  0  0  0  0
    6.6112   -1.1992   -0.0521 C   0  0  0  0  0  0  0  0  0  0  0  0
    0.7710    1.3004    0.4369 N   0  0  0  0  0  0  0  0  0  0  0  0
   -0.4873    1.5548    0.2536 C   0  0  0  0  0  0  0  0  0  0  0  0
   -1.0743    2.8109    0.0807 N   0  0  0  0  0  0  0  0  0  0  0  0
   -0.3610    3.8805   -0.5915 C   0  0  0  0  0  0  0  0  0  0  0  0
   -3.0919    3.1774    0.2106 H   0  0  0  0  0  0  0  0  0  0  0  0
   -3.6740    0.8774   -0.1875 H   0  0  0  0  0  0  0  0  0  0  0  0
   -3.6694   -1.7604    2.3579 H   0  0  0  0  0  0  0  0  0  0  0  0
   -6.1309   -1.6899    2.0868 H   0  0  0  0  0  0  0  0  0  0  0  0
   -7.1369   -1.8429   -0.1788 H   0  0  0  0  0  0  0  0  0  0  0  0
   -5.6837   -2.0780   -2.1659 H   0  0  0  0  0  0  0  0  0  0  0  0
    0.5655   -1.9494    0.7488 H   0  0  0  0  0  0  0  0  0  0  0  0
    3.1503    1.4466    1.5943 H   0  0  0  0  0  0  0  0  0  0  0  0
    3.3089    1.3147   -0.1767 H   0  0  0  0  0  0  0  0  0  0  0  0
    5.4563    0.9995    1.0969 H   0  0  0  0  0  0  0  0  0  0  0  0
    4.7788   -0.4389    1.8632 H   0  0  0  0  0  0  0  0  0  0  0  0
    5.1659   -0.0615   -1.1578 H   0  0  0  0  0  0  0  0  0  0  0  0
    4.5185   -1.5135   -0.3920 H   0  0  0  0  0  0  0  0  0  0  0  0
    6.6725   -1.8355    0.8366 H   0  0  0  0  0  0  0  0  0  0  0  0
    6.9132   -1.7958   -0.9186 H   0  0  0  0  0  0  0  0  0  0  0  0
    7.3273   -0.3791    0.0618 H   0  0  0  0  0  0  0  0  0  0  0  0
   -0.9417    4.8079   -0.5537 H   0  0  0  0  0  0  0  0  0  0  0  0
   -0.1786    3.6268   -1.6410 H   0  0  0  0  0  0  0  0  0  0  0  0
    0.6008    4.0693   -0.1038 H   0  0  0  0  0  0  0  0  0  0  0  0
  1  2  1  0
  2  3  2  0
  3  4  1  0
  4  5  2  3
  5  6  1  0
  6  7  2  0
  7  8  1  0
  8  9  2  0
  9 10  1  0
 10 11  2  0
 11 12  1  0
  4 13  1  0
 13 14  1  0
 14 15  2  3
 15 16  1  0
 16 17  1  0
 17 18  1  0
 18 19  1  0
 14 20  1  0
 20 21  2  0
 21 22  1  0
 22 23  1  0
 22  1  1  0
 21  3  1  0
 11  6  1  0
  1 24  1  0
  2 25  1  0
  7 26  1  0
  8 27  1  0
  9 28  1  0
 10 29  1  0
 13 30  1  0
 16 31  1  0
 16 32  1  0
 17 33  1  0
 17 34  1  0
 18 35  1  0
 18 36  1  0
 19 37  1  0
 19 38  1  0
 19 39  1  0
 23 40  1  0
 23 41  1  0
 23 42  1  0
M  END
>  <ScrubInfo>  (8) 
{"isomerGroup": 0, "isomerId": 7, "confId": 0, "nr_conformers:": 1, "nr_isomers:": 9}

$$$$
_i8
     RDKit          3D

 42 44  0  0  0  0  0  0  0  0999 V2000
    0.8172   -1.4616   -0.1828 N   0  0  0  0  0  0  0  0  0  0  0  0
    0.3494   -0.1555   -0.1673 C   0  0  0  0  0  0  0  0  0  0  0  0
    1.0190    0.9290   -0.3713 N   0  0  0  0  0  0  0  0  0  0  0  0
    2.4476    0.8199   -0.6548 C   0  0  0  0  0  0  0  0  0  0  0  0
    2.9996    2.2301   -0.8628 C   0  0  0  0  0  0  0  0  0  0  0  0
    4.4692    2.2516   -1.2858 C   0  0  0  0  0  0  0  0  0  0  0  0
    5.4149    1.7182   -0.2209 C   0  0  0  0  0  0  0  0  0  0  0  0
   -1.0013   -0.0508    0.1013 N   0  0  0  0  0  0  0  0  0  0  0  0
   -1.9524   -1.0181    0.3596 C   0  0  0  0  0  0  0  0  0  0  0  0
   -3.2160   -0.9294    0.6140 N   0  0  0  0  0  0  0  0  0  0  0  0
   -3.7919    0.3516    0.6645 C   0  0  0  0  0  0  0  0  0  0  0  0
   -4.4042    0.8531   -0.4906 C   0  0  0  0  0  0  0  0  0  0  0  0
   -4.9931    2.1192   -0.4963 C   0  0  0  0  0  0  0  0  0  0  0  0
   -4.9853    2.8960    0.6603 C   0  0  0  0  0  0  0  0  0  0  0  0
   -4.3948    2.4054    1.8250 C   0  0  0  0  0  0  0  0  0  0  0  0
   -3.8058    1.1370    1.8293 C   0  0  0  0  0  0  0  0  0  0  0  0
   -3.0221    0.5241    3.4472 Br  0  0  0  0  0  0  0  0  0  0  0  0
   -1.3645   -2.3359    0.3210 C   0  0  0  0  0  0  0  0  0  0  0  0
   -1.8421   -3.6412    0.5071 C   0  0  0  0  0  0  0  0  0  0  0  0
   -0.8758   -4.5613    0.3643 N   0  0  0  0  0  0  0  0  0  0  0  0
    0.2311   -3.8299    0.0872 N   0  0  0  0  0  0  0  0  0  0  0  0
    1.4815   -4.5151   -0.1211 C   0  0  0  0  0  0  0  0  0  0  0  0
   -0.0262   -2.4927    0.0545 C   0  0  0  0  0  0  0  0  0  0  0  0
    1.8014   -1.5961   -0.3679 H   0  0  0  0  0  0  0  0  0  0  0  0
    2.6132    0.2263   -1.5616 H   0  0  0  0  0  0  0  0  0  0  0  0
    2.9612    0.3390    0.1849 H   0  0  0  0  0  0  0  0  0  0  0  0
    2.4089    2.7354   -1.6377 H   0  0  0  0  0  0  0  0  0  0  0  0
    2.8682    2.8174    0.0547 H   0  0  0  0  0  0  0  0  0  0  0  0
    4.7498    3.2869   -1.5139 H   0  0  0  0  0  0  0  0  0  0  0  0
    4.5999    1.6772   -2.2103 H   0  0  0  0  0  0  0  0  0  0  0  0
    6.4534    1.8478   -0.5422 H   0  0  0  0  0  0  0  0  0  0  0  0
    5.2554    0.6510   -0.0410 H   0  0  0  0  0  0  0  0  0  0  0  0
    5.2838    2.2530    0.7250 H   0  0  0  0  0  0  0  0  0  0  0  0
   -1.3222    0.9059    0.1145 H   0  0  0  0  0  0  0  0  0  0  0  0
   -4.4242    0.2458   -1.3926 H   0  0  0  0  0  0  0  0  0  0  0  0
   -5.4637    2.4942   -1.4021 H   0  0  0  0  0  0  0  0  0  0  0  0
   -5.4474    3.8804    0.6580 H   0  0  0  0  0  0  0  0  0  0  0  0
   -4.4029    3.0149    2.7252 H   0  0  0  0  0  0  0  0  0  0  0  0
   -2.8497   -3.9609    0.7407 H   0  0  0  0  0  0  0  0  0  0  0  0
    2.2346   -3.8151   -0.4884 H   0  0  0  0  0  0  0  0  0  0  0  0
    1.8007   -4.9414    0.8332 H   0  0  0  0  0  0  0  0  0  0  0  0
    1.3260   -5.3055   -0.8600 H   0  0  0  0  0  0  0  0  0  0  0  0
  1  2  1  0
  2  3  2  3
  3  4  1  0
  4  5  1  0
  5  6  1  0
  6  7  1  0
  2  8  1  0
  8  9  1  0
  9 10  2  3
 10 11  1  0
 11 12  2  0
 12 13  1  0
 13 14  2  0
 14 15  1  0
 15 16  2  0
 16 17  1  0
  9 18  1  0
 18 19  1  0
 19 20  2  0
 20 21  1  0
 21 22  1  0
 21 23  1  0
 23  1  1  0
 16 11  1  0
 23 18  2  0
  1 24  1  0
  4 25  1  0
  4 26  1  0
  5 27  1  0
  5 28  1  0
  6 29  1  0
  6 30  1  0
  7 31  1  0
  7 32  1  0
  7 33  1  0
  8 34  1  0
 12 35  1  0
 13 36  1  0
 14 37  1  0
 15 38  1  0
 19 39  1  0
 22 40  1  0
 22 41  1  0
 22 42  1  0
M  END
>  <ScrubInfo>  (9) 
{"isomerGroup": 0, "isomerId": 8, "confId": 0, "nr_conformers:": 1, "nr_isomers:": 9}

$$$$
