REMARK SMILES CCCCNc1nc(Nc2ccccc2Br)c2cnn(C)c2n1
REMARK SMILES IDX 5 1 4 3 3 4 2 5 1 6 6 7 7 8 23 9 8 10 22 11 17 12 20 13
REMARK SMILES IDX 18 14 19 15 21 16 9 17 10 19 11 20 15 21 12 22 14 23 13 24
REMARK SMILES IDX 16 25
REMARK H PARENT 5 2 9 18
ROOT
ATOM      1  N   UNL     1       1.471  -0.866   0.334  1.00  0.00    -0.354 N 
ATOM      2  H   UNL     1       0.909  -1.646   0.009  1.00  0.00     0.163 HD
ENDROOT
BRANCH   1   3
ATOM      3  C   UNL     1       2.643  -0.567  -0.472  1.00  0.00     0.116 C 
BRANCH   3   4
ATOM      4  C   UNL     1       3.481  -1.839  -0.628  1.00  0.00     0.021 C 
BRANCH   4   5
ATOM      5  C   UNL     1       4.686  -1.663  -1.554  1.00  0.00    -0.002 C 
ATOM      6  C   UNL     1       5.727  -0.692  -1.017  1.00  0.00     0.004 C 
ENDBRANCH   4   5
ENDBRANCH   3   4
ENDBRANCH   1   3
BRANCH   1   7
ATOM      7  C   UNL     1       0.578   0.192   0.468  1.00  0.00     0.226 A 
ATOM      8  N   UNL     1      -0.716  -0.173   0.494  1.00  0.00    -0.195 NA
ATOM      9  N   UNL     1       1.037   1.448   0.552  1.00  0.00    -0.193 NA
ATOM     10  C   UNL     1      -1.702   0.752   0.627  1.00  0.00     0.147 A 
ATOM     11  C   UNL     1       0.055   2.350   0.682  1.00  0.00     0.165 A 
ATOM     12  C   UNL     1      -1.301   2.091   0.724  1.00  0.00     0.082 A 
ATOM     13  N   UNL     1       0.185   3.706   0.801  1.00  0.00    -0.250 N 
ATOM     14  C   UNL     1      -1.895   3.363   0.864  1.00  0.00     0.149 A 
ATOM     15  N   UNL     1      -0.999   4.355   0.907  1.00  0.00    -0.179 NA
ATOM     16  C   UNL     1       1.413   4.461   0.820  1.00  0.00     0.176 C 
BRANCH  10  17
ATOM     17  N   UNL     1      -3.058   0.398   0.645  1.00  0.00    -0.339 N 
ATOM     18  H   UNL     1      -3.692   1.188   0.670  1.00  0.00     0.168 HD
BRANCH  17  19
ATOM     19  C   UNL     1      -3.733  -0.839   0.627  1.00  0.00     0.054 A 
ATOM     20  C   UNL     1      -3.076  -2.072   0.714  1.00  0.00     0.027 A 
ATOM     21  C   UNL     1      -5.139  -0.867   0.500  1.00  0.00     0.041 A 
ATOM     22  C   UNL     1      -3.783  -3.280   0.678  1.00  0.00     0.002 A 
ATOM     23  C   UNL     1      -5.851  -2.071   0.463  1.00  0.00     0.018 A 
ATOM     24  C   UNL     1      -5.169  -3.280   0.552  1.00  0.00     0.001 A 
ATOM     25  Br  UNL     1      -6.139   0.751   0.373  1.00  0.00    -0.049 Br
ENDBRANCH  17  19
ENDBRANCH  10  17
ENDBRANCH   1   7
TORSDOF 6
