REMARK SMILES COCCNc1nc(Nc2cc(Cl)c(Cl)cc2Cl)c2cnn(C)c2n1
REMARK SMILES IDX 5 1 4 3 3 4 2 5 1 6 6 7 7 8 25 9 8 10 24 11 19 12 22 13
REMARK SMILES IDX 20 14 21 15 23 16 9 17 10 19 11 20 17 21 12 22 16 23 14 24
REMARK SMILES IDX 18 25 13 26 15 27
REMARK H PARENT 5 2 9 18
ROOT
ATOM      1  N   UNL     1       1.951  -0.585  -0.104  1.00  0.00    -0.352 N 
ATOM      2  H   UNL     1       1.500  -1.365   0.361  1.00  0.00     0.163 HD
ENDROOT
BRANCH   1   3
ATOM      3  C   UNL     1       3.040   0.040   0.633  1.00  0.00     0.144 C 
BRANCH   3   4
ATOM      4  C   UNL     1       4.096  -1.007   1.012  1.00  0.00     0.181 C 
BRANCH   4   5
ATOM      5  O   UNL     1       5.197  -0.432   1.720  1.00  0.00    -0.383 OA
ATOM      6  C   UNL     1       4.939  -0.255   3.106  1.00  0.00     0.194 C 
ENDBRANCH   4   5
ENDBRANCH   3   4
ENDBRANCH   1   3
BRANCH   1   7
ATOM      7  C   UNL     1       0.922   0.281  -0.456  1.00  0.00     0.226 A 
ATOM      8  N   UNL     1      -0.305  -0.271  -0.421  1.00  0.00    -0.195 NA
ATOM      9  N   UNL     1       1.197   1.548  -0.788  1.00  0.00    -0.193 NA
ATOM     10  C   UNL     1      -1.406   0.451  -0.756  1.00  0.00     0.147 A 
ATOM     11  C   UNL     1       0.103   2.249  -1.114  1.00  0.00     0.165 A 
ATOM     12  C   UNL     1      -1.198   1.787  -1.121  1.00  0.00     0.082 A 
ATOM     13  N   UNL     1       0.043   3.558  -1.507  1.00  0.00    -0.250 N 
ATOM     14  C   UNL     1      -1.961   2.902  -1.528  1.00  0.00     0.149 A 
ATOM     15  N   UNL     1      -1.215   3.987  -1.761  1.00  0.00    -0.179 NA
ATOM     16  C   UNL     1       1.150   4.468  -1.665  1.00  0.00     0.176 C 
BRANCH  10  17
ATOM     17  N   UNL     1      -2.692  -0.104  -0.723  1.00  0.00    -0.338 N 
ATOM     18  H   UNL     1      -3.432   0.557  -0.939  1.00  0.00     0.168 HD
BRANCH  17  19
ATOM     19  C   UNL     1      -3.177  -1.397  -0.438  1.00  0.00     0.060 A 
ATOM     20  C   UNL     1      -2.343  -2.496  -0.200  1.00  0.00     0.049 A 
ATOM     21  C   UNL     1      -4.571  -1.614  -0.368  1.00  0.00     0.066 A 
ATOM     22  C   UNL     1      -2.870  -3.761   0.098  1.00  0.00     0.061 A 
ATOM     23  C   UNL     1      -5.107  -2.870  -0.073  1.00  0.00     0.044 A 
ATOM     24  C   UNL     1      -4.253  -3.947   0.162  1.00  0.00     0.061 A 
ATOM     25  Cl  UNL     1      -5.676  -0.309  -0.650  1.00  0.00    -0.082 Cl
ATOM     26  Cl  UNL     1      -1.752  -5.051   0.378  1.00  0.00    -0.083 Cl
ATOM     27  Cl  UNL     1      -4.970  -5.476   0.525  1.00  0.00    -0.083 Cl
ENDBRANCH  17  19
ENDBRANCH  10  17
ENDBRANCH   1   7
TORSDOF 6
