_i0
     RDKit          3D

 40 42  0  0  0  0  0  0  0  0999 V2000
    4.9389   -0.2551    3.1062 C   0  0  0  0  0  0  0  0  0  0  0  0
    5.1973   -0.4322    1.7199 O   0  0  0  0  0  0  0  0  0  0  0  0
    4.0964   -1.0069    1.0119 C   0  0  0  0  0  0  0  0  0  0  0  0
    3.0398    0.0402    0.6334 C   0  0  0  0  0  0  0  0  0  0  0  0
    1.9511   -0.5847   -0.1043 N   0  0  0  0  0  0  0  0  0  0  0  0
    0.9217    0.2810   -0.4562 C   0  0  0  0  0  0  0  0  0  0  0  0
   -0.3050   -0.2712   -0.4215 N   0  0  0  0  0  0  0  0  0  0  0  0
   -1.4061    0.4511   -0.7561 C   0  0  0  0  0  0  0  0  0  0  0  0
   -2.6923   -0.1038   -0.7232 N   0  0  0  0  0  0  0  0  0  0  0  0
   -3.1774   -1.3970   -0.4379 C   0  0  0  0  0  0  0  0  0  0  0  0
   -2.3432   -2.4964   -0.2001 C   0  0  0  0  0  0  0  0  0  0  0  0
   -2.8699   -3.7612    0.0983 C   0  0  0  0  0  0  0  0  0  0  0  0
   -1.7524   -5.0505    0.3782 Cl  0  0  0  0  0  0  0  0  0  0  0  0
   -4.2535   -3.9469    0.1622 C   0  0  0  0  0  0  0  0  0  0  0  0
   -4.9698   -5.4760    0.5254 Cl  0  0  0  0  0  0  0  0  0  0  0  0
   -5.1068   -2.8705   -0.0730 C   0  0  0  0  0  0  0  0  0  0  0  0
   -4.5714   -1.6144   -0.3679 C   0  0  0  0  0  0  0  0  0  0  0  0
   -5.6761   -0.3088   -0.6499 Cl  0  0  0  0  0  0  0  0  0  0  0  0
   -1.1977    1.7871   -1.1214 C   0  0  0  0  0  0  0  0  0  0  0  0
   -1.9610    2.9017   -1.5284 C   0  0  0  0  0  0  0  0  0  0  0  0
   -1.2150    3.9872   -1.7613 N   0  0  0  0  0  0  0  0  0  0  0  0
    0.0435    3.5579   -1.5074 N   0  0  0  0  0  0  0  0  0  0  0  0
    1.1500    4.4679   -1.6654 C   0  0  0  0  0  0  0  0  0  0  0  0
    0.1035    2.2490   -1.1141 C   0  0  0  0  0  0  0  0  0  0  0  0
    1.1973    1.5476   -0.7879 N   0  0  0  0  0  0  0  0  0  0  0  0
    4.7059   -1.2139    3.5792 H   0  0  0  0  0  0  0  0  0  0  0  0
    5.8411    0.1502    3.5725 H   0  0  0  0  0  0  0  0  0  0  0  0
    4.1218    0.4531    3.2660 H   0  0  0  0  0  0  0  0  0  0  0  0
    3.6570   -1.8290    1.5902 H   0  0  0  0  0  0  0  0  0  0  0  0
    4.5040   -1.4493    0.0956 H   0  0  0  0  0  0  0  0  0  0  0  0
    2.6554    0.5236    1.5393 H   0  0  0  0  0  0  0  0  0  0  0  0
    3.5291    0.8204    0.0365 H   0  0  0  0  0  0  0  0  0  0  0  0
    1.5001   -1.3653    0.3615 H   0  0  0  0  0  0  0  0  0  0  0  0
   -3.4322    0.5566   -0.9390 H   0  0  0  0  0  0  0  0  0  0  0  0
   -1.2643   -2.3914   -0.2530 H   0  0  0  0  0  0  0  0  0  0  0  0
   -6.1843   -3.0069   -0.0259 H   0  0  0  0  0  0  0  0  0  0  0  0
   -3.0321    2.9725   -1.6661 H   0  0  0  0  0  0  0  0  0  0  0  0
    2.0881    3.9630   -1.4245 H   0  0  0  0  0  0  0  0  0  0  0  0
    1.1689    4.8088   -2.7036 H   0  0  0  0  0  0  0  0  0  0  0  0
    0.9994    5.3125   -0.9883 H   0  0  0  0  0  0  0  0  0  0  0  0
  1  2  1  0
  2  3  1  0
  3  4  1  0
  4  5  1  0
  5  6  1  0
  6  7  2  0
  7  8  1  0
  8  9  1  0
  9 10  1  0
 10 11  2  0
 11 12  1  0
 12 13  1  0
 12 14  2  0
 14 15  1  0
 14 16  1  0
 16 17  2  0
 17 18  1  0
  8 19  2  0
 19 20  1  0
 20 21  2  0
 21 22  1  0
 22 23  1  0
 22 24  1  0
 24 25  2  0
 25  6  1  0
 17 10  1  0
 24 19  1  0
  1 26  1  0
  1 27  1  0
  1 28  1  0
  3 29  1  0
  3 30  1  0
  4 31  1  0
  4 32  1  0
  5 33  1  0
  9 34  1  0
 11 35  1  0
 16 36  1  0
 20 37  1  0
 23 38  1  0
 23 39  1  0
 23 40  1  0
M  END
>  <ScrubInfo>  (1) 
{"isomerGroup": 0, "isomerId": 0, "confId": 0, "nr_conformers:": 1, "nr_isomers:": 9}

$$$$
_i1
     RDKit          3D

 40 42  0  0  0  0  0  0  0  0999 V2000
   -0.5588   -0.1588   -0.4645 N   0  0  0  0  0  0  0  0  0  0  0  0
   -1.3399    0.6539    0.3336 C   0  0  0  0  0  0  0  0  0  0  0  0
   -2.6721    0.3912    0.6436 N   0  0  0  0  0  0  0  0  0  0  0  0
   -3.3533   -0.8170    0.3646 C   0  0  0  0  0  0  0  0  0  0  0  0
   -3.6929   -1.6524    1.4416 C   0  0  0  0  0  0  0  0  0  0  0  0
   -4.3210   -2.8856    1.2293 C   0  0  0  0  0  0  0  0  0  0  0  0
   -4.7037   -3.8390    2.6182 Cl  0  0  0  0  0  0  0  0  0  0  0  0
   -4.6128   -3.3050   -0.0715 C   0  0  0  0  0  0  0  0  0  0  0  0
   -5.3884   -4.8110   -0.4073 Cl  0  0  0  0  0  0  0  0  0  0  0  0
   -4.2773   -2.4911   -1.1544 C   0  0  0  0  0  0  0  0  0  0  0  0
   -3.6513   -1.2594   -0.9395 C   0  0  0  0  0  0  0  0  0  0  0  0
   -3.3201   -0.2843   -2.3288 Cl  0  0  0  0  0  0  0  0  0  0  0  0
   -0.7064    1.7352    0.8079 C   0  0  0  0  0  0  0  0  0  0  0  0
   -1.0245    2.9098    1.6275 C   0  0  0  0  0  0  0  0  0  0  0  0
   -0.0082    3.7189    1.7854 N   0  0  0  0  0  0  0  0  0  0  0  0
    1.0632    3.1065    1.1150 N   0  0  0  0  0  0  0  0  0  0  0  0
    2.2414    3.8871    0.8244 C   0  0  0  0  0  0  0  0  0  0  0  0
    0.7166    1.9382    0.4543 C   0  0  0  0  0  0  0  0  0  0  0  0
    1.4187    1.1723   -0.3085 N   0  0  0  0  0  0  0  0  0  0  0  0
    0.7522    0.0698   -0.7934 C   0  0  0  0  0  0  0  0  0  0  0  0
    1.3373   -0.7752   -1.5738 N   0  0  0  0  0  0  0  0  0  0  0  0
    2.7515   -0.5836   -1.9081 C   0  0  0  0  0  0  0  0  0  0  0  0
    3.6134   -1.5904   -1.1343 C   0  0  0  0  0  0  0  0  0  0  0  0
    3.6372   -1.3639    0.2785 O   0  0  0  0  0  0  0  0  0  0  0  0
    4.4746   -0.2820    0.6572 C   0  0  0  0  0  0  0  0  0  0  0  0
   -0.9834   -0.9588   -0.9053 H   0  0  0  0  0  0  0  0  0  0  0  0
   -2.9705    0.8227    1.5145 H   0  0  0  0  0  0  0  0  0  0  0  0
   -3.4525   -1.3488    2.4587 H   0  0  0  0  0  0  0  0  0  0  0  0
   -4.5094   -2.8124   -2.1676 H   0  0  0  0  0  0  0  0  0  0  0  0
   -2.0336    3.0666    2.0289 H   0  0  0  0  0  0  0  0  0  0  0  0
    3.1157    3.2410    0.6958 H   0  0  0  0  0  0  0  0  0  0  0  0
    2.0979    4.4663   -0.0931 H   0  0  0  0  0  0  0  0  0  0  0  0
    2.4578    4.5817    1.6425 H   0  0  0  0  0  0  0  0  0  0  0  0
    2.8623   -0.7857   -2.9799 H   0  0  0  0  0  0  0  0  0  0  0  0
    3.1055    0.4407   -1.7597 H   0  0  0  0  0  0  0  0  0  0  0  0
    3.2116   -2.5989   -1.2833 H   0  0  0  0  0  0  0  0  0  0  0  0
    4.6387   -1.5924   -1.5229 H   0  0  0  0  0  0  0  0  0  0  0  0
    5.5079   -0.4737    0.3522 H   0  0  0  0  0  0  0  0  0  0  0  0
    4.1288    0.6622    0.2309 H   0  0  0  0  0  0  0  0  0  0  0  0
    4.4477   -0.1951    1.7469 H   0  0  0  0  0  0  0  0  0  0  0  0
  1  2  1  0
  2  3  1  0
  3  4  1  0
  4  5  2  0
  5  6  1  0
  6  7  1  0
  6  8  2  0
  8  9  1  0
  8 10  1  0
 10 11  2  0
 11 12  1  0
  2 13  2  0
 13 14  1  0
 14 15  2  0
 15 16  1  0
 16 17  1  0
 16 18  1  0
 18 19  2  0
 19 20  1  0
 20 21  2  3
 21 22  1  0
 22 23  1  0
 23 24  1  0
 24 25  1  0
 20  1  1  0
 11  4  1  0
 18 13  1  0
  1 26  1  0
  3 27  1  0
  5 28  1  0
 10 29  1  0
 14 30  1  0
 17 31  1  0
 17 32  1  0
 17 33  1  0
 22 34  1  0
 22 35  1  0
 23 36  1  0
 23 37  1  0
 25 38  1  0
 25 39  1  0
 25 40  1  0
M  END
>  <ScrubInfo>  (2) 
{"isomerGroup": 0, "isomerId": 1, "confId": 0, "nr_conformers:": 1, "nr_isomers:": 9}

$$$$
_i2
     RDKit          3D

 40 42  0  0  0  0  0  0  0  0999 V2000
   -0.8580    0.7688   -0.1847 N   0  0  0  0  0  0  0  0  0  0  0  0
   -1.7092    0.1105    0.6653 C   0  0  0  0  0  0  0  0  0  0  0  0
   -3.0409    0.1806    0.3721 N   0  0  0  0  0  0  0  0  0  0  0  0
   -3.5819   -0.0256   -0.9660 C   0  0  0  0  0  0  0  0  0  0  0  0
   -3.3344   -1.4517   -1.4744 C   0  0  0  0  0  0  0  0  0  0  0  0
   -3.8662   -1.6362   -2.7877 O   0  0  0  0  0  0  0  0  0  0  0  0
   -5.2434   -1.9895   -2.7868 C   0  0  0  0  0  0  0  0  0  0  0  0
   -1.3201   -0.5616    1.7188 N   0  0  0  0  0  0  0  0  0  0  0  0
    0.0362   -0.5371    1.8540 C   0  0  0  0  0  0  0  0  0  0  0  0
    0.9731    0.1023    1.0550 C   0  0  0  0  0  0  0  0  0  0  0  0
    2.2080   -0.2285    1.6388 C   0  0  0  0  0  0  0  0  0  0  0  0
    2.0805   -1.0046    2.7215 N   0  0  0  0  0  0  0  0  0  0  0  0
    0.7433   -1.1688    2.8383 N   0  0  0  0  0  0  0  0  0  0  0  0
    0.2207   -1.9634    3.9213 C   0  0  0  0  0  0  0  0  0  0  0  0
    0.5096    0.8749   -0.0814 C   0  0  0  0  0  0  0  0  0  0  0  0
    1.2018    1.5886   -0.9169 N   0  0  0  0  0  0  0  0  0  0  0  0
    2.5884    1.7483   -0.8020 C   0  0  0  0  0  0  0  0  0  0  0  0
    3.4211    0.9298   -1.5737 C   0  0  0  0  0  0  0  0  0  0  0  0
    4.8101    1.0844   -1.5327 C   0  0  0  0  0  0  0  0  0  0  0  0
    5.7644    0.0229   -2.5053 Cl  0  0  0  0  0  0  0  0  0  0  0  0
    5.3787    2.0750   -0.7238 C   0  0  0  0  0  0  0  0  0  0  0  0
    7.0856    2.3201   -0.6232 Cl  0  0  0  0  0  0  0  0  0  0  0  0
    4.5577    2.9118    0.0355 C   0  0  0  0  0  0  0  0  0  0  0  0
    3.1706    2.7550   -0.0110 C   0  0  0  0  0  0  0  0  0  0  0  0
    2.1971    3.8256    0.9336 Cl  0  0  0  0  0  0  0  0  0  0  0  0
   -1.2670    1.3890   -0.8643 H   0  0  0  0  0  0  0  0  0  0  0  0
   -3.5630   -0.3384    1.0757 H   0  0  0  0  0  0  0  0  0  0  0  0
   -3.1717    0.7027   -1.6749 H   0  0  0  0  0  0  0  0  0  0  0  0
   -4.6579    0.1764   -0.9335 H   0  0  0  0  0  0  0  0  0  0  0  0
   -2.2560   -1.6314   -1.5446 H   0  0  0  0  0  0  0  0  0  0  0  0
   -3.7368   -2.2013   -0.7822 H   0  0  0  0  0  0  0  0  0  0  0  0
   -5.8504   -1.2003   -2.3353 H   0  0  0  0  0  0  0  0  0  0  0  0
   -5.3956   -2.9335   -2.2548 H   0  0  0  0  0  0  0  0  0  0  0  0
   -5.5633   -2.1210   -3.8240 H   0  0  0  0  0  0  0  0  0  0  0  0
    3.2085    0.0461    1.3387 H   0  0  0  0  0  0  0  0  0  0  0  0
   -0.8676   -1.8802    3.9574 H   0  0  0  0  0  0  0  0  0  0  0  0
    0.6471   -1.5952    4.8580 H   0  0  0  0  0  0  0  0  0  0  0  0
    0.5108   -3.0034    3.7527 H   0  0  0  0  0  0  0  0  0  0  0  0
    2.9741    0.1708   -2.2121 H   0  0  0  0  0  0  0  0  0  0  0  0
    4.9959    3.6880    0.6584 H   0  0  0  0  0  0  0  0  0  0  0  0
  1  2  1  0
  2  3  1  0
  3  4  1  0
  4  5  1  0
  5  6  1  0
  6  7  1  0
  2  8  2  0
  8  9  1  0
  9 10  2  0
 10 11  1  0
 11 12  2  0
 12 13  1  0
 13 14  1  0
 10 15  1  0
 15 16  2  3
 16 17  1  0
 17 18  2  0
 18 19  1  0
 19 20  1  0
 19 21  2  0
 21 22  1  0
 21 23  1  0
 23 24  2  0
 24 25  1  0
 15  1  1  0
 24 17  1  0
 13  9  1  0
  1 26  1  0
  3 27  1  0
  4 28  1  0
  4 29  1  0
  5 30  1  0
  5 31  1  0
  7 32  1  0
  7 33  1  0
  7 34  1  0
 11 35  1  0
 14 36  1  0
 14 37  1  0
 14 38  1  0
 18 39  1  0
 23 40  1  0
M  END
>  <ScrubInfo>  (3) 
{"isomerGroup": 0, "isomerId": 2, "confId": 0, "nr_conformers:": 1, "nr_isomers:": 9}

$$$$
_i3
     RDKit          3D

 40 42  0  0  0  0  0  0  0  0999 V2000
    1.1009    2.2729   -0.3866 N   0  0  0  0  0  0  0  0  0  0  0  0
    1.5476    1.3858    0.5675 C   0  0  0  0  0  0  0  0  0  0  0  0
    2.8078    1.3857    0.8485 N   0  0  0  0  0  0  0  0  0  0  0  0
    3.3056    0.4327    1.8503 C   0  0  0  0  0  0  0  0  0  0  0  0
    3.5473   -0.9484    1.2338 C   0  0  0  0  0  0  0  0  0  0  0  0
    4.7068   -0.9142    0.3942 O   0  0  0  0  0  0  0  0  0  0  0  0
    4.9112   -2.1557   -0.2640 C   0  0  0  0  0  0  0  0  0  0  0  0
    0.6849    0.5083    1.2105 N   0  0  0  0  0  0  0  0  0  0  0  0
   -0.5770    0.5039    0.8757 C   0  0  0  0  0  0  0  0  0  0  0  0
   -1.4837   -0.3423    1.4697 N   0  0  0  0  0  0  0  0  0  0  0  0
   -2.3691   -1.1844    0.7417 C   0  0  0  0  0  0  0  0  0  0  0  0
   -3.6837   -1.2874    1.2277 C   0  0  0  0  0  0  0  0  0  0  0  0
   -4.6194   -2.1255    0.6117 C   0  0  0  0  0  0  0  0  0  0  0  0
   -6.2183   -2.1591    1.2631 Cl  0  0  0  0  0  0  0  0  0  0  0  0
   -4.2404   -2.8996   -0.4876 C   0  0  0  0  0  0  0  0  0  0  0  0
   -5.3381   -3.9580   -1.2982 Cl  0  0  0  0  0  0  0  0  0  0  0  0
   -2.9255   -2.8454   -0.9543 C   0  0  0  0  0  0  0  0  0  0  0  0
   -1.9904   -2.0083   -0.3359 C   0  0  0  0  0  0  0  0  0  0  0  0
   -0.3669   -2.0810   -0.9225 Cl  0  0  0  0  0  0  0  0  0  0  0  0
   -1.0909    1.4322   -0.1074 C   0  0  0  0  0  0  0  0  0  0  0  0
   -2.3258    1.7822   -0.6744 C   0  0  0  0  0  0  0  0  0  0  0  0
   -2.2129    2.7629   -1.5841 N   0  0  0  0  0  0  0  0  0  0  0  0
   -0.8881    3.0542   -1.5845 N   0  0  0  0  0  0  0  0  0  0  0  0
   -0.3953    4.0911   -2.4548 C   0  0  0  0  0  0  0  0  0  0  0  0
   -0.2012    2.2828   -0.7039 C   0  0  0  0  0  0  0  0  0  0  0  0
    1.8239    2.8544   -0.7897 H   0  0  0  0  0  0  0  0  0  0  0  0
    4.2511    0.8301    2.2370 H   0  0  0  0  0  0  0  0  0  0  0  0
    2.6255    0.3591    2.7070 H   0  0  0  0  0  0  0  0  0  0  0  0
    3.7272   -1.6711    2.0379 H   0  0  0  0  0  0  0  0  0  0  0  0
    2.6805   -1.2791    0.6514 H   0  0  0  0  0  0  0  0  0  0  0  0
    4.0655   -2.3860   -0.9192 H   0  0  0  0  0  0  0  0  0  0  0  0
    5.8141   -2.0772   -0.8754 H   0  0  0  0  0  0  0  0  0  0  0  0
    5.0521   -2.9587    0.4660 H   0  0  0  0  0  0  0  0  0  0  0  0
   -0.9749   -0.9170    2.1405 H   0  0  0  0  0  0  0  0  0  0  0  0
   -3.9836   -0.6885    2.0869 H   0  0  0  0  0  0  0  0  0  0  0  0
   -2.6240   -3.4677   -1.7945 H   0  0  0  0  0  0  0  0  0  0  0  0
   -3.3086    1.3776   -0.4744 H   0  0  0  0  0  0  0  0  0  0  0  0
   -0.8543    5.0370   -2.1563 H   0  0  0  0  0  0  0  0  0  0  0  0
   -0.6710    3.8394   -3.4820 H   0  0  0  0  0  0  0  0  0  0  0  0
    0.6911    4.1624   -2.3716 H   0  0  0  0  0  0  0  0  0  0  0  0
  1  2  1  0
  2  3  2  3
  3  4  1  0
  4  5  1  0
  5  6  1  0
  6  7  1  0
  2  8  1  0
  8  9  2  0
  9 10  1  0
 10 11  1  0
 11 12  2  0
 12 13  1  0
 13 14  1  0
 13 15  2  0
 15 16  1  0
 15 17  1  0
 17 18  2  0
 18 19  1  0
  9 20  1  0
 20 21  1  0
 21 22  2  0
 22 23  1  0
 23 24  1  0
 23 25  1  0
 25  1  1  0
 18 11  1  0
 25 20  2  0
  1 26  1  0
  4 27  1  0
  4 28  1  0
  5 29  1  0
  5 30  1  0
  7 31  1  0
  7 32  1  0
  7 33  1  0
 10 34  1  0
 12 35  1  0
 17 36  1  0
 21 37  1  0
 24 38  1  0
 24 39  1  0
 24 40  1  0
M  END
>  <ScrubInfo>  (4) 
{"isomerGroup": 0, "isomerId": 3, "confId": 0, "nr_conformers:": 1, "nr_isomers:": 9}

$$$$
_i4
     RDKit          3D

 40 42  0  0  0  0  0  0  0  0999 V2000
   -1.0472    2.2157   -1.3964 N   0  0  0  0  0  0  0  0  0  0  0  0
   -1.7622    1.2762   -0.6610 C   0  0  0  0  0  0  0  0  0  0  0  0
   -0.9877    0.3387   -0.0930 C   0  0  0  0  0  0  0  0  0  0  0  0
   -1.1149   -0.8254    0.7740 C   0  0  0  0  0  0  0  0  0  0  0  0
   -2.1618   -1.4084    1.2561 N   0  0  0  0  0  0  0  0  0  0  0  0
   -3.4540   -0.9644    0.9510 C   0  0  0  0  0  0  0  0  0  0  0  0
   -4.1150   -0.1610    1.8876 C   0  0  0  0  0  0  0  0  0  0  0  0
   -5.4227    0.2760    1.6582 C   0  0  0  0  0  0  0  0  0  0  0  0
   -6.1549    1.2833    2.8549 Cl  0  0  0  0  0  0  0  0  0  0  0  0
   -6.0890   -0.1030    0.4876 C   0  0  0  0  0  0  0  0  0  0  0  0
   -7.7005    0.4079    0.1331 Cl  0  0  0  0  0  0  0  0  0  0  0  0
   -5.4484   -0.9207   -0.4460 C   0  0  0  0  0  0  0  0  0  0  0  0
   -4.1412   -1.3543   -0.2121 C   0  0  0  0  0  0  0  0  0  0  0  0
   -3.3952   -2.3593   -1.4030 Cl  0  0  0  0  0  0  0  0  0  0  0  0
    0.0826   -1.3765    1.1427 N   0  0  0  0  0  0  0  0  0  0  0  0
    1.2303   -0.9509    0.7061 C   0  0  0  0  0  0  0  0  0  0  0  0
    2.3288   -1.6146    1.1615 N   0  0  0  0  0  0  0  0  0  0  0  0
    3.6833   -1.1184    1.0694 C   0  0  0  0  0  0  0  0  0  0  0  0
    4.2913   -1.3877   -0.3114 C   0  0  0  0  0  0  0  0  0  0  0  0
    5.6554   -0.9572   -0.3797 O   0  0  0  0  0  0  0  0  0  0  0  0
    5.7768    0.4286   -0.6732 C   0  0  0  0  0  0  0  0  0  0  0  0
    1.4116    0.0962   -0.1565 N   0  0  0  0  0  0  0  0  0  0  0  0
    0.3596    0.7170   -0.5611 C   0  0  0  0  0  0  0  0  0  0  0  0
    0.2749    1.7996   -1.4371 N   0  0  0  0  0  0  0  0  0  0  0  0
    1.3275    2.7946   -1.5033 C   0  0  0  0  0  0  0  0  0  0  0  0
   -1.4756    2.4388   -2.2985 H   0  0  0  0  0  0  0  0  0  0  0  0
   -2.8349    1.3827   -0.6138 H   0  0  0  0  0  0  0  0  0  0  0  0
   -3.5979    0.1135    2.8048 H   0  0  0  0  0  0  0  0  0  0  0  0
   -5.9672   -1.2247   -1.3521 H   0  0  0  0  0  0  0  0  0  0  0  0
    2.1239   -2.2606    1.9140 H   0  0  0  0  0  0  0  0  0  0  0  0
    4.2996   -1.6168    1.8273 H   0  0  0  0  0  0  0  0  0  0  0  0
    3.7206   -0.0523    1.3193 H   0  0  0  0  0  0  0  0  0  0  0  0
    3.7082   -0.9339   -1.1207 H   0  0  0  0  0  0  0  0  0  0  0  0
    4.2920   -2.4684   -0.4944 H   0  0  0  0  0  0  0  0  0  0  0  0
    5.3224    1.0383    0.1122 H   0  0  0  0  0  0  0  0  0  0  0  0
    5.3191    0.6575   -1.6405 H   0  0  0  0  0  0  0  0  0  0  0  0
    6.8409    0.6741   -0.7276 H   0  0  0  0  0  0  0  0  0  0  0  0
    2.2931    2.3211   -1.7084 H   0  0  0  0  0  0  0  0  0  0  0  0
    1.4012    3.3466   -0.5605 H   0  0  0  0  0  0  0  0  0  0  0  0
    1.1274    3.5078   -2.3095 H   0  0  0  0  0  0  0  0  0  0  0  0
  1  2  1  0
  2  3  2  0
  3  4  1  0
  4  5  2  3
  5  6  1  0
  6  7  2  0
  7  8  1  0
  8  9  1  0
  8 10  2  0
 10 11  1  0
 10 12  1  0
 12 13  2  0
 13 14  1  0
  4 15  1  0
 15 16  2  0
 16 17  1  0
 17 18  1  0
 18 19  1  0
 19 20  1  0
 20 21  1  0
 16 22  1  0
 22 23  2  0
 23 24  1  0
 24 25  1  0
 24  1  1  0
 23  3  1  0
 13  6  1  0
  1 26  1  0
  2 27  1  0
  7 28  1  0
 12 29  1  0
 17 30  1  0
 18 31  1  0
 18 32  1  0
 19 33  1  0
 19 34  1  0
 21 35  1  0
 21 36  1  0
 21 37  1  0
 25 38  1  0
 25 39  1  0
 25 40  1  0
M  END
>  <ScrubInfo>  (5) 
{"isomerGroup": 0, "isomerId": 4, "confId": 0, "nr_conformers:": 1, "nr_isomers:": 9}

$$$$
_i5
     RDKit          3D

 40 42  0  0  0  0  0  0  0  0999 V2000
   -1.3208   -0.5435    0.6665 N   0  0  0  0  0  0  0  0  0  0  0  0
   -0.4531    0.5200    0.6450 C   0  0  0  0  0  0  0  0  0  0  0  0
   -1.0508    1.7272    0.8618 N   0  0  0  0  0  0  0  0  0  0  0  0
   -1.9117    2.3794   -0.1354 C   0  0  0  0  0  0  0  0  0  0  0  0
   -2.8551    1.4608   -0.9222 C   0  0  0  0  0  0  0  0  0  0  0  0
   -3.7234    0.7382   -0.0374 O   0  0  0  0  0  0  0  0  0  0  0  0
   -4.6941   -0.0087   -0.7637 C   0  0  0  0  0  0  0  0  0  0  0  0
    0.8423    0.4437    0.5078 N   0  0  0  0  0  0  0  0  0  0  0  0
    1.4207   -0.8102    0.3315 C   0  0  0  0  0  0  0  0  0  0  0  0
    2.6894   -0.9986    0.1475 N   0  0  0  0  0  0  0  0  0  0  0  0
    3.5251    0.1317    0.1630 C   0  0  0  0  0  0  0  0  0  0  0  0
    3.8740    0.7210   -1.0579 C   0  0  0  0  0  0  0  0  0  0  0  0
    4.7078    1.8415   -1.0962 C   0  0  0  0  0  0  0  0  0  0  0  0
    5.0720    2.5195   -2.6434 Cl  0  0  0  0  0  0  0  0  0  0  0  0
    5.2142    2.3755    0.0942 C   0  0  0  0  0  0  0  0  0  0  0  0
    6.2473    3.7604    0.1209 Cl  0  0  0  0  0  0  0  0  0  0  0  0
    4.8900    1.7851    1.3175 C   0  0  0  0  0  0  0  0  0  0  0  0
    4.0537    0.6668    1.3507 C   0  0  0  0  0  0  0  0  0  0  0  0
    3.6970   -0.0350    2.8900 Cl  0  0  0  0  0  0  0  0  0  0  0  0
    0.5444   -1.9535    0.3422 C   0  0  0  0  0  0  0  0  0  0  0  0
    0.6885   -3.3413    0.2142 C   0  0  0  0  0  0  0  0  0  0  0  0
   -0.4883   -3.9856    0.3002 N   0  0  0  0  0  0  0  0  0  0  0  0
   -1.3873   -2.9902    0.5093 N   0  0  0  0  0  0  0  0  0  0  0  0
   -2.7792   -3.3183    0.6784 C   0  0  0  0  0  0  0  0  0  0  0  0
   -0.7980   -1.7682    0.5170 C   0  0  0  0  0  0  0  0  0  0  0  0
   -2.3010   -0.3261    0.8383 H   0  0  0  0  0  0  0  0  0  0  0  0
   -0.3178    2.3867    1.1176 H   0  0  0  0  0  0  0  0  0  0  0  0
   -2.5103    3.1238    0.4014 H   0  0  0  0  0  0  0  0  0  0  0  0
   -1.2754    2.9210   -0.8449 H   0  0  0  0  0  0  0  0  0  0  0  0
   -3.4616    2.0789   -1.5951 H   0  0  0  0  0  0  0  0  0  0  0  0
   -2.2855    0.7515   -1.5336 H   0  0  0  0  0  0  0  0  0  0  0  0
   -4.2043   -0.7332   -1.4214 H   0  0  0  0  0  0  0  0  0  0  0  0
   -5.3153   -0.5518   -0.0466 H   0  0  0  0  0  0  0  0  0  0  0  0
   -5.3347    0.6601   -1.3463 H   0  0  0  0  0  0  0  0  0  0  0  0
    3.4801    0.2980   -1.9788 H   0  0  0  0  0  0  0  0  0  0  0  0
    5.2880    2.1920    2.2436 H   0  0  0  0  0  0  0  0  0  0  0  0
    1.5951   -3.9128    0.0611 H   0  0  0  0  0  0  0  0  0  0  0  0
   -3.1822   -3.6088   -0.2948 H   0  0  0  0  0  0  0  0  0  0  0  0
   -2.8601   -4.1455    1.3883 H   0  0  0  0  0  0  0  0  0  0  0  0
   -3.3195   -2.4516    1.0652 H   0  0  0  0  0  0  0  0  0  0  0  0
  1  2  1  0
  2  3  1  0
  3  4  1  0
  4  5  1  0
  5  6  1  0
  6  7  1  0
  2  8  2  0
  8  9  1  0
  9 10  2  3
 10 11  1  0
 11 12  2  0
 12 13  1  0
 13 14  1  0
 13 15  2  0
 15 16  1  0
 15 17  1  0
 17 18  2  0
 18 19  1  0
  9 20  1  0
 20 21  1  0
 21 22  2  0
 22 23  1  0
 23 24  1  0
 23 25  1  0
 25  1  1  0
 18 11  1  0
 25 20  2  0
  1 26  1  0
  3 27  1  0
  4 28  1  0
  4 29  1  0
  5 30  1  0
  5 31  1  0
  7 32  1  0
  7 33  1  0
  7 34  1  0
 12 35  1  0
 17 36  1  0
 21 37  1  0
 24 38  1  0
 24 39  1  0
 24 40  1  0
M  END
>  <ScrubInfo>  (6) 
{"isomerGroup": 0, "isomerId": 5, "confId": 0, "nr_conformers:": 1, "nr_isomers:": 9}

$$$$
_i6
     RDKit          3D

 40 42  0  0  0  0  0  0  0  0999 V2000
   -0.7035    0.2604   -2.6805 N   0  0  0  0  0  0  0  0  0  0  0  0
   -1.4706    0.4812   -1.5418 C   0  0  0  0  0  0  0  0  0  0  0  0
   -0.7699    0.3553   -0.4069 C   0  0  0  0  0  0  0  0  0  0  0  0
   -0.9663    0.4854    1.0354 C   0  0  0  0  0  0  0  0  0  0  0  0
   -2.1740    0.7762    1.6370 N   0  0  0  0  0  0  0  0  0  0  0  0
   -3.4128    0.2251    1.2306 C   0  0  0  0  0  0  0  0  0  0  0  0
   -4.4998    1.1090    1.1313 C   0  0  0  0  0  0  0  0  0  0  0  0
   -5.7769    0.6509    0.7899 C   0  0  0  0  0  0  0  0  0  0  0  0
   -7.0401    1.8203    0.6546 Cl  0  0  0  0  0  0  0  0  0  0  0  0
   -5.9903   -0.7126    0.5730 C   0  0  0  0  0  0  0  0  0  0  0  0
   -7.5360   -1.3520    0.1440 Cl  0  0  0  0  0  0  0  0  0  0  0  0
   -4.9315   -1.6116    0.7133 C   0  0  0  0  0  0  0  0  0  0  0  0
   -3.6556   -1.1506    1.0547 C   0  0  0  0  0  0  0  0  0  0  0  0
   -2.4241   -2.3411    1.2794 Cl  0  0  0  0  0  0  0  0  0  0  0  0
    0.0705    0.3482    1.8146 N   0  0  0  0  0  0  0  0  0  0  0  0
    1.2972    0.0614    1.2577 C   0  0  0  0  0  0  0  0  0  0  0  0
    2.2511    0.0095    2.1181 N   0  0  0  0  0  0  0  0  0  0  0  0
    3.6014   -0.3082    1.6512 C   0  0  0  0  0  0  0  0  0  0  0  0
    4.3180    0.9478    1.1484 C   0  0  0  0  0  0  0  0  0  0  0  0
    5.6564    0.6753    0.7215 O   0  0  0  0  0  0  0  0  0  0  0  0
    5.7143    0.0938   -0.5736 C   0  0  0  0  0  0  0  0  0  0  0  0
    1.5689   -0.1532   -0.0747 N   0  0  0  0  0  0  0  0  0  0  0  0
    0.5770   -0.0241   -0.8858 C   0  0  0  0  0  0  0  0  0  0  0  0
    0.5522   -0.1767   -2.2724 N   0  0  0  0  0  0  0  0  0  0  0  0
    1.7110    0.1520   -3.0808 C   0  0  0  0  0  0  0  0  0  0  0  0
   -1.1716   -0.3128   -3.3867 H   0  0  0  0  0  0  0  0  0  0  0  0
   -2.5158    0.7273   -1.6573 H   0  0  0  0  0  0  0  0  0  0  0  0
   -2.0639    0.7086    2.6490 H   0  0  0  0  0  0  0  0  0  0  0  0
   -4.3397    2.1721    1.3076 H   0  0  0  0  0  0  0  0  0  0  0  0
   -5.1029   -2.6767    0.5701 H   0  0  0  0  0  0  0  0  0  0  0  0
    3.6027   -1.1102    0.9044 H   0  0  0  0  0  0  0  0  0  0  0  0
    4.1680   -0.7214    2.4947 H   0  0  0  0  0  0  0  0  0  0  0  0
    4.3884    1.6687    1.9710 H   0  0  0  0  0  0  0  0  0  0  0  0
    3.7633    1.4466    0.3452 H   0  0  0  0  0  0  0  0  0  0  0  0
    5.2549   -0.8978   -0.5817 H   0  0  0  0  0  0  0  0  0  0  0  0
    5.2286    0.7410   -1.3104 H   0  0  0  0  0  0  0  0  0  0  0  0
    6.7664   -0.0156   -0.8510 H   0  0  0  0  0  0  0  0  0  0  0  0
    2.5911   -0.3998   -2.7348 H   0  0  0  0  0  0  0  0  0  0  0  0
    1.9283    1.2241   -3.0316 H   0  0  0  0  0  0  0  0  0  0  0  0
    1.5354   -0.1203   -4.1265 H   0  0  0  0  0  0  0  0  0  0  0  0
  1  2  1  0
  2  3  2  0
  3  4  1  0
  4  5  1  0
  5  6  1  0
  6  7  2  0
  7  8  1  0
  8  9  1  0
  8 10  2  0
 10 11  1  0
 10 12  1  0
 12 13  2  0
 13 14  1  0
  4 15  2  0
 15 16  1  0
 16 17  2  3
 17 18  1  0
 18 19  1  0
 19 20  1  0
 20 21  1  0
 16 22  1  0
 22 23  2  0
 23 24  1  0
 24 25  1  0
 24  1  1  0
 23  3  1  0
 13  6  1  0
  1 26  1  0
  2 27  1  0
  5 28  1  0
  7 29  1  0
 12 30  1  0
 18 31  1  0
 18 32  1  0
 19 33  1  0
 19 34  1  0
 21 35  1  0
 21 36  1  0
 21 37  1  0
 25 38  1  0
 25 39  1  0
 25 40  1  0
M  END
>  <ScrubInfo>  (7) 
{"isomerGroup": 0, "isomerId": 6, "confId": 0, "nr_conformers:": 1, "nr_isomers:": 9}

$$$$
_i7
     RDKit          3D

 40 42  0  0  0  0  0  0  0  0999 V2000
   -1.0815    0.4111   -2.5705 N   0  0  0  0  0  0  0  0  0  0  0  0
   -1.7912    0.2739   -1.3828 C   0  0  0  0  0  0  0  0  0  0  0  0
   -1.0374   -0.1330   -0.3512 C   0  0  0  0  0  0  0  0  0  0  0  0
   -1.1435   -0.4137    1.0946 C   0  0  0  0  0  0  0  0  0  0  0  0
   -2.1906   -0.3799    1.8657 N   0  0  0  0  0  0  0  0  0  0  0  0
   -3.4625   -0.0758    1.3608 C   0  0  0  0  0  0  0  0  0  0  0  0
   -3.9322    1.2362    1.4886 C   0  0  0  0  0  0  0  0  0  0  0  0
   -5.2102    1.5836    1.0412 C   0  0  0  0  0  0  0  0  0  0  0  0
   -5.7022    3.2298    1.2168 Cl  0  0  0  0  0  0  0  0  0  0  0  0
   -6.0387    0.6100    0.4718 C   0  0  0  0  0  0  0  0  0  0  0  0
   -7.6244    0.9699   -0.1106 Cl  0  0  0  0  0  0  0  0  0  0  0  0
   -5.5895   -0.7074    0.3566 C   0  0  0  0  0  0  0  0  0  0  0  0
   -4.3116   -1.0491    0.8049 C   0  0  0  0  0  0  0  0  0  0  0  0
   -3.8032   -2.6919    0.6378 Cl  0  0  0  0  0  0  0  0  0  0  0  0
    0.0644   -0.7419    1.6473 N   0  0  0  0  0  0  0  0  0  0  0  0
    1.2689   -0.8483    1.0121 C   0  0  0  0  0  0  0  0  0  0  0  0
    2.3093   -1.1538    1.7147 N   0  0  0  0  0  0  0  0  0  0  0  0
    3.5982   -1.2920    1.0271 C   0  0  0  0  0  0  0  0  0  0  0  0
    4.3053    0.0570    0.9106 C   0  0  0  0  0  0  0  0  0  0  0  0
    5.5873   -0.1314    0.3050 O   0  0  0  0  0  0  0  0  0  0  0  0
    6.2951    1.0955    0.1945 C   0  0  0  0  0  0  0  0  0  0  0  0
    1.3879   -0.6304   -0.3423 N   0  0  0  0  0  0  0  0  0  0  0  0
    0.3134   -0.3140   -0.9944 C   0  0  0  0  0  0  0  0  0  0  0  0
    0.2016   -0.0713   -2.3642 N   0  0  0  0  0  0  0  0  0  0  0  0
    1.3043    0.4889   -3.1218 C   0  0  0  0  0  0  0  0  0  0  0  0
   -1.5740    0.0408   -3.3873 H   0  0  0  0  0  0  0  0  0  0  0  0
   -2.8449    0.5051   -1.3977 H   0  0  0  0  0  0  0  0  0  0  0  0
   -3.2905    1.9855    1.9474 H   0  0  0  0  0  0  0  0  0  0  0  0
   -6.2346   -1.4681   -0.0770 H   0  0  0  0  0  0  0  0  0  0  0  0
    0.0773   -0.9522    2.6342 H   0  0  0  0  0  0  0  0  0  0  0  0
    3.5124   -1.7781    0.0470 H   0  0  0  0  0  0  0  0  0  0  0  0
    4.2255   -1.9723    1.6162 H   0  0  0  0  0  0  0  0  0  0  0  0
    4.4328    0.4967    1.9071 H   0  0  0  0  0  0  0  0  0  0  0  0
    3.7146    0.7501    0.3010 H   0  0  0  0  0  0  0  0  0  0  0  0
    7.2621    0.8943   -0.2740 H   0  0  0  0  0  0  0  0  0  0  0  0
    5.7430    1.8015   -0.4334 H   0  0  0  0  0  0  0  0  0  0  0  0
    6.4700    1.5280    1.1844 H   0  0  0  0  0  0  0  0  0  0  0  0
    2.2058   -0.1201   -2.9993 H   0  0  0  0  0  0  0  0  0  0  0  0
    1.5231    1.5098   -2.7919 H   0  0  0  0  0  0  0  0  0  0  0  0
    1.0602    0.5128   -4.1889 H   0  0  0  0  0  0  0  0  0  0  0  0
  1  2  1  0
  2  3  2  0
  3  4  1  0
  4  5  2  3
  5  6  1  0
  6  7  2  0
  7  8  1  0
  8  9  1  0
  8 10  2  0
 10 11  1  0
 10 12  1  0
 12 13  2  0
 13 14  1  0
  4 15  1  0
 15 16  1  0
 16 17  2  3
 17 18  1  0
 18 19  1  0
 19 20  1  0
 20 21  1  0
 16 22  1  0
 22 23  2  0
 23 24  1  0
 24 25  1  0
 24  1  1  0
 23  3  1  0
 13  6  1  0
  1 26  1  0
  2 27  1  0
  7 28  1  0
 12 29  1  0
 15 30  1  0
 18 31  1  0
 18 32  1  0
 19 33  1  0
 19 34  1  0
 21 35  1  0
 21 36  1  0
 21 37  1  0
 25 38  1  0
 25 39  1  0
 25 40  1  0
M  END
>  <ScrubInfo>  (8) 
{"isomerGroup": 0, "isomerId": 7, "confId": 0, "nr_conformers:": 1, "nr_isomers:": 9}

$$$$
_i8
     RDKit          3D

 40 42  0  0  0  0  0  0  0  0999 V2000
    1.0880    0.2451   -0.9774 N   0  0  0  0  0  0  0  0  0  0  0  0
    1.2113   -1.1197   -0.7752 C   0  0  0  0  0  0  0  0  0  0  0  0
    2.2244   -1.8766   -1.0312 N   0  0  0  0  0  0  0  0  0  0  0  0
    3.4203   -1.2872   -1.6321 C   0  0  0  0  0  0  0  0  0  0  0  0
    4.3572   -0.7398   -0.5561 C   0  0  0  0  0  0  0  0  0  0  0  0
    5.3271    0.1060   -1.1771 O   0  0  0  0  0  0  0  0  0  0  0  0
    6.2861    0.5746   -0.2372 C   0  0  0  0  0  0  0  0  0  0  0  0
    0.0876   -1.6902   -0.2184 N   0  0  0  0  0  0  0  0  0  0  0  0
   -1.1167   -1.1522    0.1797 C   0  0  0  0  0  0  0  0  0  0  0  0
   -2.0439   -1.8965    0.7043 N   0  0  0  0  0  0  0  0  0  0  0  0
   -3.2661   -1.3831    1.1545 C   0  0  0  0  0  0  0  0  0  0  0  0
   -4.3737   -1.4506    0.3015 C   0  0  0  0  0  0  0  0  0  0  0  0
   -5.6280   -0.9998    0.7239 C   0  0  0  0  0  0  0  0  0  0  0  0
   -6.9375   -1.1044   -0.3975 Cl  0  0  0  0  0  0  0  0  0  0  0  0
   -5.7867   -0.4878    2.0167 C   0  0  0  0  0  0  0  0  0  0  0  0
   -7.3054    0.0896    2.6032 Cl  0  0  0  0  0  0  0  0  0  0  0  0
   -4.6937   -0.4338    2.8847 C   0  0  0  0  0  0  0  0  0  0  0  0
   -3.4433   -0.8871    2.4586 C   0  0  0  0  0  0  0  0  0  0  0  0
   -2.1247   -0.8084    3.5728 Cl  0  0  0  0  0  0  0  0  0  0  0  0
   -1.1547    0.2776   -0.0786 C   0  0  0  0  0  0  0  0  0  0  0  0
   -2.0672    1.3364    0.0813 C   0  0  0  0  0  0  0  0  0  0  0  0
   -1.5809    2.5139   -0.3361 N   0  0  0  0  0  0  0  0  0  0  0  0
   -0.3423    2.2118   -0.7812 N   0  0  0  0  0  0  0  0  0  0  0  0
    0.4945    3.2583   -1.3130 C   0  0  0  0  0  0  0  0  0  0  0  0
   -0.0537    0.8887   -0.6410 C   0  0  0  0  0  0  0  0  0  0  0  0
    1.8820    0.7302   -1.3750 H   0  0  0  0  0  0  0  0  0  0  0  0
    3.1793   -0.5226   -2.3804 H   0  0  0  0  0  0  0  0  0  0  0  0
    3.9462   -2.0663   -2.1972 H   0  0  0  0  0  0  0  0  0  0  0  0
    4.8524   -1.5688   -0.0366 H   0  0  0  0  0  0  0  0  0  0  0  0
    3.7998   -0.1522    0.1825 H   0  0  0  0  0  0  0  0  0  0  0  0
    5.7977    1.1564    0.5505 H   0  0  0  0  0  0  0  0  0  0  0  0
    6.9941    1.2217   -0.7619 H   0  0  0  0  0  0  0  0  0  0  0  0
    6.8365   -0.2645    0.1989 H   0  0  0  0  0  0  0  0  0  0  0  0
    0.1730   -2.6838   -0.0576 H   0  0  0  0  0  0  0  0  0  0  0  0
   -4.2489   -1.8643   -0.6968 H   0  0  0  0  0  0  0  0  0  0  0  0
   -4.8158   -0.0443    3.8927 H   0  0  0  0  0  0  0  0  0  0  0  0
   -3.0707    1.3271    0.4809 H   0  0  0  0  0  0  0  0  0  0  0  0
    1.1247    2.8486   -2.1057 H   0  0  0  0  0  0  0  0  0  0  0  0
    1.1089    3.6486   -0.4982 H   0  0  0  0  0  0  0  0  0  0  0  0
   -0.1375    4.0495   -1.7251 H   0  0  0  0  0  0  0  0  0  0  0  0
  1  2  1  0
  2  3  2  3
  3  4  1  0
  4  5  1  0
  5  6  1  0
  6  7  1  0
  2  8  1  0
  8  9  1  0
  9 10  2  3
 10 11  1  0
 11 12  2  0
 12 13  1  0
 13 14  1  0
 13 15  2  0
 15 16  1  0
 15 17  1  0
 17 18  2  0
 18 19  1  0
  9 20  1  0
 20 21  1  0
 21 22  2  0
 22 23  1  0
 23 24  1  0
 23 25  1  0
 25  1  1  0
 18 11  1  0
 25 20  2  0
  1 26  1  0
  4 27  1  0
  4 28  1  0
  5 29  1  0
  5 30  1  0
  7 31  1  0
  7 32  1  0
  7 33  1  0
  8 34  1  0
 12 35  1  0
 17 36  1  0
 21 37  1  0
 24 38  1  0
 24 39  1  0
 24 40  1  0
M  END
>  <ScrubInfo>  (9) 
{"isomerGroup": 0, "isomerId": 8, "confId": 0, "nr_conformers:": 1, "nr_isomers:": 9}

$$$$
