REMARK SMILES Cc1ccccc1Nc1nc(NCCC(C)C)nc2c1cnn2C
REMARK SMILES IDX 12 1 11 3 9 4 10 5 20 6 19 7 21 8 18 9 23 10 22 11 24 12
REMARK SMILES IDX 8 13 7 15 2 16 3 17 4 18 6 19 5 20 1 21 13 22 14 23 15 24
REMARK SMILES IDX 16 25 17 26
REMARK H PARENT 12 2 8 14
ROOT
ATOM      1  N   UNL     1       2.126   0.127   0.580  1.00  0.00    -0.354 N 
ATOM      2  H   UNL     1       1.930   0.519   1.495  1.00  0.00     0.163 HD
ENDROOT
BRANCH   1   3
ATOM      3  C   UNL     1       0.906  -0.339   0.103  1.00  0.00     0.226 A 
ATOM      4  C   UNL     1      -1.418  -0.209   0.366  1.00  0.00     0.147 A 
ATOM      5  N   UNL     1      -0.168   0.149   0.753  1.00  0.00    -0.195 NA
ATOM      6  C   UNL     1      -1.541  -1.119  -0.685  1.00  0.00     0.082 A 
ATOM      7  C   UNL     1      -0.369  -1.556  -1.269  1.00  0.00     0.165 A 
ATOM      8  C   UNL     1      -2.558  -1.798  -1.386  1.00  0.00     0.149 A 
ATOM      9  N   UNL     1       0.876  -1.200  -0.924  1.00  0.00    -0.193 NA
ATOM     10  N   UNL     1      -0.744  -2.420  -2.262  1.00  0.00    -0.250 N 
ATOM     11  N   UNL     1      -2.083  -2.591  -2.354  1.00  0.00    -0.179 NA
ATOM     12  C   UNL     1       0.126  -3.130  -3.166  1.00  0.00     0.176 C 
BRANCH   4  13
ATOM     13  N   UNL     1      -2.491   0.331   1.094  1.00  0.00    -0.339 N 
ATOM     14  H   UNL     1      -2.087   0.998   1.749  1.00  0.00     0.168 HD
BRANCH  13  15
ATOM     15  C   UNL     1      -3.707   0.836   0.575  1.00  0.00     0.043 A 
ATOM     16  C   UNL     1      -4.852   0.861   1.398  1.00  0.00    -0.028 A 
ATOM     17  C   UNL     1      -6.046   1.418   0.910  1.00  0.00     0.005 A 
ATOM     18  C   UNL     1      -6.104   1.964  -0.371  1.00  0.00     0.000 A 
ATOM     19  C   UNL     1      -3.776   1.421  -0.699  1.00  0.00     0.026 A 
ATOM     20  C   UNL     1      -4.969   1.970  -1.174  1.00  0.00     0.002 A 
ATOM     21  C   UNL     1      -4.821   0.281   2.786  1.00  0.00     0.046 C 
ENDBRANCH  13  15
ENDBRANCH   4  13
ENDBRANCH   1   3
BRANCH   1  22
ATOM     22  C   UNL     1       3.207  -0.841   0.536  1.00  0.00     0.116 C 
BRANCH  22  23
ATOM     23  C   UNL     1       4.471  -0.251   1.170  1.00  0.00     0.024 C 
BRANCH  23  24
ATOM     24  C   UNL     1       5.031   1.003   0.468  1.00  0.00    -0.016 C 
ATOM     25  C   UNL     1       6.242   1.530   1.242  1.00  0.00     0.007 C 
ATOM     26  C   UNL     1       5.424   0.735  -0.985  1.00  0.00     0.007 C 
ENDBRANCH  23  24
ENDBRANCH  22  23
ENDBRANCH   1  22
TORSDOF 6
