_i0
     RDKit          3D

 48 50  0  0  0  0  0  0  0  0999 V2000
   -4.8209    0.2806    2.7857 C   0  0  0  0  0  0  0  0  0  0  0  0
   -4.8522    0.8608    1.3977 C   0  0  0  0  0  0  0  0  0  0  0  0
   -6.0457    1.4176    0.9101 C   0  0  0  0  0  0  0  0  0  0  0  0
   -6.1041    1.9639   -0.3709 C   0  0  0  0  0  0  0  0  0  0  0  0
   -4.9688    1.9700   -1.1736 C   0  0  0  0  0  0  0  0  0  0  0  0
   -3.7765    1.4207   -0.6992 C   0  0  0  0  0  0  0  0  0  0  0  0
   -3.7073    0.8357    0.5749 C   0  0  0  0  0  0  0  0  0  0  0  0
   -2.4912    0.3312    1.0936 N   0  0  0  0  0  0  0  0  0  0  0  0
   -1.4179   -0.2088    0.3664 C   0  0  0  0  0  0  0  0  0  0  0  0
   -0.1676    0.1487    0.7534 N   0  0  0  0  0  0  0  0  0  0  0  0
    0.9060   -0.3386    0.1028 C   0  0  0  0  0  0  0  0  0  0  0  0
    2.1261    0.1274    0.5795 N   0  0  0  0  0  0  0  0  0  0  0  0
    3.2066   -0.8413    0.5357 C   0  0  0  0  0  0  0  0  0  0  0  0
    4.4713   -0.2510    1.1697 C   0  0  0  0  0  0  0  0  0  0  0  0
    5.0306    1.0033    0.4681 C   0  0  0  0  0  0  0  0  0  0  0  0
    6.2421    1.5300    1.2422 C   0  0  0  0  0  0  0  0  0  0  0  0
    5.4240    0.7346   -0.9850 C   0  0  0  0  0  0  0  0  0  0  0  0
    0.8764   -1.2001   -0.9236 N   0  0  0  0  0  0  0  0  0  0  0  0
   -0.3693   -1.5559   -1.2694 C   0  0  0  0  0  0  0  0  0  0  0  0
   -1.5406   -1.1190   -0.6850 C   0  0  0  0  0  0  0  0  0  0  0  0
   -2.5585   -1.7980   -1.3857 C   0  0  0  0  0  0  0  0  0  0  0  0
   -2.0830   -2.5908   -2.3543 N   0  0  0  0  0  0  0  0  0  0  0  0
   -0.7435   -2.4197   -2.2620 N   0  0  0  0  0  0  0  0  0  0  0  0
    0.1256   -3.1302   -3.1655 C   0  0  0  0  0  0  0  0  0  0  0  0
   -5.7982    0.3544    3.2745 H   0  0  0  0  0  0  0  0  0  0  0  0
   -4.0989    0.8204    3.4067 H   0  0  0  0  0  0  0  0  0  0  0  0
   -4.5502   -0.7796    2.7481 H   0  0  0  0  0  0  0  0  0  0  0  0
   -6.9399    1.4298    1.5296 H   0  0  0  0  0  0  0  0  0  0  0  0
   -7.0331    2.3927   -0.7377 H   0  0  0  0  0  0  0  0  0  0  0  0
   -5.0056    2.4102   -2.1667 H   0  0  0  0  0  0  0  0  0  0  0  0
   -2.8968    1.4681   -1.3364 H   0  0  0  0  0  0  0  0  0  0  0  0
   -2.0874    0.9976    1.7493 H   0  0  0  0  0  0  0  0  0  0  0  0
    1.9304    0.5190    1.4948 H   0  0  0  0  0  0  0  0  0  0  0  0
    2.9267   -1.7393    1.1017 H   0  0  0  0  0  0  0  0  0  0  0  0
    3.4197   -1.1550   -0.4924 H   0  0  0  0  0  0  0  0  0  0  0  0
    4.2553   -0.0034    2.2175 H   0  0  0  0  0  0  0  0  0  0  0  0
    5.2435   -1.0310    1.1880 H   0  0  0  0  0  0  0  0  0  0  0  0
    4.2666    1.7903    0.4760 H   0  0  0  0  0  0  0  0  0  0  0  0
    5.9703    1.7667    2.2764 H   0  0  0  0  0  0  0  0  0  0  0  0
    6.6299    2.4455    0.7827 H   0  0  0  0  0  0  0  0  0  0  0  0
    7.0518    0.7926    1.2640 H   0  0  0  0  0  0  0  0  0  0  0  0
    5.8882    1.6206   -1.4318 H   0  0  0  0  0  0  0  0  0  0  0  0
    6.1379   -0.0928   -1.0568 H   0  0  0  0  0  0  0  0  0  0  0  0
    4.5502    0.4866   -1.5950 H   0  0  0  0  0  0  0  0  0  0  0  0
   -3.6286   -1.7444   -1.2289 H   0  0  0  0  0  0  0  0  0  0  0  0
   -0.1439   -2.8565   -4.1888 H   0  0  0  0  0  0  0  0  0  0  0  0
   -0.0163   -4.2022   -3.0067 H   0  0  0  0  0  0  0  0  0  0  0  0
    1.1667   -2.8616   -2.9735 H   0  0  0  0  0  0  0  0  0  0  0  0
  1  2  1  0
  2  3  2  0
  3  4  1  0
  4  5  2  0
  5  6  1  0
  6  7  2  0
  7  8  1  0
  8  9  1  0
  9 10  2  0
 10 11  1  0
 11 12  1  0
 12 13  1  0
 13 14  1  0
 14 15  1  0
 15 16  1  0
 15 17  1  0
 11 18  2  0
 18 19  1  0
 19 20  2  0
 20 21  1  0
 21 22  2  0
 22 23  1  0
 23 24  1  0
  7  2  1  0
 20  9  1  0
 23 19  1  0
  1 25  1  0
  1 26  1  0
  1 27  1  0
  3 28  1  0
  4 29  1  0
  5 30  1  0
  6 31  1  0
  8 32  1  0
 12 33  1  0
 13 34  1  0
 13 35  1  0
 14 36  1  0
 14 37  1  0
 15 38  1  0
 16 39  1  0
 16 40  1  0
 16 41  1  0
 17 42  1  0
 17 43  1  0
 17 44  1  0
 21 45  1  0
 24 46  1  0
 24 47  1  0
 24 48  1  0
M  END
>  <ScrubInfo>  (1) 
{"isomerGroup": 0, "isomerId": 0, "confId": 0, "nr_conformers:": 1, "nr_isomers:": 9}

$$$$
_i1
     RDKit          3D

 48 50  0  0  0  0  0  0  0  0999 V2000
    0.0259   -0.2997   -0.3172 N   0  0  0  0  0  0  0  0  0  0  0  0
    0.6615   -0.5799    0.8649 C   0  0  0  0  0  0  0  0  0  0  0  0
    1.9766   -0.9412    0.7782 N   0  0  0  0  0  0  0  0  0  0  0  0
    2.9439   -0.1822   -0.0042 C   0  0  0  0  0  0  0  0  0  0  0  0
    4.3268   -0.8230    0.1351 C   0  0  0  0  0  0  0  0  0  0  0  0
    5.3945   -0.1806   -0.7689 C   0  0  0  0  0  0  0  0  0  0  0  0
    6.7022   -0.9696   -0.6693 C   0  0  0  0  0  0  0  0  0  0  0  0
    5.6487    1.2864   -0.4193 C   0  0  0  0  0  0  0  0  0  0  0  0
    0.0821   -0.5329    2.0381 N   0  0  0  0  0  0  0  0  0  0  0  0
   -1.2230   -0.1511    1.9353 C   0  0  0  0  0  0  0  0  0  0  0  0
   -1.9482    0.1498    0.7916 C   0  0  0  0  0  0  0  0  0  0  0  0
   -3.2285    0.4808    1.2693 C   0  0  0  0  0  0  0  0  0  0  0  0
   -3.3211    0.4025    2.6033 N   0  0  0  0  0  0  0  0  0  0  0  0
   -2.0843    0.0100    2.9839 N   0  0  0  0  0  0  0  0  0  0  0  0
   -1.8072   -0.1874    4.3842 C   0  0  0  0  0  0  0  0  0  0  0  0
   -1.2906    0.0553   -0.4976 C   0  0  0  0  0  0  0  0  0  0  0  0
   -1.7858    0.2432   -1.6830 N   0  0  0  0  0  0  0  0  0  0  0  0
   -3.1249    0.5971   -1.8788 C   0  0  0  0  0  0  0  0  0  0  0  0
   -3.4645    1.9538   -1.9509 C   0  0  0  0  0  0  0  0  0  0  0  0
   -4.7856    2.3475   -2.1629 C   0  0  0  0  0  0  0  0  0  0  0  0
   -5.7780    1.3839   -2.3187 C   0  0  0  0  0  0  0  0  0  0  0  0
   -5.4481    0.0286   -2.2758 C   0  0  0  0  0  0  0  0  0  0  0  0
   -4.1200   -0.3780   -2.0729 C   0  0  0  0  0  0  0  0  0  0  0  0
   -3.7857   -1.8423   -2.0324 C   0  0  0  0  0  0  0  0  0  0  0  0
    0.5134   -0.5133   -1.1708 H   0  0  0  0  0  0  0  0  0  0  0  0
    2.3181   -1.1181    1.7215 H   0  0  0  0  0  0  0  0  0  0  0  0
    2.9610    0.8516    0.3565 H   0  0  0  0  0  0  0  0  0  0  0  0
    2.6541   -0.1715   -1.0603 H   0  0  0  0  0  0  0  0  0  0  0  0
    4.6480   -0.7754    1.1840 H   0  0  0  0  0  0  0  0  0  0  0  0
    4.2468   -1.8903   -0.1117 H   0  0  0  0  0  0  0  0  0  0  0  0
    5.0508   -0.2308   -1.8098 H   0  0  0  0  0  0  0  0  0  0  0  0
    7.4625   -0.5493   -1.3363 H   0  0  0  0  0  0  0  0  0  0  0  0
    7.1000   -0.9532    0.3512 H   0  0  0  0  0  0  0  0  0  0  0  0
    6.5492   -2.0151   -0.9572 H   0  0  0  0  0  0  0  0  0  0  0  0
    4.7611    1.8994   -0.6029 H   0  0  0  0  0  0  0  0  0  0  0  0
    5.9317    1.4006    0.6325 H   0  0  0  0  0  0  0  0  0  0  0  0
    6.4577    1.6971   -1.0331 H   0  0  0  0  0  0  0  0  0  0  0  0
   -4.1106    0.7775    0.7189 H   0  0  0  0  0  0  0  0  0  0  0  0
   -2.5043   -0.9352    4.7709 H   0  0  0  0  0  0  0  0  0  0  0  0
   -1.9464    0.7665    4.8992 H   0  0  0  0  0  0  0  0  0  0  0  0
   -0.7811   -0.5354    4.5205 H   0  0  0  0  0  0  0  0  0  0  0  0
   -2.6898    2.7072   -1.8358 H   0  0  0  0  0  0  0  0  0  0  0  0
   -5.0376    3.4035   -2.2073 H   0  0  0  0  0  0  0  0  0  0  0  0
   -6.8094    1.6866   -2.4812 H   0  0  0  0  0  0  0  0  0  0  0  0
   -6.2346   -0.7113   -2.4076 H   0  0  0  0  0  0  0  0  0  0  0  0
   -3.5573   -2.1497   -1.0072 H   0  0  0  0  0  0  0  0  0  0  0  0
   -2.9281   -2.0606   -2.6770 H   0  0  0  0  0  0  0  0  0  0  0  0
   -4.6218   -2.4522   -2.3907 H   0  0  0  0  0  0  0  0  0  0  0  0
  1  2  1  0
  2  3  1  0
  3  4  1  0
  4  5  1  0
  5  6  1  0
  6  7  1  0
  6  8  1  0
  2  9  2  0
  9 10  1  0
 10 11  2  0
 11 12  1  0
 12 13  2  0
 13 14  1  0
 14 15  1  0
 11 16  1  0
 16 17  2  3
 17 18  1  0
 18 19  2  0
 19 20  1  0
 20 21  2  0
 21 22  1  0
 22 23  2  0
 23 24  1  0
 16  1  1  0
 23 18  1  0
 14 10  1  0
  1 25  1  0
  3 26  1  0
  4 27  1  0
  4 28  1  0
  5 29  1  0
  5 30  1  0
  6 31  1  0
  7 32  1  0
  7 33  1  0
  7 34  1  0
  8 35  1  0
  8 36  1  0
  8 37  1  0
 12 38  1  0
 15 39  1  0
 15 40  1  0
 15 41  1  0
 19 42  1  0
 20 43  1  0
 21 44  1  0
 22 45  1  0
 24 46  1  0
 24 47  1  0
 24 48  1  0
M  END
>  <ScrubInfo>  (2) 
{"isomerGroup": 0, "isomerId": 1, "confId": 0, "nr_conformers:": 1, "nr_isomers:": 9}

$$$$
_i2
     RDKit          3D

 48 50  0  0  0  0  0  0  0  0999 V2000
    0.2670    0.5647   -0.0455 N   0  0  0  0  0  0  0  0  0  0  0  0
   -1.0741    0.2184   -0.0105 C   0  0  0  0  0  0  0  0  0  0  0  0
   -1.9822    1.1086   -0.5675 N   0  0  0  0  0  0  0  0  0  0  0  0
   -3.3887    0.9985   -0.5278 C   0  0  0  0  0  0  0  0  0  0  0  0
   -4.0717    0.6123   -1.6924 C   0  0  0  0  0  0  0  0  0  0  0  0
   -5.4536    0.4213   -1.6816 C   0  0  0  0  0  0  0  0  0  0  0  0
   -6.1695    0.6058   -0.5036 C   0  0  0  0  0  0  0  0  0  0  0  0
   -5.5060    0.9885    0.6616 C   0  0  0  0  0  0  0  0  0  0  0  0
   -4.1169    1.1987    0.6628 C   0  0  0  0  0  0  0  0  0  0  0  0
   -3.4502    1.6192    1.9448 C   0  0  0  0  0  0  0  0  0  0  0  0
   -1.3446   -0.9730    0.5435 C   0  0  0  0  0  0  0  0  0  0  0  0
   -2.4945   -1.8594    0.7842 C   0  0  0  0  0  0  0  0  0  0  0  0
   -2.1696   -2.9890    1.3631 N   0  0  0  0  0  0  0  0  0  0  0  0
   -0.7905   -2.9073    1.5871 N   0  0  0  0  0  0  0  0  0  0  0  0
   -0.0640   -4.1037    1.9368 C   0  0  0  0  0  0  0  0  0  0  0  0
   -0.2067   -1.7593    1.0780 C   0  0  0  0  0  0  0  0  0  0  0  0
    1.0340   -1.4136    1.0439 N   0  0  0  0  0  0  0  0  0  0  0  0
    1.2925   -0.1862    0.4821 C   0  0  0  0  0  0  0  0  0  0  0  0
    2.5345    0.1405    0.5217 N   0  0  0  0  0  0  0  0  0  0  0  0
    2.9623    1.4090   -0.0482 C   0  0  0  0  0  0  0  0  0  0  0  0
    4.4878    1.5210    0.0311 C   0  0  0  0  0  0  0  0  0  0  0  0
    5.3027    0.6861   -0.9792 C   0  0  0  0  0  0  0  0  0  0  0  0
    5.1376   -0.8213   -0.7933 C   0  0  0  0  0  0  0  0  0  0  0  0
    5.0131    1.0780   -2.4287 C   0  0  0  0  0  0  0  0  0  0  0  0
    0.4650    1.5153   -0.3109 H   0  0  0  0  0  0  0  0  0  0  0  0
   -1.6537    1.4420   -1.4705 H   0  0  0  0  0  0  0  0  0  0  0  0
   -3.5274    0.4398   -2.6176 H   0  0  0  0  0  0  0  0  0  0  0  0
   -5.9691    0.1197   -2.5898 H   0  0  0  0  0  0  0  0  0  0  0  0
   -7.2458    0.4519   -0.4900 H   0  0  0  0  0  0  0  0  0  0  0  0
   -6.0822    1.1288    1.5743 H   0  0  0  0  0  0  0  0  0  0  0  0
   -3.0433    0.7476    2.4655 H   0  0  0  0  0  0  0  0  0  0  0  0
   -2.6465    2.3379    1.7552 H   0  0  0  0  0  0  0  0  0  0  0  0
   -4.1631    2.1153    2.6125 H   0  0  0  0  0  0  0  0  0  0  0  0
   -3.5083   -1.5916    0.4691 H   0  0  0  0  0  0  0  0  0  0  0  0
    0.2098   -4.6603    1.0351 H   0  0  0  0  0  0  0  0  0  0  0  0
   -0.6719   -4.7543    2.5740 H   0  0  0  0  0  0  0  0  0  0  0  0
    0.8502   -3.8591    2.4870 H   0  0  0  0  0  0  0  0  0  0  0  0
    2.5334    2.2300    0.5395 H   0  0  0  0  0  0  0  0  0  0  0  0
    2.6221    1.5228   -1.0824 H   0  0  0  0  0  0  0  0  0  0  0  0
    4.7525    2.5759   -0.1199 H   0  0  0  0  0  0  0  0  0  0  0  0
    4.8170    1.2666    1.0471 H   0  0  0  0  0  0  0  0  0  0  0  0
    6.3594    0.9181   -0.7885 H   0  0  0  0  0  0  0  0  0  0  0  0
    5.8719   -1.3622   -1.4006 H   0  0  0  0  0  0  0  0  0  0  0  0
    4.1457   -1.1651   -1.1019 H   0  0  0  0  0  0  0  0  0  0  0  0
    5.2965   -1.1077    0.2514 H   0  0  0  0  0  0  0  0  0  0  0  0
    5.1189    2.1586   -2.5701 H   0  0  0  0  0  0  0  0  0  0  0  0
    4.0032    0.7887   -2.7357 H   0  0  0  0  0  0  0  0  0  0  0  0
    5.7173    0.5835   -3.1067 H   0  0  0  0  0  0  0  0  0  0  0  0
  1  2  1  0
  2  3  1  0
  3  4  1  0
  4  5  2  0
  5  6  1  0
  6  7  2  0
  7  8  1  0
  8  9  2  0
  9 10  1  0
  2 11  2  0
 11 12  1  0
 12 13  2  0
 13 14  1  0
 14 15  1  0
 14 16  1  0
 16 17  2  0
 17 18  1  0
 18 19  2  3
 19 20  1  0
 20 21  1  0
 21 22  1  0
 22 23  1  0
 22 24  1  0
 18  1  1  0
  9  4  1  0
 16 11  1  0
  1 25  1  0
  3 26  1  0
  5 27  1  0
  6 28  1  0
  7 29  1  0
  8 30  1  0
 10 31  1  0
 10 32  1  0
 10 33  1  0
 12 34  1  0
 15 35  1  0
 15 36  1  0
 15 37  1  0
 20 38  1  0
 20 39  1  0
 21 40  1  0
 21 41  1  0
 22 42  1  0
 23 43  1  0
 23 44  1  0
 23 45  1  0
 24 46  1  0
 24 47  1  0
 24 48  1  0
M  END
>  <ScrubInfo>  (3) 
{"isomerGroup": 0, "isomerId": 2, "confId": 0, "nr_conformers:": 1, "nr_isomers:": 9}

$$$$
_i3
     RDKit          3D

 48 50  0  0  0  0  0  0  0  0999 V2000
    1.3813   -1.7700    0.3026 N   0  0  0  0  0  0  0  0  0  0  0  0
    0.8164   -0.5650   -0.0823 C   0  0  0  0  0  0  0  0  0  0  0  0
    1.4572    0.4897   -0.4430 N   0  0  0  0  0  0  0  0  0  0  0  0
    2.9108    0.4852   -0.4585 C   0  0  0  0  0  0  0  0  0  0  0  0
    3.4252    1.8625   -0.8882 C   0  0  0  0  0  0  0  0  0  0  0  0
    3.3322    2.9992    0.1516 C   0  0  0  0  0  0  0  0  0  0  0  0
    1.8962    3.3666    0.5223 C   0  0  0  0  0  0  0  0  0  0  0  0
    4.1487    2.7073    1.4111 C   0  0  0  0  0  0  0  0  0  0  0  0
   -0.5579   -0.3974   -0.1093 N   0  0  0  0  0  0  0  0  0  0  0  0
   -1.3546   -1.3770    0.2014 C   0  0  0  0  0  0  0  0  0  0  0  0
   -2.7322   -1.3686    0.2355 N   0  0  0  0  0  0  0  0  0  0  0  0
   -3.5222   -0.2135    0.0318 C   0  0  0  0  0  0  0  0  0  0  0  0
   -4.3621    0.2030    1.0822 C   0  0  0  0  0  0  0  0  0  0  0  0
   -5.1290    1.3648    0.9813 C   0  0  0  0  0  0  0  0  0  0  0  0
   -5.0617    2.1381   -0.1704 C   0  0  0  0  0  0  0  0  0  0  0  0
   -4.2354    1.7436   -1.2211 C   0  0  0  0  0  0  0  0  0  0  0  0
   -3.4700    0.5650   -1.1412 C   0  0  0  0  0  0  0  0  0  0  0  0
   -2.6242    0.2000   -2.3313 C   0  0  0  0  0  0  0  0  0  0  0  0
   -0.7961   -2.6607    0.5782 C   0  0  0  0  0  0  0  0  0  0  0  0
   -1.2678   -3.9354    0.9311 C   0  0  0  0  0  0  0  0  0  0  0  0
   -0.2717   -4.7946    1.1952 N   0  0  0  0  0  0  0  0  0  0  0  0
    0.8512   -4.0634    0.9884 N   0  0  0  0  0  0  0  0  0  0  0  0
    2.1371   -4.6869    1.1713 C   0  0  0  0  0  0  0  0  0  0  0  0
    0.5649   -2.7893    0.6146 C   0  0  0  0  0  0  0  0  0  0  0  0
    2.3871   -1.8345    0.2866 H   0  0  0  0  0  0  0  0  0  0  0  0
    3.2635   -0.2494   -1.1930 H   0  0  0  0  0  0  0  0  0  0  0  0
    3.3224    0.2092    0.5176 H   0  0  0  0  0  0  0  0  0  0  0  0
    2.9021    2.1750   -1.8015 H   0  0  0  0  0  0  0  0  0  0  0  0
    4.4819    1.7513   -1.1651 H   0  0  0  0  0  0  0  0  0  0  0  0
    3.7766    3.8855   -0.3216 H   0  0  0  0  0  0  0  0  0  0  0  0
    1.4197    2.5916    1.1303 H   0  0  0  0  0  0  0  0  0  0  0  0
    1.8796    4.2932    1.1069 H   0  0  0  0  0  0  0  0  0  0  0  0
    1.2887    3.5295   -0.3738 H   0  0  0  0  0  0  0  0  0  0  0  0
    3.7130    1.8946    2.0005 H   0  0  0  0  0  0  0  0  0  0  0  0
    5.1774    2.4331    1.1551 H   0  0  0  0  0  0  0  0  0  0  0  0
    4.1909    3.5936    2.0536 H   0  0  0  0  0  0  0  0  0  0  0  0
   -3.1520   -2.0005    0.9037 H   0  0  0  0  0  0  0  0  0  0  0  0
   -4.4095   -0.3673    2.0065 H   0  0  0  0  0  0  0  0  0  0  0  0
   -5.7641    1.6722    1.8074 H   0  0  0  0  0  0  0  0  0  0  0  0
   -5.6454    3.0511   -0.2516 H   0  0  0  0  0  0  0  0  0  0  0  0
   -4.1879    2.3618   -2.1154 H   0  0  0  0  0  0  0  0  0  0  0  0
   -1.6678    0.7294   -2.2958 H   0  0  0  0  0  0  0  0  0  0  0  0
   -2.4438   -0.8776   -2.3886 H   0  0  0  0  0  0  0  0  0  0  0  0
   -3.1350    0.4752   -3.2612 H   0  0  0  0  0  0  0  0  0  0  0  0
   -2.2870   -4.2900    1.0090 H   0  0  0  0  0  0  0  0  0  0  0  0
    2.9311   -3.9484    1.0431 H   0  0  0  0  0  0  0  0  0  0  0  0
    2.1797   -5.1017    2.1816 H   0  0  0  0  0  0  0  0  0  0  0  0
    2.2426   -5.4803    0.4272 H   0  0  0  0  0  0  0  0  0  0  0  0
  1  2  1  0
  2  3  2  3
  3  4  1  0
  4  5  1  0
  5  6  1  0
  6  7  1  0
  6  8  1  0
  2  9  1  0
  9 10  2  0
 10 11  1  0
 11 12  1  0
 12 13  2  0
 13 14  1  0
 14 15  2  0
 15 16  1  0
 16 17  2  0
 17 18  1  0
 10 19  1  0
 19 20  1  0
 20 21  2  0
 21 22  1  0
 22 23  1  0
 22 24  1  0
 24  1  1  0
 17 12  1  0
 24 19  2  0
  1 25  1  0
  4 26  1  0
  4 27  1  0
  5 28  1  0
  5 29  1  0
  6 30  1  0
  7 31  1  0
  7 32  1  0
  7 33  1  0
  8 34  1  0
  8 35  1  0
  8 36  1  0
 11 37  1  0
 13 38  1  0
 14 39  1  0
 15 40  1  0
 16 41  1  0
 18 42  1  0
 18 43  1  0
 18 44  1  0
 20 45  1  0
 23 46  1  0
 23 47  1  0
 23 48  1  0
M  END
>  <ScrubInfo>  (4) 
{"isomerGroup": 0, "isomerId": 3, "confId": 0, "nr_conformers:": 1, "nr_isomers:": 9}

$$$$
_i4
     RDKit          3D

 48 50  0  0  0  0  0  0  0  0999 V2000
   -0.3034   -2.0371    0.0927 N   0  0  0  0  0  0  0  0  0  0  0  0
   -0.0119   -0.7245   -0.2007 C   0  0  0  0  0  0  0  0  0  0  0  0
   -1.0144   -0.0293   -0.8152 N   0  0  0  0  0  0  0  0  0  0  0  0
   -2.3500    0.0498   -0.2344 C   0  0  0  0  0  0  0  0  0  0  0  0
   -3.2440    0.9087   -1.1315 C   0  0  0  0  0  0  0  0  0  0  0  0
   -4.7158    0.9395   -0.6817 C   0  0  0  0  0  0  0  0  0  0  0  0
   -5.5570    1.7007   -1.7092 C   0  0  0  0  0  0  0  0  0  0  0  0
   -4.8904    1.5726    0.6994 C   0  0  0  0  0  0  0  0  0  0  0  0
    1.1191   -0.1214    0.0425 N   0  0  0  0  0  0  0  0  0  0  0  0
    2.1426   -0.8289    0.6605 C   0  0  0  0  0  0  0  0  0  0  0  0
    3.2941   -0.3283    0.9757 N   0  0  0  0  0  0  0  0  0  0  0  0
    3.5331    1.0234    0.6789 C   0  0  0  0  0  0  0  0  0  0  0  0
    3.2134    1.9981    1.6323 C   0  0  0  0  0  0  0  0  0  0  0  0
    3.4602    3.3486    1.3840 C   0  0  0  0  0  0  0  0  0  0  0  0
    4.0396    3.7358    0.1790 C   0  0  0  0  0  0  0  0  0  0  0  0
    4.3791    2.7733   -0.7728 C   0  0  0  0  0  0  0  0  0  0  0  0
    4.1422    1.4112   -0.5284 C   0  0  0  0  0  0  0  0  0  0  0  0
    4.5132    0.3888   -1.5644 C   0  0  0  0  0  0  0  0  0  0  0  0
    1.8926   -2.2164    0.9577 C   0  0  0  0  0  0  0  0  0  0  0  0
    2.6234   -3.2738    1.5151 C   0  0  0  0  0  0  0  0  0  0  0  0
    1.9167   -4.4164    1.5516 N   0  0  0  0  0  0  0  0  0  0  0  0
    0.7212   -4.0750    1.0081 N   0  0  0  0  0  0  0  0  0  0  0  0
   -0.3056   -5.0779    0.8886 C   0  0  0  0  0  0  0  0  0  0  0  0
    0.6776   -2.7646    0.6537 C   0  0  0  0  0  0  0  0  0  0  0  0
   -1.1254   -2.4342   -0.3407 H   0  0  0  0  0  0  0  0  0  0  0  0
   -0.6552    0.9047   -1.0133 H   0  0  0  0  0  0  0  0  0  0  0  0
   -2.7832   -0.9518   -0.1405 H   0  0  0  0  0  0  0  0  0  0  0  0
   -2.2775    0.4857    0.7676 H   0  0  0  0  0  0  0  0  0  0  0  0
   -3.1931    0.5180   -2.1568 H   0  0  0  0  0  0  0  0  0  0  0  0
   -2.8452    1.9309   -1.1742 H   0  0  0  0  0  0  0  0  0  0  0  0
   -5.0918   -0.0905   -0.6372 H   0  0  0  0  0  0  0  0  0  0  0  0
   -5.2309    2.7427   -1.7967 H   0  0  0  0  0  0  0  0  0  0  0  0
   -6.6146    1.6991   -1.4247 H   0  0  0  0  0  0  0  0  0  0  0  0
   -5.4783    1.2362   -2.6979 H   0  0  0  0  0  0  0  0  0  0  0  0
   -5.9513    1.6410    0.9637 H   0  0  0  0  0  0  0  0  0  0  0  0
   -4.4694    2.5832    0.7291 H   0  0  0  0  0  0  0  0  0  0  0  0
   -4.4021    0.9761    1.4759 H   0  0  0  0  0  0  0  0  0  0  0  0
    2.7654    1.6951    2.5743 H   0  0  0  0  0  0  0  0  0  0  0  0
    3.2018    4.0934    2.1311 H   0  0  0  0  0  0  0  0  0  0  0  0
    4.2325    4.7867   -0.0191 H   0  0  0  0  0  0  0  0  0  0  0  0
    4.8354    3.0908   -1.7074 H   0  0  0  0  0  0  0  0  0  0  0  0
    5.1080   -0.4144   -1.1174 H   0  0  0  0  0  0  0  0  0  0  0  0
    3.6113   -0.0352   -2.0170 H   0  0  0  0  0  0  0  0  0  0  0  0
    5.1162    0.8314   -2.3643 H   0  0  0  0  0  0  0  0  0  0  0  0
    3.6389   -3.2651    1.8902 H   0  0  0  0  0  0  0  0  0  0  0  0
   -0.4902   -5.5041    1.8780 H   0  0  0  0  0  0  0  0  0  0  0  0
   -1.2233   -4.6271    0.5049 H   0  0  0  0  0  0  0  0  0  0  0  0
    0.0466   -5.8493    0.1993 H   0  0  0  0  0  0  0  0  0  0  0  0
  1  2  1  0
  2  3  1  0
  3  4  1  0
  4  5  1  0
  5  6  1  0
  6  7  1  0
  6  8  1  0
  2  9  2  0
  9 10  1  0
 10 11  2  3
 11 12  1  0
 12 13  2  0
 13 14  1  0
 14 15  2  0
 15 16  1  0
 16 17  2  0
 17 18  1  0
 10 19  1  0
 19 20  1  0
 20 21  2  0
 21 22  1  0
 22 23  1  0
 22 24  1  0
 24  1  1  0
 17 12  1  0
 24 19  2  0
  1 25  1  0
  3 26  1  0
  4 27  1  0
  4 28  1  0
  5 29  1  0
  5 30  1  0
  6 31  1  0
  7 32  1  0
  7 33  1  0
  7 34  1  0
  8 35  1  0
  8 36  1  0
  8 37  1  0
 13 38  1  0
 14 39  1  0
 15 40  1  0
 16 41  1  0
 18 42  1  0
 18 43  1  0
 18 44  1  0
 20 45  1  0
 23 46  1  0
 23 47  1  0
 23 48  1  0
M  END
>  <ScrubInfo>  (5) 
{"isomerGroup": 0, "isomerId": 4, "confId": 0, "nr_conformers:": 1, "nr_isomers:": 9}

$$$$
_i5
     RDKit          3D

 48 50  0  0  0  0  0  0  0  0999 V2000
   -2.2609    2.9129    0.7836 N   0  0  0  0  0  0  0  0  0  0  0  0
   -2.6676    1.6606    0.3342 C   0  0  0  0  0  0  0  0  0  0  0  0
   -1.6489    0.8578   -0.0104 C   0  0  0  0  0  0  0  0  0  0  0  0
   -1.4291   -0.4777   -0.5511 C   0  0  0  0  0  0  0  0  0  0  0  0
   -2.2667   -1.4160   -0.8449 N   0  0  0  0  0  0  0  0  0  0  0  0
   -3.6397   -1.2345   -0.6461 C   0  0  0  0  0  0  0  0  0  0  0  0
   -4.4172   -0.7279   -1.6948 C   0  0  0  0  0  0  0  0  0  0  0  0
   -5.7897   -0.5370   -1.5369 C   0  0  0  0  0  0  0  0  0  0  0  0
   -6.3994   -0.8653   -0.3292 C   0  0  0  0  0  0  0  0  0  0  0  0
   -5.6404   -1.3971    0.7144 C   0  0  0  0  0  0  0  0  0  0  0  0
   -4.2601   -1.6014    0.5619 C   0  0  0  0  0  0  0  0  0  0  0  0
   -3.4605   -2.1903    1.6898 C   0  0  0  0  0  0  0  0  0  0  0  0
   -0.1115   -0.7708   -0.7857 N   0  0  0  0  0  0  0  0  0  0  0  0
    0.8621    0.0450   -0.5086 C   0  0  0  0  0  0  0  0  0  0  0  0
    2.1168   -0.4026   -0.8019 N   0  0  0  0  0  0  0  0  0  0  0  0
    3.2387    0.4820   -1.0186 C   0  0  0  0  0  0  0  0  0  0  0  0
    4.5305   -0.3188   -1.2024 C   0  0  0  0  0  0  0  0  0  0  0  0
    4.9407   -1.1832    0.0072 C   0  0  0  0  0  0  0  0  0  0  0  0
    6.2007   -1.9833   -0.3342 C   0  0  0  0  0  0  0  0  0  0  0  0
    5.1837   -0.3499    1.2662 C   0  0  0  0  0  0  0  0  0  0  0  0
    0.7229    1.2908    0.0412 N   0  0  0  0  0  0  0  0  0  0  0  0
   -0.4721    1.6891    0.3046 C   0  0  0  0  0  0  0  0  0  0  0  0
   -0.8773    2.8945    0.8800 N   0  0  0  0  0  0  0  0  0  0  0  0
   -0.1361    4.1189    0.6495 C   0  0  0  0  0  0  0  0  0  0  0  0
   -2.7663    3.2242    1.6164 H   0  0  0  0  0  0  0  0  0  0  0  0
   -3.7262    1.4476    0.3039 H   0  0  0  0  0  0  0  0  0  0  0  0
   -3.9423   -0.4844   -2.6419 H   0  0  0  0  0  0  0  0  0  0  0  0
   -6.3807   -0.1413   -2.3584 H   0  0  0  0  0  0  0  0  0  0  0  0
   -7.4699   -0.7227   -0.2040 H   0  0  0  0  0  0  0  0  0  0  0  0
   -6.1351   -1.6655    1.6453 H   0  0  0  0  0  0  0  0  0  0  0  0
   -4.1118   -2.5777    2.4806 H   0  0  0  0  0  0  0  0  0  0  0  0
   -2.8507   -3.0272    1.3341 H   0  0  0  0  0  0  0  0  0  0  0  0
   -2.8107   -1.4283    2.1312 H   0  0  0  0  0  0  0  0  0  0  0  0
    2.0832   -1.2353   -1.3785 H   0  0  0  0  0  0  0  0  0  0  0  0
    3.0593    1.0732   -1.9243 H   0  0  0  0  0  0  0  0  0  0  0  0
    3.3477    1.1885   -0.1892 H   0  0  0  0  0  0  0  0  0  0  0  0
    5.3407    0.3833   -1.4380 H   0  0  0  0  0  0  0  0  0  0  0  0
    4.4188   -0.9692   -2.0802 H   0  0  0  0  0  0  0  0  0  0  0  0
    4.1410   -1.9027    0.2221 H   0  0  0  0  0  0  0  0  0  0  0  0
    6.4854   -2.6354    0.4985 H   0  0  0  0  0  0  0  0  0  0  0  0
    7.0461   -1.3212   -0.5505 H   0  0  0  0  0  0  0  0  0  0  0  0
    6.0332   -2.6179   -1.2109 H   0  0  0  0  0  0  0  0  0  0  0  0
    4.2620    0.1279    1.6117 H   0  0  0  0  0  0  0  0  0  0  0  0
    5.9289    0.4324    1.0869 H   0  0  0  0  0  0  0  0  0  0  0  0
    5.5467   -0.9806    2.0850 H   0  0  0  0  0  0  0  0  0  0  0  0
   -0.1811    4.4085   -0.4056 H   0  0  0  0  0  0  0  0  0  0  0  0
   -0.5503    4.9340    1.2519 H   0  0  0  0  0  0  0  0  0  0  0  0
    0.9135    3.9937    0.9342 H   0  0  0  0  0  0  0  0  0  0  0  0
  1  2  1  0
  2  3  2  0
  3  4  1  0
  4  5  2  3
  5  6  1  0
  6  7  2  0
  7  8  1  0
  8  9  2  0
  9 10  1  0
 10 11  2  0
 11 12  1  0
  4 13  1  0
 13 14  2  0
 14 15  1  0
 15 16  1  0
 16 17  1  0
 17 18  1  0
 18 19  1  0
 18 20  1  0
 14 21  1  0
 21 22  2  0
 22 23  1  0
 23 24  1  0
 23  1  1  0
 22  3  1  0
 11  6  1  0
  1 25  1  0
  2 26  1  0
  7 27  1  0
  8 28  1  0
  9 29  1  0
 10 30  1  0
 12 31  1  0
 12 32  1  0
 12 33  1  0
 15 34  1  0
 16 35  1  0
 16 36  1  0
 17 37  1  0
 17 38  1  0
 18 39  1  0
 19 40  1  0
 19 41  1  0
 19 42  1  0
 20 43  1  0
 20 44  1  0
 20 45  1  0
 24 46  1  0
 24 47  1  0
 24 48  1  0
M  END
>  <ScrubInfo>  (6) 
{"isomerGroup": 0, "isomerId": 5, "confId": 0, "nr_conformers:": 1, "nr_isomers:": 9}

$$$$
_i6
     RDKit          3D

 48 50  0  0  0  0  0  0  0  0999 V2000
   -0.8934    3.9479    0.1948 N   0  0  0  0  0  0  0  0  0  0  0  0
   -1.7895    2.9085    0.4219 C   0  0  0  0  0  0  0  0  0  0  0  0
   -1.2469    1.6978    0.2287 C   0  0  0  0  0  0  0  0  0  0  0  0
   -1.6575    0.2900    0.2781 C   0  0  0  0  0  0  0  0  0  0  0  0
   -2.9502   -0.0167    0.6655 N   0  0  0  0  0  0  0  0  0  0  0  0
   -3.6334   -1.2543    0.6692 C   0  0  0  0  0  0  0  0  0  0  0  0
   -3.1068   -2.4144    0.0823 C   0  0  0  0  0  0  0  0  0  0  0  0
   -3.7903   -3.6336    0.1207 C   0  0  0  0  0  0  0  0  0  0  0  0
   -5.0191   -3.7238    0.7587 C   0  0  0  0  0  0  0  0  0  0  0  0
   -5.5615   -2.5949    1.3645 C   0  0  0  0  0  0  0  0  0  0  0  0
   -4.8804   -1.3629    1.3369 C   0  0  0  0  0  0  0  0  0  0  0  0
   -5.5192   -0.1881    2.0307 C   0  0  0  0  0  0  0  0  0  0  0  0
   -0.7548   -0.5917   -0.0392 N   0  0  0  0  0  0  0  0  0  0  0  0
    0.5061   -0.1958   -0.4211 C   0  0  0  0  0  0  0  0  0  0  0  0
    1.2631   -1.1682   -0.7876 N   0  0  0  0  0  0  0  0  0  0  0  0
    2.6283   -0.8853   -1.2286 C   0  0  0  0  0  0  0  0  0  0  0  0
    3.5760   -0.9303   -0.0276 C   0  0  0  0  0  0  0  0  0  0  0  0
    5.0503   -0.6146   -0.3408 C   0  0  0  0  0  0  0  0  0  0  0  0
    5.6596   -1.5993   -1.3382 C   0  0  0  0  0  0  0  0  0  0  0  0
    5.2441    0.8240   -0.8215 C   0  0  0  0  0  0  0  0  0  0  0  0
    0.9946    1.0905   -0.4318 N   0  0  0  0  0  0  0  0  0  0  0  0
    0.1582    2.0118   -0.1069 C   0  0  0  0  0  0  0  0  0  0  0  0
    0.3616    3.3891   -0.0190 N   0  0  0  0  0  0  0  0  0  0  0  0
    1.2987    4.0617   -0.8988 C   0  0  0  0  0  0  0  0  0  0  0  0
   -0.9381    4.6915    0.8957 H   0  0  0  0  0  0  0  0  0  0  0  0
   -2.7983    3.1515    0.7205 H   0  0  0  0  0  0  0  0  0  0  0  0
   -3.5423    0.7633    0.9077 H   0  0  0  0  0  0  0  0  0  0  0  0
   -2.1522   -2.4006   -0.4363 H   0  0  0  0  0  0  0  0  0  0  0  0
   -3.3515   -4.5095   -0.3504 H   0  0  0  0  0  0  0  0  0  0  0  0
   -5.5498   -4.6712    0.7895 H   0  0  0  0  0  0  0  0  0  0  0  0
   -6.5215   -2.6832    1.8687 H   0  0  0  0  0  0  0  0  0  0  0  0
   -5.7862    0.5825    1.3006 H   0  0  0  0  0  0  0  0  0  0  0  0
   -6.4353   -0.4772    2.5569 H   0  0  0  0  0  0  0  0  0  0  0  0
   -4.8364    0.2318    2.7765 H   0  0  0  0  0  0  0  0  0  0  0  0
    2.9048   -1.6655   -1.9463 H   0  0  0  0  0  0  0  0  0  0  0  0
    2.7015    0.0602   -1.7762 H   0  0  0  0  0  0  0  0  0  0  0  0
    3.2259   -0.2308    0.7424 H   0  0  0  0  0  0  0  0  0  0  0  0
    3.5169   -1.9269    0.4298 H   0  0  0  0  0  0  0  0  0  0  0  0
    5.6035   -0.7196    0.6020 H   0  0  0  0  0  0  0  0  0  0  0  0
    5.5114   -2.6321   -1.0062 H   0  0  0  0  0  0  0  0  0  0  0  0
    5.2204   -1.4930   -2.3352 H   0  0  0  0  0  0  0  0  0  0  0  0
    6.7379   -1.4310   -1.4328 H   0  0  0  0  0  0  0  0  0  0  0  0
    4.7988    0.9889   -1.8075 H   0  0  0  0  0  0  0  0  0  0  0  0
    6.3108    1.0615   -0.8977 H   0  0  0  0  0  0  0  0  0  0  0  0
    4.7942    1.5340   -0.1196 H   0  0  0  0  0  0  0  0  0  0  0  0
    0.9634    4.0061   -1.9397 H   0  0  0  0  0  0  0  0  0  0  0  0
    1.3933    5.1160   -0.6193 H   0  0  0  0  0  0  0  0  0  0  0  0
    2.2914    3.6060   -0.8253 H   0  0  0  0  0  0  0  0  0  0  0  0
  1  2  1  0
  2  3  2  0
  3  4  1  0
  4  5  1  0
  5  6  1  0
  6  7  2  0
  7  8  1  0
  8  9  2  0
  9 10  1  0
 10 11  2  0
 11 12  1  0
  4 13  2  0
 13 14  1  0
 14 15  2  3
 15 16  1  0
 16 17  1  0
 17 18  1  0
 18 19  1  0
 18 20  1  0
 14 21  1  0
 21 22  2  0
 22 23  1  0
 23 24  1  0
 23  1  1  0
 22  3  1  0
 11  6  1  0
  1 25  1  0
  2 26  1  0
  5 27  1  0
  7 28  1  0
  8 29  1  0
  9 30  1  0
 10 31  1  0
 12 32  1  0
 12 33  1  0
 12 34  1  0
 16 35  1  0
 16 36  1  0
 17 37  1  0
 17 38  1  0
 18 39  1  0
 19 40  1  0
 19 41  1  0
 19 42  1  0
 20 43  1  0
 20 44  1  0
 20 45  1  0
 24 46  1  0
 24 47  1  0
 24 48  1  0
M  END
>  <ScrubInfo>  (7) 
{"isomerGroup": 0, "isomerId": 6, "confId": 0, "nr_conformers:": 1, "nr_isomers:": 9}

$$$$
_i7
     RDKit          3D

 48 50  0  0  0  0  0  0  0  0999 V2000
    0.6421   -1.9960    0.1734 N   0  0  0  0  0  0  0  0  0  0  0  0
    0.4854   -0.6766    0.5730 C   0  0  0  0  0  0  0  0  0  0  0  0
    1.3194    0.0655    1.2172 N   0  0  0  0  0  0  0  0  0  0  0  0
    2.6120   -0.4607    1.6367 C   0  0  0  0  0  0  0  0  0  0  0  0
    3.6527   -0.3602    0.5186 C   0  0  0  0  0  0  0  0  0  0  0  0
    4.1371    1.0527    0.1307 C   0  0  0  0  0  0  0  0  0  0  0  0
    3.0566    1.9007   -0.5394 C   0  0  0  0  0  0  0  0  0  0  0  0
    4.7539    1.8071    1.3084 C   0  0  0  0  0  0  0  0  0  0  0  0
   -0.7271   -0.1267    0.2059 N   0  0  0  0  0  0  0  0  0  0  0  0
   -1.7967   -0.6629   -0.4831 C   0  0  0  0  0  0  0  0  0  0  0  0
   -2.9323   -0.1519   -0.8274 N   0  0  0  0  0  0  0  0  0  0  0  0
   -3.1817    1.1815   -0.4683 C   0  0  0  0  0  0  0  0  0  0  0  0
   -2.8024    2.2045   -1.3454 C   0  0  0  0  0  0  0  0  0  0  0  0
   -3.0148    3.5421   -1.0134 C   0  0  0  0  0  0  0  0  0  0  0  0
   -3.6176    3.8668    0.1986 C   0  0  0  0  0  0  0  0  0  0  0  0
   -4.0177    2.8551    1.0727 C   0  0  0  0  0  0  0  0  0  0  0  0
   -3.8167    1.5057    0.7437 C   0  0  0  0  0  0  0  0  0  0  0  0
   -4.2556    0.4297    1.6963 C   0  0  0  0  0  0  0  0  0  0  0  0
   -1.5328   -2.0334   -0.8502 C   0  0  0  0  0  0  0  0  0  0  0  0
   -2.2411   -3.0321   -1.5335 C   0  0  0  0  0  0  0  0  0  0  0  0
   -1.5474   -4.1776   -1.6213 N   0  0  0  0  0  0  0  0  0  0  0  0
   -0.3807   -3.9003   -0.9895 N   0  0  0  0  0  0  0  0  0  0  0  0
    0.6204   -4.9323   -0.8947 C   0  0  0  0  0  0  0  0  0  0  0  0
   -0.3409   -2.6257   -0.5108 C   0  0  0  0  0  0  0  0  0  0  0  0
    1.5188   -2.4447    0.3978 H   0  0  0  0  0  0  0  0  0  0  0  0
    2.5267   -1.5011    1.9725 H   0  0  0  0  0  0  0  0  0  0  0  0
    2.9429    0.0940    2.5206 H   0  0  0  0  0  0  0  0  0  0  0  0
    3.2771   -0.8616   -0.3821 H   0  0  0  0  0  0  0  0  0  0  0  0
    4.5323   -0.9350    0.8379 H   0  0  0  0  0  0  0  0  0  0  0  0
    4.9332    0.9096   -0.6127 H   0  0  0  0  0  0  0  0  0  0  0  0
    2.5661    1.3467   -1.3464 H   0  0  0  0  0  0  0  0  0  0  0  0
    2.2928    2.2295    0.1714 H   0  0  0  0  0  0  0  0  0  0  0  0
    3.4993    2.8021   -0.9778 H   0  0  0  0  0  0  0  0  0  0  0  0
    5.5227    1.2022    1.8003 H   0  0  0  0  0  0  0  0  0  0  0  0
    5.2282    2.7326    0.9641 H   0  0  0  0  0  0  0  0  0  0  0  0
    4.0020    2.0812    2.0552 H   0  0  0  0  0  0  0  0  0  0  0  0
   -0.8297    0.8339    0.5011 H   0  0  0  0  0  0  0  0  0  0  0  0
   -2.3376    1.9516   -2.2950 H   0  0  0  0  0  0  0  0  0  0  0  0
   -2.7139    4.3274   -1.7016 H   0  0  0  0  0  0  0  0  0  0  0  0
   -3.7855    4.9084    0.4608 H   0  0  0  0  0  0  0  0  0  0  0  0
   -4.4961    3.1260    2.0115 H   0  0  0  0  0  0  0  0  0  0  0  0
   -4.8401   -0.3339    1.1728 H   0  0  0  0  0  0  0  0  0  0  0  0
   -3.3841   -0.0376    2.1654 H   0  0  0  0  0  0  0  0  0  0  0  0
   -4.8913    0.8351    2.4907 H   0  0  0  0  0  0  0  0  0  0  0  0
   -3.2304   -2.9752   -1.9693 H   0  0  0  0  0  0  0  0  0  0  0  0
    1.5600   -4.5090   -0.5342 H   0  0  0  0  0  0  0  0  0  0  0  0
    0.2607   -5.6940   -0.1985 H   0  0  0  0  0  0  0  0  0  0  0  0
    0.7717   -5.3632   -1.8879 H   0  0  0  0  0  0  0  0  0  0  0  0
  1  2  1  0
  2  3  2  3
  3  4  1  0
  4  5  1  0
  5  6  1  0
  6  7  1  0
  6  8  1  0
  2  9  1  0
  9 10  1  0
 10 11  2  3
 11 12  1  0
 12 13  2  0
 13 14  1  0
 14 15  2  0
 15 16  1  0
 16 17  2  0
 17 18  1  0
 10 19  1  0
 19 20  1  0
 20 21  2  0
 21 22  1  0
 22 23  1  0
 22 24  1  0
 24  1  1  0
 17 12  1  0
 24 19  2  0
  1 25  1  0
  4 26  1  0
  4 27  1  0
  5 28  1  0
  5 29  1  0
  6 30  1  0
  7 31  1  0
  7 32  1  0
  7 33  1  0
  8 34  1  0
  8 35  1  0
  8 36  1  0
  9 37  1  0
 13 38  1  0
 14 39  1  0
 15 40  1  0
 16 41  1  0
 18 42  1  0
 18 43  1  0
 18 44  1  0
 20 45  1  0
 23 46  1  0
 23 47  1  0
 23 48  1  0
M  END
>  <ScrubInfo>  (8) 
{"isomerGroup": 0, "isomerId": 7, "confId": 0, "nr_conformers:": 1, "nr_isomers:": 9}

$$$$
_i8
     RDKit          3D

 48 50  0  0  0  0  0  0  0  0999 V2000
   -1.3210    2.6738   -0.4621 N   0  0  0  0  0  0  0  0  0  0  0  0
   -2.1037    1.5405   -0.2706 C   0  0  0  0  0  0  0  0  0  0  0  0
   -1.4010    0.4584    0.0931 C   0  0  0  0  0  0  0  0  0  0  0  0
   -1.5968   -0.9728    0.3984 C   0  0  0  0  0  0  0  0  0  0  0  0
   -2.6981   -1.6634    0.4381 N   0  0  0  0  0  0  0  0  0  0  0  0
   -3.9327   -1.0587    0.1708 C   0  0  0  0  0  0  0  0  0  0  0  0
   -4.4161   -1.0528   -1.1433 C   0  0  0  0  0  0  0  0  0  0  0  0
   -5.6453   -0.4683   -1.4477 C   0  0  0  0  0  0  0  0  0  0  0  0
   -6.4088    0.1047   -0.4344 C   0  0  0  0  0  0  0  0  0  0  0  0
   -5.9501    0.0818    0.8835 C   0  0  0  0  0  0  0  0  0  0  0  0
   -4.7184   -0.5117    1.2013 C   0  0  0  0  0  0  0  0  0  0  0  0
   -4.2465   -0.5383    2.6276 C   0  0  0  0  0  0  0  0  0  0  0  0
   -0.4152   -1.6089    0.6666 N   0  0  0  0  0  0  0  0  0  0  0  0
    0.8379   -1.0656    0.6819 C   0  0  0  0  0  0  0  0  0  0  0  0
    1.8418   -1.8448    0.9182 N   0  0  0  0  0  0  0  0  0  0  0  0
    3.1878   -1.2663    0.9487 C   0  0  0  0  0  0  0  0  0  0  0  0
    3.7894   -1.2850   -0.4579 C   0  0  0  0  0  0  0  0  0  0  0  0
    5.2528   -0.8107   -0.5053 C   0  0  0  0  0  0  0  0  0  0  0  0
    5.8242   -1.0306   -1.9083 C   0  0  0  0  0  0  0  0  0  0  0  0
    5.3986    0.6613   -0.1153 C   0  0  0  0  0  0  0  0  0  0  0  0
    1.0414    0.2777    0.4500 N   0  0  0  0  0  0  0  0  0  0  0  0
   -0.0005    1.0031    0.1870 C   0  0  0  0  0  0  0  0  0  0  0  0
   -0.0262    2.3775   -0.0618 N   0  0  0  0  0  0  0  0  0  0  0  0
    1.0856    3.0360   -0.7212 C   0  0  0  0  0  0  0  0  0  0  0  0
   -1.7333    3.5218   -0.0664 H   0  0  0  0  0  0  0  0  0  0  0  0
   -3.1694    1.6243   -0.4253 H   0  0  0  0  0  0  0  0  0  0  0  0
   -3.8254   -1.5098   -1.9329 H   0  0  0  0  0  0  0  0  0  0  0  0
   -6.0075   -0.4678   -2.4722 H   0  0  0  0  0  0  0  0  0  0  0  0
   -7.3694    0.5576   -0.6673 H   0  0  0  0  0  0  0  0  0  0  0  0
   -6.5665    0.5198    1.6656 H   0  0  0  0  0  0  0  0  0  0  0  0
   -3.4033    0.1469    2.7598 H   0  0  0  0  0  0  0  0  0  0  0  0
   -3.9415   -1.5501    2.9137 H   0  0  0  0  0  0  0  0  0  0  0  0
   -5.0410   -0.2328    3.3166 H   0  0  0  0  0  0  0  0  0  0  0  0
   -0.4616   -2.5978    0.8603 H   0  0  0  0  0  0  0  0  0  0  0  0
    3.1971   -0.2638    1.3895 H   0  0  0  0  0  0  0  0  0  0  0  0
    3.7998   -1.8886    1.6122 H   0  0  0  0  0  0  0  0  0  0  0  0
    3.1799   -0.6706   -1.1328 H   0  0  0  0  0  0  0  0  0  0  0  0
    3.7317   -2.3104   -0.8466 H   0  0  0  0  0  0  0  0  0  0  0  0
    5.8430   -1.4136    0.1962 H   0  0  0  0  0  0  0  0  0  0  0  0
    6.8769   -0.7315   -1.9514 H   0  0  0  0  0  0  0  0  0  0  0  0
    5.2753   -0.4489   -2.6569 H   0  0  0  0  0  0  0  0  0  0  0  0
    5.7672   -2.0871   -2.1908 H   0  0  0  0  0  0  0  0  0  0  0  0
    4.7710    1.3026   -0.7434 H   0  0  0  0  0  0  0  0  0  0  0  0
    6.4371    0.9913   -0.2273 H   0  0  0  0  0  0  0  0  0  0  0  0
    5.1183    0.8275    0.9290 H   0  0  0  0  0  0  0  0  0  0  0  0
    1.1970    2.6754   -1.7491 H   0  0  0  0  0  0  0  0  0  0  0  0
    0.9255    4.1187   -0.7477 H   0  0  0  0  0  0  0  0  0  0  0  0
    2.0198    2.8501   -0.1814 H   0  0  0  0  0  0  0  0  0  0  0  0
  1  2  1  0
  2  3  2  0
  3  4  1  0
  4  5  2  3
  5  6  1  0
  6  7  2  0
  7  8  1  0
  8  9  2  0
  9 10  1  0
 10 11  2  0
 11 12  1  0
  4 13  1  0
 13 14  1  0
 14 15  2  3
 15 16  1  0
 16 17  1  0
 17 18  1  0
 18 19  1  0
 18 20  1  0
 14 21  1  0
 21 22  2  0
 22 23  1  0
 23 24  1  0
 23  1  1  0
 22  3  1  0
 11  6  1  0
  1 25  1  0
  2 26  1  0
  7 27  1  0
  8 28  1  0
  9 29  1  0
 10 30  1  0
 12 31  1  0
 12 32  1  0
 12 33  1  0
 13 34  1  0
 16 35  1  0
 16 36  1  0
 17 37  1  0
 17 38  1  0
 18 39  1  0
 19 40  1  0
 19 41  1  0
 19 42  1  0
 20 43  1  0
 20 44  1  0
 20 45  1  0
 24 46  1  0
 24 47  1  0
 24 48  1  0
M  END
>  <ScrubInfo>  (9) 
{"isomerGroup": 0, "isomerId": 8, "confId": 0, "nr_conformers:": 1, "nr_isomers:": 9}

$$$$
