_i0
     RDKit          3D

 49 51  0  0  0  0  0  0  0  0999 V2000
    7.8455    0.5447    0.4009 C   0  0  0  0  0  0  0  0  0  0  0  0
    6.5714    0.3713    1.0077 O   0  0  0  0  0  0  0  0  0  0  0  0
    5.7471   -0.5175    0.2565 C   0  0  0  0  0  0  0  0  0  0  0  0
    4.4111   -0.6970    0.9658 C   0  0  0  0  0  0  0  0  0  0  0  0
    3.6749    0.6328    1.1298 C   0  0  0  0  0  0  0  0  0  0  0  0
    2.3479    0.4166    1.6894 N   0  0  0  0  0  0  0  0  0  0  0  0
    1.3094    0.3154    0.7719 C   0  0  0  0  0  0  0  0  0  0  0  0
    0.1399    0.8273    1.1996 N   0  0  0  0  0  0  0  0  0  0  0  0
   -0.9587    0.7762    0.4051 C   0  0  0  0  0  0  0  0  0  0  0  0
   -2.1448    1.3273    0.9274 N   0  0  0  0  0  0  0  0  0  0  0  0
   -3.4377    0.7996    0.7162 C   0  0  0  0  0  0  0  0  0  0  0  0
   -4.3826    1.6307    0.0918 C   0  0  0  0  0  0  0  0  0  0  0  0
   -5.6955    1.2017   -0.1588 C   0  0  0  0  0  0  0  0  0  0  0  0
   -6.6531    2.1333   -0.8460 C   0  0  0  0  0  0  0  0  0  0  0  0
   -6.0571   -0.0893    0.2427 C   0  0  0  0  0  0  0  0  0  0  0  0
   -7.8005   -0.7830   -0.0541 Br  0  0  0  0  0  0  0  0  0  0  0  0
   -5.1332   -0.9182    0.8886 C   0  0  0  0  0  0  0  0  0  0  0  0
   -3.8247   -0.4798    1.1509 C   0  0  0  0  0  0  0  0  0  0  0  0
   -2.8777   -1.4127    1.8553 C   0  0  0  0  0  0  0  0  0  0  0  0
   -0.8255    0.1968   -0.8580 C   0  0  0  0  0  0  0  0  0  0  0  0
   -1.6178   -0.0701   -1.9934 C   0  0  0  0  0  0  0  0  0  0  0  0
   -0.9373   -0.6814   -2.9711 N   0  0  0  0  0  0  0  0  0  0  0  0
    0.3047   -0.8068   -2.4492 N   0  0  0  0  0  0  0  0  0  0  0  0
    1.3392   -1.4397   -3.2273 C   0  0  0  0  0  0  0  0  0  0  0  0
    0.4231   -0.2904   -1.1882 C   0  0  0  0  0  0  0  0  0  0  0  0
    1.5217   -0.2598   -0.4200 N   0  0  0  0  0  0  0  0  0  0  0  0
    8.4286    1.2351    1.0162 H   0  0  0  0  0  0  0  0  0  0  0  0
    7.7376    0.9737   -0.5999 H   0  0  0  0  0  0  0  0  0  0  0  0
    8.3772   -0.4102    0.3471 H   0  0  0  0  0  0  0  0  0  0  0  0
    5.5899   -0.1113   -0.7496 H   0  0  0  0  0  0  0  0  0  0  0  0
    6.2449   -1.4901    0.1682 H   0  0  0  0  0  0  0  0  0  0  0  0
    4.5793   -1.1295    1.9602 H   0  0  0  0  0  0  0  0  0  0  0  0
    3.8047   -1.4153    0.4032 H   0  0  0  0  0  0  0  0  0  0  0  0
    3.6346    1.1900    0.1849 H   0  0  0  0  0  0  0  0  0  0  0  0
    4.2331    1.2640    1.8318 H   0  0  0  0  0  0  0  0  0  0  0  0
    2.0522    1.1184    2.3601 H   0  0  0  0  0  0  0  0  0  0  0  0
   -1.9626    1.4588    1.9213 H   0  0  0  0  0  0  0  0  0  0  0  0
   -4.0737    2.6297   -0.2140 H   0  0  0  0  0  0  0  0  0  0  0  0
   -6.9887    1.7052   -1.7959 H   0  0  0  0  0  0  0  0  0  0  0  0
   -7.5175    2.3357   -0.2056 H   0  0  0  0  0  0  0  0  0  0  0  0
   -6.1834    3.0970   -1.0713 H   0  0  0  0  0  0  0  0  0  0  0  0
   -5.4352   -1.9172    1.1983 H   0  0  0  0  0  0  0  0  0  0  0  0
   -2.2079   -1.8894    1.1334 H   0  0  0  0  0  0  0  0  0  0  0  0
   -2.2877   -0.8793    2.6073 H   0  0  0  0  0  0  0  0  0  0  0  0
   -3.4218   -2.2017    2.3859 H   0  0  0  0  0  0  0  0  0  0  0  0
   -2.6651    0.1549   -2.1489 H   0  0  0  0  0  0  0  0  0  0  0  0
    1.4779   -0.8653   -4.1468 H   0  0  0  0  0  0  0  0  0  0  0  0
    1.0209   -2.4594   -3.4581 H   0  0  0  0  0  0  0  0  0  0  0  0
    2.2731   -1.4630   -2.6612 H   0  0  0  0  0  0  0  0  0  0  0  0
  1  2  1  0
  2  3  1  0
  3  4  1  0
  4  5  1  0
  5  6  1  0
  6  7  1  0
  7  8  2  0
  8  9  1  0
  9 10  1  0
 10 11  1  0
 11 12  2  0
 12 13  1  0
 13 14  1  0
 13 15  2  0
 15 16  1  0
 15 17  1  0
 17 18  2  0
 18 19  1  0
  9 20  2  0
 20 21  1  0
 21 22  2  0
 22 23  1  0
 23 24  1  0
 23 25  1  0
 25 26  2  0
 26  7  1  0
 18 11  1  0
 25 20  1  0
  1 27  1  0
  1 28  1  0
  1 29  1  0
  3 30  1  0
  3 31  1  0
  4 32  1  0
  4 33  1  0
  5 34  1  0
  5 35  1  0
  6 36  1  0
 10 37  1  0
 12 38  1  0
 14 39  1  0
 14 40  1  0
 14 41  1  0
 17 42  1  0
 19 43  1  0
 19 44  1  0
 19 45  1  0
 21 46  1  0
 24 47  1  0
 24 48  1  0
 24 49  1  0
M  END
>  <ScrubInfo>  (1) 
{"isomerGroup": 0, "isomerId": 0, "confId": 0, "nr_conformers:": 1, "nr_isomers:": 9}

$$$$
_i1
     RDKit          3D

 49 51  0  0  0  0  0  0  0  0999 V2000
   -0.4687    0.2229    0.2017 N   0  0  0  0  0  0  0  0  0  0  0  0
   -1.2334   -0.1122    1.3019 C   0  0  0  0  0  0  0  0  0  0  0  0
   -2.5864    0.1824    1.3822 N   0  0  0  0  0  0  0  0  0  0  0  0
   -3.4271    0.3632    0.2609 C   0  0  0  0  0  0  0  0  0  0  0  0
   -4.1401    1.5712    0.1784 C   0  0  0  0  0  0  0  0  0  0  0  0
   -5.0435    1.8313   -0.8648 C   0  0  0  0  0  0  0  0  0  0  0  0
   -5.7502    3.1565   -0.9107 C   0  0  0  0  0  0  0  0  0  0  0  0
   -5.2448    0.8368   -1.8280 C   0  0  0  0  0  0  0  0  0  0  0  0
   -6.4331    1.0781   -3.2900 Br  0  0  0  0  0  0  0  0  0  0  0  0
   -4.5745   -0.3874   -1.7348 C   0  0  0  0  0  0  0  0  0  0  0  0
   -3.6843   -0.6498   -0.6795 C   0  0  0  0  0  0  0  0  0  0  0  0
   -3.0172   -1.9971   -0.6233 C   0  0  0  0  0  0  0  0  0  0  0  0
   -0.5633   -0.7281    2.2833 C   0  0  0  0  0  0  0  0  0  0  0  0
   -0.8433   -1.2986    3.6050 C   0  0  0  0  0  0  0  0  0  0  0  0
    0.2075   -1.8427    4.1640 N   0  0  0  0  0  0  0  0  0  0  0  0
    1.2647   -1.6185    3.2671 N   0  0  0  0  0  0  0  0  0  0  0  0
    2.4966   -2.3491    3.4401 C   0  0  0  0  0  0  0  0  0  0  0  0
    0.8799   -0.9968    2.0898 C   0  0  0  0  0  0  0  0  0  0  0  0
    1.5668   -0.7057    1.0379 N   0  0  0  0  0  0  0  0  0  0  0  0
    0.8607   -0.0657    0.0422 C   0  0  0  0  0  0  0  0  0  0  0  0
    1.4401    0.2811   -1.0579 N   0  0  0  0  0  0  0  0  0  0  0  0
    2.8594   -0.0369   -1.2393 C   0  0  0  0  0  0  0  0  0  0  0  0
    3.7170    1.1161   -0.7212 C   0  0  0  0  0  0  0  0  0  0  0  0
    5.2043    0.7903   -0.7769 C   0  0  0  0  0  0  0  0  0  0  0  0
    5.6040    0.5863   -2.1308 O   0  0  0  0  0  0  0  0  0  0  0  0
    6.9889    0.2842   -2.2297 C   0  0  0  0  0  0  0  0  0  0  0  0
   -0.9257    0.7007   -0.5616 H   0  0  0  0  0  0  0  0  0  0  0  0
   -3.0812   -0.2774    2.1415 H   0  0  0  0  0  0  0  0  0  0  0  0
   -3.9645    2.3322    0.9379 H   0  0  0  0  0  0  0  0  0  0  0  0
   -5.4645    3.7931   -0.0662 H   0  0  0  0  0  0  0  0  0  0  0  0
   -5.4922    3.6966   -1.8271 H   0  0  0  0  0  0  0  0  0  0  0  0
   -6.8344    3.0148   -0.8576 H   0  0  0  0  0  0  0  0  0  0  0  0
   -4.7534   -1.1536   -2.4873 H   0  0  0  0  0  0  0  0  0  0  0  0
   -2.9693   -2.3701    0.4047 H   0  0  0  0  0  0  0  0  0  0  0  0
   -2.0080   -1.9393   -1.0412 H   0  0  0  0  0  0  0  0  0  0  0  0
   -3.5807   -2.7403   -1.1982 H   0  0  0  0  0  0  0  0  0  0  0  0
   -1.8526   -1.2702    4.0345 H   0  0  0  0  0  0  0  0  0  0  0  0
    2.4231   -3.3356    2.9720 H   0  0  0  0  0  0  0  0  0  0  0  0
    2.7206   -2.4858    4.5031 H   0  0  0  0  0  0  0  0  0  0  0  0
    3.3364   -1.8109    2.9890 H   0  0  0  0  0  0  0  0  0  0  0  0
    3.1406   -0.9874   -0.7702 H   0  0  0  0  0  0  0  0  0  0  0  0
    3.0338   -0.1740   -2.3129 H   0  0  0  0  0  0  0  0  0  0  0  0
    3.5111    2.0081   -1.3257 H   0  0  0  0  0  0  0  0  0  0  0  0
    3.4444    1.3572    0.3127 H   0  0  0  0  0  0  0  0  0  0  0  0
    5.7736    1.6267   -0.3552 H   0  0  0  0  0  0  0  0  0  0  0  0
    5.4175   -0.1099   -0.1886 H   0  0  0  0  0  0  0  0  0  0  0  0
    7.5904    1.1113   -1.8404 H   0  0  0  0  0  0  0  0  0  0  0  0
    7.2354    0.1396   -3.2849 H   0  0  0  0  0  0  0  0  0  0  0  0
    7.2195   -0.6378   -1.6874 H   0  0  0  0  0  0  0  0  0  0  0  0
  1  2  1  0
  2  3  1  0
  3  4  1  0
  4  5  2  0
  5  6  1  0
  6  7  1  0
  6  8  2  0
  8  9  1  0
  8 10  1  0
 10 11  2  0
 11 12  1  0
  2 13  2  0
 13 14  1  0
 14 15  2  0
 15 16  1  0
 16 17  1  0
 16 18  1  0
 18 19  2  0
 19 20  1  0
 20 21  2  3
 21 22  1  0
 22 23  1  0
 23 24  1  0
 24 25  1  0
 25 26  1  0
 20  1  1  0
 11  4  1  0
 18 13  1  0
  1 27  1  0
  3 28  1  0
  5 29  1  0
  7 30  1  0
  7 31  1  0
  7 32  1  0
 10 33  1  0
 12 34  1  0
 12 35  1  0
 12 36  1  0
 14 37  1  0
 17 38  1  0
 17 39  1  0
 17 40  1  0
 22 41  1  0
 22 42  1  0
 23 43  1  0
 23 44  1  0
 24 45  1  0
 24 46  1  0
 26 47  1  0
 26 48  1  0
 26 49  1  0
M  END
>  <ScrubInfo>  (2) 
{"isomerGroup": 0, "isomerId": 1, "confId": 0, "nr_conformers:": 1, "nr_isomers:": 9}

$$$$
_i2
     RDKit          3D

 49 51  0  0  0  0  0  0  0  0999 V2000
    0.7345    0.1505   -0.5887 N   0  0  0  0  0  0  0  0  0  0  0  0
    1.6139   -0.8657   -0.3018 C   0  0  0  0  0  0  0  0  0  0  0  0
    2.8682   -0.6300   -0.7915 N   0  0  0  0  0  0  0  0  0  0  0  0
    3.9856   -1.4928   -0.4421 C   0  0  0  0  0  0  0  0  0  0  0  0
    5.2792   -0.9651   -1.0657 C   0  0  0  0  0  0  0  0  0  0  0  0
    5.7514    0.3422   -0.4304 C   0  0  0  0  0  0  0  0  0  0  0  0
    4.7684    1.3619   -0.6356 O   0  0  0  0  0  0  0  0  0  0  0  0
    5.1875    2.6053   -0.0825 C   0  0  0  0  0  0  0  0  0  0  0  0
    1.2834   -1.9475    0.3552 N   0  0  0  0  0  0  0  0  0  0  0  0
   -0.0270   -1.9300    0.7293 C   0  0  0  0  0  0  0  0  0  0  0  0
   -0.9830   -0.9555    0.4853 C   0  0  0  0  0  0  0  0  0  0  0  0
   -2.1459   -1.4480    1.1034 C   0  0  0  0  0  0  0  0  0  0  0  0
   -1.9579   -2.6361    1.6923 N   0  0  0  0  0  0  0  0  0  0  0  0
   -0.6573   -2.9102    1.4425 N   0  0  0  0  0  0  0  0  0  0  0  0
   -0.0884   -4.1403    1.9321 C   0  0  0  0  0  0  0  0  0  0  0  0
   -0.6014    0.2217   -0.2702 C   0  0  0  0  0  0  0  0  0  0  0  0
   -1.3361    1.2274   -0.6380 N   0  0  0  0  0  0  0  0  0  0  0  0
   -2.6979    1.3041   -0.3315 C   0  0  0  0  0  0  0  0  0  0  0  0
   -3.6286    0.7529   -1.2233 C   0  0  0  0  0  0  0  0  0  0  0  0
   -5.0099    0.8198   -0.9796 C   0  0  0  0  0  0  0  0  0  0  0  0
   -5.9581    0.1951   -1.9634 C   0  0  0  0  0  0  0  0  0  0  0  0
   -5.4478    1.4722    0.1805 C   0  0  0  0  0  0  0  0  0  0  0  0
   -7.2913    1.6181    0.6154 Br  0  0  0  0  0  0  0  0  0  0  0  0
   -4.5285    2.0485    1.0647 C   0  0  0  0  0  0  0  0  0  0  0  0
   -3.1504    1.9834    0.8104 C   0  0  0  0  0  0  0  0  0  0  0  0
   -2.1808    2.6116    1.7707 C   0  0  0  0  0  0  0  0  0  0  0  0
    1.0565    0.8859   -1.1959 H   0  0  0  0  0  0  0  0  0  0  0  0
    3.1525    0.3514   -0.7979 H   0  0  0  0  0  0  0  0  0  0  0  0
    4.0933   -1.5542    0.6472 H   0  0  0  0  0  0  0  0  0  0  0  0
    3.7941   -2.5033   -0.8208 H   0  0  0  0  0  0  0  0  0  0  0  0
    5.1254   -0.8114   -2.1409 H   0  0  0  0  0  0  0  0  0  0  0  0
    6.0660   -1.7185   -0.9457 H   0  0  0  0  0  0  0  0  0  0  0  0
    6.6951    0.6503   -0.8948 H   0  0  0  0  0  0  0  0  0  0  0  0
    5.9158    0.2031    0.6445 H   0  0  0  0  0  0  0  0  0  0  0  0
    4.4016    3.3433   -0.2638 H   0  0  0  0  0  0  0  0  0  0  0  0
    6.1079    2.9476   -0.5650 H   0  0  0  0  0  0  0  0  0  0  0  0
    5.3379    2.5118    0.9972 H   0  0  0  0  0  0  0  0  0  0  0  0
   -3.1310   -1.0071    1.1631 H   0  0  0  0  0  0  0  0  0  0  0  0
   -0.6919   -4.9719    1.5592 H   0  0  0  0  0  0  0  0  0  0  0  0
    0.9401   -4.2466    1.5805 H   0  0  0  0  0  0  0  0  0  0  0  0
   -0.1071   -4.1152    3.0246 H   0  0  0  0  0  0  0  0  0  0  0  0
   -3.2569    0.2603   -2.1199 H   0  0  0  0  0  0  0  0  0  0  0  0
   -6.5437   -0.5948   -1.4823 H   0  0  0  0  0  0  0  0  0  0  0  0
   -5.4221   -0.2625   -2.8020 H   0  0  0  0  0  0  0  0  0  0  0  0
   -6.6301    0.9515   -2.3812 H   0  0  0  0  0  0  0  0  0  0  0  0
   -4.8860    2.5575    1.9575 H   0  0  0  0  0  0  0  0  0  0  0  0
   -1.4767    3.2594    1.2384 H   0  0  0  0  0  0  0  0  0  0  0  0
   -1.6262    1.8366    2.3090 H   0  0  0  0  0  0  0  0  0  0  0  0
   -2.6966    3.2331    2.5103 H   0  0  0  0  0  0  0  0  0  0  0  0
  1  2  1  0
  2  3  1  0
  3  4  1  0
  4  5  1  0
  5  6  1  0
  6  7  1  0
  7  8  1  0
  2  9  2  0
  9 10  1  0
 10 11  2  0
 11 12  1  0
 12 13  2  0
 13 14  1  0
 14 15  1  0
 11 16  1  0
 16 17  2  3
 17 18  1  0
 18 19  2  0
 19 20  1  0
 20 21  1  0
 20 22  2  0
 22 23  1  0
 22 24  1  0
 24 25  2  0
 25 26  1  0
 16  1  1  0
 25 18  1  0
 14 10  1  0
  1 27  1  0
  3 28  1  0
  4 29  1  0
  4 30  1  0
  5 31  1  0
  5 32  1  0
  6 33  1  0
  6 34  1  0
  8 35  1  0
  8 36  1  0
  8 37  1  0
 12 38  1  0
 15 39  1  0
 15 40  1  0
 15 41  1  0
 19 42  1  0
 21 43  1  0
 21 44  1  0
 21 45  1  0
 24 46  1  0
 26 47  1  0
 26 48  1  0
 26 49  1  0
M  END
>  <ScrubInfo>  (3) 
{"isomerGroup": 0, "isomerId": 2, "confId": 0, "nr_conformers:": 1, "nr_isomers:": 9}

$$$$
_i3
     RDKit          3D

 49 51  0  0  0  0  0  0  0  0999 V2000
    1.3164    0.9885   -0.0165 N   0  0  0  0  0  0  0  0  0  0  0  0
    1.2857   -0.3038    0.4854 C   0  0  0  0  0  0  0  0  0  0  0  0
    2.2716   -1.1297    0.5179 N   0  0  0  0  0  0  0  0  0  0  0  0
    3.5652   -0.7142   -0.0126 C   0  0  0  0  0  0  0  0  0  0  0  0
    4.5806   -1.8170    0.2794 C   0  0  0  0  0  0  0  0  0  0  0  0
    5.9144   -1.5678   -0.4139 C   0  0  0  0  0  0  0  0  0  0  0  0
    6.4359   -0.2995   -0.0189 O   0  0  0  0  0  0  0  0  0  0  0  0
    7.7149   -0.0589   -0.5915 C   0  0  0  0  0  0  0  0  0  0  0  0
    0.1209   -0.8392    1.0184 N   0  0  0  0  0  0  0  0  0  0  0  0
   -0.9674   -0.1241    1.0420 C   0  0  0  0  0  0  0  0  0  0  0  0
   -2.1469   -0.5842    1.5715 N   0  0  0  0  0  0  0  0  0  0  0  0
   -3.3595   -0.6825    0.8329 C   0  0  0  0  0  0  0  0  0  0  0  0
   -3.3639   -0.8037   -0.5679 C   0  0  0  0  0  0  0  0  0  0  0  0
   -4.5581   -0.9549   -1.2939 C   0  0  0  0  0  0  0  0  0  0  0  0
   -4.4953   -1.0621   -2.7919 C   0  0  0  0  0  0  0  0  0  0  0  0
   -5.7651   -1.0086   -0.5868 C   0  0  0  0  0  0  0  0  0  0  0  0
   -7.4371   -1.2139   -1.4647 Br  0  0  0  0  0  0  0  0  0  0  0  0
   -5.7751   -0.9202    0.8085 C   0  0  0  0  0  0  0  0  0  0  0  0
   -4.5805   -0.7660    1.5286 C   0  0  0  0  0  0  0  0  0  0  0  0
   -4.6290   -0.6735    3.0298 C   0  0  0  0  0  0  0  0  0  0  0  0
   -0.9683    1.2359    0.5574 C   0  0  0  0  0  0  0  0  0  0  0  0
   -1.8700    2.3060    0.4616 C   0  0  0  0  0  0  0  0  0  0  0  0
   -1.3110    3.3944   -0.0922 N   0  0  0  0  0  0  0  0  0  0  0  0
   -0.0332    3.0135   -0.3388 N   0  0  0  0  0  0  0  0  0  0  0  0
    0.8773    3.9597   -0.9311 C   0  0  0  0  0  0  0  0  0  0  0  0
    0.1970    1.7297    0.0412 C   0  0  0  0  0  0  0  0  0  0  0  0
    2.2000    1.3294   -0.3640 H   0  0  0  0  0  0  0  0  0  0  0  0
    3.8984    0.2181    0.4585 H   0  0  0  0  0  0  0  0  0  0  0  0
    3.4914   -0.5579   -1.0953 H   0  0  0  0  0  0  0  0  0  0  0  0
    4.7356   -1.8708    1.3643 H   0  0  0  0  0  0  0  0  0  0  0  0
    4.1864   -2.7899   -0.0377 H   0  0  0  0  0  0  0  0  0  0  0  0
    6.6207   -2.3588   -0.1363 H   0  0  0  0  0  0  0  0  0  0  0  0
    5.7818   -1.5826   -1.5021 H   0  0  0  0  0  0  0  0  0  0  0  0
    8.0593    0.9253   -0.2630 H   0  0  0  0  0  0  0  0  0  0  0  0
    8.4337   -0.8115   -0.2532 H   0  0  0  0  0  0  0  0  0  0  0  0
    7.6520   -0.0609   -1.6839 H   0  0  0  0  0  0  0  0  0  0  0  0
   -1.9719   -1.5003    1.9829 H   0  0  0  0  0  0  0  0  0  0  0  0
   -2.4208   -0.7898   -1.1122 H   0  0  0  0  0  0  0  0  0  0  0  0
   -4.8900   -2.0278   -3.1234 H   0  0  0  0  0  0  0  0  0  0  0  0
   -5.0628   -0.2505   -3.2584 H   0  0  0  0  0  0  0  0  0  0  0  0
   -3.4652   -0.9884   -3.1573 H   0  0  0  0  0  0  0  0  0  0  0  0
   -6.7219   -0.9719    1.3427 H   0  0  0  0  0  0  0  0  0  0  0  0
   -4.1995    0.2759    3.3657 H   0  0  0  0  0  0  0  0  0  0  0  0
   -4.0757   -1.5044    3.4792 H   0  0  0  0  0  0  0  0  0  0  0  0
   -5.6575   -0.7203    3.4031 H   0  0  0  0  0  0  0  0  0  0  0  0
   -2.9076    2.3484    0.7668 H   0  0  0  0  0  0  0  0  0  0  0  0
    1.0026    4.7957   -0.2384 H   0  0  0  0  0  0  0  0  0  0  0  0
    0.4497    4.3061   -1.8754 H   0  0  0  0  0  0  0  0  0  0  0  0
    1.8420    3.4831   -1.1166 H   0  0  0  0  0  0  0  0  0  0  0  0
  1  2  1  0
  2  3  2  3
  3  4  1  0
  4  5  1  0
  5  6  1  0
  6  7  1  0
  7  8  1  0
  2  9  1  0
  9 10  2  0
 10 11  1  0
 11 12  1  0
 12 13  2  0
 13 14  1  0
 14 15  1  0
 14 16  2  0
 16 17  1  0
 16 18  1  0
 18 19  2  0
 19 20  1  0
 10 21  1  0
 21 22  1  0
 22 23  2  0
 23 24  1  0
 24 25  1  0
 24 26  1  0
 26  1  1  0
 19 12  1  0
 26 21  2  0
  1 27  1  0
  4 28  1  0
  4 29  1  0
  5 30  1  0
  5 31  1  0
  6 32  1  0
  6 33  1  0
  8 34  1  0
  8 35  1  0
  8 36  1  0
 11 37  1  0
 13 38  1  0
 15 39  1  0
 15 40  1  0
 15 41  1  0
 18 42  1  0
 20 43  1  0
 20 44  1  0
 20 45  1  0
 22 46  1  0
 25 47  1  0
 25 48  1  0
 25 49  1  0
M  END
>  <ScrubInfo>  (4) 
{"isomerGroup": 0, "isomerId": 3, "confId": 0, "nr_conformers:": 1, "nr_isomers:": 9}

$$$$
_i4
     RDKit          3D

 49 51  0  0  0  0  0  0  0  0999 V2000
    0.4124   -4.5572   -1.4939 N   0  0  0  0  0  0  0  0  0  0  0  0
   -0.7689   -3.8543   -1.2775 C   0  0  0  0  0  0  0  0  0  0  0  0
   -0.5571   -2.5954   -0.8731 C   0  0  0  0  0  0  0  0  0  0  0  0
   -1.3521   -1.4534   -0.4864 C   0  0  0  0  0  0  0  0  0  0  0  0
   -2.6482   -1.4672   -0.5325 N   0  0  0  0  0  0  0  0  0  0  0  0
   -3.3442   -0.3141   -0.1347 C   0  0  0  0  0  0  0  0  0  0  0  0
   -3.6483    0.6626   -1.0934 C   0  0  0  0  0  0  0  0  0  0  0  0
   -4.3575    1.8279   -0.7596 C   0  0  0  0  0  0  0  0  0  0  0  0
   -4.6432    2.8425   -1.8294 C   0  0  0  0  0  0  0  0  0  0  0  0
   -4.7699    1.9944    0.5690 C   0  0  0  0  0  0  0  0  0  0  0  0
   -5.7265    3.5346    1.1374 Br  0  0  0  0  0  0  0  0  0  0  0  0
   -4.4886    1.0178    1.5311 C   0  0  0  0  0  0  0  0  0  0  0  0
   -3.7877   -0.1477    1.1866 C   0  0  0  0  0  0  0  0  0  0  0  0
   -3.4895   -1.1809    2.2352 C   0  0  0  0  0  0  0  0  0  0  0  0
   -0.6227   -0.3726   -0.0667 N   0  0  0  0  0  0  0  0  0  0  0  0
    0.6799   -0.3703   -0.0566 C   0  0  0  0  0  0  0  0  0  0  0  0
    1.2665    0.7734    0.4029 N   0  0  0  0  0  0  0  0  0  0  0  0
    2.6166    1.1592    0.0420 C   0  0  0  0  0  0  0  0  0  0  0  0
    3.0069    2.4234    0.8058 C   0  0  0  0  0  0  0  0  0  0  0  0
    4.3911    2.9272    0.4072 C   0  0  0  0  0  0  0  0  0  0  0  0
    5.4062    1.9390    0.5638 O   0  0  0  0  0  0  0  0  0  0  0  0
    5.8069    1.7517    1.9151 C   0  0  0  0  0  0  0  0  0  0  0  0
    1.4837   -1.4006   -0.4727 N   0  0  0  0  0  0  0  0  0  0  0  0
    0.9053   -2.4762   -0.8788 C   0  0  0  0  0  0  0  0  0  0  0  0
    1.4702   -3.6595   -1.3584 N   0  0  0  0  0  0  0  0  0  0  0  0
    2.7388   -4.1383   -0.8438 C   0  0  0  0  0  0  0  0  0  0  0  0
    0.4002   -5.1101   -2.3541 H   0  0  0  0  0  0  0  0  0  0  0  0
   -1.7209   -4.3384   -1.4441 H   0  0  0  0  0  0  0  0  0  0  0  0
   -3.3138    0.5005   -2.1157 H   0  0  0  0  0  0  0  0  0  0  0  0
   -5.7227    2.9771   -1.9517 H   0  0  0  0  0  0  0  0  0  0  0  0
   -4.2434    2.5266   -2.7992 H   0  0  0  0  0  0  0  0  0  0  0  0
   -4.1768    3.8015   -1.5824 H   0  0  0  0  0  0  0  0  0  0  0  0
   -4.8183    1.1606    2.5578 H   0  0  0  0  0  0  0  0  0  0  0  0
   -3.7732   -2.1790    1.8854 H   0  0  0  0  0  0  0  0  0  0  0  0
   -4.0517   -0.9898    3.1554 H   0  0  0  0  0  0  0  0  0  0  0  0
   -2.4233   -1.1717    2.4822 H   0  0  0  0  0  0  0  0  0  0  0  0
    0.5897    1.5244    0.4701 H   0  0  0  0  0  0  0  0  0  0  0  0
    2.6675    1.3421   -1.0375 H   0  0  0  0  0  0  0  0  0  0  0  0
    3.3149    0.3500    0.2834 H   0  0  0  0  0  0  0  0  0  0  0  0
    2.2734    3.2173    0.6187 H   0  0  0  0  0  0  0  0  0  0  0  0
    2.9743    2.2157    1.8818 H   0  0  0  0  0  0  0  0  0  0  0  0
    4.6528    3.8308    0.9701 H   0  0  0  0  0  0  0  0  0  0  0  0
    4.3802    3.2052   -0.6526 H   0  0  0  0  0  0  0  0  0  0  0  0
    4.9887    1.3403    2.5120 H   0  0  0  0  0  0  0  0  0  0  0  0
    6.6336    1.0361    1.9291 H   0  0  0  0  0  0  0  0  0  0  0  0
    6.1563    2.6936    2.3486 H   0  0  0  0  0  0  0  0  0  0  0  0
    3.0639   -5.0249   -1.3978 H   0  0  0  0  0  0  0  0  0  0  0  0
    2.6549   -4.4013    0.2158 H   0  0  0  0  0  0  0  0  0  0  0  0
    3.5132   -3.3725   -0.9548 H   0  0  0  0  0  0  0  0  0  0  0  0
  1  2  1  0
  2  3  2  0
  3  4  1  0
  4  5  2  3
  5  6  1  0
  6  7  2  0
  7  8  1  0
  8  9  1  0
  8 10  2  0
 10 11  1  0
 10 12  1  0
 12 13  2  0
 13 14  1  0
  4 15  1  0
 15 16  2  0
 16 17  1  0
 17 18  1  0
 18 19  1  0
 19 20  1  0
 20 21  1  0
 21 22  1  0
 16 23  1  0
 23 24  2  0
 24 25  1  0
 25 26  1  0
 25  1  1  0
 24  3  1  0
 13  6  1  0
  1 27  1  0
  2 28  1  0
  7 29  1  0
  9 30  1  0
  9 31  1  0
  9 32  1  0
 12 33  1  0
 14 34  1  0
 14 35  1  0
 14 36  1  0
 17 37  1  0
 18 38  1  0
 18 39  1  0
 19 40  1  0
 19 41  1  0
 20 42  1  0
 20 43  1  0
 22 44  1  0
 22 45  1  0
 22 46  1  0
 26 47  1  0
 26 48  1  0
 26 49  1  0
M  END
>  <ScrubInfo>  (5) 
{"isomerGroup": 0, "isomerId": 4, "confId": 0, "nr_conformers:": 1, "nr_isomers:": 9}

$$$$
_i5
     RDKit          3D

 49 51  0  0  0  0  0  0  0  0999 V2000
   -1.3056    0.3474    0.9210 N   0  0  0  0  0  0  0  0  0  0  0  0
   -1.2990   -0.2195   -0.3283 C   0  0  0  0  0  0  0  0  0  0  0  0
   -2.5324   -0.4859   -0.8523 N   0  0  0  0  0  0  0  0  0  0  0  0
   -3.5344    0.5632   -0.9941 C   0  0  0  0  0  0  0  0  0  0  0  0
   -4.8068    0.0128   -1.6304 C   0  0  0  0  0  0  0  0  0  0  0  0
   -5.5320   -0.9777   -0.7223 C   0  0  0  0  0  0  0  0  0  0  0  0
   -6.7071   -1.4835   -1.3563 O   0  0  0  0  0  0  0  0  0  0  0  0
   -7.8385   -0.6370   -1.2063 C   0  0  0  0  0  0  0  0  0  0  0  0
   -0.2370   -0.5261   -1.0157 N   0  0  0  0  0  0  0  0  0  0  0  0
    1.0252   -0.2655   -0.4941 C   0  0  0  0  0  0  0  0  0  0  0  0
    2.0252   -0.5507   -1.2660 N   0  0  0  0  0  0  0  0  0  0  0  0
    3.3527   -0.3473   -0.8844 C   0  0  0  0  0  0  0  0  0  0  0  0
    4.0483   -1.3947   -0.2644 C   0  0  0  0  0  0  0  0  0  0  0  0
    5.3905   -1.2578    0.1253 C   0  0  0  0  0  0  0  0  0  0  0  0
    6.0785   -2.4112    0.7985 C   0  0  0  0  0  0  0  0  0  0  0  0
    6.0362   -0.0422   -0.1368 C   0  0  0  0  0  0  0  0  0  0  0  0
    7.8469    0.2587    0.3529 Br  0  0  0  0  0  0  0  0  0  0  0  0
    5.3601    1.0000   -0.7816 C   0  0  0  0  0  0  0  0  0  0  0  0
    4.0218    0.8520   -1.1754 C   0  0  0  0  0  0  0  0  0  0  0  0
    3.3180    1.9784   -1.8779 C   0  0  0  0  0  0  0  0  0  0  0  0
    1.0707    0.2931    0.8480 C   0  0  0  0  0  0  0  0  0  0  0  0
    2.0469    0.6670    1.7895 C   0  0  0  0  0  0  0  0  0  0  0  0
    1.5182    1.1304    2.9337 N   0  0  0  0  0  0  0  0  0  0  0  0
    0.1849    1.0535    2.7257 N   0  0  0  0  0  0  0  0  0  0  0  0
   -0.7117    1.4790    3.7698 C   0  0  0  0  0  0  0  0  0  0  0  0
   -0.1097    0.5683    1.4923 C   0  0  0  0  0  0  0  0  0  0  0  0
   -2.1781    0.3240    1.4301 H   0  0  0  0  0  0  0  0  0  0  0  0
   -2.3796   -0.9537   -1.7472 H   0  0  0  0  0  0  0  0  0  0  0  0
   -3.7722    1.0076   -0.0212 H   0  0  0  0  0  0  0  0  0  0  0  0
   -3.1308    1.3586   -1.6316 H   0  0  0  0  0  0  0  0  0  0  0  0
   -4.5828   -0.4703   -2.5899 H   0  0  0  0  0  0  0  0  0  0  0  0
   -5.4718    0.8512   -1.8665 H   0  0  0  0  0  0  0  0  0  0  0  0
   -5.7802   -0.5315    0.2480 H   0  0  0  0  0  0  0  0  0  0  0  0
   -4.8875   -1.8414   -0.5278 H   0  0  0  0  0  0  0  0  0  0  0  0
   -7.6693    0.3337   -1.6797 H   0  0  0  0  0  0  0  0  0  0  0  0
   -8.0792   -0.5032   -0.1473 H   0  0  0  0  0  0  0  0  0  0  0  0
   -8.6906   -1.1153   -1.6969 H   0  0  0  0  0  0  0  0  0  0  0  0
    3.5210   -2.3306   -0.0879 H   0  0  0  0  0  0  0  0  0  0  0  0
    6.9350   -2.7460    0.2047 H   0  0  0  0  0  0  0  0  0  0  0  0
    6.4125   -2.1257    1.8011 H   0  0  0  0  0  0  0  0  0  0  0  0
    5.4062   -3.2686    0.9119 H   0  0  0  0  0  0  0  0  0  0  0  0
    5.8798    1.9334   -0.9880 H   0  0  0  0  0  0  0  0  0  0  0  0
    2.5748    2.4321   -1.2149 H   0  0  0  0  0  0  0  0  0  0  0  0
    2.8238    1.6177   -2.7858 H   0  0  0  0  0  0  0  0  0  0  0  0
    4.0215    2.7607   -2.1821 H   0  0  0  0  0  0  0  0  0  0  0  0
    3.1247    0.6255    1.7141 H   0  0  0  0  0  0  0  0  0  0  0  0
   -0.4268    2.4867    4.0834 H   0  0  0  0  0  0  0  0  0  0  0  0
   -0.6220    0.7792    4.6043 H   0  0  0  0  0  0  0  0  0  0  0  0
   -1.7386    1.4879    3.3986 H   0  0  0  0  0  0  0  0  0  0  0  0
  1  2  1  0
  2  3  1  0
  3  4  1  0
  4  5  1  0
  5  6  1  0
  6  7  1  0
  7  8  1  0
  2  9  2  0
  9 10  1  0
 10 11  2  3
 11 12  1  0
 12 13  2  0
 13 14  1  0
 14 15  1  0
 14 16  2  0
 16 17  1  0
 16 18  1  0
 18 19  2  0
 19 20  1  0
 10 21  1  0
 21 22  1  0
 22 23  2  0
 23 24  1  0
 24 25  1  0
 24 26  1  0
 26  1  1  0
 19 12  1  0
 26 21  2  0
  1 27  1  0
  3 28  1  0
  4 29  1  0
  4 30  1  0
  5 31  1  0
  5 32  1  0
  6 33  1  0
  6 34  1  0
  8 35  1  0
  8 36  1  0
  8 37  1  0
 13 38  1  0
 15 39  1  0
 15 40  1  0
 15 41  1  0
 18 42  1  0
 20 43  1  0
 20 44  1  0
 20 45  1  0
 22 46  1  0
 25 47  1  0
 25 48  1  0
 25 49  1  0
M  END
>  <ScrubInfo>  (6) 
{"isomerGroup": 0, "isomerId": 5, "confId": 0, "nr_conformers:": 1, "nr_isomers:": 9}

$$$$
_i6
     RDKit          3D

 49 51  0  0  0  0  0  0  0  0999 V2000
   -0.8563    0.8287   -5.0130 N   0  0  0  0  0  0  0  0  0  0  0  0
   -1.6684    0.6629   -3.8958 C   0  0  0  0  0  0  0  0  0  0  0  0
   -0.9882    0.2671   -2.8110 C   0  0  0  0  0  0  0  0  0  0  0  0
   -1.2528   -0.0410   -1.4048 C   0  0  0  0  0  0  0  0  0  0  0  0
   -2.5488    0.0516   -0.9163 N   0  0  0  0  0  0  0  0  0  0  0  0
   -2.8769   -0.0811    0.4522 C   0  0  0  0  0  0  0  0  0  0  0  0
   -3.3259    1.0590    1.1450 C   0  0  0  0  0  0  0  0  0  0  0  0
   -3.6072    1.0302    2.5216 C   0  0  0  0  0  0  0  0  0  0  0  0
   -4.0762    2.2853    3.2022 C   0  0  0  0  0  0  0  0  0  0  0  0
   -3.4174   -0.1721    3.2120 C   0  0  0  0  0  0  0  0  0  0  0  0
   -3.7495   -0.3256    5.0759 Br  0  0  0  0  0  0  0  0  0  0  0  0
   -2.9689   -1.3124    2.5395 C   0  0  0  0  0  0  0  0  0  0  0  0
   -2.7063   -1.2847    1.1591 C   0  0  0  0  0  0  0  0  0  0  0  0
   -2.2415   -2.5550    0.4997 C   0  0  0  0  0  0  0  0  0  0  0  0
   -0.2338   -0.3803   -0.6668 N   0  0  0  0  0  0  0  0  0  0  0  0
    1.0293   -0.4212   -1.2160 C   0  0  0  0  0  0  0  0  0  0  0  0
    2.0409   -0.6728   -0.4613 N   0  0  0  0  0  0  0  0  0  0  0  0
    1.7849   -0.9051    0.9582 C   0  0  0  0  0  0  0  0  0  0  0  0
    3.1062   -1.1853    1.6678 C   0  0  0  0  0  0  0  0  0  0  0  0
    4.0567    0.0047    1.6213 C   0  0  0  0  0  0  0  0  0  0  0  0
    5.1978   -0.2967    2.4302 O   0  0  0  0  0  0  0  0  0  0  0  0
    6.1511    0.7564    2.3948 C   0  0  0  0  0  0  0  0  0  0  0  0
    1.3601   -0.2112   -2.5333 N   0  0  0  0  0  0  0  0  0  0  0  0
    0.3917    0.1086   -3.3165 C   0  0  0  0  0  0  0  0  0  0  0  0
    0.4147    0.3670   -4.6867 N   0  0  0  0  0  0  0  0  0  0  0  0
    1.5764    0.9672   -5.3143 C   0  0  0  0  0  0  0  0  0  0  0  0
   -1.2593    0.4495   -5.8736 H   0  0  0  0  0  0  0  0  0  0  0  0
   -2.7279    0.8495   -3.9910 H   0  0  0  0  0  0  0  0  0  0  0  0
   -3.1345    0.7293   -1.3886 H   0  0  0  0  0  0  0  0  0  0  0  0
   -3.4367    1.9975    0.6052 H   0  0  0  0  0  0  0  0  0  0  0  0
   -4.1828    3.1116    2.4910 H   0  0  0  0  0  0  0  0  0  0  0  0
   -3.3549    2.6004    3.9629 H   0  0  0  0  0  0  0  0  0  0  0  0
   -5.0562    2.1284    3.6640 H   0  0  0  0  0  0  0  0  0  0  0  0
   -2.8215   -2.2395    3.0906 H   0  0  0  0  0  0  0  0  0  0  0  0
   -2.7191   -3.4249    0.9645 H   0  0  0  0  0  0  0  0  0  0  0  0
   -2.5110   -2.5843   -0.5605 H   0  0  0  0  0  0  0  0  0  0  0  0
   -1.1581   -2.6621    0.6000 H   0  0  0  0  0  0  0  0  0  0  0  0
    1.1340   -1.7772    1.0920 H   0  0  0  0  0  0  0  0  0  0  0  0
    1.3033   -0.0342    1.4196 H   0  0  0  0  0  0  0  0  0  0  0  0
    2.9069   -1.4487    2.7140 H   0  0  0  0  0  0  0  0  0  0  0  0
    3.5999   -2.0598    1.2258 H   0  0  0  0  0  0  0  0  0  0  0  0
    4.3811    0.1989    0.5927 H   0  0  0  0  0  0  0  0  0  0  0  0
    3.5649    0.9009    2.0166 H   0  0  0  0  0  0  0  0  0  0  0  0
    6.9948    0.4787    3.0323 H   0  0  0  0  0  0  0  0  0  0  0  0
    6.5189    0.9066    1.3752 H   0  0  0  0  0  0  0  0  0  0  0  0
    5.7135    1.6831    2.7783 H   0  0  0  0  0  0  0  0  0  0  0  0
    1.4468    1.0011   -6.4009 H   0  0  0  0  0  0  0  0  0  0  0  0
    2.4756    0.3797   -5.1032 H   0  0  0  0  0  0  0  0  0  0  0  0
    1.7306    1.9883   -4.9503 H   0  0  0  0  0  0  0  0  0  0  0  0
  1  2  1  0
  2  3  2  0
  3  4  1  0
  4  5  1  0
  5  6  1  0
  6  7  2  0
  7  8  1  0
  8  9  1  0
  8 10  2  0
 10 11  1  0
 10 12  1  0
 12 13  2  0
 13 14  1  0
  4 15  2  0
 15 16  1  0
 16 17  2  3
 17 18  1  0
 18 19  1  0
 19 20  1  0
 20 21  1  0
 21 22  1  0
 16 23  1  0
 23 24  2  0
 24 25  1  0
 25 26  1  0
 25  1  1  0
 24  3  1  0
 13  6  1  0
  1 27  1  0
  2 28  1  0
  5 29  1  0
  7 30  1  0
  9 31  1  0
  9 32  1  0
  9 33  1  0
 12 34  1  0
 14 35  1  0
 14 36  1  0
 14 37  1  0
 18 38  1  0
 18 39  1  0
 19 40  1  0
 19 41  1  0
 20 42  1  0
 20 43  1  0
 22 44  1  0
 22 45  1  0
 22 46  1  0
 26 47  1  0
 26 48  1  0
 26 49  1  0
M  END
>  <ScrubInfo>  (7) 
{"isomerGroup": 0, "isomerId": 6, "confId": 0, "nr_conformers:": 1, "nr_isomers:": 9}

$$$$
_i7
     RDKit          3D

 49 51  0  0  0  0  0  0  0  0999 V2000
   -0.4534    5.3551   -0.5691 N   0  0  0  0  0  0  0  0  0  0  0  0
   -1.3755    4.3277   -0.4019 C   0  0  0  0  0  0  0  0  0  0  0  0
   -0.8051    3.1175   -0.3716 C   0  0  0  0  0  0  0  0  0  0  0  0
   -1.2149    1.7251   -0.1922 C   0  0  0  0  0  0  0  0  0  0  0  0
   -2.4759    1.4420   -0.0462 N   0  0  0  0  0  0  0  0  0  0  0  0
   -2.8477    0.1008    0.1292 C   0  0  0  0  0  0  0  0  0  0  0  0
   -3.1098   -0.6866   -0.9999 C   0  0  0  0  0  0  0  0  0  0  0  0
   -3.4595   -2.0417   -0.8857 C   0  0  0  0  0  0  0  0  0  0  0  0
   -3.7242   -2.8377   -2.1325 C   0  0  0  0  0  0  0  0  0  0  0  0
   -3.5524   -2.5969    0.3975 C   0  0  0  0  0  0  0  0  0  0  0  0
   -4.0070   -4.4206    0.6720 Br  0  0  0  0  0  0  0  0  0  0  0  0
   -3.3118   -1.8138    1.5323 C   0  0  0  0  0  0  0  0  0  0  0  0
   -2.9710   -0.4588    1.4099 C   0  0  0  0  0  0  0  0  0  0  0  0
   -2.7196    0.3655    2.6410 C   0  0  0  0  0  0  0  0  0  0  0  0
   -0.1486    0.8578   -0.1954 N   0  0  0  0  0  0  0  0  0  0  0  0
    1.1776    1.1912   -0.3492 C   0  0  0  0  0  0  0  0  0  0  0  0
    2.1716    0.3753   -0.3190 N   0  0  0  0  0  0  0  0  0  0  0  0
    1.9352   -1.0461   -0.1054 C   0  0  0  0  0  0  0  0  0  0  0  0
    3.2771   -1.7702   -0.1664 C   0  0  0  0  0  0  0  0  0  0  0  0
    3.1147   -3.2606    0.1159 C   0  0  0  0  0  0  0  0  0  0  0  0
    4.3218   -3.9883   -0.1071 O   0  0  0  0  0  0  0  0  0  0  0  0
    5.3012   -3.7841    0.9021 C   0  0  0  0  0  0  0  0  0  0  0  0
    1.5643    2.4998   -0.5624 N   0  0  0  0  0  0  0  0  0  0  0  0
    0.6434    3.4102   -0.5912 C   0  0  0  0  0  0  0  0  0  0  0  0
    0.7942    4.7822   -0.8083 N   0  0  0  0  0  0  0  0  0  0  0  0
    1.9894    5.4786   -0.3726 C   0  0  0  0  0  0  0  0  0  0  0  0
   -0.7563    6.0655   -1.2393 H   0  0  0  0  0  0  0  0  0  0  0  0
   -2.4273    4.5600   -0.3130 H   0  0  0  0  0  0  0  0  0  0  0  0
   -3.0379   -0.2229   -1.9823 H   0  0  0  0  0  0  0  0  0  0  0  0
   -3.0213   -3.6733   -2.2100 H   0  0  0  0  0  0  0  0  0  0  0  0
   -3.6016   -2.2255   -3.0327 H   0  0  0  0  0  0  0  0  0  0  0  0
   -4.7511   -3.2166   -2.1344 H   0  0  0  0  0  0  0  0  0  0  0  0
   -3.3985   -2.2585    2.5220 H   0  0  0  0  0  0  0  0  0  0  0  0
   -3.0339   -0.1637    3.5469 H   0  0  0  0  0  0  0  0  0  0  0  0
   -3.2862    1.3015    2.6004 H   0  0  0  0  0  0  0  0  0  0  0  0
   -1.6524    0.5900    2.7332 H   0  0  0  0  0  0  0  0  0  0  0  0
   -0.3593   -0.1156   -0.0563 H   0  0  0  0  0  0  0  0  0  0  0  0
    1.2713   -1.4487   -0.8799 H   0  0  0  0  0  0  0  0  0  0  0  0
    1.4745   -1.2117    0.8758 H   0  0  0  0  0  0  0  0  0  0  0  0
    3.9696   -1.3222    0.5560 H   0  0  0  0  0  0  0  0  0  0  0  0
    3.7421   -1.6277   -1.1501 H   0  0  0  0  0  0  0  0  0  0  0  0
    2.7521   -3.4379    1.1354 H   0  0  0  0  0  0  0  0  0  0  0  0
    2.3693   -3.6809   -0.5683 H   0  0  0  0  0  0  0  0  0  0  0  0
    4.8921   -4.0087    1.8918 H   0  0  0  0  0  0  0  0  0  0  0  0
    5.6846   -2.7609    0.8730 H   0  0  0  0  0  0  0  0  0  0  0  0
    6.1352   -4.4647    0.7096 H   0  0  0  0  0  0  0  0  0  0  0  0
    1.9678    6.5197   -0.7108 H   0  0  0  0  0  0  0  0  0  0  0  0
    2.8845    5.0096   -0.7934 H   0  0  0  0  0  0  0  0  0  0  0  0
    2.0685    5.4693    0.7195 H   0  0  0  0  0  0  0  0  0  0  0  0
  1  2  1  0
  2  3  2  0
  3  4  1  0
  4  5  2  3
  5  6  1  0
  6  7  2  0
  7  8  1  0
  8  9  1  0
  8 10  2  0
 10 11  1  0
 10 12  1  0
 12 13  2  0
 13 14  1  0
  4 15  1  0
 15 16  1  0
 16 17  2  3
 17 18  1  0
 18 19  1  0
 19 20  1  0
 20 21  1  0
 21 22  1  0
 16 23  1  0
 23 24  2  0
 24 25  1  0
 25 26  1  0
 25  1  1  0
 24  3  1  0
 13  6  1  0
  1 27  1  0
  2 28  1  0
  7 29  1  0
  9 30  1  0
  9 31  1  0
  9 32  1  0
 12 33  1  0
 14 34  1  0
 14 35  1  0
 14 36  1  0
 15 37  1  0
 18 38  1  0
 18 39  1  0
 19 40  1  0
 19 41  1  0
 20 42  1  0
 20 43  1  0
 22 44  1  0
 22 45  1  0
 22 46  1  0
 26 47  1  0
 26 48  1  0
 26 49  1  0
M  END
>  <ScrubInfo>  (8) 
{"isomerGroup": 0, "isomerId": 7, "confId": 0, "nr_conformers:": 1, "nr_isomers:": 9}

$$$$
_i8
     RDKit          3D

 49 51  0  0  0  0  0  0  0  0999 V2000
    1.3352    0.8191   -0.4609 N   0  0  0  0  0  0  0  0  0  0  0  0
    1.5110   -0.5322   -0.2133 C   0  0  0  0  0  0  0  0  0  0  0  0
    2.6188   -1.1944   -0.1801 N   0  0  0  0  0  0  0  0  0  0  0  0
    3.8614   -0.4656   -0.4292 C   0  0  0  0  0  0  0  0  0  0  0  0
    5.0271   -1.4405   -0.2793 C   0  0  0  0  0  0  0  0  0  0  0  0
    6.3626   -0.7884   -0.6266 C   0  0  0  0  0  0  0  0  0  0  0  0
    6.6022    0.4053    0.1184 O   0  0  0  0  0  0  0  0  0  0  0  0
    7.0313    0.1533    1.4508 C   0  0  0  0  0  0  0  0  0  0  0  0
    0.3300   -1.2022    0.0181 N   0  0  0  0  0  0  0  0  0  0  0  0
   -0.9799   -0.7748    0.0450 C   0  0  0  0  0  0  0  0  0  0  0  0
   -1.9508   -1.6034    0.2879 N   0  0  0  0  0  0  0  0  0  0  0  0
   -3.2889   -1.2010    0.3184 C   0  0  0  0  0  0  0  0  0  0  0  0
   -4.0413   -1.2524   -0.8634 C   0  0  0  0  0  0  0  0  0  0  0  0
   -5.3956   -0.8819   -0.8900 C   0  0  0  0  0  0  0  0  0  0  0  0
   -6.1461   -0.9430   -2.1900 C   0  0  0  0  0  0  0  0  0  0  0  0
   -5.9940   -0.4698    0.3081 C   0  0  0  0  0  0  0  0  0  0  0  0
   -7.8163    0.0608    0.3896 Br  0  0  0  0  0  0  0  0  0  0  0  0
   -5.2594   -0.4406    1.4990 C   0  0  0  0  0  0  0  0  0  0  0  0
   -3.9088   -0.8198    1.5187 C   0  0  0  0  0  0  0  0  0  0  0  0
   -3.1406   -0.7879    2.8095 C   0  0  0  0  0  0  0  0  0  0  0  0
   -1.0630    0.6515   -0.2236 C   0  0  0  0  0  0  0  0  0  0  0  0
   -2.0712    1.6279   -0.3286 C   0  0  0  0  0  0  0  0  0  0  0  0
   -1.5888    2.8483   -0.6072 N   0  0  0  0  0  0  0  0  0  0  0  0
   -0.2534    2.6597   -0.6735 N   0  0  0  0  0  0  0  0  0  0  0  0
    0.6042    3.7810   -0.9647 C   0  0  0  0  0  0  0  0  0  0  0  0
    0.0958    1.3619   -0.4571 C   0  0  0  0  0  0  0  0  0  0  0  0
    2.1673    1.3659   -0.6381 H   0  0  0  0  0  0  0  0  0  0  0  0
    3.9730    0.3547    0.2895 H   0  0  0  0  0  0  0  0  0  0  0  0
    3.8592   -0.0510   -1.4444 H   0  0  0  0  0  0  0  0  0  0  0  0
    5.0453   -1.8181    0.7497 H   0  0  0  0  0  0  0  0  0  0  0  0
    4.8741   -2.3111   -0.9286 H   0  0  0  0  0  0  0  0  0  0  0  0
    7.1897   -1.4949   -0.4899 H   0  0  0  0  0  0  0  0  0  0  0  0
    6.3582   -0.5044   -1.6849 H   0  0  0  0  0  0  0  0  0  0  0  0
    7.9427   -0.4522    1.4547 H   0  0  0  0  0  0  0  0  0  0  0  0
    6.2455   -0.3409    2.0280 H   0  0  0  0  0  0  0  0  0  0  0  0
    7.2517    1.1137    1.9248 H   0  0  0  0  0  0  0  0  0  0  0  0
    0.4477   -2.1886    0.1989 H   0  0  0  0  0  0  0  0  0  0  0  0
   -3.5499   -1.5872   -1.7750 H   0  0  0  0  0  0  0  0  0  0  0  0
   -5.5047   -1.2899   -3.0075 H   0  0  0  0  0  0  0  0  0  0  0  0
   -6.5155    0.0498   -2.4661 H   0  0  0  0  0  0  0  0  0  0  0  0
   -6.9849   -1.6424   -2.1158 H   0  0  0  0  0  0  0  0  0  0  0  0
   -5.7420   -0.1265    2.4223 H   0  0  0  0  0  0  0  0  0  0  0  0
   -2.6181   -1.7365    2.9705 H   0  0  0  0  0  0  0  0  0  0  0  0
   -2.4135    0.0300    2.7966 H   0  0  0  0  0  0  0  0  0  0  0  0
   -3.8053   -0.6355    3.6665 H   0  0  0  0  0  0  0  0  0  0  0  0
   -3.1417    1.5235   -0.2190 H   0  0  0  0  0  0  0  0  0  0  0  0
    0.1425    4.6946   -0.5808 H   0  0  0  0  0  0  0  0  0  0  0  0
    0.7257    3.8430   -2.0487 H   0  0  0  0  0  0  0  0  0  0  0  0
    1.5716    3.6334   -0.4791 H   0  0  0  0  0  0  0  0  0  0  0  0
  1  2  1  0
  2  3  2  3
  3  4  1  0
  4  5  1  0
  5  6  1  0
  6  7  1  0
  7  8  1  0
  2  9  1  0
  9 10  1  0
 10 11  2  3
 11 12  1  0
 12 13  2  0
 13 14  1  0
 14 15  1  0
 14 16  2  0
 16 17  1  0
 16 18  1  0
 18 19  2  0
 19 20  1  0
 10 21  1  0
 21 22  1  0
 22 23  2  0
 23 24  1  0
 24 25  1  0
 24 26  1  0
 26  1  1  0
 19 12  1  0
 26 21  2  0
  1 27  1  0
  4 28  1  0
  4 29  1  0
  5 30  1  0
  5 31  1  0
  6 32  1  0
  6 33  1  0
  8 34  1  0
  8 35  1  0
  8 36  1  0
  9 37  1  0
 13 38  1  0
 15 39  1  0
 15 40  1  0
 15 41  1  0
 18 42  1  0
 20 43  1  0
 20 44  1  0
 20 45  1  0
 22 46  1  0
 25 47  1  0
 25 48  1  0
 25 49  1  0
M  END
>  <ScrubInfo>  (9) 
{"isomerGroup": 0, "isomerId": 8, "confId": 0, "nr_conformers:": 1, "nr_isomers:": 9}

$$$$
