REMARK SMILES COCCCNc1nc(Nc2cc(C)c(Br)cc2C)c2cnn(C)c2n1
REMARK SMILES IDX 5 1 4 2 3 3 2 4 1 5 6 6 7 8 8 9 26 10 9 11 25 12 20 13 23 14
REMARK SMILES IDX 21 15 22 16 24 17 10 18 11 20 12 21 18 22 13 23 17 24 15 25
REMARK SMILES IDX 19 26 14 27 16 28
REMARK H PARENT 6 7 10 19
ROOT
ATOM      1  C   UNL     1       3.675   0.633   1.130  1.00  0.00     0.118 C 
ENDROOT
BRANCH   1   2
ATOM      2  C   UNL     1       4.411  -0.697   0.966  1.00  0.00     0.050 C 
BRANCH   2   3
ATOM      3  C   UNL     1       5.747  -0.517   0.257  1.00  0.00     0.161 C 
BRANCH   3   4
ATOM      4  O   UNL     1       6.571   0.371   1.008  1.00  0.00    -0.385 OA
ATOM      5  C   UNL     1       7.846   0.545   0.401  1.00  0.00     0.194 C 
ENDBRANCH   3   4
ENDBRANCH   2   3
ENDBRANCH   1   2
BRANCH   1   6
ATOM      6  N   UNL     1       2.348   0.417   1.689  1.00  0.00    -0.354 N 
ATOM      7  H   UNL     1       2.052   1.118   2.360  1.00  0.00     0.163 HD
BRANCH   6   8
ATOM      8  C   UNL     1       1.309   0.315   0.772  1.00  0.00     0.226 A 
ATOM      9  N   UNL     1       0.140   0.827   1.200  1.00  0.00    -0.195 NA
ATOM     10  N   UNL     1       1.522  -0.260  -0.420  1.00  0.00    -0.193 NA
ATOM     11  C   UNL     1      -0.959   0.776   0.405  1.00  0.00     0.147 A 
ATOM     12  C   UNL     1       0.423  -0.290  -1.188  1.00  0.00     0.165 A 
ATOM     13  C   UNL     1      -0.826   0.197  -0.858  1.00  0.00     0.082 A 
ATOM     14  N   UNL     1       0.305  -0.807  -2.449  1.00  0.00    -0.250 N 
ATOM     15  C   UNL     1      -1.618  -0.070  -1.993  1.00  0.00     0.149 A 
ATOM     16  N   UNL     1      -0.937  -0.681  -2.971  1.00  0.00    -0.179 NA
ATOM     17  C   UNL     1       1.339  -1.440  -3.227  1.00  0.00     0.176 C 
BRANCH  11  18
ATOM     18  N   UNL     1      -2.145   1.327   0.927  1.00  0.00    -0.339 N 
ATOM     19  H   UNL     1      -1.963   1.459   1.921  1.00  0.00     0.168 HD
BRANCH  18  20
ATOM     20  C   UNL     1      -3.438   0.800   0.716  1.00  0.00     0.043 A 
ATOM     21  C   UNL     1      -4.383   1.631   0.092  1.00  0.00     0.031 A 
ATOM     22  C   UNL     1      -3.825  -0.480   1.151  1.00  0.00    -0.026 A 
ATOM     23  C   UNL     1      -5.696   1.202  -0.159  1.00  0.00    -0.035 A 
ATOM     24  C   UNL     1      -5.133  -0.918   0.889  1.00  0.00     0.021 A 
ATOM     25  C   UNL     1      -6.057  -0.089   0.243  1.00  0.00     0.021 A 
ATOM     26  C   UNL     1      -2.878  -1.413   1.855  1.00  0.00     0.046 C 
ATOM     27  C   UNL     1      -6.653   2.133  -0.846  1.00  0.00     0.045 C 
ATOM     28  Br  UNL     1      -7.801  -0.783  -0.054  1.00  0.00    -0.051 Br
ENDBRANCH  18  20
ENDBRANCH  11  18
ENDBRANCH   6   8
ENDBRANCH   1   6
TORSDOF 7
