_i0
     RDKit          3D

 41 43  0  0  0  0  0  0  0  0999 V2000
    5.4055   -2.9949    0.4940 C   0  0  0  0  0  0  0  0  0  0  0  0
    4.1261   -2.6463    1.0065 O   0  0  0  0  0  0  0  0  0  0  0  0
    3.3193   -1.9423    0.0553 C   0  0  0  0  0  0  0  0  0  0  0  0
    3.5859   -0.4312    0.1030 C   0  0  0  0  0  0  0  0  0  0  0  0
    2.8875    0.2843   -0.9572 N   0  0  0  0  0  0  0  0  0  0  0  0
    1.6077    0.7253   -0.6416 C   0  0  0  0  0  0  0  0  0  0  0  0
    0.8186   -0.0304    0.1455 N   0  0  0  0  0  0  0  0  0  0  0  0
   -0.4332    0.3841    0.4529 C   0  0  0  0  0  0  0  0  0  0  0  0
   -1.1946   -0.4614    1.2759 N   0  0  0  0  0  0  0  0  0  0  0  0
   -2.5585   -0.7701    1.0846 C   0  0  0  0  0  0  0  0  0  0  0  0
   -3.4243   -0.6610    2.1799 C   0  0  0  0  0  0  0  0  0  0  0  0
   -4.7763   -0.9920    2.0578 C   0  0  0  0  0  0  0  0  0  0  0  0
   -5.2725   -1.4632    0.8435 C   0  0  0  0  0  0  0  0  0  0  0  0
   -4.4144   -1.6206   -0.2433 C   0  0  0  0  0  0  0  0  0  0  0  0
   -3.0666   -1.2937   -0.1145 C   0  0  0  0  0  0  0  0  0  0  0  0
   -2.2737   -1.5341   -1.2032 O   0  0  0  0  0  0  0  0  0  0  0  0
   -0.8709    1.5977   -0.0772 C   0  0  0  0  0  0  0  0  0  0  0  0
   -2.0210    2.4121   -0.0541 C   0  0  0  0  0  0  0  0  0  0  0  0
   -1.8775    3.5328   -0.7723 N   0  0  0  0  0  0  0  0  0  0  0  0
   -0.6235    3.4233   -1.2688 N   0  0  0  0  0  0  0  0  0  0  0  0
   -0.1075    4.4627   -2.1231 C   0  0  0  0  0  0  0  0  0  0  0  0
    0.0239    2.2846   -0.8729 C   0  0  0  0  0  0  0  0  0  0  0  0
    1.2710    1.9005   -1.1864 N   0  0  0  0  0  0  0  0  0  0  0  0
    5.9546   -3.5246    1.2772 H   0  0  0  0  0  0  0  0  0  0  0  0
    5.3030   -3.6614   -0.3678 H   0  0  0  0  0  0  0  0  0  0  0  0
    5.9742   -2.1038    0.2154 H   0  0  0  0  0  0  0  0  0  0  0  0
    3.4741   -2.3445   -0.9536 H   0  0  0  0  0  0  0  0  0  0  0  0
    2.2778   -2.1491    0.3196 H   0  0  0  0  0  0  0  0  0  0  0  0
    4.6594   -0.2588   -0.0352 H   0  0  0  0  0  0  0  0  0  0  0  0
    3.3622   -0.0280    1.0997 H   0  0  0  0  0  0  0  0  0  0  0  0
    3.3735    1.1071   -1.3007 H   0  0  0  0  0  0  0  0  0  0  0  0
   -0.6461   -1.3044    1.4375 H   0  0  0  0  0  0  0  0  0  0  0  0
   -3.0483   -0.2974    3.1335 H   0  0  0  0  0  0  0  0  0  0  0  0
   -5.4407   -0.8840    2.9115 H   0  0  0  0  0  0  0  0  0  0  0  0
   -6.3238   -1.7215    0.7465 H   0  0  0  0  0  0  0  0  0  0  0  0
   -4.7899   -2.0109   -1.1851 H   0  0  0  0  0  0  0  0  0  0  0  0
   -1.3494   -1.3810   -0.9432 H   0  0  0  0  0  0  0  0  0  0  0  0
   -2.9580    2.2351    0.4587 H   0  0  0  0  0  0  0  0  0  0  0  0
   -0.7640    4.5511   -2.9925 H   0  0  0  0  0  0  0  0  0  0  0  0
   -0.0945    5.3976   -1.5572 H   0  0  0  0  0  0  0  0  0  0  0  0
    0.9047    4.2123   -2.4483 H   0  0  0  0  0  0  0  0  0  0  0  0
  1  2  1  0
  2  3  1  0
  3  4  1  0
  4  5  1  0
  5  6  1  0
  6  7  2  0
  7  8  1  0
  8  9  1  0
  9 10  1  0
 10 11  2  0
 11 12  1  0
 12 13  2  0
 13 14  1  0
 14 15  2  0
 15 16  1  0
  8 17  2  0
 17 18  1  0
 18 19  2  0
 19 20  1  0
 20 21  1  0
 20 22  1  0
 22 23  2  0
 23  6  1  0
 15 10  1  0
 22 17  1  0
  1 24  1  0
  1 25  1  0
  1 26  1  0
  3 27  1  0
  3 28  1  0
  4 29  1  0
  4 30  1  0
  5 31  1  0
  9 32  1  0
 11 33  1  0
 12 34  1  0
 13 35  1  0
 14 36  1  0
 16 37  1  0
 18 38  1  0
 21 39  1  0
 21 40  1  0
 21 41  1  0
M  END
>  <ScrubInfo>  (1) 
{"isomerGroup": 0, "isomerId": 0, "confId": 0, "nr_conformers:": 1, "nr_isomers:": 9}

$$$$
_i1
     RDKit          3D

 41 43  0  0  0  0  0  0  0  0999 V2000
   -0.2300    0.2579    0.5595 N   0  0  0  0  0  0  0  0  0  0  0  0
   -1.3758   -0.4503    0.8647 C   0  0  0  0  0  0  0  0  0  0  0  0
   -2.6374    0.1267    0.8035 N   0  0  0  0  0  0  0  0  0  0  0  0
   -3.0503    1.0631   -0.1815 C   0  0  0  0  0  0  0  0  0  0  0  0
   -2.5446    1.0763   -1.4861 C   0  0  0  0  0  0  0  0  0  0  0  0
   -3.0563    1.9680   -2.4351 C   0  0  0  0  0  0  0  0  0  0  0  0
   -4.0907    2.8416   -2.0961 C   0  0  0  0  0  0  0  0  0  0  0  0
   -4.6166    2.8301   -0.8063 C   0  0  0  0  0  0  0  0  0  0  0  0
   -4.0934    1.9491    0.1325 C   0  0  0  0  0  0  0  0  0  0  0  0
   -4.6056    1.9806    1.4020 O   0  0  0  0  0  0  0  0  0  0  0  0
   -1.1667   -1.7155    1.2499 C   0  0  0  0  0  0  0  0  0  0  0  0
   -1.9612   -2.8791    1.6592 C   0  0  0  0  0  0  0  0  0  0  0  0
   -1.2337   -3.9376    1.9095 N   0  0  0  0  0  0  0  0  0  0  0  0
    0.0969   -3.5267    1.7294 N   0  0  0  0  0  0  0  0  0  0  0  0
    1.1303   -4.5287    1.6261 C   0  0  0  0  0  0  0  0  0  0  0  0
    0.2257   -2.2204    1.2851 C   0  0  0  0  0  0  0  0  0  0  0  0
    1.2783   -1.5519    0.9557 N   0  0  0  0  0  0  0  0  0  0  0  0
    1.0415   -0.2511    0.5677 C   0  0  0  0  0  0  0  0  0  0  0  0
    2.0168    0.5158    0.2101 N   0  0  0  0  0  0  0  0  0  0  0  0
    3.3619   -0.0769    0.2089 C   0  0  0  0  0  0  0  0  0  0  0  0
    4.3641    0.9471   -0.3311 C   0  0  0  0  0  0  0  0  0  0  0  0
    4.2551    1.0353   -1.7565 O   0  0  0  0  0  0  0  0  0  0  0  0
    5.1147    2.0350   -2.2837 C   0  0  0  0  0  0  0  0  0  0  0  0
   -0.3300    1.2225    0.2773 H   0  0  0  0  0  0  0  0  0  0  0  0
   -3.3972   -0.5361    0.9580 H   0  0  0  0  0  0  0  0  0  0  0  0
   -1.7625    0.3858   -1.7919 H   0  0  0  0  0  0  0  0  0  0  0  0
   -2.6527    1.9727   -3.4452 H   0  0  0  0  0  0  0  0  0  0  0  0
   -4.4874    3.5299   -2.8382 H   0  0  0  0  0  0  0  0  0  0  0  0
   -5.4196    3.5075   -0.5319 H   0  0  0  0  0  0  0  0  0  0  0  0
   -3.9431    1.5326    1.9601 H   0  0  0  0  0  0  0  0  0  0  0  0
   -3.0559   -2.8296    1.7149 H   0  0  0  0  0  0  0  0  0  0  0  0
    1.1943   -4.9052    0.6004 H   0  0  0  0  0  0  0  0  0  0  0  0
    0.9207   -5.3719    2.2922 H   0  0  0  0  0  0  0  0  0  0  0  0
    2.1042   -4.1157    1.9075 H   0  0  0  0  0  0  0  0  0  0  0  0
    3.6481   -0.3366    1.2347 H   0  0  0  0  0  0  0  0  0  0  0  0
    3.3886   -0.9739   -0.4213 H   0  0  0  0  0  0  0  0  0  0  0  0
    5.3805    0.6196   -0.0840 H   0  0  0  0  0  0  0  0  0  0  0  0
    4.1873    1.9315    0.1183 H   0  0  0  0  0  0  0  0  0  0  0  0
    4.8428    3.0200   -1.8921 H   0  0  0  0  0  0  0  0  0  0  0  0
    5.0008    2.0491   -3.3710 H   0  0  0  0  0  0  0  0  0  0  0  0
    6.1583    1.8092   -2.0446 H   0  0  0  0  0  0  0  0  0  0  0  0
  1  2  1  0
  2  3  1  0
  3  4  1  0
  4  5  2  0
  5  6  1  0
  6  7  2  0
  7  8  1  0
  8  9  2  0
  9 10  1  0
  2 11  2  0
 11 12  1  0
 12 13  2  0
 13 14  1  0
 14 15  1  0
 14 16  1  0
 16 17  2  0
 17 18  1  0
 18 19  2  3
 19 20  1  0
 20 21  1  0
 21 22  1  0
 22 23  1  0
 18  1  1  0
  9  4  1  0
 16 11  1  0
  1 24  1  0
  3 25  1  0
  5 26  1  0
  6 27  1  0
  7 28  1  0
  8 29  1  0
 10 30  1  0
 12 31  1  0
 15 32  1  0
 15 33  1  0
 15 34  1  0
 20 35  1  0
 20 36  1  0
 21 37  1  0
 21 38  1  0
 23 39  1  0
 23 40  1  0
 23 41  1  0
M  END
>  <ScrubInfo>  (2) 
{"isomerGroup": 0, "isomerId": 1, "confId": 0, "nr_conformers:": 1, "nr_isomers:": 9}

$$$$
_i2
     RDKit          3D

 41 43  0  0  0  0  0  0  0  0999 V2000
    0.6960   -0.1421    0.9388 N   0  0  0  0  0  0  0  0  0  0  0  0
    1.4680    0.9593    0.6694 C   0  0  0  0  0  0  0  0  0  0  0  0
    2.7770    0.8954    1.0525 N   0  0  0  0  0  0  0  0  0  0  0  0
    3.6331   -0.2572    0.7973 C   0  0  0  0  0  0  0  0  0  0  0  0
    3.8397   -0.5021   -0.7029 C   0  0  0  0  0  0  0  0  0  0  0  0
    4.6743   -1.6387   -0.9331 O   0  0  0  0  0  0  0  0  0  0  0  0
    6.0610   -1.3254   -0.9098 C   0  0  0  0  0  0  0  0  0  0  0  0
    1.0243    2.0424    0.0843 N   0  0  0  0  0  0  0  0  0  0  0  0
   -0.2944    1.9283   -0.2430 C   0  0  0  0  0  0  0  0  0  0  0  0
   -1.1548    0.8662   -0.0060 C   0  0  0  0  0  0  0  0  0  0  0  0
   -2.3709    1.2690   -0.5861 C   0  0  0  0  0  0  0  0  0  0  0  0
   -2.3071    2.4926   -1.1266 N   0  0  0  0  0  0  0  0  0  0  0  0
   -1.0304    2.8739   -0.9001 N   0  0  0  0  0  0  0  0  0  0  0  0
   -0.5865    4.1644   -1.3633 C   0  0  0  0  0  0  0  0  0  0  0  0
   -0.6494   -0.2985    0.6944 C   0  0  0  0  0  0  0  0  0  0  0  0
   -1.2888   -1.3626    1.0789 N   0  0  0  0  0  0  0  0  0  0  0  0
   -2.6719   -1.4995    0.8956 C   0  0  0  0  0  0  0  0  0  0  0  0
   -3.5792   -0.9317    1.7931 C   0  0  0  0  0  0  0  0  0  0  0  0
   -4.9539   -1.0965    1.6008 C   0  0  0  0  0  0  0  0  0  0  0  0
   -5.4272   -1.8448    0.5199 C   0  0  0  0  0  0  0  0  0  0  0  0
   -4.5292   -2.4416   -0.3646 C   0  0  0  0  0  0  0  0  0  0  0  0
   -3.1651   -2.2744   -0.1620 C   0  0  0  0  0  0  0  0  0  0  0  0
   -2.2950   -2.8906   -1.0201 O   0  0  0  0  0  0  0  0  0  0  0  0
    1.0875   -0.8432    1.5462 H   0  0  0  0  0  0  0  0  0  0  0  0
    3.2368    1.7695    0.8041 H   0  0  0  0  0  0  0  0  0  0  0  0
    3.2328   -1.1594    1.2737 H   0  0  0  0  0  0  0  0  0  0  0  0
    4.5992   -0.0784    1.2815 H   0  0  0  0  0  0  0  0  0  0  0  0
    4.2428    0.3863   -1.2043 H   0  0  0  0  0  0  0  0  0  0  0  0
    2.8745   -0.7212   -1.1728 H   0  0  0  0  0  0  0  0  0  0  0  0
    6.3584   -0.9355    0.0673 H   0  0  0  0  0  0  0  0  0  0  0  0
    6.6224   -2.2439   -1.1012 H   0  0  0  0  0  0  0  0  0  0  0  0
    6.3025   -0.6017   -1.6942 H   0  0  0  0  0  0  0  0  0  0  0  0
   -3.3104    0.7376   -0.6522 H   0  0  0  0  0  0  0  0  0  0  0  0
    0.4123    4.3792   -0.9771 H   0  0  0  0  0  0  0  0  0  0  0  0
   -1.2881    4.9217   -1.0040 H   0  0  0  0  0  0  0  0  0  0  0  0
   -0.5694    4.1478   -2.4559 H   0  0  0  0  0  0  0  0  0  0  0  0
   -3.2166   -0.3557    2.6398 H   0  0  0  0  0  0  0  0  0  0  0  0
   -5.6565   -0.6431    2.2958 H   0  0  0  0  0  0  0  0  0  0  0  0
   -6.4969   -1.9715    0.3730 H   0  0  0  0  0  0  0  0  0  0  0  0
   -4.8876   -3.0382   -1.1979 H   0  0  0  0  0  0  0  0  0  0  0  0
   -1.4132   -2.7360   -0.6287 H   0  0  0  0  0  0  0  0  0  0  0  0
  1  2  1  0
  2  3  1  0
  3  4  1  0
  4  5  1  0
  5  6  1  0
  6  7  1  0
  2  8  2  0
  8  9  1  0
  9 10  2  0
 10 11  1  0
 11 12  2  0
 12 13  1  0
 13 14  1  0
 10 15  1  0
 15 16  2  3
 16 17  1  0
 17 18  2  0
 18 19  1  0
 19 20  2  0
 20 21  1  0
 21 22  2  0
 22 23  1  0
 15  1  1  0
 22 17  1  0
 13  9  1  0
  1 24  1  0
  3 25  1  0
  4 26  1  0
  4 27  1  0
  5 28  1  0
  5 29  1  0
  7 30  1  0
  7 31  1  0
  7 32  1  0
 11 33  1  0
 14 34  1  0
 14 35  1  0
 14 36  1  0
 18 37  1  0
 19 38  1  0
 20 39  1  0
 21 40  1  0
 23 41  1  0
M  END
>  <ScrubInfo>  (3) 
{"isomerGroup": 0, "isomerId": 2, "confId": 0, "nr_conformers:": 1, "nr_isomers:": 9}

$$$$
_i3
     RDKit          3D

 41 43  0  0  0  0  0  0  0  0999 V2000
    0.9139    1.4492   -0.4330 N   0  0  0  0  0  0  0  0  0  0  0  0
    1.1658    0.1299   -0.0894 C   0  0  0  0  0  0  0  0  0  0  0  0
    2.2092   -0.5559   -0.3880 N   0  0  0  0  0  0  0  0  0  0  0  0
    3.2878    0.0612   -1.1590 C   0  0  0  0  0  0  0  0  0  0  0  0
    4.5278   -0.8359   -1.0995 C   0  0  0  0  0  0  0  0  0  0  0  0
    5.2411   -0.5794    0.1151 O   0  0  0  0  0  0  0  0  0  0  0  0
    6.3184   -1.4890    0.2884 C   0  0  0  0  0  0  0  0  0  0  0  0
    0.2422   -0.6126    0.6386 N   0  0  0  0  0  0  0  0  0  0  0  0
   -0.8775   -0.0554    1.0029 C   0  0  0  0  0  0  0  0  0  0  0  0
   -1.8350   -0.7260    1.7224 N   0  0  0  0  0  0  0  0  0  0  0  0
   -2.9479   -1.2735    1.0157 C   0  0  0  0  0  0  0  0  0  0  0  0
   -4.2331   -1.0075    1.5084 C   0  0  0  0  0  0  0  0  0  0  0  0
   -5.3601   -1.5440    0.8823 C   0  0  0  0  0  0  0  0  0  0  0  0
   -5.2125   -2.3687   -0.2315 C   0  0  0  0  0  0  0  0  0  0  0  0
   -3.9384   -2.6652   -0.7142 C   0  0  0  0  0  0  0  0  0  0  0  0
   -2.8131   -2.1281   -0.0914 C   0  0  0  0  0  0  0  0  0  0  0  0
   -1.6055   -2.5123   -0.6078 O   0  0  0  0  0  0  0  0  0  0  0  0
   -1.1787    1.3100    0.6688 C   0  0  0  0  0  0  0  0  0  0  0  0
   -2.2198    2.2245    0.8735 C   0  0  0  0  0  0  0  0  0  0  0  0
   -1.9587    3.4214    0.3236 N   0  0  0  0  0  0  0  0  0  0  0  0
   -0.7355    3.2608   -0.2407 N   0  0  0  0  0  0  0  0  0  0  0  0
   -0.1334    4.3711   -0.9334 C   0  0  0  0  0  0  0  0  0  0  0  0
   -0.2468    2.0078   -0.0468 C   0  0  0  0  0  0  0  0  0  0  0  0
    1.6218    1.9366   -0.9606 H   0  0  0  0  0  0  0  0  0  0  0  0
    3.5439    1.0516   -0.7659 H   0  0  0  0  0  0  0  0  0  0  0  0
    2.9660    0.1543   -2.2022 H   0  0  0  0  0  0  0  0  0  0  0  0
    4.2470   -1.8940   -1.1599 H   0  0  0  0  0  0  0  0  0  0  0  0
    5.1899   -0.5930   -1.9383 H   0  0  0  0  0  0  0  0  0  0  0  0
    6.8392   -1.2337    1.2152 H   0  0  0  0  0  0  0  0  0  0  0  0
    5.9448   -2.5143    0.3696 H   0  0  0  0  0  0  0  0  0  0  0  0
    7.0251   -1.4096   -0.5433 H   0  0  0  0  0  0  0  0  0  0  0  0
   -1.3772   -1.5447    2.1281 H   0  0  0  0  0  0  0  0  0  0  0  0
   -4.3607   -0.3725    2.3819 H   0  0  0  0  0  0  0  0  0  0  0  0
   -6.3527   -1.3214    1.2658 H   0  0  0  0  0  0  0  0  0  0  0  0
   -6.0881   -2.7895   -0.7192 H   0  0  0  0  0  0  0  0  0  0  0  0
   -3.8193   -3.3219   -1.5719 H   0  0  0  0  0  0  0  0  0  0  0  0
   -0.8682   -2.0504   -0.1618 H   0  0  0  0  0  0  0  0  0  0  0  0
   -3.1559    2.0815    1.3968 H   0  0  0  0  0  0  0  0  0  0  0  0
    0.8367    4.0760   -1.3385 H   0  0  0  0  0  0  0  0  0  0  0  0
   -0.7983    4.6711   -1.7473 H   0  0  0  0  0  0  0  0  0  0  0  0
   -0.0044    5.1912   -0.2226 H   0  0  0  0  0  0  0  0  0  0  0  0
  1  2  1  0
  2  3  2  3
  3  4  1  0
  4  5  1  0
  5  6  1  0
  6  7  1  0
  2  8  1  0
  8  9  2  0
  9 10  1  0
 10 11  1  0
 11 12  2  0
 12 13  1  0
 13 14  2  0
 14 15  1  0
 15 16  2  0
 16 17  1  0
  9 18  1  0
 18 19  1  0
 19 20  2  0
 20 21  1  0
 21 22  1  0
 21 23  1  0
 23  1  1  0
 16 11  1  0
 23 18  2  0
  1 24  1  0
  4 25  1  0
  4 26  1  0
  5 27  1  0
  5 28  1  0
  7 29  1  0
  7 30  1  0
  7 31  1  0
 10 32  1  0
 12 33  1  0
 13 34  1  0
 14 35  1  0
 15 36  1  0
 17 37  1  0
 19 38  1  0
 22 39  1  0
 22 40  1  0
 22 41  1  0
M  END
>  <ScrubInfo>  (4) 
{"isomerGroup": 0, "isomerId": 3, "confId": 0, "nr_conformers:": 1, "nr_isomers:": 9}

$$$$
_i4
     RDKit          3D

 41 43  0  0  0  0  0  0  0  0999 V2000
   -1.5600    4.1473    0.9444 N   0  0  0  0  0  0  0  0  0  0  0  0
   -2.3214    3.0076    0.7071 C   0  0  0  0  0  0  0  0  0  0  0  0
   -1.5752    1.9442    0.3814 C   0  0  0  0  0  0  0  0  0  0  0  0
   -1.7900    0.5632    0.0159 C   0  0  0  0  0  0  0  0  0  0  0  0
   -2.9703    0.0235    0.0164 N   0  0  0  0  0  0  0  0  0  0  0  0
   -3.0969   -1.3240   -0.3766 C   0  0  0  0  0  0  0  0  0  0  0  0
   -2.9715   -1.7214   -1.7100 C   0  0  0  0  0  0  0  0  0  0  0  0
   -3.1296   -3.0653   -2.0632 C   0  0  0  0  0  0  0  0  0  0  0  0
   -3.4281   -4.0182   -1.0859 C   0  0  0  0  0  0  0  0  0  0  0  0
   -3.5772   -3.6309    0.2454 C   0  0  0  0  0  0  0  0  0  0  0  0
   -3.4192   -2.2924    0.5833 C   0  0  0  0  0  0  0  0  0  0  0  0
   -3.5966   -1.9183    1.8892 O   0  0  0  0  0  0  0  0  0  0  0  0
   -0.6497   -0.1167   -0.3158 N   0  0  0  0  0  0  0  0  0  0  0  0
    0.5319    0.4279   -0.2571 C   0  0  0  0  0  0  0  0  0  0  0  0
    1.5719   -0.3741   -0.6259 N   0  0  0  0  0  0  0  0  0  0  0  0
    2.9283   -0.1499   -0.1640 C   0  0  0  0  0  0  0  0  0  0  0  0
    3.8979   -1.1342   -0.8277 C   0  0  0  0  0  0  0  0  0  0  0  0
    5.2558   -0.9046   -0.4455 O   0  0  0  0  0  0  0  0  0  0  0  0
    5.5782   -1.4460    0.8285 C   0  0  0  0  0  0  0  0  0  0  0  0
    0.8010    1.7096    0.1487 N   0  0  0  0  0  0  0  0  0  0  0  0
   -0.2007    2.4526    0.4670 C   0  0  0  0  0  0  0  0  0  0  0  0
   -0.2171    3.7760    0.9114 N   0  0  0  0  0  0  0  0  0  0  0  0
    0.7645    4.7314    0.4336 C   0  0  0  0  0  0  0  0  0  0  0  0
   -1.8621    4.6742    1.7672 H   0  0  0  0  0  0  0  0  0  0  0  0
   -3.3976    3.0536    0.7975 H   0  0  0  0  0  0  0  0  0  0  0  0
   -2.7424   -0.9837   -2.4732 H   0  0  0  0  0  0  0  0  0  0  0  0
   -3.0219   -3.3671   -3.1017 H   0  0  0  0  0  0  0  0  0  0  0  0
   -3.5525   -5.0616   -1.3637 H   0  0  0  0  0  0  0  0  0  0  0  0
   -3.8219   -4.3605    1.0106 H   0  0  0  0  0  0  0  0  0  0  0  0
   -3.5102   -0.9447    1.8642 H   0  0  0  0  0  0  0  0  0  0  0  0
    1.2760   -1.3418   -0.6884 H   0  0  0  0  0  0  0  0  0  0  0  0
    3.2540    0.8722   -0.3911 H   0  0  0  0  0  0  0  0  0  0  0  0
    2.9654   -0.2587    0.9252 H   0  0  0  0  0  0  0  0  0  0  0  0
    3.8493   -1.0043   -1.9150 H   0  0  0  0  0  0  0  0  0  0  0  0
    3.6154   -2.1742   -0.6228 H   0  0  0  0  0  0  0  0  0  0  0  0
    6.6425   -1.2750    1.0123 H   0  0  0  0  0  0  0  0  0  0  0  0
    5.0100   -0.9507    1.6201 H   0  0  0  0  0  0  0  0  0  0  0  0
    5.3926   -2.5242    0.8472 H   0  0  0  0  0  0  0  0  0  0  0  0
    0.6499    5.6874    0.9547 H   0  0  0  0  0  0  0  0  0  0  0  0
    0.6483    4.9046   -0.6414 H   0  0  0  0  0  0  0  0  0  0  0  0
    1.7796    4.3674    0.6224 H   0  0  0  0  0  0  0  0  0  0  0  0
  1  2  1  0
  2  3  2  0
  3  4  1  0
  4  5  2  3
  5  6  1  0
  6  7  2  0
  7  8  1  0
  8  9  2  0
  9 10  1  0
 10 11  2  0
 11 12  1  0
  4 13  1  0
 13 14  2  0
 14 15  1  0
 15 16  1  0
 16 17  1  0
 17 18  1  0
 18 19  1  0
 14 20  1  0
 20 21  2  0
 21 22  1  0
 22 23  1  0
 22  1  1  0
 21  3  1  0
 11  6  1  0
  1 24  1  0
  2 25  1  0
  7 26  1  0
  8 27  1  0
  9 28  1  0
 10 29  1  0
 12 30  1  0
 15 31  1  0
 16 32  1  0
 16 33  1  0
 17 34  1  0
 17 35  1  0
 19 36  1  0
 19 37  1  0
 19 38  1  0
 23 39  1  0
 23 40  1  0
 23 41  1  0
M  END
>  <ScrubInfo>  (5) 
{"isomerGroup": 0, "isomerId": 4, "confId": 0, "nr_conformers:": 1, "nr_isomers:": 9}

$$$$
_i5
     RDKit          3D

 41 43  0  0  0  0  0  0  0  0999 V2000
    0.9474   -1.6262    0.4081 N   0  0  0  0  0  0  0  0  0  0  0  0
    1.4917   -0.3661    0.4255 C   0  0  0  0  0  0  0  0  0  0  0  0
    2.8540   -0.3372    0.5005 N   0  0  0  0  0  0  0  0  0  0  0  0
    3.6727   -1.0007   -0.5139 C   0  0  0  0  0  0  0  0  0  0  0  0
    5.1262   -0.5207   -0.4072 C   0  0  0  0  0  0  0  0  0  0  0  0
    5.2334    0.9060   -0.4708 O   0  0  0  0  0  0  0  0  0  0  0  0
    5.0628    1.4313   -1.7808 C   0  0  0  0  0  0  0  0  0  0  0  0
    0.8212    0.7492    0.3925 N   0  0  0  0  0  0  0  0  0  0  0  0
   -0.5651    0.7189    0.3078 C   0  0  0  0  0  0  0  0  0  0  0  0
   -1.1436    1.8718    0.1807 N   0  0  0  0  0  0  0  0  0  0  0  0
   -2.5307    2.0015    0.0563 C   0  0  0  0  0  0  0  0  0  0  0  0
   -3.1696    1.8502   -1.1759 C   0  0  0  0  0  0  0  0  0  0  0  0
   -4.5564    1.9999   -1.2691 C   0  0  0  0  0  0  0  0  0  0  0  0
   -5.3066    2.3190   -0.1339 C   0  0  0  0  0  0  0  0  0  0  0  0
   -4.6733    2.5046    1.0950 C   0  0  0  0  0  0  0  0  0  0  0  0
   -3.2945    2.3584    1.1746 C   0  0  0  0  0  0  0  0  0  0  0  0
   -2.6753    2.5769    2.3757 O   0  0  0  0  0  0  0  0  0  0  0  0
   -1.1930   -0.5900    0.3817 C   0  0  0  0  0  0  0  0  0  0  0  0
   -2.4937   -1.1211    0.4577 C   0  0  0  0  0  0  0  0  0  0  0  0
   -2.5058   -2.4624    0.5274 N   0  0  0  0  0  0  0  0  0  0  0  0
   -1.1964   -2.7968    0.5161 N   0  0  0  0  0  0  0  0  0  0  0  0
   -0.8279   -4.1871    0.5949 C   0  0  0  0  0  0  0  0  0  0  0  0
   -0.3941   -1.7052    0.4265 C   0  0  0  0  0  0  0  0  0  0  0  0
    1.5580   -2.3838    0.6827 H   0  0  0  0  0  0  0  0  0  0  0  0
    3.1518    0.6403    0.5723 H   0  0  0  0  0  0  0  0  0  0  0  0
    3.6367   -2.0867   -0.3773 H   0  0  0  0  0  0  0  0  0  0  0  0
    3.2741   -0.7707   -1.5079 H   0  0  0  0  0  0  0  0  0  0  0  0
    5.5332   -0.8203    0.5650 H   0  0  0  0  0  0  0  0  0  0  0  0
    5.7504   -0.9827   -1.1804 H   0  0  0  0  0  0  0  0  0  0  0  0
    5.7728    0.9739   -2.4763 H   0  0  0  0  0  0  0  0  0  0  0  0
    4.0384    1.2810   -2.1311 H   0  0  0  0  0  0  0  0  0  0  0  0
    5.2566    2.5069   -1.7444 H   0  0  0  0  0  0  0  0  0  0  0  0
   -2.5875    1.6144   -2.0622 H   0  0  0  0  0  0  0  0  0  0  0  0
   -5.0516    1.8729   -2.2286 H   0  0  0  0  0  0  0  0  0  0  0  0
   -6.3847    2.4368   -0.2100 H   0  0  0  0  0  0  0  0  0  0  0  0
   -5.2449    2.7723    1.9782 H   0  0  0  0  0  0  0  0  0  0  0  0
   -1.7191    2.5687    2.1632 H   0  0  0  0  0  0  0  0  0  0  0  0
   -3.4453   -0.6072    0.4753 H   0  0  0  0  0  0  0  0  0  0  0  0
   -1.0633   -4.5469    1.5995 H   0  0  0  0  0  0  0  0  0  0  0  0
   -1.3992   -4.7421   -0.1537 H   0  0  0  0  0  0  0  0  0  0  0  0
    0.2401   -4.3005    0.3971 H   0  0  0  0  0  0  0  0  0  0  0  0
  1  2  1  0
  2  3  1  0
  3  4  1  0
  4  5  1  0
  5  6  1  0
  6  7  1  0
  2  8  2  0
  8  9  1  0
  9 10  2  3
 10 11  1  0
 11 12  2  0
 12 13  1  0
 13 14  2  0
 14 15  1  0
 15 16  2  0
 16 17  1  0
  9 18  1  0
 18 19  1  0
 19 20  2  0
 20 21  1  0
 21 22  1  0
 21 23  1  0
 23  1  1  0
 16 11  1  0
 23 18  2  0
  1 24  1  0
  3 25  1  0
  4 26  1  0
  4 27  1  0
  5 28  1  0
  5 29  1  0
  7 30  1  0
  7 31  1  0
  7 32  1  0
 12 33  1  0
 13 34  1  0
 14 35  1  0
 15 36  1  0
 17 37  1  0
 19 38  1  0
 22 39  1  0
 22 40  1  0
 22 41  1  0
M  END
>  <ScrubInfo>  (6) 
{"isomerGroup": 0, "isomerId": 5, "confId": 0, "nr_conformers:": 1, "nr_isomers:": 9}

$$$$
_i6
     RDKit          3D

 41 43  0  0  0  0  0  0  0  0999 V2000
   -0.9351   -4.1407   -0.2384 N   0  0  0  0  0  0  0  0  0  0  0  0
   -1.7842   -3.0398   -0.2095 C   0  0  0  0  0  0  0  0  0  0  0  0
   -1.1261   -1.8741   -0.1379 C   0  0  0  0  0  0  0  0  0  0  0  0
   -1.4337   -0.4403   -0.1063 C   0  0  0  0  0  0  0  0  0  0  0  0
   -2.7489   -0.0292   -0.1379 N   0  0  0  0  0  0  0  0  0  0  0  0
   -3.3480    1.2472   -0.0439 C   0  0  0  0  0  0  0  0  0  0  0  0
   -4.6963    1.3344   -0.4606 C   0  0  0  0  0  0  0  0  0  0  0  0
   -5.4121    2.5359   -0.4227 C   0  0  0  0  0  0  0  0  0  0  0  0
   -4.7955    3.6922    0.0336 C   0  0  0  0  0  0  0  0  0  0  0  0
   -3.4670    3.6407    0.4418 C   0  0  0  0  0  0  0  0  0  0  0  0
   -2.7502    2.4388    0.3925 C   0  0  0  0  0  0  0  0  0  0  0  0
   -1.4650    2.5450    0.8395 O   0  0  0  0  0  0  0  0  0  0  0  0
   -0.4233    0.3799   -0.0676 N   0  0  0  0  0  0  0  0  0  0  0  0
    0.8648   -0.1134   -0.0711 C   0  0  0  0  0  0  0  0  0  0  0  0
    1.7571    0.8107   -0.1002 N   0  0  0  0  0  0  0  0  0  0  0  0
    3.1597    0.3970   -0.1027 C   0  0  0  0  0  0  0  0  0  0  0  0
    4.0443    1.6413   -0.2186 C   0  0  0  0  0  0  0  0  0  0  0  0
    5.4347    1.3078   -0.2777 O   0  0  0  0  0  0  0  0  0  0  0  0
    5.9960    1.0578    1.0036 C   0  0  0  0  0  0  0  0  0  0  0  0
    1.2451   -1.4329   -0.0368 N   0  0  0  0  0  0  0  0  0  0  0  0
    0.2897   -2.2942   -0.0570 C   0  0  0  0  0  0  0  0  0  0  0  0
    0.3609   -3.6865   -0.0224 N   0  0  0  0  0  0  0  0  0  0  0  0
    1.4716   -4.3931   -0.6329 C   0  0  0  0  0  0  0  0  0  0  0  0
   -1.2424   -4.9164    0.3538 H   0  0  0  0  0  0  0  0  0  0  0  0
   -2.8503   -3.2088   -0.2442 H   0  0  0  0  0  0  0  0  0  0  0  0
   -3.4364   -0.7607   -0.2645 H   0  0  0  0  0  0  0  0  0  0  0  0
   -5.2148    0.4528   -0.8312 H   0  0  0  0  0  0  0  0  0  0  0  0
   -6.4478    2.5648   -0.7508 H   0  0  0  0  0  0  0  0  0  0  0  0
   -5.3404    4.6313    0.0704 H   0  0  0  0  0  0  0  0  0  0  0  0
   -2.9737    4.5413    0.7998 H   0  0  0  0  0  0  0  0  0  0  0  0
   -0.9569    1.7873    0.4798 H   0  0  0  0  0  0  0  0  0  0  0  0
    3.3813   -0.2688   -0.9464 H   0  0  0  0  0  0  0  0  0  0  0  0
    3.4014   -0.1427    0.8199 H   0  0  0  0  0  0  0  0  0  0  0  0
    3.8040    2.1648   -1.1511 H   0  0  0  0  0  0  0  0  0  0  0  0
    3.8523    2.3480    0.5980 H   0  0  0  0  0  0  0  0  0  0  0  0
    5.5393    0.1804    1.4689 H   0  0  0  0  0  0  0  0  0  0  0  0
    5.8822    1.9321    1.6517 H   0  0  0  0  0  0  0  0  0  0  0  0
    7.0638    0.8602    0.8752 H   0  0  0  0  0  0  0  0  0  0  0  0
    1.4023   -5.4652   -0.4222 H   0  0  0  0  0  0  0  0  0  0  0  0
    1.4733   -4.2509   -1.7186 H   0  0  0  0  0  0  0  0  0  0  0  0
    2.4244   -4.0342   -0.2305 H   0  0  0  0  0  0  0  0  0  0  0  0
  1  2  1  0
  2  3  2  0
  3  4  1  0
  4  5  1  0
  5  6  1  0
  6  7  2  0
  7  8  1  0
  8  9  2  0
  9 10  1  0
 10 11  2  0
 11 12  1  0
  4 13  2  0
 13 14  1  0
 14 15  2  3
 15 16  1  0
 16 17  1  0
 17 18  1  0
 18 19  1  0
 14 20  1  0
 20 21  2  0
 21 22  1  0
 22 23  1  0
 22  1  1  0
 21  3  1  0
 11  6  1  0
  1 24  1  0
  2 25  1  0
  5 26  1  0
  7 27  1  0
  8 28  1  0
  9 29  1  0
 10 30  1  0
 12 31  1  0
 16 32  1  0
 16 33  1  0
 17 34  1  0
 17 35  1  0
 19 36  1  0
 19 37  1  0
 19 38  1  0
 23 39  1  0
 23 40  1  0
 23 41  1  0
M  END
>  <ScrubInfo>  (7) 
{"isomerGroup": 0, "isomerId": 6, "confId": 0, "nr_conformers:": 1, "nr_isomers:": 9}

$$$$
_i7
     RDKit          3D

 41 43  0  0  0  0  0  0  0  0999 V2000
   -1.0413   -1.7424   -1.7507 N   0  0  0  0  0  0  0  0  0  0  0  0
   -1.6993   -0.8114   -0.9558 C   0  0  0  0  0  0  0  0  0  0  0  0
   -0.8847   -0.1480   -0.1229 C   0  0  0  0  0  0  0  0  0  0  0  0
   -0.9378    0.8686    0.9468 C   0  0  0  0  0  0  0  0  0  0  0  0
   -1.9551    1.5505    1.3882 N   0  0  0  0  0  0  0  0  0  0  0  0
   -3.2189    1.4088    0.7950 C   0  0  0  0  0  0  0  0  0  0  0  0
   -3.5691    2.1465   -0.3377 C   0  0  0  0  0  0  0  0  0  0  0  0
   -4.8358    1.9961   -0.9097 C   0  0  0  0  0  0  0  0  0  0  0  0
   -5.7625    1.1175   -0.3425 C   0  0  0  0  0  0  0  0  0  0  0  0
   -5.4322    0.3965    0.8048 C   0  0  0  0  0  0  0  0  0  0  0  0
   -4.1727    0.5582    1.3681 C   0  0  0  0  0  0  0  0  0  0  0  0
   -3.8706   -0.1321    2.5103 O   0  0  0  0  0  0  0  0  0  0  0  0
    0.2868    1.0766    1.5213 N   0  0  0  0  0  0  0  0  0  0  0  0
    1.4735    0.4904    1.1839 C   0  0  0  0  0  0  0  0  0  0  0  0
    2.5319    0.8227    1.8468 N   0  0  0  0  0  0  0  0  0  0  0  0
    3.8021    0.1811    1.4890 C   0  0  0  0  0  0  0  0  0  0  0  0
    4.4804    0.9140    0.3286 C   0  0  0  0  0  0  0  0  0  0  0  0
    5.7387    0.3262   -0.0148 O   0  0  0  0  0  0  0  0  0  0  0  0
    5.5992   -0.8188   -0.8452 C   0  0  0  0  0  0  0  0  0  0  0  0
    1.5601   -0.4217    0.1546 N   0  0  0  0  0  0  0  0  0  0  0  0
    0.4647   -0.7196   -0.4727 C   0  0  0  0  0  0  0  0  0  0  0  0
    0.3231   -1.6045   -1.5444 N   0  0  0  0  0  0  0  0  0  0  0  0
    1.1726   -2.7751   -1.6623 C   0  0  0  0  0  0  0  0  0  0  0  0
   -1.3581   -1.7471   -2.7230 H   0  0  0  0  0  0  0  0  0  0  0  0
   -2.7692   -0.7130   -1.0675 H   0  0  0  0  0  0  0  0  0  0  0  0
   -2.8559    2.8404   -0.7735 H   0  0  0  0  0  0  0  0  0  0  0  0
   -5.1035    2.5714   -1.7927 H   0  0  0  0  0  0  0  0  0  0  0  0
   -6.7492    1.0065   -0.7858 H   0  0  0  0  0  0  0  0  0  0  0  0
   -6.1526   -0.2738    1.2640 H   0  0  0  0  0  0  0  0  0  0  0  0
   -3.0158    0.2412    2.8036 H   0  0  0  0  0  0  0  0  0  0  0  0
    0.3399    1.7583    2.2637 H   0  0  0  0  0  0  0  0  0  0  0  0
    4.4629    0.2205    2.3636 H   0  0  0  0  0  0  0  0  0  0  0  0
    3.6829   -0.8894    1.2866 H   0  0  0  0  0  0  0  0  0  0  0  0
    4.6850    1.9466    0.6337 H   0  0  0  0  0  0  0  0  0  0  0  0
    3.8365    0.9732   -0.5565 H   0  0  0  0  0  0  0  0  0  0  0  0
    5.0647   -1.6195   -0.3275 H   0  0  0  0  0  0  0  0  0  0  0  0
    5.0826   -0.5601   -1.7746 H   0  0  0  0  0  0  0  0  0  0  0  0
    6.5998   -1.1816   -1.0963 H   0  0  0  0  0  0  0  0  0  0  0  0
    0.9738   -3.2965   -2.6043 H   0  0  0  0  0  0  0  0  0  0  0  0
    0.9943   -3.4702   -0.8352 H   0  0  0  0  0  0  0  0  0  0  0  0
    2.2288   -2.4870   -1.6571 H   0  0  0  0  0  0  0  0  0  0  0  0
  1  2  1  0
  2  3  2  0
  3  4  1  0
  4  5  2  3
  5  6  1  0
  6  7  2  0
  7  8  1  0
  8  9  2  0
  9 10  1  0
 10 11  2  0
 11 12  1  0
  4 13  1  0
 13 14  1  0
 14 15  2  3
 15 16  1  0
 16 17  1  0
 17 18  1  0
 18 19  1  0
 14 20  1  0
 20 21  2  0
 21 22  1  0
 22 23  1  0
 22  1  1  0
 21  3  1  0
 11  6  1  0
  1 24  1  0
  2 25  1  0
  7 26  1  0
  8 27  1  0
  9 28  1  0
 10 29  1  0
 12 30  1  0
 13 31  1  0
 16 32  1  0
 16 33  1  0
 17 34  1  0
 17 35  1  0
 19 36  1  0
 19 37  1  0
 19 38  1  0
 23 39  1  0
 23 40  1  0
 23 41  1  0
M  END
>  <ScrubInfo>  (8) 
{"isomerGroup": 0, "isomerId": 7, "confId": 0, "nr_conformers:": 1, "nr_isomers:": 9}

$$$$
_i8
     RDKit          3D

 41 43  0  0  0  0  0  0  0  0999 V2000
    0.9878    1.2285   -0.5624 N   0  0  0  0  0  0  0  0  0  0  0  0
    1.4963   -0.0412   -0.3433 C   0  0  0  0  0  0  0  0  0  0  0  0
    2.7230   -0.4305   -0.4307 N   0  0  0  0  0  0  0  0  0  0  0  0
    3.7491    0.5514   -0.7926 C   0  0  0  0  0  0  0  0  0  0  0  0
    5.1357   -0.0713   -0.6035 C   0  0  0  0  0  0  0  0  0  0  0  0
    5.4992   -0.0165    0.7799 O   0  0  0  0  0  0  0  0  0  0  0  0
    6.7244   -0.6922    1.0248 C   0  0  0  0  0  0  0  0  0  0  0  0
    0.5319   -0.9623   -0.0000 N   0  0  0  0  0  0  0  0  0  0  0  0
   -0.8340   -0.8541    0.1513 C   0  0  0  0  0  0  0  0  0  0  0  0
   -1.5547   -1.8856    0.4733 N   0  0  0  0  0  0  0  0  0  0  0  0
   -2.9490   -1.8182    0.5752 C   0  0  0  0  0  0  0  0  0  0  0  0
   -3.5362   -1.7464    1.8419 C   0  0  0  0  0  0  0  0  0  0  0  0
   -4.9256   -1.7189    1.9806 C   0  0  0  0  0  0  0  0  0  0  0  0
   -5.7412   -1.7792    0.8506 C   0  0  0  0  0  0  0  0  0  0  0  0
   -5.1720   -1.8727   -0.4202 C   0  0  0  0  0  0  0  0  0  0  0  0
   -3.7830   -1.8985   -0.5524 C   0  0  0  0  0  0  0  0  0  0  0  0
   -3.2157   -1.9825   -1.7969 O   0  0  0  0  0  0  0  0  0  0  0  0
   -1.2692    0.5142   -0.0785 C   0  0  0  0  0  0  0  0  0  0  0  0
   -2.4747    1.2384   -0.0277 C   0  0  0  0  0  0  0  0  0  0  0  0
   -2.3184    2.5376   -0.3262 N   0  0  0  0  0  0  0  0  0  0  0  0
   -0.9958    2.6512   -0.5751 N   0  0  0  0  0  0  0  0  0  0  0  0
   -0.4531    3.9394   -0.9257 C   0  0  0  0  0  0  0  0  0  0  0  0
   -0.3367    1.4699   -0.4239 C   0  0  0  0  0  0  0  0  0  0  0  0
    1.6491    1.9531   -0.8024 H   0  0  0  0  0  0  0  0  0  0  0  0
    3.6696    1.4497   -0.1696 H   0  0  0  0  0  0  0  0  0  0  0  0
    3.6236    0.8240   -1.8465 H   0  0  0  0  0  0  0  0  0  0  0  0
    5.1466   -1.1091   -0.9569 H   0  0  0  0  0  0  0  0  0  0  0  0
    5.8719    0.5082   -1.1721 H   0  0  0  0  0  0  0  0  0  0  0  0
    6.9611   -0.6020    2.0883 H   0  0  0  0  0  0  0  0  0  0  0  0
    6.6324   -1.7541    0.7770 H   0  0  0  0  0  0  0  0  0  0  0  0
    7.5349   -0.2387    0.4462 H   0  0  0  0  0  0  0  0  0  0  0  0
    0.8888   -1.8943    0.1510 H   0  0  0  0  0  0  0  0  0  0  0  0
   -2.9024   -1.7145    2.7241 H   0  0  0  0  0  0  0  0  0  0  0  0
   -5.3693   -1.6574    2.9711 H   0  0  0  0  0  0  0  0  0  0  0  0
   -6.8227   -1.7593    0.9618 H   0  0  0  0  0  0  0  0  0  0  0  0
   -5.8205   -1.9225   -1.2890 H   0  0  0  0  0  0  0  0  0  0  0  0
   -3.9177   -2.1066   -2.4542 H   0  0  0  0  0  0  0  0  0  0  0  0
   -3.4693    0.8945    0.2190 H   0  0  0  0  0  0  0  0  0  0  0  0
    0.4170    3.8029   -1.5721 H   0  0  0  0  0  0  0  0  0  0  0  0
   -1.2135    4.5151   -1.4600 H   0  0  0  0  0  0  0  0  0  0  0  0
   -0.1677    4.4505   -0.0032 H   0  0  0  0  0  0  0  0  0  0  0  0
  1  2  1  0
  2  3  2  3
  3  4  1  0
  4  5  1  0
  5  6  1  0
  6  7  1  0
  2  8  1  0
  8  9  1  0
  9 10  2  3
 10 11  1  0
 11 12  2  0
 12 13  1  0
 13 14  2  0
 14 15  1  0
 15 16  2  0
 16 17  1  0
  9 18  1  0
 18 19  1  0
 19 20  2  0
 20 21  1  0
 21 22  1  0
 21 23  1  0
 23  1  1  0
 16 11  1  0
 23 18  2  0
  1 24  1  0
  4 25  1  0
  4 26  1  0
  5 27  1  0
  5 28  1  0
  7 29  1  0
  7 30  1  0
  7 31  1  0
  8 32  1  0
 12 33  1  0
 13 34  1  0
 14 35  1  0
 15 36  1  0
 17 37  1  0
 19 38  1  0
 22 39  1  0
 22 40  1  0
 22 41  1  0
M  END
>  <ScrubInfo>  (9) 
{"isomerGroup": 0, "isomerId": 8, "confId": 0, "nr_conformers:": 1, "nr_isomers:": 9}

$$$$
