REMARK SMILES COCCNc1nc(Nc2ccccc2O)c2cnn(C)c2n1
REMARK SMILES IDX 6 1 7 2 8 3 17 4 18 5 19 6 20 7 21 8 22 9 23 10 5 11 4 13
REMARK SMILES IDX 3 14 2 15 1 16 9 17 10 19 11 20 15 21 12 22 14 23 13 24
REMARK SMILES IDX 16 25
REMARK H PARENT 5 12 9 18 16 26
ROOT
ATOM      1  C   UNL     1       1.608   0.725  -0.642  1.00  0.00     0.226 A 
ATOM      2  N   UNL     1       0.819  -0.030   0.145  1.00  0.00    -0.195 NA
ATOM      3  C   UNL     1      -0.433   0.384   0.453  1.00  0.00     0.147 A 
ATOM      4  C   UNL     1      -0.871   1.598  -0.077  1.00  0.00     0.082 A 
ATOM      5  C   UNL     1      -2.021   2.412  -0.054  1.00  0.00     0.149 A 
ATOM      6  N   UNL     1      -1.877   3.533  -0.772  1.00  0.00    -0.179 NA
ATOM      7  N   UNL     1      -0.624   3.423  -1.269  1.00  0.00    -0.250 N 
ATOM      8  C   UNL     1      -0.107   4.463  -2.123  1.00  0.00     0.176 C 
ATOM      9  C   UNL     1       0.024   2.285  -0.873  1.00  0.00     0.165 A 
ATOM     10  N   UNL     1       1.271   1.901  -1.186  1.00  0.00    -0.193 NA
ENDROOT
BRANCH   1  11
ATOM     11  N   UNL     1       2.888   0.284  -0.957  1.00  0.00    -0.352 N 
ATOM     12  H   UNL     1       3.373   1.107  -1.301  1.00  0.00     0.163 HD
BRANCH  11  13
ATOM     13  C   UNL     1       3.586  -0.431   0.103  1.00  0.00     0.144 C 
BRANCH  13  14
ATOM     14  C   UNL     1       3.319  -1.942   0.055  1.00  0.00     0.181 C 
BRANCH  14  15
ATOM     15  O   UNL     1       4.126  -2.646   1.006  1.00  0.00    -0.383 OA
ATOM     16  C   UNL     1       5.405  -2.995   0.494  1.00  0.00     0.194 C 
ENDBRANCH  14  15
ENDBRANCH  13  14
ENDBRANCH  11  13
ENDBRANCH   1  11
BRANCH   3  17
ATOM     17  N   UNL     1      -1.195  -0.461   1.276  1.00  0.00    -0.336 N 
ATOM     18  H   UNL     1      -0.646  -1.304   1.438  1.00  0.00     0.168 HD
BRANCH  17  19
ATOM     19  C   UNL     1      -2.558  -0.770   1.085  1.00  0.00     0.082 A 
ATOM     20  C   UNL     1      -3.424  -0.661   2.180  1.00  0.00     0.030 A 
ATOM     21  C   UNL     1      -3.067  -1.294  -0.115  1.00  0.00     0.139 A 
ATOM     22  C   UNL     1      -4.776  -0.992   2.058  1.00  0.00     0.002 A 
ATOM     23  C   UNL     1      -4.414  -1.621  -0.243  1.00  0.00     0.048 A 
ATOM     24  C   UNL     1      -5.272  -1.463   0.844  1.00  0.00     0.004 A 
BRANCH  21  25
ATOM     25  O   UNL     1      -2.274  -1.534  -1.203  1.00  0.00    -0.506 OA
ATOM     26  H   UNL     1      -1.349  -1.381  -0.943  1.00  0.00     0.293 HD
ENDBRANCH  21  25
ENDBRANCH  17  19
ENDBRANCH   3  17
TORSDOF 7
