_i0
     RDKit          3D

 46 48  0  0  0  0  0  0  0  0999 V2000
    7.5307   -0.2095    0.8934 C   0  0  0  0  0  0  0  0  0  0  0  0
    6.3536    0.7519    0.8507 C   0  0  0  0  0  0  0  0  0  0  0  0
    5.0920    0.0694    0.3228 C   0  0  0  0  0  0  0  0  0  0  0  0
    3.9106    1.0396    0.2813 C   0  0  0  0  0  0  0  0  0  0  0  0
    2.6465    0.3576   -0.2463 C   0  0  0  0  0  0  0  0  0  0  0  0
    1.5613    1.3221   -0.2733 N   0  0  0  0  0  0  0  0  0  0  0  0
    0.3301    0.7910   -0.6478 C   0  0  0  0  0  0  0  0  0  0  0  0
   -0.7230    1.3236   -0.0002 N   0  0  0  0  0  0  0  0  0  0  0  0
   -1.9802    0.8849   -0.2697 C   0  0  0  0  0  0  0  0  0  0  0  0
   -3.0351    1.5007    0.4299 N   0  0  0  0  0  0  0  0  0  0  0  0
   -4.1942    0.8568    0.9231 C   0  0  0  0  0  0  0  0  0  0  0  0
   -5.4008    1.5688    0.8882 C   0  0  0  0  0  0  0  0  0  0  0  0
   -6.5733    1.0211    1.4135 C   0  0  0  0  0  0  0  0  0  0  0  0
   -6.5477   -0.2377    2.0098 C   0  0  0  0  0  0  0  0  0  0  0  0
   -5.3482   -0.9437    2.0960 C   0  0  0  0  0  0  0  0  0  0  0  0
   -4.1788   -0.3900    1.5705 C   0  0  0  0  0  0  0  0  0  0  0  0
   -2.9956   -1.0652    1.7067 O   0  0  0  0  0  0  0  0  0  0  0  0
   -2.1315   -0.0969   -1.2511 C   0  0  0  0  0  0  0  0  0  0  0  0
   -3.1685   -0.8143   -1.8816 C   0  0  0  0  0  0  0  0  0  0  0  0
   -2.7210   -1.6802   -2.8003 N   0  0  0  0  0  0  0  0  0  0  0  0
   -1.3795   -1.5014   -2.7595 N   0  0  0  0  0  0  0  0  0  0  0  0
   -0.5360   -2.2668   -3.6419 C   0  0  0  0  0  0  0  0  0  0  0  0
   -0.9781   -0.5649   -1.8468 C   0  0  0  0  0  0  0  0  0  0  0  0
    0.2760   -0.1695   -1.5821 N   0  0  0  0  0  0  0  0  0  0  0  0
    7.3189   -1.0600    1.5493 H   0  0  0  0  0  0  0  0  0  0  0  0
    8.4220    0.2992    1.2738 H   0  0  0  0  0  0  0  0  0  0  0  0
    7.7594   -0.5942   -0.1056 H   0  0  0  0  0  0  0  0  0  0  0  0
    6.1718    1.1426    1.8586 H   0  0  0  0  0  0  0  0  0  0  0  0
    6.6099    1.6058    0.2128 H   0  0  0  0  0  0  0  0  0  0  0  0
    4.8424   -0.7863    0.9619 H   0  0  0  0  0  0  0  0  0  0  0  0
    5.2806   -0.3232   -0.6838 H   0  0  0  0  0  0  0  0  0  0  0  0
    4.1585    1.8984   -0.3553 H   0  0  0  0  0  0  0  0  0  0  0  0
    3.7232    1.4367    1.2870 H   0  0  0  0  0  0  0  0  0  0  0  0
    2.8444   -0.0280   -1.2541 H   0  0  0  0  0  0  0  0  0  0  0  0
    2.3911   -0.4896    0.4029 H   0  0  0  0  0  0  0  0  0  0  0  0
    1.3858    1.8030    0.6030 H   0  0  0  0  0  0  0  0  0  0  0  0
   -2.5837    2.0220    1.1791 H   0  0  0  0  0  0  0  0  0  0  0  0
   -5.4310    2.5546    0.4293 H   0  0  0  0  0  0  0  0  0  0  0  0
   -7.5040    1.5802    1.3588 H   0  0  0  0  0  0  0  0  0  0  0  0
   -7.4607   -0.6627    2.4194 H   0  0  0  0  0  0  0  0  0  0  0  0
   -5.3412   -1.9130    2.5848 H   0  0  0  0  0  0  0  0  0  0  0  0
   -3.1657   -1.9203    2.1329 H   0  0  0  0  0  0  0  0  0  0  0  0
   -4.2338   -0.7405   -1.7056 H   0  0  0  0  0  0  0  0  0  0  0  0
   -0.7047   -3.3285   -3.4441 H   0  0  0  0  0  0  0  0  0  0  0  0
   -0.8058   -2.0227   -4.6725 H   0  0  0  0  0  0  0  0  0  0  0  0
    0.5134   -2.0208   -3.4653 H   0  0  0  0  0  0  0  0  0  0  0  0
  1  2  1  0
  2  3  1  0
  3  4  1  0
  4  5  1  0
  5  6  1  0
  6  7  1  0
  7  8  2  0
  8  9  1  0
  9 10  1  0
 10 11  1  0
 11 12  2  0
 12 13  1  0
 13 14  2  0
 14 15  1  0
 15 16  2  0
 16 17  1  0
  9 18  2  0
 18 19  1  0
 19 20  2  0
 20 21  1  0
 21 22  1  0
 21 23  1  0
 23 24  2  0
 24  7  1  0
 16 11  1  0
 23 18  1  0
  1 25  1  0
  1 26  1  0
  1 27  1  0
  2 28  1  0
  2 29  1  0
  3 30  1  0
  3 31  1  0
  4 32  1  0
  4 33  1  0
  5 34  1  0
  5 35  1  0
  6 36  1  0
 10 37  1  0
 12 38  1  0
 13 39  1  0
 14 40  1  0
 15 41  1  0
 17 42  1  0
 19 43  1  0
 22 44  1  0
 22 45  1  0
 22 46  1  0
M  END
>  <ScrubInfo>  (1) 
{"isomerGroup": 0, "isomerId": 0, "confId": 0, "nr_conformers:": 1, "nr_isomers:": 9}

$$$$
_i1
     RDKit          3D

 46 48  0  0  0  0  0  0  0  0999 V2000
    1.0008   -0.3832   -0.6703 N   0  0  0  0  0  0  0  0  0  0  0  0
    1.8072    0.7050   -0.3984 C   0  0  0  0  0  0  0  0  0  0  0  0
    3.1844    0.6558   -0.3955 N   0  0  0  0  0  0  0  0  0  0  0  0
    4.0727   -0.4334   -0.3151 C   0  0  0  0  0  0  0  0  0  0  0  0
    3.7300   -1.6854    0.2031 C   0  0  0  0  0  0  0  0  0  0  0  0
    4.6585   -2.7321    0.2155 C   0  0  0  0  0  0  0  0  0  0  0  0
    5.9442   -2.5396   -0.2889 C   0  0  0  0  0  0  0  0  0  0  0  0
    6.3127   -1.2970   -0.7998 C   0  0  0  0  0  0  0  0  0  0  0  0
    5.3806   -0.2605   -0.8063 C   0  0  0  0  0  0  0  0  0  0  0  0
    5.7212    0.9778   -1.2953 O   0  0  0  0  0  0  0  0  0  0  0  0
    1.1429    1.8445   -0.1680 C   0  0  0  0  0  0  0  0  0  0  0  0
    1.4593    3.2312    0.1899 C   0  0  0  0  0  0  0  0  0  0  0  0
    0.3946    3.9744    0.3586 N   0  0  0  0  0  0  0  0  0  0  0  0
   -0.6944    3.1336    0.0762 N   0  0  0  0  0  0  0  0  0  0  0  0
   -2.0232    3.5559    0.4453 C   0  0  0  0  0  0  0  0  0  0  0  0
   -0.3357    1.8254   -0.2057 C   0  0  0  0  0  0  0  0  0  0  0  0
   -1.0685    0.7924   -0.4480 N   0  0  0  0  0  0  0  0  0  0  0  0
   -0.3684   -0.3607   -0.7266 C   0  0  0  0  0  0  0  0  0  0  0  0
   -0.9887   -1.4458   -1.0537 N   0  0  0  0  0  0  0  0  0  0  0  0
   -2.4514   -1.4212   -1.1263 C   0  0  0  0  0  0  0  0  0  0  0  0
   -3.0387   -1.7894    0.2357 C   0  0  0  0  0  0  0  0  0  0  0  0
   -4.5650   -1.9098    0.2294 C   0  0  0  0  0  0  0  0  0  0  0  0
   -5.3280   -0.6343   -0.1373 C   0  0  0  0  0  0  0  0  0  0  0  0
   -5.0445    0.5338    0.7942 C   0  0  0  0  0  0  0  0  0  0  0  0
    1.4456   -1.2155   -1.0254 H   0  0  0  0  0  0  0  0  0  0  0  0
    3.6813    1.5276   -0.5696 H   0  0  0  0  0  0  0  0  0  0  0  0
    2.7526   -1.8601    0.6436 H   0  0  0  0  0  0  0  0  0  0  0  0
    4.3767   -3.6978    0.6294 H   0  0  0  0  0  0  0  0  0  0  0  0
    6.6601   -3.3578   -0.2744 H   0  0  0  0  0  0  0  0  0  0  0  0
    7.3188   -1.1564   -1.1812 H   0  0  0  0  0  0  0  0  0  0  0  0
    6.6283    0.9266   -1.6413 H   0  0  0  0  0  0  0  0  0  0  0  0
    2.4978    3.5622    0.3179 H   0  0  0  0  0  0  0  0  0  0  0  0
   -2.7734    3.0914   -0.2026 H   0  0  0  0  0  0  0  0  0  0  0  0
   -2.1270    4.6416    0.3497 H   0  0  0  0  0  0  0  0  0  0  0  0
   -2.2373    3.2775    1.4818 H   0  0  0  0  0  0  0  0  0  0  0  0
   -2.8346   -0.4632   -1.4940 H   0  0  0  0  0  0  0  0  0  0  0  0
   -2.7589   -2.1682   -1.8676 H   0  0  0  0  0  0  0  0  0  0  0  0
   -2.6201   -2.7535    0.5529 H   0  0  0  0  0  0  0  0  0  0  0  0
   -2.7217   -1.0653    0.9948 H   0  0  0  0  0  0  0  0  0  0  0  0
   -4.8572   -2.7034   -0.4694 H   0  0  0  0  0  0  0  0  0  0  0  0
   -4.8890   -2.2413    1.2239 H   0  0  0  0  0  0  0  0  0  0  0  0
   -5.1084   -0.3407   -1.1694 H   0  0  0  0  0  0  0  0  0  0  0  0
   -6.4019   -0.8546   -0.1023 H   0  0  0  0  0  0  0  0  0  0  0  0
   -5.6897    1.3813    0.5412 H   0  0  0  0  0  0  0  0  0  0  0  0
   -4.0078    0.8714    0.7099 H   0  0  0  0  0  0  0  0  0  0  0  0
   -5.2368    0.2610    1.8366 H   0  0  0  0  0  0  0  0  0  0  0  0
  1  2  1  0
  2  3  1  0
  3  4  1  0
  4  5  2  0
  5  6  1  0
  6  7  2  0
  7  8  1  0
  8  9  2  0
  9 10  1  0
  2 11  2  0
 11 12  1  0
 12 13  2  0
 13 14  1  0
 14 15  1  0
 14 16  1  0
 16 17  2  0
 17 18  1  0
 18 19  2  3
 19 20  1  0
 20 21  1  0
 21 22  1  0
 22 23  1  0
 23 24  1  0
 18  1  1  0
  9  4  1  0
 16 11  1  0
  1 25  1  0
  3 26  1  0
  5 27  1  0
  6 28  1  0
  7 29  1  0
  8 30  1  0
 10 31  1  0
 12 32  1  0
 15 33  1  0
 15 34  1  0
 15 35  1  0
 20 36  1  0
 20 37  1  0
 21 38  1  0
 21 39  1  0
 22 40  1  0
 22 41  1  0
 23 42  1  0
 23 43  1  0
 24 44  1  0
 24 45  1  0
 24 46  1  0
M  END
>  <ScrubInfo>  (2) 
{"isomerGroup": 0, "isomerId": 1, "confId": 0, "nr_conformers:": 1, "nr_isomers:": 9}

$$$$
_i2
     RDKit          3D

 46 48  0  0  0  0  0  0  0  0999 V2000
    0.2760   -0.3804    0.3397 N   0  0  0  0  0  0  0  0  0  0  0  0
   -0.4478    0.7617    0.5724 C   0  0  0  0  0  0  0  0  0  0  0  0
   -1.7852    0.5948    0.7976 N   0  0  0  0  0  0  0  0  0  0  0  0
   -2.6277   -0.2020   -0.0842 C   0  0  0  0  0  0  0  0  0  0  0  0
   -4.0703   -0.1745    0.4226 C   0  0  0  0  0  0  0  0  0  0  0  0
   -4.9891   -1.0067   -0.4739 C   0  0  0  0  0  0  0  0  0  0  0  0
   -6.4249   -1.0979    0.0472 C   0  0  0  0  0  0  0  0  0  0  0  0
   -7.1568    0.2353    0.0478 C   0  0  0  0  0  0  0  0  0  0  0  0
    0.0683    1.9638    0.6056 N   0  0  0  0  0  0  0  0  0  0  0  0
    1.4077    1.9393    0.3524 C   0  0  0  0  0  0  0  0  0  0  0  0
    2.2226    0.8419    0.1155 C   0  0  0  0  0  0  0  0  0  0  0  0
    3.4924    1.3977   -0.1218 C   0  0  0  0  0  0  0  0  0  0  0  0
    3.5006    2.7332   -0.0224 N   0  0  0  0  0  0  0  0  0  0  0  0
    2.2169    3.0377    0.2720 N   0  0  0  0  0  0  0  0  0  0  0  0
    1.8401    4.4178    0.4456 C   0  0  0  0  0  0  0  0  0  0  0  0
    1.6343   -0.4831    0.1453 C   0  0  0  0  0  0  0  0  0  0  0  0
    2.2167   -1.6389    0.0250 N   0  0  0  0  0  0  0  0  0  0  0  0
    3.6081   -1.7550   -0.1020 C   0  0  0  0  0  0  0  0  0  0  0  0
    4.4414   -1.7249    1.0185 C   0  0  0  0  0  0  0  0  0  0  0  0
    5.8245   -1.8617    0.8688 C   0  0  0  0  0  0  0  0  0  0  0  0
    6.3788   -2.0473   -0.4003 C   0  0  0  0  0  0  0  0  0  0  0  0
    5.5530   -2.1096   -1.5224 C   0  0  0  0  0  0  0  0  0  0  0  0
    4.1797   -1.9758   -1.3618 C   0  0  0  0  0  0  0  0  0  0  0  0
    3.3779   -2.0687   -2.4671 O   0  0  0  0  0  0  0  0  0  0  0  0
   -0.1826   -1.2566    0.5268 H   0  0  0  0  0  0  0  0  0  0  0  0
   -2.1925    1.5137    0.9656 H   0  0  0  0  0  0  0  0  0  0  0  0
   -2.2736   -1.2381   -0.1160 H   0  0  0  0  0  0  0  0  0  0  0  0
   -2.5794    0.2037   -1.1014 H   0  0  0  0  0  0  0  0  0  0  0  0
   -4.4195    0.8640    0.4604 H   0  0  0  0  0  0  0  0  0  0  0  0
   -4.1061   -0.5589    1.4496 H   0  0  0  0  0  0  0  0  0  0  0  0
   -4.5882   -2.0251   -0.5512 H   0  0  0  0  0  0  0  0  0  0  0  0
   -4.9919   -0.5907   -1.4888 H   0  0  0  0  0  0  0  0  0  0  0  0
   -6.9802   -1.7991   -0.5872 H   0  0  0  0  0  0  0  0  0  0  0  0
   -6.4286   -1.5166    1.0603 H   0  0  0  0  0  0  0  0  0  0  0  0
   -6.7129    0.9368    0.7601 H   0  0  0  0  0  0  0  0  0  0  0  0
   -8.2027    0.0890    0.3361 H   0  0  0  0  0  0  0  0  0  0  0  0
   -7.1406    0.6932   -0.9463 H   0  0  0  0  0  0  0  0  0  0  0  0
    4.4231    0.9054   -0.3683 H   0  0  0  0  0  0  0  0  0  0  0  0
    1.9029    4.9137   -0.5262 H   0  0  0  0  0  0  0  0  0  0  0  0
    2.5317    4.8795    1.1551 H   0  0  0  0  0  0  0  0  0  0  0  0
    0.8213    4.4831    0.8338 H   0  0  0  0  0  0  0  0  0  0  0  0
    4.0151   -1.5889    2.0084 H   0  0  0  0  0  0  0  0  0  0  0  0
    6.4701   -1.8261    1.7429 H   0  0  0  0  0  0  0  0  0  0  0  0
    7.4549   -2.1536   -0.5134 H   0  0  0  0  0  0  0  0  0  0  0  0
    5.9737   -2.2694   -2.5105 H   0  0  0  0  0  0  0  0  0  0  0  0
    2.4685   -2.0558   -2.1101 H   0  0  0  0  0  0  0  0  0  0  0  0
  1  2  1  0
  2  3  1  0
  3  4  1  0
  4  5  1  0
  5  6  1  0
  6  7  1  0
  7  8  1  0
  2  9  2  0
  9 10  1  0
 10 11  2  0
 11 12  1  0
 12 13  2  0
 13 14  1  0
 14 15  1  0
 11 16  1  0
 16 17  2  3
 17 18  1  0
 18 19  2  0
 19 20  1  0
 20 21  2  0
 21 22  1  0
 22 23  2  0
 23 24  1  0
 16  1  1  0
 23 18  1  0
 14 10  1  0
  1 25  1  0
  3 26  1  0
  4 27  1  0
  4 28  1  0
  5 29  1  0
  5 30  1  0
  6 31  1  0
  6 32  1  0
  7 33  1  0
  7 34  1  0
  8 35  1  0
  8 36  1  0
  8 37  1  0
 12 38  1  0
 15 39  1  0
 15 40  1  0
 15 41  1  0
 19 42  1  0
 20 43  1  0
 21 44  1  0
 22 45  1  0
 24 46  1  0
M  END
>  <ScrubInfo>  (3) 
{"isomerGroup": 0, "isomerId": 2, "confId": 0, "nr_conformers:": 1, "nr_isomers:": 9}

$$$$
_i3
     RDKit          3D

 46 48  0  0  0  0  0  0  0  0999 V2000
    0.3882    0.5401    2.0417 N   0  0  0  0  0  0  0  0  0  0  0  0
    0.8488    0.4965    0.7435 C   0  0  0  0  0  0  0  0  0  0  0  0
    2.0402    0.9402    0.5071 N   0  0  0  0  0  0  0  0  0  0  0  0
    2.5131    0.8815   -0.8756 C   0  0  0  0  0  0  0  0  0  0  0  0
    3.9482    1.4081   -0.9355 C   0  0  0  0  0  0  0  0  0  0  0  0
    4.9637    0.6103   -0.1080 C   0  0  0  0  0  0  0  0  0  0  0  0
    5.0796   -0.8766   -0.4514 C   0  0  0  0  0  0  0  0  0  0  0  0
    5.4892   -1.1372   -1.8924 C   0  0  0  0  0  0  0  0  0  0  0  0
    0.0711   -0.0043   -0.2920 N   0  0  0  0  0  0  0  0  0  0  0  0
   -1.1328   -0.4317   -0.0284 C   0  0  0  0  0  0  0  0  0  0  0  0
   -1.9575   -0.9589   -0.9929 N   0  0  0  0  0  0  0  0  0  0  0  0
   -3.2350   -0.4039   -1.2931 C   0  0  0  0  0  0  0  0  0  0  0  0
   -3.5313    0.9540   -1.1257 C   0  0  0  0  0  0  0  0  0  0  0  0
   -4.7715    1.4607   -1.5272 C   0  0  0  0  0  0  0  0  0  0  0  0
   -5.7155    0.6227   -2.1226 C   0  0  0  0  0  0  0  0  0  0  0  0
   -5.4229   -0.7245   -2.3230 C   0  0  0  0  0  0  0  0  0  0  0  0
   -4.1913   -1.2218   -1.9142 C   0  0  0  0  0  0  0  0  0  0  0  0
   -3.9373   -2.5517   -2.1155 O   0  0  0  0  0  0  0  0  0  0  0  0
   -1.6460   -0.4255    1.3230 C   0  0  0  0  0  0  0  0  0  0  0  0
   -2.8106   -0.8196    1.9992 C   0  0  0  0  0  0  0  0  0  0  0  0
   -2.7416   -0.5750    3.3178 N   0  0  0  0  0  0  0  0  0  0  0  0
   -1.5140   -0.0227    3.4831 N   0  0  0  0  0  0  0  0  0  0  0  0
   -1.0907    0.3674    4.8037 C   0  0  0  0  0  0  0  0  0  0  0  0
   -0.8400    0.0734    2.3086 C   0  0  0  0  0  0  0  0  0  0  0  0
    1.0474    0.9127    2.7120 H   0  0  0  0  0  0  0  0  0  0  0  0
    1.8889    1.5189   -1.5139 H   0  0  0  0  0  0  0  0  0  0  0  0
    2.4731   -0.1403   -1.2694 H   0  0  0  0  0  0  0  0  0  0  0  0
    4.2713    1.4398   -1.9825 H   0  0  0  0  0  0  0  0  0  0  0  0
    3.9613    2.4462   -0.5792 H   0  0  0  0  0  0  0  0  0  0  0  0
    5.9485    1.0790   -0.2296 H   0  0  0  0  0  0  0  0  0  0  0  0
    4.7148    0.7019    0.9563 H   0  0  0  0  0  0  0  0  0  0  0  0
    5.8313   -1.3242    0.2101 H   0  0  0  0  0  0  0  0  0  0  0  0
    4.1371   -1.3927   -0.2386 H   0  0  0  0  0  0  0  0  0  0  0  0
    6.4201   -0.6159   -2.1367 H   0  0  0  0  0  0  0  0  0  0  0  0
    4.7155   -0.8127   -2.5943 H   0  0  0  0  0  0  0  0  0  0  0  0
    5.6500   -2.2087   -2.0491 H   0  0  0  0  0  0  0  0  0  0  0  0
   -1.4380   -0.9605   -1.8724 H   0  0  0  0  0  0  0  0  0  0  0  0
   -2.8052    1.6377   -0.6923 H   0  0  0  0  0  0  0  0  0  0  0  0
   -4.9975    2.5149   -1.3839 H   0  0  0  0  0  0  0  0  0  0  0  0
   -6.6770    1.0215   -2.4363 H   0  0  0  0  0  0  0  0  0  0  0  0
   -6.1489   -1.3825   -2.7914 H   0  0  0  0  0  0  0  0  0  0  0  0
   -3.1170   -2.7495   -1.6273 H   0  0  0  0  0  0  0  0  0  0  0  0
   -3.7089   -1.2728    1.5997 H   0  0  0  0  0  0  0  0  0  0  0  0
   -0.0989    0.8219    4.7580 H   0  0  0  0  0  0  0  0  0  0  0  0
   -1.8104    1.0896    5.1973 H   0  0  0  0  0  0  0  0  0  0  0  0
   -1.0614   -0.5256    5.4332 H   0  0  0  0  0  0  0  0  0  0  0  0
  1  2  1  0
  2  3  2  3
  3  4  1  0
  4  5  1  0
  5  6  1  0
  6  7  1  0
  7  8  1  0
  2  9  1  0
  9 10  2  0
 10 11  1  0
 11 12  1  0
 12 13  2  0
 13 14  1  0
 14 15  2  0
 15 16  1  0
 16 17  2  0
 17 18  1  0
 10 19  1  0
 19 20  1  0
 20 21  2  0
 21 22  1  0
 22 23  1  0
 22 24  1  0
 24  1  1  0
 17 12  1  0
 24 19  2  0
  1 25  1  0
  4 26  1  0
  4 27  1  0
  5 28  1  0
  5 29  1  0
  6 30  1  0
  6 31  1  0
  7 32  1  0
  7 33  1  0
  8 34  1  0
  8 35  1  0
  8 36  1  0
 11 37  1  0
 13 38  1  0
 14 39  1  0
 15 40  1  0
 16 41  1  0
 18 42  1  0
 20 43  1  0
 23 44  1  0
 23 45  1  0
 23 46  1  0
M  END
>  <ScrubInfo>  (4) 
{"isomerGroup": 0, "isomerId": 3, "confId": 0, "nr_conformers:": 1, "nr_isomers:": 9}

$$$$
_i4
     RDKit          3D

 46 48  0  0  0  0  0  0  0  0999 V2000
   -2.8843   -3.0063   -0.3429 N   0  0  0  0  0  0  0  0  0  0  0  0
   -2.9433   -1.6378   -0.0995 C   0  0  0  0  0  0  0  0  0  0  0  0
   -1.7639   -1.0156   -0.2494 C   0  0  0  0  0  0  0  0  0  0  0  0
   -1.1932    0.3197   -0.1270 C   0  0  0  0  0  0  0  0  0  0  0  0
   -1.7436    1.4530    0.1624 N   0  0  0  0  0  0  0  0  0  0  0  0
   -3.1140    1.5245    0.4421 C   0  0  0  0  0  0  0  0  0  0  0  0
   -3.6003    1.3292    1.7357 C   0  0  0  0  0  0  0  0  0  0  0  0
   -4.9732    1.4073    1.9871 C   0  0  0  0  0  0  0  0  0  0  0  0
   -5.8627    1.6955    0.9481 C   0  0  0  0  0  0  0  0  0  0  0  0
   -5.3832    1.9209   -0.3424 C   0  0  0  0  0  0  0  0  0  0  0  0
   -4.0168    1.8471   -0.5788 C   0  0  0  0  0  0  0  0  0  0  0  0
   -3.5484    2.1034   -1.8393 O   0  0  0  0  0  0  0  0  0  0  0  0
    0.1524    0.3726   -0.3693 N   0  0  0  0  0  0  0  0  0  0  0  0
    0.8612   -0.6615   -0.7036 C   0  0  0  0  0  0  0  0  0  0  0  0
    2.2050   -0.5493   -0.9141 N   0  0  0  0  0  0  0  0  0  0  0  0
    2.8477    0.7205   -1.1771 C   0  0  0  0  0  0  0  0  0  0  0  0
    4.3678    0.5572   -1.2155 C   0  0  0  0  0  0  0  0  0  0  0  0
    4.9983    0.0563    0.0902 C   0  0  0  0  0  0  0  0  0  0  0  0
    4.7260    0.9109    1.3303 C   0  0  0  0  0  0  0  0  0  0  0  0
    5.2256    2.3414    1.2039 C   0  0  0  0  0  0  0  0  0  0  0  0
    0.3752   -1.9266   -0.8912 N   0  0  0  0  0  0  0  0  0  0  0  0
   -0.8824   -2.1135   -0.6899 C   0  0  0  0  0  0  0  0  0  0  0  0
   -1.6165   -3.2924   -0.8276 N   0  0  0  0  0  0  0  0  0  0  0  0
   -1.0218   -4.5809   -0.5285 C   0  0  0  0  0  0  0  0  0  0  0  0
   -3.6684   -3.3481   -0.9042 H   0  0  0  0  0  0  0  0  0  0  0  0
   -3.8976   -1.2098    0.1701 H   0  0  0  0  0  0  0  0  0  0  0  0
   -2.9086    1.1175    2.5463 H   0  0  0  0  0  0  0  0  0  0  0  0
   -5.3483    1.2519    2.9958 H   0  0  0  0  0  0  0  0  0  0  0  0
   -6.9293    1.7615    1.1483 H   0  0  0  0  0  0  0  0  0  0  0  0
   -6.0639    2.1675   -1.1513 H   0  0  0  0  0  0  0  0  0  0  0  0
   -2.5771    2.1724   -1.7282 H   0  0  0  0  0  0  0  0  0  0  0  0
    2.5769   -1.3498   -1.4094 H   0  0  0  0  0  0  0  0  0  0  0  0
    2.5678    1.4636   -0.4228 H   0  0  0  0  0  0  0  0  0  0  0  0
    2.5083    1.1000   -2.1480 H   0  0  0  0  0  0  0  0  0  0  0  0
    4.6329   -0.1485   -2.0135 H   0  0  0  0  0  0  0  0  0  0  0  0
    4.8193    1.5161   -1.4956 H   0  0  0  0  0  0  0  0  0  0  0  0
    6.0832   -0.0152   -0.0586 H   0  0  0  0  0  0  0  0  0  0  0  0
    4.6529   -0.9653    0.2903 H   0  0  0  0  0  0  0  0  0  0  0  0
    5.2261    0.4424    2.1867 H   0  0  0  0  0  0  0  0  0  0  0  0
    3.6558    0.9152    1.5643 H   0  0  0  0  0  0  0  0  0  0  0  0
    4.6748    2.8924    0.4360 H   0  0  0  0  0  0  0  0  0  0  0  0
    5.0909    2.8713    2.1524 H   0  0  0  0  0  0  0  0  0  0  0  0
    6.2903    2.3649    0.9513 H   0  0  0  0  0  0  0  0  0  0  0  0
   -0.1109   -4.7310   -1.1168 H   0  0  0  0  0  0  0  0  0  0  0  0
   -0.7692   -4.6559    0.5344 H   0  0  0  0  0  0  0  0  0  0  0  0
   -1.7175   -5.3886   -0.7785 H   0  0  0  0  0  0  0  0  0  0  0  0
  1  2  1  0
  2  3  2  0
  3  4  1  0
  4  5  2  3
  5  6  1  0
  6  7  2  0
  7  8  1  0
  8  9  2  0
  9 10  1  0
 10 11  2  0
 11 12  1  0
  4 13  1  0
 13 14  2  0
 14 15  1  0
 15 16  1  0
 16 17  1  0
 17 18  1  0
 18 19  1  0
 19 20  1  0
 14 21  1  0
 21 22  2  0
 22 23  1  0
 23 24  1  0
 23  1  1  0
 22  3  1  0
 11  6  1  0
  1 25  1  0
  2 26  1  0
  7 27  1  0
  8 28  1  0
  9 29  1  0
 10 30  1  0
 12 31  1  0
 15 32  1  0
 16 33  1  0
 16 34  1  0
 17 35  1  0
 17 36  1  0
 18 37  1  0
 18 38  1  0
 19 39  1  0
 19 40  1  0
 20 41  1  0
 20 42  1  0
 20 43  1  0
 24 44  1  0
 24 45  1  0
 24 46  1  0
M  END
>  <ScrubInfo>  (5) 
{"isomerGroup": 0, "isomerId": 4, "confId": 0, "nr_conformers:": 1, "nr_isomers:": 9}

$$$$
_i5
     RDKit          3D

 46 48  0  0  0  0  0  0  0  0999 V2000
    0.1304    1.3211   -0.9510 N   0  0  0  0  0  0  0  0  0  0  0  0
   -0.3931    0.9384    0.2572 C   0  0  0  0  0  0  0  0  0  0  0  0
   -1.6521    1.3982    0.5193 N   0  0  0  0  0  0  0  0  0  0  0  0
   -2.7551    1.1661   -0.4064 C   0  0  0  0  0  0  0  0  0  0  0  0
   -4.0343    1.7844    0.1615 C   0  0  0  0  0  0  0  0  0  0  0  0
   -5.2478    1.6062   -0.7567 C   0  0  0  0  0  0  0  0  0  0  0  0
   -6.1370    0.4068   -0.4163 C   0  0  0  0  0  0  0  0  0  0  0  0
   -5.4604   -0.9437   -0.5739 C   0  0  0  0  0  0  0  0  0  0  0  0
    0.2136    0.2039    1.1455 N   0  0  0  0  0  0  0  0  0  0  0  0
    1.5001   -0.2597    0.8985 C   0  0  0  0  0  0  0  0  0  0  0  0
    2.0172   -0.9924    1.8344 N   0  0  0  0  0  0  0  0  0  0  0  0
    3.3112   -1.5154    1.7447 C   0  0  0  0  0  0  0  0  0  0  0  0
    4.4235   -0.7733    2.1462 C   0  0  0  0  0  0  0  0  0  0  0  0
    5.7040   -1.3270    2.0581 C   0  0  0  0  0  0  0  0  0  0  0  0
    5.8747   -2.6310    1.5850 C   0  0  0  0  0  0  0  0  0  0  0  0
    4.7664   -3.3922    1.2135 C   0  0  0  0  0  0  0  0  0  0  0  0
    3.4986   -2.8339    1.3109 C   0  0  0  0  0  0  0  0  0  0  0  0
    2.4123   -3.5998    0.9828 O   0  0  0  0  0  0  0  0  0  0  0  0
    2.0994    0.1224   -0.3700 C   0  0  0  0  0  0  0  0  0  0  0  0
    3.3079   -0.0860   -1.0598 C   0  0  0  0  0  0  0  0  0  0  0  0
    3.3490    0.5471   -2.2436 N   0  0  0  0  0  0  0  0  0  0  0  0
    2.1453    1.1559   -2.3246 N   0  0  0  0  0  0  0  0  0  0  0  0
    1.8314    1.9315   -3.4972 C   0  0  0  0  0  0  0  0  0  0  0  0
    1.3780    0.9106   -1.2317 C   0  0  0  0  0  0  0  0  0  0  0  0
   -0.3546    2.0517   -1.4533 H   0  0  0  0  0  0  0  0  0  0  0  0
   -1.9007    1.0836    1.4571 H   0  0  0  0  0  0  0  0  0  0  0  0
   -2.8730    0.0902   -0.5623 H   0  0  0  0  0  0  0  0  0  0  0  0
   -2.5355    1.6219   -1.3783 H   0  0  0  0  0  0  0  0  0  0  0  0
   -3.8581    2.8604    0.2928 H   0  0  0  0  0  0  0  0  0  0  0  0
   -4.2458    1.3877    1.1620 H   0  0  0  0  0  0  0  0  0  0  0  0
   -5.8734    2.5034   -0.6632 H   0  0  0  0  0  0  0  0  0  0  0  0
   -4.9367    1.5584   -1.8070 H   0  0  0  0  0  0  0  0  0  0  0  0
   -7.0140    0.4339   -1.0745 H   0  0  0  0  0  0  0  0  0  0  0  0
   -6.5135    0.5046    0.6088 H   0  0  0  0  0  0  0  0  0  0  0  0
   -5.0080   -1.0466   -1.5650 H   0  0  0  0  0  0  0  0  0  0  0  0
   -6.1943   -1.7470   -0.4518 H   0  0  0  0  0  0  0  0  0  0  0  0
   -4.6866   -1.0912    0.1848 H   0  0  0  0  0  0  0  0  0  0  0  0
    4.2922    0.2363    2.5253 H   0  0  0  0  0  0  0  0  0  0  0  0
    6.5687   -0.7429    2.3635 H   0  0  0  0  0  0  0  0  0  0  0  0
    6.8718   -3.0594    1.5196 H   0  0  0  0  0  0  0  0  0  0  0  0
    4.8873   -4.4131    0.8648 H   0  0  0  0  0  0  0  0  0  0  0  0
    1.6432   -3.0702    1.2778 H   0  0  0  0  0  0  0  0  0  0  0  0
    4.1742   -0.6644   -0.7692 H   0  0  0  0  0  0  0  0  0  0  0  0
    1.9750    1.3011   -4.3785 H   0  0  0  0  0  0  0  0  0  0  0  0
    0.7946    2.2712   -3.4539 H   0  0  0  0  0  0  0  0  0  0  0  0
    2.5042    2.7922   -3.5291 H   0  0  0  0  0  0  0  0  0  0  0  0
  1  2  1  0
  2  3  1  0
  3  4  1  0
  4  5  1  0
  5  6  1  0
  6  7  1  0
  7  8  1  0
  2  9  2  0
  9 10  1  0
 10 11  2  3
 11 12  1  0
 12 13  2  0
 13 14  1  0
 14 15  2  0
 15 16  1  0
 16 17  2  0
 17 18  1  0
 10 19  1  0
 19 20  1  0
 20 21  2  0
 21 22  1  0
 22 23  1  0
 22 24  1  0
 24  1  1  0
 17 12  1  0
 24 19  2  0
  1 25  1  0
  3 26  1  0
  4 27  1  0
  4 28  1  0
  5 29  1  0
  5 30  1  0
  6 31  1  0
  6 32  1  0
  7 33  1  0
  7 34  1  0
  8 35  1  0
  8 36  1  0
  8 37  1  0
 13 38  1  0
 14 39  1  0
 15 40  1  0
 16 41  1  0
 18 42  1  0
 20 43  1  0
 23 44  1  0
 23 45  1  0
 23 46  1  0
M  END
>  <ScrubInfo>  (6) 
{"isomerGroup": 0, "isomerId": 5, "confId": 0, "nr_conformers:": 1, "nr_isomers:": 9}

$$$$
_i6
     RDKit          3D

 46 48  0  0  0  0  0  0  0  0999 V2000
   -1.5802   -4.5293   -1.3610 N   0  0  0  0  0  0  0  0  0  0  0  0
   -2.2087   -3.3112   -1.1239 C   0  0  0  0  0  0  0  0  0  0  0  0
   -1.4048   -2.4134   -0.5367 C   0  0  0  0  0  0  0  0  0  0  0  0
   -1.4666   -1.0207   -0.0822 C   0  0  0  0  0  0  0  0  0  0  0  0
   -2.6559   -0.3367   -0.2092 N   0  0  0  0  0  0  0  0  0  0  0  0
   -3.0008    0.9949    0.0932 C   0  0  0  0  0  0  0  0  0  0  0  0
   -2.1273    1.9522    0.6083 C   0  0  0  0  0  0  0  0  0  0  0  0
   -2.5667    3.2537    0.8800 C   0  0  0  0  0  0  0  0  0  0  0  0
   -3.8909    3.6170    0.6401 C   0  0  0  0  0  0  0  0  0  0  0  0
   -4.7843    2.6811    0.1263 C   0  0  0  0  0  0  0  0  0  0  0  0
   -4.3340    1.3887   -0.1402 C   0  0  0  0  0  0  0  0  0  0  0  0
   -5.1951    0.4441   -0.6499 O   0  0  0  0  0  0  0  0  0  0  0  0
   -0.3755   -0.5150    0.4192 N   0  0  0  0  0  0  0  0  0  0  0  0
    0.7711   -1.2783    0.4880 C   0  0  0  0  0  0  0  0  0  0  0  0
    1.8676   -0.7508    0.9017 N   0  0  0  0  0  0  0  0  0  0  0  0
    1.8891    0.6460    1.3208 C   0  0  0  0  0  0  0  0  0  0  0  0
    2.1379    1.5750    0.1317 C   0  0  0  0  0  0  0  0  0  0  0  0
    3.4352    1.3045   -0.6400 C   0  0  0  0  0  0  0  0  0  0  0  0
    4.7245    1.3777    0.1812 C   0  0  0  0  0  0  0  0  0  0  0  0
    4.9570    2.7346    0.8269 C   0  0  0  0  0  0  0  0  0  0  0  0
    0.8986   -2.6037    0.1477 N   0  0  0  0  0  0  0  0  0  0  0  0
   -0.1502   -3.1665   -0.3377 C   0  0  0  0  0  0  0  0  0  0  0  0
   -0.3260   -4.4843   -0.7611 N   0  0  0  0  0  0  0  0  0  0  0  0
    0.7719   -5.2266   -1.3510 C   0  0  0  0  0  0  0  0  0  0  0  0
   -2.1570   -5.3409   -1.1274 H   0  0  0  0  0  0  0  0  0  0  0  0
   -3.2416   -3.1934   -1.4168 H   0  0  0  0  0  0  0  0  0  0  0  0
   -3.4594   -0.8250   -0.5947 H   0  0  0  0  0  0  0  0  0  0  0  0
   -1.0887    1.7143    0.8081 H   0  0  0  0  0  0  0  0  0  0  0  0
   -1.8661    3.9826    1.2808 H   0  0  0  0  0  0  0  0  0  0  0  0
   -4.2221    4.6299    0.8545 H   0  0  0  0  0  0  0  0  0  0  0  0
   -5.8128    2.9733   -0.0576 H   0  0  0  0  0  0  0  0  0  0  0  0
   -6.0680    0.8613   -0.7505 H   0  0  0  0  0  0  0  0  0  0  0  0
    2.6858    0.7667    2.0630 H   0  0  0  0  0  0  0  0  0  0  0  0
    0.9717    0.9373    1.8454 H   0  0  0  0  0  0  0  0  0  0  0  0
    1.3030    1.4930   -0.5750 H   0  0  0  0  0  0  0  0  0  0  0  0
    2.1314    2.6120    0.4869 H   0  0  0  0  0  0  0  0  0  0  0  0
    3.5002    2.0258   -1.4644 H   0  0  0  0  0  0  0  0  0  0  0  0
    3.3773    0.3145   -1.1088 H   0  0  0  0  0  0  0  0  0  0  0  0
    5.5685    1.1605   -0.4847 H   0  0  0  0  0  0  0  0  0  0  0  0
    4.7323    0.5988    0.9513 H   0  0  0  0  0  0  0  0  0  0  0  0
    5.9367    2.7552    1.3150 H   0  0  0  0  0  0  0  0  0  0  0  0
    4.2029    2.9506    1.5893 H   0  0  0  0  0  0  0  0  0  0  0  0
    4.9342    3.5344    0.0799 H   0  0  0  0  0  0  0  0  0  0  0  0
    1.0783   -4.7780   -2.3018 H   0  0  0  0  0  0  0  0  0  0  0  0
    1.6337   -5.2420   -0.6762 H   0  0  0  0  0  0  0  0  0  0  0  0
    0.4738   -6.2638   -1.5358 H   0  0  0  0  0  0  0  0  0  0  0  0
  1  2  1  0
  2  3  2  0
  3  4  1  0
  4  5  1  0
  5  6  1  0
  6  7  2  0
  7  8  1  0
  8  9  2  0
  9 10  1  0
 10 11  2  0
 11 12  1  0
  4 13  2  0
 13 14  1  0
 14 15  2  3
 15 16  1  0
 16 17  1  0
 17 18  1  0
 18 19  1  0
 19 20  1  0
 14 21  1  0
 21 22  2  0
 22 23  1  0
 23 24  1  0
 23  1  1  0
 22  3  1  0
 11  6  1  0
  1 25  1  0
  2 26  1  0
  5 27  1  0
  7 28  1  0
  8 29  1  0
  9 30  1  0
 10 31  1  0
 12 32  1  0
 16 33  1  0
 16 34  1  0
 17 35  1  0
 17 36  1  0
 18 37  1  0
 18 38  1  0
 19 39  1  0
 19 40  1  0
 20 41  1  0
 20 42  1  0
 20 43  1  0
 24 44  1  0
 24 45  1  0
 24 46  1  0
M  END
>  <ScrubInfo>  (7) 
{"isomerGroup": 0, "isomerId": 6, "confId": 0, "nr_conformers:": 1, "nr_isomers:": 9}

$$$$
_i7
     RDKit          3D

 46 48  0  0  0  0  0  0  0  0999 V2000
   -2.0877   -4.4701   -1.5350 N   0  0  0  0  0  0  0  0  0  0  0  0
   -2.7107   -3.2873   -1.1510 C   0  0  0  0  0  0  0  0  0  0  0  0
   -1.8532   -2.2707   -1.0021 C   0  0  0  0  0  0  0  0  0  0  0  0
   -1.8922   -0.8663   -0.5910 C   0  0  0  0  0  0  0  0  0  0  0  0
   -3.0385   -0.3284   -0.2998 N   0  0  0  0  0  0  0  0  0  0  0  0
   -3.1229    1.0086    0.1309 C   0  0  0  0  0  0  0  0  0  0  0  0
   -3.7271    1.2543    1.3676 C   0  0  0  0  0  0  0  0  0  0  0  0
   -3.8921    2.5585    1.8411 C   0  0  0  0  0  0  0  0  0  0  0  0
   -3.4623    3.6390    1.0727 C   0  0  0  0  0  0  0  0  0  0  0  0
   -2.8694    3.4187   -0.1699 C   0  0  0  0  0  0  0  0  0  0  0  0
   -2.7077    2.1121   -0.6345 C   0  0  0  0  0  0  0  0  0  0  0  0
   -2.0988    1.9040   -1.8442 O   0  0  0  0  0  0  0  0  0  0  0  0
   -0.6420   -0.3003   -0.5603 N   0  0  0  0  0  0  0  0  0  0  0  0
    0.5450   -0.9040   -0.9041 C   0  0  0  0  0  0  0  0  0  0  0  0
    1.7069   -0.3506   -0.8994 N   0  0  0  0  0  0  0  0  0  0  0  0
    1.8342    1.0395   -0.4846 C   0  0  0  0  0  0  0  0  0  0  0  0
    3.3132    1.4279   -0.4719 C   0  0  0  0  0  0  0  0  0  0  0  0
    4.1834    0.6213    0.4999 C   0  0  0  0  0  0  0  0  0  0  0  0
    3.7545    0.6636    1.9684 C   0  0  0  0  0  0  0  0  0  0  0  0
    3.7404    2.0654    2.5572 C   0  0  0  0  0  0  0  0  0  0  0  0
    0.5834   -2.2238   -1.3123 N   0  0  0  0  0  0  0  0  0  0  0  0
   -0.5380   -2.8680   -1.3825 C   0  0  0  0  0  0  0  0  0  0  0  0
   -0.7475   -4.1876   -1.7938 N   0  0  0  0  0  0  0  0  0  0  0  0
    0.2520   -5.2093   -1.5490 C   0  0  0  0  0  0  0  0  0  0  0  0
   -2.5897   -4.9657   -2.2750 H   0  0  0  0  0  0  0  0  0  0  0  0
   -3.7813   -3.2673   -1.0046 H   0  0  0  0  0  0  0  0  0  0  0  0
   -4.0784    0.4157    1.9639 H   0  0  0  0  0  0  0  0  0  0  0  0
   -4.3626    2.7275    2.8066 H   0  0  0  0  0  0  0  0  0  0  0  0
   -3.5926    4.6532    1.4428 H   0  0  0  0  0  0  0  0  0  0  0  0
   -2.5332    4.2689   -0.7555 H   0  0  0  0  0  0  0  0  0  0  0  0
   -2.2041    2.7070   -2.3820 H   0  0  0  0  0  0  0  0  0  0  0  0
   -0.6163    0.6923   -0.4012 H   0  0  0  0  0  0  0  0  0  0  0  0
    1.3949    1.2036    0.5055 H   0  0  0  0  0  0  0  0  0  0  0  0
    1.3144    1.6908   -1.1977 H   0  0  0  0  0  0  0  0  0  0  0  0
    3.7238    1.2995   -1.4817 H   0  0  0  0  0  0  0  0  0  0  0  0
    3.3979    2.4960   -0.2408 H   0  0  0  0  0  0  0  0  0  0  0  0
    5.2147    0.9884    0.4221 H   0  0  0  0  0  0  0  0  0  0  0  0
    4.2105   -0.4266    0.1767 H   0  0  0  0  0  0  0  0  0  0  0  0
    4.4544    0.0498    2.5485 H   0  0  0  0  0  0  0  0  0  0  0  0
    2.7679    0.2037    2.0918 H   0  0  0  0  0  0  0  0  0  0  0  0
    2.9730    2.6893    2.0897 H   0  0  0  0  0  0  0  0  0  0  0  0
    3.5226    2.0203    3.6291 H   0  0  0  0  0  0  0  0  0  0  0  0
    4.7109    2.5551    2.4293 H   0  0  0  0  0  0  0  0  0  0  0  0
    1.2174   -4.9145   -1.9727 H   0  0  0  0  0  0  0  0  0  0  0  0
    0.3777   -5.3810   -0.4749 H   0  0  0  0  0  0  0  0  0  0  0  0
   -0.0447   -6.1523   -2.0195 H   0  0  0  0  0  0  0  0  0  0  0  0
  1  2  1  0
  2  3  2  0
  3  4  1  0
  4  5  2  3
  5  6  1  0
  6  7  2  0
  7  8  1  0
  8  9  2  0
  9 10  1  0
 10 11  2  0
 11 12  1  0
  4 13  1  0
 13 14  1  0
 14 15  2  3
 15 16  1  0
 16 17  1  0
 17 18  1  0
 18 19  1  0
 19 20  1  0
 14 21  1  0
 21 22  2  0
 22 23  1  0
 23 24  1  0
 23  1  1  0
 22  3  1  0
 11  6  1  0
  1 25  1  0
  2 26  1  0
  7 27  1  0
  8 28  1  0
  9 29  1  0
 10 30  1  0
 12 31  1  0
 13 32  1  0
 16 33  1  0
 16 34  1  0
 17 35  1  0
 17 36  1  0
 18 37  1  0
 18 38  1  0
 19 39  1  0
 19 40  1  0
 20 41  1  0
 20 42  1  0
 20 43  1  0
 24 44  1  0
 24 45  1  0
 24 46  1  0
M  END
>  <ScrubInfo>  (8) 
{"isomerGroup": 0, "isomerId": 7, "confId": 0, "nr_conformers:": 1, "nr_isomers:": 9}

$$$$
_i8
     RDKit          3D

 46 48  0  0  0  0  0  0  0  0999 V2000
    0.3143    0.1937    1.9808 N   0  0  0  0  0  0  0  0  0  0  0  0
    0.8765    0.6202    0.7959 C   0  0  0  0  0  0  0  0  0  0  0  0
    2.1165    0.9759    0.8015 N   0  0  0  0  0  0  0  0  0  0  0  0
    2.7167    1.4216   -0.4521 C   0  0  0  0  0  0  0  0  0  0  0  0
    4.1932    1.7423   -0.2170 C   0  0  0  0  0  0  0  0  0  0  0  0
    5.0432    0.5574    0.2583 C   0  0  0  0  0  0  0  0  0  0  0  0
    5.0514   -0.6660   -0.6611 C   0  0  0  0  0  0  0  0  0  0  0  0
    5.5736   -0.3722   -2.0587 C   0  0  0  0  0  0  0  0  0  0  0  0
   -0.0079    0.6039   -0.2659 N   0  0  0  0  0  0  0  0  0  0  0  0
   -1.3425    0.2525   -0.3306 C   0  0  0  0  0  0  0  0  0  0  0  0
   -1.9934    0.3424   -1.4537 N   0  0  0  0  0  0  0  0  0  0  0  0
   -3.3616    0.0515   -1.5438 C   0  0  0  0  0  0  0  0  0  0  0  0
   -4.3240    1.0143   -1.2313 C   0  0  0  0  0  0  0  0  0  0  0  0
   -5.6838    0.7111   -1.3455 C   0  0  0  0  0  0  0  0  0  0  0  0
   -6.0870   -0.5508   -1.7895 C   0  0  0  0  0  0  0  0  0  0  0  0
   -5.1340   -1.5092   -2.1334 C   0  0  0  0  0  0  0  0  0  0  0  0
   -3.7853   -1.1959   -2.0201 C   0  0  0  0  0  0  0  0  0  0  0  0
   -2.8618   -2.1354   -2.3908 O   0  0  0  0  0  0  0  0  0  0  0  0
   -1.8326   -0.1972    0.9612 C   0  0  0  0  0  0  0  0  0  0  0  0
   -3.0339   -0.6963    1.4993 C   0  0  0  0  0  0  0  0  0  0  0  0
   -2.9459   -0.9650    2.8108 N   0  0  0  0  0  0  0  0  0  0  0  0
   -1.6661   -0.6609    3.1178 N   0  0  0  0  0  0  0  0  0  0  0  0
   -1.2062   -0.8389    4.4720 C   0  0  0  0  0  0  0  0  0  0  0  0
   -0.9753   -0.1990    2.0406 C   0  0  0  0  0  0  0  0  0  0  0  0
    0.9524    0.1967    2.7682 H   0  0  0  0  0  0  0  0  0  0  0  0
    2.2175    2.3335   -0.8015 H   0  0  0  0  0  0  0  0  0  0  0  0
    2.6160    0.6597   -1.2328 H   0  0  0  0  0  0  0  0  0  0  0  0
    4.6188    2.1529   -1.1399 H   0  0  0  0  0  0  0  0  0  0  0  0
    4.2690    2.5375    0.5358 H   0  0  0  0  0  0  0  0  0  0  0  0
    6.0749    0.9070    0.3908 H   0  0  0  0  0  0  0  0  0  0  0  0
    4.7010    0.2422    1.2517 H   0  0  0  0  0  0  0  0  0  0  0  0
    5.6893   -1.4335   -0.2059 H   0  0  0  0  0  0  0  0  0  0  0  0
    4.0482   -1.1008   -0.7280 H   0  0  0  0  0  0  0  0  0  0  0  0
    6.5689    0.0815   -2.0189 H   0  0  0  0  0  0  0  0  0  0  0  0
    4.9064    0.3028   -2.6026 H   0  0  0  0  0  0  0  0  0  0  0  0
    5.6473   -1.3002   -2.6348 H   0  0  0  0  0  0  0  0  0  0  0  0
    0.3478    0.9341   -1.1489 H   0  0  0  0  0  0  0  0  0  0  0  0
   -4.0159    2.0000   -0.8944 H   0  0  0  0  0  0  0  0  0  0  0  0
   -6.4295    1.4606   -1.0915 H   0  0  0  0  0  0  0  0  0  0  0  0
   -7.1454   -0.7837   -1.8781 H   0  0  0  0  0  0  0  0  0  0  0  0
   -5.4384   -2.4866   -2.4953 H   0  0  0  0  0  0  0  0  0  0  0  0
   -2.0046   -1.6695   -2.3455 H   0  0  0  0  0  0  0  0  0  0  0  0
   -3.9804   -0.8834    1.0108 H   0  0  0  0  0  0  0  0  0  0  0  0
   -0.1197   -0.9500    4.4799 H   0  0  0  0  0  0  0  0  0  0  0  0
   -1.5028    0.0396    5.0498 H   0  0  0  0  0  0  0  0  0  0  0  0
   -1.6650   -1.7406    4.8864 H   0  0  0  0  0  0  0  0  0  0  0  0
  1  2  1  0
  2  3  2  3
  3  4  1  0
  4  5  1  0
  5  6  1  0
  6  7  1  0
  7  8  1  0
  2  9  1  0
  9 10  1  0
 10 11  2  3
 11 12  1  0
 12 13  2  0
 13 14  1  0
 14 15  2  0
 15 16  1  0
 16 17  2  0
 17 18  1  0
 10 19  1  0
 19 20  1  0
 20 21  2  0
 21 22  1  0
 22 23  1  0
 22 24  1  0
 24  1  1  0
 17 12  1  0
 24 19  2  0
  1 25  1  0
  4 26  1  0
  4 27  1  0
  5 28  1  0
  5 29  1  0
  6 30  1  0
  6 31  1  0
  7 32  1  0
  7 33  1  0
  8 34  1  0
  8 35  1  0
  8 36  1  0
  9 37  1  0
 13 38  1  0
 14 39  1  0
 15 40  1  0
 16 41  1  0
 18 42  1  0
 20 43  1  0
 23 44  1  0
 23 45  1  0
 23 46  1  0
M  END
>  <ScrubInfo>  (9) 
{"isomerGroup": 0, "isomerId": 8, "confId": 0, "nr_conformers:": 1, "nr_isomers:": 9}

$$$$
