_i0
     RDKit          3D

 45 47  0  0  0  0  0  0  0  0999 V2000
   -5.1377    0.0480   -1.9994 C   0  0  0  0  0  0  0  0  0  0  0  0
   -4.5898    0.3123   -0.5964 C   0  0  0  0  0  0  0  0  0  0  0  0
   -5.5407    1.2405    0.1633 C   0  0  0  0  0  0  0  0  0  0  0  0
   -3.1753    0.9204   -0.6215 C   0  0  0  0  0  0  0  0  0  0  0  0
   -2.1271   -0.0057   -1.2471 C   0  0  0  0  0  0  0  0  0  0  0  0
   -0.7983    0.5725   -1.1280 N   0  0  0  0  0  0  0  0  0  0  0  0
   -0.0530    0.1601   -0.0290 C   0  0  0  0  0  0  0  0  0  0  0  0
    1.2674    0.0548   -0.2636 N   0  0  0  0  0  0  0  0  0  0  0  0
    2.1262   -0.3303    0.7176 C   0  0  0  0  0  0  0  0  0  0  0  0
    3.5045   -0.4621    0.4878 N   0  0  0  0  0  0  0  0  0  0  0  0
    4.3160   -0.1193   -0.6077 C   0  0  0  0  0  0  0  0  0  0  0  0
    3.8684    0.6222   -1.7084 C   0  0  0  0  0  0  0  0  0  0  0  0
    4.7168    0.9045   -2.7847 C   0  0  0  0  0  0  0  0  0  0  0  0
    6.0221    0.4363   -2.7708 C   0  0  0  0  0  0  0  0  0  0  0  0
    6.8344    0.7049   -3.8010 F   0  0  0  0  0  0  0  0  0  0  0  0
    6.4948   -0.3093   -1.7014 C   0  0  0  0  0  0  0  0  0  0  0  0
    5.6433   -0.5873   -0.6281 C   0  0  0  0  0  0  0  0  0  0  0  0
    1.5637   -0.6207    1.9673 C   0  0  0  0  0  0  0  0  0  0  0  0
    1.9888   -1.0433    3.2445 C   0  0  0  0  0  0  0  0  0  0  0  0
    0.9815   -1.1680    4.1157 N   0  0  0  0  0  0  0  0  0  0  0  0
   -0.1022   -0.8116    3.3864 N   0  0  0  0  0  0  0  0  0  0  0  0
   -1.4049   -0.8109    4.0028 C   0  0  0  0  0  0  0  0  0  0  0  0
    0.1957   -0.4824    2.0926 C   0  0  0  0  0  0  0  0  0  0  0  0
   -0.6597   -0.1016    1.1349 N   0  0  0  0  0  0  0  0  0  0  0  0
   -6.1680   -0.3209   -1.9506 H   0  0  0  0  0  0  0  0  0  0  0  0
   -5.1343    0.9603   -2.6054 H   0  0  0  0  0  0  0  0  0  0  0  0
   -4.5474   -0.7112   -2.5213 H   0  0  0  0  0  0  0  0  0  0  0  0
   -4.5516   -0.6426   -0.0570 H   0  0  0  0  0  0  0  0  0  0  0  0
   -6.5437    0.8051    0.2247 H   0  0  0  0  0  0  0  0  0  0  0  0
   -5.1877    1.4068    1.1867 H   0  0  0  0  0  0  0  0  0  0  0  0
   -5.6235    2.2151   -0.3298 H   0  0  0  0  0  0  0  0  0  0  0  0
   -3.1876    1.8731   -1.1676 H   0  0  0  0  0  0  0  0  0  0  0  0
   -2.8825    1.1669    0.4067 H   0  0  0  0  0  0  0  0  0  0  0  0
   -2.3404   -0.1126   -2.3166 H   0  0  0  0  0  0  0  0  0  0  0  0
   -2.1778   -1.0156   -0.8205 H   0  0  0  0  0  0  0  0  0  0  0  0
   -0.1917    0.4195   -1.9275 H   0  0  0  0  0  0  0  0  0  0  0  0
    4.0161   -0.8193    1.2824 H   0  0  0  0  0  0  0  0  0  0  0  0
    2.8558    1.0119   -1.7445 H   0  0  0  0  0  0  0  0  0  0  0  0
    4.3610    1.4870   -3.6282 H   0  0  0  0  0  0  0  0  0  0  0  0
    7.5170   -0.6727   -1.7087 H   0  0  0  0  0  0  0  0  0  0  0  0
    6.0285   -1.1833    0.1956 H   0  0  0  0  0  0  0  0  0  0  0  0
    2.9923   -1.2668    3.5815 H   0  0  0  0  0  0  0  0  0  0  0  0
   -1.6248   -1.8262    4.3421 H   0  0  0  0  0  0  0  0  0  0  0  0
   -2.1606   -0.4892    3.2826 H   0  0  0  0  0  0  0  0  0  0  0  0
   -1.3839   -0.1208    4.8501 H   0  0  0  0  0  0  0  0  0  0  0  0
  1  2  1  0
  2  3  1  0
  2  4  1  0
  4  5  1  0
  5  6  1  0
  6  7  1  0
  7  8  2  0
  8  9  1  0
  9 10  1  0
 10 11  1  0
 11 12  2  0
 12 13  1  0
 13 14  2  0
 14 15  1  0
 14 16  1  0
 16 17  2  0
  9 18  2  0
 18 19  1  0
 19 20  2  0
 20 21  1  0
 21 22  1  0
 21 23  1  0
 23 24  2  0
 24  7  1  0
 17 11  1  0
 23 18  1  0
  1 25  1  0
  1 26  1  0
  1 27  1  0
  2 28  1  0
  3 29  1  0
  3 30  1  0
  3 31  1  0
  4 32  1  0
  4 33  1  0
  5 34  1  0
  5 35  1  0
  6 36  1  0
 10 37  1  0
 12 38  1  0
 13 39  1  0
 16 40  1  0
 17 41  1  0
 19 42  1  0
 22 43  1  0
 22 44  1  0
 22 45  1  0
M  END
>  <ScrubInfo>  (1) 
{"isomerGroup": 0, "isomerId": 0, "confId": 0, "nr_conformers:": 1, "nr_isomers:": 9}

$$$$
_i1
     RDKit          3D

 45 47  0  0  0  0  0  0  0  0999 V2000
   -0.5596    0.3147   -0.0254 N   0  0  0  0  0  0  0  0  0  0  0  0
   -1.7117    0.9652   -0.4326 C   0  0  0  0  0  0  0  0  0  0  0  0
   -2.8520    0.2814   -0.8140 N   0  0  0  0  0  0  0  0  0  0  0  0
   -3.3420   -0.9483   -0.3305 C   0  0  0  0  0  0  0  0  0  0  0  0
   -4.2576   -1.6584   -1.1255 C   0  0  0  0  0  0  0  0  0  0  0  0
   -4.7446   -2.9049   -0.7237 C   0  0  0  0  0  0  0  0  0  0  0  0
   -4.3132   -3.4521    0.4761 C   0  0  0  0  0  0  0  0  0  0  0  0
   -4.7786   -4.6461    0.8640 F   0  0  0  0  0  0  0  0  0  0  0  0
   -3.4052   -2.7760    1.2791 C   0  0  0  0  0  0  0  0  0  0  0  0
   -2.9180   -1.5297    0.8735 C   0  0  0  0  0  0  0  0  0  0  0  0
   -1.6224    2.2999   -0.4751 C   0  0  0  0  0  0  0  0  0  0  0  0
   -2.4877    3.4424   -0.7890 C   0  0  0  0  0  0  0  0  0  0  0  0
   -1.8978    4.5979   -0.6181 N   0  0  0  0  0  0  0  0  0  0  0  0
   -0.5859    4.2890   -0.2247 N   0  0  0  0  0  0  0  0  0  0  0  0
    0.2501    5.3302    0.3218 C   0  0  0  0  0  0  0  0  0  0  0  0
   -0.3490    2.9327   -0.0703 C   0  0  0  0  0  0  0  0  0  0  0  0
    0.7040    2.3093    0.3311 N   0  0  0  0  0  0  0  0  0  0  0  0
    0.6148    0.9347    0.3365 C   0  0  0  0  0  0  0  0  0  0  0  0
    1.7046    0.3549    0.6935 N   0  0  0  0  0  0  0  0  0  0  0  0
    1.7558   -1.0990    0.7412 C   0  0  0  0  0  0  0  0  0  0  0  0
    3.1429   -1.5506    1.2079 C   0  0  0  0  0  0  0  0  0  0  0  0
    4.2916   -1.4509    0.1821 C   0  0  0  0  0  0  0  0  0  0  0  0
    4.6061   -0.0164   -0.2390 C   0  0  0  0  0  0  0  0  0  0  0  0
    4.0529   -2.3263   -1.0488 C   0  0  0  0  0  0  0  0  0  0  0  0
   -0.5681   -0.6869   -0.1329 H   0  0  0  0  0  0  0  0  0  0  0  0
   -3.5647    0.8327   -1.2824 H   0  0  0  0  0  0  0  0  0  0  0  0
   -4.5895   -1.2503   -2.0775 H   0  0  0  0  0  0  0  0  0  0  0  0
   -5.4505   -3.4513   -1.3411 H   0  0  0  0  0  0  0  0  0  0  0  0
   -3.0861   -3.2168    2.2184 H   0  0  0  0  0  0  0  0  0  0  0  0
   -2.2335   -1.0073    1.5372 H   0  0  0  0  0  0  0  0  0  0  0  0
   -3.5275    3.2975   -1.1079 H   0  0  0  0  0  0  0  0  0  0  0  0
    0.0638    5.4441    1.3941 H   0  0  0  0  0  0  0  0  0  0  0  0
    1.3098    5.0983    0.1744 H   0  0  0  0  0  0  0  0  0  0  0  0
    0.0473    6.2879   -0.1685 H   0  0  0  0  0  0  0  0  0  0  0  0
    1.0206   -1.4651    1.4687 H   0  0  0  0  0  0  0  0  0  0  0  0
    1.5150   -1.5399   -0.2314 H   0  0  0  0  0  0  0  0  0  0  0  0
    3.0645   -2.6012    1.5174 H   0  0  0  0  0  0  0  0  0  0  0  0
    3.4227   -0.9878    2.1081 H   0  0  0  0  0  0  0  0  0  0  0  0
    5.1875   -1.8404    0.6847 H   0  0  0  0  0  0  0  0  0  0  0  0
    5.5385    0.0158   -0.8135 H   0  0  0  0  0  0  0  0  0  0  0  0
    4.7333    0.6304    0.6352 H   0  0  0  0  0  0  0  0  0  0  0  0
    3.8200    0.4052   -0.8729 H   0  0  0  0  0  0  0  0  0  0  0  0
    4.9502   -2.3566   -1.6766 H   0  0  0  0  0  0  0  0  0  0  0  0
    3.2325   -1.9474   -1.6663 H   0  0  0  0  0  0  0  0  0  0  0  0
    3.8166   -3.3549   -0.7570 H   0  0  0  0  0  0  0  0  0  0  0  0
  1  2  1  0
  2  3  1  0
  3  4  1  0
  4  5  2  0
  5  6  1  0
  6  7  2  0
  7  8  1  0
  7  9  1  0
  9 10  2  0
  2 11  2  0
 11 12  1  0
 12 13  2  0
 13 14  1  0
 14 15  1  0
 14 16  1  0
 16 17  2  0
 17 18  1  0
 18 19  2  3
 19 20  1  0
 20 21  1  0
 21 22  1  0
 22 23  1  0
 22 24  1  0
 18  1  1  0
 10  4  1  0
 16 11  1  0
  1 25  1  0
  3 26  1  0
  5 27  1  0
  6 28  1  0
  9 29  1  0
 10 30  1  0
 12 31  1  0
 15 32  1  0
 15 33  1  0
 15 34  1  0
 20 35  1  0
 20 36  1  0
 21 37  1  0
 21 38  1  0
 22 39  1  0
 23 40  1  0
 23 41  1  0
 23 42  1  0
 24 43  1  0
 24 44  1  0
 24 45  1  0
M  END
>  <ScrubInfo>  (2) 
{"isomerGroup": 0, "isomerId": 1, "confId": 0, "nr_conformers:": 1, "nr_isomers:": 9}

$$$$
_i2
     RDKit          3D

 45 47  0  0  0  0  0  0  0  0999 V2000
    0.0127    0.2106   -0.2282 N   0  0  0  0  0  0  0  0  0  0  0  0
   -0.7925    0.0685    0.8725 C   0  0  0  0  0  0  0  0  0  0  0  0
   -2.1309    0.2528    0.6706 N   0  0  0  0  0  0  0  0  0  0  0  0
   -2.6612    1.4264   -0.0096 C   0  0  0  0  0  0  0  0  0  0  0  0
   -4.1831    1.3323   -0.1514 C   0  0  0  0  0  0  0  0  0  0  0  0
   -4.6673    0.4891   -1.3492 C   0  0  0  0  0  0  0  0  0  0  0  0
   -4.2579   -0.9807   -1.2595 C   0  0  0  0  0  0  0  0  0  0  0  0
   -6.1912    0.5908   -1.4654 C   0  0  0  0  0  0  0  0  0  0  0  0
   -0.3555   -0.2460    2.0655 N   0  0  0  0  0  0  0  0  0  0  0  0
    1.0005   -0.3893    2.0785 C   0  0  0  0  0  0  0  0  0  0  0  0
    1.8928   -0.2679    1.0229 C   0  0  0  0  0  0  0  0  0  0  0  0
    3.1509   -0.5061    1.6033 C   0  0  0  0  0  0  0  0  0  0  0  0
    3.0775   -0.7599    2.9161 N   0  0  0  0  0  0  0  0  0  0  0  0
    1.7530   -0.6884    3.1793 N   0  0  0  0  0  0  0  0  0  0  0  0
    1.2877   -0.9157    4.5242 C   0  0  0  0  0  0  0  0  0  0  0  0
    1.3759    0.0411   -0.2964 C   0  0  0  0  0  0  0  0  0  0  0  0
    2.0188    0.1485   -1.4194 N   0  0  0  0  0  0  0  0  0  0  0  0
    3.3986   -0.0349   -1.5070 C   0  0  0  0  0  0  0  0  0  0  0  0
    4.2607    1.0638   -1.4159 C   0  0  0  0  0  0  0  0  0  0  0  0
    5.6398    0.8896   -1.5446 C   0  0  0  0  0  0  0  0  0  0  0  0
    6.1490   -0.3824   -1.7808 C   0  0  0  0  0  0  0  0  0  0  0  0
    7.4716   -0.5501   -1.9070 F   0  0  0  0  0  0  0  0  0  0  0  0
    5.3054   -1.4815   -1.8957 C   0  0  0  0  0  0  0  0  0  0  0  0
    3.9266   -1.3048   -1.7668 C   0  0  0  0  0  0  0  0  0  0  0  0
   -0.4380    0.2947   -1.1239 H   0  0  0  0  0  0  0  0  0  0  0  0
   -2.6087    0.0947    1.5564 H   0  0  0  0  0  0  0  0  0  0  0  0
   -2.2032    1.5611   -0.9952 H   0  0  0  0  0  0  0  0  0  0  0  0
   -2.4160    2.3105    0.5908 H   0  0  0  0  0  0  0  0  0  0  0  0
   -4.6305    0.9568    0.7779 H   0  0  0  0  0  0  0  0  0  0  0  0
   -4.5619    2.3540   -0.2875 H   0  0  0  0  0  0  0  0  0  0  0  0
   -4.2353    0.9072   -2.2675 H   0  0  0  0  0  0  0  0  0  0  0  0
   -3.1746   -1.0981   -1.3565 H   0  0  0  0  0  0  0  0  0  0  0  0
   -4.5715   -1.4242   -0.3086 H   0  0  0  0  0  0  0  0  0  0  0  0
   -4.7140   -1.5616   -2.0687 H   0  0  0  0  0  0  0  0  0  0  0  0
   -6.6854    0.1803   -0.5782 H   0  0  0  0  0  0  0  0  0  0  0  0
   -6.5051    1.6340   -1.5771 H   0  0  0  0  0  0  0  0  0  0  0  0
   -6.5531    0.0403   -2.3404 H   0  0  0  0  0  0  0  0  0  0  0  0
    4.1297   -0.5092    1.1449 H   0  0  0  0  0  0  0  0  0  0  0  0
    1.6956   -0.1300    5.1651 H   0  0  0  0  0  0  0  0  0  0  0  0
    1.6422   -1.8968    4.8505 H   0  0  0  0  0  0  0  0  0  0  0  0
    0.1963   -0.8906    4.5549 H   0  0  0  0  0  0  0  0  0  0  0  0
    3.8532    2.0566   -1.2454 H   0  0  0  0  0  0  0  0  0  0  0  0
    6.3156    1.7351   -1.4685 H   0  0  0  0  0  0  0  0  0  0  0  0
    5.7232   -2.4639   -2.0899 H   0  0  0  0  0  0  0  0  0  0  0  0
    3.2592   -2.1563   -1.8692 H   0  0  0  0  0  0  0  0  0  0  0  0
  1  2  1  0
  2  3  1  0
  3  4  1  0
  4  5  1  0
  5  6  1  0
  6  7  1  0
  6  8  1  0
  2  9  2  0
  9 10  1  0
 10 11  2  0
 11 12  1  0
 12 13  2  0
 13 14  1  0
 14 15  1  0
 11 16  1  0
 16 17  2  3
 17 18  1  0
 18 19  2  0
 19 20  1  0
 20 21  2  0
 21 22  1  0
 21 23  1  0
 23 24  2  0
 16  1  1  0
 24 18  1  0
 14 10  1  0
  1 25  1  0
  3 26  1  0
  4 27  1  0
  4 28  1  0
  5 29  1  0
  5 30  1  0
  6 31  1  0
  7 32  1  0
  7 33  1  0
  7 34  1  0
  8 35  1  0
  8 36  1  0
  8 37  1  0
 12 38  1  0
 15 39  1  0
 15 40  1  0
 15 41  1  0
 19 42  1  0
 20 43  1  0
 23 44  1  0
 24 45  1  0
M  END
>  <ScrubInfo>  (3) 
{"isomerGroup": 0, "isomerId": 2, "confId": 0, "nr_conformers:": 1, "nr_isomers:": 9}

$$$$
_i3
     RDKit          3D

 45 47  0  0  0  0  0  0  0  0999 V2000
    0.4473    1.4681    0.3489 N   0  0  0  0  0  0  0  0  0  0  0  0
    0.6721    0.1087    0.1935 C   0  0  0  0  0  0  0  0  0  0  0  0
    1.7327   -0.5299    0.5406 N   0  0  0  0  0  0  0  0  0  0  0  0
    2.8374    0.1909    1.1551 C   0  0  0  0  0  0  0  0  0  0  0  0
    3.9748   -0.7891    1.4544 C   0  0  0  0  0  0  0  0  0  0  0  0
    4.5721   -1.4908    0.2180 C   0  0  0  0  0  0  0  0  0  0  0  0
    5.1771   -0.5029   -0.7802 C   0  0  0  0  0  0  0  0  0  0  0  0
    5.6386   -2.4963    0.6606 C   0  0  0  0  0  0  0  0  0  0  0  0
   -0.2851   -0.7161   -0.3809 N   0  0  0  0  0  0  0  0  0  0  0  0
   -1.4224   -0.2146   -0.7694 C   0  0  0  0  0  0  0  0  0  0  0  0
   -2.4029   -0.9686   -1.3630 N   0  0  0  0  0  0  0  0  0  0  0  0
   -3.7092   -1.1331   -0.8322 C   0  0  0  0  0  0  0  0  0  0  0  0
   -4.0428   -0.8271    0.4957 C   0  0  0  0  0  0  0  0  0  0  0  0
   -5.3402   -1.0414    0.9691 C   0  0  0  0  0  0  0  0  0  0  0  0
   -6.3019   -1.5745    0.1208 C   0  0  0  0  0  0  0  0  0  0  0  0
   -7.5440   -1.7808    0.5766 F   0  0  0  0  0  0  0  0  0  0  0  0
   -5.9905   -1.9034   -1.1916 C   0  0  0  0  0  0  0  0  0  0  0  0
   -4.6941   -1.6891   -1.6644 C   0  0  0  0  0  0  0  0  0  0  0  0
   -1.6823    1.2008   -0.6534 C   0  0  0  0  0  0  0  0  0  0  0  0
   -2.7021    2.1023   -0.9922 C   0  0  0  0  0  0  0  0  0  0  0  0
   -2.4033    3.3634   -0.6411 N   0  0  0  0  0  0  0  0  0  0  0  0
   -1.1706    3.2631   -0.0855 N   0  0  0  0  0  0  0  0  0  0  0  0
   -0.5239    4.4546    0.4016 C   0  0  0  0  0  0  0  0  0  0  0  0
   -0.7157    1.9829   -0.0853 C   0  0  0  0  0  0  0  0  0  0  0  0
    1.1871    2.0164    0.7598 H   0  0  0  0  0  0  0  0  0  0  0  0
    2.5131    0.6374    2.1031 H   0  0  0  0  0  0  0  0  0  0  0  0
    3.1955    0.9983    0.5075 H   0  0  0  0  0  0  0  0  0  0  0  0
    4.7685   -0.2471    1.9843 H   0  0  0  0  0  0  0  0  0  0  0  0
    3.6018   -1.5540    2.1483 H   0  0  0  0  0  0  0  0  0  0  0  0
    3.7806   -2.0524   -0.2934 H   0  0  0  0  0  0  0  0  0  0  0  0
    5.9292    0.1340   -0.3026 H   0  0  0  0  0  0  0  0  0  0  0  0
    5.6606   -1.0339   -1.6075 H   0  0  0  0  0  0  0  0  0  0  0  0
    4.4092    0.1427   -1.2169 H   0  0  0  0  0  0  0  0  0  0  0  0
    6.4685   -1.9969    1.1721 H   0  0  0  0  0  0  0  0  0  0  0  0
    5.2141   -3.2377    1.3458 H   0  0  0  0  0  0  0  0  0  0  0  0
    6.0468   -3.0355   -0.2009 H   0  0  0  0  0  0  0  0  0  0  0  0
   -2.0274   -1.8999   -1.5387 H   0  0  0  0  0  0  0  0  0  0  0  0
   -3.3006   -0.4306    1.1844 H   0  0  0  0  0  0  0  0  0  0  0  0
   -5.6017   -0.8013    1.9949 H   0  0  0  0  0  0  0  0  0  0  0  0
   -6.7550   -2.3235   -1.8372 H   0  0  0  0  0  0  0  0  0  0  0  0
   -4.4567   -1.9459   -2.6946 H   0  0  0  0  0  0  0  0  0  0  0  0
   -3.6498    1.9042   -1.4763 H   0  0  0  0  0  0  0  0  0  0  0  0
    0.4302    4.1976    0.8661 H   0  0  0  0  0  0  0  0  0  0  0  0
   -0.3567    5.1253   -0.4450 H   0  0  0  0  0  0  0  0  0  0  0  0
   -1.1782    4.9257    1.1396 H   0  0  0  0  0  0  0  0  0  0  0  0
  1  2  1  0
  2  3  2  3
  3  4  1  0
  4  5  1  0
  5  6  1  0
  6  7  1  0
  6  8  1  0
  2  9  1  0
  9 10  2  0
 10 11  1  0
 11 12  1  0
 12 13  2  0
 13 14  1  0
 14 15  2  0
 15 16  1  0
 15 17  1  0
 17 18  2  0
 10 19  1  0
 19 20  1  0
 20 21  2  0
 21 22  1  0
 22 23  1  0
 22 24  1  0
 24  1  1  0
 18 12  1  0
 24 19  2  0
  1 25  1  0
  4 26  1  0
  4 27  1  0
  5 28  1  0
  5 29  1  0
  6 30  1  0
  7 31  1  0
  7 32  1  0
  7 33  1  0
  8 34  1  0
  8 35  1  0
  8 36  1  0
 11 37  1  0
 13 38  1  0
 14 39  1  0
 17 40  1  0
 18 41  1  0
 20 42  1  0
 23 43  1  0
 23 44  1  0
 23 45  1  0
M  END
>  <ScrubInfo>  (4) 
{"isomerGroup": 0, "isomerId": 3, "confId": 0, "nr_conformers:": 1, "nr_isomers:": 9}

$$$$
_i4
     RDKit          3D

 45 47  0  0  0  0  0  0  0  0999 V2000
    3.1748    2.8937   -0.8568 N   0  0  0  0  0  0  0  0  0  0  0  0
    3.0503    1.6278   -0.2943 C   0  0  0  0  0  0  0  0  0  0  0  0
    1.8249    1.0988   -0.4329 C   0  0  0  0  0  0  0  0  0  0  0  0
    1.0922   -0.1061   -0.0661 C   0  0  0  0  0  0  0  0  0  0  0  0
    1.4873   -1.1864    0.5219 N   0  0  0  0  0  0  0  0  0  0  0  0
    2.8164   -1.3438    0.9138 C   0  0  0  0  0  0  0  0  0  0  0  0
    3.2142   -0.9909    2.2082 C   0  0  0  0  0  0  0  0  0  0  0  0
    4.5385   -1.1698    2.6116 C   0  0  0  0  0  0  0  0  0  0  0  0
    5.4555   -1.7175    1.7216 C   0  0  0  0  0  0  0  0  0  0  0  0
    6.7269   -1.8878    2.1063 F   0  0  0  0  0  0  0  0  0  0  0  0
    5.0721   -2.0959    0.4397 C   0  0  0  0  0  0  0  0  0  0  0  0
    3.7472   -1.9156    0.0390 C   0  0  0  0  0  0  0  0  0  0  0  0
   -0.2331   -0.0717   -0.4055 N   0  0  0  0  0  0  0  0  0  0  0  0
   -0.7841    0.9110   -1.0486 C   0  0  0  0  0  0  0  0  0  0  0  0
   -2.1137    0.8909   -1.3512 N   0  0  0  0  0  0  0  0  0  0  0  0
   -2.9475   -0.2879   -1.2652 C   0  0  0  0  0  0  0  0  0  0  0  0
   -3.5251   -0.4268    0.1447 C   0  0  0  0  0  0  0  0  0  0  0  0
   -4.3261   -1.7251    0.3527 C   0  0  0  0  0  0  0  0  0  0  0  0
   -5.5633   -1.7984   -0.5432 C   0  0  0  0  0  0  0  0  0  0  0  0
   -4.7432   -1.8484    1.8203 C   0  0  0  0  0  0  0  0  0  0  0  0
   -0.1326    2.0311   -1.4898 N   0  0  0  0  0  0  0  0  0  0  0  0
    1.1193    2.1358   -1.2093 C   0  0  0  0  0  0  0  0  0  0  0  0
    1.9990    3.1682   -1.5401 N   0  0  0  0  0  0  0  0  0  0  0  0
    1.5374    4.5409   -1.6229 C   0  0  0  0  0  0  0  0  0  0  0  0
    4.0430    3.0209   -1.3822 H   0  0  0  0  0  0  0  0  0  0  0  0
    3.9165    1.1952    0.1839 H   0  0  0  0  0  0  0  0  0  0  0  0
    2.4839   -0.5816    2.9015 H   0  0  0  0  0  0  0  0  0  0  0  0
    4.8548   -0.8960    3.6128 H   0  0  0  0  0  0  0  0  0  0  0  0
    5.7999   -2.5373   -0.2331 H   0  0  0  0  0  0  0  0  0  0  0  0
    3.4311   -2.2270   -0.9532 H   0  0  0  0  0  0  0  0  0  0  0  0
   -2.3868    1.5997   -2.0184 H   0  0  0  0  0  0  0  0  0  0  0  0
   -2.3850   -1.1846   -1.5504 H   0  0  0  0  0  0  0  0  0  0  0  0
   -3.7604   -0.1796   -1.9908 H   0  0  0  0  0  0  0  0  0  0  0  0
   -4.1583    0.4428    0.3650 H   0  0  0  0  0  0  0  0  0  0  0  0
   -2.7066   -0.3982    0.8756 H   0  0  0  0  0  0  0  0  0  0  0  0
   -3.6790   -2.5790    0.1151 H   0  0  0  0  0  0  0  0  0  0  0  0
   -5.2874   -1.8410   -1.6011 H   0  0  0  0  0  0  0  0  0  0  0  0
   -6.1476   -2.6990   -0.3252 H   0  0  0  0  0  0  0  0  0  0  0  0
   -6.2136   -0.9298   -0.3940 H   0  0  0  0  0  0  0  0  0  0  0  0
   -5.2814   -2.7861    1.9948 H   0  0  0  0  0  0  0  0  0  0  0  0
   -5.3968   -1.0216    2.1187 H   0  0  0  0  0  0  0  0  0  0  0  0
   -3.8663   -1.8417    2.4763 H   0  0  0  0  0  0  0  0  0  0  0  0
    1.2027    4.8990   -0.6437 H   0  0  0  0  0  0  0  0  0  0  0  0
    2.3435    5.1928   -1.9749 H   0  0  0  0  0  0  0  0  0  0  0  0
    0.7064    4.6260   -2.3304 H   0  0  0  0  0  0  0  0  0  0  0  0
  1  2  1  0
  2  3  2  0
  3  4  1  0
  4  5  2  3
  5  6  1  0
  6  7  2  0
  7  8  1  0
  8  9  2  0
  9 10  1  0
  9 11  1  0
 11 12  2  0
  4 13  1  0
 13 14  2  0
 14 15  1  0
 15 16  1  0
 16 17  1  0
 17 18  1  0
 18 19  1  0
 18 20  1  0
 14 21  1  0
 21 22  2  0
 22 23  1  0
 23 24  1  0
 23  1  1  0
 22  3  1  0
 12  6  1  0
  1 25  1  0
  2 26  1  0
  7 27  1  0
  8 28  1  0
 11 29  1  0
 12 30  1  0
 15 31  1  0
 16 32  1  0
 16 33  1  0
 17 34  1  0
 17 35  1  0
 18 36  1  0
 19 37  1  0
 19 38  1  0
 19 39  1  0
 20 40  1  0
 20 41  1  0
 20 42  1  0
 24 43  1  0
 24 44  1  0
 24 45  1  0
M  END
>  <ScrubInfo>  (5) 
{"isomerGroup": 0, "isomerId": 4, "confId": 0, "nr_conformers:": 1, "nr_isomers:": 9}

$$$$
_i5
     RDKit          3D

 45 47  0  0  0  0  0  0  0  0999 V2000
   -0.1818    1.6686   -0.4385 N   0  0  0  0  0  0  0  0  0  0  0  0
   -0.6520    0.3872   -0.5777 C   0  0  0  0  0  0  0  0  0  0  0  0
   -1.9937    0.2739   -0.8036 N   0  0  0  0  0  0  0  0  0  0  0  0
   -2.9778    0.9594    0.0235 C   0  0  0  0  0  0  0  0  0  0  0  0
   -4.3974    0.4848   -0.3039 C   0  0  0  0  0  0  0  0  0  0  0  0
   -4.9096   -0.6672    0.5857 C   0  0  0  0  0  0  0  0  0  0  0  0
   -6.3695   -0.9747    0.2397 C   0  0  0  0  0  0  0  0  0  0  0  0
   -4.0751   -1.9418    0.4695 C   0  0  0  0  0  0  0  0  0  0  0  0
    0.0722   -0.6942   -0.5248 N   0  0  0  0  0  0  0  0  0  0  0  0
    1.4400   -0.6023   -0.2956 C   0  0  0  0  0  0  0  0  0  0  0  0
    2.0739   -1.7279   -0.2012 N   0  0  0  0  0  0  0  0  0  0  0  0
    3.4447   -1.8039    0.0329 C   0  0  0  0  0  0  0  0  0  0  0  0
    3.9358   -1.8582    1.3425 C   0  0  0  0  0  0  0  0  0  0  0  0
    5.3071   -1.9745    1.5764 C   0  0  0  0  0  0  0  0  0  0  0  0
    6.1801   -2.0545    0.4972 C   0  0  0  0  0  0  0  0  0  0  0  0
    7.4957   -2.1678    0.7205 F   0  0  0  0  0  0  0  0  0  0  0  0
    5.7075   -2.0267   -0.8100 C   0  0  0  0  0  0  0  0  0  0  0  0
    4.3357   -1.9102   -1.0412 C   0  0  0  0  0  0  0  0  0  0  0  0
    1.9929    0.7385   -0.1914 C   0  0  0  0  0  0  0  0  0  0  0  0
    3.2560    1.3366   -0.0317 C   0  0  0  0  0  0  0  0  0  0  0  0
    3.2008    2.6783   -0.0195 N   0  0  0  0  0  0  0  0  0  0  0  0
    1.8851    2.9469   -0.1742 N   0  0  0  0  0  0  0  0  0  0  0  0
    1.4496    4.3197   -0.2064 C   0  0  0  0  0  0  0  0  0  0  0  0
    1.1436    1.8137   -0.2730 C   0  0  0  0  0  0  0  0  0  0  0  0
   -0.7989    2.4173   -0.7208 H   0  0  0  0  0  0  0  0  0  0  0  0
   -2.2041   -0.7168   -0.9071 H   0  0  0  0  0  0  0  0  0  0  0  0
   -2.9204    2.0336   -0.1862 H   0  0  0  0  0  0  0  0  0  0  0  0
   -2.7543    0.8186    1.0871 H   0  0  0  0  0  0  0  0  0  0  0  0
   -5.0716    1.3387   -0.1534 H   0  0  0  0  0  0  0  0  0  0  0  0
   -4.4775    0.2102   -1.3636 H   0  0  0  0  0  0  0  0  0  0  0  0
   -4.8789   -0.3367    1.6319 H   0  0  0  0  0  0  0  0  0  0  0  0
   -6.9953   -0.0844    0.3626 H   0  0  0  0  0  0  0  0  0  0  0  0
   -6.7698   -1.7546    0.8962 H   0  0  0  0  0  0  0  0  0  0  0  0
   -6.4682   -1.3191   -0.7955 H   0  0  0  0  0  0  0  0  0  0  0  0
   -4.0014   -2.2759   -0.5707 H   0  0  0  0  0  0  0  0  0  0  0  0
   -3.0637   -1.7904    0.8586 H   0  0  0  0  0  0  0  0  0  0  0  0
   -4.5233   -2.7539    1.0524 H   0  0  0  0  0  0  0  0  0  0  0  0
    3.2434   -1.8149    2.1791 H   0  0  0  0  0  0  0  0  0  0  0  0
    5.6959   -2.0120    2.5887 H   0  0  0  0  0  0  0  0  0  0  0  0
    6.4047   -2.1046   -1.6377 H   0  0  0  0  0  0  0  0  0  0  0  0
    3.9539   -1.9069   -2.0588 H   0  0  0  0  0  0  0  0  0  0  0  0
    4.2271    0.8728    0.0718 H   0  0  0  0  0  0  0  0  0  0  0  0
    1.8178    4.7738   -1.1296 H   0  0  0  0  0  0  0  0  0  0  0  0
    0.3590    4.3653   -0.1762 H   0  0  0  0  0  0  0  0  0  0  0  0
    1.8617    4.8360    0.6645 H   0  0  0  0  0  0  0  0  0  0  0  0
  1  2  1  0
  2  3  1  0
  3  4  1  0
  4  5  1  0
  5  6  1  0
  6  7  1  0
  6  8  1  0
  2  9  2  0
  9 10  1  0
 10 11  2  3
 11 12  1  0
 12 13  2  0
 13 14  1  0
 14 15  2  0
 15 16  1  0
 15 17  1  0
 17 18  2  0
 10 19  1  0
 19 20  1  0
 20 21  2  0
 21 22  1  0
 22 23  1  0
 22 24  1  0
 24  1  1  0
 18 12  1  0
 24 19  2  0
  1 25  1  0
  3 26  1  0
  4 27  1  0
  4 28  1  0
  5 29  1  0
  5 30  1  0
  6 31  1  0
  7 32  1  0
  7 33  1  0
  7 34  1  0
  8 35  1  0
  8 36  1  0
  8 37  1  0
 13 38  1  0
 14 39  1  0
 17 40  1  0
 18 41  1  0
 20 42  1  0
 23 43  1  0
 23 44  1  0
 23 45  1  0
M  END
>  <ScrubInfo>  (6) 
{"isomerGroup": 0, "isomerId": 5, "confId": 0, "nr_conformers:": 1, "nr_isomers:": 9}

$$$$
_i6
     RDKit          3D

 45 47  0  0  0  0  0  0  0  0999 V2000
   -2.4552    2.7500   -1.8714 N   0  0  0  0  0  0  0  0  0  0  0  0
   -2.5489    1.3931   -1.5805 C   0  0  0  0  0  0  0  0  0  0  0  0
   -1.4908    0.9299   -0.9016 C   0  0  0  0  0  0  0  0  0  0  0  0
   -1.0194   -0.3223   -0.3138 C   0  0  0  0  0  0  0  0  0  0  0  0
   -1.7096   -1.5138   -0.3886 N   0  0  0  0  0  0  0  0  0  0  0  0
   -3.0708   -1.6722   -0.0399 C   0  0  0  0  0  0  0  0  0  0  0  0
   -3.7345   -0.8189    0.8539 C   0  0  0  0  0  0  0  0  0  0  0  0
   -5.0701   -1.0477    1.1957 C   0  0  0  0  0  0  0  0  0  0  0  0
   -5.7388   -2.1401    0.6590 C   0  0  0  0  0  0  0  0  0  0  0  0
   -7.0182   -2.3587    0.9879 F   0  0  0  0  0  0  0  0  0  0  0  0
   -5.0951   -3.0137   -0.2070 C   0  0  0  0  0  0  0  0  0  0  0  0
   -3.7604   -2.7843   -0.5476 C   0  0  0  0  0  0  0  0  0  0  0  0
    0.1394   -0.3274    0.2863 N   0  0  0  0  0  0  0  0  0  0  0  0
    0.8496    0.8530    0.3805 C   0  0  0  0  0  0  0  0  0  0  0  0
    1.9503    0.8806    1.0421 N   0  0  0  0  0  0  0  0  0  0  0  0
    2.4352   -0.3285    1.6991 C   0  0  0  0  0  0  0  0  0  0  0  0
    3.3130   -1.1512    0.7526 C   0  0  0  0  0  0  0  0  0  0  0  0
    4.5388   -0.4071    0.1863 C   0  0  0  0  0  0  0  0  0  0  0  0
    5.2800   -1.3114   -0.8023 C   0  0  0  0  0  0  0  0  0  0  0  0
    5.4996    0.0556    1.2822 C   0  0  0  0  0  0  0  0  0  0  0  0
    0.5134    2.0623   -0.1803 N   0  0  0  0  0  0  0  0  0  0  0  0
   -0.6038    2.1088   -0.8166 C   0  0  0  0  0  0  0  0  0  0  0  0
   -1.1848    3.1773   -1.4993 N   0  0  0  0  0  0  0  0  0  0  0  0
   -0.9943    4.5430   -1.0502 C   0  0  0  0  0  0  0  0  0  0  0  0
   -2.7434    2.9821   -2.8250 H   0  0  0  0  0  0  0  0  0  0  0  0
   -3.4194    0.8429   -1.9086 H   0  0  0  0  0  0  0  0  0  0  0  0
   -1.1638   -2.2598    0.0395 H   0  0  0  0  0  0  0  0  0  0  0  0
   -3.2212    0.0241    1.3104 H   0  0  0  0  0  0  0  0  0  0  0  0
   -5.5868   -0.3862    1.8841 H   0  0  0  0  0  0  0  0  0  0  0  0
   -5.6324   -3.8669   -0.6088 H   0  0  0  0  0  0  0  0  0  0  0  0
   -3.2607   -3.4725   -1.2263 H   0  0  0  0  0  0  0  0  0  0  0  0
    3.0092   -0.0316    2.5835 H   0  0  0  0  0  0  0  0  0  0  0  0
    1.6199   -0.9499    2.0894 H   0  0  0  0  0  0  0  0  0  0  0  0
    3.6481   -2.0493    1.2873 H   0  0  0  0  0  0  0  0  0  0  0  0
    2.6977   -1.5028   -0.0854 H   0  0  0  0  0  0  0  0  0  0  0  0
    4.1983    0.4768   -0.3669 H   0  0  0  0  0  0  0  0  0  0  0  0
    5.6572   -2.2143   -0.3100 H   0  0  0  0  0  0  0  0  0  0  0  0
    4.6182   -1.6207   -1.6183 H   0  0  0  0  0  0  0  0  0  0  0  0
    6.1323   -0.7864   -1.2466 H   0  0  0  0  0  0  0  0  0  0  0  0
    5.8216   -0.7833    1.9083 H   0  0  0  0  0  0  0  0  0  0  0  0
    6.3939    0.5140    0.8463 H   0  0  0  0  0  0  0  0  0  0  0  0
    5.0350    0.8063    1.9285 H   0  0  0  0  0  0  0  0  0  0  0  0
   -1.4590    4.6985   -0.0710 H   0  0  0  0  0  0  0  0  0  0  0  0
    0.0720    4.7788   -0.9741 H   0  0  0  0  0  0  0  0  0  0  0  0
   -1.4414    5.2437   -1.7628 H   0  0  0  0  0  0  0  0  0  0  0  0
  1  2  1  0
  2  3  2  0
  3  4  1  0
  4  5  1  0
  5  6  1  0
  6  7  2  0
  7  8  1  0
  8  9  2  0
  9 10  1  0
  9 11  1  0
 11 12  2  0
  4 13  2  0
 13 14  1  0
 14 15  2  3
 15 16  1  0
 16 17  1  0
 17 18  1  0
 18 19  1  0
 18 20  1  0
 14 21  1  0
 21 22  2  0
 22 23  1  0
 23 24  1  0
 23  1  1  0
 22  3  1  0
 12  6  1  0
  1 25  1  0
  2 26  1  0
  5 27  1  0
  7 28  1  0
  8 29  1  0
 11 30  1  0
 12 31  1  0
 16 32  1  0
 16 33  1  0
 17 34  1  0
 17 35  1  0
 18 36  1  0
 19 37  1  0
 19 38  1  0
 19 39  1  0
 20 40  1  0
 20 41  1  0
 20 42  1  0
 24 43  1  0
 24 44  1  0
 24 45  1  0
M  END
>  <ScrubInfo>  (7) 
{"isomerGroup": 0, "isomerId": 6, "confId": 0, "nr_conformers:": 1, "nr_isomers:": 9}

$$$$
_i7
     RDKit          3D

 45 47  0  0  0  0  0  0  0  0999 V2000
    2.0650    4.6247   -0.3304 N   0  0  0  0  0  0  0  0  0  0  0  0
    2.5930    3.3911   -0.6951 C   0  0  0  0  0  0  0  0  0  0  0  0
    1.8298    2.3634   -0.3054 C   0  0  0  0  0  0  0  0  0  0  0  0
    1.8615    0.9020   -0.3568 C   0  0  0  0  0  0  0  0  0  0  0  0
    2.8389    0.3041   -0.9723 N   0  0  0  0  0  0  0  0  0  0  0  0
    2.8515   -1.0944   -1.0171 C   0  0  0  0  0  0  0  0  0  0  0  0
    3.5284   -1.8231   -0.0336 C   0  0  0  0  0  0  0  0  0  0  0  0
    3.5355   -3.2184   -0.0717 C   0  0  0  0  0  0  0  0  0  0  0  0
    2.8729   -3.8775   -1.1011 C   0  0  0  0  0  0  0  0  0  0  0  0
    2.8773   -5.2160   -1.1374 F   0  0  0  0  0  0  0  0  0  0  0  0
    2.2081   -3.1680   -2.0948 C   0  0  0  0  0  0  0  0  0  0  0  0
    2.2029   -1.7728   -2.0549 C   0  0  0  0  0  0  0  0  0  0  0  0
    0.7927    0.3296    0.2902 N   0  0  0  0  0  0  0  0  0  0  0  0
   -0.2384    0.9921    0.9155 C   0  0  0  0  0  0  0  0  0  0  0  0
   -1.2279    0.4517    1.5309 N   0  0  0  0  0  0  0  0  0  0  0  0
   -1.3533   -0.9934    1.6590 C   0  0  0  0  0  0  0  0  0  0  0  0
   -2.0167   -1.6043    0.4226 C   0  0  0  0  0  0  0  0  0  0  0  0
   -3.4153   -1.0474    0.0904 C   0  0  0  0  0  0  0  0  0  0  0  0
   -3.9276   -1.6798   -1.2065 C   0  0  0  0  0  0  0  0  0  0  0  0
   -4.4228   -1.2883    1.2151 C   0  0  0  0  0  0  0  0  0  0  0  0
   -0.2977    2.3724    0.9213 N   0  0  0  0  0  0  0  0  0  0  0  0
    0.6577    3.0266    0.3412 C   0  0  0  0  0  0  0  0  0  0  0  0
    0.7986    4.4107    0.2102 N   0  0  0  0  0  0  0  0  0  0  0  0
    0.3049    5.3091    1.2362 C   0  0  0  0  0  0  0  0  0  0  0  0
    2.1228    5.3253   -1.0729 H   0  0  0  0  0  0  0  0  0  0  0  0
    3.5271    3.3466   -1.2372 H   0  0  0  0  0  0  0  0  0  0  0  0
    4.0547   -1.2986    0.7598 H   0  0  0  0  0  0  0  0  0  0  0  0
    4.0581   -3.7919    0.6872 H   0  0  0  0  0  0  0  0  0  0  0  0
    1.7074   -3.7026   -2.8957 H   0  0  0  0  0  0  0  0  0  0  0  0
    1.6977   -1.2093   -2.8352 H   0  0  0  0  0  0  0  0  0  0  0  0
    0.7532   -0.6748    0.2947 H   0  0  0  0  0  0  0  0  0  0  0  0
   -1.9483   -1.2103    2.5526 H   0  0  0  0  0  0  0  0  0  0  0  0
   -0.3837   -1.4714    1.8426 H   0  0  0  0  0  0  0  0  0  0  0  0
   -2.0831   -2.6901    0.5691 H   0  0  0  0  0  0  0  0  0  0  0  0
   -1.3634   -1.4509   -0.4455 H   0  0  0  0  0  0  0  0  0  0  0  0
   -3.3405    0.0341   -0.0773 H   0  0  0  0  0  0  0  0  0  0  0  0
   -4.9041   -1.2672   -1.4818 H   0  0  0  0  0  0  0  0  0  0  0  0
   -4.0347   -2.7652   -1.1048 H   0  0  0  0  0  0  0  0  0  0  0  0
   -3.2382   -1.4827   -2.0344 H   0  0  0  0  0  0  0  0  0  0  0  0
   -5.4217   -0.9482    0.9210 H   0  0  0  0  0  0  0  0  0  0  0  0
   -4.4893   -2.3519    1.4677 H   0  0  0  0  0  0  0  0  0  0  0  0
   -4.1484   -0.7382    2.1203 H   0  0  0  0  0  0  0  0  0  0  0  0
    0.8539    5.1686    2.1731 H   0  0  0  0  0  0  0  0  0  0  0  0
   -0.7594    5.1340    1.4231 H   0  0  0  0  0  0  0  0  0  0  0  0
    0.4209    6.3503    0.9180 H   0  0  0  0  0  0  0  0  0  0  0  0
  1  2  1  0
  2  3  2  0
  3  4  1  0
  4  5  2  3
  5  6  1  0
  6  7  2  0
  7  8  1  0
  8  9  2  0
  9 10  1  0
  9 11  1  0
 11 12  2  0
  4 13  1  0
 13 14  1  0
 14 15  2  3
 15 16  1  0
 16 17  1  0
 17 18  1  0
 18 19  1  0
 18 20  1  0
 14 21  1  0
 21 22  2  0
 22 23  1  0
 23 24  1  0
 23  1  1  0
 22  3  1  0
 12  6  1  0
  1 25  1  0
  2 26  1  0
  7 27  1  0
  8 28  1  0
 11 29  1  0
 12 30  1  0
 13 31  1  0
 16 32  1  0
 16 33  1  0
 17 34  1  0
 17 35  1  0
 18 36  1  0
 19 37  1  0
 19 38  1  0
 19 39  1  0
 20 40  1  0
 20 41  1  0
 20 42  1  0
 24 43  1  0
 24 44  1  0
 24 45  1  0
M  END
>  <ScrubInfo>  (8) 
{"isomerGroup": 0, "isomerId": 7, "confId": 0, "nr_conformers:": 1, "nr_isomers:": 9}

$$$$
_i8
     RDKit          3D

 45 47  0  0  0  0  0  0  0  0999 V2000
   -0.2936    2.1387    0.0947 N   0  0  0  0  0  0  0  0  0  0  0  0
   -0.1780    0.7767    0.3323 C   0  0  0  0  0  0  0  0  0  0  0  0
   -1.0942   -0.0390    0.7322 N   0  0  0  0  0  0  0  0  0  0  0  0
   -2.4351    0.4826    0.9730 C   0  0  0  0  0  0  0  0  0  0  0  0
   -3.3513   -0.6645    1.4064 C   0  0  0  0  0  0  0  0  0  0  0  0
   -3.5204   -1.7909    0.3669 C   0  0  0  0  0  0  0  0  0  0  0  0
   -4.1320   -1.2916   -0.9427 C   0  0  0  0  0  0  0  0  0  0  0  0
   -4.3914   -2.9061    0.9517 C   0  0  0  0  0  0  0  0  0  0  0  0
    1.0882    0.2765    0.1001 N   0  0  0  0  0  0  0  0  0  0  0  0
    2.2454    0.8983   -0.3246 C   0  0  0  0  0  0  0  0  0  0  0  0
    3.4319    0.4365   -0.5444 N   0  0  0  0  0  0  0  0  0  0  0  0
    3.6557   -0.9283   -0.3357 C   0  0  0  0  0  0  0  0  0  0  0  0
    4.0861   -1.3886    0.9134 C   0  0  0  0  0  0  0  0  0  0  0  0
    4.3140   -2.7499    1.1218 C   0  0  0  0  0  0  0  0  0  0  0  0
    4.1202   -3.6435    0.0746 C   0  0  0  0  0  0  0  0  0  0  0  0
    4.3387   -4.9496    0.2732 F   0  0  0  0  0  0  0  0  0  0  0  0
    3.7073   -3.2010   -1.1771 C   0  0  0  0  0  0  0  0  0  0  0  0
    3.4802   -1.8392   -1.3830 C   0  0  0  0  0  0  0  0  0  0  0  0
    2.0185    2.3074   -0.5416 C   0  0  0  0  0  0  0  0  0  0  0  0
    2.8102    3.3879   -0.9565 C   0  0  0  0  0  0  0  0  0  0  0  0
    2.1191    4.5373   -0.9998 N   0  0  0  0  0  0  0  0  0  0  0  0
    0.8704    4.1811   -0.6113 N   0  0  0  0  0  0  0  0  0  0  0  0
   -0.1512    5.1950   -0.5423 C   0  0  0  0  0  0  0  0  0  0  0  0
    0.7762    2.8526   -0.3256 C   0  0  0  0  0  0  0  0  0  0  0  0
   -1.1986    2.5589    0.2551 H   0  0  0  0  0  0  0  0  0  0  0  0
   -2.4082    1.2239    1.7809 H   0  0  0  0  0  0  0  0  0  0  0  0
   -2.8377    0.9717    0.0795 H   0  0  0  0  0  0  0  0  0  0  0  0
   -2.9526   -1.0972    2.3335 H   0  0  0  0  0  0  0  0  0  0  0  0
   -4.3355   -0.2471    1.6545 H   0  0  0  0  0  0  0  0  0  0  0  0
   -2.5374   -2.2230    0.1425 H   0  0  0  0  0  0  0  0  0  0  0  0
   -5.0883   -0.7874   -0.7677 H   0  0  0  0  0  0  0  0  0  0  0  0
   -4.3109   -2.1254   -1.6304 H   0  0  0  0  0  0  0  0  0  0  0  0
   -3.4639   -0.5911   -1.4528 H   0  0  0  0  0  0  0  0  0  0  0  0
   -5.3968   -2.5424    1.1898 H   0  0  0  0  0  0  0  0  0  0  0  0
   -3.9481   -3.3049    1.8704 H   0  0  0  0  0  0  0  0  0  0  0  0
   -4.4900   -3.7353    0.2431 H   0  0  0  0  0  0  0  0  0  0  0  0
    1.1550   -0.7151    0.2775 H   0  0  0  0  0  0  0  0  0  0  0  0
    4.2486   -0.6809    1.7223 H   0  0  0  0  0  0  0  0  0  0  0  0
    4.6469   -3.1154    2.0878 H   0  0  0  0  0  0  0  0  0  0  0  0
    3.5725   -3.9144   -1.9837 H   0  0  0  0  0  0  0  0  0  0  0  0
    3.1710   -1.4825   -2.3621 H   0  0  0  0  0  0  0  0  0  0  0  0
    3.8584    3.3882   -1.2272 H   0  0  0  0  0  0  0  0  0  0  0  0
   -1.1285    4.7307   -0.3962 H   0  0  0  0  0  0  0  0  0  0  0  0
   -0.1500    5.7551   -1.4810 H   0  0  0  0  0  0  0  0  0  0  0  0
    0.0793    5.8555    0.2972 H   0  0  0  0  0  0  0  0  0  0  0  0
  1  2  1  0
  2  3  2  3
  3  4  1  0
  4  5  1  0
  5  6  1  0
  6  7  1  0
  6  8  1  0
  2  9  1  0
  9 10  1  0
 10 11  2  3
 11 12  1  0
 12 13  2  0
 13 14  1  0
 14 15  2  0
 15 16  1  0
 15 17  1  0
 17 18  2  0
 10 19  1  0
 19 20  1  0
 20 21  2  0
 21 22  1  0
 22 23  1  0
 22 24  1  0
 24  1  1  0
 18 12  1  0
 24 19  2  0
  1 25  1  0
  4 26  1  0
  4 27  1  0
  5 28  1  0
  5 29  1  0
  6 30  1  0
  7 31  1  0
  7 32  1  0
  7 33  1  0
  8 34  1  0
  8 35  1  0
  8 36  1  0
  9 37  1  0
 13 38  1  0
 14 39  1  0
 17 40  1  0
 18 41  1  0
 20 42  1  0
 23 43  1  0
 23 44  1  0
 23 45  1  0
M  END
>  <ScrubInfo>  (9) 
{"isomerGroup": 0, "isomerId": 8, "confId": 0, "nr_conformers:": 1, "nr_isomers:": 9}

$$$$
