REMARK SMILES CC(C)CCNc1nc(Nc2ccc(F)cc2)c2cnn(C)c2n1
REMARK SMILES IDX 6 1 5 3 4 4 2 5 1 6 3 7 7 8 8 9 24 10 9 11 23 12 18 13 21 14
REMARK SMILES IDX 19 15 20 16 22 17 10 18 11 20 12 21 17 22 13 23 16 24 14 25
REMARK SMILES IDX 15 26
REMARK H PARENT 6 2 10 19
ROOT
ATOM      1  N   UNL     1      -0.798   0.573  -1.128  1.00  0.00    -0.354 N 
ATOM      2  H   UNL     1      -0.192   0.419  -1.927  1.00  0.00     0.163 HD
ENDROOT
BRANCH   1   3
ATOM      3  C   UNL     1      -2.127  -0.006  -1.247  1.00  0.00     0.116 C 
BRANCH   3   4
ATOM      4  C   UNL     1      -3.175   0.920  -0.622  1.00  0.00     0.024 C 
BRANCH   4   5
ATOM      5  C   UNL     1      -4.590   0.312  -0.596  1.00  0.00    -0.016 C 
ATOM      6  C   UNL     1      -5.138   0.048  -1.999  1.00  0.00     0.007 C 
ATOM      7  C   UNL     1      -5.541   1.240   0.163  1.00  0.00     0.007 C 
ENDBRANCH   4   5
ENDBRANCH   3   4
ENDBRANCH   1   3
BRANCH   1   8
ATOM      8  C   UNL     1      -0.053   0.160  -0.029  1.00  0.00     0.226 A 
ATOM      9  N   UNL     1       1.267   0.055  -0.264  1.00  0.00    -0.195 NA
ATOM     10  N   UNL     1      -0.660  -0.102   1.135  1.00  0.00    -0.193 NA
ATOM     11  C   UNL     1       2.126  -0.330   0.718  1.00  0.00     0.147 A 
ATOM     12  C   UNL     1       0.196  -0.482   2.093  1.00  0.00     0.165 A 
ATOM     13  C   UNL     1       1.564  -0.621   1.967  1.00  0.00     0.082 A 
ATOM     14  N   UNL     1      -0.102  -0.812   3.386  1.00  0.00    -0.250 N 
ATOM     15  C   UNL     1       1.989  -1.043   3.244  1.00  0.00     0.149 A 
ATOM     16  N   UNL     1       0.982  -1.168   4.116  1.00  0.00    -0.179 NA
ATOM     17  C   UNL     1      -1.405  -0.811   4.003  1.00  0.00     0.176 C 
BRANCH  11  18
ATOM     18  N   UNL     1       3.505  -0.462   0.488  1.00  0.00    -0.339 N 
ATOM     19  H   UNL     1       4.016  -0.819   1.282  1.00  0.00     0.168 HD
BRANCH  18  20
ATOM     20  C   UNL     1       4.316  -0.119  -0.608  1.00  0.00     0.040 A 
ATOM     21  C   UNL     1       3.868   0.622  -1.708  1.00  0.00     0.029 A 
ATOM     22  C   UNL     1       5.643  -0.587  -0.628  1.00  0.00     0.029 A 
ATOM     23  C   UNL     1       4.717   0.904  -2.785  1.00  0.00     0.041 A 
ATOM     24  C   UNL     1       6.495  -0.309  -1.701  1.00  0.00     0.041 A 
ATOM     25  C   UNL     1       6.022   0.436  -2.771  1.00  0.00     0.123 A 
ATOM     26  F   UNL     1       6.834   0.705  -3.801  1.00  0.00    -0.207 F 
ENDBRANCH  18  20
ENDBRANCH  11  18
ENDBRANCH   1   8
TORSDOF 6
