REMARK SMILES Cc1ccc(CNc2nc(NCCO)nc3c2cnn3C)cc1
REMARK SMILES IDX 8 1 9 2 10 3 15 4 16 5 17 6 18 7 19 8 20 9 21 10 7 11 6 13
REMARK SMILES IDX 5 14 2 15 3 16 23 17 4 18 22 19 1 20 11 21 12 23 13 24 14 25
REMARK H PARENT 7 12 11 22 14 26
ROOT
ATOM      1  C   UNL     1       0.847   0.904   0.074  1.00  0.00     0.143 A 
ATOM      2  N   UNL     1       1.746  -0.089   0.294  1.00  0.00    -0.195 NA
ATOM      3  C   UNL     1       3.014   0.198   0.643  1.00  0.00     0.226 A 
ATOM      4  N   UNL     1       3.520   1.426   0.811  1.00  0.00    -0.193 NA
ATOM      5  C   UNL     1       2.618   2.393   0.586  1.00  0.00     0.165 A 
ATOM      6  C   UNL     1       1.298   2.218   0.220  1.00  0.00     0.082 A 
ATOM      7  C   UNL     1       0.791   3.527   0.095  1.00  0.00     0.149 A 
ATOM      8  N   UNL     1       1.702   4.467   0.373  1.00  0.00    -0.179 NA
ATOM      9  N   UNL     1       2.809   3.746   0.667  1.00  0.00    -0.250 N 
ATOM     10  C   UNL     1       4.027   4.430   1.020  1.00  0.00     0.176 C 
ENDROOT
BRANCH   1  11
ATOM     11  N   UNL     1      -0.462   0.604  -0.296  1.00  0.00    -0.365 N 
ATOM     12  H   UNL     1      -1.125   1.329  -0.052  1.00  0.00     0.162 HD
BRANCH  11  13
ATOM     13  C   UNL     1      -0.909  -0.742   0.018  1.00  0.00     0.150 C 
BRANCH  13  14
ATOM     14  C   UNL     1      -2.380  -0.857  -0.307  1.00  0.00    -0.029 A 
ATOM     15  C   UNL     1      -5.125  -1.021  -0.931  1.00  0.00    -0.051 A 
ATOM     16  C   UNL     1      -4.164  -1.034  -1.948  1.00  0.00     0.004 A 
ATOM     17  C   UNL     1      -4.703  -0.940   0.401  1.00  0.00     0.004 A 
ATOM     18  C   UNL     1      -2.805  -0.945  -1.640  1.00  0.00     0.006 A 
ATOM     19  C   UNL     1      -3.343  -0.850   0.711  1.00  0.00     0.006 A 
ATOM     20  C   UNL     1      -6.582  -1.151  -1.260  1.00  0.00     0.044 C 
ENDBRANCH  13  14
ENDBRANCH  11  13
ENDBRANCH   1  11
BRANCH   3  21
ATOM     21  N   UNL     1       3.917  -0.836   0.870  1.00  0.00    -0.352 N 
ATOM     22  H   UNL     1       4.833  -0.401   0.826  1.00  0.00     0.163 HD
BRANCH  21  23
ATOM     23  C   UNL     1       3.765  -1.996   0.001  1.00  0.00     0.144 C 
BRANCH  23  24
ATOM     24  C   UNL     1       2.804  -3.033   0.588  1.00  0.00     0.177 C 
BRANCH  24  25
ATOM     25  O   UNL     1       2.842  -4.228  -0.192  1.00  0.00    -0.395 OA
ATOM     26  H   UNL     1       2.205  -4.842   0.212  1.00  0.00     0.210 HD
ENDBRANCH  24  25
ENDBRANCH  23  24
ENDBRANCH  21  23
ENDBRANCH   3  21
TORSDOF 7
