_i0
     RDKit          3D

 43 45  0  0  0  0  0  0  0  0999 V2000
   -6.5821   -1.1510   -1.2602 C   0  0  0  0  0  0  0  0  0  0  0  0
   -5.1245   -1.0211   -0.9309 C   0  0  0  0  0  0  0  0  0  0  0  0
   -4.1644   -1.0340   -1.9485 C   0  0  0  0  0  0  0  0  0  0  0  0
   -2.8052   -0.9448   -1.6402 C   0  0  0  0  0  0  0  0  0  0  0  0
   -2.3803   -0.8573   -0.3074 C   0  0  0  0  0  0  0  0  0  0  0  0
   -0.9091   -0.7422    0.0178 C   0  0  0  0  0  0  0  0  0  0  0  0
   -0.4619    0.6036   -0.2956 N   0  0  0  0  0  0  0  0  0  0  0  0
    0.8472    0.9038    0.0744 C   0  0  0  0  0  0  0  0  0  0  0  0
    1.7455   -0.0894    0.2937 N   0  0  0  0  0  0  0  0  0  0  0  0
    3.0142    0.1975    0.6430 C   0  0  0  0  0  0  0  0  0  0  0  0
    3.9173   -0.8360    0.8696 N   0  0  0  0  0  0  0  0  0  0  0  0
    3.7650   -1.9955    0.0006 C   0  0  0  0  0  0  0  0  0  0  0  0
    2.8042   -3.0328    0.5878 C   0  0  0  0  0  0  0  0  0  0  0  0
    2.8420   -4.2275   -0.1918 O   0  0  0  0  0  0  0  0  0  0  0  0
    3.5199    1.4261    0.8106 N   0  0  0  0  0  0  0  0  0  0  0  0
    2.6181    2.3932    0.5855 C   0  0  0  0  0  0  0  0  0  0  0  0
    1.2983    2.2179    0.2201 C   0  0  0  0  0  0  0  0  0  0  0  0
    0.7908    3.5271    0.0949 C   0  0  0  0  0  0  0  0  0  0  0  0
    1.7015    4.4674    0.3731 N   0  0  0  0  0  0  0  0  0  0  0  0
    2.8089    3.7457    0.6670 N   0  0  0  0  0  0  0  0  0  0  0  0
    4.0273    4.4297    1.0198 C   0  0  0  0  0  0  0  0  0  0  0  0
   -3.3431   -0.8501    0.7105 C   0  0  0  0  0  0  0  0  0  0  0  0
   -4.7027   -0.9398    0.4010 C   0  0  0  0  0  0  0  0  0  0  0  0
   -6.8041   -0.7021   -2.2341 H   0  0  0  0  0  0  0  0  0  0  0  0
   -7.1981   -0.6340   -0.5170 H   0  0  0  0  0  0  0  0  0  0  0  0
   -6.8676   -2.2071   -1.2838 H   0  0  0  0  0  0  0  0  0  0  0  0
   -4.4681   -1.1096   -2.9903 H   0  0  0  0  0  0  0  0  0  0  0  0
   -2.0726   -0.9399   -2.4453 H   0  0  0  0  0  0  0  0  0  0  0  0
   -0.3583   -1.4891   -0.5683 H   0  0  0  0  0  0  0  0  0  0  0  0
   -0.7495   -0.9719    1.0793 H   0  0  0  0  0  0  0  0  0  0  0  0
   -1.1255    1.3293   -0.0517 H   0  0  0  0  0  0  0  0  0  0  0  0
    4.8330   -0.4005    0.8258 H   0  0  0  0  0  0  0  0  0  0  0  0
    3.4701   -1.7211   -1.0210 H   0  0  0  0  0  0  0  0  0  0  0  0
    4.7494   -2.4687   -0.1068 H   0  0  0  0  0  0  0  0  0  0  0  0
    3.0930   -3.2859    1.6136 H   0  0  0  0  0  0  0  0  0  0  0  0
    1.7738   -2.6672    0.6019 H   0  0  0  0  0  0  0  0  0  0  0  0
    2.2050   -4.8418    0.2120 H   0  0  0  0  0  0  0  0  0  0  0  0
   -0.2072    3.8352   -0.1879 H   0  0  0  0  0  0  0  0  0  0  0  0
    4.3233    5.0604    0.1777 H   0  0  0  0  0  0  0  0  0  0  0  0
    4.8156    3.7049    1.2346 H   0  0  0  0  0  0  0  0  0  0  0  0
    3.8347    5.0404    1.9055 H   0  0  0  0  0  0  0  0  0  0  0  0
   -3.0417   -0.7779    1.7532 H   0  0  0  0  0  0  0  0  0  0  0  0
   -5.4322   -0.9437    1.2079 H   0  0  0  0  0  0  0  0  0  0  0  0
  1  2  1  0
  2  3  2  0
  3  4  1  0
  4  5  2  0
  5  6  1  0
  6  7  1  0
  7  8  1  0
  8  9  2  0
  9 10  1  0
 10 11  1  0
 11 12  1  0
 12 13  1  0
 13 14  1  0
 10 15  2  0
 15 16  1  0
 16 17  2  0
 17 18  1  0
 18 19  2  0
 19 20  1  0
 20 21  1  0
  5 22  1  0
 22 23  2  0
 23  2  1  0
 17  8  1  0
 20 16  1  0
  1 24  1  0
  1 25  1  0
  1 26  1  0
  3 27  1  0
  4 28  1  0
  6 29  1  0
  6 30  1  0
  7 31  1  0
 11 32  1  0
 12 33  1  0
 12 34  1  0
 13 35  1  0
 13 36  1  0
 14 37  1  0
 18 38  1  0
 21 39  1  0
 21 40  1  0
 21 41  1  0
 22 42  1  0
 23 43  1  0
M  END
>  <ScrubInfo>  (1) 
{"isomerGroup": 0, "isomerId": 0, "confId": 0, "nr_conformers:": 1, "nr_isomers:": 9}

$$$$
_i1
     RDKit          3D

 43 45  0  0  0  0  0  0  0  0999 V2000
   -1.1834    1.4646    0.8982 N   0  0  0  0  0  0  0  0  0  0  0  0
   -2.3934    1.1989    0.3036 C   0  0  0  0  0  0  0  0  0  0  0  0
   -3.2216    2.2911    0.2795 N   0  0  0  0  0  0  0  0  0  0  0  0
   -4.5098    2.2474   -0.4063 C   0  0  0  0  0  0  0  0  0  0  0  0
   -5.5321    1.3714    0.3244 C   0  0  0  0  0  0  0  0  0  0  0  0
   -6.8550    1.6630   -0.1268 O   0  0  0  0  0  0  0  0  0  0  0  0
   -2.7219    0.0285   -0.1735 N   0  0  0  0  0  0  0  0  0  0  0  0
   -1.7135   -0.8767   -0.0331 C   0  0  0  0  0  0  0  0  0  0  0  0
   -0.4676   -0.7018    0.5531 C   0  0  0  0  0  0  0  0  0  0  0  0
    0.1679   -1.9433    0.3772 C   0  0  0  0  0  0  0  0  0  0  0  0
   -0.6080   -2.8467   -0.2352 N   0  0  0  0  0  0  0  0  0  0  0  0
   -1.7516   -2.1685   -0.4761 N   0  0  0  0  0  0  0  0  0  0  0  0
   -2.8378   -2.8289   -1.1554 C   0  0  0  0  0  0  0  0  0  0  0  0
   -0.1479    0.5880    1.1289 C   0  0  0  0  0  0  0  0  0  0  0  0
    0.8941    0.9587    1.7826 N   0  0  0  0  0  0  0  0  0  0  0  0
    2.0052    0.0743    2.1053 C   0  0  0  0  0  0  0  0  0  0  0  0
    3.0466   -0.0616    1.0187 C   0  0  0  0  0  0  0  0  0  0  0  0
    3.8887   -1.1828    1.0020 C   0  0  0  0  0  0  0  0  0  0  0  0
    4.8751   -1.3217    0.0220 C   0  0  0  0  0  0  0  0  0  0  0  0
    5.0434   -0.3396   -0.9590 C   0  0  0  0  0  0  0  0  0  0  0  0
    6.1220   -0.4732   -1.9922 C   0  0  0  0  0  0  0  0  0  0  0  0
    4.2312    0.7983   -0.9243 C   0  0  0  0  0  0  0  0  0  0  0  0
    3.2446    0.9363    0.0558 C   0  0  0  0  0  0  0  0  0  0  0  0
   -1.0790    2.3443    1.3759 H   0  0  0  0  0  0  0  0  0  0  0  0
   -2.7320    3.1613    0.1041 H   0  0  0  0  0  0  0  0  0  0  0  0
   -4.3911    1.9159   -1.4448 H   0  0  0  0  0  0  0  0  0  0  0  0
   -4.8990    3.2712   -0.4638 H   0  0  0  0  0  0  0  0  0  0  0  0
   -5.3449    0.3099    0.1393 H   0  0  0  0  0  0  0  0  0  0  0  0
   -5.4973    1.5329    1.4074 H   0  0  0  0  0  0  0  0  0  0  0  0
   -7.1219    2.5035    0.2834 H   0  0  0  0  0  0  0  0  0  0  0  0
    1.1629   -2.2534    0.6588 H   0  0  0  0  0  0  0  0  0  0  0  0
   -3.0077   -3.7982   -0.6794 H   0  0  0  0  0  0  0  0  0  0  0  0
   -2.5540   -2.9625   -2.2022 H   0  0  0  0  0  0  0  0  0  0  0  0
   -3.7455   -2.2252   -1.0866 H   0  0  0  0  0  0  0  0  0  0  0  0
    1.6439   -0.9058    2.4351 H   0  0  0  0  0  0  0  0  0  0  0  0
    2.5132    0.4990    2.9806 H   0  0  0  0  0  0  0  0  0  0  0  0
    3.7820   -1.9610    1.7548 H   0  0  0  0  0  0  0  0  0  0  0  0
    5.5122   -2.2032    0.0308 H   0  0  0  0  0  0  0  0  0  0  0  0
    5.8347    0.0259   -2.9236 H   0  0  0  0  0  0  0  0  0  0  0  0
    7.0508   -0.0271   -1.6235 H   0  0  0  0  0  0  0  0  0  0  0  0
    6.3053   -1.5259   -2.2317 H   0  0  0  0  0  0  0  0  0  0  0  0
    4.3611    1.5884   -1.6601 H   0  0  0  0  0  0  0  0  0  0  0  0
    2.6310    1.8342    0.0638 H   0  0  0  0  0  0  0  0  0  0  0  0
  1  2  1  0
  2  3  1  0
  3  4  1  0
  4  5  1  0
  5  6  1  0
  2  7  2  0
  7  8  1  0
  8  9  2  0
  9 10  1  0
 10 11  2  0
 11 12  1  0
 12 13  1  0
  9 14  1  0
 14 15  2  3
 15 16  1  0
 16 17  1  0
 17 18  2  0
 18 19  1  0
 19 20  2  0
 20 21  1  0
 20 22  1  0
 22 23  2  0
 14  1  1  0
 23 17  1  0
 12  8  1  0
  1 24  1  0
  3 25  1  0
  4 26  1  0
  4 27  1  0
  5 28  1  0
  5 29  1  0
  6 30  1  0
 10 31  1  0
 13 32  1  0
 13 33  1  0
 13 34  1  0
 16 35  1  0
 16 36  1  0
 18 37  1  0
 19 38  1  0
 21 39  1  0
 21 40  1  0
 21 41  1  0
 22 42  1  0
 23 43  1  0
M  END
>  <ScrubInfo>  (2) 
{"isomerGroup": 0, "isomerId": 1, "confId": 0, "nr_conformers:": 1, "nr_isomers:": 9}

$$$$
_i2
     RDKit          3D

 43 45  0  0  0  0  0  0  0  0999 V2000
   -1.6827    0.2197   -0.2991 N   0  0  0  0  0  0  0  0  0  0  0  0
   -0.7479   -0.7223    0.0882 C   0  0  0  0  0  0  0  0  0  0  0  0
    0.5882   -0.3828    0.0064 N   0  0  0  0  0  0  0  0  0  0  0  0
    1.7172   -1.0819    0.5926 C   0  0  0  0  0  0  0  0  0  0  0  0
    2.9651   -0.2534    0.4129 C   0  0  0  0  0  0  0  0  0  0  0  0
    3.4453    0.5511    1.4548 C   0  0  0  0  0  0  0  0  0  0  0  0
    4.5870    1.3360    1.2757 C   0  0  0  0  0  0  0  0  0  0  0  0
    5.2575    1.3451    0.0475 C   0  0  0  0  0  0  0  0  0  0  0  0
    6.5027    2.1622   -0.1326 C   0  0  0  0  0  0  0  0  0  0  0  0
    4.7814    0.5401   -0.9930 C   0  0  0  0  0  0  0  0  0  0  0  0
    3.6402   -0.2453   -0.8154 C   0  0  0  0  0  0  0  0  0  0  0  0
   -1.2510   -1.8953    0.4969 C   0  0  0  0  0  0  0  0  0  0  0  0
   -0.7844   -3.2085    0.9637 C   0  0  0  0  0  0  0  0  0  0  0  0
   -1.7553   -4.0423    1.2391 N   0  0  0  0  0  0  0  0  0  0  0  0
   -2.9352   -3.3211    1.0165 N   0  0  0  0  0  0  0  0  0  0  0  0
   -4.1867   -4.0340    0.9280 C   0  0  0  0  0  0  0  0  0  0  0  0
   -2.7267   -2.0463    0.5148 C   0  0  0  0  0  0  0  0  0  0  0  0
   -3.5814   -1.1630    0.1284 N   0  0  0  0  0  0  0  0  0  0  0  0
   -3.0455    0.0204   -0.3226 C   0  0  0  0  0  0  0  0  0  0  0  0
   -3.9336    0.8492   -0.7430 N   0  0  0  0  0  0  0  0  0  0  0  0
   -3.5122    2.1477   -1.2469 C   0  0  0  0  0  0  0  0  0  0  0  0
   -4.7458    3.0060   -1.5198 C   0  0  0  0  0  0  0  0  0  0  0  0
   -4.3660    4.2230   -2.1574 O   0  0  0  0  0  0  0  0  0  0  0  0
   -1.3179    1.0567   -0.7203 H   0  0  0  0  0  0  0  0  0  0  0  0
    0.7400    0.6213   -0.0497 H   0  0  0  0  0  0  0  0  0  0  0  0
    1.5433   -1.2665    1.6594 H   0  0  0  0  0  0  0  0  0  0  0  0
    1.8611   -2.0535    0.1066 H   0  0  0  0  0  0  0  0  0  0  0  0
    2.9359    0.5720    2.4160 H   0  0  0  0  0  0  0  0  0  0  0  0
    4.9494    1.9440    2.1021 H   0  0  0  0  0  0  0  0  0  0  0  0
    7.3806    1.5731    0.1498 H   0  0  0  0  0  0  0  0  0  0  0  0
    6.6117    2.4839   -1.1737 H   0  0  0  0  0  0  0  0  0  0  0  0
    6.4692    3.0663    0.4844 H   0  0  0  0  0  0  0  0  0  0  0  0
    5.2951    0.5221   -1.9519 H   0  0  0  0  0  0  0  0  0  0  0  0
    3.2776   -0.8515   -1.6432 H   0  0  0  0  0  0  0  0  0  0  0  0
    0.2821   -3.4444    1.0437 H   0  0  0  0  0  0  0  0  0  0  0  0
   -4.3342   -4.4204   -0.0853 H   0  0  0  0  0  0  0  0  0  0  0  0
   -4.2026   -4.8774    1.6259 H   0  0  0  0  0  0  0  0  0  0  0  0
   -5.0278   -3.3793    1.1778 H   0  0  0  0  0  0  0  0  0  0  0  0
   -2.9397    2.0332   -2.1754 H   0  0  0  0  0  0  0  0  0  0  0  0
   -2.8721    2.6746   -0.5285 H   0  0  0  0  0  0  0  0  0  0  0  0
   -5.2545    3.2542   -0.5826 H   0  0  0  0  0  0  0  0  0  0  0  0
   -5.4643    2.4844   -2.1616 H   0  0  0  0  0  0  0  0  0  0  0  0
   -4.1628    4.0032   -3.0828 H   0  0  0  0  0  0  0  0  0  0  0  0
  1  2  1  0
  2  3  1  0
  3  4  1  0
  4  5  1  0
  5  6  2  0
  6  7  1  0
  7  8  2  0
  8  9  1  0
  8 10  1  0
 10 11  2  0
  2 12  2  0
 12 13  1  0
 13 14  2  0
 14 15  1  0
 15 16  1  0
 15 17  1  0
 17 18  2  0
 18 19  1  0
 19 20  2  3
 20 21  1  0
 21 22  1  0
 22 23  1  0
 19  1  1  0
 11  5  1  0
 17 12  1  0
  1 24  1  0
  3 25  1  0
  4 26  1  0
  4 27  1  0
  6 28  1  0
  7 29  1  0
  9 30  1  0
  9 31  1  0
  9 32  1  0
 10 33  1  0
 11 34  1  0
 13 35  1  0
 16 36  1  0
 16 37  1  0
 16 38  1  0
 21 39  1  0
 21 40  1  0
 22 41  1  0
 22 42  1  0
 23 43  1  0
M  END
>  <ScrubInfo>  (3) 
{"isomerGroup": 0, "isomerId": 2, "confId": 0, "nr_conformers:": 1, "nr_isomers:": 9}

$$$$
_i3
     RDKit          3D

 43 45  0  0  0  0  0  0  0  0999 V2000
   -3.0557    0.2455   -0.5623 N   0  0  0  0  0  0  0  0  0  0  0  0
   -2.3520   -0.7199    0.1242 C   0  0  0  0  0  0  0  0  0  0  0  0
   -2.8465   -1.9151    0.1720 N   0  0  0  0  0  0  0  0  0  0  0  0
   -2.0787   -2.9488    0.8867 C   0  0  0  0  0  0  0  0  0  0  0  0
   -2.4566   -2.9379    2.3675 C   0  0  0  0  0  0  0  0  0  0  0  0
   -3.8660   -3.1222    2.5041 O   0  0  0  0  0  0  0  0  0  0  0  0
   -1.1526   -0.4365    0.7576 N   0  0  0  0  0  0  0  0  0  0  0  0
   -0.6681    0.7716    0.7037 C   0  0  0  0  0  0  0  0  0  0  0  0
    0.5054    1.1831    1.2779 N   0  0  0  0  0  0  0  0  0  0  0  0
    1.4958    0.2368    1.7515 C   0  0  0  0  0  0  0  0  0  0  0  0
    2.5215   -0.0129    0.6739 C   0  0  0  0  0  0  0  0  0  0  0  0
    3.7205    0.7120    0.6437 C   0  0  0  0  0  0  0  0  0  0  0  0
    4.6557    0.4937   -0.3712 C   0  0  0  0  0  0  0  0  0  0  0  0
    4.4112   -0.4544   -1.3708 C   0  0  0  0  0  0  0  0  0  0  0  0
    5.4001   -0.6635   -2.4792 C   0  0  0  0  0  0  0  0  0  0  0  0
    3.2046   -1.1622   -1.3556 C   0  0  0  0  0  0  0  0  0  0  0  0
    2.2695   -0.9458   -0.3412 C   0  0  0  0  0  0  0  0  0  0  0  0
   -1.3796    1.8160    0.0007 C   0  0  0  0  0  0  0  0  0  0  0  0
   -1.2259    3.1853   -0.2663 C   0  0  0  0  0  0  0  0  0  0  0  0
   -2.2330    3.6804   -1.0030 N   0  0  0  0  0  0  0  0  0  0  0  0
   -3.0454    2.6122   -1.2008 N   0  0  0  0  0  0  0  0  0  0  0  0
   -4.2560    2.7817   -1.9631 C   0  0  0  0  0  0  0  0  0  0  0  0
   -2.5597    1.4904   -0.6102 C   0  0  0  0  0  0  0  0  0  0  0  0
   -3.9150   -0.0722   -0.9893 H   0  0  0  0  0  0  0  0  0  0  0  0
   -0.9958   -2.8545    0.7490 H   0  0  0  0  0  0  0  0  0  0  0  0
   -2.3647   -3.9133    0.4511 H   0  0  0  0  0  0  0  0  0  0  0  0
   -1.9515   -3.7478    2.9015 H   0  0  0  0  0  0  0  0  0  0  0  0
   -2.1930   -1.9893    2.8447 H   0  0  0  0  0  0  0  0  0  0  0  0
   -4.2514   -2.6033    1.7708 H   0  0  0  0  0  0  0  0  0  0  0  0
    0.9167    2.0339    0.9152 H   0  0  0  0  0  0  0  0  0  0  0  0
    1.0485   -0.7085    2.0821 H   0  0  0  0  0  0  0  0  0  0  0  0
    1.9878    0.6579    2.6362 H   0  0  0  0  0  0  0  0  0  0  0  0
    3.9372    1.4530    1.4099 H   0  0  0  0  0  0  0  0  0  0  0  0
    5.5788    1.0694   -0.3770 H   0  0  0  0  0  0  0  0  0  0  0  0
    5.1831    0.0177   -3.3076 H   0  0  0  0  0  0  0  0  0  0  0  0
    5.3611   -1.6939   -2.8481 H   0  0  0  0  0  0  0  0  0  0  0  0
    6.4221   -0.4825   -2.1300 H   0  0  0  0  0  0  0  0  0  0  0  0
    2.9822   -1.8871   -2.1356 H   0  0  0  0  0  0  0  0  0  0  0  0
    1.3350   -1.5048   -0.3507 H   0  0  0  0  0  0  0  0  0  0  0  0
   -0.4323    3.8545    0.0375 H   0  0  0  0  0  0  0  0  0  0  0  0
   -3.9880    3.1403   -2.9602 H   0  0  0  0  0  0  0  0  0  0  0  0
   -4.8862    3.5126   -1.4502 H   0  0  0  0  0  0  0  0  0  0  0  0
   -4.7831    1.8287   -2.0425 H   0  0  0  0  0  0  0  0  0  0  0  0
  1  2  1  0
  2  3  2  3
  3  4  1  0
  4  5  1  0
  5  6  1  0
  2  7  1  0
  7  8  2  0
  8  9  1  0
  9 10  1  0
 10 11  1  0
 11 12  2  0
 12 13  1  0
 13 14  2  0
 14 15  1  0
 14 16  1  0
 16 17  2  0
  8 18  1  0
 18 19  1  0
 19 20  2  0
 20 21  1  0
 21 22  1  0
 21 23  1  0
 23  1  1  0
 17 11  1  0
 23 18  2  0
  1 24  1  0
  4 25  1  0
  4 26  1  0
  5 27  1  0
  5 28  1  0
  6 29  1  0
  9 30  1  0
 10 31  1  0
 10 32  1  0
 12 33  1  0
 13 34  1  0
 15 35  1  0
 15 36  1  0
 15 37  1  0
 16 38  1  0
 17 39  1  0
 19 40  1  0
 22 41  1  0
 22 42  1  0
 22 43  1  0
M  END
>  <ScrubInfo>  (4) 
{"isomerGroup": 0, "isomerId": 3, "confId": 0, "nr_conformers:": 1, "nr_isomers:": 9}

$$$$
_i4
     RDKit          3D

 43 45  0  0  0  0  0  0  0  0999 V2000
   -3.1647    0.7261   -0.3269 N   0  0  0  0  0  0  0  0  0  0  0  0
   -2.5718   -0.4743   -0.6301 C   0  0  0  0  0  0  0  0  0  0  0  0
   -3.4381   -1.4667   -0.9879 N   0  0  0  0  0  0  0  0  0  0  0  0
   -4.5281   -1.8770   -0.1027 C   0  0  0  0  0  0  0  0  0  0  0  0
   -5.2256   -3.1079   -0.6894 C   0  0  0  0  0  0  0  0  0  0  0  0
   -4.2993   -4.1894   -0.7731 O   0  0  0  0  0  0  0  0  0  0  0  0
   -1.2910   -0.7068   -0.6200 N   0  0  0  0  0  0  0  0  0  0  0  0
   -0.4053    0.2996   -0.2597 C   0  0  0  0  0  0  0  0  0  0  0  0
    0.8310   -0.0344   -0.2115 N   0  0  0  0  0  0  0  0  0  0  0  0
    1.8793    0.9006    0.1546 C   0  0  0  0  0  0  0  0  0  0  0  0
    3.2550    0.2665    0.1832 C   0  0  0  0  0  0  0  0  0  0  0  0
    4.2609    0.8205    0.9881 C   0  0  0  0  0  0  0  0  0  0  0  0
    5.5486    0.2767    0.9982 C   0  0  0  0  0  0  0  0  0  0  0  0
    5.8568   -0.8326    0.2040 C   0  0  0  0  0  0  0  0  0  0  0  0
    7.2457   -1.3973    0.1901 C   0  0  0  0  0  0  0  0  0  0  0  0
    4.8644   -1.3711   -0.6214 C   0  0  0  0  0  0  0  0  0  0  0  0
    3.5774   -0.8265   -0.6316 C   0  0  0  0  0  0  0  0  0  0  0  0
   -0.9815    1.6053    0.0147 C   0  0  0  0  0  0  0  0  0  0  0  0
   -0.5336    2.9004    0.3326 C   0  0  0  0  0  0  0  0  0  0  0  0
   -1.5354    3.7837    0.4668 N   0  0  0  0  0  0  0  0  0  0  0  0
   -2.6447    3.0482    0.2293 N   0  0  0  0  0  0  0  0  0  0  0  0
   -3.9348    3.6862    0.2894 C   0  0  0  0  0  0  0  0  0  0  0  0
   -2.3458    1.7509   -0.0369 C   0  0  0  0  0  0  0  0  0  0  0  0
   -4.1340    0.8329   -0.5905 H   0  0  0  0  0  0  0  0  0  0  0  0
   -2.8857   -2.2992   -1.2151 H   0  0  0  0  0  0  0  0  0  0  0  0
   -5.2547   -1.0663    0.0113 H   0  0  0  0  0  0  0  0  0  0  0  0
   -4.1146   -2.1230    0.8821 H   0  0  0  0  0  0  0  0  0  0  0  0
   -6.0583   -3.4136   -0.0488 H   0  0  0  0  0  0  0  0  0  0  0  0
   -5.6040   -2.8984   -1.6954 H   0  0  0  0  0  0  0  0  0  0  0  0
   -4.7610   -4.9323   -1.1994 H   0  0  0  0  0  0  0  0  0  0  0  0
    1.6771    1.3026    1.1546 H   0  0  0  0  0  0  0  0  0  0  0  0
    1.9265    1.7228   -0.5689 H   0  0  0  0  0  0  0  0  0  0  0  0
    4.0481    1.6832    1.6150 H   0  0  0  0  0  0  0  0  0  0  0  0
    6.3098    0.7264    1.6314 H   0  0  0  0  0  0  0  0  0  0  0  0
    7.7310   -1.2649    1.1628 H   0  0  0  0  0  0  0  0  0  0  0  0
    7.2285   -2.4720   -0.0200 H   0  0  0  0  0  0  0  0  0  0  0  0
    7.8457   -0.8965   -0.5759 H   0  0  0  0  0  0  0  0  0  0  0  0
    5.0824   -2.2209   -1.2638 H   0  0  0  0  0  0  0  0  0  0  0  0
    2.8196   -1.2645   -1.2789 H   0  0  0  0  0  0  0  0  0  0  0  0
    0.4750    3.2640    0.4708 H   0  0  0  0  0  0  0  0  0  0  0  0
   -4.7250    2.9343    0.2372 H   0  0  0  0  0  0  0  0  0  0  0  0
   -4.0160    4.3739   -0.5560 H   0  0  0  0  0  0  0  0  0  0  0  0
   -4.0101    4.2311    1.2341 H   0  0  0  0  0  0  0  0  0  0  0  0
  1  2  1  0
  2  3  1  0
  3  4  1  0
  4  5  1  0
  5  6  1  0
  2  7  2  0
  7  8  1  0
  8  9  2  3
  9 10  1  0
 10 11  1  0
 11 12  2  0
 12 13  1  0
 13 14  2  0
 14 15  1  0
 14 16  1  0
 16 17  2  0
  8 18  1  0
 18 19  1  0
 19 20  2  0
 20 21  1  0
 21 22  1  0
 21 23  1  0
 23  1  1  0
 17 11  1  0
 23 18  2  0
  1 24  1  0
  3 25  1  0
  4 26  1  0
  4 27  1  0
  5 28  1  0
  5 29  1  0
  6 30  1  0
 10 31  1  0
 10 32  1  0
 12 33  1  0
 13 34  1  0
 15 35  1  0
 15 36  1  0
 15 37  1  0
 16 38  1  0
 17 39  1  0
 19 40  1  0
 22 41  1  0
 22 42  1  0
 22 43  1  0
M  END
>  <ScrubInfo>  (5) 
{"isomerGroup": 0, "isomerId": 4, "confId": 0, "nr_conformers:": 1, "nr_isomers:": 9}

$$$$
_i5
     RDKit          3D

 43 45  0  0  0  0  0  0  0  0999 V2000
   -1.4369    3.9996    1.1154 N   0  0  0  0  0  0  0  0  0  0  0  0
   -0.4027    3.1095    0.8417 C   0  0  0  0  0  0  0  0  0  0  0  0
   -0.8336    1.8559    0.6523 C   0  0  0  0  0  0  0  0  0  0  0  0
   -0.2585    0.5745    0.3196 C   0  0  0  0  0  0  0  0  0  0  0  0
    1.0082    0.4051    0.1693 N   0  0  0  0  0  0  0  0  0  0  0  0
    1.4406   -0.9504   -0.1669 C   0  0  0  0  0  0  0  0  0  0  0  0
    2.9441   -1.0104   -0.3069 C   0  0  0  0  0  0  0  0  0  0  0  0
    3.7481   -1.3807    0.7782 C   0  0  0  0  0  0  0  0  0  0  0  0
    5.1388   -1.4232    0.6496 C   0  0  0  0  0  0  0  0  0  0  0  0
    5.7499   -1.0964   -0.5662 C   0  0  0  0  0  0  0  0  0  0  0  0
    7.2439   -1.1075   -0.6930 C   0  0  0  0  0  0  0  0  0  0  0  0
    4.9497   -0.6962   -1.6422 C   0  0  0  0  0  0  0  0  0  0  0  0
    3.5591   -0.6539   -1.5137 C   0  0  0  0  0  0  0  0  0  0  0  0
   -1.1709   -0.4342    0.1702 N   0  0  0  0  0  0  0  0  0  0  0  0
   -2.4483   -0.2519    0.3523 C   0  0  0  0  0  0  0  0  0  0  0  0
   -3.2437   -1.3428    0.1715 N   0  0  0  0  0  0  0  0  0  0  0  0
   -4.6639   -1.2538   -0.0975 C   0  0  0  0  0  0  0  0  0  0  0  0
   -5.2338   -2.6561   -0.3266 C   0  0  0  0  0  0  0  0  0  0  0  0
   -4.5825   -3.2955   -1.4265 O   0  0  0  0  0  0  0  0  0  0  0  0
   -3.0463    0.9330    0.7036 N   0  0  0  0  0  0  0  0  0  0  0  0
   -2.2804    1.9541    0.8733 C   0  0  0  0  0  0  0  0  0  0  0  0
   -2.6092    3.2576    1.2505 N   0  0  0  0  0  0  0  0  0  0  0  0
   -3.8695    3.8553    0.8567 C   0  0  0  0  0  0  0  0  0  0  0  0
   -1.2197    4.6400    1.8829 H   0  0  0  0  0  0  0  0  0  0  0  0
    0.6182    3.4637    0.8049 H   0  0  0  0  0  0  0  0  0  0  0  0
    0.9914   -1.2817   -1.1126 H   0  0  0  0  0  0  0  0  0  0  0  0
    1.1297   -1.6632    0.6082 H   0  0  0  0  0  0  0  0  0  0  0  0
    3.2922   -1.6307    1.7332 H   0  0  0  0  0  0  0  0  0  0  0  0
    5.7415   -1.7093    1.5082 H   0  0  0  0  0  0  0  0  0  0  0  0
    7.6504   -0.1300   -0.4161 H   0  0  0  0  0  0  0  0  0  0  0  0
    7.5471   -1.3394   -1.7194 H   0  0  0  0  0  0  0  0  0  0  0  0
    7.6853   -1.8714   -0.0442 H   0  0  0  0  0  0  0  0  0  0  0  0
    5.4032   -0.4096   -2.5879 H   0  0  0  0  0  0  0  0  0  0  0  0
    2.9528   -0.3321   -2.3570 H   0  0  0  0  0  0  0  0  0  0  0  0
   -2.7669   -2.1165   -0.2830 H   0  0  0  0  0  0  0  0  0  0  0  0
   -4.8203   -0.6483   -0.9976 H   0  0  0  0  0  0  0  0  0  0  0  0
   -5.1848   -0.7792    0.7407 H   0  0  0  0  0  0  0  0  0  0  0  0
   -6.3060   -2.6081   -0.5405 H   0  0  0  0  0  0  0  0  0  0  0  0
   -5.0855   -3.2849    0.5572 H   0  0  0  0  0  0  0  0  0  0  0  0
   -4.7148   -2.7379   -2.2129 H   0  0  0  0  0  0  0  0  0  0  0  0
   -4.7091    3.2309    1.1786 H   0  0  0  0  0  0  0  0  0  0  0  0
   -3.9199    3.9770   -0.2303 H   0  0  0  0  0  0  0  0  0  0  0  0
   -3.9868    4.8389    1.3228 H   0  0  0  0  0  0  0  0  0  0  0  0
  1  2  1  0
  2  3  2  0
  3  4  1  0
  4  5  2  3
  5  6  1  0
  6  7  1  0
  7  8  2  0
  8  9  1  0
  9 10  2  0
 10 11  1  0
 10 12  1  0
 12 13  2  0
  4 14  1  0
 14 15  2  0
 15 16  1  0
 16 17  1  0
 17 18  1  0
 18 19  1  0
 15 20  1  0
 20 21  2  0
 21 22  1  0
 22 23  1  0
 22  1  1  0
 21  3  1  0
 13  7  1  0
  1 24  1  0
  2 25  1  0
  6 26  1  0
  6 27  1  0
  8 28  1  0
  9 29  1  0
 11 30  1  0
 11 31  1  0
 11 32  1  0
 12 33  1  0
 13 34  1  0
 16 35  1  0
 17 36  1  0
 17 37  1  0
 18 38  1  0
 18 39  1  0
 19 40  1  0
 23 41  1  0
 23 42  1  0
 23 43  1  0
M  END
>  <ScrubInfo>  (6) 
{"isomerGroup": 0, "isomerId": 5, "confId": 0, "nr_conformers:": 1, "nr_isomers:": 9}

$$$$
_i6
     RDKit          3D

 43 45  0  0  0  0  0  0  0  0999 V2000
   -1.7367    3.7906   -0.3413 N   0  0  0  0  0  0  0  0  0  0  0  0
   -0.6827    2.8830   -0.3209 C   0  0  0  0  0  0  0  0  0  0  0  0
   -1.0788    1.6321   -0.0523 C   0  0  0  0  0  0  0  0  0  0  0  0
   -0.4919    0.3010    0.0724 C   0  0  0  0  0  0  0  0  0  0  0  0
    0.8635    0.1072   -0.0571 N   0  0  0  0  0  0  0  0  0  0  0  0
    1.4958   -1.1564    0.2625 C   0  0  0  0  0  0  0  0  0  0  0  0
    2.9807   -1.0397    0.0187 C   0  0  0  0  0  0  0  0  0  0  0  0
    3.8628   -0.7922    1.0789 C   0  0  0  0  0  0  0  0  0  0  0  0
    5.2333   -0.6574    0.8438 C   0  0  0  0  0  0  0  0  0  0  0  0
    5.7437   -0.7498   -0.4559 C   0  0  0  0  0  0  0  0  0  0  0  0
    7.2194   -0.6419   -0.7025 C   0  0  0  0  0  0  0  0  0  0  0  0
    4.8650   -1.0018   -1.5152 C   0  0  0  0  0  0  0  0  0  0  0  0
    3.4947   -1.1371   -1.2815 C   0  0  0  0  0  0  0  0  0  0  0  0
   -1.2936   -0.6976    0.3068 N   0  0  0  0  0  0  0  0  0  0  0  0
   -2.6468   -0.4663    0.4204 C   0  0  0  0  0  0  0  0  0  0  0  0
   -3.3388   -1.5400    0.5805 N   0  0  0  0  0  0  0  0  0  0  0  0
   -4.7928   -1.3897    0.7110 C   0  0  0  0  0  0  0  0  0  0  0  0
   -5.3848   -2.7828    0.9236 C   0  0  0  0  0  0  0  0  0  0  0  0
   -5.0015   -3.6349   -0.1550 O   0  0  0  0  0  0  0  0  0  0  0  0
   -3.2850    0.7536    0.3849 N   0  0  0  0  0  0  0  0  0  0  0  0
   -2.5337    1.7765    0.1666 C   0  0  0  0  0  0  0  0  0  0  0  0
   -2.8841    3.1250    0.0813 N   0  0  0  0  0  0  0  0  0  0  0  0
   -4.1704    3.5262   -0.4570 C   0  0  0  0  0  0  0  0  0  0  0  0
   -1.5287    4.6730    0.1320 H   0  0  0  0  0  0  0  0  0  0  0  0
    0.3188    3.2373   -0.5156 H   0  0  0  0  0  0  0  0  0  0  0  0
    1.4728    0.9142   -0.0014 H   0  0  0  0  0  0  0  0  0  0  0  0
    1.3076   -1.4218    1.3098 H   0  0  0  0  0  0  0  0  0  0  0  0
    1.0868   -1.9641   -0.3565 H   0  0  0  0  0  0  0  0  0  0  0  0
    3.4894   -0.7090    2.0975 H   0  0  0  0  0  0  0  0  0  0  0  0
    5.9017   -0.4804    1.6838 H   0  0  0  0  0  0  0  0  0  0  0  0
    7.4202   -0.2269   -1.6958 H   0  0  0  0  0  0  0  0  0  0  0  0
    7.6838   -1.6303   -0.6311 H   0  0  0  0  0  0  0  0  0  0  0  0
    7.6899    0.0242    0.0284 H   0  0  0  0  0  0  0  0  0  0  0  0
    5.2419   -1.0944   -2.5315 H   0  0  0  0  0  0  0  0  0  0  0  0
    2.8259   -1.3216   -2.1202 H   0  0  0  0  0  0  0  0  0  0  0  0
   -5.0576   -0.7530    1.5625 H   0  0  0  0  0  0  0  0  0  0  0  0
   -5.2065   -0.9662   -0.2121 H   0  0  0  0  0  0  0  0  0  0  0  0
   -6.4769   -2.7415    0.9633 H   0  0  0  0  0  0  0  0  0  0  0  0
   -5.0160   -3.2282    1.8532 H   0  0  0  0  0  0  0  0  0  0  0  0
   -4.0538   -3.4266   -0.2919 H   0  0  0  0  0  0  0  0  0  0  0  0
   -4.9851    3.0407    0.0897 H   0  0  0  0  0  0  0  0  0  0  0  0
   -4.2497    3.2583   -1.5158 H   0  0  0  0  0  0  0  0  0  0  0  0
   -4.3019    4.6088   -0.3610 H   0  0  0  0  0  0  0  0  0  0  0  0
  1  2  1  0
  2  3  2  0
  3  4  1  0
  4  5  1  0
  5  6  1  0
  6  7  1  0
  7  8  2  0
  8  9  1  0
  9 10  2  0
 10 11  1  0
 10 12  1  0
 12 13  2  0
  4 14  2  0
 14 15  1  0
 15 16  2  3
 16 17  1  0
 17 18  1  0
 18 19  1  0
 15 20  1  0
 20 21  2  0
 21 22  1  0
 22 23  1  0
 22  1  1  0
 21  3  1  0
 13  7  1  0
  1 24  1  0
  2 25  1  0
  5 26  1  0
  6 27  1  0
  6 28  1  0
  8 29  1  0
  9 30  1  0
 11 31  1  0
 11 32  1  0
 11 33  1  0
 12 34  1  0
 13 35  1  0
 17 36  1  0
 17 37  1  0
 18 38  1  0
 18 39  1  0
 19 40  1  0
 23 41  1  0
 23 42  1  0
 23 43  1  0
M  END
>  <ScrubInfo>  (7) 
{"isomerGroup": 0, "isomerId": 6, "confId": 0, "nr_conformers:": 1, "nr_isomers:": 9}

$$$$
_i7
     RDKit          3D

 43 45  0  0  0  0  0  0  0  0999 V2000
   -3.3378    1.0792   -0.0748 N   0  0  0  0  0  0  0  0  0  0  0  0
   -2.9052   -0.0303    0.6228 C   0  0  0  0  0  0  0  0  0  0  0  0
   -3.7764   -0.7093    1.2926 N   0  0  0  0  0  0  0  0  0  0  0  0
   -3.3005   -1.8829    2.0370 C   0  0  0  0  0  0  0  0  0  0  0  0
   -4.5019   -2.5161    2.7395 C   0  0  0  0  0  0  0  0  0  0  0  0
   -5.4849   -2.8751    1.7708 O   0  0  0  0  0  0  0  0  0  0  0  0
   -1.5485   -0.2586    0.4960 N   0  0  0  0  0  0  0  0  0  0  0  0
   -0.5724    0.4248   -0.2001 C   0  0  0  0  0  0  0  0  0  0  0  0
    0.6483    0.0239   -0.1746 N   0  0  0  0  0  0  0  0  0  0  0  0
    1.7089    0.7104   -0.8898 C   0  0  0  0  0  0  0  0  0  0  0  0
    3.0325    0.0162   -0.6709 C   0  0  0  0  0  0  0  0  0  0  0  0
    3.8706    0.3956    0.3852 C   0  0  0  0  0  0  0  0  0  0  0  0
    5.0884   -0.2565    0.5947 C   0  0  0  0  0  0  0  0  0  0  0  0
    5.4898   -1.2991   -0.2479 C   0  0  0  0  0  0  0  0  0  0  0  0
    6.7803   -2.0220   -0.0010 C   0  0  0  0  0  0  0  0  0  0  0  0
    4.6394   -1.7000   -1.2842 C   0  0  0  0  0  0  0  0  0  0  0  0
    3.4216   -1.0482   -1.4940 C   0  0  0  0  0  0  0  0  0  0  0  0
   -1.1269    1.5699   -0.8987 C   0  0  0  0  0  0  0  0  0  0  0  0
   -0.6633    2.5982   -1.7399 C   0  0  0  0  0  0  0  0  0  0  0  0
   -1.6364    3.4343   -2.1296 N   0  0  0  0  0  0  0  0  0  0  0  0
   -2.7427    2.9448   -1.5280 N   0  0  0  0  0  0  0  0  0  0  0  0
   -4.0074    3.6051   -1.7331 C   0  0  0  0  0  0  0  0  0  0  0  0
   -2.4766    1.8311   -0.7927 C   0  0  0  0  0  0  0  0  0  0  0  0
   -4.3303    1.2663    0.0064 H   0  0  0  0  0  0  0  0  0  0  0  0
   -2.5515   -1.5978    2.7837 H   0  0  0  0  0  0  0  0  0  0  0  0
   -2.8694   -2.6113    1.3403 H   0  0  0  0  0  0  0  0  0  0  0  0
   -4.2047   -3.4178    3.2825 H   0  0  0  0  0  0  0  0  0  0  0  0
   -4.9600   -1.8153    3.4449 H   0  0  0  0  0  0  0  0  0  0  0  0
   -5.5291   -2.1026    1.1729 H   0  0  0  0  0  0  0  0  0  0  0  0
   -1.1726   -1.0600    0.9784 H   0  0  0  0  0  0  0  0  0  0  0  0
    1.8031    1.7478   -0.5472 H   0  0  0  0  0  0  0  0  0  0  0  0
    1.5061    0.7279   -1.9675 H   0  0  0  0  0  0  0  0  0  0  0  0
    3.5743    1.1979    1.0568 H   0  0  0  0  0  0  0  0  0  0  0  0
    5.7200    0.0531    1.4241 H   0  0  0  0  0  0  0  0  0  0  0  0
    7.1984   -2.4056   -0.9376 H   0  0  0  0  0  0  0  0  0  0  0  0
    6.6148   -2.8604    0.6826 H   0  0  0  0  0  0  0  0  0  0  0  0
    7.5267   -1.3504    0.4362 H   0  0  0  0  0  0  0  0  0  0  0  0
    4.9171   -2.5269   -1.9337 H   0  0  0  0  0  0  0  0  0  0  0  0
    2.7712   -1.3808   -2.2997 H   0  0  0  0  0  0  0  0  0  0  0  0
    0.3368    2.7935   -2.1011 H   0  0  0  0  0  0  0  0  0  0  0  0
   -3.8388    4.6834   -1.7967 H   0  0  0  0  0  0  0  0  0  0  0  0
   -4.6725    3.3921   -0.8933 H   0  0  0  0  0  0  0  0  0  0  0  0
   -4.4385    3.2313   -2.6649 H   0  0  0  0  0  0  0  0  0  0  0  0
  1  2  1  0
  2  3  2  3
  3  4  1  0
  4  5  1  0
  5  6  1  0
  2  7  1  0
  7  8  1  0
  8  9  2  3
  9 10  1  0
 10 11  1  0
 11 12  2  0
 12 13  1  0
 13 14  2  0
 14 15  1  0
 14 16  1  0
 16 17  2  0
  8 18  1  0
 18 19  1  0
 19 20  2  0
 20 21  1  0
 21 22  1  0
 21 23  1  0
 23  1  1  0
 17 11  1  0
 23 18  2  0
  1 24  1  0
  4 25  1  0
  4 26  1  0
  5 27  1  0
  5 28  1  0
  6 29  1  0
  7 30  1  0
 10 31  1  0
 10 32  1  0
 12 33  1  0
 13 34  1  0
 15 35  1  0
 15 36  1  0
 15 37  1  0
 16 38  1  0
 17 39  1  0
 19 40  1  0
 22 41  1  0
 22 42  1  0
 22 43  1  0
M  END
>  <ScrubInfo>  (8) 
{"isomerGroup": 0, "isomerId": 7, "confId": 0, "nr_conformers:": 1, "nr_isomers:": 9}

$$$$
_i8
     RDKit          3D

 43 45  0  0  0  0  0  0  0  0999 V2000
   -1.4892   -3.8116    0.9394 N   0  0  0  0  0  0  0  0  0  0  0  0
   -0.4589   -2.9145    0.6806 C   0  0  0  0  0  0  0  0  0  0  0  0
   -0.8927   -1.6611    0.5036 C   0  0  0  0  0  0  0  0  0  0  0  0
   -0.3224   -0.3500    0.1817 C   0  0  0  0  0  0  0  0  0  0  0  0
    0.9540   -0.2421    0.0439 N   0  0  0  0  0  0  0  0  0  0  0  0
    1.5079    1.0689   -0.2772 C   0  0  0  0  0  0  0  0  0  0  0  0
    3.0102    1.0069   -0.3960 C   0  0  0  0  0  0  0  0  0  0  0  0
    3.8292    1.3605    0.6835 C   0  0  0  0  0  0  0  0  0  0  0  0
    5.2203    1.2927    0.5712 C   0  0  0  0  0  0  0  0  0  0  0  0
    5.8171    0.8708   -0.6221 C   0  0  0  0  0  0  0  0  0  0  0  0
    7.3090    0.7636   -0.7296 C   0  0  0  0  0  0  0  0  0  0  0  0
    4.9998    0.4874   -1.6910 C   0  0  0  0  0  0  0  0  0  0  0  0
    3.6089    0.5552   -1.5791 C   0  0  0  0  0  0  0  0  0  0  0  0
   -1.2891    0.6158    0.0663 N   0  0  0  0  0  0  0  0  0  0  0  0
   -2.6396    0.4432    0.2290 C   0  0  0  0  0  0  0  0  0  0  0  0
   -3.4074    1.4709    0.0508 N   0  0  0  0  0  0  0  0  0  0  0  0
   -4.8514    1.2498    0.2446 C   0  0  0  0  0  0  0  0  0  0  0  0
   -5.5635    2.5886    0.0498 C   0  0  0  0  0  0  0  0  0  0  0  0
   -5.2763    3.1025   -1.2500 O   0  0  0  0  0  0  0  0  0  0  0  0
   -3.1857   -0.7755    0.5754 N   0  0  0  0  0  0  0  0  0  0  0  0
   -2.3684   -1.7718    0.7218 C   0  0  0  0  0  0  0  0  0  0  0  0
   -2.6712   -3.0874    1.0835 N   0  0  0  0  0  0  0  0  0  0  0  0
   -3.9239   -3.7016    0.6869 C   0  0  0  0  0  0  0  0  0  0  0  0
   -1.2702   -4.4720    1.6889 H   0  0  0  0  0  0  0  0  0  0  0  0
    0.5633   -3.2648    0.6424 H   0  0  0  0  0  0  0  0  0  0  0  0
    1.0985    1.4403   -1.2257 H   0  0  0  0  0  0  0  0  0  0  0  0
    1.2393    1.7998    0.4965 H   0  0  0  0  0  0  0  0  0  0  0  0
    3.3876    1.6831    1.6233 H   0  0  0  0  0  0  0  0  0  0  0  0
    5.8353    1.5673    1.4251 H   0  0  0  0  0  0  0  0  0  0  0  0
    7.6371   -0.2296   -0.4079 H   0  0  0  0  0  0  0  0  0  0  0  0
    7.6392    0.9292   -1.7605 H   0  0  0  0  0  0  0  0  0  0  0  0
    7.8006    1.5182   -0.1065 H   0  0  0  0  0  0  0  0  0  0  0  0
    5.4403    0.1275   -2.6178 H   0  0  0  0  0  0  0  0  0  0  0  0
    2.9904    0.2430   -2.4175 H   0  0  0  0  0  0  0  0  0  0  0  0
   -1.0272    1.5585   -0.1715 H   0  0  0  0  0  0  0  0  0  0  0  0
   -5.2193    0.5392   -0.5052 H   0  0  0  0  0  0  0  0  0  0  0  0
   -5.0667    0.8743    1.2512 H   0  0  0  0  0  0  0  0  0  0  0  0
   -6.6467    2.4713    0.1441 H   0  0  0  0  0  0  0  0  0  0  0  0
   -5.2243    3.3241    0.7864 H   0  0  0  0  0  0  0  0  0  0  0  0
   -4.3222    2.9291   -1.3716 H   0  0  0  0  0  0  0  0  0  0  0  0
   -4.7729   -3.0979    1.0234 H   0  0  0  0  0  0  0  0  0  0  0  0
   -3.9780   -3.8070   -0.4017 H   0  0  0  0  0  0  0  0  0  0  0  0
   -4.0208   -4.6946    1.1379 H   0  0  0  0  0  0  0  0  0  0  0  0
  1  2  1  0
  2  3  2  0
  3  4  1  0
  4  5  2  3
  5  6  1  0
  6  7  1  0
  7  8  2  0
  8  9  1  0
  9 10  2  0
 10 11  1  0
 10 12  1  0
 12 13  2  0
  4 14  1  0
 14 15  1  0
 15 16  2  3
 16 17  1  0
 17 18  1  0
 18 19  1  0
 15 20  1  0
 20 21  2  0
 21 22  1  0
 22 23  1  0
 22  1  1  0
 21  3  1  0
 13  7  1  0
  1 24  1  0
  2 25  1  0
  6 26  1  0
  6 27  1  0
  8 28  1  0
  9 29  1  0
 11 30  1  0
 11 31  1  0
 11 32  1  0
 12 33  1  0
 13 34  1  0
 14 35  1  0
 17 36  1  0
 17 37  1  0
 18 38  1  0
 18 39  1  0
 19 40  1  0
 23 41  1  0
 23 42  1  0
 23 43  1  0
M  END
>  <ScrubInfo>  (9) 
{"isomerGroup": 0, "isomerId": 8, "confId": 0, "nr_conformers:": 1, "nr_isomers:": 9}

$$$$
