_i0
     RDKit          3D

 46 48  0  0  0  0  0  0  0  0999 V2000
   -5.8574    3.5936    0.6851 C   0  0  0  0  0  0  0  0  0  0  0  0
   -5.0249    2.3662    0.4670 C   0  0  0  0  0  0  0  0  0  0  0  0
   -3.7150    2.3015    0.9471 C   0  0  0  0  0  0  0  0  0  0  0  0
   -2.9240    1.1685    0.7158 C   0  0  0  0  0  0  0  0  0  0  0  0
   -3.4155    0.0737    0.0010 C   0  0  0  0  0  0  0  0  0  0  0  0
   -2.6648   -1.0793   -0.2888 N   0  0  0  0  0  0  0  0  0  0  0  0
   -1.3138   -1.4024   -0.0919 C   0  0  0  0  0  0  0  0  0  0  0  0
   -0.4079   -0.4857    0.3404 N   0  0  0  0  0  0  0  0  0  0  0  0
    0.8856   -0.8123    0.5064 C   0  0  0  0  0  0  0  0  0  0  0  0
    1.6874    0.2287    0.9642 N   0  0  0  0  0  0  0  0  0  0  0  0
    3.0248    0.2520    0.3971 C   0  0  0  0  0  0  0  0  0  0  0  0
    3.7652    1.4911    0.8998 C   0  0  0  0  0  0  0  0  0  0  0  0
    5.2193    1.5236    0.4343 C   0  0  0  0  0  0  0  0  0  0  0  0
    5.3584    1.6503   -1.0020 N   0  0  0  0  0  0  0  0  0  0  0  0
    5.1911    2.8504   -1.6447 C   0  0  0  0  0  0  0  0  0  0  0  0
    4.8950    3.9091   -1.1121 O   0  0  0  0  0  0  0  0  0  0  0  0
    1.4252   -2.0149    0.2667 N   0  0  0  0  0  0  0  0  0  0  0  0
    0.5222   -2.9100   -0.1572 C   0  0  0  0  0  0  0  0  0  0  0  0
   -0.8259   -2.6883   -0.3597 C   0  0  0  0  0  0  0  0  0  0  0  0
   -1.3197   -3.9315   -0.8084 C   0  0  0  0  0  0  0  0  0  0  0  0
   -0.3718   -4.8719   -0.8883 N   0  0  0  0  0  0  0  0  0  0  0  0
    0.7416   -4.2224   -0.4751 N   0  0  0  0  0  0  0  0  0  0  0  0
    1.9937   -4.9329   -0.4096 C   0  0  0  0  0  0  0  0  0  0  0  0
   -4.7259    0.1609   -0.4972 C   0  0  0  0  0  0  0  0  0  0  0  0
   -5.5212    1.2902   -0.2708 C   0  0  0  0  0  0  0  0  0  0  0  0
   -5.5980    4.0782    1.6322 H   0  0  0  0  0  0  0  0  0  0  0  0
   -6.9219    3.3406    0.7311 H   0  0  0  0  0  0  0  0  0  0  0  0
   -5.6978    4.3043   -0.1316 H   0  0  0  0  0  0  0  0  0  0  0  0
   -3.2924    3.1318    1.5085 H   0  0  0  0  0  0  0  0  0  0  0  0
   -1.9181    1.1632    1.1228 H   0  0  0  0  0  0  0  0  0  0  0  0
   -3.2171   -1.8418   -0.6541 H   0  0  0  0  0  0  0  0  0  0  0  0
    1.1394    1.0703    0.8077 H   0  0  0  0  0  0  0  0  0  0  0  0
    2.9724    0.2700   -0.6986 H   0  0  0  0  0  0  0  0  0  0  0  0
    3.5824   -0.6431    0.6997 H   0  0  0  0  0  0  0  0  0  0  0  0
    3.2379    2.3948    0.5703 H   0  0  0  0  0  0  0  0  0  0  0  0
    3.7492    1.5024    1.9971 H   0  0  0  0  0  0  0  0  0  0  0  0
    5.7302    2.3728    0.9022 H   0  0  0  0  0  0  0  0  0  0  0  0
    5.7434    0.6102    0.7347 H   0  0  0  0  0  0  0  0  0  0  0  0
    5.6249    0.8414   -1.5491 H   0  0  0  0  0  0  0  0  0  0  0  0
    5.3533    2.7592   -2.7317 H   0  0  0  0  0  0  0  0  0  0  0  0
   -2.3327   -4.1954   -1.0819 H   0  0  0  0  0  0  0  0  0  0  0  0
    2.7833   -4.2693   -0.0501 H   0  0  0  0  0  0  0  0  0  0  0  0
    1.8760   -5.7743    0.2780 H   0  0  0  0  0  0  0  0  0  0  0  0
    2.2386   -5.2906   -1.4129 H   0  0  0  0  0  0  0  0  0  0  0  0
   -5.1462   -0.6543   -1.0806 H   0  0  0  0  0  0  0  0  0  0  0  0
   -6.5289    1.3214   -0.6784 H   0  0  0  0  0  0  0  0  0  0  0  0
  1  2  1  0
  2  3  2  0
  3  4  1  0
  4  5  2  0
  5  6  1  0
  6  7  1  0
  7  8  2  0
  8  9  1  0
  9 10  1  0
 10 11  1  0
 11 12  1  0
 12 13  1  0
 13 14  1  0
 14 15  1  0
 15 16  2  0
  9 17  2  0
 17 18  1  0
 18 19  2  0
 19 20  1  0
 20 21  2  0
 21 22  1  0
 22 23  1  0
  5 24  1  0
 24 25  2  0
 25  2  1  0
 19  7  1  0
 22 18  1  0
  1 26  1  0
  1 27  1  0
  1 28  1  0
  3 29  1  0
  4 30  1  0
  6 31  1  0
 10 32  1  0
 11 33  1  0
 11 34  1  0
 12 35  1  0
 12 36  1  0
 13 37  1  0
 13 38  1  0
 14 39  1  0
 15 40  1  0
 20 41  1  0
 23 42  1  0
 23 43  1  0
 23 44  1  0
 24 45  1  0
 25 46  1  0
M  END
>  <ScrubInfo>  (1) 
{"isomerGroup": 0, "isomerId": 0, "confId": 0, "nr_conformers:": 1, "nr_isomers:": 9}

$$$$
_i1
     RDKit          3D

 46 48  0  0  0  0  0  0  0  0999 V2000
   -0.2236   -0.3261    1.1437 N   0  0  0  0  0  0  0  0  0  0  0  0
   -1.3505   -0.2579    0.3591 C   0  0  0  0  0  0  0  0  0  0  0  0
   -2.5071   -0.3966    1.0825 N   0  0  0  0  0  0  0  0  0  0  0  0
   -3.7984   -0.4652    0.4007 C   0  0  0  0  0  0  0  0  0  0  0  0
   -4.9182   -0.3250    1.4319 C   0  0  0  0  0  0  0  0  0  0  0  0
   -6.3101   -0.4896    0.8282 C   0  0  0  0  0  0  0  0  0  0  0  0
   -6.6711    0.5967   -0.0577 N   0  0  0  0  0  0  0  0  0  0  0  0
   -6.5609    0.4953   -1.4206 C   0  0  0  0  0  0  0  0  0  0  0  0
   -6.1537   -0.4839   -2.0273 O   0  0  0  0  0  0  0  0  0  0  0  0
   -1.3211   -0.0683   -0.9336 N   0  0  0  0  0  0  0  0  0  0  0  0
   -0.0464    0.0295   -1.4039 C   0  0  0  0  0  0  0  0  0  0  0  0
    1.1429   -0.0216   -0.6935 C   0  0  0  0  0  0  0  0  0  0  0  0
    2.1393    0.1263   -1.6745 C   0  0  0  0  0  0  0  0  0  0  0  0
    1.6370    0.2596   -2.9093 N   0  0  0  0  0  0  0  0  0  0  0  0
    0.2996    0.1965   -2.7150 N   0  0  0  0  0  0  0  0  0  0  0  0
   -0.5856    0.2990   -3.8477 C   0  0  0  0  0  0  0  0  0  0  0  0
    1.0871   -0.1946    0.7446 C   0  0  0  0  0  0  0  0  0  0  0  0
    2.0616   -0.2229    1.6025 N   0  0  0  0  0  0  0  0  0  0  0  0
    3.3936   -0.0801    1.2102 C   0  0  0  0  0  0  0  0  0  0  0  0
    3.9835    1.1845    1.1595 C   0  0  0  0  0  0  0  0  0  0  0  0
    5.3241    1.3262    0.7922 C   0  0  0  0  0  0  0  0  0  0  0  0
    6.0943    0.2005    0.4770 C   0  0  0  0  0  0  0  0  0  0  0  0
    7.5420    0.3483    0.1129 C   0  0  0  0  0  0  0  0  0  0  0  0
    5.5122   -1.0694    0.5683 C   0  0  0  0  0  0  0  0  0  0  0  0
    4.1712   -1.2069    0.9359 C   0  0  0  0  0  0  0  0  0  0  0  0
   -0.3457   -0.3275    2.1423 H   0  0  0  0  0  0  0  0  0  0  0  0
   -2.4329   -1.0691    1.8364 H   0  0  0  0  0  0  0  0  0  0  0  0
   -3.8716    0.3433   -0.3346 H   0  0  0  0  0  0  0  0  0  0  0  0
   -3.8811   -1.4221   -0.1268 H   0  0  0  0  0  0  0  0  0  0  0  0
   -4.7875   -1.0853    2.2125 H   0  0  0  0  0  0  0  0  0  0  0  0
   -4.8393    0.6504    1.9289 H   0  0  0  0  0  0  0  0  0  0  0  0
   -7.0546   -0.4926    1.6316 H   0  0  0  0  0  0  0  0  0  0  0  0
   -6.3888   -1.4455    0.2987 H   0  0  0  0  0  0  0  0  0  0  0  0
   -6.9995    1.4691    0.3379 H   0  0  0  0  0  0  0  0  0  0  0  0
   -6.8810    1.4196   -1.9299 H   0  0  0  0  0  0  0  0  0  0  0  0
    3.2146    0.1442   -1.5631 H   0  0  0  0  0  0  0  0  0  0  0  0
   -0.3823    1.2435   -4.3589 H   0  0  0  0  0  0  0  0  0  0  0  0
   -0.3892   -0.5452   -4.5135 H   0  0  0  0  0  0  0  0  0  0  0  0
   -1.6262    0.2761   -3.5171 H   0  0  0  0  0  0  0  0  0  0  0  0
    3.3950    2.0638    1.4064 H   0  0  0  0  0  0  0  0  0  0  0  0
    5.7623    2.3210    0.7563 H   0  0  0  0  0  0  0  0  0  0  0  0
    8.1603    0.3126    1.0151 H   0  0  0  0  0  0  0  0  0  0  0  0
    7.8577   -0.4518   -0.5650 H   0  0  0  0  0  0  0  0  0  0  0  0
    7.7201    1.2984   -0.4016 H   0  0  0  0  0  0  0  0  0  0  0  0
    6.0986   -1.9605    0.3565 H   0  0  0  0  0  0  0  0  0  0  0  0
    3.7294   -2.1968    1.0083 H   0  0  0  0  0  0  0  0  0  0  0  0
  1  2  1  0
  2  3  1  0
  3  4  1  0
  4  5  1  0
  5  6  1  0
  6  7  1  0
  7  8  1  0
  8  9  2  0
  2 10  2  0
 10 11  1  0
 11 12  2  0
 12 13  1  0
 13 14  2  0
 14 15  1  0
 15 16  1  0
 12 17  1  0
 17 18  2  3
 18 19  1  0
 19 20  2  0
 20 21  1  0
 21 22  2  0
 22 23  1  0
 22 24  1  0
 24 25  2  0
 17  1  1  0
 25 19  1  0
 15 11  1  0
  1 26  1  0
  3 27  1  0
  4 28  1  0
  4 29  1  0
  5 30  1  0
  5 31  1  0
  6 32  1  0
  6 33  1  0
  7 34  1  0
  8 35  1  0
 13 36  1  0
 16 37  1  0
 16 38  1  0
 16 39  1  0
 20 40  1  0
 21 41  1  0
 23 42  1  0
 23 43  1  0
 23 44  1  0
 24 45  1  0
 25 46  1  0
M  END
>  <ScrubInfo>  (2) 
{"isomerGroup": 0, "isomerId": 1, "confId": 0, "nr_conformers:": 1, "nr_isomers:": 9}

$$$$
_i2
     RDKit          3D

 46 48  0  0  0  0  0  0  0  0999 V2000
   -0.6999   -0.4349    0.4161 N   0  0  0  0  0  0  0  0  0  0  0  0
    0.6648   -0.2760    0.5713 C   0  0  0  0  0  0  0  0  0  0  0  0
    1.2131    0.9789    0.7592 N   0  0  0  0  0  0  0  0  0  0  0  0
    2.2798    1.5565    0.0320 C   0  0  0  0  0  0  0  0  0  0  0  0
    2.8195    0.9971   -1.1315 C   0  0  0  0  0  0  0  0  0  0  0  0
    3.9007    1.5999   -1.7843 C   0  0  0  0  0  0  0  0  0  0  0  0
    4.4769    2.7679   -1.2769 C   0  0  0  0  0  0  0  0  0  0  0  0
    5.6145    3.4304   -1.9954 C   0  0  0  0  0  0  0  0  0  0  0  0
    3.9377    3.3383   -0.1211 C   0  0  0  0  0  0  0  0  0  0  0  0
    2.8566    2.7339    0.5280 C   0  0  0  0  0  0  0  0  0  0  0  0
    1.3731   -1.4113    0.6014 C   0  0  0  0  0  0  0  0  0  0  0  0
    2.7646   -1.8211    0.8207 C   0  0  0  0  0  0  0  0  0  0  0  0
    2.9296   -3.1197    0.7692 N   0  0  0  0  0  0  0  0  0  0  0  0
    1.6611   -3.6455    0.4688 N   0  0  0  0  0  0  0  0  0  0  0  0
    1.4263   -5.0558    0.6630 C   0  0  0  0  0  0  0  0  0  0  0  0
    0.6587   -2.6897    0.4145 C   0  0  0  0  0  0  0  0  0  0  0  0
   -0.6131   -2.8214    0.2550 N   0  0  0  0  0  0  0  0  0  0  0  0
   -1.3354   -1.6480    0.2459 C   0  0  0  0  0  0  0  0  0  0  0  0
   -2.5980   -1.8280    0.0679 N   0  0  0  0  0  0  0  0  0  0  0  0
   -3.4602   -0.6505    0.0481 C   0  0  0  0  0  0  0  0  0  0  0  0
   -4.9012   -1.0990   -0.1794 C   0  0  0  0  0  0  0  0  0  0  0  0
   -5.8547    0.0779   -0.3739 C   0  0  0  0  0  0  0  0  0  0  0  0
   -6.0898    0.8303    0.8430 N   0  0  0  0  0  0  0  0  0  0  0  0
   -5.3181    1.8986    1.2182 C   0  0  0  0  0  0  0  0  0  0  0  0
   -4.3506    2.3340    0.6099 O   0  0  0  0  0  0  0  0  0  0  0  0
   -1.2495    0.4063    0.3426 H   0  0  0  0  0  0  0  0  0  0  0  0
    0.5280    1.6867    1.0101 H   0  0  0  0  0  0  0  0  0  0  0  0
    2.3947    0.0997   -1.5731 H   0  0  0  0  0  0  0  0  0  0  0  0
    4.2870    1.1484   -2.6958 H   0  0  0  0  0  0  0  0  0  0  0  0
    6.2612    3.9663   -1.2927 H   0  0  0  0  0  0  0  0  0  0  0  0
    5.2284    4.1404   -2.7332 H   0  0  0  0  0  0  0  0  0  0  0  0
    6.2367    2.6895   -2.5084 H   0  0  0  0  0  0  0  0  0  0  0  0
    4.3582    4.2546    0.2874 H   0  0  0  0  0  0  0  0  0  0  0  0
    2.4730    3.1887    1.4383 H   0  0  0  0  0  0  0  0  0  0  0  0
    3.5502   -1.0838    1.0295 H   0  0  0  0  0  0  0  0  0  0  0  0
    0.5960   -5.4029    0.0398 H   0  0  0  0  0  0  0  0  0  0  0  0
    2.3131   -5.6372    0.3905 H   0  0  0  0  0  0  0  0  0  0  0  0
    1.1859   -5.2615    1.7107 H   0  0  0  0  0  0  0  0  0  0  0  0
   -3.3862   -0.1252    1.0062 H   0  0  0  0  0  0  0  0  0  0  0  0
   -3.1601    0.0265   -0.7607 H   0  0  0  0  0  0  0  0  0  0  0  0
   -4.9407   -1.7306   -1.0759 H   0  0  0  0  0  0  0  0  0  0  0  0
   -5.2327   -1.7226    0.6601 H   0  0  0  0  0  0  0  0  0  0  0  0
   -5.4817    0.7542   -1.1511 H   0  0  0  0  0  0  0  0  0  0  0  0
   -6.8317   -0.2969   -0.6972 H   0  0  0  0  0  0  0  0  0  0  0  0
   -6.8255    0.5217    1.4662 H   0  0  0  0  0  0  0  0  0  0  0  0
   -5.6605    2.3349    2.1715 H   0  0  0  0  0  0  0  0  0  0  0  0
  1  2  1  0
  2  3  1  0
  3  4  1  0
  4  5  2  0
  5  6  1  0
  6  7  2  0
  7  8  1  0
  7  9  1  0
  9 10  2  0
  2 11  2  0
 11 12  1  0
 12 13  2  0
 13 14  1  0
 14 15  1  0
 14 16  1  0
 16 17  2  0
 17 18  1  0
 18 19  2  3
 19 20  1  0
 20 21  1  0
 21 22  1  0
 22 23  1  0
 23 24  1  0
 24 25  2  0
 18  1  1  0
 10  4  1  0
 16 11  1  0
  1 26  1  0
  3 27  1  0
  5 28  1  0
  6 29  1  0
  8 30  1  0
  8 31  1  0
  8 32  1  0
  9 33  1  0
 10 34  1  0
 12 35  1  0
 15 36  1  0
 15 37  1  0
 15 38  1  0
 20 39  1  0
 20 40  1  0
 21 41  1  0
 21 42  1  0
 22 43  1  0
 22 44  1  0
 23 45  1  0
 24 46  1  0
M  END
>  <ScrubInfo>  (3) 
{"isomerGroup": 0, "isomerId": 2, "confId": 0, "nr_conformers:": 1, "nr_isomers:": 9}

$$$$
_i3
     RDKit          3D

 46 48  0  0  0  0  0  0  0  0999 V2000
    1.5402    0.1439    0.8664 N   0  0  0  0  0  0  0  0  0  0  0  0
    1.3031    1.3435    0.2184 C   0  0  0  0  0  0  0  0  0  0  0  0
    2.0435    2.3913    0.2385 N   0  0  0  0  0  0  0  0  0  0  0  0
    3.2445    2.5186    1.0488 C   0  0  0  0  0  0  0  0  0  0  0  0
    4.3975    1.5952    0.6686 C   0  0  0  0  0  0  0  0  0  0  0  0
    4.5258    1.2941   -0.8215 C   0  0  0  0  0  0  0  0  0  0  0  0
    5.5359    0.2825   -1.0798 N   0  0  0  0  0  0  0  0  0  0  0  0
    5.3581   -1.0281   -0.7099 C   0  0  0  0  0  0  0  0  0  0  0  0
    4.4252   -1.4681   -0.0508 O   0  0  0  0  0  0  0  0  0  0  0  0
    0.1738    1.5190   -0.5723 N   0  0  0  0  0  0  0  0  0  0  0  0
   -0.6559    0.5294   -0.7463 C   0  0  0  0  0  0  0  0  0  0  0  0
   -1.7782    0.6305   -1.5286 N   0  0  0  0  0  0  0  0  0  0  0  0
   -3.1004    0.4085   -1.0640 C   0  0  0  0  0  0  0  0  0  0  0  0
   -4.1210    0.2774   -2.0148 C   0  0  0  0  0  0  0  0  0  0  0  0
   -5.4481    0.0820   -1.6221 C   0  0  0  0  0  0  0  0  0  0  0  0
   -5.7848    0.0370   -0.2662 C   0  0  0  0  0  0  0  0  0  0  0  0
   -7.2018   -0.2082    0.1596 C   0  0  0  0  0  0  0  0  0  0  0  0
   -4.7706    0.1709    0.6873 C   0  0  0  0  0  0  0  0  0  0  0  0
   -3.4432    0.3664    0.2921 C   0  0  0  0  0  0  0  0  0  0  0  0
   -0.3822   -0.7683   -0.1784 C   0  0  0  0  0  0  0  0  0  0  0  0
   -0.9300   -2.0592   -0.2147 C   0  0  0  0  0  0  0  0  0  0  0  0
   -0.2082   -2.9398    0.4980 N   0  0  0  0  0  0  0  0  0  0  0  0
    0.8285   -2.2008    0.9703 N   0  0  0  0  0  0  0  0  0  0  0  0
    1.8698   -2.8476    1.7275 C   0  0  0  0  0  0  0  0  0  0  0  0
    0.7268   -0.8953    0.6082 C   0  0  0  0  0  0  0  0  0  0  0  0
    2.4366    0.0199    1.3112 H   0  0  0  0  0  0  0  0  0  0  0  0
    3.0027    2.3996    2.1120 H   0  0  0  0  0  0  0  0  0  0  0  0
    3.5912    3.5536    0.9409 H   0  0  0  0  0  0  0  0  0  0  0  0
    4.3091    0.6667    1.2403 H   0  0  0  0  0  0  0  0  0  0  0  0
    5.3353    2.0397    1.0281 H   0  0  0  0  0  0  0  0  0  0  0  0
    3.5907    0.9164   -1.2447 H   0  0  0  0  0  0  0  0  0  0  0  0
    4.8127    2.1962   -1.3714 H   0  0  0  0  0  0  0  0  0  0  0  0
    6.2992    0.5090   -1.7046 H   0  0  0  0  0  0  0  0  0  0  0  0
    6.1827   -1.6680   -1.0665 H   0  0  0  0  0  0  0  0  0  0  0  0
   -1.7676    1.5350   -1.9967 H   0  0  0  0  0  0  0  0  0  0  0  0
   -3.8840    0.3092   -3.0759 H   0  0  0  0  0  0  0  0  0  0  0  0
   -6.2159   -0.0351   -2.3836 H   0  0  0  0  0  0  0  0  0  0  0  0
   -7.4106    0.2756    1.1196 H   0  0  0  0  0  0  0  0  0  0  0  0
   -7.9061    0.2035   -0.5710 H   0  0  0  0  0  0  0  0  0  0  0  0
   -7.3821   -1.2831    0.2582 H   0  0  0  0  0  0  0  0  0  0  0  0
   -5.0056    0.1296    1.7488 H   0  0  0  0  0  0  0  0  0  0  0  0
   -2.6895    0.4927    1.0655 H   0  0  0  0  0  0  0  0  0  0  0  0
   -1.8162   -2.4047   -0.7311 H   0  0  0  0  0  0  0  0  0  0  0  0
    1.4051   -3.4630    2.5022 H   0  0  0  0  0  0  0  0  0  0  0  0
    2.5114   -2.0975    2.1944 H   0  0  0  0  0  0  0  0  0  0  0  0
    2.4526   -3.4702    1.0444 H   0  0  0  0  0  0  0  0  0  0  0  0
  1  2  1  0
  2  3  2  3
  3  4  1  0
  4  5  1  0
  5  6  1  0
  6  7  1  0
  7  8  1  0
  8  9  2  0
  2 10  1  0
 10 11  2  0
 11 12  1  0
 12 13  1  0
 13 14  2  0
 14 15  1  0
 15 16  2  0
 16 17  1  0
 16 18  1  0
 18 19  2  0
 11 20  1  0
 20 21  1  0
 21 22  2  0
 22 23  1  0
 23 24  1  0
 23 25  1  0
 25  1  1  0
 19 13  1  0
 25 20  2  0
  1 26  1  0
  4 27  1  0
  4 28  1  0
  5 29  1  0
  5 30  1  0
  6 31  1  0
  6 32  1  0
  7 33  1  0
  8 34  1  0
 12 35  1  0
 14 36  1  0
 15 37  1  0
 17 38  1  0
 17 39  1  0
 17 40  1  0
 18 41  1  0
 19 42  1  0
 21 43  1  0
 24 44  1  0
 24 45  1  0
 24 46  1  0
M  END
>  <ScrubInfo>  (4) 
{"isomerGroup": 0, "isomerId": 3, "confId": 0, "nr_conformers:": 1, "nr_isomers:": 9}

$$$$
_i4
     RDKit          3D

 46 48  0  0  0  0  0  0  0  0999 V2000
    1.4209   -1.3464    1.5837 N   0  0  0  0  0  0  0  0  0  0  0  0
    0.5891   -0.2646    1.4084 C   0  0  0  0  0  0  0  0  0  0  0  0
    1.0281    0.9100    1.9443 N   0  0  0  0  0  0  0  0  0  0  0  0
    2.3768    1.4317    1.7785 C   0  0  0  0  0  0  0  0  0  0  0  0
    2.5868    2.0696    0.4065 C   0  0  0  0  0  0  0  0  0  0  0  0
    2.7033    1.0433   -0.7193 C   0  0  0  0  0  0  0  0  0  0  0  0
    3.1539    1.6523   -1.9545 N   0  0  0  0  0  0  0  0  0  0  0  0
    4.4781    1.9177   -2.1883 C   0  0  0  0  0  0  0  0  0  0  0  0
    5.3945    1.6910   -1.4115 O   0  0  0  0  0  0  0  0  0  0  0  0
   -0.5533   -0.2764    0.7775 N   0  0  0  0  0  0  0  0  0  0  0  0
   -1.0047   -1.4643    0.2163 C   0  0  0  0  0  0  0  0  0  0  0  0
   -2.1025   -1.5846   -0.4589 N   0  0  0  0  0  0  0  0  0  0  0  0
   -2.8984   -0.4456   -0.6409 C   0  0  0  0  0  0  0  0  0  0  0  0
   -2.8451    0.2567   -1.8464 C   0  0  0  0  0  0  0  0  0  0  0  0
   -3.6587    1.3739   -2.0549 C   0  0  0  0  0  0  0  0  0  0  0  0
   -4.5401    1.8037   -1.0559 C   0  0  0  0  0  0  0  0  0  0  0  0
   -5.4405    2.9798   -1.2906 C   0  0  0  0  0  0  0  0  0  0  0  0
   -4.6155    1.0807    0.1405 C   0  0  0  0  0  0  0  0  0  0  0  0
   -3.8006   -0.0365    0.3437 C   0  0  0  0  0  0  0  0  0  0  0  0
   -0.1799   -2.6306    0.4027 C   0  0  0  0  0  0  0  0  0  0  0  0
   -0.2590   -3.9855    0.0556 C   0  0  0  0  0  0  0  0  0  0  0  0
    0.7999   -4.6855    0.4964 N   0  0  0  0  0  0  0  0  0  0  0  0
    1.5596   -3.7585    1.1325 N   0  0  0  0  0  0  0  0  0  0  0  0
    2.8043   -4.1647    1.7331 C   0  0  0  0  0  0  0  0  0  0  0  0
    0.9998   -2.5217    1.0851 C   0  0  0  0  0  0  0  0  0  0  0  0
    2.1551   -1.2620    2.2736 H   0  0  0  0  0  0  0  0  0  0  0  0
    0.3231    1.6292    1.7875 H   0  0  0  0  0  0  0  0  0  0  0  0
    2.5194    2.2055    2.5417 H   0  0  0  0  0  0  0  0  0  0  0  0
    3.1351    0.6661    1.9750 H   0  0  0  0  0  0  0  0  0  0  0  0
    3.5082    2.6636    0.4509 H   0  0  0  0  0  0  0  0  0  0  0  0
    1.7770    2.7745    0.1801 H   0  0  0  0  0  0  0  0  0  0  0  0
    1.7359    0.5813   -0.9343 H   0  0  0  0  0  0  0  0  0  0  0  0
    3.4115    0.2526   -0.4473 H   0  0  0  0  0  0  0  0  0  0  0  0
    2.4698    1.9028   -2.6575 H   0  0  0  0  0  0  0  0  0  0  0  0
    4.6376    2.3774   -3.1779 H   0  0  0  0  0  0  0  0  0  0  0  0
   -2.1686   -0.0750   -2.6284 H   0  0  0  0  0  0  0  0  0  0  0  0
   -3.6027    1.9008   -3.0042 H   0  0  0  0  0  0  0  0  0  0  0  0
   -5.6625    3.4954   -0.3504 H   0  0  0  0  0  0  0  0  0  0  0  0
   -4.9654    3.7086   -1.9558 H   0  0  0  0  0  0  0  0  0  0  0  0
   -6.3800    2.6476   -1.7428 H   0  0  0  0  0  0  0  0  0  0  0  0
   -5.3107    1.3779    0.9218 H   0  0  0  0  0  0  0  0  0  0  0  0
   -3.8671   -0.5931    1.2740 H   0  0  0  0  0  0  0  0  0  0  0  0
   -1.0408   -4.4949   -0.4934 H   0  0  0  0  0  0  0  0  0  0  0  0
    2.5818   -4.8584    2.5476 H   0  0  0  0  0  0  0  0  0  0  0  0
    3.3324   -3.2913    2.1215 H   0  0  0  0  0  0  0  0  0  0  0  0
    3.4141   -4.6541    0.9693 H   0  0  0  0  0  0  0  0  0  0  0  0
  1  2  1  0
  2  3  1  0
  3  4  1  0
  4  5  1  0
  5  6  1  0
  6  7  1  0
  7  8  1  0
  8  9  2  0
  2 10  2  0
 10 11  1  0
 11 12  2  3
 12 13  1  0
 13 14  2  0
 14 15  1  0
 15 16  2  0
 16 17  1  0
 16 18  1  0
 18 19  2  0
 11 20  1  0
 20 21  1  0
 21 22  2  0
 22 23  1  0
 23 24  1  0
 23 25  1  0
 25  1  1  0
 19 13  1  0
 25 20  2  0
  1 26  1  0
  3 27  1  0
  4 28  1  0
  4 29  1  0
  5 30  1  0
  5 31  1  0
  6 32  1  0
  6 33  1  0
  7 34  1  0
  8 35  1  0
 14 36  1  0
 15 37  1  0
 17 38  1  0
 17 39  1  0
 17 40  1  0
 18 41  1  0
 19 42  1  0
 21 43  1  0
 24 44  1  0
 24 45  1  0
 24 46  1  0
M  END
>  <ScrubInfo>  (5) 
{"isomerGroup": 0, "isomerId": 4, "confId": 0, "nr_conformers:": 1, "nr_isomers:": 9}

$$$$
_i5
     RDKit          3D

 46 48  0  0  0  0  0  0  0  0999 V2000
   -1.8482    2.6795    0.6974 N   0  0  0  0  0  0  0  0  0  0  0  0
   -2.2251    1.3915    0.3313 C   0  0  0  0  0  0  0  0  0  0  0  0
   -1.1981    0.6269   -0.0706 C   0  0  0  0  0  0  0  0  0  0  0  0
   -0.9454   -0.7334   -0.5297 C   0  0  0  0  0  0  0  0  0  0  0  0
   -1.7604   -1.7036   -0.7802 N   0  0  0  0  0  0  0  0  0  0  0  0
   -3.1376   -1.5330   -0.6259 C   0  0  0  0  0  0  0  0  0  0  0  0
   -3.7580   -1.8675    0.5793 C   0  0  0  0  0  0  0  0  0  0  0  0
   -5.1376   -1.7091    0.7338 C   0  0  0  0  0  0  0  0  0  0  0  0
   -5.9191   -1.2384   -0.3283 C   0  0  0  0  0  0  0  0  0  0  0  0
   -7.3964   -1.0427   -0.1561 C   0  0  0  0  0  0  0  0  0  0  0  0
   -5.2970   -0.9146   -1.5401 C   0  0  0  0  0  0  0  0  0  0  0  0
   -3.9170   -1.0744   -1.6900 C   0  0  0  0  0  0  0  0  0  0  0  0
    0.3817   -1.0163   -0.7219 N   0  0  0  0  0  0  0  0  0  0  0  0
    1.3268   -0.1363   -0.5728 C   0  0  0  0  0  0  0  0  0  0  0  0
    2.5974   -0.5855   -0.7942 N   0  0  0  0  0  0  0  0  0  0  0  0
    3.6747    0.2926   -1.2022 C   0  0  0  0  0  0  0  0  0  0  0  0
    5.0130   -0.4353   -1.1146 C   0  0  0  0  0  0  0  0  0  0  0  0
    5.4197   -0.7019    0.3335 C   0  0  0  0  0  0  0  0  0  0  0  0
    6.7034   -1.3710    0.4149 N   0  0  0  0  0  0  0  0  0  0  0  0
    7.8870   -0.6892    0.3031 C   0  0  0  0  0  0  0  0  0  0  0  0
    8.0035    0.5150    0.1304 O   0  0  0  0  0  0  0  0  0  0  0  0
    1.1454    1.1740   -0.2251 N   0  0  0  0  0  0  0  0  0  0  0  0
   -0.0587    1.5599    0.0141 C   0  0  0  0  0  0  0  0  0  0  0  0
   -0.5050    2.8297    0.3841 N   0  0  0  0  0  0  0  0  0  0  0  0
    0.3178    3.6966    1.2062 C   0  0  0  0  0  0  0  0  0  0  0  0
   -2.4785    3.4016    0.3410 H   0  0  0  0  0  0  0  0  0  0  0  0
   -3.2707    1.1277    0.3945 H   0  0  0  0  0  0  0  0  0  0  0  0
   -3.1606   -2.2542    1.4006 H   0  0  0  0  0  0  0  0  0  0  0  0
   -5.5976   -1.9669    1.6850 H   0  0  0  0  0  0  0  0  0  0  0  0
   -7.5990   -0.0323    0.2121 H   0  0  0  0  0  0  0  0  0  0  0  0
   -7.8065   -1.7677    0.5548 H   0  0  0  0  0  0  0  0  0  0  0  0
   -7.9229   -1.1859   -1.1056 H   0  0  0  0  0  0  0  0  0  0  0  0
   -5.8829   -0.5481   -2.3798 H   0  0  0  0  0  0  0  0  0  0  0  0
   -3.4443   -0.8439   -2.6409 H   0  0  0  0  0  0  0  0  0  0  0  0
    2.5719   -1.4891   -1.2542 H   0  0  0  0  0  0  0  0  0  0  0  0
    3.7079    1.1945   -0.5802 H   0  0  0  0  0  0  0  0  0  0  0  0
    3.5027    0.6092   -2.2373 H   0  0  0  0  0  0  0  0  0  0  0  0
    5.7791    0.1798   -1.6023 H   0  0  0  0  0  0  0  0  0  0  0  0
    4.9719   -1.3811   -1.6694 H   0  0  0  0  0  0  0  0  0  0  0  0
    5.4819    0.2391    0.8917 H   0  0  0  0  0  0  0  0  0  0  0  0
    4.6924   -1.3494    0.8339 H   0  0  0  0  0  0  0  0  0  0  0  0
    6.7263   -2.3771    0.5201 H   0  0  0  0  0  0  0  0  0  0  0  0
    8.7568   -1.3624    0.3825 H   0  0  0  0  0  0  0  0  0  0  0  0
    0.4666    3.2637    2.2010 H   0  0  0  0  0  0  0  0  0  0  0  0
   -0.1577    4.6761    1.3206 H   0  0  0  0  0  0  0  0  0  0  0  0
    1.2966    3.8530    0.7417 H   0  0  0  0  0  0  0  0  0  0  0  0
  1  2  1  0
  2  3  2  0
  3  4  1  0
  4  5  2  3
  5  6  1  0
  6  7  2  0
  7  8  1  0
  8  9  2  0
  9 10  1  0
  9 11  1  0
 11 12  2  0
  4 13  1  0
 13 14  2  0
 14 15  1  0
 15 16  1  0
 16 17  1  0
 17 18  1  0
 18 19  1  0
 19 20  1  0
 20 21  2  0
 14 22  1  0
 22 23  2  0
 23 24  1  0
 24 25  1  0
 24  1  1  0
 23  3  1  0
 12  6  1  0
  1 26  1  0
  2 27  1  0
  7 28  1  0
  8 29  1  0
 10 30  1  0
 10 31  1  0
 10 32  1  0
 11 33  1  0
 12 34  1  0
 15 35  1  0
 16 36  1  0
 16 37  1  0
 17 38  1  0
 17 39  1  0
 18 40  1  0
 18 41  1  0
 19 42  1  0
 20 43  1  0
 25 44  1  0
 25 45  1  0
 25 46  1  0
M  END
>  <ScrubInfo>  (6) 
{"isomerGroup": 0, "isomerId": 5, "confId": 0, "nr_conformers:": 1, "nr_isomers:": 9}

$$$$
_i6
     RDKit          3D

 46 48  0  0  0  0  0  0  0  0999 V2000
    0.2533   -4.2336    1.0699 N   0  0  0  0  0  0  0  0  0  0  0  0
   -0.8695   -3.4951    0.7116 C   0  0  0  0  0  0  0  0  0  0  0  0
   -0.6104   -2.1883    0.5615 C   0  0  0  0  0  0  0  0  0  0  0  0
   -1.3361   -0.9550    0.2361 C   0  0  0  0  0  0  0  0  0  0  0  0
   -2.6860   -1.0303   -0.0577 N   0  0  0  0  0  0  0  0  0  0  0  0
   -3.6108   -0.0098   -0.3566 C   0  0  0  0  0  0  0  0  0  0  0  0
   -3.3046    1.3526   -0.3916 C   0  0  0  0  0  0  0  0  0  0  0  0
   -4.2774    2.3105   -0.7084 C   0  0  0  0  0  0  0  0  0  0  0  0
   -5.5897    1.9286   -0.9939 C   0  0  0  0  0  0  0  0  0  0  0  0
   -6.6184    2.9538   -1.3654 C   0  0  0  0  0  0  0  0  0  0  0  0
   -5.9073    0.5701   -0.9835 C   0  0  0  0  0  0  0  0  0  0  0  0
   -4.9314   -0.3818   -0.6659 C   0  0  0  0  0  0  0  0  0  0  0  0
   -0.6445    0.1473    0.2437 N   0  0  0  0  0  0  0  0  0  0  0  0
    0.6934    0.1306    0.5610 C   0  0  0  0  0  0  0  0  0  0  0  0
    1.2287    1.2992    0.6020 N   0  0  0  0  0  0  0  0  0  0  0  0
    2.6437    1.4255    0.9407 C   0  0  0  0  0  0  0  0  0  0  0  0
    3.4847    1.3766   -0.3314 C   0  0  0  0  0  0  0  0  0  0  0  0
    4.9653    1.5362   -0.0153 C   0  0  0  0  0  0  0  0  0  0  0  0
    5.7687    1.5122   -1.2211 N   0  0  0  0  0  0  0  0  0  0  0  0
    7.1148    1.2566   -1.1755 C   0  0  0  0  0  0  0  0  0  0  0  0
    7.7524    0.9385   -0.1828 O   0  0  0  0  0  0  0  0  0  0  0  0
    1.4651   -0.9800    0.8106 N   0  0  0  0  0  0  0  0  0  0  0  0
    0.8463   -2.1076    0.8017 C   0  0  0  0  0  0  0  0  0  0  0  0
    1.3560   -3.3894    1.0089 N   0  0  0  0  0  0  0  0  0  0  0  0
    2.4736   -3.6132    1.9066 C   0  0  0  0  0  0  0  0  0  0  0  0
    0.3412   -5.1217    0.5701 H   0  0  0  0  0  0  0  0  0  0  0  0
   -1.8102   -4.0112    0.5894 H   0  0  0  0  0  0  0  0  0  0  0  0
   -3.1093   -1.9468   -0.0192 H   0  0  0  0  0  0  0  0  0  0  0  0
   -2.3041    1.7143   -0.1734 H   0  0  0  0  0  0  0  0  0  0  0  0
   -3.9915    3.3602   -0.7277 H   0  0  0  0  0  0  0  0  0  0  0  0
   -6.4248    3.9038   -0.8562 H   0  0  0  0  0  0  0  0  0  0  0  0
   -7.6208    2.6261   -1.0704 H   0  0  0  0  0  0  0  0  0  0  0  0
   -6.6053    3.1225   -2.4466 H   0  0  0  0  0  0  0  0  0  0  0  0
   -6.9156    0.2402   -1.2225 H   0  0  0  0  0  0  0  0  0  0  0  0
   -5.2224   -1.4293   -0.6679 H   0  0  0  0  0  0  0  0  0  0  0  0
    2.7825    2.3969    1.4303 H   0  0  0  0  0  0  0  0  0  0  0  0
    2.9777    0.6782    1.6706 H   0  0  0  0  0  0  0  0  0  0  0  0
    3.3214    0.4290   -0.8596 H   0  0  0  0  0  0  0  0  0  0  0  0
    3.1610    2.1683   -1.0193 H   0  0  0  0  0  0  0  0  0  0  0  0
    5.1554    2.4949    0.4803 H   0  0  0  0  0  0  0  0  0  0  0  0
    5.3072    0.7400    0.6557 H   0  0  0  0  0  0  0  0  0  0  0  0
    5.3961    1.9370   -2.0608 H   0  0  0  0  0  0  0  0  0  0  0  0
    7.5849    1.3703   -2.1666 H   0  0  0  0  0  0  0  0  0  0  0  0
    3.3287   -2.9930    1.6194 H   0  0  0  0  0  0  0  0  0  0  0  0
    2.1971   -3.3736    2.9387 H   0  0  0  0  0  0  0  0  0  0  0  0
    2.7909   -4.6602    1.8653 H   0  0  0  0  0  0  0  0  0  0  0  0
  1  2  1  0
  2  3  2  0
  3  4  1  0
  4  5  1  0
  5  6  1  0
  6  7  2  0
  7  8  1  0
  8  9  2  0
  9 10  1  0
  9 11  1  0
 11 12  2  0
  4 13  2  0
 13 14  1  0
 14 15  2  3
 15 16  1  0
 16 17  1  0
 17 18  1  0
 18 19  1  0
 19 20  1  0
 20 21  2  0
 14 22  1  0
 22 23  2  0
 23 24  1  0
 24 25  1  0
 24  1  1  0
 23  3  1  0
 12  6  1  0
  1 26  1  0
  2 27  1  0
  5 28  1  0
  7 29  1  0
  8 30  1  0
 10 31  1  0
 10 32  1  0
 10 33  1  0
 11 34  1  0
 12 35  1  0
 16 36  1  0
 16 37  1  0
 17 38  1  0
 17 39  1  0
 18 40  1  0
 18 41  1  0
 19 42  1  0
 20 43  1  0
 25 44  1  0
 25 45  1  0
 25 46  1  0
M  END
>  <ScrubInfo>  (7) 
{"isomerGroup": 0, "isomerId": 6, "confId": 0, "nr_conformers:": 1, "nr_isomers:": 9}

$$$$
_i7
     RDKit          3D

 46 48  0  0  0  0  0  0  0  0999 V2000
    1.2591   -1.3009    0.6818 N   0  0  0  0  0  0  0  0  0  0  0  0
    1.5605   -0.0042    0.3213 C   0  0  0  0  0  0  0  0  0  0  0  0
    2.7973    0.3610    0.3392 N   0  0  0  0  0  0  0  0  0  0  0  0
    3.1299    1.7301   -0.0344 C   0  0  0  0  0  0  0  0  0  0  0  0
    4.6346    1.9416    0.1239 C   0  0  0  0  0  0  0  0  0  0  0  0
    5.4468    1.0652   -0.8275 C   0  0  0  0  0  0  0  0  0  0  0  0
    6.8568    1.4051   -0.7915 N   0  0  0  0  0  0  0  0  0  0  0  0
    7.7142    0.8684    0.1337 C   0  0  0  0  0  0  0  0  0  0  0  0
    7.4286    0.0459    0.9906 O   0  0  0  0  0  0  0  0  0  0  0  0
    0.4495    0.7412   -0.0214 N   0  0  0  0  0  0  0  0  0  0  0  0
   -0.8905    0.4074   -0.0635 C   0  0  0  0  0  0  0  0  0  0  0  0
   -1.7772    1.2866   -0.4243 N   0  0  0  0  0  0  0  0  0  0  0  0
   -3.1396    0.9882   -0.4775 C   0  0  0  0  0  0  0  0  0  0  0  0
   -3.7143    0.5258   -1.6631 C   0  0  0  0  0  0  0  0  0  0  0  0
   -5.0827    0.2503   -1.7262 C   0  0  0  0  0  0  0  0  0  0  0  0
   -5.8993    0.4616   -0.6088 C   0  0  0  0  0  0  0  0  0  0  0  0
   -7.3620    0.1333   -0.6637 C   0  0  0  0  0  0  0  0  0  0  0  0
   -5.3233    0.9373    0.5752 C   0  0  0  0  0  0  0  0  0  0  0  0
   -3.9545    1.2115    0.6342 C   0  0  0  0  0  0  0  0  0  0  0  0
   -1.1016   -0.9751    0.3318 C   0  0  0  0  0  0  0  0  0  0  0  0
   -2.1879   -1.8582    0.4767 C   0  0  0  0  0  0  0  0  0  0  0  0
   -1.8157   -3.0813    0.8849 N   0  0  0  0  0  0  0  0  0  0  0  0
   -0.4741   -2.9832    1.0143 N   0  0  0  0  0  0  0  0  0  0  0  0
    0.2792   -4.1342    1.4443 C   0  0  0  0  0  0  0  0  0  0  0  0
   -0.0148   -1.7460    0.6841 C   0  0  0  0  0  0  0  0  0  0  0  0
    2.0651   -1.8579    0.9426 H   0  0  0  0  0  0  0  0  0  0  0  0
    2.6095    2.4406    0.6189 H   0  0  0  0  0  0  0  0  0  0  0  0
    2.8361    1.9318   -1.0713 H   0  0  0  0  0  0  0  0  0  0  0  0
    4.9347    1.7392    1.1596 H   0  0  0  0  0  0  0  0  0  0  0  0
    4.8633    2.9974   -0.0685 H   0  0  0  0  0  0  0  0  0  0  0  0
    5.3326    0.0057   -0.5739 H   0  0  0  0  0  0  0  0  0  0  0  0
    5.1146    1.2084   -1.8611 H   0  0  0  0  0  0  0  0  0  0  0  0
    7.2035    2.1221   -1.4146 H   0  0  0  0  0  0  0  0  0  0  0  0
    8.7351    1.2704    0.0224 H   0  0  0  0  0  0  0  0  0  0  0  0
    0.6111    1.6989   -0.2883 H   0  0  0  0  0  0  0  0  0  0  0  0
   -3.0918    0.3743   -2.5405 H   0  0  0  0  0  0  0  0  0  0  0  0
   -5.5065   -0.1249   -2.6549 H   0  0  0  0  0  0  0  0  0  0  0  0
   -7.9337    0.7833    0.0070 H   0  0  0  0  0  0  0  0  0  0  0  0
   -7.7580    0.2811   -1.6740 H   0  0  0  0  0  0  0  0  0  0  0  0
   -7.5226   -0.9083   -0.3693 H   0  0  0  0  0  0  0  0  0  0  0  0
   -5.9364    1.1028    1.4581 H   0  0  0  0  0  0  0  0  0  0  0  0
   -3.5198    1.5961    1.5526 H   0  0  0  0  0  0  0  0  0  0  0  0
   -3.2414   -1.6837    0.3055 H   0  0  0  0  0  0  0  0  0  0  0  0
   -0.3131   -4.6946    2.1725 H   0  0  0  0  0  0  0  0  0  0  0  0
    1.2116   -3.8086    1.9107 H   0  0  0  0  0  0  0  0  0  0  0  0
    0.4871   -4.7512    0.5669 H   0  0  0  0  0  0  0  0  0  0  0  0
  1  2  1  0
  2  3  2  3
  3  4  1  0
  4  5  1  0
  5  6  1  0
  6  7  1  0
  7  8  1  0
  8  9  2  0
  2 10  1  0
 10 11  1  0
 11 12  2  3
 12 13  1  0
 13 14  2  0
 14 15  1  0
 15 16  2  0
 16 17  1  0
 16 18  1  0
 18 19  2  0
 11 20  1  0
 20 21  1  0
 21 22  2  0
 22 23  1  0
 23 24  1  0
 23 25  1  0
 25  1  1  0
 19 13  1  0
 25 20  2  0
  1 26  1  0
  4 27  1  0
  4 28  1  0
  5 29  1  0
  5 30  1  0
  6 31  1  0
  6 32  1  0
  7 33  1  0
  8 34  1  0
 10 35  1  0
 14 36  1  0
 15 37  1  0
 17 38  1  0
 17 39  1  0
 17 40  1  0
 18 41  1  0
 19 42  1  0
 21 43  1  0
 24 44  1  0
 24 45  1  0
 24 46  1  0
M  END
>  <ScrubInfo>  (8) 
{"isomerGroup": 0, "isomerId": 7, "confId": 0, "nr_conformers:": 1, "nr_isomers:": 9}

$$$$
_i8
     RDKit          3D

 46 48  0  0  0  0  0  0  0  0999 V2000
    1.7976   -2.8467   -0.1115 N   0  0  0  0  0  0  0  0  0  0  0  0
    2.0565   -1.4827   -0.1819 C   0  0  0  0  0  0  0  0  0  0  0  0
    0.9502   -0.7321   -0.2806 C   0  0  0  0  0  0  0  0  0  0  0  0
    0.5432    0.6848   -0.3509 C   0  0  0  0  0  0  0  0  0  0  0  0
    1.2808    1.7549   -0.3860 N   0  0  0  0  0  0  0  0  0  0  0  0
    2.6751    1.6611   -0.3648 C   0  0  0  0  0  0  0  0  0  0  0  0
    3.3949    1.5776   -1.5583 C   0  0  0  0  0  0  0  0  0  0  0  0
    4.7900    1.5007   -1.5399 C   0  0  0  0  0  0  0  0  0  0  0  0
    5.4833    1.5117   -0.3237 C   0  0  0  0  0  0  0  0  0  0  0  0
    6.9828    1.4698   -0.3035 C   0  0  0  0  0  0  0  0  0  0  0  0
    4.7616    1.6350    0.8697 C   0  0  0  0  0  0  0  0  0  0  0  0
    3.3666    1.7119    0.8469 C   0  0  0  0  0  0  0  0  0  0  0  0
   -0.8176    0.8314   -0.3779 N   0  0  0  0  0  0  0  0  0  0  0  0
   -1.7601   -0.1573   -0.3653 C   0  0  0  0  0  0  0  0  0  0  0  0
   -3.0116    0.1800   -0.3699 N   0  0  0  0  0  0  0  0  0  0  0  0
   -3.9853   -0.9227   -0.3845 C   0  0  0  0  0  0  0  0  0  0  0  0
   -5.4058   -0.3534   -0.4434 C   0  0  0  0  0  0  0  0  0  0  0  0
   -5.8315    0.3346    0.8515 C   0  0  0  0  0  0  0  0  0  0  0  0
   -5.0586    1.5279    1.1074 N   0  0  0  0  0  0  0  0  0  0  0  0
   -5.3959    2.4124    2.0940 C   0  0  0  0  0  0  0  0  0  0  0  0
   -6.4041    2.3663    2.7836 O   0  0  0  0  0  0  0  0  0  0  0  0
   -1.4057   -1.4891   -0.3488 N   0  0  0  0  0  0  0  0  0  0  0  0
   -0.1397   -1.7708   -0.3239 C   0  0  0  0  0  0  0  0  0  0  0  0
    0.4404   -3.0415   -0.3217 N   0  0  0  0  0  0  0  0  0  0  0  0
   -0.2184   -4.1644    0.3181 C   0  0  0  0  0  0  0  0  0  0  0  0
    2.4304   -3.4101   -0.6843 H   0  0  0  0  0  0  0  0  0  0  0  0
    3.0859   -1.1564   -0.1509 H   0  0  0  0  0  0  0  0  0  0  0  0
    2.8656    1.5796   -2.5072 H   0  0  0  0  0  0  0  0  0  0  0  0
    5.3309    1.4422   -2.4817 H   0  0  0  0  0  0  0  0  0  0  0  0
    7.3474    0.9890    0.6104 H   0  0  0  0  0  0  0  0  0  0  0  0
    7.3684    0.8922   -1.1501 H   0  0  0  0  0  0  0  0  0  0  0  0
    7.3863    2.4857   -0.3545 H   0  0  0  0  0  0  0  0  0  0  0  0
    5.2801    1.6809    1.8248 H   0  0  0  0  0  0  0  0  0  0  0  0
    2.8154    1.8171    1.7773 H   0  0  0  0  0  0  0  0  0  0  0  0
   -1.1657    1.7763   -0.4293 H   0  0  0  0  0  0  0  0  0  0  0  0
   -3.8335   -1.5451   -1.2751 H   0  0  0  0  0  0  0  0  0  0  0  0
   -3.8793   -1.5512    0.5081 H   0  0  0  0  0  0  0  0  0  0  0  0
   -6.1006   -1.1791   -0.6375 H   0  0  0  0  0  0  0  0  0  0  0  0
   -5.4901    0.3477   -1.2830 H   0  0  0  0  0  0  0  0  0  0  0  0
   -6.8893    0.6161    0.7979 H   0  0  0  0  0  0  0  0  0  0  0  0
   -5.7118   -0.3355    1.7102 H   0  0  0  0  0  0  0  0  0  0  0  0
   -4.1148    1.5436    0.7280 H   0  0  0  0  0  0  0  0  0  0  0  0
   -4.6374    3.2043    2.2098 H   0  0  0  0  0  0  0  0  0  0  0  0
   -1.2268   -4.3012   -0.0854 H   0  0  0  0  0  0  0  0  0  0  0  0
   -0.2913   -4.0078    1.3994 H   0  0  0  0  0  0  0  0  0  0  0  0
    0.3413   -5.0879    0.1373 H   0  0  0  0  0  0  0  0  0  0  0  0
  1  2  1  0
  2  3  2  0
  3  4  1  0
  4  5  2  3
  5  6  1  0
  6  7  2  0
  7  8  1  0
  8  9  2  0
  9 10  1  0
  9 11  1  0
 11 12  2  0
  4 13  1  0
 13 14  1  0
 14 15  2  3
 15 16  1  0
 16 17  1  0
 17 18  1  0
 18 19  1  0
 19 20  1  0
 20 21  2  0
 14 22  1  0
 22 23  2  0
 23 24  1  0
 24 25  1  0
 24  1  1  0
 23  3  1  0
 12  6  1  0
  1 26  1  0
  2 27  1  0
  7 28  1  0
  8 29  1  0
 10 30  1  0
 10 31  1  0
 10 32  1  0
 11 33  1  0
 12 34  1  0
 13 35  1  0
 16 36  1  0
 16 37  1  0
 17 38  1  0
 17 39  1  0
 18 40  1  0
 18 41  1  0
 19 42  1  0
 20 43  1  0
 25 44  1  0
 25 45  1  0
 25 46  1  0
M  END
>  <ScrubInfo>  (9) 
{"isomerGroup": 0, "isomerId": 8, "confId": 0, "nr_conformers:": 1, "nr_isomers:": 9}

$$$$
