REMARK SMILES Cc1ccc(Nc2nc(NCCCNC=O)nc3c2cnn3C)cc1
REMARK SMILES IDX 10 1 9 3 7 4 8 5 19 6 18 7 20 8 17 9 22 10 21 11 23 12 6 13
REMARK SMILES IDX 5 15 2 16 3 17 25 18 4 19 24 20 1 21 11 22 12 23 13 24 14 25
REMARK SMILES IDX 15 26 16 28
REMARK H PARENT 10 2 6 14 14 27
ROOT
ATOM      1  N   UNL     1       1.687   0.229   0.964  1.00  0.00    -0.354 N 
ATOM      2  H   UNL     1       1.139   1.070   0.808  1.00  0.00     0.163 HD
ENDROOT
BRANCH   1   3
ATOM      3  C   UNL     1       0.886  -0.812   0.506  1.00  0.00     0.226 A 
ATOM      4  C   UNL     1      -1.314  -1.402  -0.092  1.00  0.00     0.147 A 
ATOM      5  N   UNL     1      -0.408  -0.486   0.340  1.00  0.00    -0.195 NA
ATOM      6  C   UNL     1      -0.826  -2.688  -0.360  1.00  0.00     0.082 A 
ATOM      7  C   UNL     1       0.522  -2.910  -0.157  1.00  0.00     0.165 A 
ATOM      8  C   UNL     1      -1.320  -3.932  -0.808  1.00  0.00     0.149 A 
ATOM      9  N   UNL     1       1.425  -2.015   0.267  1.00  0.00    -0.193 NA
ATOM     10  N   UNL     1       0.742  -4.222  -0.475  1.00  0.00    -0.250 N 
ATOM     11  N   UNL     1      -0.372  -4.872  -0.888  1.00  0.00    -0.179 NA
ATOM     12  C   UNL     1       1.994  -4.933  -0.410  1.00  0.00     0.176 C 
BRANCH   4  13
ATOM     13  N   UNL     1      -2.665  -1.079  -0.289  1.00  0.00    -0.339 N 
ATOM     14  H   UNL     1      -3.217  -1.842  -0.654  1.00  0.00     0.168 HD
BRANCH  13  15
ATOM     15  C   UNL     1      -3.416   0.074   0.001  1.00  0.00     0.040 A 
ATOM     16  C   UNL     1      -5.025   2.366   0.467  1.00  0.00    -0.051 A 
ATOM     17  C   UNL     1      -3.715   2.301   0.947  1.00  0.00     0.005 A 
ATOM     18  C   UNL     1      -5.521   1.290  -0.271  1.00  0.00     0.005 A 
ATOM     19  C   UNL     1      -2.924   1.169   0.716  1.00  0.00     0.026 A 
ATOM     20  C   UNL     1      -4.726   0.161  -0.497  1.00  0.00     0.026 A 
ATOM     21  C   UNL     1      -5.857   3.594   0.685  1.00  0.00     0.044 C 
ENDBRANCH  13  15
ENDBRANCH   4  13
ENDBRANCH   1   3
BRANCH   1  22
ATOM     22  C   UNL     1       3.025   0.252   0.397  1.00  0.00     0.118 C 
BRANCH  22  23
ATOM     23  C   UNL     1       3.765   1.491   0.900  1.00  0.00     0.042 C 
BRANCH  23  24
ATOM     24  C   UNL     1       5.219   1.524   0.434  1.00  0.00     0.117 C 
BRANCH  24  25
ATOM     25  N   UNL     1       5.358   1.650  -1.002  1.00  0.00    -0.359 N 
ATOM     26  C   UNL     1       5.191   2.850  -1.645  1.00  0.00     0.337 C 
ATOM     27  H   UNL     1       5.625   0.841  -1.549  1.00  0.00     0.163 HD
ATOM     28  O   UNL     1       4.895   3.909  -1.112  1.00  0.00    -0.279 OA
ENDBRANCH  24  25
ENDBRANCH  23  24
ENDBRANCH  22  23
ENDBRANCH   1  22
TORSDOF 7
