_i0
     RDKit          3D

 47 50  0  0  0  0  0  0  0  0999 V2000
   -6.0269   -3.0095   -0.3662 C   0  0  0  0  0  0  0  0  0  0  0  0
   -5.0320   -1.8887   -0.3968 C   0  0  0  0  0  0  0  0  0  0  0  0
   -5.2511   -0.7631   -1.1926 C   0  0  0  0  0  0  0  0  0  0  0  0
   -4.3334    0.2934   -1.1906 C   0  0  0  0  0  0  0  0  0  0  0  0
   -3.1866    0.2693   -0.3808 C   0  0  0  0  0  0  0  0  0  0  0  0
   -2.2903    1.3448   -0.4664 N   0  0  0  0  0  0  0  0  0  0  0  0
   -1.0328    1.6141    0.1413 C   0  0  0  0  0  0  0  0  0  0  0  0
   -0.3858    0.6633    0.8390 N   0  0  0  0  0  0  0  0  0  0  0  0
    0.8045    0.9657    1.3544 C   0  0  0  0  0  0  0  0  0  0  0  0
    1.5105    0.0242    2.0815 N   0  0  0  0  0  0  0  0  0  0  0  0
    1.3656   -1.3669    1.6690 C   0  0  0  0  0  0  0  0  0  0  0  0
    2.0006   -1.6673    0.3022 C   0  0  0  0  0  0  0  0  0  0  0  0
    3.5015   -1.4870    0.2891 C   0  0  0  0  0  0  0  0  0  0  0  0
    4.3426   -2.4921    0.7861 C   0  0  0  0  0  0  0  0  0  0  0  0
    5.7271   -2.3156    0.7935 C   0  0  0  0  0  0  0  0  0  0  0  0
    6.2833   -1.1337    0.3079 C   0  0  0  0  0  0  0  0  0  0  0  0
    5.4560   -0.1274   -0.1863 C   0  0  0  0  0  0  0  0  0  0  0  0
    4.0716   -0.3023   -0.1967 C   0  0  0  0  0  0  0  0  0  0  0  0
    1.3990    2.1439    1.2026 N   0  0  0  0  0  0  0  0  0  0  0  0
    0.7627    3.0779    0.5084 C   0  0  0  0  0  0  0  0  0  0  0  0
    1.3760    4.2593    0.3597 N   0  0  0  0  0  0  0  0  0  0  0  0
    0.7417    5.2227   -0.3459 C   0  0  0  0  0  0  0  0  0  0  0  0
   -0.4971    5.0252   -0.9116 C   0  0  0  0  0  0  0  0  0  0  0  0
   -1.1451    3.8518   -0.7904 N   0  0  0  0  0  0  0  0  0  0  0  0
   -0.4960    2.8803   -0.0721 C   0  0  0  0  0  0  0  0  0  0  0  0
   -2.9784   -0.8650    0.4065 C   0  0  0  0  0  0  0  0  0  0  0  0
   -3.8934   -1.9261    0.4112 C   0  0  0  0  0  0  0  0  0  0  0  0
   -5.5330   -3.9647   -0.1592 H   0  0  0  0  0  0  0  0  0  0  0  0
   -6.5335   -3.1089   -1.3320 H   0  0  0  0  0  0  0  0  0  0  0  0
   -6.7767   -2.8235    0.4089 H   0  0  0  0  0  0  0  0  0  0  0  0
   -6.1332   -0.6993   -1.8252 H   0  0  0  0  0  0  0  0  0  0  0  0
   -4.5259    1.1460   -1.8376 H   0  0  0  0  0  0  0  0  0  0  0  0
   -2.6792    2.1962   -0.8669 H   0  0  0  0  0  0  0  0  0  0  0  0
    2.4713    0.3497    2.1459 H   0  0  0  0  0  0  0  0  0  0  0  0
    0.3088   -1.6603    1.6603 H   0  0  0  0  0  0  0  0  0  0  0  0
    1.8409   -1.9900    2.4364 H   0  0  0  0  0  0  0  0  0  0  0  0
    1.7739   -2.7052    0.0258 H   0  0  0  0  0  0  0  0  0  0  0  0
    1.5489   -1.0493   -0.4834 H   0  0  0  0  0  0  0  0  0  0  0  0
    3.9250   -3.4197    1.1708 H   0  0  0  0  0  0  0  0  0  0  0  0
    6.3724   -3.1002    1.1797 H   0  0  0  0  0  0  0  0  0  0  0  0
    7.3612   -0.9960    0.3157 H   0  0  0  0  0  0  0  0  0  0  0  0
    5.8877    0.7967   -0.5620 H   0  0  0  0  0  0  0  0  0  0  0  0
    3.4405    0.4969   -0.5808 H   0  0  0  0  0  0  0  0  0  0  0  0
    1.2692    6.1655   -0.4403 H   0  0  0  0  0  0  0  0  0  0  0  0
   -1.0002    5.8019   -1.4760 H   0  0  0  0  0  0  0  0  0  0  0  0
   -2.1094   -0.9446    1.0508 H   0  0  0  0  0  0  0  0  0  0  0  0
   -3.7024   -2.7823    1.0540 H   0  0  0  0  0  0  0  0  0  0  0  0
  1  2  1  0
  2  3  2  0
  3  4  1  0
  4  5  2  0
  5  6  1  0
  6  7  1  0
  7  8  2  0
  8  9  1  0
  9 10  1  0
 10 11  1  0
 11 12  1  0
 12 13  1  0
 13 14  2  0
 14 15  1  0
 15 16  2  0
 16 17  1  0
 17 18  2  0
  9 19  2  0
 19 20  1  0
 20 21  2  0
 21 22  1  0
 22 23  2  0
 23 24  1  0
 24 25  2  0
  5 26  1  0
 26 27  2  0
 27  2  1  0
 25  7  1  0
 18 13  1  0
 25 20  1  0
  1 28  1  0
  1 29  1  0
  1 30  1  0
  3 31  1  0
  4 32  1  0
  6 33  1  0
 10 34  1  0
 11 35  1  0
 11 36  1  0
 12 37  1  0
 12 38  1  0
 14 39  1  0
 15 40  1  0
 16 41  1  0
 17 42  1  0
 18 43  1  0
 22 44  1  0
 23 45  1  0
 26 46  1  0
 27 47  1  0
M  END
>  <ScrubInfo>  (1) 
{"isomerGroup": 0, "isomerId": 0, "confId": 0, "nr_conformers:": 1, "nr_isomers:": 9}

$$$$
_i1
     RDKit          3D

 47 50  0  0  0  0  0  0  0  0999 V2000
    0.1406   -0.0227   -0.8741 N   0  0  0  0  0  0  0  0  0  0  0  0
    0.7899   -0.9669   -1.6033 C   0  0  0  0  0  0  0  0  0  0  0  0
    2.1332   -0.8073   -1.7718 N   0  0  0  0  0  0  0  0  0  0  0  0
    3.0329   -0.4584   -0.6774 C   0  0  0  0  0  0  0  0  0  0  0  0
    4.4766   -0.3895   -1.1844 C   0  0  0  0  0  0  0  0  0  0  0  0
    5.4378   -0.0206   -0.0828 C   0  0  0  0  0  0  0  0  0  0  0  0
    5.9992   -1.0130    0.7321 C   0  0  0  0  0  0  0  0  0  0  0  0
    6.8698   -0.6681    1.7669 C   0  0  0  0  0  0  0  0  0  0  0  0
    7.1841    0.6696    1.9985 C   0  0  0  0  0  0  0  0  0  0  0  0
    6.6282    1.6641    1.1961 C   0  0  0  0  0  0  0  0  0  0  0  0
    5.7573    1.3219    0.1606 C   0  0  0  0  0  0  0  0  0  0  0  0
    0.1909   -1.9830   -2.1486 N   0  0  0  0  0  0  0  0  0  0  0  0
   -1.2007   -2.0766   -1.9241 C   0  0  0  0  0  0  0  0  0  0  0  0
   -1.7774   -3.1712   -2.4784 N   0  0  0  0  0  0  0  0  0  0  0  0
   -3.1102   -3.2969   -2.2792 C   0  0  0  0  0  0  0  0  0  0  0  0
   -3.8517   -2.3761   -1.5547 C   0  0  0  0  0  0  0  0  0  0  0  0
   -3.2990   -1.2806   -0.9919 N   0  0  0  0  0  0  0  0  0  0  0  0
   -1.9632   -1.1481   -1.1923 C   0  0  0  0  0  0  0  0  0  0  0  0
   -1.2116    0.0196   -0.6291 C   0  0  0  0  0  0  0  0  0  0  0  0
   -1.6561    1.0540    0.0389 N   0  0  0  0  0  0  0  0  0  0  0  0
   -3.0131    1.2138    0.3363 C   0  0  0  0  0  0  0  0  0  0  0  0
   -3.8503    1.9111   -0.5370 C   0  0  0  0  0  0  0  0  0  0  0  0
   -5.1954    2.1171   -0.2179 C   0  0  0  0  0  0  0  0  0  0  0  0
   -5.7145    1.6501    0.9956 C   0  0  0  0  0  0  0  0  0  0  0  0
   -7.1650    1.8403    1.3252 C   0  0  0  0  0  0  0  0  0  0  0  0
   -4.8718    0.9587    1.8741 C   0  0  0  0  0  0  0  0  0  0  0  0
   -3.5274    0.7551    1.5505 C   0  0  0  0  0  0  0  0  0  0  0  0
    0.6398    0.8101   -0.6019 H   0  0  0  0  0  0  0  0  0  0  0  0
    2.4820   -1.5973   -2.3138 H   0  0  0  0  0  0  0  0  0  0  0  0
    2.9456   -1.2092    0.1173 H   0  0  0  0  0  0  0  0  0  0  0  0
    2.7502    0.5099   -0.2491 H   0  0  0  0  0  0  0  0  0  0  0  0
    4.5550    0.3389   -2.0021 H   0  0  0  0  0  0  0  0  0  0  0  0
    4.7727   -1.3527   -1.6202 H   0  0  0  0  0  0  0  0  0  0  0  0
    5.7645   -2.0623    0.5662 H   0  0  0  0  0  0  0  0  0  0  0  0
    7.3038   -1.4435    2.3929 H   0  0  0  0  0  0  0  0  0  0  0  0
    7.8628    0.9372    2.8042 H   0  0  0  0  0  0  0  0  0  0  0  0
    6.8738    2.7075    1.3769 H   0  0  0  0  0  0  0  0  0  0  0  0
    5.3323    2.1113   -0.4557 H   0  0  0  0  0  0  0  0  0  0  0  0
   -3.5730   -4.1711   -2.7239 H   0  0  0  0  0  0  0  0  0  0  0  0
   -4.9193   -2.4976   -1.4076 H   0  0  0  0  0  0  0  0  0  0  0  0
   -3.4518    2.2903   -1.4730 H   0  0  0  0  0  0  0  0  0  0  0  0
   -5.8312    2.6483   -0.9216 H   0  0  0  0  0  0  0  0  0  0  0  0
   -7.5493    2.7636    0.8791 H   0  0  0  0  0  0  0  0  0  0  0  0
   -7.3129    1.9170    2.4075 H   0  0  0  0  0  0  0  0  0  0  0  0
   -7.7483    0.9950    0.9473 H   0  0  0  0  0  0  0  0  0  0  0  0
   -5.2528    0.5772    2.8180 H   0  0  0  0  0  0  0  0  0  0  0  0
   -2.8767    0.2312    2.2438 H   0  0  0  0  0  0  0  0  0  0  0  0
  1  2  1  0
  2  3  1  0
  3  4  1  0
  4  5  1  0
  5  6  1  0
  6  7  2  0
  7  8  1  0
  8  9  2  0
  9 10  1  0
 10 11  2  0
  2 12  2  0
 12 13  1  0
 13 14  2  0
 14 15  1  0
 15 16  2  0
 16 17  1  0
 17 18  2  0
 18 19  1  0
 19 20  2  3
 20 21  1  0
 21 22  2  0
 22 23  1  0
 23 24  2  0
 24 25  1  0
 24 26  1  0
 26 27  2  0
 19  1  1  0
 27 21  1  0
 11  6  1  0
 18 13  1  0
  1 28  1  0
  3 29  1  0
  4 30  1  0
  4 31  1  0
  5 32  1  0
  5 33  1  0
  7 34  1  0
  8 35  1  0
  9 36  1  0
 10 37  1  0
 11 38  1  0
 15 39  1  0
 16 40  1  0
 22 41  1  0
 23 42  1  0
 25 43  1  0
 25 44  1  0
 25 45  1  0
 26 46  1  0
 27 47  1  0
M  END
>  <ScrubInfo>  (2) 
{"isomerGroup": 0, "isomerId": 1, "confId": 0, "nr_conformers:": 1, "nr_isomers:": 9}

$$$$
_i2
     RDKit          3D

 47 50  0  0  0  0  0  0  0  0999 V2000
    0.3871   -0.8308   -1.6860 N   0  0  0  0  0  0  0  0  0  0  0  0
    1.4284   -1.3221   -0.9341 C   0  0  0  0  0  0  0  0  0  0  0  0
    2.7089   -1.3106   -1.4762 N   0  0  0  0  0  0  0  0  0  0  0  0
    3.7839   -0.4969   -1.0390 C   0  0  0  0  0  0  0  0  0  0  0  0
    5.0004   -0.5786   -1.7330 C   0  0  0  0  0  0  0  0  0  0  0  0
    6.1147    0.1673   -1.3349 C   0  0  0  0  0  0  0  0  0  0  0  0
    6.0397    1.0112   -0.2243 C   0  0  0  0  0  0  0  0  0  0  0  0
    7.2408    1.7866    0.2275 C   0  0  0  0  0  0  0  0  0  0  0  0
    4.8446    1.0679    0.4980 C   0  0  0  0  0  0  0  0  0  0  0  0
    3.7324    0.3180    0.0968 C   0  0  0  0  0  0  0  0  0  0  0  0
    1.1462   -1.8573    0.2837 C   0  0  0  0  0  0  0  0  0  0  0  0
    2.0855   -2.4368    1.1114 N   0  0  0  0  0  0  0  0  0  0  0  0
    1.6357   -2.9093    2.2228 C   0  0  0  0  0  0  0  0  0  0  0  0
    0.1983   -2.8398    2.6075 C   0  0  0  0  0  0  0  0  0  0  0  0
   -0.7040   -2.3081    1.8578 N   0  0  0  0  0  0  0  0  0  0  0  0
   -0.3262   -1.7833    0.6430 C   0  0  0  0  0  0  0  0  0  0  0  0
   -1.2775   -1.2755   -0.0655 N   0  0  0  0  0  0  0  0  0  0  0  0
   -0.9055   -0.7501   -1.2688 C   0  0  0  0  0  0  0  0  0  0  0  0
   -1.7631   -0.1531   -2.0282 N   0  0  0  0  0  0  0  0  0  0  0  0
   -3.1576   -0.0851   -1.5724 C   0  0  0  0  0  0  0  0  0  0  0  0
   -3.3665    1.1400   -0.6797 C   0  0  0  0  0  0  0  0  0  0  0  0
   -4.7910    1.2485   -0.1942 C   0  0  0  0  0  0  0  0  0  0  0  0
   -5.7130    2.0668   -0.8591 C   0  0  0  0  0  0  0  0  0  0  0  0
   -7.0330    2.1501   -0.4130 C   0  0  0  0  0  0  0  0  0  0  0  0
   -7.4433    1.4137    0.6973 C   0  0  0  0  0  0  0  0  0  0  0  0
   -6.5348    0.5916    1.3617 C   0  0  0  0  0  0  0  0  0  0  0  0
   -5.2147    0.5074    0.9175 C   0  0  0  0  0  0  0  0  0  0  0  0
    0.6058   -0.3266   -2.5311 H   0  0  0  0  0  0  0  0  0  0  0  0
    2.6960   -1.3534   -2.4899 H   0  0  0  0  0  0  0  0  0  0  0  0
    5.0953   -1.2394   -2.5912 H   0  0  0  0  0  0  0  0  0  0  0  0
    7.0422    0.0769   -1.8955 H   0  0  0  0  0  0  0  0  0  0  0  0
    7.8748    2.0557   -0.6239 H   0  0  0  0  0  0  0  0  0  0  0  0
    7.8286    1.1899    0.9317 H   0  0  0  0  0  0  0  0  0  0  0  0
    6.9419    2.7195    0.7169 H   0  0  0  0  0  0  0  0  0  0  0  0
    4.7674    1.6939    1.3840 H   0  0  0  0  0  0  0  0  0  0  0  0
    2.8259    0.3932    0.6889 H   0  0  0  0  0  0  0  0  0  0  0  0
    2.2976   -3.3940    2.9565 H   0  0  0  0  0  0  0  0  0  0  0  0
   -0.0478   -3.2763    3.5873 H   0  0  0  0  0  0  0  0  0  0  0  0
   -3.4791   -1.0107   -1.0782 H   0  0  0  0  0  0  0  0  0  0  0  0
   -3.7922    0.0002   -2.4634 H   0  0  0  0  0  0  0  0  0  0  0  0
   -3.0899    2.0502   -1.2274 H   0  0  0  0  0  0  0  0  0  0  0  0
   -2.6956    1.1090    0.1880 H   0  0  0  0  0  0  0  0  0  0  0  0
   -5.4072    2.6427   -1.7294 H   0  0  0  0  0  0  0  0  0  0  0  0
   -7.7416    2.7884   -0.9336 H   0  0  0  0  0  0  0  0  0  0  0  0
   -8.4713    1.4782    1.0429 H   0  0  0  0  0  0  0  0  0  0  0  0
   -6.8534    0.0133    2.2246 H   0  0  0  0  0  0  0  0  0  0  0  0
   -4.5138   -0.1424    1.4388 H   0  0  0  0  0  0  0  0  0  0  0  0
  1  2  1  0
  2  3  1  0
  3  4  1  0
  4  5  2  0
  5  6  1  0
  6  7  2  0
  7  8  1  0
  7  9  1  0
  9 10  2  0
  2 11  2  0
 11 12  1  0
 12 13  2  0
 13 14  1  0
 14 15  2  0
 15 16  1  0
 16 17  2  0
 17 18  1  0
 18 19  2  3
 19 20  1  0
 20 21  1  0
 21 22  1  0
 22 23  2  0
 23 24  1  0
 24 25  2  0
 25 26  1  0
 26 27  2  0
 18  1  1  0
 27 22  1  0
 10  4  1  0
 16 11  1  0
  1 28  1  0
  3 29  1  0
  5 30  1  0
  6 31  1  0
  8 32  1  0
  8 33  1  0
  8 34  1  0
  9 35  1  0
 10 36  1  0
 13 37  1  0
 14 38  1  0
 20 39  1  0
 20 40  1  0
 21 41  1  0
 21 42  1  0
 23 43  1  0
 24 44  1  0
 25 45  1  0
 26 46  1  0
 27 47  1  0
M  END
>  <ScrubInfo>  (3) 
{"isomerGroup": 0, "isomerId": 2, "confId": 0, "nr_conformers:": 1, "nr_isomers:": 9}

$$$$
_i3
     RDKit          3D

 47 50  0  0  0  0  0  0  0  0999 V2000
   -0.8731   -2.3384   -1.4206 N   0  0  0  0  0  0  0  0  0  0  0  0
   -0.7738   -1.0084   -1.1407 C   0  0  0  0  0  0  0  0  0  0  0  0
   -1.7418   -0.1673   -1.0852 N   0  0  0  0  0  0  0  0  0  0  0  0
   -3.1214   -0.5773   -1.3361 C   0  0  0  0  0  0  0  0  0  0  0  0
   -3.7860   -1.1280   -0.0680 C   0  0  0  0  0  0  0  0  0  0  0  0
   -4.2115   -0.0650    0.9187 C   0  0  0  0  0  0  0  0  0  0  0  0
   -5.5708    0.2064    1.1301 C   0  0  0  0  0  0  0  0  0  0  0  0
   -5.9657    1.1827    2.0473 C   0  0  0  0  0  0  0  0  0  0  0  0
   -5.0072    1.8980    2.7621 C   0  0  0  0  0  0  0  0  0  0  0  0
   -3.6537    1.6381    2.5599 C   0  0  0  0  0  0  0  0  0  0  0  0
   -3.2579    0.6614    1.6445 C   0  0  0  0  0  0  0  0  0  0  0  0
    0.4418   -0.4283   -0.8688 N   0  0  0  0  0  0  0  0  0  0  0  0
    1.5364   -1.1336   -0.8688 C   0  0  0  0  0  0  0  0  0  0  0  0
    2.8018   -0.6366   -0.6054 N   0  0  0  0  0  0  0  0  0  0  0  0
    3.2277    0.6602   -0.2740 C   0  0  0  0  0  0  0  0  0  0  0  0
    2.3793    1.7635   -0.1561 C   0  0  0  0  0  0  0  0  0  0  0  0
    2.8747    3.0312    0.1775 C   0  0  0  0  0  0  0  0  0  0  0  0
    4.2375    3.2259    0.4121 C   0  0  0  0  0  0  0  0  0  0  0  0
    4.7683    4.5899    0.7351 C   0  0  0  0  0  0  0  0  0  0  0  0
    5.1004    2.1368    0.2821 C   0  0  0  0  0  0  0  0  0  0  0  0
    4.5988    0.8733   -0.0514 C   0  0  0  0  0  0  0  0  0  0  0  0
    1.4962   -2.5973   -1.1665 C   0  0  0  0  0  0  0  0  0  0  0  0
    2.6676   -3.2951   -1.1524 N   0  0  0  0  0  0  0  0  0  0  0  0
    2.5182   -4.6094   -1.4304 C   0  0  0  0  0  0  0  0  0  0  0  0
    1.2800   -5.1794   -1.7021 C   0  0  0  0  0  0  0  0  0  0  0  0
    0.1246   -4.4657   -1.7106 N   0  0  0  0  0  0  0  0  0  0  0  0
    0.2490   -3.1468   -1.4354 C   0  0  0  0  0  0  0  0  0  0  0  0
   -1.7483   -2.7885   -1.6144 H   0  0  0  0  0  0  0  0  0  0  0  0
   -3.1706   -1.3229   -2.1382 H   0  0  0  0  0  0  0  0  0  0  0  0
   -3.6770    0.2920   -1.7077 H   0  0  0  0  0  0  0  0  0  0  0  0
   -3.1277   -1.8405    0.4443 H   0  0  0  0  0  0  0  0  0  0  0  0
   -4.6712   -1.7020   -0.3707 H   0  0  0  0  0  0  0  0  0  0  0  0
   -6.3340   -0.3395    0.5809 H   0  0  0  0  0  0  0  0  0  0  0  0
   -7.0217    1.3864    2.2020 H   0  0  0  0  0  0  0  0  0  0  0  0
   -5.3136    2.6602    3.4730 H   0  0  0  0  0  0  0  0  0  0  0  0
   -2.9017    2.1980    3.1093 H   0  0  0  0  0  0  0  0  0  0  0  0
   -2.1957    0.4778    1.4914 H   0  0  0  0  0  0  0  0  0  0  0  0
    3.5428   -1.3318   -0.6433 H   0  0  0  0  0  0  0  0  0  0  0  0
    1.3100    1.6718   -0.3232 H   0  0  0  0  0  0  0  0  0  0  0  0
    2.1772    3.8629    0.2508 H   0  0  0  0  0  0  0  0  0  0  0  0
    5.6657    4.5223    1.3591 H   0  0  0  0  0  0  0  0  0  0  0  0
    5.0186    5.1225   -0.1876 H   0  0  0  0  0  0  0  0  0  0  0  0
    4.0291    5.1748    1.2924 H   0  0  0  0  0  0  0  0  0  0  0  0
    6.1692    2.2602    0.4391 H   0  0  0  0  0  0  0  0  0  0  0  0
    5.3018    0.0484   -0.1386 H   0  0  0  0  0  0  0  0  0  0  0  0
    3.4250   -5.2051   -1.4306 H   0  0  0  0  0  0  0  0  0  0  0  0
    1.1830   -6.2376   -1.9226 H   0  0  0  0  0  0  0  0  0  0  0  0
  1  2  1  0
  2  3  2  3
  3  4  1  0
  4  5  1  0
  5  6  1  0
  6  7  2  0
  7  8  1  0
  8  9  2  0
  9 10  1  0
 10 11  2  0
  2 12  1  0
 12 13  2  0
 13 14  1  0
 14 15  1  0
 15 16  2  0
 16 17  1  0
 17 18  2  0
 18 19  1  0
 18 20  1  0
 20 21  2  0
 13 22  1  0
 22 23  2  0
 23 24  1  0
 24 25  2  0
 25 26  1  0
 26 27  2  0
 27  1  1  0
 11  6  1  0
 21 15  1  0
 27 22  1  0
  1 28  1  0
  4 29  1  0
  4 30  1  0
  5 31  1  0
  5 32  1  0
  7 33  1  0
  8 34  1  0
  9 35  1  0
 10 36  1  0
 11 37  1  0
 14 38  1  0
 16 39  1  0
 17 40  1  0
 19 41  1  0
 19 42  1  0
 19 43  1  0
 20 44  1  0
 21 45  1  0
 24 46  1  0
 25 47  1  0
M  END
>  <ScrubInfo>  (4) 
{"isomerGroup": 0, "isomerId": 3, "confId": 0, "nr_conformers:": 1, "nr_isomers:": 9}

$$$$
_i4
     RDKit          3D

 47 50  0  0  0  0  0  0  0  0999 V2000
   -0.1584   -2.5542   -1.8690 N   0  0  0  0  0  0  0  0  0  0  0  0
   -0.9430   -1.6098   -1.2971 C   0  0  0  0  0  0  0  0  0  0  0  0
   -2.2742   -1.8691   -1.4818 N   0  0  0  0  0  0  0  0  0  0  0  0
   -3.2941   -0.9158   -1.0448 C   0  0  0  0  0  0  0  0  0  0  0  0
   -3.5216   -0.9988    0.4676 C   0  0  0  0  0  0  0  0  0  0  0  0
   -4.5842   -0.0281    0.9215 C   0  0  0  0  0  0  0  0  0  0  0  0
   -4.2459    1.3038    1.1977 C   0  0  0  0  0  0  0  0  0  0  0  0
   -5.2260    2.2131    1.5965 C   0  0  0  0  0  0  0  0  0  0  0  0
   -6.5516    1.8008    1.7199 C   0  0  0  0  0  0  0  0  0  0  0  0
   -6.8983    0.4791    1.4443 C   0  0  0  0  0  0  0  0  0  0  0  0
   -5.9197   -0.4326    1.0448 C   0  0  0  0  0  0  0  0  0  0  0  0
   -0.5080   -0.5817   -0.6438 N   0  0  0  0  0  0  0  0  0  0  0  0
    0.8568   -0.3778   -0.5120 C   0  0  0  0  0  0  0  0  0  0  0  0
    1.1429    0.7659    0.0381 N   0  0  0  0  0  0  0  0  0  0  0  0
    2.4576    1.1850    0.2525 C   0  0  0  0  0  0  0  0  0  0  0  0
    3.1388    1.9088   -0.7285 C   0  0  0  0  0  0  0  0  0  0  0  0
    4.4368    2.3725   -0.4961 C   0  0  0  0  0  0  0  0  0  0  0  0
    5.0688    2.1231    0.7281 C   0  0  0  0  0  0  0  0  0  0  0  0
    6.4467    2.6515    0.9935 C   0  0  0  0  0  0  0  0  0  0  0  0
    4.3700    1.4319    1.7251 C   0  0  0  0  0  0  0  0  0  0  0  0
    3.0722    0.9704    1.4877 C   0  0  0  0  0  0  0  0  0  0  0  0
    1.7966   -1.4462   -0.9935 C   0  0  0  0  0  0  0  0  0  0  0  0
    3.1343   -1.3692   -0.7649 N   0  0  0  0  0  0  0  0  0  0  0  0
    3.8630   -2.4065   -1.2262 C   0  0  0  0  0  0  0  0  0  0  0  0
    3.2867   -3.4801   -1.8835 C   0  0  0  0  0  0  0  0  0  0  0  0
    1.9542   -3.5659   -2.1120 N   0  0  0  0  0  0  0  0  0  0  0  0
    1.2114   -2.5266   -1.6545 C   0  0  0  0  0  0  0  0  0  0  0  0
   -0.5206   -3.4213   -2.2277 H   0  0  0  0  0  0  0  0  0  0  0  0
   -2.4908   -2.2715   -2.3857 H   0  0  0  0  0  0  0  0  0  0  0  0
   -3.0240    0.1006   -1.3571 H   0  0  0  0  0  0  0  0  0  0  0  0
   -4.2295   -1.1586   -1.5641 H   0  0  0  0  0  0  0  0  0  0  0  0
   -2.5959   -0.7986    1.0203 H   0  0  0  0  0  0  0  0  0  0  0  0
   -3.8109   -2.0206    0.7459 H   0  0  0  0  0  0  0  0  0  0  0  0
   -3.2130    1.6375    1.1045 H   0  0  0  0  0  0  0  0  0  0  0  0
   -4.9528    3.2428    1.8118 H   0  0  0  0  0  0  0  0  0  0  0  0
   -7.3135    2.5097    2.0325 H   0  0  0  0  0  0  0  0  0  0  0  0
   -7.9319    0.1580    1.5423 H   0  0  0  0  0  0  0  0  0  0  0  0
   -6.2057   -1.4603    0.8342 H   0  0  0  0  0  0  0  0  0  0  0  0
    2.6500    2.1160   -1.6756 H   0  0  0  0  0  0  0  0  0  0  0  0
    4.9455    2.9347   -1.2750 H   0  0  0  0  0  0  0  0  0  0  0  0
    7.0342    2.6914    0.0702 H   0  0  0  0  0  0  0  0  0  0  0  0
    6.9854    2.0034    1.6928 H   0  0  0  0  0  0  0  0  0  0  0  0
    6.3863    3.6581    1.4185 H   0  0  0  0  0  0  0  0  0  0  0  0
    4.8260    1.2520    2.6952 H   0  0  0  0  0  0  0  0  0  0  0  0
    2.5316    0.4425    2.2676 H   0  0  0  0  0  0  0  0  0  0  0  0
    4.9317   -2.3517   -1.0506 H   0  0  0  0  0  0  0  0  0  0  0  0
    3.8860   -4.3076   -2.2475 H   0  0  0  0  0  0  0  0  0  0  0  0
  1  2  1  0
  2  3  1  0
  3  4  1  0
  4  5  1  0
  5  6  1  0
  6  7  2  0
  7  8  1  0
  8  9  2  0
  9 10  1  0
 10 11  2  0
  2 12  2  0
 12 13  1  0
 13 14  2  3
 14 15  1  0
 15 16  2  0
 16 17  1  0
 17 18  2  0
 18 19  1  0
 18 20  1  0
 20 21  2  0
 13 22  1  0
 22 23  2  0
 23 24  1  0
 24 25  2  0
 25 26  1  0
 26 27  2  0
 27  1  1  0
 11  6  1  0
 21 15  1  0
 27 22  1  0
  1 28  1  0
  3 29  1  0
  4 30  1  0
  4 31  1  0
  5 32  1  0
  5 33  1  0
  7 34  1  0
  8 35  1  0
  9 36  1  0
 10 37  1  0
 11 38  1  0
 16 39  1  0
 17 40  1  0
 19 41  1  0
 19 42  1  0
 19 43  1  0
 20 44  1  0
 21 45  1  0
 24 46  1  0
 25 47  1  0
M  END
>  <ScrubInfo>  (5) 
{"isomerGroup": 0, "isomerId": 4, "confId": 0, "nr_conformers:": 1, "nr_isomers:": 9}

$$$$
_i5
     RDKit          3D

 47 50  0  0  0  0  0  0  0  0999 V2000
   -0.5269   -3.8220    0.1863 N   0  0  0  0  0  0  0  0  0  0  0  0
   -1.8222   -4.2611    0.1881 C   0  0  0  0  0  0  0  0  0  0  0  0
   -2.8177   -3.4682   -0.2395 C   0  0  0  0  0  0  0  0  0  0  0  0
   -2.6311   -2.1779   -0.6926 N   0  0  0  0  0  0  0  0  0  0  0  0
   -1.4047   -1.7219   -0.7146 C   0  0  0  0  0  0  0  0  0  0  0  0
   -1.0922   -0.3206   -1.1737 C   0  0  0  0  0  0  0  0  0  0  0  0
   -2.0736    0.5876   -1.5053 N   0  0  0  0  0  0  0  0  0  0  0  0
   -3.1396    0.9934   -0.6685 C   0  0  0  0  0  0  0  0  0  0  0  0
   -4.1475    1.7923   -1.2280 C   0  0  0  0  0  0  0  0  0  0  0  0
   -5.2303    2.2340   -0.4616 C   0  0  0  0  0  0  0  0  0  0  0  0
   -5.3243    1.8932    0.8898 C   0  0  0  0  0  0  0  0  0  0  0  0
   -6.5014    2.3339    1.7076 C   0  0  0  0  0  0  0  0  0  0  0  0
   -4.3326    1.0835    1.4510 C   0  0  0  0  0  0  0  0  0  0  0  0
   -3.2502    0.6425    0.6805 C   0  0  0  0  0  0  0  0  0  0  0  0
    0.1546    0.0104   -1.3148 N   0  0  0  0  0  0  0  0  0  0  0  0
    1.1405   -0.8783   -0.9845 C   0  0  0  0  0  0  0  0  0  0  0  0
    2.3239   -0.4377   -1.2171 N   0  0  0  0  0  0  0  0  0  0  0  0
    3.4604   -1.2986   -0.8812 C   0  0  0  0  0  0  0  0  0  0  0  0
    4.7688   -0.5208   -1.0688 C   0  0  0  0  0  0  0  0  0  0  0  0
    5.0654    0.4357    0.0643 C   0  0  0  0  0  0  0  0  0  0  0  0
    5.9981    0.1010    1.0557 C   0  0  0  0  0  0  0  0  0  0  0  0
    6.2664    0.9847    2.1030 C   0  0  0  0  0  0  0  0  0  0  0  0
    5.6035    2.2087    2.1716 C   0  0  0  0  0  0  0  0  0  0  0  0
    4.6710    2.5497    1.1940 C   0  0  0  0  0  0  0  0  0  0  0  0
    4.4030    1.6677    0.1462 C   0  0  0  0  0  0  0  0  0  0  0  0
    0.9773   -2.1296   -0.4526 N   0  0  0  0  0  0  0  0  0  0  0  0
   -0.2229   -2.5784   -0.3080 C   0  0  0  0  0  0  0  0  0  0  0  0
    0.2237   -4.4573    0.4233 H   0  0  0  0  0  0  0  0  0  0  0  0
   -1.9852   -5.2730    0.5426 H   0  0  0  0  0  0  0  0  0  0  0  0
   -3.8447   -3.8251   -0.2391 H   0  0  0  0  0  0  0  0  0  0  0  0
   -1.6708    1.4083   -1.9509 H   0  0  0  0  0  0  0  0  0  0  0  0
   -4.1038    2.0662   -2.2797 H   0  0  0  0  0  0  0  0  0  0  0  0
   -6.0002    2.8422   -0.9308 H   0  0  0  0  0  0  0  0  0  0  0  0
   -7.3024    1.5913    1.6412 H   0  0  0  0  0  0  0  0  0  0  0  0
   -6.8824    3.2983    1.3557 H   0  0  0  0  0  0  0  0  0  0  0  0
   -6.2213    2.4599    2.7588 H   0  0  0  0  0  0  0  0  0  0  0  0
   -4.3923    0.7876    2.4961 H   0  0  0  0  0  0  0  0  0  0  0  0
   -2.4975    0.0300    1.1666 H   0  0  0  0  0  0  0  0  0  0  0  0
    3.3964   -1.6715    0.1487 H   0  0  0  0  0  0  0  0  0  0  0  0
    3.4718   -2.1564   -1.5648 H   0  0  0  0  0  0  0  0  0  0  0  0
    5.5949   -1.2391   -1.1482 H   0  0  0  0  0  0  0  0  0  0  0  0
    4.7585    0.0338   -2.0158 H   0  0  0  0  0  0  0  0  0  0  0  0
    6.5224   -0.8506    1.0182 H   0  0  0  0  0  0  0  0  0  0  0  0
    6.9924    0.7170    2.8657 H   0  0  0  0  0  0  0  0  0  0  0  0
    5.8114    2.8957    2.9871 H   0  0  0  0  0  0  0  0  0  0  0  0
    4.1479    3.5005    1.2463 H   0  0  0  0  0  0  0  0  0  0  0  0
    3.6656    1.9389   -0.6075 H   0  0  0  0  0  0  0  0  0  0  0  0
  1  2  1  0
  2  3  2  0
  3  4  1  0
  4  5  2  0
  5  6  1  0
  6  7  1  0
  7  8  1  0
  8  9  2  0
  9 10  1  0
 10 11  2  0
 11 12  1  0
 11 13  1  0
 13 14  2  0
  6 15  2  0
 15 16  1  0
 16 17  2  3
 17 18  1  0
 18 19  1  0
 19 20  1  0
 20 21  2  0
 21 22  1  0
 22 23  2  0
 23 24  1  0
 24 25  2  0
 16 26  1  0
 26 27  2  0
 27  1  1  0
 27  5  1  0
 14  8  1  0
 25 20  1  0
  1 28  1  0
  2 29  1  0
  3 30  1  0
  7 31  1  0
  9 32  1  0
 10 33  1  0
 12 34  1  0
 12 35  1  0
 12 36  1  0
 13 37  1  0
 14 38  1  0
 18 39  1  0
 18 40  1  0
 19 41  1  0
 19 42  1  0
 21 43  1  0
 22 44  1  0
 23 45  1  0
 24 46  1  0
 25 47  1  0
M  END
>  <ScrubInfo>  (6) 
{"isomerGroup": 0, "isomerId": 5, "confId": 0, "nr_conformers:": 1, "nr_isomers:": 9}

$$$$
_i6
     RDKit          3D

 47 50  0  0  0  0  0  0  0  0999 V2000
   -1.5558   -3.3664   -0.6965 N   0  0  0  0  0  0  0  0  0  0  0  0
   -2.9037   -3.3761   -0.9324 C   0  0  0  0  0  0  0  0  0  0  0  0
   -3.6008   -2.2299   -0.9825 C   0  0  0  0  0  0  0  0  0  0  0  0
   -3.0421   -0.9837   -0.7873 N   0  0  0  0  0  0  0  0  0  0  0  0
   -1.7528   -0.9294   -0.5699 C   0  0  0  0  0  0  0  0  0  0  0  0
   -0.9797    0.3308   -0.2948 C   0  0  0  0  0  0  0  0  0  0  0  0
   -1.4654    1.4756    0.0810 N   0  0  0  0  0  0  0  0  0  0  0  0
   -2.8325    1.6602    0.2988 C   0  0  0  0  0  0  0  0  0  0  0  0
   -3.6349    2.2143   -0.7002 C   0  0  0  0  0  0  0  0  0  0  0  0
   -4.9946    2.4439   -0.4726 C   0  0  0  0  0  0  0  0  0  0  0  0
   -5.5641    2.1477    0.7715 C   0  0  0  0  0  0  0  0  0  0  0  0
   -7.0296    2.3616    1.0064 C   0  0  0  0  0  0  0  0  0  0  0  0
   -4.7561    1.6029    1.7765 C   0  0  0  0  0  0  0  0  0  0  0  0
   -3.3969    1.3746    1.5442 C   0  0  0  0  0  0  0  0  0  0  0  0
    0.3851    0.3015   -0.4115 N   0  0  0  0  0  0  0  0  0  0  0  0
    0.9981   -0.8353   -0.5278 C   0  0  0  0  0  0  0  0  0  0  0  0
    2.3559   -0.7732   -0.6312 N   0  0  0  0  0  0  0  0  0  0  0  0
    3.2253   -1.8685   -0.2415 C   0  0  0  0  0  0  0  0  0  0  0  0
    4.6791   -1.5900   -0.6422 C   0  0  0  0  0  0  0  0  0  0  0  0
    5.3066   -0.4492    0.1248 C   0  0  0  0  0  0  0  0  0  0  0  0
    5.7231   -0.6270    1.4514 C   0  0  0  0  0  0  0  0  0  0  0  0
    6.2844    0.4336    2.1641 C   0  0  0  0  0  0  0  0  0  0  0  0
    6.4338    1.6801    1.5594 C   0  0  0  0  0  0  0  0  0  0  0  0
    6.0239    1.8674    0.2409 C   0  0  0  0  0  0  0  0  0  0  0  0
    5.4635    0.8082   -0.4743 C   0  0  0  0  0  0  0  0  0  0  0  0
    0.3988   -2.0651   -0.5534 N   0  0  0  0  0  0  0  0  0  0  0  0
   -0.8880   -2.1702   -0.5987 C   0  0  0  0  0  0  0  0  0  0  0  0
   -1.0211   -4.2173   -0.8080 H   0  0  0  0  0  0  0  0  0  0  0  0
   -3.3575   -4.3492   -1.0842 H   0  0  0  0  0  0  0  0  0  0  0  0
   -4.6708   -2.2425   -1.1742 H   0  0  0  0  0  0  0  0  0  0  0  0
   -3.1972    2.4615   -1.6628 H   0  0  0  0  0  0  0  0  0  0  0  0
   -5.6021    2.8592   -1.2727 H   0  0  0  0  0  0  0  0  0  0  0  0
   -7.5881    1.4625    0.7285 H   0  0  0  0  0  0  0  0  0  0  0  0
   -7.2274    2.5901    2.0590 H   0  0  0  0  0  0  0  0  0  0  0  0
   -7.4009    3.2058    0.4160 H   0  0  0  0  0  0  0  0  0  0  0  0
   -5.1760    1.3585    2.7489 H   0  0  0  0  0  0  0  0  0  0  0  0
   -2.7735    0.9737    2.3376 H   0  0  0  0  0  0  0  0  0  0  0  0
    2.6936    0.1490   -0.3691 H   0  0  0  0  0  0  0  0  0  0  0  0
    3.1455   -2.0347    0.8391 H   0  0  0  0  0  0  0  0  0  0  0  0
    2.9074   -2.7894   -0.7441 H   0  0  0  0  0  0  0  0  0  0  0  0
    5.2801   -2.4922   -0.4711 H   0  0  0  0  0  0  0  0  0  0  0  0
    4.7369   -1.3888   -1.7197 H   0  0  0  0  0  0  0  0  0  0  0  0
    5.6136   -1.5925    1.9397 H   0  0  0  0  0  0  0  0  0  0  0  0
    6.6041    0.2884    3.1927 H   0  0  0  0  0  0  0  0  0  0  0  0
    6.8687    2.5063    2.1157 H   0  0  0  0  0  0  0  0  0  0  0  0
    6.1385    2.8401   -0.2306 H   0  0  0  0  0  0  0  0  0  0  0  0
    5.1458    0.9733   -1.5020 H   0  0  0  0  0  0  0  0  0  0  0  0
  1  2  1  0
  2  3  2  0
  3  4  1  0
  4  5  2  0
  5  6  1  0
  6  7  2  3
  7  8  1  0
  8  9  2  0
  9 10  1  0
 10 11  2  0
 11 12  1  0
 11 13  1  0
 13 14  2  0
  6 15  1  0
 15 16  2  0
 16 17  1  0
 17 18  1  0
 18 19  1  0
 19 20  1  0
 20 21  2  0
 21 22  1  0
 22 23  2  0
 23 24  1  0
 24 25  2  0
 16 26  1  0
 26 27  2  0
 27  1  1  0
 27  5  1  0
 14  8  1  0
 25 20  1  0
  1 28  1  0
  2 29  1  0
  3 30  1  0
  9 31  1  0
 10 32  1  0
 12 33  1  0
 12 34  1  0
 12 35  1  0
 13 36  1  0
 14 37  1  0
 17 38  1  0
 18 39  1  0
 18 40  1  0
 19 41  1  0
 19 42  1  0
 21 43  1  0
 22 44  1  0
 23 45  1  0
 24 46  1  0
 25 47  1  0
M  END
>  <ScrubInfo>  (7) 
{"isomerGroup": 0, "isomerId": 6, "confId": 0, "nr_conformers:": 1, "nr_isomers:": 9}

$$$$
_i7
     RDKit          3D

 47 50  0  0  0  0  0  0  0  0999 V2000
   -0.9351   -2.4369   -1.0311 N   0  0  0  0  0  0  0  0  0  0  0  0
   -0.6439   -1.1039   -0.9611 C   0  0  0  0  0  0  0  0  0  0  0  0
   -1.4476   -0.1054   -1.0858 N   0  0  0  0  0  0  0  0  0  0  0  0
   -2.8709   -0.3307   -1.3471 C   0  0  0  0  0  0  0  0  0  0  0  0
   -3.6545   -0.5525   -0.0488 C   0  0  0  0  0  0  0  0  0  0  0  0
   -3.8146    0.6986    0.7823 C   0  0  0  0  0  0  0  0  0  0  0  0
   -4.9611    1.4951    0.6568 C   0  0  0  0  0  0  0  0  0  0  0  0
   -5.1056    2.6536    1.4224 C   0  0  0  0  0  0  0  0  0  0  0  0
   -4.1049    3.0293    2.3166 C   0  0  0  0  0  0  0  0  0  0  0  0
   -2.9578    2.2486    2.4442 C   0  0  0  0  0  0  0  0  0  0  0  0
   -2.8125    1.0897    1.6802 C   0  0  0  0  0  0  0  0  0  0  0  0
    0.6759   -0.8415   -0.7167 N   0  0  0  0  0  0  0  0  0  0  0  0
    1.7298   -1.7158   -0.5341 C   0  0  0  0  0  0  0  0  0  0  0  0
    2.9703   -1.3933   -0.2984 N   0  0  0  0  0  0  0  0  0  0  0  0
    3.3191   -0.0406   -0.2112 C   0  0  0  0  0  0  0  0  0  0  0  0
    3.7225    0.6588   -1.3495 C   0  0  0  0  0  0  0  0  0  0  0  0
    4.0571    2.0127   -1.2668 C   0  0  0  0  0  0  0  0  0  0  0  0
    3.9923    2.6839   -0.0399 C   0  0  0  0  0  0  0  0  0  0  0  0
    4.3858    4.1281    0.0576 C   0  0  0  0  0  0  0  0  0  0  0  0
    3.6199    1.9716    1.1064 C   0  0  0  0  0  0  0  0  0  0  0  0
    3.2861    0.6178    1.0189 C   0  0  0  0  0  0  0  0  0  0  0  0
    1.3601   -3.1636   -0.6230 C   0  0  0  0  0  0  0  0  0  0  0  0
    2.3170   -4.1150   -0.4604 N   0  0  0  0  0  0  0  0  0  0  0  0
    1.8691   -5.3835   -0.5578 C   0  0  0  0  0  0  0  0  0  0  0  0
    0.5375   -5.6847   -0.8037 C   0  0  0  0  0  0  0  0  0  0  0  0
   -0.4162   -4.7328   -0.9653 N   0  0  0  0  0  0  0  0  0  0  0  0
    0.0110   -3.4500   -0.8722 C   0  0  0  0  0  0  0  0  0  0  0  0
   -1.8677   -2.7750   -1.2016 H   0  0  0  0  0  0  0  0  0  0  0  0
   -3.0190   -1.1800   -2.0243 H   0  0  0  0  0  0  0  0  0  0  0  0
   -3.2616    0.5445   -1.8798 H   0  0  0  0  0  0  0  0  0  0  0  0
   -3.1836   -1.3328    0.5621 H   0  0  0  0  0  0  0  0  0  0  0  0
   -4.6518   -0.9350   -0.3012 H   0  0  0  0  0  0  0  0  0  0  0  0
   -5.7495    1.2191   -0.0393 H   0  0  0  0  0  0  0  0  0  0  0  0
   -5.9981    3.2646    1.3187 H   0  0  0  0  0  0  0  0  0  0  0  0
   -4.2165    3.9325    2.9100 H   0  0  0  0  0  0  0  0  0  0  0  0
   -2.1727    2.5438    3.1348 H   0  0  0  0  0  0  0  0  0  0  0  0
   -1.9069    0.4957    1.7801 H   0  0  0  0  0  0  0  0  0  0  0  0
    0.8861    0.1476   -0.6656 H   0  0  0  0  0  0  0  0  0  0  0  0
    3.7804    0.1424   -2.3037 H   0  0  0  0  0  0  0  0  0  0  0  0
    4.3735    2.5369   -2.1656 H   0  0  0  0  0  0  0  0  0  0  0  0
    5.4586    4.2111    0.2567 H   0  0  0  0  0  0  0  0  0  0  0  0
    4.1558    4.6590   -0.8722 H   0  0  0  0  0  0  0  0  0  0  0  0
    3.8362    4.6290    0.8615 H   0  0  0  0  0  0  0  0  0  0  0  0
    3.5924    2.4635    2.0760 H   0  0  0  0  0  0  0  0  0  0  0  0
    3.0039    0.0692    1.9132 H   0  0  0  0  0  0  0  0  0  0  0  0
    2.6140   -6.1617   -0.4319 H   0  0  0  0  0  0  0  0  0  0  0  0
    0.1979   -6.7125   -0.8782 H   0  0  0  0  0  0  0  0  0  0  0  0
  1  2  1  0
  2  3  2  3
  3  4  1  0
  4  5  1  0
  5  6  1  0
  6  7  2  0
  7  8  1  0
  8  9  2  0
  9 10  1  0
 10 11  2  0
  2 12  1  0
 12 13  1  0
 13 14  2  3
 14 15  1  0
 15 16  2  0
 16 17  1  0
 17 18  2  0
 18 19  1  0
 18 20  1  0
 20 21  2  0
 13 22  1  0
 22 23  2  0
 23 24  1  0
 24 25  2  0
 25 26  1  0
 26 27  2  0
 27  1  1  0
 11  6  1  0
 21 15  1  0
 27 22  1  0
  1 28  1  0
  4 29  1  0
  4 30  1  0
  5 31  1  0
  5 32  1  0
  7 33  1  0
  8 34  1  0
  9 35  1  0
 10 36  1  0
 11 37  1  0
 12 38  1  0
 16 39  1  0
 17 40  1  0
 19 41  1  0
 19 42  1  0
 19 43  1  0
 20 44  1  0
 21 45  1  0
 24 46  1  0
 25 47  1  0
M  END
>  <ScrubInfo>  (8) 
{"isomerGroup": 0, "isomerId": 7, "confId": 0, "nr_conformers:": 1, "nr_isomers:": 9}

$$$$
_i8
     RDKit          3D

 47 50  0  0  0  0  0  0  0  0999 V2000
    0.6082   -3.8813    0.2288 N   0  0  0  0  0  0  0  0  0  0  0  0
   -0.1646   -4.9858    0.0024 C   0  0  0  0  0  0  0  0  0  0  0  0
   -1.4914   -4.8784   -0.1695 C   0  0  0  0  0  0  0  0  0  0  0  0
   -2.1791   -3.6835   -0.1343 N   0  0  0  0  0  0  0  0  0  0  0  0
   -1.4846   -2.5954    0.0822 C   0  0  0  0  0  0  0  0  0  0  0  0
   -2.1498   -1.2351    0.1396 C   0  0  0  0  0  0  0  0  0  0  0  0
   -3.4334   -1.1570   -0.0345 N   0  0  0  0  0  0  0  0  0  0  0  0
   -4.0366    0.1047    0.0204 C   0  0  0  0  0  0  0  0  0  0  0  0
   -4.1813    0.8681   -1.1391 C   0  0  0  0  0  0  0  0  0  0  0  0
   -4.7678    2.1348   -1.0836 C   0  0  0  0  0  0  0  0  0  0  0  0
   -5.2181    2.6533    0.1363 C   0  0  0  0  0  0  0  0  0  0  0  0
   -5.8829    3.9970    0.1916 C   0  0  0  0  0  0  0  0  0  0  0  0
   -5.1029    1.8714    1.2919 C   0  0  0  0  0  0  0  0  0  0  0  0
   -4.5159    0.6051    1.2320 C   0  0  0  0  0  0  0  0  0  0  0  0
   -1.2517   -0.2345    0.3794 N   0  0  0  0  0  0  0  0  0  0  0  0
    0.0912   -0.3437    0.5584 C   0  0  0  0  0  0  0  0  0  0  0  0
    0.7627    0.7378    0.7724 N   0  0  0  0  0  0  0  0  0  0  0  0
    2.2119    0.6431    0.9826 C   0  0  0  0  0  0  0  0  0  0  0  0
    2.9460    0.7253   -0.3571 C   0  0  0  0  0  0  0  0  0  0  0  0
    4.4434    0.6651   -0.1834 C   0  0  0  0  0  0  0  0  0  0  0  0
    5.1054   -0.5697   -0.1626 C   0  0  0  0  0  0  0  0  0  0  0  0
    6.4884   -0.6274    0.0159 C   0  0  0  0  0  0  0  0  0  0  0  0
    7.2205    0.5471    0.1795 C   0  0  0  0  0  0  0  0  0  0  0  0
    6.5705    1.7800    0.1667 C   0  0  0  0  0  0  0  0  0  0  0  0
    5.1876    1.8396   -0.0118 C   0  0  0  0  0  0  0  0  0  0  0  0
    0.7322   -1.5553    0.5079 N   0  0  0  0  0  0  0  0  0  0  0  0
    0.0395   -2.6332    0.2900 C   0  0  0  0  0  0  0  0  0  0  0  0
    1.6048   -3.9788    0.3681 H   0  0  0  0  0  0  0  0  0  0  0  0
    0.3565   -5.9365   -0.0282 H   0  0  0  0  0  0  0  0  0  0  0  0
   -2.0955   -5.7643   -0.3491 H   0  0  0  0  0  0  0  0  0  0  0  0
   -3.8427    0.4696   -2.0917 H   0  0  0  0  0  0  0  0  0  0  0  0
   -4.8773    2.7100   -2.0004 H   0  0  0  0  0  0  0  0  0  0  0  0
   -5.7183    4.4742    1.1634 H   0  0  0  0  0  0  0  0  0  0  0  0
   -5.4736    4.6666   -0.5722 H   0  0  0  0  0  0  0  0  0  0  0  0
   -6.9595    3.8890    0.0278 H   0  0  0  0  0  0  0  0  0  0  0  0
   -5.4762    2.2392    2.2450 H   0  0  0  0  0  0  0  0  0  0  0  0
   -4.4387    0.0012    2.1321 H   0  0  0  0  0  0  0  0  0  0  0  0
   -1.6000    0.7121    0.4387 H   0  0  0  0  0  0  0  0  0  0  0  0
    2.5086    1.4880    1.6164 H   0  0  0  0  0  0  0  0  0  0  0  0
    2.4970   -0.2540    1.5466 H   0  0  0  0  0  0  0  0  0  0  0  0
    2.6256   -0.0858   -1.0231 H   0  0  0  0  0  0  0  0  0  0  0  0
    2.6730    1.6527   -0.8773 H   0  0  0  0  0  0  0  0  0  0  0  0
    4.5441   -1.4930   -0.2852 H   0  0  0  0  0  0  0  0  0  0  0  0
    6.9947   -1.5888    0.0283 H   0  0  0  0  0  0  0  0  0  0  0  0
    8.2973    0.5021    0.3187 H   0  0  0  0  0  0  0  0  0  0  0  0
    7.1403    2.6962    0.2969 H   0  0  0  0  0  0  0  0  0  0  0  0
    4.6925    2.8082   -0.0157 H   0  0  0  0  0  0  0  0  0  0  0  0
  1  2  1  0
  2  3  2  0
  3  4  1  0
  4  5  2  0
  5  6  1  0
  6  7  2  3
  7  8  1  0
  8  9  2  0
  9 10  1  0
 10 11  2  0
 11 12  1  0
 11 13  1  0
 13 14  2  0
  6 15  1  0
 15 16  1  0
 16 17  2  3
 17 18  1  0
 18 19  1  0
 19 20  1  0
 20 21  2  0
 21 22  1  0
 22 23  2  0
 23 24  1  0
 24 25  2  0
 16 26  1  0
 26 27  2  0
 27  1  1  0
 27  5  1  0
 14  8  1  0
 25 20  1  0
  1 28  1  0
  2 29  1  0
  3 30  1  0
  9 31  1  0
 10 32  1  0
 12 33  1  0
 12 34  1  0
 12 35  1  0
 13 36  1  0
 14 37  1  0
 15 38  1  0
 18 39  1  0
 18 40  1  0
 19 41  1  0
 19 42  1  0
 21 43  1  0
 22 44  1  0
 23 45  1  0
 24 46  1  0
 25 47  1  0
M  END
>  <ScrubInfo>  (9) 
{"isomerGroup": 0, "isomerId": 8, "confId": 0, "nr_conformers:": 1, "nr_isomers:": 9}

$$$$
