REMARK SMILES Cc1ccc(Nc2nc(NCCc3ccccc3)nc3nccnc23)cc1
REMARK SMILES IDX 7 1 8 2 9 3 19 4 20 5 21 6 22 7 23 8 24 9 25 10 6 11 5 13
REMARK SMILES IDX 2 14 3 15 27 16 4 17 26 18 1 19 10 20 11 22 12 23 13 24
REMARK SMILES IDX 14 25 18 26 15 27 17 28 16 29
REMARK H PARENT 6 12 10 21
ROOT
ATOM      1  C   UNL     1      -1.033   1.614   0.141  1.00  0.00     0.164 A 
ATOM      2  N   UNL     1      -0.386   0.663   0.839  1.00  0.00    -0.193 NA
ATOM      3  C   UNL     1       0.804   0.966   1.354  1.00  0.00     0.226 A 
ATOM      4  N   UNL     1       1.399   2.144   1.203  1.00  0.00    -0.191 NA
ATOM      5  C   UNL     1       0.763   3.078   0.508  1.00  0.00     0.185 A 
ATOM      6  N   UNL     1       1.376   4.259   0.360  1.00  0.00    -0.233 NA
ATOM      7  C   UNL     1       0.742   5.223  -0.346  1.00  0.00     0.133 A 
ATOM      8  C   UNL     1      -0.497   5.025  -0.912  1.00  0.00     0.132 A 
ATOM      9  N   UNL     1      -1.145   3.852  -0.790  1.00  0.00    -0.247 NA
ATOM     10  C   UNL     1      -0.496   2.880  -0.072  1.00  0.00     0.150 A 
ENDROOT
BRANCH   1  11
ATOM     11  N   UNL     1      -2.290   1.345  -0.466  1.00  0.00    -0.338 N 
ATOM     12  H   UNL     1      -2.679   2.196  -0.867  1.00  0.00     0.168 HD
BRANCH  11  13
ATOM     13  C   UNL     1      -3.187   0.269  -0.381  1.00  0.00     0.040 A 
ATOM     14  C   UNL     1      -5.032  -1.889  -0.397  1.00  0.00    -0.051 A 
ATOM     15  C   UNL     1      -5.251  -0.763  -1.193  1.00  0.00     0.005 A 
ATOM     16  C   UNL     1      -3.893  -1.926   0.411  1.00  0.00     0.005 A 
ATOM     17  C   UNL     1      -4.333   0.293  -1.191  1.00  0.00     0.026 A 
ATOM     18  C   UNL     1      -2.978  -0.865   0.406  1.00  0.00     0.026 A 
ATOM     19  C   UNL     1      -6.027  -3.010  -0.366  1.00  0.00     0.044 C 
ENDBRANCH  11  13
ENDBRANCH   1  11
BRANCH   3  20
ATOM     20  N   UNL     1       1.510   0.024   2.082  1.00  0.00    -0.354 N 
ATOM     21  H   UNL     1       2.471   0.350   2.146  1.00  0.00     0.163 HD
BRANCH  20  22
ATOM     22  C   UNL     1       1.366  -1.367   1.669  1.00  0.00     0.121 C 
BRANCH  22  23
ATOM     23  C   UNL     1       2.001  -1.667   0.302  1.00  0.00     0.057 C 
BRANCH  23  24
ATOM     24  C   UNL     1       3.502  -1.487   0.289  1.00  0.00    -0.046 A 
ATOM     25  C   UNL     1       4.343  -2.492   0.786  1.00  0.00     0.004 A 
ATOM     26  C   UNL     1       4.072  -0.302  -0.197  1.00  0.00     0.004 A 
ATOM     27  C   UNL     1       5.727  -2.316   0.793  1.00  0.00     0.000 A 
ATOM     28  C   UNL     1       5.456  -0.127  -0.186  1.00  0.00     0.000 A 
ATOM     29  C   UNL     1       6.283  -1.134   0.308  1.00  0.00     0.000 A 
ENDBRANCH  23  24
ENDBRANCH  22  23
ENDBRANCH  20  22
ENDBRANCH   3  20
TORSDOF 6
