REMARK SMILES COc1ccc(Nc2nc(NCCO)nc3c2ncn3C)cc1
REMARK SMILES IDX 8 1 9 2 10 3 15 4 16 5 17 6 18 7 19 8 20 9 21 10 7 11 6 13
REMARK SMILES IDX 3 14 4 15 23 16 5 17 22 18 2 19 1 20 11 21 12 23 13 24 14 25
REMARK H PARENT 7 12 11 22 14 26
ROOT
ATOM      1  C   UNL     1      -0.197  -0.791  -0.611  1.00  0.00     0.164 A 
ATOM      2  N   UNL     1      -0.861   0.303  -0.147  1.00  0.00    -0.193 NA
ATOM      3  C   UNL     1      -2.204   0.301  -0.045  1.00  0.00     0.226 A 
ATOM      4  N   UNL     1      -3.019  -0.722  -0.359  1.00  0.00    -0.193 NA
ATOM      5  C   UNL     1      -2.344  -1.784  -0.817  1.00  0.00     0.167 A 
ATOM      6  C   UNL     1      -0.977  -1.904  -0.970  1.00  0.00     0.150 A 
ATOM      7  N   UNL     1      -0.643  -3.151  -1.466  1.00  0.00    -0.231 NA
ATOM      8  C   UNL     1      -1.797  -3.769  -1.615  1.00  0.00     0.201 A 
ATOM      9  N   UNL     1      -2.849  -2.981  -1.236  1.00  0.00    -0.318 N 
ATOM     10  C   UNL     1      -4.243  -3.335  -1.273  1.00  0.00     0.153 C 
ENDROOT
BRANCH   1  11
ATOM     11  N   UNL     1       1.199  -0.853  -0.739  1.00  0.00    -0.338 N 
ATOM     12  H   UNL     1       1.491  -1.755  -1.104  1.00  0.00     0.168 HD
BRANCH  11  13
ATOM     13  C   UNL     1       2.226   0.065  -0.490  1.00  0.00     0.040 A 
ATOM     14  C   UNL     1       4.405   1.820  -0.015  1.00  0.00     0.119 A 
ATOM     15  C   UNL     1       4.633   0.529  -0.481  1.00  0.00     0.048 A 
ATOM     16  C   UNL     1       3.092   2.230   0.214  1.00  0.00     0.048 A 
ATOM     17  C   UNL     1       3.553  -0.335  -0.714  1.00  0.00     0.030 A 
ATOM     18  C   UNL     1       2.017   1.363  -0.020  1.00  0.00     0.030 A 
BRANCH  14  19
ATOM     19  O   UNL     1       5.358   2.762   0.253  1.00  0.00    -0.497 OA
ATOM     20  C   UNL     1       6.711   2.386   0.035  1.00  0.00     0.278 C 
ENDBRANCH  14  19
ENDBRANCH  11  13
ENDBRANCH   1  11
BRANCH   3  21
ATOM     21  N   UNL     1      -2.746   1.489   0.435  1.00  0.00    -0.352 N 
ATOM     22  H   UNL     1      -1.966   1.962   0.889  1.00  0.00     0.163 HD
BRANCH  21  23
ATOM     23  C   UNL     1      -3.918   1.350   1.289  1.00  0.00     0.144 C 
BRANCH  23  24
ATOM     24  C   UNL     1      -3.536   0.886   2.700  1.00  0.00     0.177 C 
BRANCH  24  25
ATOM     25  O   UNL     1      -2.639   1.813   3.314  1.00  0.00    -0.395 OA
ATOM     26  H   UNL     1      -3.075   2.682   3.329  1.00  0.00     0.210 HD
ENDBRANCH  24  25
ENDBRANCH  23  24
ENDBRANCH  21  23
ENDBRANCH   3  21
TORSDOF 7
