_i0
     RDKit          3D

 41 43  0  0  0  0  0  0  0  0999 V2000
    6.7113    2.3858    0.0354 C   0  0  0  0  0  0  0  0  0  0  0  0
    5.3578    2.7624    0.2530 O   0  0  0  0  0  0  0  0  0  0  0  0
    4.4048    1.8200   -0.0150 C   0  0  0  0  0  0  0  0  0  0  0  0
    4.6328    0.5291   -0.4815 C   0  0  0  0  0  0  0  0  0  0  0  0
    3.5531   -0.3347   -0.7140 C   0  0  0  0  0  0  0  0  0  0  0  0
    2.2258    0.0653   -0.4899 C   0  0  0  0  0  0  0  0  0  0  0  0
    1.1986   -0.8534   -0.7392 N   0  0  0  0  0  0  0  0  0  0  0  0
   -0.1973   -0.7914   -0.6110 C   0  0  0  0  0  0  0  0  0  0  0  0
   -0.8610    0.3033   -0.1470 N   0  0  0  0  0  0  0  0  0  0  0  0
   -2.2045    0.3009   -0.0446 C   0  0  0  0  0  0  0  0  0  0  0  0
   -2.7456    1.4890    0.4348 N   0  0  0  0  0  0  0  0  0  0  0  0
   -3.9182    1.3504    1.2886 C   0  0  0  0  0  0  0  0  0  0  0  0
   -3.5362    0.8857    2.6996 C   0  0  0  0  0  0  0  0  0  0  0  0
   -2.6394    1.8130    3.3142 O   0  0  0  0  0  0  0  0  0  0  0  0
   -3.0193   -0.7220   -0.3587 N   0  0  0  0  0  0  0  0  0  0  0  0
   -2.3440   -1.7835   -0.8165 C   0  0  0  0  0  0  0  0  0  0  0  0
   -0.9768   -1.9039   -0.9699 C   0  0  0  0  0  0  0  0  0  0  0  0
   -0.6434   -3.1509   -1.4658 N   0  0  0  0  0  0  0  0  0  0  0  0
   -1.7972   -3.7695   -1.6145 C   0  0  0  0  0  0  0  0  0  0  0  0
   -2.8490   -2.9812   -1.2360 N   0  0  0  0  0  0  0  0  0  0  0  0
   -4.2428   -3.3349   -1.2730 C   0  0  0  0  0  0  0  0  0  0  0  0
    2.0171    1.3628   -0.0202 C   0  0  0  0  0  0  0  0  0  0  0  0
    3.0923    2.2298    0.2136 C   0  0  0  0  0  0  0  0  0  0  0  0
    6.8904    2.1471   -1.0182 H   0  0  0  0  0  0  0  0  0  0  0  0
    7.3422    3.2415    0.2944 H   0  0  0  0  0  0  0  0  0  0  0  0
    6.9986    1.5520    0.6846 H   0  0  0  0  0  0  0  0  0  0  0  0
    5.6327    0.1573   -0.6755 H   0  0  0  0  0  0  0  0  0  0  0  0
    3.7643   -1.3379   -1.0768 H   0  0  0  0  0  0  0  0  0  0  0  0
    1.4906   -1.7546   -1.1042 H   0  0  0  0  0  0  0  0  0  0  0  0
   -1.9658    1.9621    0.8888 H   0  0  0  0  0  0  0  0  0  0  0  0
   -4.6775    0.6916    0.8520 H   0  0  0  0  0  0  0  0  0  0  0  0
   -4.3739    2.3448    1.3634 H   0  0  0  0  0  0  0  0  0  0  0  0
   -3.0456   -0.0922    2.6808 H   0  0  0  0  0  0  0  0  0  0  0  0
   -4.4282    0.8072    3.3290 H   0  0  0  0  0  0  0  0  0  0  0  0
   -3.0751    2.6823    3.3290 H   0  0  0  0  0  0  0  0  0  0  0  0
   -1.9245   -4.7775   -1.9892 H   0  0  0  0  0  0  0  0  0  0  0  0
   -4.6453   -3.2715   -0.2588 H   0  0  0  0  0  0  0  0  0  0  0  0
   -4.7617   -2.6375   -1.9357 H   0  0  0  0  0  0  0  0  0  0  0  0
   -4.3522   -4.3546   -1.6509 H   0  0  0  0  0  0  0  0  0  0  0  0
    1.0159    1.7327    0.1736 H   0  0  0  0  0  0  0  0  0  0  0  0
    2.8962    3.2348    0.5787 H   0  0  0  0  0  0  0  0  0  0  0  0
  1  2  1  0
  2  3  1  0
  3  4  2  0
  4  5  1  0
  5  6  2  0
  6  7  1  0
  7  8  1  0
  8  9  2  0
  9 10  1  0
 10 11  1  0
 11 12  1  0
 12 13  1  0
 13 14  1  0
 10 15  2  0
 15 16  1  0
 16 17  2  0
 17 18  1  0
 18 19  2  0
 19 20  1  0
 20 21  1  0
  6 22  1  0
 22 23  2  0
 23  3  1  0
 17  8  1  0
 20 16  1  0
  1 24  1  0
  1 25  1  0
  1 26  1  0
  4 27  1  0
  5 28  1  0
  7 29  1  0
 11 30  1  0
 12 31  1  0
 12 32  1  0
 13 33  1  0
 13 34  1  0
 14 35  1  0
 19 36  1  0
 21 37  1  0
 21 38  1  0
 21 39  1  0
 22 40  1  0
 23 41  1  0
M  END
>  <ScrubInfo>  (1) 
{"isomerGroup": 0, "isomerId": 0, "confId": 0, "nr_conformers:": 1, "nr_isomers:": 6}

$$$$
_i1
     RDKit          3D

 41 43  0  0  0  0  0  0  0  0999 V2000
   -1.6671   -0.8349    0.5695 N   0  0  0  0  0  0  0  0  0  0  0  0
   -2.5780    0.1521    0.8631 C   0  0  0  0  0  0  0  0  0  0  0  0
   -3.8187   -0.2735    1.2417 N   0  0  0  0  0  0  0  0  0  0  0  0
   -4.5585   -1.2866    0.4964 C   0  0  0  0  0  0  0  0  0  0  0  0
   -6.0255   -1.2800    0.9373 C   0  0  0  0  0  0  0  0  0  0  0  0
   -6.6055    0.0080    0.7251 O   0  0  0  0  0  0  0  0  0  0  0  0
   -2.3217    1.4363    0.8032 N   0  0  0  0  0  0  0  0  0  0  0  0
   -1.0416    1.6612    0.3993 C   0  0  0  0  0  0  0  0  0  0  0  0
   -0.0480    0.7471    0.0812 C   0  0  0  0  0  0  0  0  0  0  0  0
    1.1092    1.3927   -0.2840 N   0  0  0  0  0  0  0  0  0  0  0  0
    0.8246    2.6751   -0.1886 C   0  0  0  0  0  0  0  0  0  0  0  0
   -0.4634    2.8841    0.2228 N   0  0  0  0  0  0  0  0  0  0  0  0
   -1.0973    4.1579    0.4348 C   0  0  0  0  0  0  0  0  0  0  0  0
   -0.3526   -0.6767    0.1838 C   0  0  0  0  0  0  0  0  0  0  0  0
    0.4320   -1.6915   -0.0255 N   0  0  0  0  0  0  0  0  0  0  0  0
    1.7622   -1.4925   -0.4117 C   0  0  0  0  0  0  0  0  0  0  0  0
    2.1110   -1.4890   -1.7626 C   0  0  0  0  0  0  0  0  0  0  0  0
    3.4471   -1.3436   -2.1457 C   0  0  0  0  0  0  0  0  0  0  0  0
    4.4521   -1.2119   -1.1845 C   0  0  0  0  0  0  0  0  0  0  0  0
    5.7155   -1.0770   -1.6920 O   0  0  0  0  0  0  0  0  0  0  0  0
    6.7637   -0.8783   -0.7524 C   0  0  0  0  0  0  0  0  0  0  0  0
    4.1089   -1.2357    0.1677 C   0  0  0  0  0  0  0  0  0  0  0  0
    2.7699   -1.3832    0.5492 C   0  0  0  0  0  0  0  0  0  0  0  0
   -1.9140   -1.7831    0.7955 H   0  0  0  0  0  0  0  0  0  0  0  0
   -4.4141    0.5383    1.4229 H   0  0  0  0  0  0  0  0  0  0  0  0
   -4.5024   -1.0555   -0.5736 H   0  0  0  0  0  0  0  0  0  0  0  0
   -4.1263   -2.2778    0.6662 H   0  0  0  0  0  0  0  0  0  0  0  0
   -6.6043   -2.0200    0.3762 H   0  0  0  0  0  0  0  0  0  0  0  0
   -6.1101   -1.5100    2.0042 H   0  0  0  0  0  0  0  0  0  0  0  0
   -6.5802    0.1938   -0.2300 H   0  0  0  0  0  0  0  0  0  0  0  0
    1.5103    3.4845   -0.4034 H   0  0  0  0  0  0  0  0  0  0  0  0
   -1.4142    4.2201    1.4790 H   0  0  0  0  0  0  0  0  0  0  0  0
   -1.9591    4.2338   -0.2332 H   0  0  0  0  0  0  0  0  0  0  0  0
   -0.3887    4.9608    0.2158 H   0  0  0  0  0  0  0  0  0  0  0  0
    1.3398   -1.5932   -2.5190 H   0  0  0  0  0  0  0  0  0  0  0  0
    3.7044   -1.3306   -3.2012 H   0  0  0  0  0  0  0  0  0  0  0  0
    6.6060    0.0357   -0.1701 H   0  0  0  0  0  0  0  0  0  0  0  0
    6.8778   -1.7496   -0.0991 H   0  0  0  0  0  0  0  0  0  0  0  0
    7.6962   -0.7587   -1.3124 H   0  0  0  0  0  0  0  0  0  0  0  0
    4.8522   -1.1435    0.9513 H   0  0  0  0  0  0  0  0  0  0  0  0
    2.5084   -1.4049    1.6029 H   0  0  0  0  0  0  0  0  0  0  0  0
  1  2  1  0
  2  3  1  0
  3  4  1  0
  4  5  1  0
  5  6  1  0
  2  7  2  0
  7  8  1  0
  8  9  2  0
  9 10  1  0
 10 11  2  0
 11 12  1  0
 12 13  1  0
  9 14  1  0
 14 15  2  3
 15 16  1  0
 16 17  2  0
 17 18  1  0
 18 19  2  0
 19 20  1  0
 20 21  1  0
 19 22  1  0
 22 23  2  0
 14  1  1  0
 23 16  1  0
 12  8  1  0
  1 24  1  0
  3 25  1  0
  4 26  1  0
  4 27  1  0
  5 28  1  0
  5 29  1  0
  6 30  1  0
 11 31  1  0
 13 32  1  0
 13 33  1  0
 13 34  1  0
 17 35  1  0
 18 36  1  0
 21 37  1  0
 21 38  1  0
 21 39  1  0
 22 40  1  0
 23 41  1  0
M  END
>  <ScrubInfo>  (2) 
{"isomerGroup": 0, "isomerId": 1, "confId": 0, "nr_conformers:": 1, "nr_isomers:": 6}

$$$$
_i2
     RDKit          3D

 41 43  0  0  0  0  0  0  0  0999 V2000
   -0.5303    0.5438   -0.6694 N   0  0  0  0  0  0  0  0  0  0  0  0
   -0.1217   -0.7756   -0.7042 C   0  0  0  0  0  0  0  0  0  0  0  0
    1.2030   -1.1753   -0.7319 N   0  0  0  0  0  0  0  0  0  0  0  0
    2.3259   -0.5716   -0.1383 C   0  0  0  0  0  0  0  0  0  0  0  0
    3.5988   -0.9813   -0.5612 C   0  0  0  0  0  0  0  0  0  0  0  0
    4.7645   -0.3953   -0.0498 C   0  0  0  0  0  0  0  0  0  0  0  0
    4.6761    0.6214    0.8970 C   0  0  0  0  0  0  0  0  0  0  0  0
    5.7250    1.2774    1.4777 O   0  0  0  0  0  0  0  0  0  0  0  0
    7.0309    0.8854    1.0740 C   0  0  0  0  0  0  0  0  0  0  0  0
    3.4154    1.0404    1.3218 C   0  0  0  0  0  0  0  0  0  0  0  0
    2.2528    0.4545    0.8072 C   0  0  0  0  0  0  0  0  0  0  0  0
   -1.1056   -1.6891   -0.7633 C   0  0  0  0  0  0  0  0  0  0  0  0
   -1.0978   -3.0811   -0.7961 N   0  0  0  0  0  0  0  0  0  0  0  0
   -2.3746   -3.3859   -0.7757 C   0  0  0  0  0  0  0  0  0  0  0  0
   -3.2481   -2.3261   -0.7626 N   0  0  0  0  0  0  0  0  0  0  0  0
   -4.6673   -2.4014   -0.5614 C   0  0  0  0  0  0  0  0  0  0  0  0
   -2.5127   -1.1668   -0.7368 C   0  0  0  0  0  0  0  0  0  0  0  0
   -2.8768    0.0681   -0.6918 N   0  0  0  0  0  0  0  0  0  0  0  0
   -1.8313    0.9694   -0.7043 C   0  0  0  0  0  0  0  0  0  0  0  0
   -2.0770    2.2344   -0.7412 N   0  0  0  0  0  0  0  0  0  0  0  0
   -3.4643    2.7124   -0.8314 C   0  0  0  0  0  0  0  0  0  0  0  0
   -4.1506    2.7145    0.5384 C   0  0  0  0  0  0  0  0  0  0  0  0
   -4.6913    1.4327    0.8585 O   0  0  0  0  0  0  0  0  0  0  0  0
    0.1863    1.2442   -0.7924 H   0  0  0  0  0  0  0  0  0  0  0  0
    1.2999   -2.1853   -0.8431 H   0  0  0  0  0  0  0  0  0  0  0  0
    3.6938   -1.7621   -1.3128 H   0  0  0  0  0  0  0  0  0  0  0  0
    5.7190   -0.7551   -0.4180 H   0  0  0  0  0  0  0  0  0  0  0  0
    7.1858    1.0694    0.0057 H   0  0  0  0  0  0  0  0  0  0  0  0
    7.7496    1.4995    1.6250 H   0  0  0  0  0  0  0  0  0  0  0  0
    7.2247   -0.1621    1.3275 H   0  0  0  0  0  0  0  0  0  0  0  0
    3.3334    1.8288    2.0664 H   0  0  0  0  0  0  0  0  0  0  0  0
    1.2972    0.7946    1.1950 H   0  0  0  0  0  0  0  0  0  0  0  0
   -2.7971   -4.4028   -0.7684 H   0  0  0  0  0  0  0  0  0  0  0  0
   -5.0693   -3.3426   -0.9506 H   0  0  0  0  0  0  0  0  0  0  0  0
   -5.1817   -1.5836   -1.0766 H   0  0  0  0  0  0  0  0  0  0  0  0
   -4.9049   -2.3416    0.5053 H   0  0  0  0  0  0  0  0  0  0  0  0
   -3.4158    3.7441   -1.1976 H   0  0  0  0  0  0  0  0  0  0  0  0
   -4.0392    2.1408   -1.5697 H   0  0  0  0  0  0  0  0  0  0  0  0
   -3.4581    3.0063    1.3341 H   0  0  0  0  0  0  0  0  0  0  0  0
   -4.9879    3.4190    0.5336 H   0  0  0  0  0  0  0  0  0  0  0  0
   -4.0786    0.7836    0.4548 H   0  0  0  0  0  0  0  0  0  0  0  0
  1  2  1  0
  2  3  1  0
  3  4  1  0
  4  5  2  0
  5  6  1  0
  6  7  2  0
  7  8  1  0
  8  9  1  0
  7 10  1  0
 10 11  2  0
  2 12  2  0
 12 13  1  0
 13 14  2  0
 14 15  1  0
 15 16  1  0
 15 17  1  0
 17 18  2  0
 18 19  1  0
 19 20  2  3
 20 21  1  0
 21 22  1  0
 22 23  1  0
 19  1  1  0
 11  4  1  0
 17 12  1  0
  1 24  1  0
  3 25  1  0
  5 26  1  0
  6 27  1  0
  9 28  1  0
  9 29  1  0
  9 30  1  0
 10 31  1  0
 11 32  1  0
 14 33  1  0
 16 34  1  0
 16 35  1  0
 16 36  1  0
 21 37  1  0
 21 38  1  0
 22 39  1  0
 22 40  1  0
 23 41  1  0
M  END
>  <ScrubInfo>  (3) 
{"isomerGroup": 0, "isomerId": 2, "confId": 0, "nr_conformers:": 1, "nr_isomers:": 6}

$$$$
_i3
     RDKit          3D

 41 43  0  0  0  0  0  0  0  0999 V2000
   -2.9472   -1.5959   -0.3438 N   0  0  0  0  0  0  0  0  0  0  0  0
   -2.4348   -0.4095    0.1480 C   0  0  0  0  0  0  0  0  0  0  0  0
   -3.2682    0.4452    0.6492 N   0  0  0  0  0  0  0  0  0  0  0  0
   -2.6956    1.6937    1.1627 C   0  0  0  0  0  0  0  0  0  0  0  0
   -3.8229    2.5666    1.7084 C   0  0  0  0  0  0  0  0  0  0  0  0
   -3.2984    3.7896    2.2158 O   0  0  0  0  0  0  0  0  0  0  0  0
   -1.0757   -0.1247    0.1149 N   0  0  0  0  0  0  0  0  0  0  0  0
   -0.2444   -0.9900   -0.3911 C   0  0  0  0  0  0  0  0  0  0  0  0
    1.1188   -0.9335   -0.5313 N   0  0  0  0  0  0  0  0  0  0  0  0
    2.0180    0.0790   -0.1681 C   0  0  0  0  0  0  0  0  0  0  0  0
    3.3851   -0.1152   -0.4260 C   0  0  0  0  0  0  0  0  0  0  0  0
    4.3431    0.8521   -0.0911 C   0  0  0  0  0  0  0  0  0  0  0  0
    3.9503    2.0424    0.5131 C   0  0  0  0  0  0  0  0  0  0  0  0
    4.7729    3.0662    0.8910 O   0  0  0  0  0  0  0  0  0  0  0  0
    6.1626    2.8990    0.6430 C   0  0  0  0  0  0  0  0  0  0  0  0
    2.5969    2.2485    0.7749 C   0  0  0  0  0  0  0  0  0  0  0  0
    1.6429    1.2792    0.4386 C   0  0  0  0  0  0  0  0  0  0  0  0
   -0.7514   -2.2505   -0.9181 C   0  0  0  0  0  0  0  0  0  0  0  0
   -0.0878   -3.3062   -1.4926 N   0  0  0  0  0  0  0  0  0  0  0  0
   -1.0488   -4.1698   -1.7787 C   0  0  0  0  0  0  0  0  0  0  0  0
   -2.2930   -3.7084   -1.4109 N   0  0  0  0  0  0  0  0  0  0  0  0
   -3.5423   -4.3997   -1.5813 C   0  0  0  0  0  0  0  0  0  0  0  0
   -2.0946   -2.4855   -0.8638 C   0  0  0  0  0  0  0  0  0  0  0  0
   -3.9499   -1.6938   -0.2670 H   0  0  0  0  0  0  0  0  0  0  0  0
   -1.9767    1.4997    1.9686 H   0  0  0  0  0  0  0  0  0  0  0  0
   -2.1719    2.2458    0.3721 H   0  0  0  0  0  0  0  0  0  0  0  0
   -4.3505    2.0514    2.5182 H   0  0  0  0  0  0  0  0  0  0  0  0
   -4.5460    2.7986    0.9192 H   0  0  0  0  0  0  0  0  0  0  0  0
   -4.0560    4.3004    2.5471 H   0  0  0  0  0  0  0  0  0  0  0  0
    1.5334   -1.7537   -0.9653 H   0  0  0  0  0  0  0  0  0  0  0  0
    3.7256   -1.0347   -0.8973 H   0  0  0  0  0  0  0  0  0  0  0  0
    5.3822    0.6398   -0.3174 H   0  0  0  0  0  0  0  0  0  0  0  0
    6.5628    2.0440    1.1978 H   0  0  0  0  0  0  0  0  0  0  0  0
    6.6764    3.7969    0.9997 H   0  0  0  0  0  0  0  0  0  0  0  0
    6.3639    2.8043   -0.4293 H   0  0  0  0  0  0  0  0  0  0  0  0
    2.2723    3.1731    1.2466 H   0  0  0  0  0  0  0  0  0  0  0  0
    0.6038    1.4957    0.6668 H   0  0  0  0  0  0  0  0  0  0  0  0
   -0.9028   -5.1350   -2.2476 H   0  0  0  0  0  0  0  0  0  0  0  0
   -4.1926   -3.7907   -2.2143 H   0  0  0  0  0  0  0  0  0  0  0  0
   -3.9949   -4.5464   -0.5973 H   0  0  0  0  0  0  0  0  0  0  0  0
   -3.3648   -5.3682   -2.0555 H   0  0  0  0  0  0  0  0  0  0  0  0
  1  2  1  0
  2  3  2  3
  3  4  1  0
  4  5  1  0
  5  6  1  0
  2  7  1  0
  7  8  2  0
  8  9  1  0
  9 10  1  0
 10 11  2  0
 11 12  1  0
 12 13  2  0
 13 14  1  0
 14 15  1  0
 13 16  1  0
 16 17  2  0
  8 18  1  0
 18 19  1  0
 19 20  2  0
 20 21  1  0
 21 22  1  0
 21 23  1  0
 23  1  1  0
 17 10  1  0
 23 18  2  0
  1 24  1  0
  4 25  1  0
  4 26  1  0
  5 27  1  0
  5 28  1  0
  6 29  1  0
  9 30  1  0
 11 31  1  0
 12 32  1  0
 15 33  1  0
 15 34  1  0
 15 35  1  0
 16 36  1  0
 17 37  1  0
 20 38  1  0
 22 39  1  0
 22 40  1  0
 22 41  1  0
M  END
>  <ScrubInfo>  (4) 
{"isomerGroup": 0, "isomerId": 3, "confId": 0, "nr_conformers:": 1, "nr_isomers:": 6}

$$$$
_i4
     RDKit          3D

 41 43  0  0  0  0  0  0  0  0999 V2000
   -2.5380    1.1339   -0.1626 N   0  0  0  0  0  0  0  0  0  0  0  0
   -2.4559    0.6827    1.1337 C   0  0  0  0  0  0  0  0  0  0  0  0
   -3.6046    0.8634    1.8517 N   0  0  0  0  0  0  0  0  0  0  0  0
   -4.8028    0.0854    1.5096 C   0  0  0  0  0  0  0  0  0  0  0  0
   -4.6592   -1.3561    2.0099 C   0  0  0  0  0  0  0  0  0  0  0  0
   -4.5245   -1.3458    3.4312 O   0  0  0  0  0  0  0  0  0  0  0  0
   -1.4134    0.1364    1.6902 N   0  0  0  0  0  0  0  0  0  0  0  0
   -0.2480   -0.0454    0.9440 C   0  0  0  0  0  0  0  0  0  0  0  0
    0.7271   -0.6614    1.5368 N   0  0  0  0  0  0  0  0  0  0  0  0
    1.9338   -0.9004    0.8735 C   0  0  0  0  0  0  0  0  0  0  0  0
    2.9882    0.0096    0.9761 C   0  0  0  0  0  0  0  0  0  0  0  0
    4.2166   -0.2455    0.3549 C   0  0  0  0  0  0  0  0  0  0  0  0
    4.4046   -1.4268   -0.3637 C   0  0  0  0  0  0  0  0  0  0  0  0
    5.5489   -1.7998   -1.0145 O   0  0  0  0  0  0  0  0  0  0  0  0
    6.6343   -0.8824   -0.9746 C   0  0  0  0  0  0  0  0  0  0  0  0
    3.3580   -2.3484   -0.4471 C   0  0  0  0  0  0  0  0  0  0  0  0
    2.1326   -2.0911    0.1736 C   0  0  0  0  0  0  0  0  0  0  0  0
   -0.2644    0.4771   -0.4276 C   0  0  0  0  0  0  0  0  0  0  0  0
    0.7060    0.5341   -1.4044 N   0  0  0  0  0  0  0  0  0  0  0  0
    0.1316    1.1352   -2.4288 C   0  0  0  0  0  0  0  0  0  0  0  0
   -1.1702    1.4735   -2.1605 N   0  0  0  0  0  0  0  0  0  0  0  0
   -2.0754    2.1394   -3.0575 C   0  0  0  0  0  0  0  0  0  0  0  0
   -1.4209    1.0464   -0.8986 C   0  0  0  0  0  0  0  0  0  0  0  0
   -3.3290    1.7229   -0.3856 H   0  0  0  0  0  0  0  0  0  0  0  0
   -3.3923    0.6467    2.8310 H   0  0  0  0  0  0  0  0  0  0  0  0
   -5.6558    0.5607    2.0060 H   0  0  0  0  0  0  0  0  0  0  0  0
   -4.9888    0.1021    0.4307 H   0  0  0  0  0  0  0  0  0  0  0  0
   -3.7773   -1.8389    1.5761 H   0  0  0  0  0  0  0  0  0  0  0  0
   -5.5470   -1.9412    1.7532 H   0  0  0  0  0  0  0  0  0  0  0  0
   -4.1101   -2.1908    3.6827 H   0  0  0  0  0  0  0  0  0  0  0  0
    2.8476    0.9261    1.5417 H   0  0  0  0  0  0  0  0  0  0  0  0
    4.9993    0.4974    0.4560 H   0  0  0  0  0  0  0  0  0  0  0  0
    6.3666    0.0682   -1.4477 H   0  0  0  0  0  0  0  0  0  0  0  0
    7.4601   -1.3169   -1.5462 H   0  0  0  0  0  0  0  0  0  0  0  0
    6.9846   -0.7297    0.0516 H   0  0  0  0  0  0  0  0  0  0  0  0
    3.4965   -3.2747   -0.9977 H   0  0  0  0  0  0  0  0  0  0  0  0
    1.3295   -2.8184    0.1100 H   0  0  0  0  0  0  0  0  0  0  0  0
    0.6113    1.3477   -3.3758 H   0  0  0  0  0  0  0  0  0  0  0  0
   -2.9464    1.4977   -3.2126 H   0  0  0  0  0  0  0  0  0  0  0  0
   -2.3753    3.0884   -2.6060 H   0  0  0  0  0  0  0  0  0  0  0  0
   -1.5776    2.3244   -4.0127 H   0  0  0  0  0  0  0  0  0  0  0  0
  1  2  1  0
  2  3  1  0
  3  4  1  0
  4  5  1  0
  5  6  1  0
  2  7  2  0
  7  8  1  0
  8  9  2  3
  9 10  1  0
 10 11  2  0
 11 12  1  0
 12 13  2  0
 13 14  1  0
 14 15  1  0
 13 16  1  0
 16 17  2  0
  8 18  1  0
 18 19  1  0
 19 20  2  0
 20 21  1  0
 21 22  1  0
 21 23  1  0
 23  1  1  0
 17 10  1  0
 23 18  2  0
  1 24  1  0
  3 25  1  0
  4 26  1  0
  4 27  1  0
  5 28  1  0
  5 29  1  0
  6 30  1  0
 11 31  1  0
 12 32  1  0
 15 33  1  0
 15 34  1  0
 15 35  1  0
 16 36  1  0
 17 37  1  0
 20 38  1  0
 22 39  1  0
 22 40  1  0
 22 41  1  0
M  END
>  <ScrubInfo>  (5) 
{"isomerGroup": 0, "isomerId": 4, "confId": 0, "nr_conformers:": 1, "nr_isomers:": 6}

$$$$
_i5
     RDKit          3D

 41 43  0  0  0  0  0  0  0  0999 V2000
   -2.6231    1.1208   -0.1809 N   0  0  0  0  0  0  0  0  0  0  0  0
   -2.8348   -0.2444   -0.2438 C   0  0  0  0  0  0  0  0  0  0  0  0
   -4.0418   -0.6639   -0.4302 N   0  0  0  0  0  0  0  0  0  0  0  0
   -4.2643   -2.1058   -0.4950 C   0  0  0  0  0  0  0  0  0  0  0  0
   -5.7592   -2.3791   -0.6531 C   0  0  0  0  0  0  0  0  0  0  0  0
   -5.9954   -3.7738   -0.8180 O   0  0  0  0  0  0  0  0  0  0  0  0
   -1.6788   -0.9910   -0.0945 N   0  0  0  0  0  0  0  0  0  0  0  0
   -0.3643   -0.6032    0.1057 C   0  0  0  0  0  0  0  0  0  0  0  0
    0.5849   -1.4846    0.2258 N   0  0  0  0  0  0  0  0  0  0  0  0
    1.9090   -1.0841    0.4363 C   0  0  0  0  0  0  0  0  0  0  0  0
    2.7679   -0.8830   -0.6464 C   0  0  0  0  0  0  0  0  0  0  0  0
    4.1077   -0.5322   -0.4409 C   0  0  0  0  0  0  0  0  0  0  0  0
    4.6034   -0.3949    0.8561 C   0  0  0  0  0  0  0  0  0  0  0  0
    5.8856   -0.0605    1.1967 O   0  0  0  0  0  0  0  0  0  0  0  0
    6.7807    0.2140    0.1269 C   0  0  0  0  0  0  0  0  0  0  0  0
    3.7502   -0.6176    1.9396 C   0  0  0  0  0  0  0  0  0  0  0  0
    2.4130   -0.9666    1.7320 C   0  0  0  0  0  0  0  0  0  0  0  0
   -0.2493    0.8538    0.1534 C   0  0  0  0  0  0  0  0  0  0  0  0
    0.8430    1.6703    0.3229 N   0  0  0  0  0  0  0  0  0  0  0  0
    0.3651    2.8987    0.2875 C   0  0  0  0  0  0  0  0  0  0  0  0
   -0.9927    2.9158    0.0973 N   0  0  0  0  0  0  0  0  0  0  0  0
   -1.8203    4.0892    0.0124 C   0  0  0  0  0  0  0  0  0  0  0  0
   -1.3858    1.6186    0.0088 C   0  0  0  0  0  0  0  0  0  0  0  0
   -3.4596    1.6826   -0.2831 H   0  0  0  0  0  0  0  0  0  0  0  0
   -3.9081   -2.6063    0.4138 H   0  0  0  0  0  0  0  0  0  0  0  0
   -3.7271   -2.5435   -1.3454 H   0  0  0  0  0  0  0  0  0  0  0  0
   -6.1717   -1.8503   -1.5192 H   0  0  0  0  0  0  0  0  0  0  0  0
   -6.3057   -2.0424    0.2338 H   0  0  0  0  0  0  0  0  0  0  0  0
   -5.6575   -4.0200   -1.6961 H   0  0  0  0  0  0  0  0  0  0  0  0
   -1.7736   -1.9937   -0.1210 H   0  0  0  0  0  0  0  0  0  0  0  0
    2.3883   -0.9938   -1.6577 H   0  0  0  0  0  0  0  0  0  0  0  0
    4.7310   -0.3765   -1.3139 H   0  0  0  0  0  0  0  0  0  0  0  0
    7.7483    0.4828    0.5615 H   0  0  0  0  0  0  0  0  0  0  0  0
    6.4359    1.0653   -0.4694 H   0  0  0  0  0  0  0  0  0  0  0  0
    6.9318   -0.6723   -0.4982 H   0  0  0  0  0  0  0  0  0  0  0  0
    4.1277   -0.5184    2.9536 H   0  0  0  0  0  0  0  0  0  0  0  0
    1.7617   -1.1418    2.5823 H   0  0  0  0  0  0  0  0  0  0  0  0
    0.9548    3.8004    0.3938 H   0  0  0  0  0  0  0  0  0  0  0  0
   -2.3110    4.0981   -0.9642 H   0  0  0  0  0  0  0  0  0  0  0  0
   -2.5628    4.0493    0.8135 H   0  0  0  0  0  0  0  0  0  0  0  0
   -1.2029    4.9840    0.1245 H   0  0  0  0  0  0  0  0  0  0  0  0
  1  2  1  0
  2  3  2  3
  3  4  1  0
  4  5  1  0
  5  6  1  0
  2  7  1  0
  7  8  1  0
  8  9  2  3
  9 10  1  0
 10 11  2  0
 11 12  1  0
 12 13  2  0
 13 14  1  0
 14 15  1  0
 13 16  1  0
 16 17  2  0
  8 18  1  0
 18 19  1  0
 19 20  2  0
 20 21  1  0
 21 22  1  0
 21 23  1  0
 23  1  1  0
 17 10  1  0
 23 18  2  0
  1 24  1  0
  4 25  1  0
  4 26  1  0
  5 27  1  0
  5 28  1  0
  6 29  1  0
  7 30  1  0
 11 31  1  0
 12 32  1  0
 15 33  1  0
 15 34  1  0
 15 35  1  0
 16 36  1  0
 17 37  1  0
 20 38  1  0
 22 39  1  0
 22 40  1  0
 22 41  1  0
M  END
>  <ScrubInfo>  (6) 
{"isomerGroup": 0, "isomerId": 5, "confId": 0, "nr_conformers:": 1, "nr_isomers:": 6}

$$$$
