_i0
     RDKit          3D

 43 45  0  0  0  0  0  0  0  0999 V2000
    4.6052    4.0197    1.1270 C   0  0  0  0  0  0  0  0  0  0  0  0
    4.2456    2.9550    1.9968 O   0  0  0  0  0  0  0  0  0  0  0  0
    3.0428    2.2902    1.6027 C   0  0  0  0  0  0  0  0  0  0  0  0
    3.3431    1.1974    0.5792 C   0  0  0  0  0  0  0  0  0  0  0  0
    2.0837    0.4649    0.1226 C   0  0  0  0  0  0  0  0  0  0  0  0
    1.5151   -0.2941    1.2227 N   0  0  0  0  0  0  0  0  0  0  0  0
    0.4032   -1.0576    0.8784 C   0  0  0  0  0  0  0  0  0  0  0  0
   -0.4751   -0.5830   -0.0251 N   0  0  0  0  0  0  0  0  0  0  0  0
   -1.5715   -1.3028   -0.3799 C   0  0  0  0  0  0  0  0  0  0  0  0
   -2.4907   -0.8363   -1.3274 N   0  0  0  0  0  0  0  0  0  0  0  0
   -2.6192    0.3828   -2.0248 C   0  0  0  0  0  0  0  0  0  0  0  0
   -1.8449    1.5141   -1.7423 C   0  0  0  0  0  0  0  0  0  0  0  0
   -1.9958    2.7000   -2.4717 C   0  0  0  0  0  0  0  0  0  0  0  0
   -2.9257    2.7778   -3.5045 C   0  0  0  0  0  0  0  0  0  0  0  0
   -3.7100    1.6692   -3.8087 C   0  0  0  0  0  0  0  0  0  0  0  0
   -3.5564    0.4878   -3.0765 C   0  0  0  0  0  0  0  0  0  0  0  0
   -4.5604   -0.8629   -3.4950 Cl  0  0  0  0  0  0  0  0  0  0  0  0
   -1.7283   -2.5533    0.2308 C   0  0  0  0  0  0  0  0  0  0  0  0
   -2.6384   -3.6312    0.2080 C   0  0  0  0  0  0  0  0  0  0  0  0
   -2.2895   -4.6256    1.0319 N   0  0  0  0  0  0  0  0  0  0  0  0
   -1.1448   -4.1727    1.5948 N   0  0  0  0  0  0  0  0  0  0  0  0
   -0.4629   -4.9874    2.5686 C   0  0  0  0  0  0  0  0  0  0  0  0
   -0.7649   -2.9387    1.1420 C   0  0  0  0  0  0  0  0  0  0  0  0
    0.3193   -2.2379    1.5030 N   0  0  0  0  0  0  0  0  0  0  0  0
    5.5229    4.4766    1.5074 H   0  0  0  0  0  0  0  0  0  0  0  0
    3.8204    4.7821    1.1107 H   0  0  0  0  0  0  0  0  0  0  0  0
    4.7961    3.6541    0.1147 H   0  0  0  0  0  0  0  0  0  0  0  0
    2.3092    3.0118    1.2242 H   0  0  0  0  0  0  0  0  0  0  0  0
    2.6229    1.8432    2.5099 H   0  0  0  0  0  0  0  0  0  0  0  0
    3.8315    1.6371   -0.2978 H   0  0  0  0  0  0  0  0  0  0  0  0
    4.0688    0.4919    1.0032 H   0  0  0  0  0  0  0  0  0  0  0  0
    1.3662    1.1988   -0.2642 H   0  0  0  0  0  0  0  0  0  0  0  0
    2.3526   -0.2108   -0.6992 H   0  0  0  0  0  0  0  0  0  0  0  0
    2.1535   -0.9385    1.6793 H   0  0  0  0  0  0  0  0  0  0  0  0
   -3.2029   -1.5095   -1.5870 H   0  0  0  0  0  0  0  0  0  0  0  0
   -1.1185    1.5040   -0.9358 H   0  0  0  0  0  0  0  0  0  0  0  0
   -1.3836    3.5641   -2.2243 H   0  0  0  0  0  0  0  0  0  0  0  0
   -3.0402    3.7003   -4.0679 H   0  0  0  0  0  0  0  0  0  0  0  0
   -4.4376    1.7285   -4.6136 H   0  0  0  0  0  0  0  0  0  0  0  0
   -3.5443   -3.7363   -0.3747 H   0  0  0  0  0  0  0  0  0  0  0  0
    0.4297   -4.4720    2.9298 H   0  0  0  0  0  0  0  0  0  0  0  0
   -1.1462   -5.1718    3.4016 H   0  0  0  0  0  0  0  0  0  0  0  0
   -0.1797   -5.9288    2.0910 H   0  0  0  0  0  0  0  0  0  0  0  0
  1  2  1  0
  2  3  1  0
  3  4  1  0
  4  5  1  0
  5  6  1  0
  6  7  1  0
  7  8  2  0
  8  9  1  0
  9 10  1  0
 10 11  1  0
 11 12  2  0
 12 13  1  0
 13 14  2  0
 14 15  1  0
 15 16  2  0
 16 17  1  0
  9 18  2  0
 18 19  1  0
 19 20  2  0
 20 21  1  0
 21 22  1  0
 21 23  1  0
 23 24  2  0
 24  7  1  0
 16 11  1  0
 23 18  1  0
  1 25  1  0
  1 26  1  0
  1 27  1  0
  3 28  1  0
  3 29  1  0
  4 30  1  0
  4 31  1  0
  5 32  1  0
  5 33  1  0
  6 34  1  0
 10 35  1  0
 12 36  1  0
 13 37  1  0
 14 38  1  0
 15 39  1  0
 19 40  1  0
 22 41  1  0
 22 42  1  0
 22 43  1  0
M  END
>  <ScrubInfo>  (1) 
{"isomerGroup": 0, "isomerId": 0, "confId": 0, "nr_conformers:": 1, "nr_isomers:": 9}

$$$$
_i1
     RDKit          3D

 43 45  0  0  0  0  0  0  0  0999 V2000
    0.9175   -0.0252    0.0008 N   0  0  0  0  0  0  0  0  0  0  0  0
    2.0539   -0.7817    0.2172 C   0  0  0  0  0  0  0  0  0  0  0  0
    3.3283   -0.3376   -0.0731 N   0  0  0  0  0  0  0  0  0  0  0  0
    3.8379    0.9734   -0.1995 C   0  0  0  0  0  0  0  0  0  0  0  0
    3.1853    2.0954    0.3300 C   0  0  0  0  0  0  0  0  0  0  0  0
    3.6953    3.3851    0.1422 C   0  0  0  0  0  0  0  0  0  0  0  0
    4.8683    3.5787   -0.5826 C   0  0  0  0  0  0  0  0  0  0  0  0
    5.5395    2.4816   -1.1158 C   0  0  0  0  0  0  0  0  0  0  0  0
    5.0284    1.1945   -0.9258 C   0  0  0  0  0  0  0  0  0  0  0  0
    5.9040   -0.1380   -1.6042 Cl  0  0  0  0  0  0  0  0  0  0  0  0
    1.8202   -2.0168    0.6797 C   0  0  0  0  0  0  0  0  0  0  0  0
    2.5968   -3.2065    1.0453 C   0  0  0  0  0  0  0  0  0  0  0  0
    1.8524   -4.1981    1.4644 N   0  0  0  0  0  0  0  0  0  0  0  0
    0.5357   -3.7085    1.4507 N   0  0  0  0  0  0  0  0  0  0  0  0
   -0.5569   -4.6457    1.5532 C   0  0  0  0  0  0  0  0  0  0  0  0
    0.4211   -2.4261    0.9381 C   0  0  0  0  0  0  0  0  0  0  0  0
   -0.6267   -1.7117    0.7030 N   0  0  0  0  0  0  0  0  0  0  0  0
   -0.3686   -0.4675    0.1713 C   0  0  0  0  0  0  0  0  0  0  0  0
   -1.3400    0.3053   -0.1896 N   0  0  0  0  0  0  0  0  0  0  0  0
   -2.6986   -0.2049    0.0009 C   0  0  0  0  0  0  0  0  0  0  0  0
   -3.6793    0.8581   -0.4861 C   0  0  0  0  0  0  0  0  0  0  0  0
   -5.1230    0.4069   -0.2892 C   0  0  0  0  0  0  0  0  0  0  0  0
   -6.0534    1.3290   -0.8580 O   0  0  0  0  0  0  0  0  0  0  0  0
   -6.2419    2.4966   -0.0704 C   0  0  0  0  0  0  0  0  0  0  0  0
    1.0199    0.8219   -0.5382 H   0  0  0  0  0  0  0  0  0  0  0  0
    4.0469   -1.0503   -0.1762 H   0  0  0  0  0  0  0  0  0  0  0  0
    2.2886    1.9870    0.9348 H   0  0  0  0  0  0  0  0  0  0  0  0
    3.1751    4.2391    0.5710 H   0  0  0  0  0  0  0  0  0  0  0  0
    5.2614    4.5822   -0.7265 H   0  0  0  0  0  0  0  0  0  0  0  0
    6.4571    2.6333   -1.6783 H   0  0  0  0  0  0  0  0  0  0  0  0
    3.6895   -3.2255    0.9453 H   0  0  0  0  0  0  0  0  0  0  0  0
   -1.4578   -4.1545    1.9346 H   0  0  0  0  0  0  0  0  0  0  0  0
   -0.7830   -5.0760    0.5726 H   0  0  0  0  0  0  0  0  0  0  0  0
   -0.3054   -5.4606    2.2397 H   0  0  0  0  0  0  0  0  0  0  0  0
   -2.8492   -1.1266   -0.5744 H   0  0  0  0  0  0  0  0  0  0  0  0
   -2.8870   -0.4112    1.0617 H   0  0  0  0  0  0  0  0  0  0  0  0
   -3.5037    1.0826   -1.5457 H   0  0  0  0  0  0  0  0  0  0  0  0
   -3.4980    1.7978    0.0486 H   0  0  0  0  0  0  0  0  0  0  0  0
   -5.2781   -0.5478   -0.8038 H   0  0  0  0  0  0  0  0  0  0  0  0
   -5.3528    0.2435    0.7704 H   0  0  0  0  0  0  0  0  0  0  0  0
   -5.3319    3.1013   -0.0418 H   0  0  0  0  0  0  0  0  0  0  0  0
   -7.0331    3.0942   -0.5316 H   0  0  0  0  0  0  0  0  0  0  0  0
   -6.5546    2.2332    0.9445 H   0  0  0  0  0  0  0  0  0  0  0  0
  1  2  1  0
  2  3  1  0
  3  4  1  0
  4  5  2  0
  5  6  1  0
  6  7  2  0
  7  8  1  0
  8  9  2  0
  9 10  1  0
  2 11  2  0
 11 12  1  0
 12 13  2  0
 13 14  1  0
 14 15  1  0
 14 16  1  0
 16 17  2  0
 17 18  1  0
 18 19  2  3
 19 20  1  0
 20 21  1  0
 21 22  1  0
 22 23  1  0
 23 24  1  0
 18  1  1  0
  9  4  1  0
 16 11  1  0
  1 25  1  0
  3 26  1  0
  5 27  1  0
  6 28  1  0
  7 29  1  0
  8 30  1  0
 12 31  1  0
 15 32  1  0
 15 33  1  0
 15 34  1  0
 20 35  1  0
 20 36  1  0
 21 37  1  0
 21 38  1  0
 22 39  1  0
 22 40  1  0
 24 41  1  0
 24 42  1  0
 24 43  1  0
M  END
>  <ScrubInfo>  (2) 
{"isomerGroup": 0, "isomerId": 1, "confId": 0, "nr_conformers:": 1, "nr_isomers:": 9}

$$$$
_i2
     RDKit          3D

 43 45  0  0  0  0  0  0  0  0999 V2000
   -0.5642    0.2685   -0.8230 N   0  0  0  0  0  0  0  0  0  0  0  0
    0.4341    0.7667   -1.6272 C   0  0  0  0  0  0  0  0  0  0  0  0
    1.5287    1.2592   -0.9734 N   0  0  0  0  0  0  0  0  0  0  0  0
    2.2210    0.5130    0.0737 C   0  0  0  0  0  0  0  0  0  0  0  0
    2.0561    1.2296    1.4116 C   0  0  0  0  0  0  0  0  0  0  0  0
    2.6579    0.4275    2.5589 C   0  0  0  0  0  0  0  0  0  0  0  0
    4.0463    0.2251    2.3125 O   0  0  0  0  0  0  0  0  0  0  0  0
    4.6678   -0.5023    3.3650 C   0  0  0  0  0  0  0  0  0  0  0  0
    0.3806    0.8051   -2.9356 N   0  0  0  0  0  0  0  0  0  0  0  0
   -0.7773    0.2542   -3.4003 C   0  0  0  0  0  0  0  0  0  0  0  0
   -1.8195   -0.2832   -2.6690 C   0  0  0  0  0  0  0  0  0  0  0  0
   -2.7549   -0.7155   -3.6184 C   0  0  0  0  0  0  0  0  0  0  0  0
   -2.3516   -0.4749   -4.8733 N   0  0  0  0  0  0  0  0  0  0  0  0
   -1.1409    0.1164   -4.7111 N   0  0  0  0  0  0  0  0  0  0  0  0
   -0.3917    0.5207   -5.8736 C   0  0  0  0  0  0  0  0  0  0  0  0
   -1.7562   -0.2881   -1.2298 C   0  0  0  0  0  0  0  0  0  0  0  0
   -2.7542   -0.7629   -0.5620 N   0  0  0  0  0  0  0  0  0  0  0  0
   -2.6821   -0.7497    0.8430 C   0  0  0  0  0  0  0  0  0  0  0  0
   -3.4222    0.2215    1.5281 C   0  0  0  0  0  0  0  0  0  0  0  0
   -3.3995    0.2891    2.9230 C   0  0  0  0  0  0  0  0  0  0  0  0
   -2.6417   -0.6242    3.6529 C   0  0  0  0  0  0  0  0  0  0  0  0
   -1.9095   -1.6081    2.9885 C   0  0  0  0  0  0  0  0  0  0  0  0
   -1.9325   -1.6750    1.5917 C   0  0  0  0  0  0  0  0  0  0  0  0
   -0.9916   -2.9060    0.8259 Cl  0  0  0  0  0  0  0  0  0  0  0  0
   -0.4558    0.4211    0.1632 H   0  0  0  0  0  0  0  0  0  0  0  0
    2.1885    1.6171   -1.6624 H   0  0  0  0  0  0  0  0  0  0  0  0
    3.2825    0.4456   -0.1909 H   0  0  0  0  0  0  0  0  0  0  0  0
    1.8447   -0.5152    0.1359 H   0  0  0  0  0  0  0  0  0  0  0  0
    2.5490    2.2080    1.3503 H   0  0  0  0  0  0  0  0  0  0  0  0
    0.9964    1.4156    1.6207 H   0  0  0  0  0  0  0  0  0  0  0  0
    2.1535   -0.5418    2.6487 H   0  0  0  0  0  0  0  0  0  0  0  0
    2.5287    0.9794    3.4969 H   0  0  0  0  0  0  0  0  0  0  0  0
    4.5899    0.0474    4.3079 H   0  0  0  0  0  0  0  0  0  0  0  0
    5.7257   -0.6271    3.1191 H   0  0  0  0  0  0  0  0  0  0  0  0
    4.2127   -1.4922    3.4663 H   0  0  0  0  0  0  0  0  0  0  0  0
   -3.7115   -1.1931   -3.4511 H   0  0  0  0  0  0  0  0  0  0  0  0
   -0.9944    1.2357   -6.4395 H   0  0  0  0  0  0  0  0  0  0  0  0
   -0.1871   -0.3677   -6.4764 H   0  0  0  0  0  0  0  0  0  0  0  0
    0.5484    0.9876   -5.5718 H   0  0  0  0  0  0  0  0  0  0  0  0
   -4.0273    0.9282    0.9640 H   0  0  0  0  0  0  0  0  0  0  0  0
   -3.9836    1.0489    3.4375 H   0  0  0  0  0  0  0  0  0  0  0  0
   -2.6320   -0.5777    4.7395 H   0  0  0  0  0  0  0  0  0  0  0  0
   -1.3309   -2.3266    3.5637 H   0  0  0  0  0  0  0  0  0  0  0  0
  1  2  1  0
  2  3  1  0
  3  4  1  0
  4  5  1  0
  5  6  1  0
  6  7  1  0
  7  8  1  0
  2  9  2  0
  9 10  1  0
 10 11  2  0
 11 12  1  0
 12 13  2  0
 13 14  1  0
 14 15  1  0
 11 16  1  0
 16 17  2  3
 17 18  1  0
 18 19  2  0
 19 20  1  0
 20 21  2  0
 21 22  1  0
 22 23  2  0
 23 24  1  0
 16  1  1  0
 23 18  1  0
 14 10  1  0
  1 25  1  0
  3 26  1  0
  4 27  1  0
  4 28  1  0
  5 29  1  0
  5 30  1  0
  6 31  1  0
  6 32  1  0
  8 33  1  0
  8 34  1  0
  8 35  1  0
 12 36  1  0
 15 37  1  0
 15 38  1  0
 15 39  1  0
 19 40  1  0
 20 41  1  0
 21 42  1  0
 22 43  1  0
M  END
>  <ScrubInfo>  (3) 
{"isomerGroup": 0, "isomerId": 2, "confId": 0, "nr_conformers:": 1, "nr_isomers:": 9}

$$$$
_i3
     RDKit          3D

 43 45  0  0  0  0  0  0  0  0999 V2000
    0.8838   -0.0522    0.4590 N   0  0  0  0  0  0  0  0  0  0  0  0
    0.6297    0.7789   -0.6218 C   0  0  0  0  0  0  0  0  0  0  0  0
    1.4554    1.5990   -1.1646 N   0  0  0  0  0  0  0  0  0  0  0  0
    2.8104    1.7702   -0.6628 C   0  0  0  0  0  0  0  0  0  0  0  0
    3.7484    0.7829   -1.3493 C   0  0  0  0  0  0  0  0  0  0  0  0
    5.1887    0.9748   -0.8832 C   0  0  0  0  0  0  0  0  0  0  0  0
    6.1008    0.1494   -1.6056 O   0  0  0  0  0  0  0  0  0  0  0  0
    6.0718   -1.2153   -1.2135 C   0  0  0  0  0  0  0  0  0  0  0  0
   -0.6114    0.7853   -1.2436 N   0  0  0  0  0  0  0  0  0  0  0  0
   -1.5637    0.0174   -0.7998 C   0  0  0  0  0  0  0  0  0  0  0  0
   -2.8040   -0.0555   -1.3736 N   0  0  0  0  0  0  0  0  0  0  0  0
   -4.0051    0.4387   -0.7827 C   0  0  0  0  0  0  0  0  0  0  0  0
   -4.0656    0.9116    0.5370 C   0  0  0  0  0  0  0  0  0  0  0  0
   -5.2761    1.3373    1.0953 C   0  0  0  0  0  0  0  0  0  0  0  0
   -6.4503    1.2909    0.3487 C   0  0  0  0  0  0  0  0  0  0  0  0
   -6.4182    0.8193   -0.9610 C   0  0  0  0  0  0  0  0  0  0  0  0
   -5.2089    0.3943   -1.5186 C   0  0  0  0  0  0  0  0  0  0  0  0
   -5.2261   -0.1790   -3.1522 Cl  0  0  0  0  0  0  0  0  0  0  0  0
   -1.3252   -0.8909    0.2960 C   0  0  0  0  0  0  0  0  0  0  0  0
   -2.0251   -1.8917    0.9855 C   0  0  0  0  0  0  0  0  0  0  0  0
   -1.2877   -2.4466    1.9607 N   0  0  0  0  0  0  0  0  0  0  0  0
   -0.0962   -1.8055    1.8728 N   0  0  0  0  0  0  0  0  0  0  0  0
    0.9622   -2.1694    2.7798 C   0  0  0  0  0  0  0  0  0  0  0  0
   -0.0911   -0.8749    0.8828 C   0  0  0  0  0  0  0  0  0  0  0  0
    1.8165   -0.0487    0.8394 H   0  0  0  0  0  0  0  0  0  0  0  0
    2.8673    1.6836    0.4281 H   0  0  0  0  0  0  0  0  0  0  0  0
    3.1258    2.7943   -0.8951 H   0  0  0  0  0  0  0  0  0  0  0  0
    3.6962    0.9024   -2.4388 H   0  0  0  0  0  0  0  0  0  0  0  0
    3.4198   -0.2432   -1.1500 H   0  0  0  0  0  0  0  0  0  0  0  0
    5.4946    2.0109   -1.0658 H   0  0  0  0  0  0  0  0  0  0  0  0
    5.2888    0.7934    0.1935 H   0  0  0  0  0  0  0  0  0  0  0  0
    5.1199   -1.6799   -1.4831 H   0  0  0  0  0  0  0  0  0  0  0  0
    6.2504   -1.3136   -0.1384 H   0  0  0  0  0  0  0  0  0  0  0  0
    6.8696   -1.7402   -1.7462 H   0  0  0  0  0  0  0  0  0  0  0  0
   -2.7720    0.3067   -2.3268 H   0  0  0  0  0  0  0  0  0  0  0  0
   -3.1739    0.9789    1.1547 H   0  0  0  0  0  0  0  0  0  0  0  0
   -5.2978    1.7072    2.1183 H   0  0  0  0  0  0  0  0  0  0  0  0
   -7.3887    1.6226    0.7865 H   0  0  0  0  0  0  0  0  0  0  0  0
   -7.3358    0.7833   -1.5425 H   0  0  0  0  0  0  0  0  0  0  0  0
   -3.0370   -2.2427    0.8276 H   0  0  0  0  0  0  0  0  0  0  0  0
    1.2371   -3.2094    2.5872 H   0  0  0  0  0  0  0  0  0  0  0  0
    0.5957   -2.0536    3.8030 H   0  0  0  0  0  0  0  0  0  0  0  0
    1.8267   -1.5211    2.6228 H   0  0  0  0  0  0  0  0  0  0  0  0
  1  2  1  0
  2  3  2  3
  3  4  1  0
  4  5  1  0
  5  6  1  0
  6  7  1  0
  7  8  1  0
  2  9  1  0
  9 10  2  0
 10 11  1  0
 11 12  1  0
 12 13  2  0
 13 14  1  0
 14 15  2  0
 15 16  1  0
 16 17  2  0
 17 18  1  0
 10 19  1  0
 19 20  1  0
 20 21  2  0
 21 22  1  0
 22 23  1  0
 22 24  1  0
 24  1  1  0
 17 12  1  0
 24 19  2  0
  1 25  1  0
  4 26  1  0
  4 27  1  0
  5 28  1  0
  5 29  1  0
  6 30  1  0
  6 31  1  0
  8 32  1  0
  8 33  1  0
  8 34  1  0
 11 35  1  0
 13 36  1  0
 14 37  1  0
 15 38  1  0
 16 39  1  0
 20 40  1  0
 23 41  1  0
 23 42  1  0
 23 43  1  0
M  END
>  <ScrubInfo>  (4) 
{"isomerGroup": 0, "isomerId": 3, "confId": 0, "nr_conformers:": 1, "nr_isomers:": 9}

$$$$
_i4
     RDKit          3D

 43 45  0  0  0  0  0  0  0  0999 V2000
   -2.5947   -2.2879    0.4563 N   0  0  0  0  0  0  0  0  0  0  0  0
   -2.7227   -0.9492    0.1008 C   0  0  0  0  0  0  0  0  0  0  0  0
   -1.5787   -0.3979   -0.3334 C   0  0  0  0  0  0  0  0  0  0  0  0
   -1.0887    0.8753   -0.8471 C   0  0  0  0  0  0  0  0  0  0  0  0
   -1.6906    2.0051   -1.0172 N   0  0  0  0  0  0  0  0  0  0  0  0
   -3.0492    2.1532   -0.7050 C   0  0  0  0  0  0  0  0  0  0  0  0
   -3.3920    2.6769    0.5482 C   0  0  0  0  0  0  0  0  0  0  0  0
   -4.7291    2.8715    0.9018 C   0  0  0  0  0  0  0  0  0  0  0  0
   -5.7417    2.5572   -0.0025 C   0  0  0  0  0  0  0  0  0  0  0  0
   -5.4175    2.0548   -1.2631 C   0  0  0  0  0  0  0  0  0  0  0  0
   -4.0784    1.8603   -1.6167 C   0  0  0  0  0  0  0  0  0  0  0  0
   -3.7359    1.2280   -3.1884 Cl  0  0  0  0  0  0  0  0  0  0  0  0
    0.2344    0.8587   -1.2009 N   0  0  0  0  0  0  0  0  0  0  0  0
    0.9963   -0.1860   -1.0688 C   0  0  0  0  0  0  0  0  0  0  0  0
    2.2877   -0.0349   -1.4788 N   0  0  0  0  0  0  0  0  0  0  0  0
    3.3801   -0.8934   -1.0864 C   0  0  0  0  0  0  0  0  0  0  0  0
    3.8028   -0.6722    0.3633 C   0  0  0  0  0  0  0  0  0  0  0  0
    4.4058    0.7105    0.5971 C   0  0  0  0  0  0  0  0  0  0  0  0
    4.8121    0.8724    1.9569 O   0  0  0  0  0  0  0  0  0  0  0  0
    6.1032    0.3434    2.2252 C   0  0  0  0  0  0  0  0  0  0  0  0
    0.6093   -1.3914   -0.5502 N   0  0  0  0  0  0  0  0  0  0  0  0
   -0.6175   -1.5067   -0.1793 C   0  0  0  0  0  0  0  0  0  0  0  0
   -1.2481   -2.6131    0.3927 N   0  0  0  0  0  0  0  0  0  0  0  0
   -0.8663   -3.9610    0.0168 C   0  0  0  0  0  0  0  0  0  0  0  0
   -3.0748   -2.5241    1.3277 H   0  0  0  0  0  0  0  0  0  0  0  0
   -3.6931   -0.4877    0.2033 H   0  0  0  0  0  0  0  0  0  0  0  0
   -2.6034    2.9428    1.2486 H   0  0  0  0  0  0  0  0  0  0  0  0
   -4.9767    3.2805    1.8785 H   0  0  0  0  0  0  0  0  0  0  0  0
   -6.7828    2.7157    0.2686 H   0  0  0  0  0  0  0  0  0  0  0  0
   -6.2103    1.8227   -1.9698 H   0  0  0  0  0  0  0  0  0  0  0  0
    2.5079    0.9272   -1.7059 H   0  0  0  0  0  0  0  0  0  0  0  0
    3.1027   -1.9440   -1.2320 H   0  0  0  0  0  0  0  0  0  0  0  0
    4.2305   -0.7070   -1.7523 H   0  0  0  0  0  0  0  0  0  0  0  0
    4.5350   -1.4421    0.6315 H   0  0  0  0  0  0  0  0  0  0  0  0
    2.9576   -0.8182    1.0469 H   0  0  0  0  0  0  0  0  0  0  0  0
    5.2464    0.9057   -0.0792 H   0  0  0  0  0  0  0  0  0  0  0  0
    3.6495    1.4790    0.4058 H   0  0  0  0  0  0  0  0  0  0  0  0
    6.1282   -0.7371    2.0621 H   0  0  0  0  0  0  0  0  0  0  0  0
    6.3406    0.5381    3.2747 H   0  0  0  0  0  0  0  0  0  0  0  0
    6.8565    0.8363    1.6032 H   0  0  0  0  0  0  0  0  0  0  0  0
   -1.4059   -4.6933    0.6262 H   0  0  0  0  0  0  0  0  0  0  0  0
    0.2051   -4.1173    0.1783 H   0  0  0  0  0  0  0  0  0  0  0  0
   -1.0936   -4.1507   -1.0375 H   0  0  0  0  0  0  0  0  0  0  0  0
  1  2  1  0
  2  3  2  0
  3  4  1  0
  4  5  2  3
  5  6  1  0
  6  7  2  0
  7  8  1  0
  8  9  2  0
  9 10  1  0
 10 11  2  0
 11 12  1  0
  4 13  1  0
 13 14  2  0
 14 15  1  0
 15 16  1  0
 16 17  1  0
 17 18  1  0
 18 19  1  0
 19 20  1  0
 14 21  1  0
 21 22  2  0
 22 23  1  0
 23 24  1  0
 23  1  1  0
 22  3  1  0
 11  6  1  0
  1 25  1  0
  2 26  1  0
  7 27  1  0
  8 28  1  0
  9 29  1  0
 10 30  1  0
 15 31  1  0
 16 32  1  0
 16 33  1  0
 17 34  1  0
 17 35  1  0
 18 36  1  0
 18 37  1  0
 20 38  1  0
 20 39  1  0
 20 40  1  0
 24 41  1  0
 24 42  1  0
 24 43  1  0
M  END
>  <ScrubInfo>  (5) 
{"isomerGroup": 0, "isomerId": 4, "confId": 0, "nr_conformers:": 1, "nr_isomers:": 9}

$$$$
_i5
     RDKit          3D

 43 45  0  0  0  0  0  0  0  0999 V2000
    0.5681   -0.2318    1.1691 N   0  0  0  0  0  0  0  0  0  0  0  0
    0.9329    0.3235   -0.0342 C   0  0  0  0  0  0  0  0  0  0  0  0
    2.2660    0.6275   -0.0686 N   0  0  0  0  0  0  0  0  0  0  0  0
    2.8945    1.0504   -1.3120 C   0  0  0  0  0  0  0  0  0  0  0  0
    4.3717    1.3787   -1.0846 C   0  0  0  0  0  0  0  0  0  0  0  0
    5.1974    0.1515   -0.6956 C   0  0  0  0  0  0  0  0  0  0  0  0
    4.7895   -0.3857    0.5680 O   0  0  0  0  0  0  0  0  0  0  0  0
    5.4401    0.2486    1.6652 C   0  0  0  0  0  0  0  0  0  0  0  0
    0.1234    0.5490   -1.0282 N   0  0  0  0  0  0  0  0  0  0  0  0
   -1.2236    0.2294   -0.9208 C   0  0  0  0  0  0  0  0  0  0  0  0
   -1.9492    0.4862   -1.9628 N   0  0  0  0  0  0  0  0  0  0  0  0
   -3.3276    0.2465   -2.0017 C   0  0  0  0  0  0  0  0  0  0  0  0
   -3.7822   -0.9516   -2.5674 C   0  0  0  0  0  0  0  0  0  0  0  0
   -5.1486   -1.2256   -2.6613 C   0  0  0  0  0  0  0  0  0  0  0  0
   -6.0791   -0.2941   -2.2045 C   0  0  0  0  0  0  0  0  0  0  0  0
   -5.6443    0.9151   -1.6609 C   0  0  0  0  0  0  0  0  0  0  0  0
   -4.2762    1.1890   -1.5671 C   0  0  0  0  0  0  0  0  0  0  0  0
   -3.7939    2.7019   -0.8841 Cl  0  0  0  0  0  0  0  0  0  0  0  0
   -1.6545   -0.3592    0.3372 C   0  0  0  0  0  0  0  0  0  0  0  0
   -2.8447   -0.8396    0.9131 C   0  0  0  0  0  0  0  0  0  0  0  0
   -2.6756   -1.2886    2.1675 N   0  0  0  0  0  0  0  0  0  0  0  0
   -1.3586   -1.0915    2.4025 N   0  0  0  0  0  0  0  0  0  0  0  0
   -0.8128   -1.4677    3.6813 C   0  0  0  0  0  0  0  0  0  0  0  0
   -0.7258   -0.5538    1.3285 C   0  0  0  0  0  0  0  0  0  0  0  0
    1.2478   -0.2141    1.9161 H   0  0  0  0  0  0  0  0  0  0  0  0
    2.8600   -0.0326    0.4333 H   0  0  0  0  0  0  0  0  0  0  0  0
    2.7986    0.2626   -2.0683 H   0  0  0  0  0  0  0  0  0  0  0  0
    2.3903    1.9464   -1.6923 H   0  0  0  0  0  0  0  0  0  0  0  0
    4.4542    2.1508   -0.3114 H   0  0  0  0  0  0  0  0  0  0  0  0
    4.7826    1.7967   -2.0109 H   0  0  0  0  0  0  0  0  0  0  0  0
    6.2673    0.3910   -0.6818 H   0  0  0  0  0  0  0  0  0  0  0  0
    5.0540   -0.6376   -1.4418 H   0  0  0  0  0  0  0  0  0  0  0  0
    5.0759   -0.2109    2.5881 H   0  0  0  0  0  0  0  0  0  0  0  0
    6.5222    0.0983    1.6062 H   0  0  0  0  0  0  0  0  0  0  0  0
    5.2071    1.3163    1.6951 H   0  0  0  0  0  0  0  0  0  0  0  0
   -3.0597   -1.6736   -2.9407 H   0  0  0  0  0  0  0  0  0  0  0  0
   -5.4842   -2.1629   -3.0986 H   0  0  0  0  0  0  0  0  0  0  0  0
   -7.1431   -0.5049   -2.2802 H   0  0  0  0  0  0  0  0  0  0  0  0
   -6.3741    1.6428   -1.3156 H   0  0  0  0  0  0  0  0  0  0  0  0
   -3.8390   -0.8920    0.4927 H   0  0  0  0  0  0  0  0  0  0  0  0
    0.2689   -1.3187    3.6849 H   0  0  0  0  0  0  0  0  0  0  0  0
   -1.0393   -2.5224    3.8577 H   0  0  0  0  0  0  0  0  0  0  0  0
   -1.2765   -0.8435    4.4493 H   0  0  0  0  0  0  0  0  0  0  0  0
  1  2  1  0
  2  3  1  0
  3  4  1  0
  4  5  1  0
  5  6  1  0
  6  7  1  0
  7  8  1  0
  2  9  2  0
  9 10  1  0
 10 11  2  3
 11 12  1  0
 12 13  2  0
 13 14  1  0
 14 15  2  0
 15 16  1  0
 16 17  2  0
 17 18  1  0
 10 19  1  0
 19 20  1  0
 20 21  2  0
 21 22  1  0
 22 23  1  0
 22 24  1  0
 24  1  1  0
 17 12  1  0
 24 19  2  0
  1 25  1  0
  3 26  1  0
  4 27  1  0
  4 28  1  0
  5 29  1  0
  5 30  1  0
  6 31  1  0
  6 32  1  0
  8 33  1  0
  8 34  1  0
  8 35  1  0
 13 36  1  0
 14 37  1  0
 15 38  1  0
 16 39  1  0
 20 40  1  0
 23 41  1  0
 23 42  1  0
 23 43  1  0
M  END
>  <ScrubInfo>  (6) 
{"isomerGroup": 0, "isomerId": 5, "confId": 0, "nr_conformers:": 1, "nr_isomers:": 9}

$$$$
_i6
     RDKit          3D

 43 45  0  0  0  0  0  0  0  0999 V2000
   -2.4851    2.7769   -1.1026 N   0  0  0  0  0  0  0  0  0  0  0  0
   -2.8030    1.4715   -0.7422 C   0  0  0  0  0  0  0  0  0  0  0  0
   -1.7562    0.6386   -0.8160 C   0  0  0  0  0  0  0  0  0  0  0  0
   -1.4473   -0.7682   -0.5690 C   0  0  0  0  0  0  0  0  0  0  0  0
   -2.3715   -1.6915   -0.1408 N   0  0  0  0  0  0  0  0  0  0  0  0
   -3.1661   -1.6113    1.0320 C   0  0  0  0  0  0  0  0  0  0  0  0
   -3.0084   -0.5960    1.9871 C   0  0  0  0  0  0  0  0  0  0  0  0
   -3.8328   -0.5321    3.1160 C   0  0  0  0  0  0  0  0  0  0  0  0
   -4.8315   -1.4821    3.3116 C   0  0  0  0  0  0  0  0  0  0  0  0
   -5.0049   -2.5034    2.3812 C   0  0  0  0  0  0  0  0  0  0  0  0
   -4.1803   -2.5670    1.2540 C   0  0  0  0  0  0  0  0  0  0  0  0
   -4.4382   -3.8622    0.1346 Cl  0  0  0  0  0  0  0  0  0  0  0  0
   -0.2378   -1.1853   -0.8213 N   0  0  0  0  0  0  0  0  0  0  0  0
    0.7110   -0.2826   -1.2517 C   0  0  0  0  0  0  0  0  0  0  0  0
    1.8854   -0.7914   -1.3650 N   0  0  0  0  0  0  0  0  0  0  0  0
    2.9949    0.0412   -1.8308 C   0  0  0  0  0  0  0  0  0  0  0  0
    3.7147    0.6777   -0.6420 C   0  0  0  0  0  0  0  0  0  0  0  0
    4.4981   -0.3426    0.1774 C   0  0  0  0  0  0  0  0  0  0  0  0
    5.6376   -0.7717   -0.5709 O   0  0  0  0  0  0  0  0  0  0  0  0
    6.3478   -1.7995    0.1059 C   0  0  0  0  0  0  0  0  0  0  0  0
    0.5100    1.0477   -1.5415 N   0  0  0  0  0  0  0  0  0  0  0  0
   -0.6820    1.4973   -1.3575 C   0  0  0  0  0  0  0  0  0  0  0  0
   -1.1857    2.7752   -1.5988 N   0  0  0  0  0  0  0  0  0  0  0  0
   -0.3573    3.9534   -1.4337 C   0  0  0  0  0  0  0  0  0  0  0  0
   -3.1906    3.2136   -1.7013 H   0  0  0  0  0  0  0  0  0  0  0  0
   -3.8168    1.2370   -0.4498 H   0  0  0  0  0  0  0  0  0  0  0  0
   -2.0308   -2.6458   -0.2544 H   0  0  0  0  0  0  0  0  0  0  0  0
   -2.2226    0.1487    1.8922 H   0  0  0  0  0  0  0  0  0  0  0  0
   -3.6863    0.2596    3.8478 H   0  0  0  0  0  0  0  0  0  0  0  0
   -5.4688   -1.4312    4.1911 H   0  0  0  0  0  0  0  0  0  0  0  0
   -5.7815   -3.2477    2.5379 H   0  0  0  0  0  0  0  0  0  0  0  0
    2.6699    0.8176   -2.5336 H   0  0  0  0  0  0  0  0  0  0  0  0
    3.6850   -0.5929   -2.3991 H   0  0  0  0  0  0  0  0  0  0  0  0
    2.9910    1.1843    0.0065 H   0  0  0  0  0  0  0  0  0  0  0  0
    4.4080    1.4358   -1.0254 H   0  0  0  0  0  0  0  0  0  0  0  0
    4.8484    0.1302    1.1022 H   0  0  0  0  0  0  0  0  0  0  0  0
    3.8708   -1.2016    0.4413 H   0  0  0  0  0  0  0  0  0  0  0  0
    6.7004   -1.4453    1.0793 H   0  0  0  0  0  0  0  0  0  0  0  0
    5.7147   -2.6830    0.2325 H   0  0  0  0  0  0  0  0  0  0  0  0
    7.2145   -2.0759   -0.5004 H   0  0  0  0  0  0  0  0  0  0  0  0
   -0.8951    4.8469   -1.7670 H   0  0  0  0  0  0  0  0  0  0  0  0
    0.5556    3.8699   -2.0321 H   0  0  0  0  0  0  0  0  0  0  0  0
   -0.0771    4.0872   -0.3837 H   0  0  0  0  0  0  0  0  0  0  0  0
  1  2  1  0
  2  3  2  0
  3  4  1  0
  4  5  1  0
  5  6  1  0
  6  7  2  0
  7  8  1  0
  8  9  2  0
  9 10  1  0
 10 11  2  0
 11 12  1  0
  4 13  2  0
 13 14  1  0
 14 15  2  3
 15 16  1  0
 16 17  1  0
 17 18  1  0
 18 19  1  0
 19 20  1  0
 14 21  1  0
 21 22  2  0
 22 23  1  0
 23 24  1  0
 23  1  1  0
 22  3  1  0
 11  6  1  0
  1 25  1  0
  2 26  1  0
  5 27  1  0
  7 28  1  0
  8 29  1  0
  9 30  1  0
 10 31  1  0
 16 32  1  0
 16 33  1  0
 17 34  1  0
 17 35  1  0
 18 36  1  0
 18 37  1  0
 20 38  1  0
 20 39  1  0
 20 40  1  0
 24 41  1  0
 24 42  1  0
 24 43  1  0
M  END
>  <ScrubInfo>  (7) 
{"isomerGroup": 0, "isomerId": 6, "confId": 0, "nr_conformers:": 1, "nr_isomers:": 9}

$$$$
_i7
     RDKit          3D

 43 45  0  0  0  0  0  0  0  0999 V2000
   -2.4138   -2.4980   -1.1135 N   0  0  0  0  0  0  0  0  0  0  0  0
   -2.7774   -1.2368   -0.6558 C   0  0  0  0  0  0  0  0  0  0  0  0
   -1.7542   -0.5342   -0.1492 C   0  0  0  0  0  0  0  0  0  0  0  0
   -1.4644    0.7907    0.4347 C   0  0  0  0  0  0  0  0  0  0  0  0
   -2.2716    1.7823    0.6713 N   0  0  0  0  0  0  0  0  0  0  0  0
   -3.6338    1.7006    0.3433 C   0  0  0  0  0  0  0  0  0  0  0  0
   -4.5397    1.3148    1.3392 C   0  0  0  0  0  0  0  0  0  0  0  0
   -5.9090    1.2455    1.0723 C   0  0  0  0  0  0  0  0  0  0  0  0
   -6.3904    1.5763   -0.1931 C   0  0  0  0  0  0  0  0  0  0  0  0
   -5.5039    1.9832   -1.1908 C   0  0  0  0  0  0  0  0  0  0  0  0
   -4.1333    2.0526   -0.9230 C   0  0  0  0  0  0  0  0  0  0  0  0
   -3.0783    2.5597   -2.1949 Cl  0  0  0  0  0  0  0  0  0  0  0  0
   -0.1410    0.9369    0.7500 N   0  0  0  0  0  0  0  0  0  0  0  0
    0.8609    0.0254    0.5773 C   0  0  0  0  0  0  0  0  0  0  0  0
    2.0650    0.3638    0.9060 N   0  0  0  0  0  0  0  0  0  0  0  0
    3.1167   -0.6350    0.7170 C   0  0  0  0  0  0  0  0  0  0  0  0
    4.4523   -0.0500    1.1698 C   0  0  0  0  0  0  0  0  0  0  0  0
    4.9021    1.1187    0.2957 C   0  0  0  0  0  0  0  0  0  0  0  0
    6.1714    1.6232    0.7210 O   0  0  0  0  0  0  0  0  0  0  0  0
    7.2684    0.8905    0.1940 C   0  0  0  0  0  0  0  0  0  0  0  0
    0.6123   -1.2326    0.0709 N   0  0  0  0  0  0  0  0  0  0  0  0
   -0.6113   -1.5107   -0.2570 C   0  0  0  0  0  0  0  0  0  0  0  0
   -1.0915   -2.7221   -0.7610 N   0  0  0  0  0  0  0  0  0  0  0  0
   -0.2655   -3.5552   -1.6143 C   0  0  0  0  0  0  0  0  0  0  0  0
   -3.0796   -3.2318   -0.8610 H   0  0  0  0  0  0  0  0  0  0  0  0
   -3.8127   -0.9442   -0.7456 H   0  0  0  0  0  0  0  0  0  0  0  0
   -4.1710    1.0736    2.3334 H   0  0  0  0  0  0  0  0  0  0  0  0
   -6.5994    0.9446    1.8569 H   0  0  0  0  0  0  0  0  0  0  0  0
   -7.4571    1.5297   -0.3996 H   0  0  0  0  0  0  0  0  0  0  0  0
   -5.8855    2.2518   -2.1726 H   0  0  0  0  0  0  0  0  0  0  0  0
    0.1436    1.8287    1.1267 H   0  0  0  0  0  0  0  0  0  0  0  0
    2.9086   -1.5250    1.3233 H   0  0  0  0  0  0  0  0  0  0  0  0
    3.1896   -0.9362   -0.3352 H   0  0  0  0  0  0  0  0  0  0  0  0
    5.2078   -0.8432    1.1506 H   0  0  0  0  0  0  0  0  0  0  0  0
    4.3915    0.2825    2.2136 H   0  0  0  0  0  0  0  0  0  0  0  0
    4.9380    0.8414   -0.7646 H   0  0  0  0  0  0  0  0  0  0  0  0
    4.1912    1.9463    0.3910 H   0  0  0  0  0  0  0  0  0  0  0  0
    7.2571   -0.1445    0.5450 H   0  0  0  0  0  0  0  0  0  0  0  0
    8.1920    1.3610    0.5425 H   0  0  0  0  0  0  0  0  0  0  0  0
    7.2585    0.9180   -0.8999 H   0  0  0  0  0  0  0  0  0  0  0  0
   -0.7759   -4.4983   -1.8350 H   0  0  0  0  0  0  0  0  0  0  0  0
    0.6808   -3.7962   -1.1194 H   0  0  0  0  0  0  0  0  0  0  0  0
   -0.0477   -3.0479   -2.5600 H   0  0  0  0  0  0  0  0  0  0  0  0
  1  2  1  0
  2  3  2  0
  3  4  1  0
  4  5  2  3
  5  6  1  0
  6  7  2  0
  7  8  1  0
  8  9  2  0
  9 10  1  0
 10 11  2  0
 11 12  1  0
  4 13  1  0
 13 14  1  0
 14 15  2  3
 15 16  1  0
 16 17  1  0
 17 18  1  0
 18 19  1  0
 19 20  1  0
 14 21  1  0
 21 22  2  0
 22 23  1  0
 23 24  1  0
 23  1  1  0
 22  3  1  0
 11  6  1  0
  1 25  1  0
  2 26  1  0
  7 27  1  0
  8 28  1  0
  9 29  1  0
 10 30  1  0
 13 31  1  0
 16 32  1  0
 16 33  1  0
 17 34  1  0
 17 35  1  0
 18 36  1  0
 18 37  1  0
 20 38  1  0
 20 39  1  0
 20 40  1  0
 24 41  1  0
 24 42  1  0
 24 43  1  0
M  END
>  <ScrubInfo>  (8) 
{"isomerGroup": 0, "isomerId": 7, "confId": 0, "nr_conformers:": 1, "nr_isomers:": 9}

$$$$
_i8
     RDKit          3D

 43 45  0  0  0  0  0  0  0  0999 V2000
    0.4607   -1.8973    0.2319 N   0  0  0  0  0  0  0  0  0  0  0  0
    0.9920   -0.6613   -0.0736 C   0  0  0  0  0  0  0  0  0  0  0  0
    2.2749   -0.5542   -0.1658 N   0  0  0  0  0  0  0  0  0  0  0  0
    2.8392    0.7525   -0.4925 C   0  0  0  0  0  0  0  0  0  0  0  0
    4.3575    0.6150   -0.5572 C   0  0  0  0  0  0  0  0  0  0  0  0
    5.0227    1.9547   -0.8571 C   0  0  0  0  0  0  0  0  0  0  0  0
    6.4277    1.8181   -1.0668 O   0  0  0  0  0  0  0  0  0  0  0  0
    7.1645    1.6446    0.1358 C   0  0  0  0  0  0  0  0  0  0  0  0
    0.0333    0.3192   -0.2408 N   0  0  0  0  0  0  0  0  0  0  0  0
   -1.3448    0.2652   -0.1636 C   0  0  0  0  0  0  0  0  0  0  0  0
   -2.0582    1.3315   -0.3719 N   0  0  0  0  0  0  0  0  0  0  0  0
   -3.4597    1.3108   -0.3432 C   0  0  0  0  0  0  0  0  0  0  0  0
   -4.1127    1.6701    0.8425 C   0  0  0  0  0  0  0  0  0  0  0  0
   -5.5077    1.6955    0.9100 C   0  0  0  0  0  0  0  0  0  0  0  0
   -6.2664    1.3771   -0.2150 C   0  0  0  0  0  0  0  0  0  0  0  0
   -5.6317    1.0408   -1.4110 C   0  0  0  0  0  0  0  0  0  0  0  0
   -4.2356    1.0156   -1.4783 C   0  0  0  0  0  0  0  0  0  0  0  0
   -3.4972    0.5982   -2.9846 Cl  0  0  0  0  0  0  0  0  0  0  0  0
   -1.8020   -1.0735    0.1685 C   0  0  0  0  0  0  0  0  0  0  0  0
   -3.0281   -1.7233    0.4030 C   0  0  0  0  0  0  0  0  0  0  0  0
   -2.8826   -3.0242    0.6969 N   0  0  0  0  0  0  0  0  0  0  0  0
   -1.5469   -3.2199    0.6377 N   0  0  0  0  0  0  0  0  0  0  0  0
   -1.0143   -4.5331    0.9003 C   0  0  0  0  0  0  0  0  0  0  0  0
   -0.8723   -2.0761    0.3423 C   0  0  0  0  0  0  0  0  0  0  0  0
    1.1518   -2.6283    0.3539 H   0  0  0  0  0  0  0  0  0  0  0  0
    2.5712    1.4864    0.2770 H   0  0  0  0  0  0  0  0  0  0  0  0
    2.4629    1.1017   -1.4614 H   0  0  0  0  0  0  0  0  0  0  0  0
    4.6412   -0.1178   -1.3231 H   0  0  0  0  0  0  0  0  0  0  0  0
    4.7307    0.2102    0.3908 H   0  0  0  0  0  0  0  0  0  0  0  0
    4.6089    2.3655   -1.7846 H   0  0  0  0  0  0  0  0  0  0  0  0
    4.8277    2.6869   -0.0646 H   0  0  0  0  0  0  0  0  0  0  0  0
    6.9254    0.6878    0.6071 H   0  0  0  0  0  0  0  0  0  0  0  0
    8.2291    1.6444   -0.1141 H   0  0  0  0  0  0  0  0  0  0  0  0
    6.9723    2.4681    0.8303 H   0  0  0  0  0  0  0  0  0  0  0  0
    0.3640    1.2387   -0.4857 H   0  0  0  0  0  0  0  0  0  0  0  0
   -3.5264    1.9322    1.7198 H   0  0  0  0  0  0  0  0  0  0  0  0
   -6.0005    1.9698    1.8399 H   0  0  0  0  0  0  0  0  0  0  0  0
   -7.3525    1.3988   -0.1633 H   0  0  0  0  0  0  0  0  0  0  0  0
   -6.2281    0.8029   -2.2881 H   0  0  0  0  0  0  0  0  0  0  0  0
   -4.0323   -1.3241    0.3837 H   0  0  0  0  0  0  0  0  0  0  0  0
   -1.7054   -5.2823    0.5048 H   0  0  0  0  0  0  0  0  0  0  0  0
   -0.9076   -4.6466    1.9817 H   0  0  0  0  0  0  0  0  0  0  0  0
   -0.0450   -4.6403    0.4085 H   0  0  0  0  0  0  0  0  0  0  0  0
  1  2  1  0
  2  3  2  3
  3  4  1  0
  4  5  1  0
  5  6  1  0
  6  7  1  0
  7  8  1  0
  2  9  1  0
  9 10  1  0
 10 11  2  3
 11 12  1  0
 12 13  2  0
 13 14  1  0
 14 15  2  0
 15 16  1  0
 16 17  2  0
 17 18  1  0
 10 19  1  0
 19 20  1  0
 20 21  2  0
 21 22  1  0
 22 23  1  0
 22 24  1  0
 24  1  1  0
 17 12  1  0
 24 19  2  0
  1 25  1  0
  4 26  1  0
  4 27  1  0
  5 28  1  0
  5 29  1  0
  6 30  1  0
  6 31  1  0
  8 32  1  0
  8 33  1  0
  8 34  1  0
  9 35  1  0
 13 36  1  0
 14 37  1  0
 15 38  1  0
 16 39  1  0
 20 40  1  0
 23 41  1  0
 23 42  1  0
 23 43  1  0
M  END
>  <ScrubInfo>  (9) 
{"isomerGroup": 0, "isomerId": 8, "confId": 0, "nr_conformers:": 1, "nr_isomers:": 9}

$$$$
