REMARK SMILES COCCCNc1nc(Nc2ccccc2Cl)c2cnn(C)c2n1
REMARK SMILES IDX 5 1 4 2 3 3 2 4 1 5 6 6 7 8 8 9 24 10 9 11 23 12 18 13 21 14
REMARK SMILES IDX 19 15 20 16 22 17 10 18 11 20 12 21 16 22 13 23 15 24 14 25
REMARK SMILES IDX 17 26
REMARK H PARENT 6 7 10 19
ROOT
ATOM      1  C   UNL     1       2.084   0.465   0.123  1.00  0.00     0.118 C 
ENDROOT
BRANCH   1   2
ATOM      2  C   UNL     1       3.343   1.197   0.579  1.00  0.00     0.050 C 
BRANCH   2   3
ATOM      3  C   UNL     1       3.043   2.290   1.603  1.00  0.00     0.161 C 
BRANCH   3   4
ATOM      4  O   UNL     1       4.246   2.955   1.997  1.00  0.00    -0.385 OA
ATOM      5  C   UNL     1       4.605   4.020   1.127  1.00  0.00     0.194 C 
ENDBRANCH   3   4
ENDBRANCH   2   3
ENDBRANCH   1   2
BRANCH   1   6
ATOM      6  N   UNL     1       1.515  -0.294   1.223  1.00  0.00    -0.354 N 
ATOM      7  H   UNL     1       2.154  -0.939   1.679  1.00  0.00     0.163 HD
BRANCH   6   8
ATOM      8  C   UNL     1       0.403  -1.058   0.878  1.00  0.00     0.226 A 
ATOM      9  N   UNL     1      -0.475  -0.583  -0.025  1.00  0.00    -0.195 NA
ATOM     10  N   UNL     1       0.319  -2.238   1.503  1.00  0.00    -0.193 NA
ATOM     11  C   UNL     1      -1.571  -1.303  -0.380  1.00  0.00     0.147 A 
ATOM     12  C   UNL     1      -0.765  -2.939   1.142  1.00  0.00     0.165 A 
ATOM     13  C   UNL     1      -1.728  -2.553   0.231  1.00  0.00     0.082 A 
ATOM     14  N   UNL     1      -1.145  -4.173   1.595  1.00  0.00    -0.250 N 
ATOM     15  C   UNL     1      -2.638  -3.631   0.208  1.00  0.00     0.149 A 
ATOM     16  N   UNL     1      -2.289  -4.626   1.032  1.00  0.00    -0.179 NA
ATOM     17  C   UNL     1      -0.463  -4.987   2.569  1.00  0.00     0.176 C 
BRANCH  11  18
ATOM     18  N   UNL     1      -2.491  -0.836  -1.327  1.00  0.00    -0.338 N 
ATOM     19  H   UNL     1      -3.203  -1.510  -1.587  1.00  0.00     0.168 HD
BRANCH  18  20
ATOM     20  C   UNL     1      -2.619   0.383  -2.025  1.00  0.00     0.058 A 
ATOM     21  C   UNL     1      -1.845   1.514  -1.742  1.00  0.00     0.027 A 
ATOM     22  C   UNL     1      -3.556   0.488  -3.076  1.00  0.00     0.064 A 
ATOM     23  C   UNL     1      -1.996   2.700  -2.472  1.00  0.00     0.002 A 
ATOM     24  C   UNL     1      -3.710   1.669  -3.809  1.00  0.00     0.023 A 
ATOM     25  C   UNL     1      -2.926   2.778  -3.505  1.00  0.00     0.002 A 
ATOM     26  Cl  UNL     1      -4.560  -0.863  -3.495  1.00  0.00    -0.082 Cl
ENDBRANCH  18  20
ENDBRANCH  11  18
ENDBRANCH   6   8
ENDBRANCH   1   6
TORSDOF 7
