REMARK SMILES COCCCNc1nc(Nc2ccccc2C)c2cnn(C)c2n1
REMARK SMILES IDX 5 1 4 2 3 3 2 4 1 5 6 6 7 8 8 9 24 10 9 11 23 12 18 13 21 14
REMARK SMILES IDX 19 15 20 16 22 17 10 18 11 20 12 21 16 22 13 23 15 24 14 25
REMARK SMILES IDX 17 26
REMARK H PARENT 6 7 10 19
ROOT
ATOM      1  C   UNL     1       3.048  -0.607  -0.552  1.00  0.00     0.118 C 
ENDROOT
BRANCH   1   2
ATOM      2  C   UNL     1       4.111   0.368  -1.053  1.00  0.00     0.050 C 
BRANCH   2   3
ATOM      3  C   UNL     1       4.812   1.095   0.093  1.00  0.00     0.161 C 
BRANCH   3   4
ATOM      4  O   UNL     1       5.895   1.888  -0.398  1.00  0.00    -0.385 OA
ATOM      5  C   UNL     1       5.479   3.166  -0.863  1.00  0.00     0.194 C 
ENDBRANCH   3   4
ENDBRANCH   2   3
ENDBRANCH   1   2
BRANCH   1   6
ATOM      6  N   UNL     1       1.935   0.128   0.024  1.00  0.00    -0.354 N 
ATOM      7  H   UNL     1       1.480   0.783  -0.607  1.00  0.00     0.163 HD
BRANCH   6   8
ATOM      8  C   UNL     1       0.897  -0.677   0.487  1.00  0.00     0.226 A 
ATOM      9  N   UNL     1      -0.331  -0.172   0.276  1.00  0.00    -0.195 NA
ATOM     10  N   UNL     1       1.170  -1.845   1.082  1.00  0.00    -0.193 NA
ATOM     11  C   UNL     1      -1.443  -0.840   0.682  1.00  0.00     0.147 A 
ATOM     12  C   UNL     1       0.066  -2.495   1.474  1.00  0.00     0.165 A 
ATOM     13  C   UNL     1      -1.239  -2.074   1.312  1.00  0.00     0.082 A 
ATOM     14  N   UNL     1      -0.002  -3.704   2.112  1.00  0.00    -0.250 N 
ATOM     15  C   UNL     1      -2.012  -3.108   1.883  1.00  0.00     0.149 A 
ATOM     16  N   UNL     1      -1.269  -4.108   2.368  1.00  0.00    -0.179 NA
ATOM     17  C   UNL     1       1.103  -4.538   2.510  1.00  0.00     0.176 C 
BRANCH  11  18
ATOM     18  N   UNL     1      -2.734  -0.343   0.447  1.00  0.00    -0.339 N 
ATOM     19  H   UNL     1      -3.468  -0.972   0.737  1.00  0.00     0.168 HD
BRANCH  18  20
ATOM     20  C   UNL     1      -3.199   0.912   0.004  1.00  0.00     0.043 A 
ATOM     21  C   UNL     1      -2.368   2.040  -0.055  1.00  0.00     0.026 A 
ATOM     22  C   UNL     1      -4.530   1.046  -0.463  1.00  0.00    -0.028 A 
ATOM     23  C   UNL     1      -2.834   3.271  -0.525  1.00  0.00     0.002 A 
ATOM     24  C   UNL     1      -4.989   2.291  -0.930  1.00  0.00     0.005 A 
ATOM     25  C   UNL     1      -4.146   3.397  -0.961  1.00  0.00     0.000 A 
ATOM     26  C   UNL     1      -5.487  -0.117  -0.474  1.00  0.00     0.046 C 
ENDBRANCH  18  20
ENDBRANCH  11  18
ENDBRANCH   6   8
ENDBRANCH   1   6
TORSDOF 7
