_i0
     RDKit          3D

 46 48  0  0  0  0  0  0  0  0999 V2000
    5.4794    3.1660   -0.8625 C   0  0  0  0  0  0  0  0  0  0  0  0
    5.8946    1.8884   -0.3977 O   0  0  0  0  0  0  0  0  0  0  0  0
    4.8117    1.0945    0.0930 C   0  0  0  0  0  0  0  0  0  0  0  0
    4.1110    0.3682   -1.0531 C   0  0  0  0  0  0  0  0  0  0  0  0
    3.0481   -0.6065   -0.5524 C   0  0  0  0  0  0  0  0  0  0  0  0
    1.9345    0.1281    0.0238 N   0  0  0  0  0  0  0  0  0  0  0  0
    0.8970   -0.6769    0.4874 C   0  0  0  0  0  0  0  0  0  0  0  0
   -0.3306   -0.1718    0.2756 N   0  0  0  0  0  0  0  0  0  0  0  0
   -1.4430   -0.8400    0.6820 C   0  0  0  0  0  0  0  0  0  0  0  0
   -2.7340   -0.3431    0.4471 N   0  0  0  0  0  0  0  0  0  0  0  0
   -3.1992    0.9121    0.0038 C   0  0  0  0  0  0  0  0  0  0  0  0
   -2.3677    2.0403   -0.0550 C   0  0  0  0  0  0  0  0  0  0  0  0
   -2.8336    3.2712   -0.5253 C   0  0  0  0  0  0  0  0  0  0  0  0
   -4.1456    3.3972   -0.9608 C   0  0  0  0  0  0  0  0  0  0  0  0
   -4.9894    2.2906   -0.9304 C   0  0  0  0  0  0  0  0  0  0  0  0
   -4.5297    1.0455   -0.4625 C   0  0  0  0  0  0  0  0  0  0  0  0
   -5.4867   -0.1174   -0.4738 C   0  0  0  0  0  0  0  0  0  0  0  0
   -1.2393   -2.0743    1.3125 C   0  0  0  0  0  0  0  0  0  0  0  0
   -2.0120   -3.1078    1.8827 C   0  0  0  0  0  0  0  0  0  0  0  0
   -1.2688   -4.1083    2.3683 N   0  0  0  0  0  0  0  0  0  0  0  0
   -0.0024   -3.7039    2.1118 N   0  0  0  0  0  0  0  0  0  0  0  0
    1.1035   -4.5380    2.5099 C   0  0  0  0  0  0  0  0  0  0  0  0
    0.0659   -2.4953    1.4744 C   0  0  0  0  0  0  0  0  0  0  0  0
    1.1700   -1.8447    1.0824 N   0  0  0  0  0  0  0  0  0  0  0  0
    6.3661    3.7133   -1.1939 H   0  0  0  0  0  0  0  0  0  0  0  0
    5.0049    3.7324   -0.0554 H   0  0  0  0  0  0  0  0  0  0  0  0
    4.7958    3.0728   -1.7105 H   0  0  0  0  0  0  0  0  0  0  0  0
    5.2492    0.3581    0.7760 H   0  0  0  0  0  0  0  0  0  0  0  0
    4.1192    1.7106    0.6781 H   0  0  0  0  0  0  0  0  0  0  0  0
    4.8618   -0.1812   -1.6346 H   0  0  0  0  0  0  0  0  0  0  0  0
    3.6651    1.0917   -1.7454 H   0  0  0  0  0  0  0  0  0  0  0  0
    2.6978   -1.2092   -1.3999 H   0  0  0  0  0  0  0  0  0  0  0  0
    3.5007   -1.2858    0.1806 H   0  0  0  0  0  0  0  0  0  0  0  0
    1.4802    0.7828   -0.6074 H   0  0  0  0  0  0  0  0  0  0  0  0
   -3.4676   -0.9718    0.7374 H   0  0  0  0  0  0  0  0  0  0  0  0
   -1.3398    1.9895    0.2913 H   0  0  0  0  0  0  0  0  0  0  0  0
   -2.1658    4.1281   -0.5461 H   0  0  0  0  0  0  0  0  0  0  0  0
   -4.5105    4.3531   -1.3264 H   0  0  0  0  0  0  0  0  0  0  0  0
   -6.0128    2.4025   -1.2821 H   0  0  0  0  0  0  0  0  0  0  0  0
   -6.4372    0.1456   -0.9502 H   0  0  0  0  0  0  0  0  0  0  0  0
   -5.7058   -0.4361    0.5503 H   0  0  0  0  0  0  0  0  0  0  0  0
   -5.0631   -0.9553   -1.0369 H   0  0  0  0  0  0  0  0  0  0  0  0
   -3.0884   -3.1768    1.9671 H   0  0  0  0  0  0  0  0  0  0  0  0
    1.0567   -4.6770    3.5930 H   0  0  0  0  0  0  0  0  0  0  0  0
    2.0487   -4.0626    2.2386 H   0  0  0  0  0  0  0  0  0  0  0  0
    1.0112   -5.4987    1.9970 H   0  0  0  0  0  0  0  0  0  0  0  0
  1  2  1  0
  2  3  1  0
  3  4  1  0
  4  5  1  0
  5  6  1  0
  6  7  1  0
  7  8  2  0
  8  9  1  0
  9 10  1  0
 10 11  1  0
 11 12  2  0
 12 13  1  0
 13 14  2  0
 14 15  1  0
 15 16  2  0
 16 17  1  0
  9 18  2  0
 18 19  1  0
 19 20  2  0
 20 21  1  0
 21 22  1  0
 21 23  1  0
 23 24  2  0
 24  7  1  0
 16 11  1  0
 23 18  1  0
  1 25  1  0
  1 26  1  0
  1 27  1  0
  3 28  1  0
  3 29  1  0
  4 30  1  0
  4 31  1  0
  5 32  1  0
  5 33  1  0
  6 34  1  0
 10 35  1  0
 12 36  1  0
 13 37  1  0
 14 38  1  0
 15 39  1  0
 17 40  1  0
 17 41  1  0
 17 42  1  0
 19 43  1  0
 22 44  1  0
 22 45  1  0
 22 46  1  0
M  END
>  <ScrubInfo>  (1) 
{"isomerGroup": 0, "isomerId": 0, "confId": 0, "nr_conformers:": 1, "nr_isomers:": 9}

$$$$
_i1
     RDKit          3D

 46 48  0  0  0  0  0  0  0  0999 V2000
   -0.3248    0.0372    0.3804 N   0  0  0  0  0  0  0  0  0  0  0  0
   -1.4236   -0.7903    0.2482 C   0  0  0  0  0  0  0  0  0  0  0  0
   -2.6625   -0.3270   -0.1556 N   0  0  0  0  0  0  0  0  0  0  0  0
   -3.2440    0.9419    0.0689 C   0  0  0  0  0  0  0  0  0  0  0  0
   -2.8029    1.7939    1.0942 C   0  0  0  0  0  0  0  0  0  0  0  0
   -3.3703    3.0558    1.2837 C   0  0  0  0  0  0  0  0  0  0  0  0
   -4.3888    3.4921    0.4457 C   0  0  0  0  0  0  0  0  0  0  0  0
   -4.8393    2.6675   -0.5826 C   0  0  0  0  0  0  0  0  0  0  0  0
   -4.2726    1.3972   -0.7866 C   0  0  0  0  0  0  0  0  0  0  0  0
   -4.7800    0.5532   -1.9254 C   0  0  0  0  0  0  0  0  0  0  0  0
   -1.1770   -2.0857    0.4798 C   0  0  0  0  0  0  0  0  0  0  0  0
   -1.9081   -3.3571    0.4546 C   0  0  0  0  0  0  0  0  0  0  0  0
   -1.1642   -4.3859    0.7724 N   0  0  0  0  0  0  0  0  0  0  0  0
    0.0982   -3.8520    1.0785 N   0  0  0  0  0  0  0  0  0  0  0  0
    1.2294   -4.7420    1.1794 C   0  0  0  0  0  0  0  0  0  0  0  0
    0.1930   -2.4845    0.8753 C   0  0  0  0  0  0  0  0  0  0  0  0
    1.2076   -1.6950    0.9754 N   0  0  0  0  0  0  0  0  0  0  0  0
    0.9446   -0.3735    0.6914 C   0  0  0  0  0  0  0  0  0  0  0  0
    1.8927    0.5029    0.6939 N   0  0  0  0  0  0  0  0  0  0  0  0
    3.2516    0.0780    1.0448 C   0  0  0  0  0  0  0  0  0  0  0  0
    4.0172   -0.3550   -0.2050 C   0  0  0  0  0  0  0  0  0  0  0  0
    4.3390    0.8143   -1.1296 C   0  0  0  0  0  0  0  0  0  0  0  0
    5.3201    1.6497   -0.5119 O   0  0  0  0  0  0  0  0  0  0  0  0
    5.6060    2.7928   -1.3058 C   0  0  0  0  0  0  0  0  0  0  0  0
   -0.4284    0.9963    0.0818 H   0  0  0  0  0  0  0  0  0  0  0  0
   -3.3565   -1.0365   -0.3636 H   0  0  0  0  0  0  0  0  0  0  0  0
   -2.0316    1.4745    1.7908 H   0  0  0  0  0  0  0  0  0  0  0  0
   -3.0183    3.6925    2.0914 H   0  0  0  0  0  0  0  0  0  0  0  0
   -4.8328    4.4734    0.5920 H   0  0  0  0  0  0  0  0  0  0  0  0
   -5.6346    3.0264   -1.2327 H   0  0  0  0  0  0  0  0  0  0  0  0
   -5.2854   -0.3376   -1.5391 H   0  0  0  0  0  0  0  0  0  0  0  0
   -3.9527    0.2515   -2.5760 H   0  0  0  0  0  0  0  0  0  0  0  0
   -5.4975    1.1015   -2.5452 H   0  0  0  0  0  0  0  0  0  0  0  0
   -2.9679   -3.3981    0.1735 H   0  0  0  0  0  0  0  0  0  0  0  0
    0.9333   -5.6961    1.6274 H   0  0  0  0  0  0  0  0  0  0  0  0
    1.6476   -4.9400    0.1876 H   0  0  0  0  0  0  0  0  0  0  0  0
    2.0132   -4.3075    1.8080 H   0  0  0  0  0  0  0  0  0  0  0  0
    3.7584    0.9206    1.5290 H   0  0  0  0  0  0  0  0  0  0  0  0
    3.2553   -0.7283    1.7880 H   0  0  0  0  0  0  0  0  0  0  0  0
    4.9551   -0.8253    0.1138 H   0  0  0  0  0  0  0  0  0  0  0  0
    3.4400   -1.1044   -0.7583 H   0  0  0  0  0  0  0  0  0  0  0  0
    3.4380    1.3946   -1.3582 H   0  0  0  0  0  0  0  0  0  0  0  0
    4.7514    0.4272   -2.0685 H   0  0  0  0  0  0  0  0  0  0  0  0
    4.7092    3.4076   -1.4290 H   0  0  0  0  0  0  0  0  0  0  0  0
    5.9954    2.4932   -2.2835 H   0  0  0  0  0  0  0  0  0  0  0  0
    6.3677    3.3863   -0.7932 H   0  0  0  0  0  0  0  0  0  0  0  0
  1  2  1  0
  2  3  1  0
  3  4  1  0
  4  5  2  0
  5  6  1  0
  6  7  2  0
  7  8  1  0
  8  9  2  0
  9 10  1  0
  2 11  2  0
 11 12  1  0
 12 13  2  0
 13 14  1  0
 14 15  1  0
 14 16  1  0
 16 17  2  0
 17 18  1  0
 18 19  2  3
 19 20  1  0
 20 21  1  0
 21 22  1  0
 22 23  1  0
 23 24  1  0
 18  1  1  0
  9  4  1  0
 16 11  1  0
  1 25  1  0
  3 26  1  0
  5 27  1  0
  6 28  1  0
  7 29  1  0
  8 30  1  0
 10 31  1  0
 10 32  1  0
 10 33  1  0
 12 34  1  0
 15 35  1  0
 15 36  1  0
 15 37  1  0
 20 38  1  0
 20 39  1  0
 21 40  1  0
 21 41  1  0
 22 42  1  0
 22 43  1  0
 24 44  1  0
 24 45  1  0
 24 46  1  0
M  END
>  <ScrubInfo>  (2) 
{"isomerGroup": 0, "isomerId": 1, "confId": 0, "nr_conformers:": 1, "nr_isomers:": 9}

$$$$
_i2
     RDKit          3D

 46 48  0  0  0  0  0  0  0  0999 V2000
    0.3983    0.1232    1.2962 N   0  0  0  0  0  0  0  0  0  0  0  0
    1.1636    1.2519    1.1519 C   0  0  0  0  0  0  0  0  0  0  0  0
    2.4794    1.1426    1.5015 N   0  0  0  0  0  0  0  0  0  0  0  0
    3.3382    0.0352    1.0964 C   0  0  0  0  0  0  0  0  0  0  0  0
    3.5874    0.0656   -0.4112 C   0  0  0  0  0  0  0  0  0  0  0  0
    4.4288   -1.1187   -0.8701 C   0  0  0  0  0  0  0  0  0  0  0  0
    5.6859   -1.0895   -0.1993 O   0  0  0  0  0  0  0  0  0  0  0  0
    6.5307   -2.1539   -0.6198 C   0  0  0  0  0  0  0  0  0  0  0  0
    0.7043    2.3971    0.7139 N   0  0  0  0  0  0  0  0  0  0  0  0
   -0.6206    2.3178    0.4017 C   0  0  0  0  0  0  0  0  0  0  0  0
   -1.4715    1.2280    0.5140 C   0  0  0  0  0  0  0  0  0  0  0  0
   -2.7081    1.7031    0.0428 C   0  0  0  0  0  0  0  0  0  0  0  0
   -2.6598    2.9859   -0.3398 N   0  0  0  0  0  0  0  0  0  0  0  0
   -1.3762    3.3389   -0.1019 N   0  0  0  0  0  0  0  0  0  0  0  0
   -0.9480    4.6832   -0.3953 C   0  0  0  0  0  0  0  0  0  0  0  0
   -0.9450   -0.0179    1.0369 C   0  0  0  0  0  0  0  0  0  0  0  0
   -1.5660   -1.1350    1.2659 N   0  0  0  0  0  0  0  0  0  0  0  0
   -2.9349   -1.2850    1.0197 C   0  0  0  0  0  0  0  0  0  0  0  0
   -3.8470   -0.9814    2.0381 C   0  0  0  0  0  0  0  0  0  0  0  0
   -5.2182   -1.1365    1.8357 C   0  0  0  0  0  0  0  0  0  0  0  0
   -5.6880   -1.6117    0.6146 C   0  0  0  0  0  0  0  0  0  0  0  0
   -4.7878   -1.9430   -0.3989 C   0  0  0  0  0  0  0  0  0  0  0  0
   -3.4054   -1.7984   -0.2024 C   0  0  0  0  0  0  0  0  0  0  0  0
   -2.4516   -2.1629   -1.3043 C   0  0  0  0  0  0  0  0  0  0  0  0
    0.8029   -0.6516    1.7940 H   0  0  0  0  0  0  0  0  0  0  0  0
    2.9394    2.0397    1.3569 H   0  0  0  0  0  0  0  0  0  0  0  0
    2.9013   -0.9229    1.3978 H   0  0  0  0  0  0  0  0  0  0  0  0
    4.2861    0.1311    1.6375 H   0  0  0  0  0  0  0  0  0  0  0  0
    2.6372    0.0608   -0.9578 H   0  0  0  0  0  0  0  0  0  0  0  0
    4.1025    1.0006   -0.6654 H   0  0  0  0  0  0  0  0  0  0  0  0
    3.9135   -2.0599   -0.6459 H   0  0  0  0  0  0  0  0  0  0  0  0
    4.5890   -1.0540   -1.9524 H   0  0  0  0  0  0  0  0  0  0  0  0
    7.4734   -2.0823   -0.0707 H   0  0  0  0  0  0  0  0  0  0  0  0
    6.0682   -3.1202   -0.3970 H   0  0  0  0  0  0  0  0  0  0  0  0
    6.7424   -2.0743   -1.6904 H   0  0  0  0  0  0  0  0  0  0  0  0
   -3.6526    1.1848   -0.0480 H   0  0  0  0  0  0  0  0  0  0  0  0
   -1.0098    4.8337   -1.4760 H   0  0  0  0  0  0  0  0  0  0  0  0
    0.0793    4.8340   -0.0567 H   0  0  0  0  0  0  0  0  0  0  0  0
   -1.6116    5.3785    0.1253 H   0  0  0  0  0  0  0  0  0  0  0  0
   -3.4817   -0.6165    2.9944 H   0  0  0  0  0  0  0  0  0  0  0  0
   -5.9162   -0.8880    2.6306 H   0  0  0  0  0  0  0  0  0  0  0  0
   -6.7563   -1.7316    0.4526 H   0  0  0  0  0  0  0  0  0  0  0  0
   -5.1717   -2.3209   -1.3439 H   0  0  0  0  0  0  0  0  0  0  0  0
   -2.9613   -2.6969   -2.1134 H   0  0  0  0  0  0  0  0  0  0  0  0
   -2.0000   -1.2602   -1.7275 H   0  0  0  0  0  0  0  0  0  0  0  0
   -1.6626   -2.8223   -0.9284 H   0  0  0  0  0  0  0  0  0  0  0  0
  1  2  1  0
  2  3  1  0
  3  4  1  0
  4  5  1  0
  5  6  1  0
  6  7  1  0
  7  8  1  0
  2  9  2  0
  9 10  1  0
 10 11  2  0
 11 12  1  0
 12 13  2  0
 13 14  1  0
 14 15  1  0
 11 16  1  0
 16 17  2  3
 17 18  1  0
 18 19  2  0
 19 20  1  0
 20 21  2  0
 21 22  1  0
 22 23  2  0
 23 24  1  0
 16  1  1  0
 23 18  1  0
 14 10  1  0
  1 25  1  0
  3 26  1  0
  4 27  1  0
  4 28  1  0
  5 29  1  0
  5 30  1  0
  6 31  1  0
  6 32  1  0
  8 33  1  0
  8 34  1  0
  8 35  1  0
 12 36  1  0
 15 37  1  0
 15 38  1  0
 15 39  1  0
 19 40  1  0
 20 41  1  0
 21 42  1  0
 22 43  1  0
 24 44  1  0
 24 45  1  0
 24 46  1  0
M  END
>  <ScrubInfo>  (3) 
{"isomerGroup": 0, "isomerId": 2, "confId": 0, "nr_conformers:": 1, "nr_isomers:": 9}

$$$$
_i3
     RDKit          3D

 46 48  0  0  0  0  0  0  0  0999 V2000
    0.5742   -2.5407    0.6393 N   0  0  0  0  0  0  0  0  0  0  0  0
    1.1952   -1.3115    0.6015 C   0  0  0  0  0  0  0  0  0  0  0  0
    2.3875   -1.2236    1.0919 N   0  0  0  0  0  0  0  0  0  0  0  0
    3.0652    0.0757    1.0780 C   0  0  0  0  0  0  0  0  0  0  0  0
    3.8722    0.2218   -0.2106 C   0  0  0  0  0  0  0  0  0  0  0  0
    4.5149    1.5983   -0.3287 C   0  0  0  0  0  0  0  0  0  0  0  0
    5.4399    1.7923    0.7393 O   0  0  0  0  0  0  0  0  0  0  0  0
    6.0714    3.0630    0.6632 C   0  0  0  0  0  0  0  0  0  0  0  0
    0.5763   -0.1977    0.0526 N   0  0  0  0  0  0  0  0  0  0  0  0
   -0.6362   -0.3124   -0.4194 C   0  0  0  0  0  0  0  0  0  0  0  0
   -1.3024    0.7477   -0.9827 N   0  0  0  0  0  0  0  0  0  0  0  0
   -2.6156    1.1427   -0.6143 C   0  0  0  0  0  0  0  0  0  0  0  0
   -3.4806    1.5097   -1.6595 C   0  0  0  0  0  0  0  0  0  0  0  0
   -4.7764    1.9541   -1.4012 C   0  0  0  0  0  0  0  0  0  0  0  0
   -5.2176    2.0639   -0.0884 C   0  0  0  0  0  0  0  0  0  0  0  0
   -4.3556    1.7512    0.9626 C   0  0  0  0  0  0  0  0  0  0  0  0
   -3.0403    1.3162    0.7183 C   0  0  0  0  0  0  0  0  0  0  0  0
   -2.1524    1.0434    1.9021 C   0  0  0  0  0  0  0  0  0  0  0  0
   -1.3161   -1.5896   -0.4156 C   0  0  0  0  0  0  0  0  0  0  0  0
   -2.5403   -2.1253   -0.8447 C   0  0  0  0  0  0  0  0  0  0  0  0
   -2.6456   -3.4382   -0.5804 N   0  0  0  0  0  0  0  0  0  0  0  0
   -1.4701   -3.7426    0.0225 N   0  0  0  0  0  0  0  0  0  0  0  0
   -1.2292   -5.0972    0.4488 C   0  0  0  0  0  0  0  0  0  0  0  0
   -0.6591   -2.6592    0.1277 C   0  0  0  0  0  0  0  0  0  0  0  0
    1.1280   -3.2804    1.0498 H   0  0  0  0  0  0  0  0  0  0  0  0
    3.7391    0.1068    1.9421 H   0  0  0  0  0  0  0  0  0  0  0  0
    2.3719    0.9144    1.2135 H   0  0  0  0  0  0  0  0  0  0  0  0
    4.6501   -0.5514   -0.2292 H   0  0  0  0  0  0  0  0  0  0  0  0
    3.2289    0.0533   -1.0820 H   0  0  0  0  0  0  0  0  0  0  0  0
    3.7462    2.3794   -0.2985 H   0  0  0  0  0  0  0  0  0  0  0  0
    5.0472    1.6680   -1.2844 H   0  0  0  0  0  0  0  0  0  0  0  0
    6.6372    3.1546   -0.2690 H   0  0  0  0  0  0  0  0  0  0  0  0
    5.3297    3.8643    0.7345 H   0  0  0  0  0  0  0  0  0  0  0  0
    6.7653    3.1537    1.5031 H   0  0  0  0  0  0  0  0  0  0  0  0
   -0.7058    1.5706   -0.9310 H   0  0  0  0  0  0  0  0  0  0  0  0
   -3.1467    1.4256   -2.6918 H   0  0  0  0  0  0  0  0  0  0  0  0
   -5.4386    2.2113   -2.2236 H   0  0  0  0  0  0  0  0  0  0  0  0
   -6.2286    2.4041    0.1208 H   0  0  0  0  0  0  0  0  0  0  0  0
   -4.7151    1.8621    1.9841 H   0  0  0  0  0  0  0  0  0  0  0  0
   -2.0675   -0.0329    2.0771 H   0  0  0  0  0  0  0  0  0  0  0  0
   -1.1588    1.4769    1.7521 H   0  0  0  0  0  0  0  0  0  0  0  0
   -2.5555    1.4991    2.8133 H   0  0  0  0  0  0  0  0  0  0  0  0
   -3.3650   -1.6279   -1.3380 H   0  0  0  0  0  0  0  0  0  0  0  0
   -0.2588   -5.1652    0.9448 H   0  0  0  0  0  0  0  0  0  0  0  0
   -1.2416   -5.7426   -0.4331 H   0  0  0  0  0  0  0  0  0  0  0  0
   -2.0207   -5.3857    1.1452 H   0  0  0  0  0  0  0  0  0  0  0  0
  1  2  1  0
  2  3  2  3
  3  4  1  0
  4  5  1  0
  5  6  1  0
  6  7  1  0
  7  8  1  0
  2  9  1  0
  9 10  2  0
 10 11  1  0
 11 12  1  0
 12 13  2  0
 13 14  1  0
 14 15  2  0
 15 16  1  0
 16 17  2  0
 17 18  1  0
 10 19  1  0
 19 20  1  0
 20 21  2  0
 21 22  1  0
 22 23  1  0
 22 24  1  0
 24  1  1  0
 17 12  1  0
 24 19  2  0
  1 25  1  0
  4 26  1  0
  4 27  1  0
  5 28  1  0
  5 29  1  0
  6 30  1  0
  6 31  1  0
  8 32  1  0
  8 33  1  0
  8 34  1  0
 11 35  1  0
 13 36  1  0
 14 37  1  0
 15 38  1  0
 16 39  1  0
 18 40  1  0
 18 41  1  0
 18 42  1  0
 20 43  1  0
 23 44  1  0
 23 45  1  0
 23 46  1  0
M  END
>  <ScrubInfo>  (4) 
{"isomerGroup": 0, "isomerId": 3, "confId": 0, "nr_conformers:": 1, "nr_isomers:": 9}

$$$$
_i4
     RDKit          3D

 46 48  0  0  0  0  0  0  0  0999 V2000
   -1.7910    4.2051    2.7205 N   0  0  0  0  0  0  0  0  0  0  0  0
   -2.4381    3.2891    1.8970 C   0  0  0  0  0  0  0  0  0  0  0  0
   -1.6653    2.2438    1.5760 C   0  0  0  0  0  0  0  0  0  0  0  0
   -1.7709    1.0486    0.7727 C   0  0  0  0  0  0  0  0  0  0  0  0
   -2.8661    0.7191    0.1618 N   0  0  0  0  0  0  0  0  0  0  0  0
   -2.8756   -0.4619   -0.6004 C   0  0  0  0  0  0  0  0  0  0  0  0
   -3.2564   -1.6633    0.0103 C   0  0  0  0  0  0  0  0  0  0  0  0
   -3.2980   -2.8531   -0.7170 C   0  0  0  0  0  0  0  0  0  0  0  0
   -2.9661   -2.8495   -2.0688 C   0  0  0  0  0  0  0  0  0  0  0  0
   -2.6006   -1.6565   -2.6940 C   0  0  0  0  0  0  0  0  0  0  0  0
   -2.5647   -0.4526   -1.9723 C   0  0  0  0  0  0  0  0  0  0  0  0
   -2.1630    0.8206   -2.6605 C   0  0  0  0  0  0  0  0  0  0  0  0
   -0.6207    0.3099    0.7120 N   0  0  0  0  0  0  0  0  0  0  0  0
    0.4593    0.6361    1.3558 C   0  0  0  0  0  0  0  0  0  0  0  0
    1.5850   -0.1300    1.2489 N   0  0  0  0  0  0  0  0  0  0  0  0
    1.5382   -1.5078    0.8044 C   0  0  0  0  0  0  0  0  0  0  0  0
    2.9444   -2.0473    0.5688 C   0  0  0  0  0  0  0  0  0  0  0  0
    3.6313   -1.3749   -0.6178 C   0  0  0  0  0  0  0  0  0  0  0  0
    4.9492   -1.8980   -0.7995 O   0  0  0  0  0  0  0  0  0  0  0  0
    4.9754   -3.0805   -1.5876 C   0  0  0  0  0  0  0  0  0  0  0  0
    0.5973    1.7209    2.1833 N   0  0  0  0  0  0  0  0  0  0  0  0
   -0.4195    2.5017    2.3081 C   0  0  0  0  0  0  0  0  0  0  0  0
   -0.5592    3.6585    3.0781 N   0  0  0  0  0  0  0  0  0  0  0  0
    0.5665    4.5475    3.2930 C   0  0  0  0  0  0  0  0  0  0  0  0
   -2.3760    4.5375    3.4906 H   0  0  0  0  0  0  0  0  0  0  0  0
   -3.4601    3.4669    1.5928 H   0  0  0  0  0  0  0  0  0  0  0  0
   -3.5176   -1.6649    1.0646 H   0  0  0  0  0  0  0  0  0  0  0  0
   -3.5906   -3.7777   -0.2278 H   0  0  0  0  0  0  0  0  0  0  0  0
   -2.9963   -3.7740   -2.6391 H   0  0  0  0  0  0  0  0  0  0  0  0
   -2.3477   -1.6685   -3.7515 H   0  0  0  0  0  0  0  0  0  0  0  0
   -2.1327    0.6939   -3.7479 H   0  0  0  0  0  0  0  0  0  0  0  0
   -1.1676    1.1317   -2.3284 H   0  0  0  0  0  0  0  0  0  0  0  0
   -2.8829    1.6179   -2.4486 H   0  0  0  0  0  0  0  0  0  0  0  0
    2.2479    0.0781    1.9863 H   0  0  0  0  0  0  0  0  0  0  0  0
    1.0447   -2.1140    1.5727 H   0  0  0  0  0  0  0  0  0  0  0  0
    0.9534   -1.6015   -0.1184 H   0  0  0  0  0  0  0  0  0  0  0  0
    3.5634   -1.9237    1.4663 H   0  0  0  0  0  0  0  0  0  0  0  0
    2.8825   -3.1275    0.3948 H   0  0  0  0  0  0  0  0  0  0  0  0
    3.7466   -0.3039   -0.4209 H   0  0  0  0  0  0  0  0  0  0  0  0
    3.0449   -1.4764   -1.5387 H   0  0  0  0  0  0  0  0  0  0  0  0
    4.5772   -2.8830   -2.5875 H   0  0  0  0  0  0  0  0  0  0  0  0
    6.0159   -3.4017   -1.6872 H   0  0  0  0  0  0  0  0  0  0  0  0
    4.4107   -3.8852   -1.1094 H   0  0  0  0  0  0  0  0  0  0  0  0
    0.2919    5.3480    3.9876 H   0  0  0  0  0  0  0  0  0  0  0  0
    0.8906    5.0005    2.3503 H   0  0  0  0  0  0  0  0  0  0  0  0
    1.4101    4.0023    3.7283 H   0  0  0  0  0  0  0  0  0  0  0  0
  1  2  1  0
  2  3  2  0
  3  4  1  0
  4  5  2  3
  5  6  1  0
  6  7  2  0
  7  8  1  0
  8  9  2  0
  9 10  1  0
 10 11  2  0
 11 12  1  0
  4 13  1  0
 13 14  2  0
 14 15  1  0
 15 16  1  0
 16 17  1  0
 17 18  1  0
 18 19  1  0
 19 20  1  0
 14 21  1  0
 21 22  2  0
 22 23  1  0
 23 24  1  0
 23  1  1  0
 22  3  1  0
 11  6  1  0
  1 25  1  0
  2 26  1  0
  7 27  1  0
  8 28  1  0
  9 29  1  0
 10 30  1  0
 12 31  1  0
 12 32  1  0
 12 33  1  0
 15 34  1  0
 16 35  1  0
 16 36  1  0
 17 37  1  0
 17 38  1  0
 18 39  1  0
 18 40  1  0
 20 41  1  0
 20 42  1  0
 20 43  1  0
 24 44  1  0
 24 45  1  0
 24 46  1  0
M  END
>  <ScrubInfo>  (5) 
{"isomerGroup": 0, "isomerId": 4, "confId": 0, "nr_conformers:": 1, "nr_isomers:": 9}

$$$$
_i5
     RDKit          3D

 46 48  0  0  0  0  0  0  0  0999 V2000
    0.8193   -1.5816    0.3773 N   0  0  0  0  0  0  0  0  0  0  0  0
    0.9609   -0.4882    1.1936 C   0  0  0  0  0  0  0  0  0  0  0  0
    2.1441   -0.4183    1.8716 N   0  0  0  0  0  0  0  0  0  0  0  0
    3.4403   -0.5154    1.2061 C   0  0  0  0  0  0  0  0  0  0  0  0
    3.6922    0.7103    0.3277 C   0  0  0  0  0  0  0  0  0  0  0  0
    5.0141    0.6027   -0.4259 C   0  0  0  0  0  0  0  0  0  0  0  0
    6.1163    0.3819    0.4510 O   0  0  0  0  0  0  0  0  0  0  0  0
    6.5943    1.5763    1.0584 C   0  0  0  0  0  0  0  0  0  0  0  0
    0.0721    0.4472    1.3683 N   0  0  0  0  0  0  0  0  0  0  0  0
   -1.1361    0.3914    0.6820 C   0  0  0  0  0  0  0  0  0  0  0  0
   -1.9374    1.3919    0.8676 N   0  0  0  0  0  0  0  0  0  0  0  0
   -3.1836    1.4805    0.2424 C   0  0  0  0  0  0  0  0  0  0  0  0
   -3.2757    2.0982   -1.0112 C   0  0  0  0  0  0  0  0  0  0  0  0
   -4.5059    2.2194   -1.6572 C   0  0  0  0  0  0  0  0  0  0  0  0
   -5.6593    1.7364   -1.0452 C   0  0  0  0  0  0  0  0  0  0  0  0
   -5.5852    1.1454    0.2170 C   0  0  0  0  0  0  0  0  0  0  0  0
   -4.3530    1.0257    0.8784 C   0  0  0  0  0  0  0  0  0  0  0  0
   -4.2920    0.3976    2.2421 C   0  0  0  0  0  0  0  0  0  0  0  0
   -1.3540   -0.7777   -0.1554 C   0  0  0  0  0  0  0  0  0  0  0  0
   -2.3797   -1.3087   -0.9589 C   0  0  0  0  0  0  0  0  0  0  0  0
   -2.0495   -2.4849   -1.5176 N   0  0  0  0  0  0  0  0  0  0  0  0
   -0.7962   -2.7138   -1.0658 N   0  0  0  0  0  0  0  0  0  0  0  0
   -0.1135   -3.9153   -1.4725 C   0  0  0  0  0  0  0  0  0  0  0  0
   -0.3556   -1.7134   -0.2607 C   0  0  0  0  0  0  0  0  0  0  0  0
    1.4767   -2.3378    0.5107 H   0  0  0  0  0  0  0  0  0  0  0  0
    2.1121    0.3976    2.4818 H   0  0  0  0  0  0  0  0  0  0  0  0
    4.2100   -0.5868    1.9825 H   0  0  0  0  0  0  0  0  0  0  0  0
    3.5021   -1.4354    0.6145 H   0  0  0  0  0  0  0  0  0  0  0  0
    2.8813    0.8327   -0.4000 H   0  0  0  0  0  0  0  0  0  0  0  0
    3.6875    1.6076    0.9573 H   0  0  0  0  0  0  0  0  0  0  0  0
    4.9713   -0.2559   -1.1053 H   0  0  0  0  0  0  0  0  0  0  0  0
    5.1862    1.4913   -1.0444 H   0  0  0  0  0  0  0  0  0  0  0  0
    5.8288    2.0230    1.6982 H   0  0  0  0  0  0  0  0  0  0  0  0
    7.4565    1.3208    1.6804 H   0  0  0  0  0  0  0  0  0  0  0  0
    6.9164    2.2925    0.2964 H   0  0  0  0  0  0  0  0  0  0  0  0
   -2.3772    2.4865   -1.4835 H   0  0  0  0  0  0  0  0  0  0  0  0
   -4.5627    2.6944   -2.6327 H   0  0  0  0  0  0  0  0  0  0  0  0
   -6.6201    1.8297   -1.5451 H   0  0  0  0  0  0  0  0  0  0  0  0
   -6.4976    0.7855    0.6872 H   0  0  0  0  0  0  0  0  0  0  0  0
   -5.2944    0.2358    2.6525 H   0  0  0  0  0  0  0  0  0  0  0  0
   -3.7890   -0.5730    2.1896 H   0  0  0  0  0  0  0  0  0  0  0  0
   -3.7563    1.0479    2.9414 H   0  0  0  0  0  0  0  0  0  0  0  0
   -3.3625   -0.9090   -1.1688 H   0  0  0  0  0  0  0  0  0  0  0  0
   -0.6094   -4.7669   -1.0004 H   0  0  0  0  0  0  0  0  0  0  0  0
   -0.1691   -3.9958   -2.5612 H   0  0  0  0  0  0  0  0  0  0  0  0
    0.9326   -3.8724   -1.1622 H   0  0  0  0  0  0  0  0  0  0  0  0
  1  2  1  0
  2  3  1  0
  3  4  1  0
  4  5  1  0
  5  6  1  0
  6  7  1  0
  7  8  1  0
  2  9  2  0
  9 10  1  0
 10 11  2  3
 11 12  1  0
 12 13  2  0
 13 14  1  0
 14 15  2  0
 15 16  1  0
 16 17  2  0
 17 18  1  0
 10 19  1  0
 19 20  1  0
 20 21  2  0
 21 22  1  0
 22 23  1  0
 22 24  1  0
 24  1  1  0
 17 12  1  0
 24 19  2  0
  1 25  1  0
  3 26  1  0
  4 27  1  0
  4 28  1  0
  5 29  1  0
  5 30  1  0
  6 31  1  0
  6 32  1  0
  8 33  1  0
  8 34  1  0
  8 35  1  0
 13 36  1  0
 14 37  1  0
 15 38  1  0
 16 39  1  0
 18 40  1  0
 18 41  1  0
 18 42  1  0
 20 43  1  0
 23 44  1  0
 23 45  1  0
 23 46  1  0
M  END
>  <ScrubInfo>  (6) 
{"isomerGroup": 0, "isomerId": 5, "confId": 0, "nr_conformers:": 1, "nr_isomers:": 9}

$$$$
_i6
     RDKit          3D

 46 48  0  0  0  0  0  0  0  0999 V2000
   -0.5135    4.1558    0.6017 N   0  0  0  0  0  0  0  0  0  0  0  0
   -1.4652    3.1916    0.2873 C   0  0  0  0  0  0  0  0  0  0  0  0
   -0.9341    1.9762    0.0928 C   0  0  0  0  0  0  0  0  0  0  0  0
   -1.3834    0.6277   -0.2712 C   0  0  0  0  0  0  0  0  0  0  0  0
   -2.7334    0.4061   -0.4803 N   0  0  0  0  0  0  0  0  0  0  0  0
   -3.4366   -0.7985   -0.7091 C   0  0  0  0  0  0  0  0  0  0  0  0
   -2.8417   -2.0618   -0.5752 C   0  0  0  0  0  0  0  0  0  0  0  0
   -3.5514   -3.2398   -0.8280 C   0  0  0  0  0  0  0  0  0  0  0  0
   -4.8779   -3.1812   -1.2306 C   0  0  0  0  0  0  0  0  0  0  0  0
   -5.4930   -1.9432   -1.3865 C   0  0  0  0  0  0  0  0  0  0  0  0
   -4.7874   -0.7500   -1.1397 C   0  0  0  0  0  0  0  0  0  0  0  0
   -5.5126    0.5540   -1.3481 C   0  0  0  0  0  0  0  0  0  0  0  0
   -0.4604   -0.2815   -0.3907 N   0  0  0  0  0  0  0  0  0  0  0  0
    0.8626    0.0325   -0.1823 C   0  0  0  0  0  0  0  0  0  0  0  0
    1.6638   -0.9519   -0.3857 N   0  0  0  0  0  0  0  0  0  0  0  0
    3.1027   -0.7553   -0.2131 C   0  0  0  0  0  0  0  0  0  0  0  0
    3.4970   -1.1059    1.2198 C   0  0  0  0  0  0  0  0  0  0  0  0
    4.9785   -0.8563    1.4881 C   0  0  0  0  0  0  0  0  0  0  0  0
    5.8453   -1.5348    0.5806 O   0  0  0  0  0  0  0  0  0  0  0  0
    5.9054   -2.9376    0.8012 C   0  0  0  0  0  0  0  0  0  0  0  0
    1.3643    1.2479    0.2229 N   0  0  0  0  0  0  0  0  0  0  0  0
    0.5022    2.1913    0.3686 C   0  0  0  0  0  0  0  0  0  0  0  0
    0.7071    3.5115    0.7712 N   0  0  0  0  0  0  0  0  0  0  0  0
    1.9311    4.2117    0.4290 C   0  0  0  0  0  0  0  0  0  0  0  0
   -0.7964    4.7842    1.3577 H   0  0  0  0  0  0  0  0  0  0  0  0
   -2.5020    3.4878    0.2297 H   0  0  0  0  0  0  0  0  0  0  0  0
   -3.3367    1.2108   -0.4045 H   0  0  0  0  0  0  0  0  0  0  0  0
   -1.8084   -2.1673   -0.2570 H   0  0  0  0  0  0  0  0  0  0  0  0
   -3.0563   -4.2002   -0.7096 H   0  0  0  0  0  0  0  0  0  0  0  0
   -5.4291   -4.0962   -1.4286 H   0  0  0  0  0  0  0  0  0  0  0  0
   -6.5309   -1.9130   -1.7115 H   0  0  0  0  0  0  0  0  0  0  0  0
   -4.9708    1.1816   -2.0631 H   0  0  0  0  0  0  0  0  0  0  0  0
   -5.6163    1.0851   -0.3964 H   0  0  0  0  0  0  0  0  0  0  0  0
   -6.5190    0.3984   -1.7513 H   0  0  0  0  0  0  0  0  0  0  0  0
    3.6138   -1.4271   -0.9124 H   0  0  0  0  0  0  0  0  0  0  0  0
    3.4311    0.2559   -0.4816 H   0  0  0  0  0  0  0  0  0  0  0  0
    3.2476   -2.1561    1.4110 H   0  0  0  0  0  0  0  0  0  0  0  0
    2.9071   -0.5147    1.9304 H   0  0  0  0  0  0  0  0  0  0  0  0
    5.2345   -1.1275    2.5191 H   0  0  0  0  0  0  0  0  0  0  0  0
    5.1863    0.2143    1.3821 H   0  0  0  0  0  0  0  0  0  0  0  0
    6.1879   -3.1562    1.8354 H   0  0  0  0  0  0  0  0  0  0  0  0
    6.6689   -3.3538    0.1383 H   0  0  0  0  0  0  0  0  0  0  0  0
    4.9507   -3.4123    0.5601 H   0  0  0  0  0  0  0  0  0  0  0  0
    1.9513    5.1973    0.9052 H   0  0  0  0  0  0  0  0  0  0  0  0
    2.8052    3.6533    0.7792 H   0  0  0  0  0  0  0  0  0  0  0  0
    2.0120    4.3468   -0.6547 H   0  0  0  0  0  0  0  0  0  0  0  0
  1  2  1  0
  2  3  2  0
  3  4  1  0
  4  5  1  0
  5  6  1  0
  6  7  2  0
  7  8  1  0
  8  9  2  0
  9 10  1  0
 10 11  2  0
 11 12  1  0
  4 13  2  0
 13 14  1  0
 14 15  2  3
 15 16  1  0
 16 17  1  0
 17 18  1  0
 18 19  1  0
 19 20  1  0
 14 21  1  0
 21 22  2  0
 22 23  1  0
 23 24  1  0
 23  1  1  0
 22  3  1  0
 11  6  1  0
  1 25  1  0
  2 26  1  0
  5 27  1  0
  7 28  1  0
  8 29  1  0
  9 30  1  0
 10 31  1  0
 12 32  1  0
 12 33  1  0
 12 34  1  0
 16 35  1  0
 16 36  1  0
 17 37  1  0
 17 38  1  0
 18 39  1  0
 18 40  1  0
 20 41  1  0
 20 42  1  0
 20 43  1  0
 24 44  1  0
 24 45  1  0
 24 46  1  0
M  END
>  <ScrubInfo>  (7) 
{"isomerGroup": 0, "isomerId": 6, "confId": 0, "nr_conformers:": 1, "nr_isomers:": 9}

$$$$
_i7
     RDKit          3D

 46 48  0  0  0  0  0  0  0  0999 V2000
   -1.2665    4.5541    0.6418 N   0  0  0  0  0  0  0  0  0  0  0  0
   -2.1752    3.5017    0.6640 C   0  0  0  0  0  0  0  0  0  0  0  0
   -1.5825    2.3022    0.6519 C   0  0  0  0  0  0  0  0  0  0  0  0
   -1.9798    0.8931    0.6264 C   0  0  0  0  0  0  0  0  0  0  0  0
   -3.2422    0.5852    0.6556 N   0  0  0  0  0  0  0  0  0  0  0  0
   -3.5980   -0.7724    0.6268 C   0  0  0  0  0  0  0  0  0  0  0  0
   -3.7158   -1.4708    1.8343 C   0  0  0  0  0  0  0  0  0  0  0  0
   -4.0472   -2.8253    1.8438 C   0  0  0  0  0  0  0  0  0  0  0  0
   -4.2721   -3.4909    0.6422 C   0  0  0  0  0  0  0  0  0  0  0  0
   -4.1767   -2.8007   -0.5670 C   0  0  0  0  0  0  0  0  0  0  0  0
   -3.8525   -1.4354   -0.5867 C   0  0  0  0  0  0  0  0  0  0  0  0
   -3.7554   -0.7083   -1.8979 C   0  0  0  0  0  0  0  0  0  0  0  0
   -0.8971    0.0526    0.5649 N   0  0  0  0  0  0  0  0  0  0  0  0
    0.4219    0.4188    0.5339 C   0  0  0  0  0  0  0  0  0  0  0  0
    1.3122   -0.5157    0.4460 N   0  0  0  0  0  0  0  0  0  0  0  0
    2.7153   -0.0993    0.4235 C   0  0  0  0  0  0  0  0  0  0  0  0
    3.5821   -1.3518    0.3288 C   0  0  0  0  0  0  0  0  0  0  0  0
    5.0634   -0.9932    0.2665 C   0  0  0  0  0  0  0  0  0  0  0  0
    5.8972   -2.1516    0.3141 O   0  0  0  0  0  0  0  0  0  0  0  0
    5.9429   -2.8643   -0.9143 C   0  0  0  0  0  0  0  0  0  0  0  0
    0.8136    1.7423    0.5968 N   0  0  0  0  0  0  0  0  0  0  0  0
   -0.1239    2.6357    0.6698 C   0  0  0  0  0  0  0  0  0  0  0  0
    0.0164    4.0232    0.7641 N   0  0  0  0  0  0  0  0  0  0  0  0
    1.1253    4.7075    0.1278 C   0  0  0  0  0  0  0  0  0  0  0  0
   -1.5056    5.3065    1.2917 H   0  0  0  0  0  0  0  0  0  0  0  0
   -3.2361    3.7080    0.6888 H   0  0  0  0  0  0  0  0  0  0  0  0
   -3.5459   -0.9506    2.7734 H   0  0  0  0  0  0  0  0  0  0  0  0
   -4.1325   -3.3576    2.7875 H   0  0  0  0  0  0  0  0  0  0  0  0
   -4.5308   -4.5470    0.6455 H   0  0  0  0  0  0  0  0  0  0  0  0
   -4.3646   -3.3342   -1.4963 H   0  0  0  0  0  0  0  0  0  0  0  0
   -4.1585   -1.3106   -2.7190 H   0  0  0  0  0  0  0  0  0  0  0  0
   -2.7096   -0.4807   -2.1268 H   0  0  0  0  0  0  0  0  0  0  0  0
   -4.3316    0.2222   -1.8664 H   0  0  0  0  0  0  0  0  0  0  0  0
   -1.0562   -0.9431    0.5230 H   0  0  0  0  0  0  0  0  0  0  0  0
    2.9119    0.5426   -0.4440 H   0  0  0  0  0  0  0  0  0  0  0  0
    2.9709    0.4486    1.3387 H   0  0  0  0  0  0  0  0  0  0  0  0
    3.3970   -2.0098    1.1872 H   0  0  0  0  0  0  0  0  0  0  0  0
    3.2938   -1.9321   -0.5554 H   0  0  0  0  0  0  0  0  0  0  0  0
    5.3266   -0.3853    1.1391 H   0  0  0  0  0  0  0  0  0  0  0  0
    5.2959   -0.3973   -0.6240 H   0  0  0  0  0  0  0  0  0  0  0  0
    6.2605   -2.2092   -1.7311 H   0  0  0  0  0  0  0  0  0  0  0  0
    6.6749   -3.6703   -0.8131 H   0  0  0  0  0  0  0  0  0  0  0  0
    4.9728   -3.3128   -1.1433 H   0  0  0  0  0  0  0  0  0  0  0  0
    1.1181    5.7704    0.3903 H   0  0  0  0  0  0  0  0  0  0  0  0
    1.0639    4.6177   -0.9618 H   0  0  0  0  0  0  0  0  0  0  0  0
    2.0799    4.2879    0.4610 H   0  0  0  0  0  0  0  0  0  0  0  0
  1  2  1  0
  2  3  2  0
  3  4  1  0
  4  5  2  3
  5  6  1  0
  6  7  2  0
  7  8  1  0
  8  9  2  0
  9 10  1  0
 10 11  2  0
 11 12  1  0
  4 13  1  0
 13 14  1  0
 14 15  2  3
 15 16  1  0
 16 17  1  0
 17 18  1  0
 18 19  1  0
 19 20  1  0
 14 21  1  0
 21 22  2  0
 22 23  1  0
 23 24  1  0
 23  1  1  0
 22  3  1  0
 11  6  1  0
  1 25  1  0
  2 26  1  0
  7 27  1  0
  8 28  1  0
  9 29  1  0
 10 30  1  0
 12 31  1  0
 12 32  1  0
 12 33  1  0
 13 34  1  0
 16 35  1  0
 16 36  1  0
 17 37  1  0
 17 38  1  0
 18 39  1  0
 18 40  1  0
 20 41  1  0
 20 42  1  0
 20 43  1  0
 24 44  1  0
 24 45  1  0
 24 46  1  0
M  END
>  <ScrubInfo>  (8) 
{"isomerGroup": 0, "isomerId": 7, "confId": 0, "nr_conformers:": 1, "nr_isomers:": 9}

$$$$
_i8
     RDKit          3D

 46 48  0  0  0  0  0  0  0  0999 V2000
    0.7323   -2.4486    0.3895 N   0  0  0  0  0  0  0  0  0  0  0  0
    1.3921   -1.2440    0.5237 C   0  0  0  0  0  0  0  0  0  0  0  0
    2.6620   -1.2717    0.7424 N   0  0  0  0  0  0  0  0  0  0  0  0
    3.4079   -0.0240    0.9073 C   0  0  0  0  0  0  0  0  0  0  0  0
    3.9042    0.4644   -0.4521 C   0  0  0  0  0  0  0  0  0  0  0  0
    4.6008    1.8174   -0.3591 C   0  0  0  0  0  0  0  0  0  0  0  0
    5.7273    1.7192    0.5079 O   0  0  0  0  0  0  0  0  0  0  0  0
    6.4265    2.9529    0.6050 C   0  0  0  0  0  0  0  0  0  0  0  0
    0.5595   -0.1501    0.3894 N   0  0  0  0  0  0  0  0  0  0  0  0
   -0.7969   -0.0637    0.1434 C   0  0  0  0  0  0  0  0  0  0  0  0
   -1.3755    1.0961    0.0466 N   0  0  0  0  0  0  0  0  0  0  0  0
   -2.7453    1.2254   -0.2052 C   0  0  0  0  0  0  0  0  0  0  0  0
   -3.1872    1.3158   -1.5310 C   0  0  0  0  0  0  0  0  0  0  0  0
   -4.5432    1.4643   -1.8214 C   0  0  0  0  0  0  0  0  0  0  0  0
   -5.4687    1.5384   -0.7843 C   0  0  0  0  0  0  0  0  0  0  0  0
   -5.0381    1.4771    0.5418 C   0  0  0  0  0  0  0  0  0  0  0  0
   -3.6747    1.3366    0.8448 C   0  0  0  0  0  0  0  0  0  0  0  0
   -3.2305    1.2771    2.2789 C   0  0  0  0  0  0  0  0  0  0  0  0
   -1.3956   -1.3820    0.0241 C   0  0  0  0  0  0  0  0  0  0  0  0
   -2.6734   -1.9232   -0.2102 C   0  0  0  0  0  0  0  0  0  0  0  0
   -2.6766   -3.2651   -0.2272 N   0  0  0  0  0  0  0  0  0  0  0  0
   -1.3869   -3.5932    0.0080 N   0  0  0  0  0  0  0  0  0  0  0  0
   -1.0117   -4.9837    0.0573 C   0  0  0  0  0  0  0  0  0  0  0  0
   -0.5959   -2.4964    0.1563 C   0  0  0  0  0  0  0  0  0  0  0  0
    1.3310   -3.2607    0.4839 H   0  0  0  0  0  0  0  0  0  0  0  0
    4.2620   -0.2311    1.5623 H   0  0  0  0  0  0  0  0  0  0  0  0
    2.8195    0.7453    1.4199 H   0  0  0  0  0  0  0  0  0  0  0  0
    4.6010   -0.2792   -0.8587 H   0  0  0  0  0  0  0  0  0  0  0  0
    3.0684    0.5414   -1.1571 H   0  0  0  0  0  0  0  0  0  0  0  0
    3.9060    2.5734    0.0249 H   0  0  0  0  0  0  0  0  0  0  0  0
    4.9344    2.1227   -1.3576 H   0  0  0  0  0  0  0  0  0  0  0  0
    6.8074    3.2555   -0.3751 H   0  0  0  0  0  0  0  0  0  0  0  0
    5.7747    3.7313    1.0132 H   0  0  0  0  0  0  0  0  0  0  0  0
    7.2739    2.8161    1.2821 H   0  0  0  0  0  0  0  0  0  0  0  0
    0.9871    0.7578    0.4678 H   0  0  0  0  0  0  0  0  0  0  0  0
   -2.4654    1.2656   -2.3418 H   0  0  0  0  0  0  0  0  0  0  0  0
   -4.8745    1.5242   -2.8545 H   0  0  0  0  0  0  0  0  0  0  0  0
   -6.5268    1.6525   -1.0066 H   0  0  0  0  0  0  0  0  0  0  0  0
   -5.7738    1.5461    1.3401 H   0  0  0  0  0  0  0  0  0  0  0  0
   -4.0422    1.5540    2.9600 H   0  0  0  0  0  0  0  0  0  0  0  0
   -2.9074    0.2628    2.5328 H   0  0  0  0  0  0  0  0  0  0  0  0
   -2.4070    1.9763    2.4567 H   0  0  0  0  0  0  0  0  0  0  0  0
   -3.6139   -1.4150   -0.3730 H   0  0  0  0  0  0  0  0  0  0  0  0
   -0.0981   -5.0970    0.6449 H   0  0  0  0  0  0  0  0  0  0  0  0
   -0.8508   -5.3287   -0.9669 H   0  0  0  0  0  0  0  0  0  0  0  0
   -1.8178   -5.5521    0.5287 H   0  0  0  0  0  0  0  0  0  0  0  0
  1  2  1  0
  2  3  2  3
  3  4  1  0
  4  5  1  0
  5  6  1  0
  6  7  1  0
  7  8  1  0
  2  9  1  0
  9 10  1  0
 10 11  2  3
 11 12  1  0
 12 13  2  0
 13 14  1  0
 14 15  2  0
 15 16  1  0
 16 17  2  0
 17 18  1  0
 10 19  1  0
 19 20  1  0
 20 21  2  0
 21 22  1  0
 22 23  1  0
 22 24  1  0
 24  1  1  0
 17 12  1  0
 24 19  2  0
  1 25  1  0
  4 26  1  0
  4 27  1  0
  5 28  1  0
  5 29  1  0
  6 30  1  0
  6 31  1  0
  8 32  1  0
  8 33  1  0
  8 34  1  0
  9 35  1  0
 13 36  1  0
 14 37  1  0
 15 38  1  0
 16 39  1  0
 18 40  1  0
 18 41  1  0
 18 42  1  0
 20 43  1  0
 23 44  1  0
 23 45  1  0
 23 46  1  0
M  END
>  <ScrubInfo>  (9) 
{"isomerGroup": 0, "isomerId": 8, "confId": 0, "nr_conformers:": 1, "nr_isomers:": 9}

$$$$
