_i0
     RDKit          3D

 38 40  0  0  0  0  0  0  0  0999 V2000
    6.1499   -0.9718    2.0922 C   0  0  0  0  0  0  0  0  0  0  0  0
    5.0132   -0.9032    1.2413 O   0  0  0  0  0  0  0  0  0  0  0  0
    5.0387    0.2771    0.4271 C   0  0  0  0  0  0  0  0  0  0  0  0
    3.7769    0.3154   -0.4423 C   0  0  0  0  0  0  0  0  0  0  0  0
    2.6016    0.4394    0.4134 N   0  0  0  0  0  0  0  0  0  0  0  0
    1.3907    0.3267   -0.2495 C   0  0  0  0  0  0  0  0  0  0  0  0
    0.4054   -0.2443    0.4368 N   0  0  0  0  0  0  0  0  0  0  0  0
   -0.7991   -0.3368   -0.1631 C   0  0  0  0  0  0  0  0  0  0  0  0
   -1.7843   -0.9586    0.6366 N   0  0  0  0  0  0  0  0  0  0  0  0
   -3.1078   -0.5369    0.8963 C   0  0  0  0  0  0  0  0  0  0  0  0
   -3.9851   -1.4516    1.4970 C   0  0  0  0  0  0  0  0  0  0  0  0
   -5.2958   -1.0895    1.8172 C   0  0  0  0  0  0  0  0  0  0  0  0
   -5.7449    0.2005    1.5493 C   0  0  0  0  0  0  0  0  0  0  0  0
   -4.8827    1.1251    0.9651 C   0  0  0  0  0  0  0  0  0  0  0  0
   -3.5713    0.7593    0.6453 C   0  0  0  0  0  0  0  0  0  0  0  0
   -1.0438    0.0851   -1.4723 C   0  0  0  0  0  0  0  0  0  0  0  0
   -2.2369   -0.0431   -2.1397 N   0  0  0  0  0  0  0  0  0  0  0  0
   -2.2828    0.4164   -3.4012 C   0  0  0  0  0  0  0  0  0  0  0  0
   -1.1811    0.9851   -3.9909 C   0  0  0  0  0  0  0  0  0  0  0  0
   -0.0023    1.1092   -3.3432 N   0  0  0  0  0  0  0  0  0  0  0  0
    0.0790    0.6585   -2.0846 C   0  0  0  0  0  0  0  0  0  0  0  0
    1.2581    0.7837   -1.4901 N   0  0  0  0  0  0  0  0  0  0  0  0
    6.0827   -1.8892    2.6829 H   0  0  0  0  0  0  0  0  0  0  0  0
    7.0699   -1.0030    1.5006 H   0  0  0  0  0  0  0  0  0  0  0  0
    6.1690   -0.1171    2.7752 H   0  0  0  0  0  0  0  0  0  0  0  0
    5.0848    1.1639    1.0703 H   0  0  0  0  0  0  0  0  0  0  0  0
    5.9259    0.2515   -0.2154 H   0  0  0  0  0  0  0  0  0  0  0  0
    3.7187   -0.6112   -1.0271 H   0  0  0  0  0  0  0  0  0  0  0  0
    3.8447    1.1682   -1.1276 H   0  0  0  0  0  0  0  0  0  0  0  0
    2.5926   -0.2355    1.1746 H   0  0  0  0  0  0  0  0  0  0  0  0
   -1.3247   -1.1957    1.5138 H   0  0  0  0  0  0  0  0  0  0  0  0
   -3.6498   -2.4646    1.7064 H   0  0  0  0  0  0  0  0  0  0  0  0
   -5.9632   -1.8158    2.2728 H   0  0  0  0  0  0  0  0  0  0  0  0
   -6.7640    0.4857    1.7961 H   0  0  0  0  0  0  0  0  0  0  0  0
   -5.2267    2.1350    0.7585 H   0  0  0  0  0  0  0  0  0  0  0  0
   -2.9204    1.5084    0.2052 H   0  0  0  0  0  0  0  0  0  0  0  0
   -3.2286    0.3131   -3.9195 H   0  0  0  0  0  0  0  0  0  0  0  0
   -1.2065    1.3602   -5.0076 H   0  0  0  0  0  0  0  0  0  0  0  0
  1  2  1  0
  2  3  1  0
  3  4  1  0
  4  5  1  0
  5  6  1  0
  6  7  2  0
  7  8  1  0
  8  9  1  0
  9 10  1  0
 10 11  2  0
 11 12  1  0
 12 13  2  0
 13 14  1  0
 14 15  2  0
  8 16  2  0
 16 17  1  0
 17 18  2  0
 18 19  1  0
 19 20  2  0
 20 21  1  0
 21 22  2  0
 22  6  1  0
 15 10  1  0
 21 16  1  0
  1 23  1  0
  1 24  1  0
  1 25  1  0
  3 26  1  0
  3 27  1  0
  4 28  1  0
  4 29  1  0
  5 30  1  0
  9 31  1  0
 11 32  1  0
 12 33  1  0
 13 34  1  0
 14 35  1  0
 15 36  1  0
 18 37  1  0
 19 38  1  0
M  END
>  <ScrubInfo>  (1) 
{"isomerGroup": 0, "isomerId": 0, "confId": 0, "nr_conformers:": 1, "nr_isomers:": 9}

$$$$
_i1
     RDKit          3D

 38 40  0  0  0  0  0  0  0  0999 V2000
    0.3050    0.5136   -0.0457 N   0  0  0  0  0  0  0  0  0  0  0  0
    1.0192   -0.6465    0.1333 C   0  0  0  0  0  0  0  0  0  0  0  0
    2.3647   -0.6442    0.4792 N   0  0  0  0  0  0  0  0  0  0  0  0
    3.3818    0.2400    0.0704 C   0  0  0  0  0  0  0  0  0  0  0  0
    4.5981    0.2156    0.7702 C   0  0  0  0  0  0  0  0  0  0  0  0
    5.6376    1.0919    0.4471 C   0  0  0  0  0  0  0  0  0  0  0  0
    5.4742    2.0135   -0.5823 C   0  0  0  0  0  0  0  0  0  0  0  0
    4.2734    2.0563   -1.2853 C   0  0  0  0  0  0  0  0  0  0  0  0
    3.2346    1.1785   -0.9578 C   0  0  0  0  0  0  0  0  0  0  0  0
    0.3593   -1.8267    0.0267 C   0  0  0  0  0  0  0  0  0  0  0  0
    0.9716   -3.0493    0.2216 N   0  0  0  0  0  0  0  0  0  0  0  0
    0.2049   -4.0738    0.0477 C   0  0  0  0  0  0  0  0  0  0  0  0
   -1.2333   -3.9587   -0.3328 C   0  0  0  0  0  0  0  0  0  0  0  0
   -1.8270   -2.8283   -0.5053 N   0  0  0  0  0  0  0  0  0  0  0  0
   -1.1027   -1.6715   -0.3329 C   0  0  0  0  0  0  0  0  0  0  0  0
   -1.7515   -0.5677   -0.4937 N   0  0  0  0  0  0  0  0  0  0  0  0
   -1.0278    0.5782   -0.3096 C   0  0  0  0  0  0  0  0  0  0  0  0
   -1.5992    1.7349   -0.3675 N   0  0  0  0  0  0  0  0  0  0  0  0
   -3.0348    1.7756   -0.6704 C   0  0  0  0  0  0  0  0  0  0  0  0
   -3.8708    1.5789    0.5969 C   0  0  0  0  0  0  0  0  0  0  0  0
   -5.2757    1.6418    0.3316 O   0  0  0  0  0  0  0  0  0  0  0  0
   -5.7857    0.4221   -0.1925 C   0  0  0  0  0  0  0  0  0  0  0  0
    0.7679    1.3783    0.1952 H   0  0  0  0  0  0  0  0  0  0  0  0
    2.7111   -1.5874    0.6613 H   0  0  0  0  0  0  0  0  0  0  0  0
    4.7391   -0.4849    1.5900 H   0  0  0  0  0  0  0  0  0  0  0  0
    6.5701    1.0571    1.0042 H   0  0  0  0  0  0  0  0  0  0  0  0
    6.2797    2.6973   -0.8366 H   0  0  0  0  0  0  0  0  0  0  0  0
    4.1422    2.7707   -2.0943 H   0  0  0  0  0  0  0  0  0  0  0  0
    2.3247    1.2235   -1.5493 H   0  0  0  0  0  0  0  0  0  0  0  0
    0.5773   -5.1022    0.1729 H   0  0  0  0  0  0  0  0  0  0  0  0
   -1.7640   -4.9147   -0.4580 H   0  0  0  0  0  0  0  0  0  0  0  0
   -3.2665    2.7603   -1.0946 H   0  0  0  0  0  0  0  0  0  0  0  0
   -3.3099    1.0678   -1.4606 H   0  0  0  0  0  0  0  0  0  0  0  0
   -3.6265    0.6435    1.1137 H   0  0  0  0  0  0  0  0  0  0  0  0
   -3.6441    2.3893    1.2992 H   0  0  0  0  0  0  0  0  0  0  0  0
   -5.6005   -0.4034    0.5016 H   0  0  0  0  0  0  0  0  0  0  0  0
   -6.8666    0.5315   -0.3175 H   0  0  0  0  0  0  0  0  0  0  0  0
   -5.3497    0.1991   -1.1696 H   0  0  0  0  0  0  0  0  0  0  0  0
  1  2  1  0
  2  3  1  0
  3  4  1  0
  4  5  2  0
  5  6  1  0
  6  7  2  0
  7  8  1  0
  8  9  2  0
  2 10  2  0
 10 11  1  0
 11 12  2  0
 12 13  1  0
 13 14  2  0
 14 15  1  0
 15 16  2  0
 16 17  1  0
 17 18  2  3
 18 19  1  0
 19 20  1  0
 20 21  1  0
 21 22  1  0
 17  1  1  0
  9  4  1  0
 15 10  1  0
  1 23  1  0
  3 24  1  0
  5 25  1  0
  6 26  1  0
  7 27  1  0
  8 28  1  0
  9 29  1  0
 12 30  1  0
 13 31  1  0
 19 32  1  0
 19 33  1  0
 20 34  1  0
 20 35  1  0
 22 36  1  0
 22 37  1  0
 22 38  1  0
M  END
>  <ScrubInfo>  (2) 
{"isomerGroup": 0, "isomerId": 1, "confId": 0, "nr_conformers:": 1, "nr_isomers:": 9}

$$$$
_i2
     RDKit          3D

 38 40  0  0  0  0  0  0  0  0999 V2000
    1.0726   -0.4313   -0.8506 N   0  0  0  0  0  0  0  0  0  0  0  0
    1.7715   -1.2950   -0.0693 C   0  0  0  0  0  0  0  0  0  0  0  0
    3.1294   -1.2578   -0.1716 N   0  0  0  0  0  0  0  0  0  0  0  0
    3.9021   -0.0207   -0.1589 C   0  0  0  0  0  0  0  0  0  0  0  0
    3.7814    0.7172    1.1778 C   0  0  0  0  0  0  0  0  0  0  0  0
    4.6214    1.8721    1.1472 O   0  0  0  0  0  0  0  0  0  0  0  0
    4.5432    2.6067    2.3626 C   0  0  0  0  0  0  0  0  0  0  0  0
    1.2090   -2.1364    0.7447 N   0  0  0  0  0  0  0  0  0  0  0  0
   -0.2026   -2.1020    0.7938 C   0  0  0  0  0  0  0  0  0  0  0  0
   -0.7452   -2.9679    1.6844 N   0  0  0  0  0  0  0  0  0  0  0  0
   -2.0964   -2.9588    1.7635 C   0  0  0  0  0  0  0  0  0  0  0  0
   -2.8882   -2.1198    0.9942 C   0  0  0  0  0  0  0  0  0  0  0  0
   -2.3699   -1.2461    0.1050 N   0  0  0  0  0  0  0  0  0  0  0  0
   -1.0157   -1.2562    0.0177 C   0  0  0  0  0  0  0  0  0  0  0  0
   -0.2974   -0.3402   -0.9264 C   0  0  0  0  0  0  0  0  0  0  0  0
   -0.7837    0.5064   -1.7982 N   0  0  0  0  0  0  0  0  0  0  0  0
   -2.1603    0.6747   -1.9764 C   0  0  0  0  0  0  0  0  0  0  0  0
   -2.8436    1.6763   -1.2816 C   0  0  0  0  0  0  0  0  0  0  0  0
   -4.2081    1.8823   -1.4964 C   0  0  0  0  0  0  0  0  0  0  0  0
   -4.8936    1.0961   -2.4219 C   0  0  0  0  0  0  0  0  0  0  0  0
   -4.2143    0.1097   -3.1361 C   0  0  0  0  0  0  0  0  0  0  0  0
   -2.8497   -0.0935   -2.9187 C   0  0  0  0  0  0  0  0  0  0  0  0
    1.5660    0.0835   -1.5647 H   0  0  0  0  0  0  0  0  0  0  0  0
    3.5324   -1.9574    0.4505 H   0  0  0  0  0  0  0  0  0  0  0  0
    3.6067    0.6384   -0.9833 H   0  0  0  0  0  0  0  0  0  0  0  0
    4.9551   -0.2641   -0.3436 H   0  0  0  0  0  0  0  0  0  0  0  0
    2.7435    1.0250    1.3504 H   0  0  0  0  0  0  0  0  0  0  0  0
    4.0916    0.0602    1.9991 H   0  0  0  0  0  0  0  0  0  0  0  0
    3.5215    2.9603    2.5310 H   0  0  0  0  0  0  0  0  0  0  0  0
    5.2045    3.4737    2.2837 H   0  0  0  0  0  0  0  0  0  0  0  0
    4.8732    1.9903    3.2044 H   0  0  0  0  0  0  0  0  0  0  0  0
   -2.5320   -3.6540    2.4727 H   0  0  0  0  0  0  0  0  0  0  0  0
   -3.9697   -2.1294    1.0748 H   0  0  0  0  0  0  0  0  0  0  0  0
   -2.3070    2.2951   -0.5691 H   0  0  0  0  0  0  0  0  0  0  0  0
   -4.7319    2.6579   -0.9450 H   0  0  0  0  0  0  0  0  0  0  0  0
   -5.9549    1.2566   -2.5915 H   0  0  0  0  0  0  0  0  0  0  0  0
   -4.7427   -0.4983   -3.8648 H   0  0  0  0  0  0  0  0  0  0  0  0
   -2.3182   -0.8537   -3.4828 H   0  0  0  0  0  0  0  0  0  0  0  0
  1  2  1  0
  2  3  1  0
  3  4  1  0
  4  5  1  0
  5  6  1  0
  6  7  1  0
  2  8  2  0
  8  9  1  0
  9 10  2  0
 10 11  1  0
 11 12  2  0
 12 13  1  0
 13 14  2  0
 14 15  1  0
 15 16  2  3
 16 17  1  0
 17 18  2  0
 18 19  1  0
 19 20  2  0
 20 21  1  0
 21 22  2  0
 15  1  1  0
 22 17  1  0
 14  9  1  0
  1 23  1  0
  3 24  1  0
  4 25  1  0
  4 26  1  0
  5 27  1  0
  5 28  1  0
  7 29  1  0
  7 30  1  0
  7 31  1  0
 11 32  1  0
 12 33  1  0
 18 34  1  0
 19 35  1  0
 20 36  1  0
 21 37  1  0
 22 38  1  0
M  END
>  <ScrubInfo>  (3) 
{"isomerGroup": 0, "isomerId": 2, "confId": 0, "nr_conformers:": 1, "nr_isomers:": 9}

$$$$
_i3
     RDKit          3D

 38 40  0  0  0  0  0  0  0  0999 V2000
    1.6167   -0.9371   -0.3210 N   0  0  0  0  0  0  0  0  0  0  0  0
    1.3481    0.0535   -1.2161 C   0  0  0  0  0  0  0  0  0  0  0  0
    2.2076    0.8063   -1.8023 N   0  0  0  0  0  0  0  0  0  0  0  0
    3.6355    0.6454   -1.5518 C   0  0  0  0  0  0  0  0  0  0  0  0
    4.0765    1.5202   -0.3760 C   0  0  0  0  0  0  0  0  0  0  0  0
    5.4594    1.3278   -0.0710 O   0  0  0  0  0  0  0  0  0  0  0  0
    5.6898    0.2330    0.8044 C   0  0  0  0  0  0  0  0  0  0  0  0
    0.0561    0.3551   -1.5750 N   0  0  0  0  0  0  0  0  0  0  0  0
   -0.9418   -0.3236   -1.0678 C   0  0  0  0  0  0  0  0  0  0  0  0
   -2.2136    0.0356   -1.4787 N   0  0  0  0  0  0  0  0  0  0  0  0
   -3.2565    0.3973   -0.5883 C   0  0  0  0  0  0  0  0  0  0  0  0
   -4.5742    0.3676   -1.0647 C   0  0  0  0  0  0  0  0  0  0  0  0
   -5.6385    0.7703   -0.2547 C   0  0  0  0  0  0  0  0  0  0  0  0
   -5.3942    1.2270    1.0380 C   0  0  0  0  0  0  0  0  0  0  0  0
   -4.0872    1.2869    1.5164 C   0  0  0  0  0  0  0  0  0  0  0  0
   -3.0235    0.8826    0.7046 C   0  0  0  0  0  0  0  0  0  0  0  0
   -0.7207   -1.4642   -0.1292 C   0  0  0  0  0  0  0  0  0  0  0  0
   -1.7699   -2.1970    0.3232 N   0  0  0  0  0  0  0  0  0  0  0  0
   -1.4328   -3.2020    1.1584 C   0  0  0  0  0  0  0  0  0  0  0  0
   -0.1172   -3.4607    1.5155 C   0  0  0  0  0  0  0  0  0  0  0  0
    0.9274   -2.7288    1.0520 N   0  0  0  0  0  0  0  0  0  0  0  0
    0.6047   -1.7186    0.2096 C   0  0  0  0  0  0  0  0  0  0  0  0
    2.5496   -1.1960   -0.0579 H   0  0  0  0  0  0  0  0  0  0  0  0
    4.1834    0.9590   -2.4488 H   0  0  0  0  0  0  0  0  0  0  0  0
    3.9226   -0.4021   -1.4120 H   0  0  0  0  0  0  0  0  0  0  0  0
    3.9486    2.5741   -0.6475 H   0  0  0  0  0  0  0  0  0  0  0  0
    3.4607    1.3466    0.5147 H   0  0  0  0  0  0  0  0  0  0  0  0
    5.3442   -0.7048    0.3613 H   0  0  0  0  0  0  0  0  0  0  0  0
    6.7660    0.1563    0.9813 H   0  0  0  0  0  0  0  0  0  0  0  0
    5.1921    0.4005    1.7645 H   0  0  0  0  0  0  0  0  0  0  0  0
   -2.1409    0.7661   -2.1853 H   0  0  0  0  0  0  0  0  0  0  0  0
   -4.7779    0.0125   -2.0721 H   0  0  0  0  0  0  0  0  0  0  0  0
   -6.6556    0.7279   -0.6349 H   0  0  0  0  0  0  0  0  0  0  0  0
   -6.2206    1.5426    1.6694 H   0  0  0  0  0  0  0  0  0  0  0  0
   -3.8922    1.6560    2.5198 H   0  0  0  0  0  0  0  0  0  0  0  0
   -2.0132    0.9655    1.0944 H   0  0  0  0  0  0  0  0  0  0  0  0
   -2.2533   -3.8011    1.5383 H   0  0  0  0  0  0  0  0  0  0  0  0
    0.1345   -4.2730    2.1891 H   0  0  0  0  0  0  0  0  0  0  0  0
  1  2  1  0
  2  3  2  3
  3  4  1  0
  4  5  1  0
  5  6  1  0
  6  7  1  0
  2  8  1  0
  8  9  2  0
  9 10  1  0
 10 11  1  0
 11 12  2  0
 12 13  1  0
 13 14  2  0
 14 15  1  0
 15 16  2  0
  9 17  1  0
 17 18  2  0
 18 19  1  0
 19 20  2  0
 20 21  1  0
 21 22  2  0
 22  1  1  0
 16 11  1  0
 22 17  1  0
  1 23  1  0
  4 24  1  0
  4 25  1  0
  5 26  1  0
  5 27  1  0
  7 28  1  0
  7 29  1  0
  7 30  1  0
 10 31  1  0
 12 32  1  0
 13 33  1  0
 14 34  1  0
 15 35  1  0
 16 36  1  0
 19 37  1  0
 20 38  1  0
M  END
>  <ScrubInfo>  (4) 
{"isomerGroup": 0, "isomerId": 3, "confId": 0, "nr_conformers:": 1, "nr_isomers:": 9}

$$$$
_i4
     RDKit          3D

 38 40  0  0  0  0  0  0  0  0999 V2000
    1.0412   -3.9463   -0.6390 N   0  0  0  0  0  0  0  0  0  0  0  0
    0.0328   -4.8634   -0.7581 C   0  0  0  0  0  0  0  0  0  0  0  0
   -1.2480   -4.5128   -0.5534 C   0  0  0  0  0  0  0  0  0  0  0  0
   -1.6526   -3.2354   -0.2123 N   0  0  0  0  0  0  0  0  0  0  0  0
   -0.7065   -2.3336   -0.1014 C   0  0  0  0  0  0  0  0  0  0  0  0
   -1.0696   -0.9219    0.2779 C   0  0  0  0  0  0  0  0  0  0  0  0
   -2.4112   -0.7042    0.5121 N   0  0  0  0  0  0  0  0  0  0  0  0
   -3.0964    0.4762    0.8381 C   0  0  0  0  0  0  0  0  0  0  0  0
   -2.4836    1.7245    0.9866 C   0  0  0  0  0  0  0  0  0  0  0  0
   -3.2269    2.8617    1.3244 C   0  0  0  0  0  0  0  0  0  0  0  0
   -4.6005    2.7687    1.5241 C   0  0  0  0  0  0  0  0  0  0  0  0
   -5.2316    1.5375    1.3870 C   0  0  0  0  0  0  0  0  0  0  0  0
   -4.4847    0.4046    1.0491 C   0  0  0  0  0  0  0  0  0  0  0  0
   -0.1057   -0.0663    0.3533 N   0  0  0  0  0  0  0  0  0  0  0  0
    1.1816   -0.4393    0.0799 C   0  0  0  0  0  0  0  0  0  0  0  0
    2.0204    0.5312    0.1347 N   0  0  0  0  0  0  0  0  0  0  0  0
    3.4294    0.2433   -0.1522 C   0  0  0  0  0  0  0  0  0  0  0  0
    4.2025    1.5617   -0.2458 C   0  0  0  0  0  0  0  0  0  0  0  0
    4.0016    2.1511   -1.5354 O   0  0  0  0  0  0  0  0  0  0  0  0
    4.5911    3.4403   -1.6167 C   0  0  0  0  0  0  0  0  0  0  0  0
    1.6277   -1.7012   -0.2206 N   0  0  0  0  0  0  0  0  0  0  0  0
    0.7537   -2.6418   -0.3270 C   0  0  0  0  0  0  0  0  0  0  0  0
    1.9989   -4.2131   -0.8264 H   0  0  0  0  0  0  0  0  0  0  0  0
    0.3330   -5.8708   -1.0258 H   0  0  0  0  0  0  0  0  0  0  0  0
   -2.0394   -5.2520   -0.6526 H   0  0  0  0  0  0  0  0  0  0  0  0
   -2.9973   -1.5255    0.3837 H   0  0  0  0  0  0  0  0  0  0  0  0
   -1.4143    1.8489    0.8408 H   0  0  0  0  0  0  0  0  0  0  0  0
   -2.7231    3.8193    1.4300 H   0  0  0  0  0  0  0  0  0  0  0  0
   -5.1746    3.6531    1.7863 H   0  0  0  0  0  0  0  0  0  0  0  0
   -6.3038    1.4552    1.5431 H   0  0  0  0  0  0  0  0  0  0  0  0
   -5.0057   -0.5450    0.9520 H   0  0  0  0  0  0  0  0  0  0  0  0
    3.5386   -0.3044   -1.0959 H   0  0  0  0  0  0  0  0  0  0  0  0
    3.8479   -0.3507    0.6685 H   0  0  0  0  0  0  0  0  0  0  0  0
    5.2734    1.3605   -0.1282 H   0  0  0  0  0  0  0  0  0  0  0  0
    3.8814    2.2550    0.5405 H   0  0  0  0  0  0  0  0  0  0  0  0
    4.1251    4.1210   -0.8977 H   0  0  0  0  0  0  0  0  0  0  0  0
    5.6689    3.3816   -1.4365 H   0  0  0  0  0  0  0  0  0  0  0  0
    4.4262    3.8319   -2.6240 H   0  0  0  0  0  0  0  0  0  0  0  0
  1  2  1  0
  2  3  2  0
  3  4  1  0
  4  5  2  0
  5  6  1  0
  6  7  1  0
  7  8  1  0
  8  9  2  0
  9 10  1  0
 10 11  2  0
 11 12  1  0
 12 13  2  0
  6 14  2  0
 14 15  1  0
 15 16  2  3
 16 17  1  0
 17 18  1  0
 18 19  1  0
 19 20  1  0
 15 21  1  0
 21 22  2  0
 22  1  1  0
 22  5  1  0
 13  8  1  0
  1 23  1  0
  2 24  1  0
  3 25  1  0
  7 26  1  0
  9 27  1  0
 10 28  1  0
 11 29  1  0
 12 30  1  0
 13 31  1  0
 17 32  1  0
 17 33  1  0
 18 34  1  0
 18 35  1  0
 20 36  1  0
 20 37  1  0
 20 38  1  0
M  END
>  <ScrubInfo>  (5) 
{"isomerGroup": 0, "isomerId": 4, "confId": 0, "nr_conformers:": 1, "nr_isomers:": 9}

$$$$
_i5
     RDKit          3D

 38 40  0  0  0  0  0  0  0  0999 V2000
    1.2707   -0.1732   -1.6739 N   0  0  0  0  0  0  0  0  0  0  0  0
    1.2336   -1.1355   -0.7260 C   0  0  0  0  0  0  0  0  0  0  0  0
    2.3698   -1.8725   -0.5744 N   0  0  0  0  0  0  0  0  0  0  0  0
    3.7040   -1.2902   -0.5032 C   0  0  0  0  0  0  0  0  0  0  0  0
    3.8758   -0.3924    0.7287 C   0  0  0  0  0  0  0  0  0  0  0  0
    5.1943    0.1563    0.7922 O   0  0  0  0  0  0  0  0  0  0  0  0
    6.1224   -0.7048    1.4396 C   0  0  0  0  0  0  0  0  0  0  0  0
    0.2186   -1.4078    0.0302 N   0  0  0  0  0  0  0  0  0  0  0  0
   -0.9398   -0.6534   -0.0942 C   0  0  0  0  0  0  0  0  0  0  0  0
   -1.8148   -0.9218    0.8303 N   0  0  0  0  0  0  0  0  0  0  0  0
   -3.0450   -0.2654    0.9096 C   0  0  0  0  0  0  0  0  0  0  0  0
   -4.1839   -0.8329    0.3319 C   0  0  0  0  0  0  0  0  0  0  0  0
   -5.4262   -0.2060    0.4512 C   0  0  0  0  0  0  0  0  0  0  0  0
   -5.5384    0.9862    1.1660 C   0  0  0  0  0  0  0  0  0  0  0  0
   -4.4116    1.5462    1.7672 C   0  0  0  0  0  0  0  0  0  0  0  0
   -3.1710    0.9163    1.6456 C   0  0  0  0  0  0  0  0  0  0  0  0
   -1.0423    0.3356   -1.2220 C   0  0  0  0  0  0  0  0  0  0  0  0
   -2.2044    0.9894   -1.4863 N   0  0  0  0  0  0  0  0  0  0  0  0
   -2.1694    1.8320   -2.5393 C   0  0  0  0  0  0  0  0  0  0  0  0
   -1.0291    2.0140   -3.3033 C   0  0  0  0  0  0  0  0  0  0  0  0
    0.1309    1.3626   -3.0489 N   0  0  0  0  0  0  0  0  0  0  0  0
    0.1092    0.5148   -1.9902 C   0  0  0  0  0  0  0  0  0  0  0  0
    2.0161   -0.0980   -2.3452 H   0  0  0  0  0  0  0  0  0  0  0  0
    2.2156   -2.5585    0.1638 H   0  0  0  0  0  0  0  0  0  0  0  0
    4.4320   -2.1080   -0.4726 H   0  0  0  0  0  0  0  0  0  0  0  0
    3.9384   -0.7275   -1.4142 H   0  0  0  0  0  0  0  0  0  0  0  0
    3.1855    0.4557    0.6604 H   0  0  0  0  0  0  0  0  0  0  0  0
    3.6311   -0.9274    1.6545 H   0  0  0  0  0  0  0  0  0  0  0  0
    6.2199   -1.6517    0.9020 H   0  0  0  0  0  0  0  0  0  0  0  0
    7.0977   -0.2106    1.4496 H   0  0  0  0  0  0  0  0  0  0  0  0
    5.8162   -0.8881    2.4740 H   0  0  0  0  0  0  0  0  0  0  0  0
   -4.0961   -1.7683   -0.2125 H   0  0  0  0  0  0  0  0  0  0  0  0
   -6.3034   -0.6526   -0.0078 H   0  0  0  0  0  0  0  0  0  0  0  0
   -6.5050    1.4728    1.2631 H   0  0  0  0  0  0  0  0  0  0  0  0
   -4.4974    2.4672    2.3366 H   0  0  0  0  0  0  0  0  0  0  0  0
   -2.2960    1.3419    2.1274 H   0  0  0  0  0  0  0  0  0  0  0  0
   -3.0911    2.3610   -2.7556 H   0  0  0  0  0  0  0  0  0  0  0  0
   -1.0171    2.6945   -4.1478 H   0  0  0  0  0  0  0  0  0  0  0  0
  1  2  1  0
  2  3  1  0
  3  4  1  0
  4  5  1  0
  5  6  1  0
  6  7  1  0
  2  8  2  0
  8  9  1  0
  9 10  2  3
 10 11  1  0
 11 12  2  0
 12 13  1  0
 13 14  2  0
 14 15  1  0
 15 16  2  0
  9 17  1  0
 17 18  2  0
 18 19  1  0
 19 20  2  0
 20 21  1  0
 21 22  2  0
 22  1  1  0
 16 11  1  0
 22 17  1  0
  1 23  1  0
  3 24  1  0
  4 25  1  0
  4 26  1  0
  5 27  1  0
  5 28  1  0
  7 29  1  0
  7 30  1  0
  7 31  1  0
 12 32  1  0
 13 33  1  0
 14 34  1  0
 15 35  1  0
 16 36  1  0
 19 37  1  0
 20 38  1  0
M  END
>  <ScrubInfo>  (6) 
{"isomerGroup": 0, "isomerId": 5, "confId": 0, "nr_conformers:": 1, "nr_isomers:": 9}

$$$$
_i6
     RDKit          3D

 38 40  0  0  0  0  0  0  0  0999 V2000
    0.5507    3.6749    2.0613 N   0  0  0  0  0  0  0  0  0  0  0  0
   -0.4042    4.2702    2.8393 C   0  0  0  0  0  0  0  0  0  0  0  0
   -1.6460    3.7641    2.9130 C   0  0  0  0  0  0  0  0  0  0  0  0
   -2.0568    2.6345    2.2339 N   0  0  0  0  0  0  0  0  0  0  0  0
   -1.1693    2.0445    1.4721 C   0  0  0  0  0  0  0  0  0  0  0  0
   -1.4540    0.8084    0.6764 C   0  0  0  0  0  0  0  0  0  0  0  0
   -2.6275    0.2595    0.7829 N   0  0  0  0  0  0  0  0  0  0  0  0
   -2.9043   -0.8995    0.0458 C   0  0  0  0  0  0  0  0  0  0  0  0
   -3.3854   -0.8128   -1.2637 C   0  0  0  0  0  0  0  0  0  0  0  0
   -3.6882   -1.9694   -1.9853 C   0  0  0  0  0  0  0  0  0  0  0  0
   -3.5232   -3.2216   -1.3944 C   0  0  0  0  0  0  0  0  0  0  0  0
   -3.0614   -3.3168   -0.0821 C   0  0  0  0  0  0  0  0  0  0  0  0
   -2.7590   -2.1578    0.6360 C   0  0  0  0  0  0  0  0  0  0  0  0
   -0.4782    0.2875   -0.1312 N   0  0  0  0  0  0  0  0  0  0  0  0
    0.6899    0.8494   -0.1722 C   0  0  0  0  0  0  0  0  0  0  0  0
    1.6012    0.2775   -1.0056 N   0  0  0  0  0  0  0  0  0  0  0  0
    3.0338    0.4048   -0.8219 C   0  0  0  0  0  0  0  0  0  0  0  0
    3.7717   -0.4174   -1.8859 C   0  0  0  0  0  0  0  0  0  0  0  0
    3.3752   -1.7946   -1.8836 O   0  0  0  0  0  0  0  0  0  0  0  0
    3.9452   -2.5445   -0.8193 C   0  0  0  0  0  0  0  0  0  0  0  0
    1.0746    1.9503    0.5456 N   0  0  0  0  0  0  0  0  0  0  0  0
    0.2423    2.5574    1.3256 C   0  0  0  0  0  0  0  0  0  0  0  0
    1.4716    4.0839    1.9845 H   0  0  0  0  0  0  0  0  0  0  0  0
   -0.0981    5.1597    3.3788 H   0  0  0  0  0  0  0  0  0  0  0  0
   -2.4004    4.2424    3.5327 H   0  0  0  0  0  0  0  0  0  0  0  0
   -3.5211    0.1630   -1.7205 H   0  0  0  0  0  0  0  0  0  0  0  0
   -4.0550   -1.8907   -3.0048 H   0  0  0  0  0  0  0  0  0  0  0  0
   -3.7602   -4.1223   -1.9544 H   0  0  0  0  0  0  0  0  0  0  0  0
   -2.9405   -4.2902    0.3846 H   0  0  0  0  0  0  0  0  0  0  0  0
   -2.4093   -2.2300    1.6615 H   0  0  0  0  0  0  0  0  0  0  0  0
    1.3038   -0.6373   -1.3390 H   0  0  0  0  0  0  0  0  0  0  0  0
    3.3021    0.0531    0.1797 H   0  0  0  0  0  0  0  0  0  0  0  0
    3.3360    1.4544   -0.9061 H   0  0  0  0  0  0  0  0  0  0  0  0
    4.8575   -0.3362   -1.7611 H   0  0  0  0  0  0  0  0  0  0  0  0
    3.5265   -0.0247   -2.8791 H   0  0  0  0  0  0  0  0  0  0  0  0
    3.6569   -3.5915   -0.9477 H   0  0  0  0  0  0  0  0  0  0  0  0
    5.0371   -2.4802   -0.8426 H   0  0  0  0  0  0  0  0  0  0  0  0
    3.5659   -2.2022    0.1469 H   0  0  0  0  0  0  0  0  0  0  0  0
  1  2  1  0
  2  3  2  0
  3  4  1  0
  4  5  2  0
  5  6  1  0
  6  7  2  3
  7  8  1  0
  8  9  2  0
  9 10  1  0
 10 11  2  0
 11 12  1  0
 12 13  2  0
  6 14  1  0
 14 15  2  0
 15 16  1  0
 16 17  1  0
 17 18  1  0
 18 19  1  0
 19 20  1  0
 15 21  1  0
 21 22  2  0
 22  1  1  0
 22  5  1  0
 13  8  1  0
  1 23  1  0
  2 24  1  0
  3 25  1  0
  9 26  1  0
 10 27  1  0
 11 28  1  0
 12 29  1  0
 13 30  1  0
 16 31  1  0
 17 32  1  0
 17 33  1  0
 18 34  1  0
 18 35  1  0
 20 36  1  0
 20 37  1  0
 20 38  1  0
M  END
>  <ScrubInfo>  (7) 
{"isomerGroup": 0, "isomerId": 6, "confId": 0, "nr_conformers:": 1, "nr_isomers:": 9}

$$$$
_i7
     RDKit          3D

 38 40  0  0  0  0  0  0  0  0999 V2000
    1.3450   -0.9739   -0.5148 N   0  0  0  0  0  0  0  0  0  0  0  0
    1.3349    0.2230   -1.1738 C   0  0  0  0  0  0  0  0  0  0  0  0
    2.3042    0.7953   -1.8025 N   0  0  0  0  0  0  0  0  0  0  0  0
    3.6023    0.1250   -1.8789 C   0  0  0  0  0  0  0  0  0  0  0  0
    4.4815    0.5103   -0.6907 C   0  0  0  0  0  0  0  0  0  0  0  0
    5.6667   -0.2868   -0.7144 O   0  0  0  0  0  0  0  0  0  0  0  0
    6.5526    0.0660    0.3401 C   0  0  0  0  0  0  0  0  0  0  0  0
    0.1270    0.8580   -1.1223 N   0  0  0  0  0  0  0  0  0  0  0  0
   -1.0537    0.4767   -0.5260 C   0  0  0  0  0  0  0  0  0  0  0  0
   -2.0621    1.3031   -0.6491 N   0  0  0  0  0  0  0  0  0  0  0  0
   -3.3165    1.0356   -0.0929 C   0  0  0  0  0  0  0  0  0  0  0  0
   -4.2968    0.3821   -0.8447 C   0  0  0  0  0  0  0  0  0  0  0  0
   -5.5683    0.1611   -0.3109 C   0  0  0  0  0  0  0  0  0  0  0  0
   -5.8710    0.6089    0.9746 C   0  0  0  0  0  0  0  0  0  0  0  0
   -4.9059    1.2827    1.7224 C   0  0  0  0  0  0  0  0  0  0  0  0
   -3.6355    1.5019    1.1853 C   0  0  0  0  0  0  0  0  0  0  0  0
   -0.9975   -0.8455    0.1820 C   0  0  0  0  0  0  0  0  0  0  0  0
   -2.0862   -1.3460    0.8163 N   0  0  0  0  0  0  0  0  0  0  0  0
   -1.9048   -2.5411    1.4148 C   0  0  0  0  0  0  0  0  0  0  0  0
   -0.6913   -3.2078    1.3846 C   0  0  0  0  0  0  0  0  0  0  0  0
    0.4009   -2.7116    0.7540 N   0  0  0  0  0  0  0  0  0  0  0  0
    0.2385   -1.5116    0.1437 C   0  0  0  0  0  0  0  0  0  0  0  0
    2.1675   -1.5546   -0.4668 H   0  0  0  0  0  0  0  0  0  0  0  0
    4.0997    0.4358   -2.8056 H   0  0  0  0  0  0  0  0  0  0  0  0
    3.5125   -0.9643   -1.9679 H   0  0  0  0  0  0  0  0  0  0  0  0
    4.7422    1.5738   -0.7484 H   0  0  0  0  0  0  0  0  0  0  0  0
    3.9509    0.3339    0.2522 H   0  0  0  0  0  0  0  0  0  0  0  0
    6.0739   -0.0913    1.3114 H   0  0  0  0  0  0  0  0  0  0  0  0
    7.4351   -0.5762    0.2774 H   0  0  0  0  0  0  0  0  0  0  0  0
    6.8710    1.1081    0.2404 H   0  0  0  0  0  0  0  0  0  0  0  0
    0.0896    1.7463   -1.6061 H   0  0  0  0  0  0  0  0  0  0  0  0
   -4.0641    0.0451   -1.8502 H   0  0  0  0  0  0  0  0  0  0  0  0
   -6.3208   -0.3542   -0.9009 H   0  0  0  0  0  0  0  0  0  0  0  0
   -6.8609    0.4404    1.3899 H   0  0  0  0  0  0  0  0  0  0  0  0
   -5.1415    1.6429    2.7197 H   0  0  0  0  0  0  0  0  0  0  0  0
   -2.8875    2.0375    1.7617 H   0  0  0  0  0  0  0  0  0  0  0  0
   -2.7687   -2.9532    1.9246 H   0  0  0  0  0  0  0  0  0  0  0  0
   -0.5627   -4.1685    1.8715 H   0  0  0  0  0  0  0  0  0  0  0  0
  1  2  1  0
  2  3  2  3
  3  4  1  0
  4  5  1  0
  5  6  1  0
  6  7  1  0
  2  8  1  0
  8  9  1  0
  9 10  2  3
 10 11  1  0
 11 12  2  0
 12 13  1  0
 13 14  2  0
 14 15  1  0
 15 16  2  0
  9 17  1  0
 17 18  2  0
 18 19  1  0
 19 20  2  0
 20 21  1  0
 21 22  2  0
 22  1  1  0
 16 11  1  0
 22 17  1  0
  1 23  1  0
  4 24  1  0
  4 25  1  0
  5 26  1  0
  5 27  1  0
  7 28  1  0
  7 29  1  0
  7 30  1  0
  8 31  1  0
 12 32  1  0
 13 33  1  0
 14 34  1  0
 15 35  1  0
 16 36  1  0
 19 37  1  0
 20 38  1  0
M  END
>  <ScrubInfo>  (8) 
{"isomerGroup": 0, "isomerId": 7, "confId": 0, "nr_conformers:": 1, "nr_isomers:": 9}

$$$$
_i8
     RDKit          3D

 38 40  0  0  0  0  0  0  0  0999 V2000
    0.7473    3.4257    1.9577 N   0  0  0  0  0  0  0  0  0  0  0  0
   -0.1971    4.1161    2.6647 C   0  0  0  0  0  0  0  0  0  0  0  0
   -1.4827    3.7306    2.6615 C   0  0  0  0  0  0  0  0  0  0  0  0
   -1.9580    2.6376    1.9677 N   0  0  0  0  0  0  0  0  0  0  0  0
   -1.0932    1.9418    1.2739 C   0  0  0  0  0  0  0  0  0  0  0  0
   -1.5197    0.7243    0.4784 C   0  0  0  0  0  0  0  0  0  0  0  0
   -2.7682    0.3711    0.4949 N   0  0  0  0  0  0  0  0  0  0  0  0
   -3.1511   -0.7547   -0.2432 C   0  0  0  0  0  0  0  0  0  0  0  0
   -3.5740   -0.6183   -1.5676 C   0  0  0  0  0  0  0  0  0  0  0  0
   -3.9414   -1.7415   -2.3106 C   0  0  0  0  0  0  0  0  0  0  0  0
   -3.8972   -3.0070   -1.7266 C   0  0  0  0  0  0  0  0  0  0  0  0
   -3.4949   -3.1485   -0.3990 C   0  0  0  0  0  0  0  0  0  0  0  0
   -3.1284   -2.0233    0.3415 C   0  0  0  0  0  0  0  0  0  0  0  0
   -0.4694    0.1457   -0.1747 N   0  0  0  0  0  0  0  0  0  0  0  0
    0.8326    0.5347   -0.1691 C   0  0  0  0  0  0  0  0  0  0  0  0
    1.6750   -0.1590   -0.8572 N   0  0  0  0  0  0  0  0  0  0  0  0
    3.0817    0.2568   -0.8355 C   0  0  0  0  0  0  0  0  0  0  0  0
    3.9226   -0.7405   -1.6451 C   0  0  0  0  0  0  0  0  0  0  0  0
    3.9435   -2.0671   -1.1078 O   0  0  0  0  0  0  0  0  0  0  0  0
    4.6389   -2.1734    0.1244 C   0  0  0  0  0  0  0  0  0  0  0  0
    1.2612    1.6306    0.5373 N   0  0  0  0  0  0  0  0  0  0  0  0
    0.3985    2.3178    1.2254 C   0  0  0  0  0  0  0  0  0  0  0  0
    1.7116    3.7290    1.9685 H   0  0  0  0  0  0  0  0  0  0  0  0
    0.1554    4.9799    3.2177 H   0  0  0  0  0  0  0  0  0  0  0  0
   -2.2249    4.2879    3.2278 H   0  0  0  0  0  0  0  0  0  0  0  0
   -3.6215    0.3693   -2.0186 H   0  0  0  0  0  0  0  0  0  0  0  0
   -4.2689   -1.6278   -3.3407 H   0  0  0  0  0  0  0  0  0  0  0  0
   -4.1873   -3.8822   -2.3028 H   0  0  0  0  0  0  0  0  0  0  0  0
   -3.4737   -4.1324    0.0621 H   0  0  0  0  0  0  0  0  0  0  0  0
   -2.8281   -2.1324    1.3801 H   0  0  0  0  0  0  0  0  0  0  0  0
   -0.6483   -0.6801   -0.7293 H   0  0  0  0  0  0  0  0  0  0  0  0
    3.4524    0.3091    0.1936 H   0  0  0  0  0  0  0  0  0  0  0  0
    3.1846    1.2462   -1.2970 H   0  0  0  0  0  0  0  0  0  0  0  0
    4.9523   -0.3767   -1.7409 H   0  0  0  0  0  0  0  0  0  0  0  0
    3.5133   -0.8197   -2.6585 H   0  0  0  0  0  0  0  0  0  0  0  0
    4.7445   -3.2350    0.3652 H   0  0  0  0  0  0  0  0  0  0  0  0
    5.6384   -1.7344    0.0497 H   0  0  0  0  0  0  0  0  0  0  0  0
    4.0744   -1.7000    0.9318 H   0  0  0  0  0  0  0  0  0  0  0  0
  1  2  1  0
  2  3  2  0
  3  4  1  0
  4  5  2  0
  5  6  1  0
  6  7  2  3
  7  8  1  0
  8  9  2  0
  9 10  1  0
 10 11  2  0
 11 12  1  0
 12 13  2  0
  6 14  1  0
 14 15  1  0
 15 16  2  3
 16 17  1  0
 17 18  1  0
 18 19  1  0
 19 20  1  0
 15 21  1  0
 21 22  2  0
 22  1  1  0
 22  5  1  0
 13  8  1  0
  1 23  1  0
  2 24  1  0
  3 25  1  0
  9 26  1  0
 10 27  1  0
 11 28  1  0
 12 29  1  0
 13 30  1  0
 14 31  1  0
 17 32  1  0
 17 33  1  0
 18 34  1  0
 18 35  1  0
 20 36  1  0
 20 37  1  0
 20 38  1  0
M  END
>  <ScrubInfo>  (9) 
{"isomerGroup": 0, "isomerId": 8, "confId": 0, "nr_conformers:": 1, "nr_isomers:": 9}

$$$$
