REMARK SMILES COCCNc1nc(Nc2ccccc2)c2nccnc2n1
REMARK SMILES IDX 4 1 3 2 2 3 1 4 5 5 6 7 7 8 22 9 8 10 21 11 16 12 20 13
REMARK SMILES IDX 17 14 19 15 18 16 9 17 10 19 11 20 15 21 12 22 14 23 13 24
REMARK H PARENT 5 6 9 18
ROOT
ATOM      1  C   UNL     1       3.777   0.315  -0.442  1.00  0.00     0.144 C 
ENDROOT
BRANCH   1   2
ATOM      2  C   UNL     1       5.039   0.277   0.427  1.00  0.00     0.181 C 
BRANCH   2   3
ATOM      3  O   UNL     1       5.013  -0.903   1.241  1.00  0.00    -0.383 OA
ATOM      4  C   UNL     1       6.150  -0.972   2.092  1.00  0.00     0.194 C 
ENDBRANCH   2   3
ENDBRANCH   1   2
BRANCH   1   5
ATOM      5  N   UNL     1       2.602   0.439   0.413  1.00  0.00    -0.352 N 
ATOM      6  H   UNL     1       2.593  -0.235   1.175  1.00  0.00     0.163 HD
BRANCH   5   7
ATOM      7  C   UNL     1       1.391   0.327  -0.249  1.00  0.00     0.226 A 
ATOM      8  N   UNL     1       0.405  -0.244   0.437  1.00  0.00    -0.193 NA
ATOM      9  N   UNL     1       1.258   0.784  -1.490  1.00  0.00    -0.191 NA
ATOM     10  C   UNL     1      -0.799  -0.337  -0.163  1.00  0.00     0.164 A 
ATOM     11  C   UNL     1       0.079   0.658  -2.085  1.00  0.00     0.185 A 
ATOM     12  C   UNL     1      -1.044   0.085  -1.472  1.00  0.00     0.150 A 
ATOM     13  N   UNL     1      -0.002   1.109  -3.343  1.00  0.00    -0.233 NA
ATOM     14  N   UNL     1      -2.237  -0.043  -2.140  1.00  0.00    -0.247 NA
ATOM     15  C   UNL     1      -1.181   0.985  -3.991  1.00  0.00     0.133 A 
ATOM     16  C   UNL     1      -2.283   0.416  -3.401  1.00  0.00     0.132 A 
BRANCH  10  17
ATOM     17  N   UNL     1      -1.784  -0.959   0.637  1.00  0.00    -0.338 N 
ATOM     18  H   UNL     1      -1.325  -1.196   1.514  1.00  0.00     0.168 HD
BRANCH  17  19
ATOM     19  C   UNL     1      -3.108  -0.537   0.896  1.00  0.00     0.040 A 
ATOM     20  C   UNL     1      -3.985  -1.452   1.497  1.00  0.00     0.026 A 
ATOM     21  C   UNL     1      -3.571   0.759   0.645  1.00  0.00     0.026 A 
ATOM     22  C   UNL     1      -5.296  -1.089   1.817  1.00  0.00     0.002 A 
ATOM     23  C   UNL     1      -4.883   1.125   0.965  1.00  0.00     0.002 A 
ATOM     24  C   UNL     1      -5.745   0.201   1.549  1.00  0.00     0.000 A 
ENDBRANCH  17  19
ENDBRANCH  10  17
ENDBRANCH   5   7
ENDBRANCH   1   5
TORSDOF 6
