REMARK SMILES Cc1c(Cl)cccc1Nc1nc(NCCCO)nc2c1cnn2C
REMARK SMILES IDX 13 1 12 3 10 4 11 5 20 6 19 7 21 8 18 9 23 10 22 11 24 12
REMARK SMILES IDX 9 13 8 15 2 16 3 17 5 18 7 19 6 20 1 21 4 22 14 23 15 24
REMARK SMILES IDX 16 25 17 26
REMARK H PARENT 13 2 9 14 17 27
ROOT
ATOM      1  N   UNL     1      -2.451   0.377  -1.496  1.00  0.00    -0.354 N 
ATOM      2  H   UNL     1      -1.931   1.029  -2.075  1.00  0.00     0.163 HD
ENDROOT
BRANCH   1   3
ATOM      3  C   UNL     1      -1.550  -0.040  -0.522  1.00  0.00     0.226 A 
ATOM      4  C   UNL     1       0.494   0.445   0.515  1.00  0.00     0.147 A 
ATOM      5  N   UNL     1      -0.460   0.742  -0.402  1.00  0.00    -0.195 NA
ATOM      6  C   UNL     1       0.287  -0.666   1.335  1.00  0.00     0.082 A 
ATOM      7  C   UNL     1      -0.865  -1.394   1.118  1.00  0.00     0.165 A 
ATOM      8  C   UNL     1       0.922  -1.324   2.409  1.00  0.00     0.149 A 
ATOM      9  N   UNL     1      -1.809  -1.138   0.200  1.00  0.00    -0.193 NA
ATOM     10  N   UNL     1      -0.845  -2.413   2.030  1.00  0.00    -0.250 N 
ATOM     11  N   UNL     1       0.247  -2.401   2.830  1.00  0.00    -0.179 NA
ATOM     12  C   UNL     1      -1.841  -3.439   2.208  1.00  0.00     0.176 C 
BRANCH   4  13
ATOM     13  N   UNL     1       1.593   1.314   0.598  1.00  0.00    -0.339 N 
ATOM     14  H   UNL     1       1.467   2.017  -0.128  1.00  0.00     0.168 HD
BRANCH  13  15
ATOM     15  C   UNL     1       2.961   0.976   0.737  1.00  0.00     0.044 A 
ATOM     16  C   UNL     1       3.865   1.917   1.280  1.00  0.00    -0.009 A 
ATOM     17  C   UNL     1       5.233   1.584   1.347  1.00  0.00     0.046 A 
ATOM     18  C   UNL     1       5.699   0.352   0.882  1.00  0.00     0.021 A 
ATOM     19  C   UNL     1       3.455  -0.246   0.248  1.00  0.00     0.026 A 
ATOM     20  C   UNL     1       4.810  -0.562   0.330  1.00  0.00     0.004 A 
ATOM     21  C   UNL     1       3.391   3.255   1.793  1.00  0.00     0.048 C 
ATOM     22  Cl  UNL     1       6.405   2.678   1.998  1.00  0.00    -0.084 Cl
ENDBRANCH  13  15
ENDBRANCH   4  13
ENDBRANCH   1   3
BRANCH   1  23
ATOM     23  C   UNL     1      -3.109  -0.702  -2.213  1.00  0.00     0.118 C 
BRANCH  23  24
ATOM     24  C   UNL     1      -4.073  -0.127  -3.248  1.00  0.00     0.049 C 
BRANCH  24  25
ATOM     25  C   UNL     1      -5.282   0.539  -2.603  1.00  0.00     0.158 C 
BRANCH  25  26
ATOM     26  O   UNL     1      -6.168   0.997  -3.619  1.00  0.00    -0.396 OA
ATOM     27  H   UNL     1      -5.726   1.731  -4.079  1.00  0.00     0.210 HD
ENDBRANCH  25  26
ENDBRANCH  24  25
ENDBRANCH  23  24
ENDBRANCH   1  23
TORSDOF 7
