_i0
     RDKit          3D

 43 45  0  0  0  0  0  0  0  0999 V2000
    3.3910    3.2546    1.7926 C   0  0  0  0  0  0  0  0  0  0  0  0
    3.8652    1.9174    1.2800 C   0  0  0  0  0  0  0  0  0  0  0  0
    5.2332    1.5836    1.3467 C   0  0  0  0  0  0  0  0  0  0  0  0
    6.4053    2.6781    1.9976 Cl  0  0  0  0  0  0  0  0  0  0  0  0
    5.6986    0.3519    0.8816 C   0  0  0  0  0  0  0  0  0  0  0  0
    4.8098   -0.5625    0.3300 C   0  0  0  0  0  0  0  0  0  0  0  0
    3.4547   -0.2463    0.2485 C   0  0  0  0  0  0  0  0  0  0  0  0
    2.9605    0.9764    0.7367 C   0  0  0  0  0  0  0  0  0  0  0  0
    1.5930    1.3138    0.5975 N   0  0  0  0  0  0  0  0  0  0  0  0
    0.4938    0.4447    0.5155 C   0  0  0  0  0  0  0  0  0  0  0  0
   -0.4604    0.7424   -0.4022 N   0  0  0  0  0  0  0  0  0  0  0  0
   -1.5497   -0.0399   -0.5216 C   0  0  0  0  0  0  0  0  0  0  0  0
   -2.4513    0.3773   -1.4964 N   0  0  0  0  0  0  0  0  0  0  0  0
   -3.1092   -0.7019   -2.2135 C   0  0  0  0  0  0  0  0  0  0  0  0
   -4.0733   -0.1272   -3.2477 C   0  0  0  0  0  0  0  0  0  0  0  0
   -5.2819    0.5388   -2.6030 C   0  0  0  0  0  0  0  0  0  0  0  0
   -6.1682    0.9968   -3.6188 O   0  0  0  0  0  0  0  0  0  0  0  0
   -1.8091   -1.1384    0.2001 N   0  0  0  0  0  0  0  0  0  0  0  0
   -0.8652   -1.3941    1.1178 C   0  0  0  0  0  0  0  0  0  0  0  0
    0.2871   -0.6662    1.3354 C   0  0  0  0  0  0  0  0  0  0  0  0
    0.9216   -1.3241    2.4088 C   0  0  0  0  0  0  0  0  0  0  0  0
    0.2473   -2.4010    2.8299 N   0  0  0  0  0  0  0  0  0  0  0  0
   -0.8449   -2.4132    2.0304 N   0  0  0  0  0  0  0  0  0  0  0  0
   -1.8415   -3.4389    2.2076 C   0  0  0  0  0  0  0  0  0  0  0  0
    3.8174    4.0614    1.1875 H   0  0  0  0  0  0  0  0  0  0  0  0
    2.3035    3.3643    1.7610 H   0  0  0  0  0  0  0  0  0  0  0  0
    3.6862    3.3867    2.8390 H   0  0  0  0  0  0  0  0  0  0  0  0
    6.7558    0.1049    0.9396 H   0  0  0  0  0  0  0  0  0  0  0  0
    5.1705   -1.5165   -0.0464 H   0  0  0  0  0  0  0  0  0  0  0  0
    2.7873   -0.9671   -0.2189 H   0  0  0  0  0  0  0  0  0  0  0  0
    1.4669    2.0169   -0.1282 H   0  0  0  0  0  0  0  0  0  0  0  0
   -1.9308    1.0291   -2.0754 H   0  0  0  0  0  0  0  0  0  0  0  0
   -3.6653   -1.3567   -1.5312 H   0  0  0  0  0  0  0  0  0  0  0  0
   -2.3597   -1.3126   -2.7323 H   0  0  0  0  0  0  0  0  0  0  0  0
   -3.5607    0.5903   -3.9009 H   0  0  0  0  0  0  0  0  0  0  0  0
   -4.4228   -0.9335   -3.9047 H   0  0  0  0  0  0  0  0  0  0  0  0
   -5.8303   -0.1726   -1.9777 H   0  0  0  0  0  0  0  0  0  0  0  0
   -4.9970    1.3936   -1.9817 H   0  0  0  0  0  0  0  0  0  0  0  0
   -5.7263    1.7308   -4.0790 H   0  0  0  0  0  0  0  0  0  0  0  0
    1.8508   -1.0629    2.8994 H   0  0  0  0  0  0  0  0  0  0  0  0
   -2.2497   -3.3503    3.2175 H   0  0  0  0  0  0  0  0  0  0  0  0
   -1.3617   -4.4116    2.0731 H   0  0  0  0  0  0  0  0  0  0  0  0
   -2.6403   -3.3162    1.4727 H   0  0  0  0  0  0  0  0  0  0  0  0
  1  2  1  0
  2  3  2  0
  3  4  1  0
  3  5  1  0
  5  6  2  0
  6  7  1  0
  7  8  2  0
  8  9  1  0
  9 10  1  0
 10 11  2  0
 11 12  1  0
 12 13  1  0
 13 14  1  0
 14 15  1  0
 15 16  1  0
 16 17  1  0
 12 18  2  0
 18 19  1  0
 19 20  2  0
 20 21  1  0
 21 22  2  0
 22 23  1  0
 23 24  1  0
  8  2  1  0
 20 10  1  0
 23 19  1  0
  1 25  1  0
  1 26  1  0
  1 27  1  0
  5 28  1  0
  6 29  1  0
  7 30  1  0
  9 31  1  0
 13 32  1  0
 14 33  1  0
 14 34  1  0
 15 35  1  0
 15 36  1  0
 16 37  1  0
 16 38  1  0
 17 39  1  0
 21 40  1  0
 24 41  1  0
 24 42  1  0
 24 43  1  0
M  END
>  <ScrubInfo>  (1) 
{"isomerGroup": 0, "isomerId": 0, "confId": 0, "nr_conformers:": 1, "nr_isomers:": 9}

$$$$
_i1
     RDKit          3D

 43 45  0  0  0  0  0  0  0  0999 V2000
   -0.8162    0.2804   -0.9186 N   0  0  0  0  0  0  0  0  0  0  0  0
   -1.6140   -0.8302   -1.0225 C   0  0  0  0  0  0  0  0  0  0  0  0
   -2.8376   -0.6462   -1.6005 N   0  0  0  0  0  0  0  0  0  0  0  0
   -3.7423    0.4456   -1.2566 C   0  0  0  0  0  0  0  0  0  0  0  0
   -4.2787    0.2780    0.1648 C   0  0  0  0  0  0  0  0  0  0  0  0
   -5.1778    1.4360    0.5724 C   0  0  0  0  0  0  0  0  0  0  0  0
   -6.2832    1.5223   -0.3137 O   0  0  0  0  0  0  0  0  0  0  0  0
   -1.2644   -2.0236   -0.6137 N   0  0  0  0  0  0  0  0  0  0  0  0
   -0.0202   -2.0169   -0.0562 C   0  0  0  0  0  0  0  0  0  0  0  0
    0.8555   -0.9511    0.0907 C   0  0  0  0  0  0  0  0  0  0  0  0
    1.9752   -1.5085    0.7324 C   0  0  0  0  0  0  0  0  0  0  0  0
    1.8337   -2.8167    0.9808 N   0  0  0  0  0  0  0  0  0  0  0  0
    0.6106   -3.1038    0.4805 N   0  0  0  0  0  0  0  0  0  0  0  0
    0.1131   -4.4539    0.5631 C   0  0  0  0  0  0  0  0  0  0  0  0
    0.4574    0.3522   -0.4046 C   0  0  0  0  0  0  0  0  0  0  0  0
    1.1330    1.4614   -0.4165 N   0  0  0  0  0  0  0  0  0  0  0  0
    2.4340    1.5466    0.0915 C   0  0  0  0  0  0  0  0  0  0  0  0
    2.5965    1.9215    1.4332 C   0  0  0  0  0  0  0  0  0  0  0  0
    3.8654    2.0416    1.9938 C   0  0  0  0  0  0  0  0  0  0  0  0
    4.9872    1.7971    1.2086 C   0  0  0  0  0  0  0  0  0  0  0  0
    4.8396    1.4486   -0.1377 C   0  0  0  0  0  0  0  0  0  0  0  0
    6.2842    1.1539   -1.0429 Cl  0  0  0  0  0  0  0  0  0  0  0  0
    3.5648    1.3374   -0.7234 C   0  0  0  0  0  0  0  0  0  0  0  0
    3.4131    0.9636   -2.1740 C   0  0  0  0  0  0  0  0  0  0  0  0
   -1.1077    1.1069   -1.4129 H   0  0  0  0  0  0  0  0  0  0  0  0
   -3.3303   -1.5371   -1.6316 H   0  0  0  0  0  0  0  0  0  0  0  0
   -3.2412    1.4129   -1.3700 H   0  0  0  0  0  0  0  0  0  0  0  0
   -4.5693    0.4348   -1.9753 H   0  0  0  0  0  0  0  0  0  0  0  0
   -4.8442   -0.6607    0.2199 H   0  0  0  0  0  0  0  0  0  0  0  0
   -3.4518    0.1997    0.8802 H   0  0  0  0  0  0  0  0  0  0  0  0
   -5.5561    1.2775    1.5873 H   0  0  0  0  0  0  0  0  0  0  0  0
   -4.6316    2.3843    0.5455 H   0  0  0  0  0  0  0  0  0  0  0  0
   -6.8759    2.2134    0.0318 H   0  0  0  0  0  0  0  0  0  0  0  0
    2.8971   -1.0359    1.0402 H   0  0  0  0  0  0  0  0  0  0  0  0
   -0.0111   -4.7088    1.6186 H   0  0  0  0  0  0  0  0  0  0  0  0
   -0.8452   -4.5349    0.0458 H   0  0  0  0  0  0  0  0  0  0  0  0
    0.8418   -5.1194    0.0930 H   0  0  0  0  0  0  0  0  0  0  0  0
    1.7183    2.1164    2.0443 H   0  0  0  0  0  0  0  0  0  0  0  0
    3.9774    2.3231    3.0374 H   0  0  0  0  0  0  0  0  0  0  0  0
    5.9781    1.8834    1.6482 H   0  0  0  0  0  0  0  0  0  0  0  0
    4.0630    1.5807   -2.8031 H   0  0  0  0  0  0  0  0  0  0  0  0
    2.3959    1.1210   -2.5445 H   0  0  0  0  0  0  0  0  0  0  0  0
    3.6638   -0.0924   -2.3163 H   0  0  0  0  0  0  0  0  0  0  0  0
  1  2  1  0
  2  3  1  0
  3  4  1  0
  4  5  1  0
  5  6  1  0
  6  7  1  0
  2  8  2  0
  8  9  1  0
  9 10  2  0
 10 11  1  0
 11 12  2  0
 12 13  1  0
 13 14  1  0
 10 15  1  0
 15 16  2  3
 16 17  1  0
 17 18  2  0
 18 19  1  0
 19 20  2  0
 20 21  1  0
 21 22  1  0
 21 23  2  0
 23 24  1  0
 15  1  1  0
 23 17  1  0
 13  9  1  0
  1 25  1  0
  3 26  1  0
  4 27  1  0
  4 28  1  0
  5 29  1  0
  5 30  1  0
  6 31  1  0
  6 32  1  0
  7 33  1  0
 11 34  1  0
 14 35  1  0
 14 36  1  0
 14 37  1  0
 18 38  1  0
 19 39  1  0
 20 40  1  0
 24 41  1  0
 24 42  1  0
 24 43  1  0
M  END
>  <ScrubInfo>  (2) 
{"isomerGroup": 0, "isomerId": 1, "confId": 0, "nr_conformers:": 1, "nr_isomers:": 9}

$$$$
_i2
     RDKit          3D

 43 45  0  0  0  0  0  0  0  0999 V2000
    0.9090   -0.5970    0.6133 N   0  0  0  0  0  0  0  0  0  0  0  0
   -0.4183   -0.2925    0.8715 C   0  0  0  0  0  0  0  0  0  0  0  0
   -1.3158   -1.3218    1.1334 N   0  0  0  0  0  0  0  0  0  0  0  0
   -2.7009   -1.2728    0.8339 C   0  0  0  0  0  0  0  0  0  0  0  0
   -3.5865   -1.4144    1.9156 C   0  0  0  0  0  0  0  0  0  0  0  0
   -4.9645   -1.3922    1.7221 C   0  0  0  0  0  0  0  0  0  0  0  0
   -5.4734   -1.2413    0.4375 C   0  0  0  0  0  0  0  0  0  0  0  0
   -4.6060   -1.1391   -0.6545 C   0  0  0  0  0  0  0  0  0  0  0  0
   -5.3297   -0.9432   -2.2141 Cl  0  0  0  0  0  0  0  0  0  0  0  0
   -3.2074   -1.1894   -0.4828 C   0  0  0  0  0  0  0  0  0  0  0  0
   -2.2884   -1.1045   -1.6747 C   0  0  0  0  0  0  0  0  0  0  0  0
   -0.7200    1.0143    0.8572 C   0  0  0  0  0  0  0  0  0  0  0  0
   -1.8912    1.8836    1.0431 C   0  0  0  0  0  0  0  0  0  0  0  0
   -1.6249    3.1547    0.8724 N   0  0  0  0  0  0  0  0  0  0  0  0
   -0.2495    3.2139    0.6145 N   0  0  0  0  0  0  0  0  0  0  0  0
    0.3204    4.4380    0.1068 C   0  0  0  0  0  0  0  0  0  0  0  0
    0.3640    1.9747    0.5495 C   0  0  0  0  0  0  0  0  0  0  0  0
    1.5865    1.6688    0.2816 N   0  0  0  0  0  0  0  0  0  0  0  0
    1.8870    0.3295    0.3297 C   0  0  0  0  0  0  0  0  0  0  0  0
    3.1259    0.0866    0.0878 N   0  0  0  0  0  0  0  0  0  0  0  0
    3.6053   -1.2895    0.0915 C   0  0  0  0  0  0  0  0  0  0  0  0
    5.1129   -1.2955   -0.1746 C   0  0  0  0  0  0  0  0  0  0  0  0
    5.4754   -0.6845   -1.5259 C   0  0  0  0  0  0  0  0  0  0  0  0
    5.2721    0.7221   -1.5278 O   0  0  0  0  0  0  0  0  0  0  0  0
    1.1835   -1.5587    0.7153 H   0  0  0  0  0  0  0  0  0  0  0  0
   -0.9442   -2.2267    0.8545 H   0  0  0  0  0  0  0  0  0  0  0  0
   -3.1936   -1.5217    2.9252 H   0  0  0  0  0  0  0  0  0  0  0  0
   -5.6378   -1.4837    2.5706 H   0  0  0  0  0  0  0  0  0  0  0  0
   -6.5504   -1.2083    0.2891 H   0  0  0  0  0  0  0  0  0  0  0  0
   -1.3172   -1.5673   -1.4764 H   0  0  0  0  0  0  0  0  0  0  0  0
   -2.6932   -1.6497   -2.5332 H   0  0  0  0  0  0  0  0  0  0  0  0
   -2.1319   -0.0583   -1.9550 H   0  0  0  0  0  0  0  0  0  0  0  0
   -2.8794    1.4761    1.2841 H   0  0  0  0  0  0  0  0  0  0  0  0
    1.3811    4.5127    0.3670 H   0  0  0  0  0  0  0  0  0  0  0  0
    0.2250    4.4788   -0.9826 H   0  0  0  0  0  0  0  0  0  0  0  0
   -0.1890    5.3090    0.5318 H   0  0  0  0  0  0  0  0  0  0  0  0
    3.0957   -1.8778   -0.6808 H   0  0  0  0  0  0  0  0  0  0  0  0
    3.4231   -1.7587    1.0655 H   0  0  0  0  0  0  0  0  0  0  0  0
    5.6195   -0.7386    0.6230 H   0  0  0  0  0  0  0  0  0  0  0  0
    5.4698   -2.3310   -0.1414 H   0  0  0  0  0  0  0  0  0  0  0  0
    6.5320   -0.8642   -1.7466 H   0  0  0  0  0  0  0  0  0  0  0  0
    4.8810   -1.1246   -2.3329 H   0  0  0  0  0  0  0  0  0  0  0  0
    4.4436    0.8844   -1.0221 H   0  0  0  0  0  0  0  0  0  0  0  0
  1  2  1  0
  2  3  1  0
  3  4  1  0
  4  5  2  0
  5  6  1  0
  6  7  2  0
  7  8  1  0
  8  9  1  0
  8 10  2  0
 10 11  1  0
  2 12  2  0
 12 13  1  0
 13 14  2  0
 14 15  1  0
 15 16  1  0
 15 17  1  0
 17 18  2  0
 18 19  1  0
 19 20  2  3
 20 21  1  0
 21 22  1  0
 22 23  1  0
 23 24  1  0
 19  1  1  0
 10  4  1  0
 17 12  1  0
  1 25  1  0
  3 26  1  0
  5 27  1  0
  6 28  1  0
  7 29  1  0
 11 30  1  0
 11 31  1  0
 11 32  1  0
 13 33  1  0
 16 34  1  0
 16 35  1  0
 16 36  1  0
 21 37  1  0
 21 38  1  0
 22 39  1  0
 22 40  1  0
 23 41  1  0
 23 42  1  0
 24 43  1  0
M  END
>  <ScrubInfo>  (3) 
{"isomerGroup": 0, "isomerId": 2, "confId": 0, "nr_conformers:": 1, "nr_isomers:": 9}

$$$$
_i3
     RDKit          3D

 43 45  0  0  0  0  0  0  0  0999 V2000
   -1.6528   -0.1664    0.9813 N   0  0  0  0  0  0  0  0  0  0  0  0
   -1.6269    0.8253    0.0128 C   0  0  0  0  0  0  0  0  0  0  0  0
   -2.6365    1.3049   -0.6188 N   0  0  0  0  0  0  0  0  0  0  0  0
   -3.9960    0.8482   -0.3549 C   0  0  0  0  0  0  0  0  0  0  0  0
   -4.3397   -0.3071   -1.2932 C   0  0  0  0  0  0  0  0  0  0  0  0
   -5.7013   -0.9180   -0.9901 C   0  0  0  0  0  0  0  0  0  0  0  0
   -6.7195    0.0646   -1.0885 O   0  0  0  0  0  0  0  0  0  0  0  0
   -0.4298    1.4079   -0.3818 N   0  0  0  0  0  0  0  0  0  0  0  0
    0.6906    1.0134    0.1514 C   0  0  0  0  0  0  0  0  0  0  0  0
    1.9049    1.5609   -0.1799 N   0  0  0  0  0  0  0  0  0  0  0  0
    2.9893    0.8080   -0.7174 C   0  0  0  0  0  0  0  0  0  0  0  0
    2.7558   -0.3747   -1.4427 C   0  0  0  0  0  0  0  0  0  0  0  0
    3.8061   -1.0794   -2.0278 C   0  0  0  0  0  0  0  0  0  0  0  0
    5.1053   -0.5985   -1.9171 C   0  0  0  0  0  0  0  0  0  0  0  0
    5.3540    0.5902   -1.2273 C   0  0  0  0  0  0  0  0  0  0  0  0
    6.9950    1.1347   -1.1535 Cl  0  0  0  0  0  0  0  0  0  0  0  0
    4.3063    1.3144   -0.6237 C   0  0  0  0  0  0  0  0  0  0  0  0
    4.6036    2.5960    0.1140 C   0  0  0  0  0  0  0  0  0  0  0  0
    0.7020    0.0009    1.1798 C   0  0  0  0  0  0  0  0  0  0  0  0
    1.6423   -0.6360    2.0028 C   0  0  0  0  0  0  0  0  0  0  0  0
    1.0747   -1.5380    2.8197 N   0  0  0  0  0  0  0  0  0  0  0  0
   -0.2456   -1.4610    2.5216 N   0  0  0  0  0  0  0  0  0  0  0  0
   -1.1736   -2.2984    3.2377 C   0  0  0  0  0  0  0  0  0  0  0  0
   -0.4946   -0.5486    1.5463 C   0  0  0  0  0  0  0  0  0  0  0  0
   -2.5505   -0.5492    1.2314 H   0  0  0  0  0  0  0  0  0  0  0  0
   -4.6735    1.6896   -0.5414 H   0  0  0  0  0  0  0  0  0  0  0  0
   -4.1500    0.5726    0.6940 H   0  0  0  0  0  0  0  0  0  0  0  0
   -3.5755   -1.0904   -1.2283 H   0  0  0  0  0  0  0  0  0  0  0  0
   -4.3291    0.0669   -2.3246 H   0  0  0  0  0  0  0  0  0  0  0  0
   -5.9182   -1.7175   -1.7059 H   0  0  0  0  0  0  0  0  0  0  0  0
   -5.7209   -1.3399    0.0199 H   0  0  0  0  0  0  0  0  0  0  0  0
   -7.5742   -0.3914   -1.0016 H   0  0  0  0  0  0  0  0  0  0  0  0
    1.7340    2.3365   -0.8197 H   0  0  0  0  0  0  0  0  0  0  0  0
    1.7452   -0.7584   -1.5711 H   0  0  0  0  0  0  0  0  0  0  0  0
    3.6077   -1.9963   -2.5773 H   0  0  0  0  0  0  0  0  0  0  0  0
    5.9219   -1.1486   -2.3785 H   0  0  0  0  0  0  0  0  0  0  0  0
    5.3330    2.4149    0.9107 H   0  0  0  0  0  0  0  0  0  0  0  0
    3.7208    3.0290    0.5925 H   0  0  0  0  0  0  0  0  0  0  0  0
    4.9977    3.3462   -0.5794 H   0  0  0  0  0  0  0  0  0  0  0  0
    2.7139   -0.4898    2.0486 H   0  0  0  0  0  0  0  0  0  0  0  0
   -0.8752   -3.3408    3.1001 H   0  0  0  0  0  0  0  0  0  0  0  0
   -2.1841   -2.1503    2.8514 H   0  0  0  0  0  0  0  0  0  0  0  0
   -1.1367   -2.0262    4.2955 H   0  0  0  0  0  0  0  0  0  0  0  0
  1  2  1  0
  2  3  2  3
  3  4  1  0
  4  5  1  0
  5  6  1  0
  6  7  1  0
  2  8  1  0
  8  9  2  0
  9 10  1  0
 10 11  1  0
 11 12  2  0
 12 13  1  0
 13 14  2  0
 14 15  1  0
 15 16  1  0
 15 17  2  0
 17 18  1  0
  9 19  1  0
 19 20  1  0
 20 21  2  0
 21 22  1  0
 22 23  1  0
 22 24  1  0
 24  1  1  0
 17 11  1  0
 24 19  2  0
  1 25  1  0
  4 26  1  0
  4 27  1  0
  5 28  1  0
  5 29  1  0
  6 30  1  0
  6 31  1  0
  7 32  1  0
 10 33  1  0
 12 34  1  0
 13 35  1  0
 14 36  1  0
 18 37  1  0
 18 38  1  0
 18 39  1  0
 20 40  1  0
 23 41  1  0
 23 42  1  0
 23 43  1  0
M  END
>  <ScrubInfo>  (4) 
{"isomerGroup": 0, "isomerId": 3, "confId": 0, "nr_conformers:": 1, "nr_isomers:": 9}

$$$$
_i4
     RDKit          3D

 43 45  0  0  0  0  0  0  0  0999 V2000
    0.7689   -1.7031    1.1759 N   0  0  0  0  0  0  0  0  0  0  0  0
    0.7495   -0.7540    0.1795 C   0  0  0  0  0  0  0  0  0  0  0  0
    1.9739   -0.2593   -0.1726 N   0  0  0  0  0  0  0  0  0  0  0  0
    2.8439    0.3801    0.8112 C   0  0  0  0  0  0  0  0  0  0  0  0
    4.2725    0.4878    0.2745 C   0  0  0  0  0  0  0  0  0  0  0  0
    4.4242    1.5000   -0.8528 C   0  0  0  0  0  0  0  0  0  0  0  0
    4.0944    2.8030   -0.3945 O   0  0  0  0  0  0  0  0  0  0  0  0
   -0.3126   -0.3307   -0.4491 N   0  0  0  0  0  0  0  0  0  0  0  0
   -1.5545   -0.8433   -0.0958 C   0  0  0  0  0  0  0  0  0  0  0  0
   -2.6768   -0.4661   -0.6209 N   0  0  0  0  0  0  0  0  0  0  0  0
   -2.6404    0.5279   -1.6132 C   0  0  0  0  0  0  0  0  0  0  0  0
   -2.5611    0.1225   -2.9535 C   0  0  0  0  0  0  0  0  0  0  0  0
   -2.5289    1.0576   -3.9847 C   0  0  0  0  0  0  0  0  0  0  0  0
   -2.5801    2.4138   -3.6805 C   0  0  0  0  0  0  0  0  0  0  0  0
   -2.6772    2.8312   -2.3490 C   0  0  0  0  0  0  0  0  0  0  0  0
   -2.7206    4.5366   -2.0559 Cl  0  0  0  0  0  0  0  0  0  0  0  0
   -2.7315    1.8985   -1.2971 C   0  0  0  0  0  0  0  0  0  0  0  0
   -2.8333    2.3513    0.1346 C   0  0  0  0  0  0  0  0  0  0  0  0
   -1.5787   -1.8616    0.9228 C   0  0  0  0  0  0  0  0  0  0  0  0
   -2.5611   -2.6510    1.5345 C   0  0  0  0  0  0  0  0  0  0  0  0
   -2.0425   -3.4929    2.4445 N   0  0  0  0  0  0  0  0  0  0  0  0
   -0.7118   -3.2300    2.4077 N   0  0  0  0  0  0  0  0  0  0  0  0
    0.1711   -3.9632    3.2778 C   0  0  0  0  0  0  0  0  0  0  0  0
   -0.4096   -2.2536    1.5133 C   0  0  0  0  0  0  0  0  0  0  0  0
    1.6688   -2.0861    1.4300 H   0  0  0  0  0  0  0  0  0  0  0  0
    1.8156    0.3823   -0.9511 H   0  0  0  0  0  0  0  0  0  0  0  0
    2.8754   -0.2146    1.7311 H   0  0  0  0  0  0  0  0  0  0  0  0
    2.4430    1.3646    1.0769 H   0  0  0  0  0  0  0  0  0  0  0  0
    4.9207    0.7916    1.1056 H   0  0  0  0  0  0  0  0  0  0  0  0
    4.6166   -0.4942   -0.0710 H   0  0  0  0  0  0  0  0  0  0  0  0
    5.4550    1.5133   -1.2221 H   0  0  0  0  0  0  0  0  0  0  0  0
    3.7732    1.2588   -1.6981 H   0  0  0  0  0  0  0  0  0  0  0  0
    4.8414    3.1286    0.1374 H   0  0  0  0  0  0  0  0  0  0  0  0
   -2.5162   -0.9385   -3.1861 H   0  0  0  0  0  0  0  0  0  0  0  0
   -2.4590    0.7284   -5.0175 H   0  0  0  0  0  0  0  0  0  0  0  0
   -2.5446    3.1448   -4.4842 H   0  0  0  0  0  0  0  0  0  0  0  0
   -3.6063    3.1186    0.2468 H   0  0  0  0  0  0  0  0  0  0  0  0
   -1.8713    2.7525    0.4692 H   0  0  0  0  0  0  0  0  0  0  0  0
   -3.1165    1.5397    0.8114 H   0  0  0  0  0  0  0  0  0  0  0  0
   -3.6288   -2.6551    1.3553 H   0  0  0  0  0  0  0  0  0  0  0  0
    1.1913   -3.5874    3.1755 H   0  0  0  0  0  0  0  0  0  0  0  0
    0.1332   -5.0183    2.9956 H   0  0  0  0  0  0  0  0  0  0  0  0
   -0.1691   -3.8303    4.3080 H   0  0  0  0  0  0  0  0  0  0  0  0
  1  2  1  0
  2  3  1  0
  3  4  1  0
  4  5  1  0
  5  6  1  0
  6  7  1  0
  2  8  2  0
  8  9  1  0
  9 10  2  3
 10 11  1  0
 11 12  2  0
 12 13  1  0
 13 14  2  0
 14 15  1  0
 15 16  1  0
 15 17  2  0
 17 18  1  0
  9 19  1  0
 19 20  1  0
 20 21  2  0
 21 22  1  0
 22 23  1  0
 22 24  1  0
 24  1  1  0
 17 11  1  0
 24 19  2  0
  1 25  1  0
  3 26  1  0
  4 27  1  0
  4 28  1  0
  5 29  1  0
  5 30  1  0
  6 31  1  0
  6 32  1  0
  7 33  1  0
 12 34  1  0
 13 35  1  0
 14 36  1  0
 18 37  1  0
 18 38  1  0
 18 39  1  0
 20 40  1  0
 23 41  1  0
 23 42  1  0
 23 43  1  0
M  END
>  <ScrubInfo>  (5) 
{"isomerGroup": 0, "isomerId": 4, "confId": 0, "nr_conformers:": 1, "nr_isomers:": 9}

$$$$
_i5
     RDKit          3D

 43 45  0  0  0  0  0  0  0  0999 V2000
   -1.3803   -1.5785   -2.5464 N   0  0  0  0  0  0  0  0  0  0  0  0
   -1.7575   -1.1326   -1.2837 C   0  0  0  0  0  0  0  0  0  0  0  0
   -0.7197   -0.9026   -0.4644 C   0  0  0  0  0  0  0  0  0  0  0  0
   -0.4638   -0.4206    0.8867 C   0  0  0  0  0  0  0  0  0  0  0  0
   -1.2821   -0.0793    1.8269 N   0  0  0  0  0  0  0  0  0  0  0  0
   -2.6664   -0.1538    1.6382 C   0  0  0  0  0  0  0  0  0  0  0  0
   -3.3185   -1.3459    1.9851 C   0  0  0  0  0  0  0  0  0  0  0  0
   -4.6949   -1.4814    1.8252 C   0  0  0  0  0  0  0  0  0  0  0  0
   -5.4336   -0.4159    1.3212 C   0  0  0  0  0  0  0  0  0  0  0  0
   -4.7988    0.7874    0.9960 C   0  0  0  0  0  0  0  0  0  0  0  0
   -5.7865    2.0577    0.3606 Cl  0  0  0  0  0  0  0  0  0  0  0  0
   -3.4118    0.9464    1.1694 C   0  0  0  0  0  0  0  0  0  0  0  0
   -2.7328    2.2464    0.8286 C   0  0  0  0  0  0  0  0  0  0  0  0
    0.8655   -0.3077    1.1923 N   0  0  0  0  0  0  0  0  0  0  0  0
    1.8213   -0.6403    0.3754 C   0  0  0  0  0  0  0  0  0  0  0  0
    3.0962   -0.4669    0.8329 N   0  0  0  0  0  0  0  0  0  0  0  0
    4.2353   -0.2501   -0.0343 C   0  0  0  0  0  0  0  0  0  0  0  0
    4.3929    1.2324   -0.3753 C   0  0  0  0  0  0  0  0  0  0  0  0
    4.9286    2.0552    0.7933 C   0  0  0  0  0  0  0  0  0  0  0  0
    4.0602    1.9579    1.9135 O   0  0  0  0  0  0  0  0  0  0  0  0
    1.6420   -1.1448   -0.8859 N   0  0  0  0  0  0  0  0  0  0  0  0
    0.4324   -1.2932   -1.2976 C   0  0  0  0  0  0  0  0  0  0  0  0
   -0.0109   -1.7963   -2.5220 N   0  0  0  0  0  0  0  0  0  0  0  0
    0.7588   -1.5951   -3.7339 C   0  0  0  0  0  0  0  0  0  0  0  0
   -1.9533   -2.3534   -2.8886 H   0  0  0  0  0  0  0  0  0  0  0  0
   -2.8111   -1.0147   -1.0797 H   0  0  0  0  0  0  0  0  0  0  0  0
   -2.7371   -2.1723    2.3887 H   0  0  0  0  0  0  0  0  0  0  0  0
   -5.1869   -2.4114    2.0970 H   0  0  0  0  0  0  0  0  0  0  0  0
   -6.5079   -0.5226    1.1918 H   0  0  0  0  0  0  0  0  0  0  0  0
   -3.2720    3.0920    1.2682 H   0  0  0  0  0  0  0  0  0  0  0  0
   -2.6856    2.3698   -0.2580 H   0  0  0  0  0  0  0  0  0  0  0  0
   -1.7125    2.3029    1.2194 H   0  0  0  0  0  0  0  0  0  0  0  0
    3.1033    0.1452    1.6510 H   0  0  0  0  0  0  0  0  0  0  0  0
    4.1433   -0.8351   -0.9562 H   0  0  0  0  0  0  0  0  0  0  0  0
    5.1371   -0.6138    0.4712 H   0  0  0  0  0  0  0  0  0  0  0  0
    3.4267    1.6404   -0.6963 H   0  0  0  0  0  0  0  0  0  0  0  0
    5.0888    1.3330   -1.2161 H   0  0  0  0  0  0  0  0  0  0  0  0
    5.9214    1.7043    1.0926 H   0  0  0  0  0  0  0  0  0  0  0  0
    5.0042    3.1079    0.5023 H   0  0  0  0  0  0  0  0  0  0  0  0
    4.3777    2.5898    2.5827 H   0  0  0  0  0  0  0  0  0  0  0  0
    0.8088   -0.5320   -3.9915 H   0  0  0  0  0  0  0  0  0  0  0  0
    0.3011   -2.1343   -4.5697 H   0  0  0  0  0  0  0  0  0  0  0  0
    1.7784   -1.9742   -3.6106 H   0  0  0  0  0  0  0  0  0  0  0  0
  1  2  1  0
  2  3  2  0
  3  4  1  0
  4  5  2  3
  5  6  1  0
  6  7  2  0
  7  8  1  0
  8  9  2  0
  9 10  1  0
 10 11  1  0
 10 12  2  0
 12 13  1  0
  4 14  1  0
 14 15  2  0
 15 16  1  0
 16 17  1  0
 17 18  1  0
 18 19  1  0
 19 20  1  0
 15 21  1  0
 21 22  2  0
 22 23  1  0
 23 24  1  0
 23  1  1  0
 22  3  1  0
 12  6  1  0
  1 25  1  0
  2 26  1  0
  7 27  1  0
  8 28  1  0
  9 29  1  0
 13 30  1  0
 13 31  1  0
 13 32  1  0
 16 33  1  0
 17 34  1  0
 17 35  1  0
 18 36  1  0
 18 37  1  0
 19 38  1  0
 19 39  1  0
 20 40  1  0
 24 41  1  0
 24 42  1  0
 24 43  1  0
M  END
>  <ScrubInfo>  (6) 
{"isomerGroup": 0, "isomerId": 5, "confId": 0, "nr_conformers:": 1, "nr_isomers:": 9}

$$$$
_i6
     RDKit          3D

 43 45  0  0  0  0  0  0  0  0999 V2000
   -0.6448   -1.3834    4.0616 N   0  0  0  0  0  0  0  0  0  0  0  0
   -1.3891   -0.7476    3.0739 C   0  0  0  0  0  0  0  0  0  0  0  0
   -0.7261   -0.6290    1.9149 C   0  0  0  0  0  0  0  0  0  0  0  0
   -0.9412   -0.0571    0.5818 C   0  0  0  0  0  0  0  0  0  0  0  0
   -2.1494    0.5545    0.2965 N   0  0  0  0  0  0  0  0  0  0  0  0
   -2.6676    0.9950   -0.9450 C   0  0  0  0  0  0  0  0  0  0  0  0
   -2.1188    0.5740   -2.1678 C   0  0  0  0  0  0  0  0  0  0  0  0
   -2.6319    1.0064   -3.3909 C   0  0  0  0  0  0  0  0  0  0  0  0
   -3.7119    1.8764   -3.4172 C   0  0  0  0  0  0  0  0  0  0  0  0
   -4.2641    2.3334   -2.2203 C   0  0  0  0  0  0  0  0  0  0  0  0
   -5.6263    3.3949   -2.3479 Cl  0  0  0  0  0  0  0  0  0  0  0  0
   -3.7359    1.9335   -0.9729 C   0  0  0  0  0  0  0  0  0  0  0  0
   -4.3271    2.4655    0.3105 C   0  0  0  0  0  0  0  0  0  0  0  0
    0.0494   -0.1406   -0.2585 N   0  0  0  0  0  0  0  0  0  0  0  0
    1.2257   -0.7497    0.1110 C   0  0  0  0  0  0  0  0  0  0  0  0
    2.1278   -0.7281   -0.8065 N   0  0  0  0  0  0  0  0  0  0  0  0
    3.4136   -1.3530   -0.5099 C   0  0  0  0  0  0  0  0  0  0  0  0
    4.3268   -1.1957   -1.7216 C   0  0  0  0  0  0  0  0  0  0  0  0
    4.7067    0.2570   -1.9761 C   0  0  0  0  0  0  0  0  0  0  0  0
    5.5966    0.3294   -3.0871 O   0  0  0  0  0  0  0  0  0  0  0  0
    1.4982   -1.3548    1.3161 N   0  0  0  0  0  0  0  0  0  0  0  0
    0.5550   -1.3146    2.1904 C   0  0  0  0  0  0  0  0  0  0  0  0
    0.5296   -1.8470    3.4795 N   0  0  0  0  0  0  0  0  0  0  0  0
    1.7368   -1.9218    4.2808 C   0  0  0  0  0  0  0  0  0  0  0  0
   -1.1768   -2.0684    4.6042 H   0  0  0  0  0  0  0  0  0  0  0  0
   -2.3893   -0.4175    3.3124 H   0  0  0  0  0  0  0  0  0  0  0  0
   -2.8217    0.6012    1.0486 H   0  0  0  0  0  0  0  0  0  0  0  0
   -1.2876   -0.1263   -2.1978 H   0  0  0  0  0  0  0  0  0  0  0  0
   -2.1884    0.6526   -4.3182 H   0  0  0  0  0  0  0  0  0  0  0  0
   -4.1176    2.1980   -4.3729 H   0  0  0  0  0  0  0  0  0  0  0  0
   -3.5585    2.5958    1.0795 H   0  0  0  0  0  0  0  0  0  0  0  0
   -5.0930    1.7774    0.6812 H   0  0  0  0  0  0  0  0  0  0  0  0
   -4.7713    3.4572    0.1873 H   0  0  0  0  0  0  0  0  0  0  0  0
    3.8870   -0.8934    0.3663 H   0  0  0  0  0  0  0  0  0  0  0  0
    3.2800   -2.4242   -0.3158 H   0  0  0  0  0  0  0  0  0  0  0  0
    3.8485   -1.6118   -2.6173 H   0  0  0  0  0  0  0  0  0  0  0  0
    5.2410   -1.7824   -1.5686 H   0  0  0  0  0  0  0  0  0  0  0  0
    5.2202    0.6829   -1.1085 H   0  0  0  0  0  0  0  0  0  0  0  0
    3.8322    0.8772   -2.1964 H   0  0  0  0  0  0  0  0  0  0  0  0
    5.0960    0.0237   -3.8632 H   0  0  0  0  0  0  0  0  0  0  0  0
    2.1078   -0.9195    4.5193 H   0  0  0  0  0  0  0  0  0  0  0  0
    1.5392   -2.4520    5.2180 H   0  0  0  0  0  0  0  0  0  0  0  0
    2.5207   -2.4681    3.7465 H   0  0  0  0  0  0  0  0  0  0  0  0
  1  2  1  0
  2  3  2  0
  3  4  1  0
  4  5  1  0
  5  6  1  0
  6  7  2  0
  7  8  1  0
  8  9  2  0
  9 10  1  0
 10 11  1  0
 10 12  2  0
 12 13  1  0
  4 14  2  0
 14 15  1  0
 15 16  2  3
 16 17  1  0
 17 18  1  0
 18 19  1  0
 19 20  1  0
 15 21  1  0
 21 22  2  0
 22 23  1  0
 23 24  1  0
 23  1  1  0
 22  3  1  0
 12  6  1  0
  1 25  1  0
  2 26  1  0
  5 27  1  0
  7 28  1  0
  8 29  1  0
  9 30  1  0
 13 31  1  0
 13 32  1  0
 13 33  1  0
 17 34  1  0
 17 35  1  0
 18 36  1  0
 18 37  1  0
 19 38  1  0
 19 39  1  0
 20 40  1  0
 24 41  1  0
 24 42  1  0
 24 43  1  0
M  END
>  <ScrubInfo>  (7) 
{"isomerGroup": 0, "isomerId": 6, "confId": 0, "nr_conformers:": 1, "nr_isomers:": 9}

$$$$
_i7
     RDKit          3D

 43 45  0  0  0  0  0  0  0  0999 V2000
   -1.7491   -0.2430   -0.2725 N   0  0  0  0  0  0  0  0  0  0  0  0
   -1.4284   -1.5700   -0.0327 C   0  0  0  0  0  0  0  0  0  0  0  0
   -2.2304   -2.5577    0.1964 N   0  0  0  0  0  0  0  0  0  0  0  0
   -3.6700   -2.2997    0.1486 C   0  0  0  0  0  0  0  0  0  0  0  0
   -4.1496   -1.6012    1.4234 C   0  0  0  0  0  0  0  0  0  0  0  0
   -5.1291   -0.4789    1.1106 C   0  0  0  0  0  0  0  0  0  0  0  0
   -4.4773    0.5264    0.3309 O   0  0  0  0  0  0  0  0  0  0  0  0
   -0.0716   -1.8124   -0.0428 N   0  0  0  0  0  0  0  0  0  0  0  0
    1.0099   -0.9829   -0.2468 C   0  0  0  0  0  0  0  0  0  0  0  0
    2.2249   -1.4439   -0.2171 N   0  0  0  0  0  0  0  0  0  0  0  0
    3.3425   -0.6279   -0.4217 C   0  0  0  0  0  0  0  0  0  0  0  0
    3.8241   -0.4804   -1.7306 C   0  0  0  0  0  0  0  0  0  0  0  0
    4.9440    0.3031   -1.9968 C   0  0  0  0  0  0  0  0  0  0  0  0
    5.6003    0.9388   -0.9479 C   0  0  0  0  0  0  0  0  0  0  0  0
    5.1462    0.7778    0.3650 C   0  0  0  0  0  0  0  0  0  0  0  0
    6.0126    1.6086    1.6110 Cl  0  0  0  0  0  0  0  0  0  0  0  0
    4.0248   -0.0223    0.6524 C   0  0  0  0  0  0  0  0  0  0  0  0
    3.5432   -0.1950    2.0684 C   0  0  0  0  0  0  0  0  0  0  0  0
    0.5759    0.3853   -0.4744 C   0  0  0  0  0  0  0  0  0  0  0  0
    1.1726    1.6381   -0.7112 C   0  0  0  0  0  0  0  0  0  0  0  0
    0.2765    2.6283   -0.8439 N   0  0  0  0  0  0  0  0  0  0  0  0
   -0.9127    2.0059   -0.6908 N   0  0  0  0  0  0  0  0  0  0  0  0
   -2.1348    2.7653   -0.7654 C   0  0  0  0  0  0  0  0  0  0  0  0
   -0.7723    0.6710   -0.4715 C   0  0  0  0  0  0  0  0  0  0  0  0
   -2.7318    0.0252   -0.1889 H   0  0  0  0  0  0  0  0  0  0  0  0
   -3.9336   -1.7545   -0.7660 H   0  0  0  0  0  0  0  0  0  0  0  0
   -4.1805   -3.2664    0.0625 H   0  0  0  0  0  0  0  0  0  0  0  0
   -4.6329   -2.3342    2.0796 H   0  0  0  0  0  0  0  0  0  0  0  0
   -3.3034   -1.1843    1.9824 H   0  0  0  0  0  0  0  0  0  0  0  0
   -5.4839   -0.0179    2.0377 H   0  0  0  0  0  0  0  0  0  0  0  0
   -5.9909   -0.8535    0.5489 H   0  0  0  0  0  0  0  0  0  0  0  0
   -5.1478    1.2211    0.1883 H   0  0  0  0  0  0  0  0  0  0  0  0
    0.1704   -2.7773    0.1286 H   0  0  0  0  0  0  0  0  0  0  0  0
    3.3127   -0.9835   -2.5481 H   0  0  0  0  0  0  0  0  0  0  0  0
    5.3015    0.4160   -3.0167 H   0  0  0  0  0  0  0  0  0  0  0  0
    6.4708    1.5561   -1.1565 H   0  0  0  0  0  0  0  0  0  0  0  0
    3.0856    0.7339    2.4237 H   0  0  0  0  0  0  0  0  0  0  0  0
    2.8020   -0.9935    2.1666 H   0  0  0  0  0  0  0  0  0  0  0  0
    4.3729   -0.4685    2.7286 H   0  0  0  0  0  0  0  0  0  0  0  0
    2.2194    1.8949   -0.7931 H   0  0  0  0  0  0  0  0  0  0  0  0
   -1.9211    3.7652   -1.1518 H   0  0  0  0  0  0  0  0  0  0  0  0
   -2.8258    2.2532   -1.4395 H   0  0  0  0  0  0  0  0  0  0  0  0
   -2.5562    2.8346    0.2403 H   0  0  0  0  0  0  0  0  0  0  0  0
  1  2  1  0
  2  3  2  3
  3  4  1  0
  4  5  1  0
  5  6  1  0
  6  7  1  0
  2  8  1  0
  8  9  1  0
  9 10  2  3
 10 11  1  0
 11 12  2  0
 12 13  1  0
 13 14  2  0
 14 15  1  0
 15 16  1  0
 15 17  2  0
 17 18  1  0
  9 19  1  0
 19 20  1  0
 20 21  2  0
 21 22  1  0
 22 23  1  0
 22 24  1  0
 24  1  1  0
 17 11  1  0
 24 19  2  0
  1 25  1  0
  4 26  1  0
  4 27  1  0
  5 28  1  0
  5 29  1  0
  6 30  1  0
  6 31  1  0
  7 32  1  0
  8 33  1  0
 12 34  1  0
 13 35  1  0
 14 36  1  0
 18 37  1  0
 18 38  1  0
 18 39  1  0
 20 40  1  0
 23 41  1  0
 23 42  1  0
 23 43  1  0
M  END
>  <ScrubInfo>  (8) 
{"isomerGroup": 0, "isomerId": 7, "confId": 0, "nr_conformers:": 1, "nr_isomers:": 9}

$$$$
_i8
     RDKit          3D

 43 45  0  0  0  0  0  0  0  0999 V2000
   -0.4866   -3.3097   -2.9991 N   0  0  0  0  0  0  0  0  0  0  0  0
   -1.4044   -2.6904   -2.1582 C   0  0  0  0  0  0  0  0  0  0  0  0
   -0.8292   -1.8512   -1.2892 C   0  0  0  0  0  0  0  0  0  0  0  0
   -1.2446   -0.9261   -0.2328 C   0  0  0  0  0  0  0  0  0  0  0  0
   -2.5052   -0.8290    0.0695 N   0  0  0  0  0  0  0  0  0  0  0  0
   -2.8892    0.0664    1.0805 C   0  0  0  0  0  0  0  0  0  0  0  0
   -2.9088   -0.3949    2.4042 C   0  0  0  0  0  0  0  0  0  0  0  0
   -3.2635    0.4518    3.4509 C   0  0  0  0  0  0  0  0  0  0  0  0
   -3.6091    1.7713    3.1779 C   0  0  0  0  0  0  0  0  0  0  0  0
   -3.6134    2.2375    1.8596 C   0  0  0  0  0  0  0  0  0  0  0  0
   -4.0454    3.8932    1.6052 Cl  0  0  0  0  0  0  0  0  0  0  0  0
   -3.2709    1.3907    0.7893 C   0  0  0  0  0  0  0  0  0  0  0  0
   -3.2788    1.8974   -0.6286 C   0  0  0  0  0  0  0  0  0  0  0  0
   -0.1809   -0.2519    0.3127 N   0  0  0  0  0  0  0  0  0  0  0  0
    1.1374   -0.3906   -0.0332 C   0  0  0  0  0  0  0  0  0  0  0  0
    2.0099    0.3483    0.5766 N   0  0  0  0  0  0  0  0  0  0  0  0
    3.4158    0.1617    0.1931 C   0  0  0  0  0  0  0  0  0  0  0  0
    4.3017    1.0475    1.0745 C   0  0  0  0  0  0  0  0  0  0  0  0
    4.0215    2.5361    0.8857 C   0  0  0  0  0  0  0  0  0  0  0  0
    2.7395    2.8837    1.3952 O   0  0  0  0  0  0  0  0  0  0  0  0
    1.5480   -1.2869   -0.9996 N   0  0  0  0  0  0  0  0  0  0  0  0
    0.6306   -1.9915   -1.5860 C   0  0  0  0  0  0  0  0  0  0  0  0
    0.7951   -2.9691   -2.5711 N   0  0  0  0  0  0  0  0  0  0  0  0
    1.8608   -2.8719   -3.5502 C   0  0  0  0  0  0  0  0  0  0  0  0
   -0.6678   -4.3075   -3.1315 H   0  0  0  0  0  0  0  0  0  0  0  0
   -2.4577   -2.9131   -2.2559 H   0  0  0  0  0  0  0  0  0  0  0  0
   -2.6430   -1.4284    2.6150 H   0  0  0  0  0  0  0  0  0  0  0  0
   -3.2708    0.0839    4.4736 H   0  0  0  0  0  0  0  0  0  0  0  0
   -3.8801    2.4346    3.9960 H   0  0  0  0  0  0  0  0  0  0  0  0
   -4.2164    2.4184   -0.8486 H   0  0  0  0  0  0  0  0  0  0  0  0
   -3.2014    1.0906   -1.3635 H   0  0  0  0  0  0  0  0  0  0  0  0
   -2.4369    2.5790   -0.7869 H   0  0  0  0  0  0  0  0  0  0  0  0
   -0.3573    0.4229    1.0416 H   0  0  0  0  0  0  0  0  0  0  0  0
    3.5679    0.4288   -0.8597 H   0  0  0  0  0  0  0  0  0  0  0  0
    3.7205   -0.8813    0.3421 H   0  0  0  0  0  0  0  0  0  0  0  0
    4.1433    0.7785    2.1259 H   0  0  0  0  0  0  0  0  0  0  0  0
    5.3511    0.8481    0.8301 H   0  0  0  0  0  0  0  0  0  0  0  0
    4.7645    3.1309    1.4254 H   0  0  0  0  0  0  0  0  0  0  0  0
    4.0636    2.8164   -0.1716 H   0  0  0  0  0  0  0  0  0  0  0  0
    2.1549    2.1294    1.1692 H   0  0  0  0  0  0  0  0  0  0  0  0
    1.7155   -2.0011   -4.1980 H   0  0  0  0  0  0  0  0  0  0  0  0
    1.8866   -3.7704   -4.1754 H   0  0  0  0  0  0  0  0  0  0  0  0
    2.8327   -2.7821   -3.0545 H   0  0  0  0  0  0  0  0  0  0  0  0
  1  2  1  0
  2  3  2  0
  3  4  1  0
  4  5  2  3
  5  6  1  0
  6  7  2  0
  7  8  1  0
  8  9  2  0
  9 10  1  0
 10 11  1  0
 10 12  2  0
 12 13  1  0
  4 14  1  0
 14 15  1  0
 15 16  2  3
 16 17  1  0
 17 18  1  0
 18 19  1  0
 19 20  1  0
 15 21  1  0
 21 22  2  0
 22 23  1  0
 23 24  1  0
 23  1  1  0
 22  3  1  0
 12  6  1  0
  1 25  1  0
  2 26  1  0
  7 27  1  0
  8 28  1  0
  9 29  1  0
 13 30  1  0
 13 31  1  0
 13 32  1  0
 14 33  1  0
 17 34  1  0
 17 35  1  0
 18 36  1  0
 18 37  1  0
 19 38  1  0
 19 39  1  0
 20 40  1  0
 24 41  1  0
 24 42  1  0
 24 43  1  0
M  END
>  <ScrubInfo>  (9) 
{"isomerGroup": 0, "isomerId": 8, "confId": 0, "nr_conformers:": 1, "nr_isomers:": 9}

$$$$
