REMARK SMILES OCCCNc1nc(Nc2ccc(F)cc2F)nc2ccccc12
REMARK SMILES IDX 4 1 3 2 2 3 1 4 5 6 6 8 7 9 24 10 8 11 23 12 19 13 18 14
REMARK SMILES IDX 22 15 20 16 21 17 9 18 10 20 11 21 16 22 12 23 15 24 13 25
REMARK SMILES IDX 17 26 14 27
REMARK H PARENT 1 5 5 7 9 19
ROOT
ATOM      1  C   UNL     1      -2.808   1.407   0.149  1.00  0.00     0.117 C 
ENDROOT
BRANCH   1   2
ATOM      2  C   UNL     1      -4.285   1.768  -0.032  1.00  0.00     0.049 C 
BRANCH   2   3
ATOM      3  C   UNL     1      -5.214   1.114   0.982  1.00  0.00     0.158 C 
BRANCH   3   4
ATOM      4  O   UNL     1      -4.850   1.468   2.308  1.00  0.00    -0.396 OA
ATOM      5  H   UNL     1      -5.035   2.417   2.421  1.00  0.00     0.210 HD
ENDBRANCH   3   4
ENDBRANCH   2   3
ENDBRANCH   1   2
BRANCH   1   6
ATOM      6  N   UNL     1      -2.595  -0.016  -0.118  1.00  0.00    -0.369 N 
ATOM      7  H   UNL     1      -3.031  -0.585   0.607  1.00  0.00     0.162 HD
BRANCH   6   8
ATOM      8  C   UNL     1      -1.233  -0.410  -0.182  1.00  0.00     0.139 A 
ATOM      9  N   UNL     1      -0.276   0.524  -0.051  1.00  0.00    -0.195 NA
ATOM     10  C   UNL     1      -0.924  -1.762  -0.403  1.00  0.00     0.043 A 
ATOM     11  C   UNL     1       1.004   0.138  -0.106  1.00  0.00     0.229 A 
ATOM     12  C   UNL     1      -1.872  -2.801  -0.593  1.00  0.00     0.014 A 
ATOM     13  C   UNL     1       0.440  -2.060  -0.437  1.00  0.00     0.078 A 
ATOM     14  N   UNL     1       1.386  -1.130  -0.286  1.00  0.00    -0.213 NA
ATOM     15  C   UNL     1      -1.461  -4.115  -0.797  1.00  0.00     0.001 A 
ATOM     16  C   UNL     1       0.827  -3.380  -0.639  1.00  0.00     0.029 A 
ATOM     17  C   UNL     1      -0.104  -4.407  -0.817  1.00  0.00     0.002 A 
BRANCH  11  18
ATOM     18  N   UNL     1       1.930   1.163   0.046  1.00  0.00    -0.322 N 
ATOM     19  H   UNL     1       1.447   2.044   0.165  1.00  0.00     0.170 HD
BRANCH  18  20
ATOM     20  C   UNL     1       3.329   1.229   0.051  1.00  0.00     0.077 A 
ATOM     21  C   UNL     1       4.169   0.121  -0.110  1.00  0.00     0.032 A 
ATOM     22  C   UNL     1       3.941   2.484   0.233  1.00  0.00     0.149 A 
ATOM     23  C   UNL     1       5.561   0.268  -0.090  1.00  0.00     0.041 A 
ATOM     24  C   UNL     1       5.322   2.645   0.255  1.00  0.00     0.080 A 
ATOM     25  C   UNL     1       6.122   1.527   0.092  1.00  0.00     0.126 A 
ATOM     26  F   UNL     1       3.167   3.571   0.392  1.00  0.00    -0.205 F 
ATOM     27  F   UNL     1       7.455   1.659   0.109  1.00  0.00    -0.207 F 
ENDBRANCH  18  20
ENDBRANCH  11  18
ENDBRANCH   6   8
ENDBRANCH   1   6
TORSDOF 7
