_i0
     RDKit          3D

 40 42  0  0  0  0  0  0  0  0999 V2000
   -4.8500    1.4678    2.3084 O   0  0  0  0  0  0  0  0  0  0  0  0
   -5.2137    1.1139    0.9820 C   0  0  0  0  0  0  0  0  0  0  0  0
   -4.2852    1.7681   -0.0323 C   0  0  0  0  0  0  0  0  0  0  0  0
   -2.8080    1.4065    0.1486 C   0  0  0  0  0  0  0  0  0  0  0  0
   -2.5945   -0.0163   -0.1176 N   0  0  0  0  0  0  0  0  0  0  0  0
   -1.2333   -0.4100   -0.1822 C   0  0  0  0  0  0  0  0  0  0  0  0
   -0.2761    0.5242   -0.0506 N   0  0  0  0  0  0  0  0  0  0  0  0
    1.0044    0.1375   -0.1056 C   0  0  0  0  0  0  0  0  0  0  0  0
    1.9304    1.1632    0.0456 N   0  0  0  0  0  0  0  0  0  0  0  0
    3.3285    1.2287    0.0513 C   0  0  0  0  0  0  0  0  0  0  0  0
    4.1686    0.1215   -0.1095 C   0  0  0  0  0  0  0  0  0  0  0  0
    5.5609    0.2684   -0.0900 C   0  0  0  0  0  0  0  0  0  0  0  0
    6.1221    1.5267    0.0916 C   0  0  0  0  0  0  0  0  0  0  0  0
    7.4546    1.6590    0.1092 F   0  0  0  0  0  0  0  0  0  0  0  0
    5.3219    2.6446    0.2548 C   0  0  0  0  0  0  0  0  0  0  0  0
    3.9407    2.4839    0.2332 C   0  0  0  0  0  0  0  0  0  0  0  0
    3.1666    3.5705    0.3921 F   0  0  0  0  0  0  0  0  0  0  0  0
    1.3863   -1.1304   -0.2856 N   0  0  0  0  0  0  0  0  0  0  0  0
    0.4397   -2.0597   -0.4367 C   0  0  0  0  0  0  0  0  0  0  0  0
    0.8273   -3.3796   -0.6393 C   0  0  0  0  0  0  0  0  0  0  0  0
   -0.1041   -4.4066   -0.8165 C   0  0  0  0  0  0  0  0  0  0  0  0
   -1.4607   -4.1155   -0.7968 C   0  0  0  0  0  0  0  0  0  0  0  0
   -1.8724   -2.8006   -0.5930 C   0  0  0  0  0  0  0  0  0  0  0  0
   -0.9244   -1.7616   -0.4027 C   0  0  0  0  0  0  0  0  0  0  0  0
   -5.0348    2.4167    2.4210 H   0  0  0  0  0  0  0  0  0  0  0  0
   -6.2481    1.4306    0.8124 H   0  0  0  0  0  0  0  0  0  0  0  0
   -5.1874    0.0233    0.9009 H   0  0  0  0  0  0  0  0  0  0  0  0
   -4.6128    1.4992   -1.0436 H   0  0  0  0  0  0  0  0  0  0  0  0
   -4.3753    2.8572    0.0625 H   0  0  0  0  0  0  0  0  0  0  0  0
   -2.2389    2.0158   -0.5652 H   0  0  0  0  0  0  0  0  0  0  0  0
   -2.4708    1.6641    1.1598 H   0  0  0  0  0  0  0  0  0  0  0  0
   -3.0307   -0.5850    0.6067 H   0  0  0  0  0  0  0  0  0  0  0  0
    1.4468    2.0444    0.1648 H   0  0  0  0  0  0  0  0  0  0  0  0
    3.7613   -0.8747   -0.2531 H   0  0  0  0  0  0  0  0  0  0  0  0
    6.2064   -0.5957   -0.2159 H   0  0  0  0  0  0  0  0  0  0  0  0
    5.7612    3.6242    0.3964 H   0  0  0  0  0  0  0  0  0  0  0  0
    1.8888   -3.6166   -0.6636 H   0  0  0  0  0  0  0  0  0  0  0  0
    0.2362   -5.4266   -0.9754 H   0  0  0  0  0  0  0  0  0  0  0  0
   -2.1946   -4.9036   -0.9436 H   0  0  0  0  0  0  0  0  0  0  0  0
   -2.9368   -2.5773   -0.5962 H   0  0  0  0  0  0  0  0  0  0  0  0
  1  2  1  0
  2  3  1  0
  3  4  1  0
  4  5  1  0
  5  6  1  0
  6  7  2  0
  7  8  1  0
  8  9  1  0
  9 10  1  0
 10 11  2  0
 11 12  1  0
 12 13  2  0
 13 14  1  0
 13 15  1  0
 15 16  2  0
 16 17  1  0
  8 18  2  0
 18 19  1  0
 19 20  2  0
 20 21  1  0
 21 22  2  0
 22 23  1  0
 23 24  2  0
 24  6  1  0
 16 10  1  0
 24 19  1  0
  1 25  1  0
  2 26  1  0
  2 27  1  0
  3 28  1  0
  3 29  1  0
  4 30  1  0
  4 31  1  0
  5 32  1  0
  9 33  1  0
 11 34  1  0
 12 35  1  0
 15 36  1  0
 20 37  1  0
 21 38  1  0
 22 39  1  0
 23 40  1  0
M  END
>  <ScrubInfo>  (1) 
{"isomerGroup": 0, "isomerId": 0, "confId": 0, "nr_conformers:": 1, "nr_isomers:": 6}

$$$$
_i1
     RDKit          3D

 40 42  0  0  0  0  0  0  0  0999 V2000
   -0.2676    0.5572   -0.6810 N   0  0  0  0  0  0  0  0  0  0  0  0
    1.0338    0.4016   -0.2974 C   0  0  0  0  0  0  0  0  0  0  0  0
    1.7405    1.5743   -0.3580 N   0  0  0  0  0  0  0  0  0  0  0  0
    3.0867    1.8122   -0.0091 C   0  0  0  0  0  0  0  0  0  0  0  0
    3.8452    0.9770    0.8186 C   0  0  0  0  0  0  0  0  0  0  0  0
    5.1694    1.2989    1.1395 C   0  0  0  0  0  0  0  0  0  0  0  0
    5.7389    2.4656    0.6427 C   0  0  0  0  0  0  0  0  0  0  0  0
    7.0053    2.7673    0.9561 F   0  0  0  0  0  0  0  0  0  0  0  0
    5.0121    3.3236   -0.1656 C   0  0  0  0  0  0  0  0  0  0  0  0
    3.6986    2.9911   -0.4765 C   0  0  0  0  0  0  0  0  0  0  0  0
    2.9897    3.8244   -1.2564 F   0  0  0  0  0  0  0  0  0  0  0  0
    1.4955   -0.7551    0.0767 N   0  0  0  0  0  0  0  0  0  0  0  0
    0.6161   -1.8625    0.0268 C   0  0  0  0  0  0  0  0  0  0  0  0
    1.1651   -3.1159    0.3221 C   0  0  0  0  0  0  0  0  0  0  0  0
    0.3920   -4.2730    0.2415 C   0  0  0  0  0  0  0  0  0  0  0  0
   -0.9397   -4.1875   -0.1529 C   0  0  0  0  0  0  0  0  0  0  0  0
   -1.5081   -2.9446   -0.4485 C   0  0  0  0  0  0  0  0  0  0  0  0
   -0.7497   -1.7752   -0.3336 C   0  0  0  0  0  0  0  0  0  0  0  0
   -1.2495   -0.3958   -0.6171 C   0  0  0  0  0  0  0  0  0  0  0  0
   -2.4507    0.0463   -0.7736 N   0  0  0  0  0  0  0  0  0  0  0  0
   -3.6741   -0.7024   -0.6106 C   0  0  0  0  0  0  0  0  0  0  0  0
   -4.8569    0.2684   -0.4993 C   0  0  0  0  0  0  0  0  0  0  0  0
   -4.9061    1.0215    0.8285 C   0  0  0  0  0  0  0  0  0  0  0  0
   -4.0151    2.1286    0.8291 O   0  0  0  0  0  0  0  0  0  0  0  0
   -0.6495    1.4905   -0.7318 H   0  0  0  0  0  0  0  0  0  0  0  0
    1.3865    2.2750   -0.9997 H   0  0  0  0  0  0  0  0  0  0  0  0
    3.4219    0.0683    1.2376 H   0  0  0  0  0  0  0  0  0  0  0  0
    5.7540    0.6441    1.7789 H   0  0  0  0  0  0  0  0  0  0  0  0
    5.4568    4.2348   -0.5460 H   0  0  0  0  0  0  0  0  0  0  0  0
    2.2130   -3.1837    0.6037 H   0  0  0  0  0  0  0  0  0  0  0  0
    0.8355   -5.2390    0.4683 H   0  0  0  0  0  0  0  0  0  0  0  0
   -1.5375   -5.0918   -0.2410 H   0  0  0  0  0  0  0  0  0  0  0  0
   -2.5339   -2.9329   -0.7890 H   0  0  0  0  0  0  0  0  0  0  0  0
   -3.8412   -1.3283   -1.4937 H   0  0  0  0  0  0  0  0  0  0  0  0
   -3.6520   -1.3338    0.2838 H   0  0  0  0  0  0  0  0  0  0  0  0
   -5.7766   -0.3224   -0.5880 H   0  0  0  0  0  0  0  0  0  0  0  0
   -4.8329    0.9797   -1.3336 H   0  0  0  0  0  0  0  0  0  0  0  0
   -5.9150    1.4174    0.9845 H   0  0  0  0  0  0  0  0  0  0  0  0
   -4.6611    0.3642    1.6690 H   0  0  0  0  0  0  0  0  0  0  0  0
   -4.0392    2.5122    1.7213 H   0  0  0  0  0  0  0  0  0  0  0  0
  1  2  1  0
  2  3  1  0
  3  4  1  0
  4  5  2  0
  5  6  1  0
  6  7  2  0
  7  8  1  0
  7  9  1  0
  9 10  2  0
 10 11  1  0
  2 12  2  0
 12 13  1  0
 13 14  2  0
 14 15  1  0
 15 16  2  0
 16 17  1  0
 17 18  2  0
 18 19  1  0
 19 20  2  3
 20 21  1  0
 21 22  1  0
 22 23  1  0
 23 24  1  0
 19  1  1  0
 10  4  1  0
 18 13  1  0
  1 25  1  0
  3 26  1  0
  5 27  1  0
  6 28  1  0
  9 29  1  0
 14 30  1  0
 15 31  1  0
 16 32  1  0
 17 33  1  0
 21 34  1  0
 21 35  1  0
 22 36  1  0
 22 37  1  0
 23 38  1  0
 23 39  1  0
 24 40  1  0
M  END
>  <ScrubInfo>  (2) 
{"isomerGroup": 0, "isomerId": 1, "confId": 0, "nr_conformers:": 1, "nr_isomers:": 6}

$$$$
_i2
     RDKit          3D

 40 42  0  0  0  0  0  0  0  0999 V2000
    0.3501   -0.5801    0.1205 N   0  0  0  0  0  0  0  0  0  0  0  0
   -0.9224   -1.0683    0.2681 C   0  0  0  0  0  0  0  0  0  0  0  0
   -1.7793   -0.3923    1.1316 N   0  0  0  0  0  0  0  0  0  0  0  0
   -2.7949    0.5136    0.5874 C   0  0  0  0  0  0  0  0  0  0  0  0
   -2.5896    1.9510    1.0746 C   0  0  0  0  0  0  0  0  0  0  0  0
   -1.3309    2.6164    0.5240 C   0  0  0  0  0  0  0  0  0  0  0  0
   -0.1582    2.0718    1.1279 O   0  0  0  0  0  0  0  0  0  0  0  0
   -1.2755   -2.1746   -0.4219 C   0  0  0  0  0  0  0  0  0  0  0  0
   -2.5545   -2.8522   -0.3632 C   0  0  0  0  0  0  0  0  0  0  0  0
   -2.7833   -3.9513   -1.0952 C   0  0  0  0  0  0  0  0  0  0  0  0
   -1.7664   -4.4984   -1.9624 C   0  0  0  0  0  0  0  0  0  0  0  0
   -0.5499   -3.9476   -2.0768 C   0  0  0  0  0  0  0  0  0  0  0  0
   -0.1873   -2.7207   -1.3094 C   0  0  0  0  0  0  0  0  0  0  0  0
    0.9996   -2.2195   -1.4634 N   0  0  0  0  0  0  0  0  0  0  0  0
    1.2858   -1.0879   -0.7407 C   0  0  0  0  0  0  0  0  0  0  0  0
    2.4590   -0.5945   -0.9923 N   0  0  0  0  0  0  0  0  0  0  0  0
    2.8936    0.5582   -0.3250 C   0  0  0  0  0  0  0  0  0  0  0  0
    3.0090    1.7506   -1.0483 C   0  0  0  0  0  0  0  0  0  0  0  0
    3.4565    2.9169   -0.4238 C   0  0  0  0  0  0  0  0  0  0  0  0
    3.7989    2.8850    0.9246 C   0  0  0  0  0  0  0  0  0  0  0  0
    4.2167    4.0079    1.5222 F   0  0  0  0  0  0  0  0  0  0  0  0
    3.7078    1.7122    1.6604 C   0  0  0  0  0  0  0  0  0  0  0  0
    3.2635    0.5552    1.0291 C   0  0  0  0  0  0  0  0  0  0  0  0
    3.1703   -0.5711    1.7516 F   0  0  0  0  0  0  0  0  0  0  0  0
    0.5140    0.3194    0.5537 H   0  0  0  0  0  0  0  0  0  0  0  0
   -1.2004    0.1222    1.8003 H   0  0  0  0  0  0  0  0  0  0  0  0
   -3.7742    0.1621    0.9311 H   0  0  0  0  0  0  0  0  0  0  0  0
   -2.8111    0.4884   -0.5093 H   0  0  0  0  0  0  0  0  0  0  0  0
   -2.5603    1.9629    2.1711 H   0  0  0  0  0  0  0  0  0  0  0  0
   -3.4582    2.5419    0.7606 H   0  0  0  0  0  0  0  0  0  0  0  0
   -1.2551    2.4959   -0.5610 H   0  0  0  0  0  0  0  0  0  0  0  0
   -1.3587    3.6868    0.7544 H   0  0  0  0  0  0  0  0  0  0  0  0
    0.5524    2.7231    0.9727 H   0  0  0  0  0  0  0  0  0  0  0  0
   -3.3179   -2.4600    0.3003 H   0  0  0  0  0  0  0  0  0  0  0  0
   -3.7389   -4.4643   -1.0426 H   0  0  0  0  0  0  0  0  0  0  0  0
   -2.0153   -5.3923   -2.5266 H   0  0  0  0  0  0  0  0  0  0  0  0
    0.2153   -4.3608   -2.7230 H   0  0  0  0  0  0  0  0  0  0  0  0
    2.7560    1.7586   -2.1061 H   0  0  0  0  0  0  0  0  0  0  0  0
    3.5517    3.8424   -0.9835 H   0  0  0  0  0  0  0  0  0  0  0  0
    3.9820    1.6933    2.7085 H   0  0  0  0  0  0  0  0  0  0  0  0
  1  2  1  0
  2  3  1  0
  3  4  1  0
  4  5  1  0
  5  6  1  0
  6  7  1  0
  2  8  2  0
  8  9  1  0
  9 10  2  0
 10 11  1  0
 11 12  2  0
 12 13  1  0
 13 14  2  0
 14 15  1  0
 15 16  2  3
 16 17  1  0
 17 18  2  0
 18 19  1  0
 19 20  2  0
 20 21  1  0
 20 22  1  0
 22 23  2  0
 23 24  1  0
 15  1  1  0
 23 17  1  0
 13  8  1  0
  1 25  1  0
  3 26  1  0
  4 27  1  0
  4 28  1  0
  5 29  1  0
  5 30  1  0
  6 31  1  0
  6 32  1  0
  7 33  1  0
  9 34  1  0
 10 35  1  0
 11 36  1  0
 12 37  1  0
 18 38  1  0
 19 39  1  0
 22 40  1  0
M  END
>  <ScrubInfo>  (3) 
{"isomerGroup": 0, "isomerId": 2, "confId": 0, "nr_conformers:": 1, "nr_isomers:": 6}

$$$$
_i3
     RDKit          3D

 40 42  0  0  0  0  0  0  0  0999 V2000
    1.5079   -0.9649    0.3127 N   0  0  0  0  0  0  0  0  0  0  0  0
    1.0080    0.2960    0.1093 C   0  0  0  0  0  0  0  0  0  0  0  0
    1.7056    1.3782   -0.0571 N   0  0  0  0  0  0  0  0  0  0  0  0
    3.1062    1.3518   -0.0503 C   0  0  0  0  0  0  0  0  0  0  0  0
    3.7813    1.9978    0.9910 C   0  0  0  0  0  0  0  0  0  0  0  0
    5.1776    2.0342    1.0167 C   0  0  0  0  0  0  0  0  0  0  0  0
    5.8987    1.4325   -0.0096 C   0  0  0  0  0  0  0  0  0  0  0  0
    7.2370    1.4664    0.0186 F   0  0  0  0  0  0  0  0  0  0  0  0
    5.2542    0.7964   -1.0609 C   0  0  0  0  0  0  0  0  0  0  0  0
    3.8636    0.7666   -1.0770 C   0  0  0  0  0  0  0  0  0  0  0  0
    3.2502    0.1289   -2.0855 F   0  0  0  0  0  0  0  0  0  0  0  0
   -0.3443    0.5288    0.0878 N   0  0  0  0  0  0  0  0  0  0  0  0
   -1.1855   -0.4658    0.1205 C   0  0  0  0  0  0  0  0  0  0  0  0
   -2.5491   -0.2137    0.1305 N   0  0  0  0  0  0  0  0  0  0  0  0
   -3.0615    1.1442    0.2912 C   0  0  0  0  0  0  0  0  0  0  0  0
   -4.5459    1.1710   -0.0705 C   0  0  0  0  0  0  0  0  0  0  0  0
   -5.1258    2.5725    0.0441 C   0  0  0  0  0  0  0  0  0  0  0  0
   -5.1170    2.9840    1.4035 O   0  0  0  0  0  0  0  0  0  0  0  0
   -0.7142   -1.8873    0.1521 C   0  0  0  0  0  0  0  0  0  0  0  0
   -1.5781   -2.9855    0.0750 C   0  0  0  0  0  0  0  0  0  0  0  0
   -1.0581   -4.2796    0.1337 C   0  0  0  0  0  0  0  0  0  0  0  0
    0.3160   -4.4748    0.2676 C   0  0  0  0  0  0  0  0  0  0  0  0
    1.1773   -3.3771    0.3251 C   0  0  0  0  0  0  0  0  0  0  0  0
    0.6688   -2.0773    0.2415 C   0  0  0  0  0  0  0  0  0  0  0  0
    2.4897   -1.1123    0.1549 H   0  0  0  0  0  0  0  0  0  0  0  0
    3.2082    2.4807    1.7793 H   0  0  0  0  0  0  0  0  0  0  0  0
    5.7026    2.5346    1.8245 H   0  0  0  0  0  0  0  0  0  0  0  0
    5.8235    0.3343   -1.8583 H   0  0  0  0  0  0  0  0  0  0  0  0
   -3.1102   -0.8972    0.6243 H   0  0  0  0  0  0  0  0  0  0  0  0
   -2.5216    1.8346   -0.3675 H   0  0  0  0  0  0  0  0  0  0  0  0
   -2.9077    1.4682    1.3265 H   0  0  0  0  0  0  0  0  0  0  0  0
   -4.6820    0.8043   -1.0950 H   0  0  0  0  0  0  0  0  0  0  0  0
   -5.0916    0.4907    0.5953 H   0  0  0  0  0  0  0  0  0  0  0  0
   -4.5491    3.2897   -0.5488 H   0  0  0  0  0  0  0  0  0  0  0  0
   -6.1622    2.5793   -0.3080 H   0  0  0  0  0  0  0  0  0  0  0  0
   -5.4635    3.8931    1.4297 H   0  0  0  0  0  0  0  0  0  0  0  0
   -2.6482   -2.8564   -0.0454 H   0  0  0  0  0  0  0  0  0  0  0  0
   -1.7250   -5.1367    0.0748 H   0  0  0  0  0  0  0  0  0  0  0  0
    0.7184   -5.4838    0.3212 H   0  0  0  0  0  0  0  0  0  0  0  0
    2.2459   -3.5466    0.4275 H   0  0  0  0  0  0  0  0  0  0  0  0
  1  2  1  0
  2  3  2  3
  3  4  1  0
  4  5  2  0
  5  6  1  0
  6  7  2  0
  7  8  1  0
  7  9  1  0
  9 10  2  0
 10 11  1  0
  2 12  1  0
 12 13  2  0
 13 14  1  0
 14 15  1  0
 15 16  1  0
 16 17  1  0
 17 18  1  0
 13 19  1  0
 19 20  2  0
 20 21  1  0
 21 22  2  0
 22 23  1  0
 23 24  2  0
 24  1  1  0
 10  4  1  0
 24 19  1  0
  1 25  1  0
  5 26  1  0
  6 27  1  0
  9 28  1  0
 14 29  1  0
 15 30  1  0
 15 31  1  0
 16 32  1  0
 16 33  1  0
 17 34  1  0
 17 35  1  0
 18 36  1  0
 20 37  1  0
 21 38  1  0
 22 39  1  0
 23 40  1  0
M  END
>  <ScrubInfo>  (4) 
{"isomerGroup": 0, "isomerId": 3, "confId": 0, "nr_conformers:": 1, "nr_isomers:": 6}

$$$$
_i4
     RDKit          3D

 40 42  0  0  0  0  0  0  0  0999 V2000
   -1.0826   -2.4049   -0.3223 N   0  0  0  0  0  0  0  0  0  0  0  0
   -1.2692   -1.0611   -0.1104 C   0  0  0  0  0  0  0  0  0  0  0  0
   -2.6004   -0.7398   -0.2192 N   0  0  0  0  0  0  0  0  0  0  0  0
   -3.2077    0.5200   -0.0186 C   0  0  0  0  0  0  0  0  0  0  0  0
   -2.6696    1.5278    0.7899 C   0  0  0  0  0  0  0  0  0  0  0  0
   -3.3488    2.7383    0.9697 C   0  0  0  0  0  0  0  0  0  0  0  0
   -4.5787    2.9405    0.3537 C   0  0  0  0  0  0  0  0  0  0  0  0
   -5.2242    4.0998    0.5330 F   0  0  0  0  0  0  0  0  0  0  0  0
   -5.1506    1.9555   -0.4348 C   0  0  0  0  0  0  0  0  0  0  0  0
   -4.4646    0.7587   -0.6055 C   0  0  0  0  0  0  0  0  0  0  0  0
   -5.0196   -0.2025   -1.3627 F   0  0  0  0  0  0  0  0  0  0  0  0
   -0.3202   -0.2130    0.1353 N   0  0  0  0  0  0  0  0  0  0  0  0
    0.9813   -0.6537    0.2062 C   0  0  0  0  0  0  0  0  0  0  0  0
    1.9526    0.1805    0.3758 N   0  0  0  0  0  0  0  0  0  0  0  0
    1.6012    1.5968    0.4854 C   0  0  0  0  0  0  0  0  0  0  0  0
    2.8767    2.4167    0.6524 C   0  0  0  0  0  0  0  0  0  0  0  0
    3.7769    2.3423   -0.5721 C   0  0  0  0  0  0  0  0  0  0  0  0
    4.8844    3.2195   -0.3879 O   0  0  0  0  0  0  0  0  0  0  0  0
    1.2751   -2.1049    0.0957 C   0  0  0  0  0  0  0  0  0  0  0  0
    2.5724   -2.6111    0.2252 C   0  0  0  0  0  0  0  0  0  0  0  0
    2.7892   -3.9838    0.1111 C   0  0  0  0  0  0  0  0  0  0  0  0
    1.7156   -4.8399   -0.1382 C   0  0  0  0  0  0  0  0  0  0  0  0
    0.4211   -4.3278   -0.2679 C   0  0  0  0  0  0  0  0  0  0  0  0
    0.1906   -2.9562   -0.1290 C   0  0  0  0  0  0  0  0  0  0  0  0
   -1.8566   -3.0209   -0.1169 H   0  0  0  0  0  0  0  0  0  0  0  0
   -3.1195   -1.2975   -0.8892 H   0  0  0  0  0  0  0  0  0  0  0  0
   -1.7209    1.3880    1.3013 H   0  0  0  0  0  0  0  0  0  0  0  0
   -2.9232    3.5198    1.5924 H   0  0  0  0  0  0  0  0  0  0  0  0
   -6.1127    2.1143   -0.9059 H   0  0  0  0  0  0  0  0  0  0  0  0
    1.0622    1.9403   -0.4061 H   0  0  0  0  0  0  0  0  0  0  0  0
    0.9669    1.7630    1.3646 H   0  0  0  0  0  0  0  0  0  0  0  0
    2.6131    3.4642    0.8438 H   0  0  0  0  0  0  0  0  0  0  0  0
    3.4356    2.0807    1.5349 H   0  0  0  0  0  0  0  0  0  0  0  0
    4.1623    1.3287   -0.7207 H   0  0  0  0  0  0  0  0  0  0  0  0
    3.2396    2.6546   -1.4733 H   0  0  0  0  0  0  0  0  0  0  0  0
    5.4581    3.1091   -1.1648 H   0  0  0  0  0  0  0  0  0  0  0  0
    3.4076   -1.9404    0.4127 H   0  0  0  0  0  0  0  0  0  0  0  0
    3.7955   -4.3839    0.2100 H   0  0  0  0  0  0  0  0  0  0  0  0
    1.8892   -5.9089   -0.2394 H   0  0  0  0  0  0  0  0  0  0  0  0
   -0.3980   -5.0090   -0.4818 H   0  0  0  0  0  0  0  0  0  0  0  0
  1  2  1  0
  2  3  1  0
  3  4  1  0
  4  5  2  0
  5  6  1  0
  6  7  2  0
  7  8  1  0
  7  9  1  0
  9 10  2  0
 10 11  1  0
  2 12  2  0
 12 13  1  0
 13 14  2  3
 14 15  1  0
 15 16  1  0
 16 17  1  0
 17 18  1  0
 13 19  1  0
 19 20  2  0
 20 21  1  0
 21 22  2  0
 22 23  1  0
 23 24  2  0
 24  1  1  0
 10  4  1  0
 24 19  1  0
  1 25  1  0
  3 26  1  0
  5 27  1  0
  6 28  1  0
  9 29  1  0
 15 30  1  0
 15 31  1  0
 16 32  1  0
 16 33  1  0
 17 34  1  0
 17 35  1  0
 18 36  1  0
 20 37  1  0
 21 38  1  0
 22 39  1  0
 23 40  1  0
M  END
>  <ScrubInfo>  (5) 
{"isomerGroup": 0, "isomerId": 4, "confId": 0, "nr_conformers:": 1, "nr_isomers:": 6}

$$$$
_i5
     RDKit          3D

 40 42  0  0  0  0  0  0  0  0999 V2000
    1.3724   -0.9736    0.1079 N   0  0  0  0  0  0  0  0  0  0  0  0
    0.9850    0.3424    0.1716 C   0  0  0  0  0  0  0  0  0  0  0  0
    1.7458    1.3956    0.2547 N   0  0  0  0  0  0  0  0  0  0  0  0
    3.1410    1.2466    0.2591 C   0  0  0  0  0  0  0  0  0  0  0  0
    3.8411    1.4418    1.4540 C   0  0  0  0  0  0  0  0  0  0  0  0
    5.2332    1.3285    1.4833 C   0  0  0  0  0  0  0  0  0  0  0  0
    5.9237    1.0302    0.3124 C   0  0  0  0  0  0  0  0  0  0  0  0
    7.2577    0.9202    0.3457 F   0  0  0  0  0  0  0  0  0  0  0  0
    5.2532    0.8441   -0.8881 C   0  0  0  0  0  0  0  0  0  0  0  0
    3.8675    0.9593   -0.9073 C   0  0  0  0  0  0  0  0  0  0  0  0
    3.2241    0.7665   -2.0687 F   0  0  0  0  0  0  0  0  0  0  0  0
   -0.3709    0.5261    0.1561 N   0  0  0  0  0  0  0  0  0  0  0  0
   -1.3801   -0.4030    0.0732 C   0  0  0  0  0  0  0  0  0  0  0  0
   -2.6511   -0.1766    0.0577 N   0  0  0  0  0  0  0  0  0  0  0  0
   -3.1271    1.2014    0.1363 C   0  0  0  0  0  0  0  0  0  0  0  0
   -4.6549    1.1786    0.1200 C   0  0  0  0  0  0  0  0  0  0  0  0
   -5.2623    2.5743    0.0710 C   0  0  0  0  0  0  0  0  0  0  0  0
   -5.0122    3.2929    1.2710 O   0  0  0  0  0  0  0  0  0  0  0  0
   -0.9180   -1.8229   -0.0078 C   0  0  0  0  0  0  0  0  0  0  0  0
   -1.8194   -2.8884   -0.0969 C   0  0  0  0  0  0  0  0  0  0  0  0
   -1.3364   -4.1941   -0.1693 C   0  0  0  0  0  0  0  0  0  0  0  0
    0.0385   -4.4310   -0.1518 C   0  0  0  0  0  0  0  0  0  0  0  0
    0.9379   -3.3639   -0.0622 C   0  0  0  0  0  0  0  0  0  0  0  0
    0.4704   -2.0467    0.0082 C   0  0  0  0  0  0  0  0  0  0  0  0
    2.3560   -1.1925    0.0849 H   0  0  0  0  0  0  0  0  0  0  0  0
    3.2963    1.6883    2.3621 H   0  0  0  0  0  0  0  0  0  0  0  0
    5.7814    1.4782    2.4087 H   0  0  0  0  0  0  0  0  0  0  0  0
    5.7991    0.6172   -1.7960 H   0  0  0  0  0  0  0  0  0  0  0  0
   -0.6320    1.4983    0.1977 H   0  0  0  0  0  0  0  0  0  0  0  0
   -2.7610    1.7785   -0.7211 H   0  0  0  0  0  0  0  0  0  0  0  0
   -2.7742    1.6751    1.0595 H   0  0  0  0  0  0  0  0  0  0  0  0
   -5.0015    0.6087   -0.7508 H   0  0  0  0  0  0  0  0  0  0  0  0
   -5.0114    0.6523    1.0142 H   0  0  0  0  0  0  0  0  0  0  0  0
   -4.8789    3.1527   -0.7761 H   0  0  0  0  0  0  0  0  0  0  0  0
   -6.3483    2.4968   -0.0421 H   0  0  0  0  0  0  0  0  0  0  0  0
   -4.0768    3.5533    1.2782 H   0  0  0  0  0  0  0  0  0  0  0  0
   -2.8906   -2.7033   -0.1091 H   0  0  0  0  0  0  0  0  0  0  0  0
   -2.0328   -5.0263   -0.2387 H   0  0  0  0  0  0  0  0  0  0  0  0
    0.4116   -5.4511   -0.2076 H   0  0  0  0  0  0  0  0  0  0  0  0
    2.0040   -3.5745   -0.0490 H   0  0  0  0  0  0  0  0  0  0  0  0
  1  2  1  0
  2  3  2  3
  3  4  1  0
  4  5  2  0
  5  6  1  0
  6  7  2  0
  7  8  1  0
  7  9  1  0
  9 10  2  0
 10 11  1  0
  2 12  1  0
 12 13  1  0
 13 14  2  3
 14 15  1  0
 15 16  1  0
 16 17  1  0
 17 18  1  0
 13 19  1  0
 19 20  2  0
 20 21  1  0
 21 22  2  0
 22 23  1  0
 23 24  2  0
 24  1  1  0
 10  4  1  0
 24 19  1  0
  1 25  1  0
  5 26  1  0
  6 27  1  0
  9 28  1  0
 12 29  1  0
 15 30  1  0
 15 31  1  0
 16 32  1  0
 16 33  1  0
 17 34  1  0
 17 35  1  0
 18 36  1  0
 20 37  1  0
 21 38  1  0
 22 39  1  0
 23 40  1  0
M  END
>  <ScrubInfo>  (6) 
{"isomerGroup": 0, "isomerId": 5, "confId": 0, "nr_conformers:": 1, "nr_isomers:": 6}

$$$$
