REMARK SMILES CC(C)Oc1ccc(Nc2nc(NC[C@@H](C)O)nc3c2cnn3C)cc1
REMARK SMILES IDX 12 1 11 2 10 3 20 4 21 5 22 6 23 7 24 8 19 9 18 10 13 11
REMARK SMILES IDX 14 13 15 14 16 15 17 16 9 18 8 20 7 21 25 22 6 23 26 24 5 25
REMARK SMILES IDX 4 26 2 27 1 28 3 29
REMARK H PARENT 13 12 17 17 9 19
ROOT
ATOM      1  C   UNL     1      -3.043  -1.009  -0.582  1.00  0.00     0.226 A 
ATOM      2  N   UNL     1      -1.917  -1.083  -1.315  1.00  0.00    -0.195 NA
ATOM      3  C   UNL     1      -0.956  -0.133  -1.188  1.00  0.00     0.147 A 
ATOM      4  C   UNL     1      -1.206   0.933  -0.321  1.00  0.00     0.082 A 
ATOM      5  C   UNL     1      -0.595   2.138   0.084  1.00  0.00     0.149 A 
ATOM      6  N   UNL     1      -1.315   2.807   0.992  1.00  0.00    -0.179 NA
ATOM      7  N   UNL     1      -2.416   2.035   1.142  1.00  0.00    -0.250 N 
ATOM      8  C   UNL     1      -3.462   2.458   2.038  1.00  0.00     0.176 C 
ATOM      9  C   UNL     1      -2.398   0.902   0.376  1.00  0.00     0.165 A 
ATOM     10  N   UNL     1      -3.343  -0.046   0.298  1.00  0.00    -0.193 NA
ENDROOT
BRANCH   1  11
ATOM     11  N   UNL     1      -3.945  -2.042  -0.810  1.00  0.00    -0.352 N 
ATOM     12  H   UNL     1      -3.408  -2.759  -1.292  1.00  0.00     0.163 HD
BRANCH  11  13
ATOM     13  C   UNL     1      -4.662  -2.525   0.370  1.00  0.00     0.147 C 
BRANCH  13  14
ATOM     14  C   UNL     1      -6.166  -2.208   0.258  1.00  0.00     0.130 C 
ATOM     15  C   UNL     1      -6.497  -0.732   0.432  1.00  0.00     0.040 C 
BRANCH  14  16
ATOM     16  O   UNL     1      -6.645  -2.634  -1.022  1.00  0.00    -0.392 OA
ATOM     17  H   UNL     1      -5.992  -2.280  -1.659  1.00  0.00     0.211 HD
ENDBRANCH  14  16
ENDBRANCH  13  14
ENDBRANCH  11  13
ENDBRANCH   1  11
BRANCH   3  18
ATOM     18  N   UNL     1       0.182  -0.271  -1.994  1.00  0.00    -0.339 N 
ATOM     19  H   UNL     1       0.049  -1.084  -2.590  1.00  0.00     0.168 HD
BRANCH  18  20
ATOM     20  C   UNL     1       1.538  -0.091  -1.661  1.00  0.00     0.040 A 
ATOM     21  C   UNL     1       2.010  -0.042  -0.345  1.00  0.00     0.030 A 
ATOM     22  C   UNL     1       2.468   0.028  -2.699  1.00  0.00     0.030 A 
ATOM     23  C   UNL     1       3.373   0.142  -0.071  1.00  0.00     0.048 A 
ATOM     24  C   UNL     1       3.827   0.212  -2.426  1.00  0.00     0.048 A 
ATOM     25  C   UNL     1       4.288   0.278  -1.111  1.00  0.00     0.119 A 
BRANCH  25  26
ATOM     26  O   UNL     1       5.636   0.456  -0.992  1.00  0.00    -0.491 OA
BRANCH  26  27
ATOM     27  C   UNL     1       6.194   0.724   0.298  1.00  0.00     0.167 C 
ATOM     28  C   UNL     1       7.439   1.579   0.069  1.00  0.00     0.052 C 
ATOM     29  C   UNL     1       6.580  -0.587   0.977  1.00  0.00     0.052 C 
ENDBRANCH  26  27
ENDBRANCH  25  26
ENDBRANCH  18  20
ENDBRANCH   3  18
TORSDOF 8
