_i0
     RDKit          3D

 50 52  0  0  0  0  0  0  0  0999 V2000
   -6.4968   -0.7324    0.4324 C   0  0  0  0  0  0  0  0  0  0  0  0
   -6.1658   -2.2076    0.2581 C   0  0  0  0  0  0  0  0  0  0  0  0
   -6.6452   -2.6342   -1.0218 O   0  0  0  0  0  0  0  0  0  0  0  0
   -4.6625   -2.5254    0.3704 C   0  0  0  0  0  0  0  0  0  0  0  0
   -3.9447   -2.0425   -0.8103 N   0  0  0  0  0  0  0  0  0  0  0  0
   -3.0434   -1.0090   -0.5824 C   0  0  0  0  0  0  0  0  0  0  0  0
   -1.9174   -1.0833   -1.3149 N   0  0  0  0  0  0  0  0  0  0  0  0
   -0.9556   -0.1332   -1.1877 C   0  0  0  0  0  0  0  0  0  0  0  0
    0.1821   -0.2710   -1.9936 N   0  0  0  0  0  0  0  0  0  0  0  0
    1.5379   -0.0913   -1.6605 C   0  0  0  0  0  0  0  0  0  0  0  0
    2.0102   -0.0416   -0.3452 C   0  0  0  0  0  0  0  0  0  0  0  0
    3.3731    0.1423   -0.0707 C   0  0  0  0  0  0  0  0  0  0  0  0
    4.2879    0.2781   -1.1114 C   0  0  0  0  0  0  0  0  0  0  0  0
    5.6362    0.4564   -0.9922 O   0  0  0  0  0  0  0  0  0  0  0  0
    6.1941    0.7240    0.2984 C   0  0  0  0  0  0  0  0  0  0  0  0
    7.4388    1.5789    0.0693 C   0  0  0  0  0  0  0  0  0  0  0  0
    6.5802   -0.5867    0.9774 C   0  0  0  0  0  0  0  0  0  0  0  0
    3.8268    0.2116   -2.4264 C   0  0  0  0  0  0  0  0  0  0  0  0
    2.4678    0.0284   -2.6988 C   0  0  0  0  0  0  0  0  0  0  0  0
   -1.2059    0.9327   -0.3207 C   0  0  0  0  0  0  0  0  0  0  0  0
   -0.5948    2.1376    0.0840 C   0  0  0  0  0  0  0  0  0  0  0  0
   -1.3155    2.8073    0.9918 N   0  0  0  0  0  0  0  0  0  0  0  0
   -2.4162    2.0348    1.1422 N   0  0  0  0  0  0  0  0  0  0  0  0
   -3.4623    2.4584    2.0383 C   0  0  0  0  0  0  0  0  0  0  0  0
   -2.3976    0.9019    0.3755 C   0  0  0  0  0  0  0  0  0  0  0  0
   -3.3426   -0.0462    0.2985 N   0  0  0  0  0  0  0  0  0  0  0  0
   -6.1237   -0.3500    1.3870 H   0  0  0  0  0  0  0  0  0  0  0  0
   -7.5822   -0.5855    0.4019 H   0  0  0  0  0  0  0  0  0  0  0  0
   -6.0849   -0.1283   -0.3825 H   0  0  0  0  0  0  0  0  0  0  0  0
   -6.7068   -2.7811    1.0188 H   0  0  0  0  0  0  0  0  0  0  0  0
   -5.9920   -2.2796   -1.6587 H   0  0  0  0  0  0  0  0  0  0  0  0
   -4.5526   -3.6172    0.3789 H   0  0  0  0  0  0  0  0  0  0  0  0
   -4.2503   -2.1663    1.3213 H   0  0  0  0  0  0  0  0  0  0  0  0
   -3.4076   -2.7587   -1.2919 H   0  0  0  0  0  0  0  0  0  0  0  0
    0.0492   -1.0840   -2.5901 H   0  0  0  0  0  0  0  0  0  0  0  0
    1.3331   -0.1716    0.4948 H   0  0  0  0  0  0  0  0  0  0  0  0
    3.6799    0.1576    0.9693 H   0  0  0  0  0  0  0  0  0  0  0  0
    5.5111    1.3082    0.9255 H   0  0  0  0  0  0  0  0  0  0  0  0
    7.9328    1.8244    1.0144 H   0  0  0  0  0  0  0  0  0  0  0  0
    7.1703    2.5130   -0.4364 H   0  0  0  0  0  0  0  0  0  0  0  0
    8.1565    1.0653   -0.5803 H   0  0  0  0  0  0  0  0  0  0  0  0
    7.0570   -0.4047    1.9455 H   0  0  0  0  0  0  0  0  0  0  0  0
    5.7043   -1.2221    1.1404 H   0  0  0  0  0  0  0  0  0  0  0  0
    7.2698   -1.1632    0.3504 H   0  0  0  0  0  0  0  0  0  0  0  0
    4.5309    0.3091   -3.2493 H   0  0  0  0  0  0  0  0  0  0  0  0
    2.1381   -0.0051   -3.7345 H   0  0  0  0  0  0  0  0  0  0  0  0
    0.3491    2.5533   -0.2457 H   0  0  0  0  0  0  0  0  0  0  0  0
   -3.0334    2.5773    3.0365 H   0  0  0  0  0  0  0  0  0  0  0  0
   -4.2582    1.7109    2.0652 H   0  0  0  0  0  0  0  0  0  0  0  0
   -3.8593    3.4104    1.6769 H   0  0  0  0  0  0  0  0  0  0  0  0
  1  2  1  0
  2  3  1  0
  2  4  1  0
  4  5  1  0
  5  6  1  0
  6  7  2  0
  7  8  1  0
  8  9  1  0
  9 10  1  0
 10 11  2  0
 11 12  1  0
 12 13  2  0
 13 14  1  0
 14 15  1  0
 15 16  1  0
 15 17  1  0
 13 18  1  0
 18 19  2  0
  8 20  2  0
 20 21  1  0
 21 22  2  0
 22 23  1  0
 23 24  1  0
 23 25  1  0
 25 26  2  0
 26  6  1  0
 19 10  1  0
 25 20  1  0
  1 27  1  0
  1 28  1  0
  1 29  1  0
  2 30  1  0
  3 31  1  0
  4 32  1  0
  4 33  1  0
  5 34  1  0
  9 35  1  0
 11 36  1  0
 12 37  1  0
 15 38  1  0
 16 39  1  0
 16 40  1  0
 16 41  1  0
 17 42  1  0
 17 43  1  0
 17 44  1  0
 18 45  1  0
 19 46  1  0
 21 47  1  0
 24 48  1  0
 24 49  1  0
 24 50  1  0
M  END
>  <ScrubInfo>  (1) 
{"isomerGroup": 0, "isomerId": 0, "confId": 0, "nr_conformers:": 1, "nr_isomers:": 9}

$$$$
_i1
     RDKit          3D

 50 52  0  0  0  0  0  0  0  0999 V2000
    2.0691    1.2697   -0.1276 N   0  0  0  0  0  0  0  0  0  0  0  0
    0.9999    0.6498    0.4870 C   0  0  0  0  0  0  0  0  0  0  0  0
   -0.0430    1.3872    1.0130 N   0  0  0  0  0  0  0  0  0  0  0  0
   -1.4219    1.2112    0.7599 C   0  0  0  0  0  0  0  0  0  0  0  0
   -1.9294    0.3514   -0.2209 C   0  0  0  0  0  0  0  0  0  0  0  0
   -3.3110    0.1879   -0.3988 C   0  0  0  0  0  0  0  0  0  0  0  0
   -4.2108    0.8750    0.4109 C   0  0  0  0  0  0  0  0  0  0  0  0
   -5.5731    0.8161    0.3483 O   0  0  0  0  0  0  0  0  0  0  0  0
   -6.1944   -0.1470   -0.5091 C   0  0  0  0  0  0  0  0  0  0  0  0
   -6.4057    0.4527   -1.8961 C   0  0  0  0  0  0  0  0  0  0  0  0
   -7.5426   -0.4898    0.1215 C   0  0  0  0  0  0  0  0  0  0  0  0
   -3.7137    1.7340    1.3912 C   0  0  0  0  0  0  0  0  0  0  0  0
   -2.3364    1.8973    1.5678 C   0  0  0  0  0  0  0  0  0  0  0  0
    1.1028   -0.6810    0.5953 C   0  0  0  0  0  0  0  0  0  0  0  0
    0.3530   -1.7847    1.2049 C   0  0  0  0  0  0  0  0  0  0  0  0
    0.9300   -2.9486    1.0362 N   0  0  0  0  0  0  0  0  0  0  0  0
    2.0780   -2.6915    0.2668 N   0  0  0  0  0  0  0  0  0  0  0  0
    3.1055   -3.7024    0.1959 C   0  0  0  0  0  0  0  0  0  0  0  0
    2.2878   -1.3456    0.0125 C   0  0  0  0  0  0  0  0  0  0  0  0
    3.2686   -0.7497   -0.5770 N   0  0  0  0  0  0  0  0  0  0  0  0
    3.1516    0.6182   -0.6618 C   0  0  0  0  0  0  0  0  0  0  0  0
    4.0653    1.3242   -1.2411 N   0  0  0  0  0  0  0  0  0  0  0  0
    5.2210    0.6350   -1.8404 C   0  0  0  0  0  0  0  0  0  0  0  0
    6.4665    0.8556   -0.9678 C   0  0  0  0  0  0  0  0  0  0  0  0
    6.4125    0.1105    0.3581 C   0  0  0  0  0  0  0  0  0  0  0  0
    6.6100    2.2536   -0.6974 O   0  0  0  0  0  0  0  0  0  0  0  0
    2.0270    2.2633   -0.2907 H   0  0  0  0  0  0  0  0  0  0  0  0
    0.1795    2.3708    1.1392 H   0  0  0  0  0  0  0  0  0  0  0  0
   -1.2650   -0.1883   -0.8906 H   0  0  0  0  0  0  0  0  0  0  0  0
   -3.6418   -0.4760   -1.1901 H   0  0  0  0  0  0  0  0  0  0  0  0
   -5.6168   -1.0768   -0.5635 H   0  0  0  0  0  0  0  0  0  0  0  0
   -6.9282   -0.2484   -2.5543 H   0  0  0  0  0  0  0  0  0  0  0  0
   -6.9893    1.3783   -1.8368 H   0  0  0  0  0  0  0  0  0  0  0  0
   -5.4523    0.7165   -2.3639 H   0  0  0  0  0  0  0  0  0  0  0  0
   -8.0889   -1.2224   -0.4804 H   0  0  0  0  0  0  0  0  0  0  0  0
   -7.3981   -0.9024    1.1260 H   0  0  0  0  0  0  0  0  0  0  0  0
   -8.1639    0.4056    0.2361 H   0  0  0  0  0  0  0  0  0  0  0  0
   -4.4057    2.2769    2.0309 H   0  0  0  0  0  0  0  0  0  0  0  0
   -1.9858    2.5592    2.3561 H   0  0  0  0  0  0  0  0  0  0  0  0
   -0.5773   -1.6053    1.7589 H   0  0  0  0  0  0  0  0  0  0  0  0
    3.7207   -3.5710   -0.7000 H   0  0  0  0  0  0  0  0  0  0  0  0
    3.7547   -3.6484    1.0754 H   0  0  0  0  0  0  0  0  0  0  0  0
    2.6625   -4.7027    0.1525 H   0  0  0  0  0  0  0  0  0  0  0  0
    5.3905    1.1103   -2.8142 H   0  0  0  0  0  0  0  0  0  0  0  0
    5.0663   -0.4297   -2.0445 H   0  0  0  0  0  0  0  0  0  0  0  0
    7.3552    0.5334   -1.5208 H   0  0  0  0  0  0  0  0  0  0  0  0
    6.2760   -0.9642    0.2059 H   0  0  0  0  0  0  0  0  0  0  0  0
    5.6067    0.4853    0.9978 H   0  0  0  0  0  0  0  0  0  0  0  0
    7.3431    0.2662    0.9150 H   0  0  0  0  0  0  0  0  0  0  0  0
    5.6913    2.5806   -0.6182 H   0  0  0  0  0  0  0  0  0  0  0  0
  1  2  1  0
  2  3  1  0
  3  4  1  0
  4  5  2  0
  5  6  1  0
  6  7  2  0
  7  8  1  0
  8  9  1  0
  9 10  1  0
  9 11  1  0
  7 12  1  0
 12 13  2  0
  2 14  2  0
 14 15  1  0
 15 16  2  0
 16 17  1  0
 17 18  1  0
 17 19  1  0
 19 20  2  0
 20 21  1  0
 21 22  2  3
 22 23  1  0
 23 24  1  0
 24 25  1  0
 24 26  1  0
 21  1  1  0
 13  4  1  0
 19 14  1  0
  1 27  1  0
  3 28  1  0
  5 29  1  0
  6 30  1  0
  9 31  1  0
 10 32  1  0
 10 33  1  0
 10 34  1  0
 11 35  1  0
 11 36  1  0
 11 37  1  0
 12 38  1  0
 13 39  1  0
 15 40  1  0
 18 41  1  0
 18 42  1  0
 18 43  1  0
 23 44  1  0
 23 45  1  0
 24 46  1  0
 25 47  1  0
 25 48  1  0
 25 49  1  0
 26 50  1  0
M  END
>  <ScrubInfo>  (2) 
{"isomerGroup": 0, "isomerId": 1, "confId": 0, "nr_conformers:": 1, "nr_isomers:": 9}

$$$$
_i2
     RDKit          3D

 50 52  0  0  0  0  0  0  0  0999 V2000
   -0.8776    1.0345   -0.0464 N   0  0  0  0  0  0  0  0  0  0  0  0
   -2.2409    0.8810   -0.1800 C   0  0  0  0  0  0  0  0  0  0  0  0
   -2.5935   -0.3854   -0.5564 N   0  0  0  0  0  0  0  0  0  0  0  0
   -3.9777   -0.7061   -0.8924 C   0  0  0  0  0  0  0  0  0  0  0  0
   -4.0514   -2.1651   -1.3728 C   0  0  0  0  0  0  0  0  0  0  0  0
   -5.4660   -2.5610   -1.7679 C   0  0  0  0  0  0  0  0  0  0  0  0
   -3.1759   -2.3402   -2.4967 O   0  0  0  0  0  0  0  0  0  0  0  0
   -3.1125    1.8333    0.0418 N   0  0  0  0  0  0  0  0  0  0  0  0
   -2.5032    2.9971    0.4044 C   0  0  0  0  0  0  0  0  0  0  0  0
   -1.1526    3.2385    0.5613 C   0  0  0  0  0  0  0  0  0  0  0  0
   -1.0571    4.5840    0.9405 C   0  0  0  0  0  0  0  0  0  0  0  0
   -2.2576    5.1737    1.0215 N   0  0  0  0  0  0  0  0  0  0  0  0
   -3.1226    4.1813    0.6931 N   0  0  0  0  0  0  0  0  0  0  0  0
   -4.5373    4.4542    0.6804 C   0  0  0  0  0  0  0  0  0  0  0  0
   -0.2063    2.1763    0.3382 C   0  0  0  0  0  0  0  0  0  0  0  0
    1.0498    2.4123    0.5228 N   0  0  0  0  0  0  0  0  0  0  0  0
    1.9479    1.3622    0.3038 C   0  0  0  0  0  0  0  0  0  0  0  0
    2.3486    0.5477    1.3641 C   0  0  0  0  0  0  0  0  0  0  0  0
    3.2374   -0.5134    1.1538 C   0  0  0  0  0  0  0  0  0  0  0  0
    3.7389   -0.7636   -0.1227 C   0  0  0  0  0  0  0  0  0  0  0  0
    4.6075   -1.7560   -0.4762 O   0  0  0  0  0  0  0  0  0  0  0  0
    5.0179   -2.7148    0.5039 C   0  0  0  0  0  0  0  0  0  0  0  0
    6.2350   -2.1963    1.2645 C   0  0  0  0  0  0  0  0  0  0  0  0
    5.3831   -3.9883   -0.2564 C   0  0  0  0  0  0  0  0  0  0  0  0
    3.3534    0.0670   -1.1791 C   0  0  0  0  0  0  0  0  0  0  0  0
    2.4680    1.1267   -0.9682 C   0  0  0  0  0  0  0  0  0  0  0  0
   -0.3174    0.2017   -0.1227 H   0  0  0  0  0  0  0  0  0  0  0  0
   -1.9473   -0.8538   -1.1876 H   0  0  0  0  0  0  0  0  0  0  0  0
   -4.3119   -0.0381   -1.6954 H   0  0  0  0  0  0  0  0  0  0  0  0
   -4.6231   -0.5601   -0.0193 H   0  0  0  0  0  0  0  0  0  0  0  0
   -3.6907   -2.8338   -0.5832 H   0  0  0  0  0  0  0  0  0  0  0  0
   -6.1532   -2.4739   -0.9210 H   0  0  0  0  0  0  0  0  0  0  0  0
   -5.8370   -1.9337   -2.5859 H   0  0  0  0  0  0  0  0  0  0  0  0
   -5.4853   -3.5943   -2.1303 H   0  0  0  0  0  0  0  0  0  0  0  0
   -3.5637   -1.8662   -3.2539 H   0  0  0  0  0  0  0  0  0  0  0  0
   -0.1671    5.1591    1.1611 H   0  0  0  0  0  0  0  0  0  0  0  0
   -5.0914    3.5557    0.4004 H   0  0  0  0  0  0  0  0  0  0  0  0
   -4.7277    5.2478   -0.0466 H   0  0  0  0  0  0  0  0  0  0  0  0
   -4.8345    4.7748    1.6822 H   0  0  0  0  0  0  0  0  0  0  0  0
    1.9706    0.7456    2.3642 H   0  0  0  0  0  0  0  0  0  0  0  0
    3.5237   -1.1090    2.0133 H   0  0  0  0  0  0  0  0  0  0  0  0
    4.2015   -2.9704    1.1887 H   0  0  0  0  0  0  0  0  0  0  0  0
    7.0488   -1.9453    0.5748 H   0  0  0  0  0  0  0  0  0  0  0  0
    5.9993   -1.2796    1.8135 H   0  0  0  0  0  0  0  0  0  0  0  0
    6.5997   -2.9397    1.9801 H   0  0  0  0  0  0  0  0  0  0  0  0
    5.7142   -4.7779    0.4250 H   0  0  0  0  0  0  0  0  0  0  0  0
    4.5185   -4.3550   -0.8206 H   0  0  0  0  0  0  0  0  0  0  0  0
    6.1771   -3.7977   -0.9872 H   0  0  0  0  0  0  0  0  0  0  0  0
    3.7533   -0.1082   -2.1751 H   0  0  0  0  0  0  0  0  0  0  0  0
    2.1883    1.7723   -1.7962 H   0  0  0  0  0  0  0  0  0  0  0  0
  1  2  1  0
  2  3  1  0
  3  4  1  0
  4  5  1  0
  5  6  1  0
  5  7  1  0
  2  8  2  0
  8  9  1  0
  9 10  2  0
 10 11  1  0
 11 12  2  0
 12 13  1  0
 13 14  1  0
 10 15  1  0
 15 16  2  3
 16 17  1  0
 17 18  2  0
 18 19  1  0
 19 20  2  0
 20 21  1  0
 21 22  1  0
 22 23  1  0
 22 24  1  0
 20 25  1  0
 25 26  2  0
 15  1  1  0
 26 17  1  0
 13  9  1  0
  1 27  1  0
  3 28  1  0
  4 29  1  0
  4 30  1  0
  5 31  1  0
  6 32  1  0
  6 33  1  0
  6 34  1  0
  7 35  1  0
 11 36  1  0
 14 37  1  0
 14 38  1  0
 14 39  1  0
 18 40  1  0
 19 41  1  0
 22 42  1  0
 23 43  1  0
 23 44  1  0
 23 45  1  0
 24 46  1  0
 24 47  1  0
 24 48  1  0
 25 49  1  0
 26 50  1  0
M  END
>  <ScrubInfo>  (3) 
{"isomerGroup": 0, "isomerId": 2, "confId": 0, "nr_conformers:": 1, "nr_isomers:": 9}

$$$$
_i3
     RDKit          3D

 50 52  0  0  0  0  0  0  0  0999 V2000
   -3.4034   -0.9582   -0.7769 N   0  0  0  0  0  0  0  0  0  0  0  0
   -3.1261    0.0778   -1.6502 C   0  0  0  0  0  0  0  0  0  0  0  0
   -3.9740    0.9229   -2.1204 N   0  0  0  0  0  0  0  0  0  0  0  0
   -5.4024    0.7840   -1.8254 C   0  0  0  0  0  0  0  0  0  0  0  0
   -5.7875    1.1890   -0.3933 C   0  0  0  0  0  0  0  0  0  0  0  0
   -5.1410    2.4875    0.0697 C   0  0  0  0  0  0  0  0  0  0  0  0
   -5.4593    0.1275    0.5186 O   0  0  0  0  0  0  0  0  0  0  0  0
   -1.8353    0.2997   -2.1137 N   0  0  0  0  0  0  0  0  0  0  0  0
   -0.8587   -0.4491   -1.6850 C   0  0  0  0  0  0  0  0  0  0  0  0
    0.4346   -0.3012   -2.1198 N   0  0  0  0  0  0  0  0  0  0  0  0
    1.5246    0.0134   -1.2677 C   0  0  0  0  0  0  0  0  0  0  0  0
    1.3684    0.5473    0.0145 C   0  0  0  0  0  0  0  0  0  0  0  0
    2.4878    0.8707    0.7881 C   0  0  0  0  0  0  0  0  0  0  0  0
    3.7807    0.6865    0.2937 C   0  0  0  0  0  0  0  0  0  0  0  0
    4.7727    1.0418    1.1617 O   0  0  0  0  0  0  0  0  0  0  0  0
    6.1347    1.0090    0.7238 C   0  0  0  0  0  0  0  0  0  0  0  0
    6.8872    2.0449    1.5567 C   0  0  0  0  0  0  0  0  0  0  0  0
    6.7254   -0.3779    0.9613 C   0  0  0  0  0  0  0  0  0  0  0  0
    3.9438    0.1709   -0.9893 C   0  0  0  0  0  0  0  0  0  0  0  0
    2.8234   -0.1534   -1.7651 C   0  0  0  0  0  0  0  0  0  0  0  0
   -1.1061   -1.5311   -0.7614 C   0  0  0  0  0  0  0  0  0  0  0  0
   -0.3756   -2.5323   -0.1037 C   0  0  0  0  0  0  0  0  0  0  0  0
   -1.1484   -3.2860    0.6964 N   0  0  0  0  0  0  0  0  0  0  0  0
   -2.3901   -2.7644    0.5311 N   0  0  0  0  0  0  0  0  0  0  0  0
   -3.5001   -3.3447    1.2423 C   0  0  0  0  0  0  0  0  0  0  0  0
   -2.3912   -1.7252   -0.3415 C   0  0  0  0  0  0  0  0  0  0  0  0
   -4.3103   -0.9073   -0.3129 H   0  0  0  0  0  0  0  0  0  0  0  0
   -5.9354    1.4376   -2.5260 H   0  0  0  0  0  0  0  0  0  0  0  0
   -5.7360   -0.2390   -2.0399 H   0  0  0  0  0  0  0  0  0  0  0  0
   -6.8777    1.2974   -0.3547 H   0  0  0  0  0  0  0  0  0  0  0  0
   -5.3450    3.3046   -0.6286 H   0  0  0  0  0  0  0  0  0  0  0  0
   -4.0576    2.3771    0.1844 H   0  0  0  0  0  0  0  0  0  0  0  0
   -5.5260    2.7714    1.0553 H   0  0  0  0  0  0  0  0  0  0  0  0
   -5.6824    0.4570    1.4095 H   0  0  0  0  0  0  0  0  0  0  0  0
    0.4380    0.3814   -2.8765 H   0  0  0  0  0  0  0  0  0  0  0  0
    0.3817    0.7309    0.4321 H   0  0  0  0  0  0  0  0  0  0  0  0
    2.3479    1.2781    1.7869 H   0  0  0  0  0  0  0  0  0  0  0  0
    6.2316    1.3065   -0.3264 H   0  0  0  0  0  0  0  0  0  0  0  0
    6.8051    1.8259    2.6272 H   0  0  0  0  0  0  0  0  0  0  0  0
    6.4551    3.0403    1.4057 H   0  0  0  0  0  0  0  0  0  0  0  0
    7.9467    2.0807    1.2852 H   0  0  0  0  0  0  0  0  0  0  0  0
    6.6297   -0.6682    2.0136 H   0  0  0  0  0  0  0  0  0  0  0  0
    7.7838   -0.4091    0.6846 H   0  0  0  0  0  0  0  0  0  0  0  0
    6.1968   -1.1394    0.3799 H   0  0  0  0  0  0  0  0  0  0  0  0
    4.9234   -0.0022   -1.4202 H   0  0  0  0  0  0  0  0  0  0  0  0
    2.9736   -0.5578   -2.7640 H   0  0  0  0  0  0  0  0  0  0  0  0
    0.6841   -2.7455   -0.1594 H   0  0  0  0  0  0  0  0  0  0  0  0
   -3.3757   -3.1272    2.3059 H   0  0  0  0  0  0  0  0  0  0  0  0
   -3.4975   -4.4241    1.0699 H   0  0  0  0  0  0  0  0  0  0  0  0
   -4.4382   -2.9185    0.8807 H   0  0  0  0  0  0  0  0  0  0  0  0
  1  2  1  0
  2  3  2  3
  3  4  1  0
  4  5  1  0
  5  6  1  0
  5  7  1  0
  2  8  1  0
  8  9  2  0
  9 10  1  0
 10 11  1  0
 11 12  2  0
 12 13  1  0
 13 14  2  0
 14 15  1  0
 15 16  1  0
 16 17  1  0
 16 18  1  0
 14 19  1  0
 19 20  2  0
  9 21  1  0
 21 22  1  0
 22 23  2  0
 23 24  1  0
 24 25  1  0
 24 26  1  0
 26  1  1  0
 20 11  1  0
 26 21  2  0
  1 27  1  0
  4 28  1  0
  4 29  1  0
  5 30  1  0
  6 31  1  0
  6 32  1  0
  6 33  1  0
  7 34  1  0
 10 35  1  0
 12 36  1  0
 13 37  1  0
 16 38  1  0
 17 39  1  0
 17 40  1  0
 17 41  1  0
 18 42  1  0
 18 43  1  0
 18 44  1  0
 19 45  1  0
 20 46  1  0
 22 47  1  0
 25 48  1  0
 25 49  1  0
 25 50  1  0
M  END
>  <ScrubInfo>  (4) 
{"isomerGroup": 0, "isomerId": 3, "confId": 0, "nr_conformers:": 1, "nr_isomers:": 9}

$$$$
_i4
     RDKit          3D

 50 52  0  0  0  0  0  0  0  0999 V2000
   -0.2319   -2.9286   -0.1001 N   0  0  0  0  0  0  0  0  0  0  0  0
    0.2930   -1.6491   -0.2521 C   0  0  0  0  0  0  0  0  0  0  0  0
   -0.6420   -0.7050   -0.4410 C   0  0  0  0  0  0  0  0  0  0  0  0
   -0.7337    0.7388   -0.6188 C   0  0  0  0  0  0  0  0  0  0  0  0
    0.1910    1.6361   -0.7097 N   0  0  0  0  0  0  0  0  0  0  0  0
    1.5388    1.2795   -0.6545 C   0  0  0  0  0  0  0  0  0  0  0  0
    2.2275    1.3170    0.5593 C   0  0  0  0  0  0  0  0  0  0  0  0
    3.5834    0.9734    0.6233 C   0  0  0  0  0  0  0  0  0  0  0  0
    4.2659    0.6005   -0.5339 C   0  0  0  0  0  0  0  0  0  0  0  0
    5.5801    0.2399   -0.6235 O   0  0  0  0  0  0  0  0  0  0  0  0
    6.3705    0.1591    0.5668 C   0  0  0  0  0  0  0  0  0  0  0  0
    7.4898   -0.8402    0.2808 C   0  0  0  0  0  0  0  0  0  0  0  0
    6.9651    1.5258    0.8941 C   0  0  0  0  0  0  0  0  0  0  0  0
    3.5825    0.5927   -1.7535 C   0  0  0  0  0  0  0  0  0  0  0  0
    2.2302    0.9379   -1.8165 C   0  0  0  0  0  0  0  0  0  0  0  0
   -2.0189    1.2071   -0.6922 N   0  0  0  0  0  0  0  0  0  0  0  0
   -3.0641    0.4359   -0.6574 C   0  0  0  0  0  0  0  0  0  0  0  0
   -4.2748    1.0535   -0.7471 N   0  0  0  0  0  0  0  0  0  0  0  0
   -5.5072    0.4564   -0.2763 C   0  0  0  0  0  0  0  0  0  0  0  0
   -6.6643    1.4554   -0.4498 C   0  0  0  0  0  0  0  0  0  0  0  0
   -7.9829    0.8746    0.0390 C   0  0  0  0  0  0  0  0  0  0  0  0
   -6.3924    2.6591    0.2795 O   0  0  0  0  0  0  0  0  0  0  0  0
   -3.0418   -0.9281   -0.5360 N   0  0  0  0  0  0  0  0  0  0  0  0
   -1.8886   -1.4933   -0.4516 C   0  0  0  0  0  0  0  0  0  0  0  0
   -1.5953   -2.8537   -0.3437 N   0  0  0  0  0  0  0  0  0  0  0  0
   -2.4882   -3.7604    0.3501 C   0  0  0  0  0  0  0  0  0  0  0  0
    0.2817   -3.6378   -0.6289 H   0  0  0  0  0  0  0  0  0  0  0  0
    1.3656   -1.5298   -0.2084 H   0  0  0  0  0  0  0  0  0  0  0  0
    1.7032    1.6231    1.4610 H   0  0  0  0  0  0  0  0  0  0  0  0
    4.0706    1.0257    1.5902 H   0  0  0  0  0  0  0  0  0  0  0  0
    5.7938   -0.2353    1.4109 H   0  0  0  0  0  0  0  0  0  0  0  0
    8.1483   -0.9591    1.1468 H   0  0  0  0  0  0  0  0  0  0  0  0
    8.0916   -0.5235   -0.5784 H   0  0  0  0  0  0  0  0  0  0  0  0
    7.0693   -1.8191    0.0259 H   0  0  0  0  0  0  0  0  0  0  0  0
    6.1811    2.2614    1.0986 H   0  0  0  0  0  0  0  0  0  0  0  0
    7.5422    1.9137    0.0472 H   0  0  0  0  0  0  0  0  0  0  0  0
    7.6205    1.4722    1.7689 H   0  0  0  0  0  0  0  0  0  0  0  0
    4.1104    0.3249   -2.6655 H   0  0  0  0  0  0  0  0  0  0  0  0
    1.7153    0.9456   -2.7732 H   0  0  0  0  0  0  0  0  0  0  0  0
   -4.2116    2.0621   -0.6356 H   0  0  0  0  0  0  0  0  0  0  0  0
   -5.7213   -0.4627   -0.8330 H   0  0  0  0  0  0  0  0  0  0  0  0
   -5.3953    0.2035    0.7848 H   0  0  0  0  0  0  0  0  0  0  0  0
   -6.7579    1.7366   -1.5047 H   0  0  0  0  0  0  0  0  0  0  0  0
   -8.2491   -0.0296   -0.5167 H   0  0  0  0  0  0  0  0  0  0  0  0
   -8.7888    1.6071   -0.0777 H   0  0  0  0  0  0  0  0  0  0  0  0
   -7.9332    0.6293    1.1056 H   0  0  0  0  0  0  0  0  0  0  0  0
   -6.2519    2.4216    1.2125 H   0  0  0  0  0  0  0  0  0  0  0  0
   -2.5422   -3.5142    1.4157 H   0  0  0  0  0  0  0  0  0  0  0  0
   -3.4965   -3.7079   -0.0732 H   0  0  0  0  0  0  0  0  0  0  0  0
   -2.1373   -4.7926    0.2491 H   0  0  0  0  0  0  0  0  0  0  0  0
  1  2  1  0
  2  3  2  0
  3  4  1  0
  4  5  2  3
  5  6  1  0
  6  7  2  0
  7  8  1  0
  8  9  2  0
  9 10  1  0
 10 11  1  0
 11 12  1  0
 11 13  1  0
  9 14  1  0
 14 15  2  0
  4 16  1  0
 16 17  2  0
 17 18  1  0
 18 19  1  0
 19 20  1  0
 20 21  1  0
 20 22  1  0
 17 23  1  0
 23 24  2  0
 24 25  1  0
 25 26  1  0
 25  1  1  0
 24  3  1  0
 15  6  1  0
  1 27  1  0
  2 28  1  0
  7 29  1  0
  8 30  1  0
 11 31  1  0
 12 32  1  0
 12 33  1  0
 12 34  1  0
 13 35  1  0
 13 36  1  0
 13 37  1  0
 14 38  1  0
 15 39  1  0
 18 40  1  0
 19 41  1  0
 19 42  1  0
 20 43  1  0
 21 44  1  0
 21 45  1  0
 21 46  1  0
 22 47  1  0
 26 48  1  0
 26 49  1  0
 26 50  1  0
M  END
>  <ScrubInfo>  (5) 
{"isomerGroup": 0, "isomerId": 4, "confId": 0, "nr_conformers:": 1, "nr_isomers:": 9}

$$$$
_i5
     RDKit          3D

 50 52  0  0  0  0  0  0  0  0999 V2000
   -3.1758   -1.7946   -0.4451 N   0  0  0  0  0  0  0  0  0  0  0  0
   -2.1801   -0.8731   -0.6721 C   0  0  0  0  0  0  0  0  0  0  0  0
   -2.5810    0.2809   -1.2823 N   0  0  0  0  0  0  0  0  0  0  0  0
   -3.6446    1.1037   -0.7132 C   0  0  0  0  0  0  0  0  0  0  0  0
   -4.0301    2.2657   -1.6462 C   0  0  0  0  0  0  0  0  0  0  0  0
   -2.9354    3.3187   -1.7755 C   0  0  0  0  0  0  0  0  0  0  0  0
   -5.2177    2.8952   -1.1546 O   0  0  0  0  0  0  0  0  0  0  0  0
   -0.9188   -1.0215   -0.3738 N   0  0  0  0  0  0  0  0  0  0  0  0
   -0.5044   -2.1988    0.2375 C   0  0  0  0  0  0  0  0  0  0  0  0
    0.7127   -2.4424    0.6054 N   0  0  0  0  0  0  0  0  0  0  0  0
    1.6839   -1.4596    0.3755 C   0  0  0  0  0  0  0  0  0  0  0  0
    2.0693   -0.6026    1.4079 C   0  0  0  0  0  0  0  0  0  0  0  0
    3.0615    0.3647    1.2044 C   0  0  0  0  0  0  0  0  0  0  0  0
    3.6845    0.4775   -0.0378 C   0  0  0  0  0  0  0  0  0  0  0  0
    4.6645    1.3659   -0.3792 O   0  0  0  0  0  0  0  0  0  0  0  0
    5.0542    2.3743    0.5580 C   0  0  0  0  0  0  0  0  0  0  0  0
    6.1568    1.8420    1.4688 C   0  0  0  0  0  0  0  0  0  0  0  0
    5.5789    3.5526   -0.2603 C   0  0  0  0  0  0  0  0  0  0  0  0
    3.3138   -0.3949   -1.0650 C   0  0  0  0  0  0  0  0  0  0  0  0
    2.3248   -1.3606   -0.8597 C   0  0  0  0  0  0  0  0  0  0  0  0
   -1.5087   -3.2060    0.4680 C   0  0  0  0  0  0  0  0  0  0  0  0
   -1.5314   -4.5023    0.9986 C   0  0  0  0  0  0  0  0  0  0  0  0
   -2.7618   -5.0420    0.9694 N   0  0  0  0  0  0  0  0  0  0  0  0
   -3.5278   -4.0723    0.4089 N   0  0  0  0  0  0  0  0  0  0  0  0
   -4.9352   -4.3133    0.2194 C   0  0  0  0  0  0  0  0  0  0  0  0
   -2.8055   -2.9617    0.1095 C   0  0  0  0  0  0  0  0  0  0  0  0
   -4.0609   -1.6453   -0.9105 H   0  0  0  0  0  0  0  0  0  0  0  0
   -1.7411    0.8362   -1.4422 H   0  0  0  0  0  0  0  0  0  0  0  0
   -3.3337    1.4933    0.2642 H   0  0  0  0  0  0  0  0  0  0  0  0
   -4.5409    0.4990   -0.5301 H   0  0  0  0  0  0  0  0  0  0  0  0
   -4.2680    1.8724   -2.6410 H   0  0  0  0  0  0  0  0  0  0  0  0
   -3.2873    4.1597   -2.3829 H   0  0  0  0  0  0  0  0  0  0  0  0
   -2.6681    3.7292   -0.7956 H   0  0  0  0  0  0  0  0  0  0  0  0
   -2.0335    2.9121   -2.2414 H   0  0  0  0  0  0  0  0  0  0  0  0
   -4.9819    3.4306   -0.3768 H   0  0  0  0  0  0  0  0  0  0  0  0
    1.5935   -0.6926    2.3804 H   0  0  0  0  0  0  0  0  0  0  0  0
    3.3258    0.9983    2.0428 H   0  0  0  0  0  0  0  0  0  0  0  0
    4.2011    2.7404    1.1403 H   0  0  0  0  0  0  0  0  0  0  0  0
    6.5087    2.6165    2.1572 H   0  0  0  0  0  0  0  0  0  0  0  0
    5.8064    0.9910    2.0609 H   0  0  0  0  0  0  0  0  0  0  0  0
    7.0089    1.4821    0.8813 H   0  0  0  0  0  0  0  0  0  0  0  0
    6.4190    3.2492   -0.8952 H   0  0  0  0  0  0  0  0  0  0  0  0
    5.9051    4.3728    0.3865 H   0  0  0  0  0  0  0  0  0  0  0  0
    4.7978    3.9272   -0.9310 H   0  0  0  0  0  0  0  0  0  0  0  0
    3.8008   -0.3251   -2.0342 H   0  0  0  0  0  0  0  0  0  0  0  0
    2.0507   -2.0355   -1.6649 H   0  0  0  0  0  0  0  0  0  0  0  0
   -0.7080   -5.0795    1.3998 H   0  0  0  0  0  0  0  0  0  0  0  0
   -5.4175   -3.4145   -0.1707 H   0  0  0  0  0  0  0  0  0  0  0  0
   -5.3742   -4.5776    1.1848 H   0  0  0  0  0  0  0  0  0  0  0  0
   -5.0500   -5.1356   -0.4911 H   0  0  0  0  0  0  0  0  0  0  0  0
  1  2  1  0
  2  3  1  0
  3  4  1  0
  4  5  1  0
  5  6  1  0
  5  7  1  0
  2  8  2  0
  8  9  1  0
  9 10  2  3
 10 11  1  0
 11 12  2  0
 12 13  1  0
 13 14  2  0
 14 15  1  0
 15 16  1  0
 16 17  1  0
 16 18  1  0
 14 19  1  0
 19 20  2  0
  9 21  1  0
 21 22  1  0
 22 23  2  0
 23 24  1  0
 24 25  1  0
 24 26  1  0
 26  1  1  0
 20 11  1  0
 26 21  2  0
  1 27  1  0
  3 28  1  0
  4 29  1  0
  4 30  1  0
  5 31  1  0
  6 32  1  0
  6 33  1  0
  6 34  1  0
  7 35  1  0
 12 36  1  0
 13 37  1  0
 16 38  1  0
 17 39  1  0
 17 40  1  0
 17 41  1  0
 18 42  1  0
 18 43  1  0
 18 44  1  0
 19 45  1  0
 20 46  1  0
 22 47  1  0
 25 48  1  0
 25 49  1  0
 25 50  1  0
M  END
>  <ScrubInfo>  (6) 
{"isomerGroup": 0, "isomerId": 5, "confId": 0, "nr_conformers:": 1, "nr_isomers:": 9}

$$$$
_i6
     RDKit          3D

 50 52  0  0  0  0  0  0  0  0999 V2000
   -0.7736   -1.6804   -3.3389 N   0  0  0  0  0  0  0  0  0  0  0  0
   -0.3981   -1.6101   -2.0021 C   0  0  0  0  0  0  0  0  0  0  0  0
   -1.2085   -0.8306   -1.2739 C   0  0  0  0  0  0  0  0  0  0  0  0
   -1.3656   -0.3977    0.1131 C   0  0  0  0  0  0  0  0  0  0  0  0
   -0.4980   -0.7488    1.1256 N   0  0  0  0  0  0  0  0  0  0  0  0
    0.9070   -0.6182    1.0472 C   0  0  0  0  0  0  0  0  0  0  0  0
    1.5409    0.3234    0.2282 C   0  0  0  0  0  0  0  0  0  0  0  0
    2.9370    0.4477    0.2192 C   0  0  0  0  0  0  0  0  0  0  0  0
    3.7193   -0.3550    1.0456 C   0  0  0  0  0  0  0  0  0  0  0  0
    5.0813   -0.3481    1.1356 O   0  0  0  0  0  0  0  0  0  0  0  0
    5.8248    0.6673    0.4538 C   0  0  0  0  0  0  0  0  0  0  0  0
    7.1076    0.8831    1.2542 C   0  0  0  0  0  0  0  0  0  0  0  0
    6.1648    0.2019   -0.9591 C   0  0  0  0  0  0  0  0  0  0  0  0
    3.0901   -1.2806    1.8799 C   0  0  0  0  0  0  0  0  0  0  0  0
    1.6979   -1.4029    1.8914 C   0  0  0  0  0  0  0  0  0  0  0  0
   -2.4063    0.3287    0.4201 N   0  0  0  0  0  0  0  0  0  0  0  0
   -3.2921    0.6795   -0.5786 C   0  0  0  0  0  0  0  0  0  0  0  0
   -4.3555    1.3380   -0.2795 N   0  0  0  0  0  0  0  0  0  0  0  0
   -4.5907    1.7136    1.1204 C   0  0  0  0  0  0  0  0  0  0  0  0
   -5.3629    0.5854    1.8186 C   0  0  0  0  0  0  0  0  0  0  0  0
   -5.7373    0.9555    3.2437 C   0  0  0  0  0  0  0  0  0  0  0  0
   -6.5646    0.3196    1.0885 O   0  0  0  0  0  0  0  0  0  0  0  0
   -3.1827    0.3944   -1.9178 N   0  0  0  0  0  0  0  0  0  0  0  0
   -2.1780   -0.3292   -2.2693 C   0  0  0  0  0  0  0  0  0  0  0  0
   -1.8149   -0.7793   -3.5392 N   0  0  0  0  0  0  0  0  0  0  0  0
   -2.8250   -1.0772   -4.5377 C   0  0  0  0  0  0  0  0  0  0  0  0
    0.0120   -1.6168   -3.9903 H   0  0  0  0  0  0  0  0  0  0  0  0
    0.4721   -2.1574   -1.6677 H   0  0  0  0  0  0  0  0  0  0  0  0
   -0.8210   -0.3795    2.0177 H   0  0  0  0  0  0  0  0  0  0  0  0
    0.9615    0.9894   -0.4071 H   0  0  0  0  0  0  0  0  0  0  0  0
    3.3735    1.1837   -0.4472 H   0  0  0  0  0  0  0  0  0  0  0  0
    5.2887    1.6230    0.4377 H   0  0  0  0  0  0  0  0  0  0  0  0
    7.7408    1.6472    0.7931 H   0  0  0  0  0  0  0  0  0  0  0  0
    7.6817   -0.0465    1.3380 H   0  0  0  0  0  0  0  0  0  0  0  0
    6.8693    1.1982    2.2760 H   0  0  0  0  0  0  0  0  0  0  0  0
    6.7798    0.9413   -1.4813 H   0  0  0  0  0  0  0  0  0  0  0  0
    5.2593    0.0309   -1.5493 H   0  0  0  0  0  0  0  0  0  0  0  0
    6.7058   -0.7508   -0.9370 H   0  0  0  0  0  0  0  0  0  0  0  0
    3.6900   -1.9109    2.5326 H   0  0  0  0  0  0  0  0  0  0  0  0
    1.2365   -2.1304    2.5553 H   0  0  0  0  0  0  0  0  0  0  0  0
   -5.2046    2.6224    1.1042 H   0  0  0  0  0  0  0  0  0  0  0  0
   -3.6720    1.9716    1.6597 H   0  0  0  0  0  0  0  0  0  0  0  0
   -4.7745   -0.3385    1.8219 H   0  0  0  0  0  0  0  0  0  0  0  0
   -6.3812    1.8417    3.2633 H   0  0  0  0  0  0  0  0  0  0  0  0
   -6.3057    0.1447    3.7119 H   0  0  0  0  0  0  0  0  0  0  0  0
   -4.8479    1.1536    3.8494 H   0  0  0  0  0  0  0  0  0  0  0  0
   -6.3111    0.4294    0.1486 H   0  0  0  0  0  0  0  0  0  0  0  0
   -3.4703   -0.2087   -4.7039 H   0  0  0  0  0  0  0  0  0  0  0  0
   -3.4468   -1.9216   -4.2223 H   0  0  0  0  0  0  0  0  0  0  0  0
   -2.3527   -1.3303   -5.4924 H   0  0  0  0  0  0  0  0  0  0  0  0
  1  2  1  0
  2  3  2  0
  3  4  1  0
  4  5  1  0
  5  6  1  0
  6  7  2  0
  7  8  1  0
  8  9  2  0
  9 10  1  0
 10 11  1  0
 11 12  1  0
 11 13  1  0
  9 14  1  0
 14 15  2  0
  4 16  2  0
 16 17  1  0
 17 18  2  3
 18 19  1  0
 19 20  1  0
 20 21  1  0
 20 22  1  0
 17 23  1  0
 23 24  2  0
 24 25  1  0
 25 26  1  0
 25  1  1  0
 24  3  1  0
 15  6  1  0
  1 27  1  0
  2 28  1  0
  5 29  1  0
  7 30  1  0
  8 31  1  0
 11 32  1  0
 12 33  1  0
 12 34  1  0
 12 35  1  0
 13 36  1  0
 13 37  1  0
 13 38  1  0
 14 39  1  0
 15 40  1  0
 19 41  1  0
 19 42  1  0
 20 43  1  0
 21 44  1  0
 21 45  1  0
 21 46  1  0
 22 47  1  0
 26 48  1  0
 26 49  1  0
 26 50  1  0
M  END
>  <ScrubInfo>  (7) 
{"isomerGroup": 0, "isomerId": 6, "confId": 0, "nr_conformers:": 1, "nr_isomers:": 9}

$$$$
_i7
     RDKit          3D

 50 52  0  0  0  0  0  0  0  0999 V2000
   -0.6634   -2.2674   -1.4057 N   0  0  0  0  0  0  0  0  0  0  0  0
    0.0152   -1.4043   -0.5531 C   0  0  0  0  0  0  0  0  0  0  0  0
   -0.7811   -0.5074    0.0458 C   0  0  0  0  0  0  0  0  0  0  0  0
   -0.7145    0.5927    1.0282 C   0  0  0  0  0  0  0  0  0  0  0  0
    0.3190    1.0879    1.6427 N   0  0  0  0  0  0  0  0  0  0  0  0
    1.5999    0.5837    1.4078 C   0  0  0  0  0  0  0  0  0  0  0  0
    2.1109   -0.4461    2.1945 C   0  0  0  0  0  0  0  0  0  0  0  0
    3.3994   -0.9332    1.9600 C   0  0  0  0  0  0  0  0  0  0  0  0
    4.2053   -0.3894    0.9530 C   0  0  0  0  0  0  0  0  0  0  0  0
    5.4262   -0.9794    0.8515 O   0  0  0  0  0  0  0  0  0  0  0  0
    6.4543   -0.5540   -0.0468 C   0  0  0  0  0  0  0  0  0  0  0  0
    6.1322   -0.8206   -1.5139 C   0  0  0  0  0  0  0  0  0  0  0  0
    6.9896    0.8451    0.2424 C   0  0  0  0  0  0  0  0  0  0  0  0
    3.7014    0.6560    0.1864 C   0  0  0  0  0  0  0  0  0  0  0  0
    2.4085    1.1443    0.4182 C   0  0  0  0  0  0  0  0  0  0  0  0
   -1.9476    1.1255    1.2909 N   0  0  0  0  0  0  0  0  0  0  0  0
   -3.1456    0.7550    0.7502 C   0  0  0  0  0  0  0  0  0  0  0  0
   -4.2144    1.3718    1.1381 N   0  0  0  0  0  0  0  0  0  0  0  0
   -5.5046    0.9503    0.5636 C   0  0  0  0  0  0  0  0  0  0  0  0
   -5.7662    1.7300   -0.7331 C   0  0  0  0  0  0  0  0  0  0  0  0
   -7.1204    1.3885   -1.3315 C   0  0  0  0  0  0  0  0  0  0  0  0
   -5.7387    3.1327   -0.4489 O   0  0  0  0  0  0  0  0  0  0  0  0
   -3.2300   -0.2384   -0.2008 N   0  0  0  0  0  0  0  0  0  0  0  0
   -2.1275   -0.8258   -0.5500 C   0  0  0  0  0  0  0  0  0  0  0  0
   -1.9780   -1.8363   -1.5028 N   0  0  0  0  0  0  0  0  0  0  0  0
   -3.0258   -2.8137   -1.7290 C   0  0  0  0  0  0  0  0  0  0  0  0
   -0.1744   -2.4360   -2.2879 H   0  0  0  0  0  0  0  0  0  0  0  0
    1.0832   -1.5273   -0.4485 H   0  0  0  0  0  0  0  0  0  0  0  0
    1.5073   -0.8710    2.9914 H   0  0  0  0  0  0  0  0  0  0  0  0
    3.7840   -1.7423    2.5771 H   0  0  0  0  0  0  0  0  0  0  0  0
    7.2861   -1.2311    0.1895 H   0  0  0  0  0  0  0  0  0  0  0  0
    5.3798   -0.1382   -1.9141 H   0  0  0  0  0  0  0  0  0  0  0  0
    5.7422   -1.8361   -1.6408 H   0  0  0  0  0  0  0  0  0  0  0  0
    7.0306   -0.7136   -2.1307 H   0  0  0  0  0  0  0  0  0  0  0  0
    6.2969    1.6344   -0.0566 H   0  0  0  0  0  0  0  0  0  0  0  0
    7.9285    1.0158   -0.2947 H   0  0  0  0  0  0  0  0  0  0  0  0
    7.1748    0.9697    1.3146 H   0  0  0  0  0  0  0  0  0  0  0  0
    4.2757    1.1293   -0.5984 H   0  0  0  0  0  0  0  0  0  0  0  0
    2.0305    1.9717   -0.1768 H   0  0  0  0  0  0  0  0  0  0  0  0
   -1.9846    1.8674    1.9737 H   0  0  0  0  0  0  0  0  0  0  0  0
   -5.5695   -0.1329    0.4078 H   0  0  0  0  0  0  0  0  0  0  0  0
   -6.2739    1.2022    1.3037 H   0  0  0  0  0  0  0  0  0  0  0  0
   -4.9798    1.5324   -1.4692 H   0  0  0  0  0  0  0  0  0  0  0  0
   -7.1869    0.3257   -1.5830 H   0  0  0  0  0  0  0  0  0  0  0  0
   -7.2948    1.9745   -2.2404 H   0  0  0  0  0  0  0  0  0  0  0  0
   -7.9307    1.6375   -0.6376 H   0  0  0  0  0  0  0  0  0  0  0  0
   -5.0182    3.2379    0.2033 H   0  0  0  0  0  0  0  0  0  0  0  0
   -3.1744   -3.4370   -0.8411 H   0  0  0  0  0  0  0  0  0  0  0  0
   -3.9709   -2.3171   -1.9712 H   0  0  0  0  0  0  0  0  0  0  0  0
   -2.7653   -3.4635   -2.5708 H   0  0  0  0  0  0  0  0  0  0  0  0
  1  2  1  0
  2  3  2  0
  3  4  1  0
  4  5  2  3
  5  6  1  0
  6  7  2  0
  7  8  1  0
  8  9  2  0
  9 10  1  0
 10 11  1  0
 11 12  1  0
 11 13  1  0
  9 14  1  0
 14 15  2  0
  4 16  1  0
 16 17  1  0
 17 18  2  3
 18 19  1  0
 19 20  1  0
 20 21  1  0
 20 22  1  0
 17 23  1  0
 23 24  2  0
 24 25  1  0
 25 26  1  0
 25  1  1  0
 24  3  1  0
 15  6  1  0
  1 27  1  0
  2 28  1  0
  7 29  1  0
  8 30  1  0
 11 31  1  0
 12 32  1  0
 12 33  1  0
 12 34  1  0
 13 35  1  0
 13 36  1  0
 13 37  1  0
 14 38  1  0
 15 39  1  0
 16 40  1  0
 19 41  1  0
 19 42  1  0
 20 43  1  0
 21 44  1  0
 21 45  1  0
 21 46  1  0
 22 47  1  0
 26 48  1  0
 26 49  1  0
 26 50  1  0
M  END
>  <ScrubInfo>  (8) 
{"isomerGroup": 0, "isomerId": 7, "confId": 0, "nr_conformers:": 1, "nr_isomers:": 9}

$$$$
_i8
     RDKit          3D

 50 52  0  0  0  0  0  0  0  0999 V2000
   -3.2194   -0.9063   -0.2631 N   0  0  0  0  0  0  0  0  0  0  0  0
   -2.2287    0.0579   -0.3266 C   0  0  0  0  0  0  0  0  0  0  0  0
   -2.3716    1.3274   -0.5099 N   0  0  0  0  0  0  0  0  0  0  0  0
   -3.7087    1.8741   -0.7820 C   0  0  0  0  0  0  0  0  0  0  0  0
   -4.6381    1.9127    0.4427 C   0  0  0  0  0  0  0  0  0  0  0  0
   -3.9586    2.4117    1.7106 C   0  0  0  0  0  0  0  0  0  0  0  0
   -5.2024    0.6109    0.6701 O   0  0  0  0  0  0  0  0  0  0  0  0
   -0.9522   -0.4477   -0.1659 N   0  0  0  0  0  0  0  0  0  0  0  0
   -0.5092   -1.7390    0.0499 C   0  0  0  0  0  0  0  0  0  0  0  0
    0.6821   -2.2199    0.1897 N   0  0  0  0  0  0  0  0  0  0  0  0
    1.7589   -1.3297    0.1159 C   0  0  0  0  0  0  0  0  0  0  0  0
    2.2309   -0.6934    1.2630 C   0  0  0  0  0  0  0  0  0  0  0  0
    3.3026    0.1990    1.1803 C   0  0  0  0  0  0  0  0  0  0  0  0
    3.9219    0.4605   -0.0454 C   0  0  0  0  0  0  0  0  0  0  0  0
    4.9545    1.3514    0.0247 O   0  0  0  0  0  0  0  0  0  0  0  0
    5.5926    1.7830   -1.1814 C   0  0  0  0  0  0  0  0  0  0  0  0
    6.1455    3.1803   -0.9081 C   0  0  0  0  0  0  0  0  0  0  0  0
    6.7326    0.8327   -1.5364 C   0  0  0  0  0  0  0  0  0  0  0  0
    3.4651   -0.1936   -1.1887 C   0  0  0  0  0  0  0  0  0  0  0  0
    2.3903   -1.0870   -1.1050 C   0  0  0  0  0  0  0  0  0  0  0  0
   -1.6213   -2.6563    0.1290 C   0  0  0  0  0  0  0  0  0  0  0  0
   -1.7669   -4.0317    0.3629 C   0  0  0  0  0  0  0  0  0  0  0  0
   -3.0537   -4.4158    0.3658 N   0  0  0  0  0  0  0  0  0  0  0  0
   -3.7337   -3.2679    0.1215 N   0  0  0  0  0  0  0  0  0  0  0  0
   -5.1725   -3.2986    0.0520 C   0  0  0  0  0  0  0  0  0  0  0  0
   -2.9056   -2.1986   -0.0256 C   0  0  0  0  0  0  0  0  0  0  0  0
   -4.1728   -0.5488   -0.1750 H   0  0  0  0  0  0  0  0  0  0  0  0
   -3.5611    2.9008   -1.1371 H   0  0  0  0  0  0  0  0  0  0  0  0
   -4.1791    1.3237   -1.6063 H   0  0  0  0  0  0  0  0  0  0  0  0
   -5.4813    2.5716    0.2049 H   0  0  0  0  0  0  0  0  0  0  0  0
   -3.4889    3.3871    1.5526 H   0  0  0  0  0  0  0  0  0  0  0  0
   -3.2023    1.7037    2.0652 H   0  0  0  0  0  0  0  0  0  0  0  0
   -4.6911    2.5081    2.5195 H   0  0  0  0  0  0  0  0  0  0  0  0
   -5.7433    0.6855    1.4786 H   0  0  0  0  0  0  0  0  0  0  0  0
   -0.2374    0.2626   -0.2223 H   0  0  0  0  0  0  0  0  0  0  0  0
    1.7665   -0.8948    2.2243 H   0  0  0  0  0  0  0  0  0  0  0  0
    3.6617    0.6912    2.0809 H   0  0  0  0  0  0  0  0  0  0  0  0
    4.8800    1.8737   -2.0089 H   0  0  0  0  0  0  0  0  0  0  0  0
    6.8461    3.1698   -0.0655 H   0  0  0  0  0  0  0  0  0  0  0  0
    6.6579    3.5847   -1.7865 H   0  0  0  0  0  0  0  0  0  0  0  0
    5.3339    3.8629   -0.6332 H   0  0  0  0  0  0  0  0  0  0  0  0
    7.4446    0.7500   -0.7075 H   0  0  0  0  0  0  0  0  0  0  0  0
    7.2700    1.1754   -2.4261 H   0  0  0  0  0  0  0  0  0  0  0  0
    6.3613   -0.1785   -1.7288 H   0  0  0  0  0  0  0  0  0  0  0  0
    3.9254   -0.0482   -2.1593 H   0  0  0  0  0  0  0  0  0  0  0  0
    2.0459   -1.6024   -1.9980 H   0  0  0  0  0  0  0  0  0  0  0  0
   -0.9933   -4.7682    0.5391 H   0  0  0  0  0  0  0  0  0  0  0  0
   -5.5630   -3.2444    1.0710 H   0  0  0  0  0  0  0  0  0  0  0  0
   -5.4845   -4.2304   -0.4269 H   0  0  0  0  0  0  0  0  0  0  0  0
   -5.5297   -2.4513   -0.5375 H   0  0  0  0  0  0  0  0  0  0  0  0
  1  2  1  0
  2  3  2  3
  3  4  1  0
  4  5  1  0
  5  6  1  0
  5  7  1  0
  2  8  1  0
  8  9  1  0
  9 10  2  3
 10 11  1  0
 11 12  2  0
 12 13  1  0
 13 14  2  0
 14 15  1  0
 15 16  1  0
 16 17  1  0
 16 18  1  0
 14 19  1  0
 19 20  2  0
  9 21  1  0
 21 22  1  0
 22 23  2  0
 23 24  1  0
 24 25  1  0
 24 26  1  0
 26  1  1  0
 20 11  1  0
 26 21  2  0
  1 27  1  0
  4 28  1  0
  4 29  1  0
  5 30  1  0
  6 31  1  0
  6 32  1  0
  6 33  1  0
  7 34  1  0
  8 35  1  0
 12 36  1  0
 13 37  1  0
 16 38  1  0
 17 39  1  0
 17 40  1  0
 17 41  1  0
 18 42  1  0
 18 43  1  0
 18 44  1  0
 19 45  1  0
 20 46  1  0
 22 47  1  0
 25 48  1  0
 25 49  1  0
 25 50  1  0
M  END
>  <ScrubInfo>  (9) 
{"isomerGroup": 0, "isomerId": 8, "confId": 0, "nr_conformers:": 1, "nr_isomers:": 9}

$$$$
