_i0
     RDKit          3D

 44 46  0  0  0  0  0  0  0  0999 V2000
    6.6598    1.4040    0.6497 C   0  0  0  0  0  0  0  0  0  0  0  0
    5.3713    1.4772    0.0531 O   0  0  0  0  0  0  0  0  0  0  0  0
    4.9041    0.1916   -0.3505 C   0  0  0  0  0  0  0  0  0  0  0  0
    3.5399    0.3289   -1.0140 C   0  0  0  0  0  0  0  0  0  0  0  0
    2.5106    0.9480   -0.0682 C   0  0  0  0  0  0  0  0  0  0  0  0
    1.1890    0.9447   -0.6791 N   0  0  0  0  0  0  0  0  0  0  0  0
    0.3722   -0.1311   -0.3507 C   0  0  0  0  0  0  0  0  0  0  0  0
   -0.9331    0.1765   -0.2461 N   0  0  0  0  0  0  0  0  0  0  0  0
   -1.8559   -0.7730    0.0628 C   0  0  0  0  0  0  0  0  0  0  0  0
   -3.2195   -0.4696    0.1932 N   0  0  0  0  0  0  0  0  0  0  0  0
   -3.9604    0.6936   -0.0800 C   0  0  0  0  0  0  0  0  0  0  0  0
   -3.4363    1.8200   -0.7244 C   0  0  0  0  0  0  0  0  0  0  0  0
   -4.2162    2.9623   -0.9442 C   0  0  0  0  0  0  0  0  0  0  0  0
   -5.5339    2.9867   -0.5080 C   0  0  0  0  0  0  0  0  0  0  0  0
   -6.3285    4.0767   -0.7001 O   0  0  0  0  0  0  0  0  0  0  0  0
   -6.0798    1.8910    0.1425 C   0  0  0  0  0  0  0  0  0  0  0  0
   -5.2953    0.7541    0.3571 C   0  0  0  0  0  0  0  0  0  0  0  0
   -1.3744   -2.0714    0.2743 C   0  0  0  0  0  0  0  0  0  0  0  0
   -1.8837   -3.3450    0.6049 C   0  0  0  0  0  0  0  0  0  0  0  0
   -0.9337   -4.2837    0.6812 N   0  0  0  0  0  0  0  0  0  0  0  0
    0.1977   -3.6009    0.3874 N   0  0  0  0  0  0  0  0  0  0  0  0
    1.4594   -4.2966    0.3599 C   0  0  0  0  0  0  0  0  0  0  0  0
   -0.0146   -2.2719    0.1429 C   0  0  0  0  0  0  0  0  0  0  0  0
    0.9043   -1.3459   -0.1630 N   0  0  0  0  0  0  0  0  0  0  0  0
    7.3906    1.0117   -0.0640 H   0  0  0  0  0  0  0  0  0  0  0  0
    6.6318    0.7758    1.5452 H   0  0  0  0  0  0  0  0  0  0  0  0
    6.9623    2.4136    0.9403 H   0  0  0  0  0  0  0  0  0  0  0  0
    4.8350   -0.4656    0.5242 H   0  0  0  0  0  0  0  0  0  0  0  0
    5.6121   -0.2466   -1.0633 H   0  0  0  0  0  0  0  0  0  0  0  0
    3.2127   -0.6580   -1.3592 H   0  0  0  0  0  0  0  0  0  0  0  0
    3.6272    0.9664   -1.9030 H   0  0  0  0  0  0  0  0  0  0  0  0
    2.5110    0.4490    0.9096 H   0  0  0  0  0  0  0  0  0  0  0  0
    2.7864    1.9922    0.1228 H   0  0  0  0  0  0  0  0  0  0  0  0
    0.6305    1.7693   -0.4816 H   0  0  0  0  0  0  0  0  0  0  0  0
   -3.7849   -1.2528    0.4887 H   0  0  0  0  0  0  0  0  0  0  0  0
   -2.4130    1.8275   -1.0862 H   0  0  0  0  0  0  0  0  0  0  0  0
   -3.7732    3.8112   -1.4549 H   0  0  0  0  0  0  0  0  0  0  0  0
   -5.8111    4.7561   -1.1629 H   0  0  0  0  0  0  0  0  0  0  0  0
   -7.1098    1.9194    0.4857 H   0  0  0  0  0  0  0  0  0  0  0  0
   -5.7425   -0.0879    0.8791 H   0  0  0  0  0  0  0  0  0  0  0  0
   -2.9095   -3.6326    0.7940 H   0  0  0  0  0  0  0  0  0  0  0  0
    2.2640   -3.6044    0.1018 H   0  0  0  0  0  0  0  0  0  0  0  0
    1.3985   -5.0894   -0.3900 H   0  0  0  0  0  0  0  0  0  0  0  0
    1.6394   -4.7209    1.3509 H   0  0  0  0  0  0  0  0  0  0  0  0
  1  2  1  0
  2  3  1  0
  3  4  1  0
  4  5  1  0
  5  6  1  0
  6  7  1  0
  7  8  2  0
  8  9  1  0
  9 10  1  0
 10 11  1  0
 11 12  2  0
 12 13  1  0
 13 14  2  0
 14 15  1  0
 14 16  1  0
 16 17  2  0
  9 18  2  0
 18 19  1  0
 19 20  2  0
 20 21  1  0
 21 22  1  0
 21 23  1  0
 23 24  2  0
 24  7  1  0
 17 11  1  0
 23 18  1  0
  1 25  1  0
  1 26  1  0
  1 27  1  0
  3 28  1  0
  3 29  1  0
  4 30  1  0
  4 31  1  0
  5 32  1  0
  5 33  1  0
  6 34  1  0
 10 35  1  0
 12 36  1  0
 13 37  1  0
 15 38  1  0
 16 39  1  0
 17 40  1  0
 19 41  1  0
 22 42  1  0
 22 43  1  0
 22 44  1  0
M  END
>  <ScrubInfo>  (1) 
{"isomerGroup": 0, "isomerId": 0, "confId": 0, "nr_conformers:": 1, "nr_isomers:": 9}

$$$$
_i1
     RDKit          3D

 44 46  0  0  0  0  0  0  0  0999 V2000
   -0.2096   -1.1116   -0.6610 N   0  0  0  0  0  0  0  0  0  0  0  0
   -1.4330   -0.4891   -0.7997 C   0  0  0  0  0  0  0  0  0  0  0  0
   -2.5672   -1.2142   -1.1130 N   0  0  0  0  0  0  0  0  0  0  0  0
   -3.8044   -1.1933   -0.4288 C   0  0  0  0  0  0  0  0  0  0  0  0
   -3.9991   -0.5579    0.8044 C   0  0  0  0  0  0  0  0  0  0  0  0
   -5.2587   -0.5444    1.4106 C   0  0  0  0  0  0  0  0  0  0  0  0
   -6.3336   -1.1603    0.7845 C   0  0  0  0  0  0  0  0  0  0  0  0
   -7.5425   -1.1205    1.4113 O   0  0  0  0  0  0  0  0  0  0  0  0
   -6.1710   -1.7932   -0.4408 C   0  0  0  0  0  0  0  0  0  0  0  0
   -4.9091   -1.8057   -1.0429 C   0  0  0  0  0  0  0  0  0  0  0  0
   -1.4046    0.8453   -0.6884 C   0  0  0  0  0  0  0  0  0  0  0  0
   -2.3368    1.9694   -0.8296 C   0  0  0  0  0  0  0  0  0  0  0  0
   -1.7671    3.1337   -0.6390 N   0  0  0  0  0  0  0  0  0  0  0  0
   -0.4298    2.8478   -0.3167 N   0  0  0  0  0  0  0  0  0  0  0  0
    0.5398    3.9153   -0.3487 C   0  0  0  0  0  0  0  0  0  0  0  0
   -0.1141    1.5004   -0.3837 C   0  0  0  0  0  0  0  0  0  0  0  0
    1.0178    0.8990   -0.2378 N   0  0  0  0  0  0  0  0  0  0  0  0
    0.9665   -0.4714   -0.3630 C   0  0  0  0  0  0  0  0  0  0  0  0
    2.0289   -1.1898   -0.1996 N   0  0  0  0  0  0  0  0  0  0  0  0
    3.2661   -0.4744    0.1309 C   0  0  0  0  0  0  0  0  0  0  0  0
    4.3865   -1.5058    0.2627 C   0  0  0  0  0  0  0  0  0  0  0  0
    5.7445   -0.8516    0.4859 C   0  0  0  0  0  0  0  0  0  0  0  0
    5.7419   -0.1469    1.7259 O   0  0  0  0  0  0  0  0  0  0  0  0
    6.9915    0.4815    1.9758 C   0  0  0  0  0  0  0  0  0  0  0  0
   -0.1670   -2.1183   -0.6608 H   0  0  0  0  0  0  0  0  0  0  0  0
   -2.3609   -2.1485   -1.4555 H   0  0  0  0  0  0  0  0  0  0  0  0
   -3.1752   -0.0857    1.3322 H   0  0  0  0  0  0  0  0  0  0  0  0
   -5.3966   -0.0559    2.3715 H   0  0  0  0  0  0  0  0  0  0  0  0
   -8.1962   -1.5826    0.8615 H   0  0  0  0  0  0  0  0  0  0  0  0
   -7.0047   -2.2735   -0.9429 H   0  0  0  0  0  0  0  0  0  0  0  0
   -4.7953   -2.2884   -2.0109 H   0  0  0  0  0  0  0  0  0  0  0  0
   -3.3893    1.8078   -1.0949 H   0  0  0  0  0  0  0  0  0  0  0  0
    0.9007    4.0716   -1.3701 H   0  0  0  0  0  0  0  0  0  0  0  0
    1.3966    3.6840    0.2922 H   0  0  0  0  0  0  0  0  0  0  0  0
    0.0984    4.8509    0.0097 H   0  0  0  0  0  0  0  0  0  0  0  0
    3.5209    0.2359   -0.6651 H   0  0  0  0  0  0  0  0  0  0  0  0
    3.1545    0.0714    1.0755 H   0  0  0  0  0  0  0  0  0  0  0  0
    4.1561   -2.1743    1.1015 H   0  0  0  0  0  0  0  0  0  0  0  0
    4.4292   -2.1236   -0.6423 H   0  0  0  0  0  0  0  0  0  0  0  0
    6.5188   -1.6268    0.5144 H   0  0  0  0  0  0  0  0  0  0  0  0
    5.9721   -0.1593   -0.3331 H   0  0  0  0  0  0  0  0  0  0  0  0
    7.7908   -0.2636    2.0329 H   0  0  0  0  0  0  0  0  0  0  0  0
    6.9297    1.0016    2.9355 H   0  0  0  0  0  0  0  0  0  0  0  0
    7.2144    1.2148    1.1948 H   0  0  0  0  0  0  0  0  0  0  0  0
  1  2  1  0
  2  3  1  0
  3  4  1  0
  4  5  2  0
  5  6  1  0
  6  7  2  0
  7  8  1  0
  7  9  1  0
  9 10  2  0
  2 11  2  0
 11 12  1  0
 12 13  2  0
 13 14  1  0
 14 15  1  0
 14 16  1  0
 16 17  2  0
 17 18  1  0
 18 19  2  3
 19 20  1  0
 20 21  1  0
 21 22  1  0
 22 23  1  0
 23 24  1  0
 18  1  1  0
 10  4  1  0
 16 11  1  0
  1 25  1  0
  3 26  1  0
  5 27  1  0
  6 28  1  0
  8 29  1  0
  9 30  1  0
 10 31  1  0
 12 32  1  0
 15 33  1  0
 15 34  1  0
 15 35  1  0
 20 36  1  0
 20 37  1  0
 21 38  1  0
 21 39  1  0
 22 40  1  0
 22 41  1  0
 24 42  1  0
 24 43  1  0
 24 44  1  0
M  END
>  <ScrubInfo>  (2) 
{"isomerGroup": 0, "isomerId": 1, "confId": 0, "nr_conformers:": 1, "nr_isomers:": 9}

$$$$
_i2
     RDKit          3D

 44 46  0  0  0  0  0  0  0  0999 V2000
    0.0681    0.7970   -0.2651 N   0  0  0  0  0  0  0  0  0  0  0  0
    1.0613   -0.1524   -0.3120 C   0  0  0  0  0  0  0  0  0  0  0  0
    2.2849    0.3838   -0.6217 N   0  0  0  0  0  0  0  0  0  0  0  0
    3.4875   -0.4390   -0.5672 C   0  0  0  0  0  0  0  0  0  0  0  0
    4.6185    0.1856   -1.3845 C   0  0  0  0  0  0  0  0  0  0  0  0
    5.0255    1.5866   -0.9338 C   0  0  0  0  0  0  0  0  0  0  0  0
    5.1954    1.6801    0.4782 O   0  0  0  0  0  0  0  0  0  0  0  0
    6.4489    1.1758    0.9232 C   0  0  0  0  0  0  0  0  0  0  0  0
    0.8556   -1.4259   -0.0985 N   0  0  0  0  0  0  0  0  0  0  0  0
   -0.4506   -1.6869    0.1894 C   0  0  0  0  0  0  0  0  0  0  0  0
   -1.5152   -0.8008    0.2554 C   0  0  0  0  0  0  0  0  0  0  0  0
   -2.6177   -1.6069    0.5896 C   0  0  0  0  0  0  0  0  0  0  0  0
   -2.2922   -2.8983    0.7328 N   0  0  0  0  0  0  0  0  0  0  0  0
   -0.9645   -2.9200    0.4763 N   0  0  0  0  0  0  0  0  0  0  0  0
   -0.2558   -4.1735    0.5309 C   0  0  0  0  0  0  0  0  0  0  0  0
   -1.2704    0.6026   -0.0126 C   0  0  0  0  0  0  0  0  0  0  0  0
   -2.1157    1.5878   -0.0402 N   0  0  0  0  0  0  0  0  0  0  0  0
   -3.4766    1.4036    0.2068 C   0  0  0  0  0  0  0  0  0  0  0  0
   -3.9834    1.5576    1.5015 C   0  0  0  0  0  0  0  0  0  0  0  0
   -5.3498    1.4069    1.7509 C   0  0  0  0  0  0  0  0  0  0  0  0
   -6.2070    1.1184    0.6936 C   0  0  0  0  0  0  0  0  0  0  0  0
   -7.5469    0.9616    0.8885 O   0  0  0  0  0  0  0  0  0  0  0  0
   -5.7220    0.9865   -0.6026 C   0  0  0  0  0  0  0  0  0  0  0  0
   -4.3560    1.1378   -0.8467 C   0  0  0  0  0  0  0  0  0  0  0  0
    0.2957    1.7287   -0.5699 H   0  0  0  0  0  0  0  0  0  0  0  0
    2.4430    1.2825   -0.1753 H   0  0  0  0  0  0  0  0  0  0  0  0
    3.7909   -0.5769    0.4767 H   0  0  0  0  0  0  0  0  0  0  0  0
    3.2872   -1.4336   -0.9833 H   0  0  0  0  0  0  0  0  0  0  0  0
    5.4872   -0.4800   -1.3162 H   0  0  0  0  0  0  0  0  0  0  0  0
    4.3363    0.2254   -2.4436 H   0  0  0  0  0  0  0  0  0  0  0  0
    4.2385    2.2986   -1.2054 H   0  0  0  0  0  0  0  0  0  0  0  0
    5.9336    1.9148   -1.4536 H   0  0  0  0  0  0  0  0  0  0  0  0
    7.2716    1.7251    0.4557 H   0  0  0  0  0  0  0  0  0  0  0  0
    6.5085    1.3166    2.0058 H   0  0  0  0  0  0  0  0  0  0  0  0
    6.5378    0.1072    0.7093 H   0  0  0  0  0  0  0  0  0  0  0  0
   -3.6513   -1.3285    0.7403 H   0  0  0  0  0  0  0  0  0  0  0  0
   -0.7263   -4.8660   -0.1718 H   0  0  0  0  0  0  0  0  0  0  0  0
   -0.3224   -4.5608    1.5507 H   0  0  0  0  0  0  0  0  0  0  0  0
    0.7915   -4.0272    0.2578 H   0  0  0  0  0  0  0  0  0  0  0  0
   -3.3067    1.7952    2.3178 H   0  0  0  0  0  0  0  0  0  0  0  0
   -5.7204    1.5225    2.7641 H   0  0  0  0  0  0  0  0  0  0  0  0
   -7.7385    1.0702    1.8344 H   0  0  0  0  0  0  0  0  0  0  0  0
   -6.4034    0.7711   -1.4204 H   0  0  0  0  0  0  0  0  0  0  0  0
   -3.9747    1.0471   -1.8598 H   0  0  0  0  0  0  0  0  0  0  0  0
  1  2  1  0
  2  3  1  0
  3  4  1  0
  4  5  1  0
  5  6  1  0
  6  7  1  0
  7  8  1  0
  2  9  2  0
  9 10  1  0
 10 11  2  0
 11 12  1  0
 12 13  2  0
 13 14  1  0
 14 15  1  0
 11 16  1  0
 16 17  2  3
 17 18  1  0
 18 19  2  0
 19 20  1  0
 20 21  2  0
 21 22  1  0
 21 23  1  0
 23 24  2  0
 16  1  1  0
 24 18  1  0
 14 10  1  0
  1 25  1  0
  3 26  1  0
  4 27  1  0
  4 28  1  0
  5 29  1  0
  5 30  1  0
  6 31  1  0
  6 32  1  0
  8 33  1  0
  8 34  1  0
  8 35  1  0
 12 36  1  0
 15 37  1  0
 15 38  1  0
 15 39  1  0
 19 40  1  0
 20 41  1  0
 22 42  1  0
 23 43  1  0
 24 44  1  0
M  END
>  <ScrubInfo>  (3) 
{"isomerGroup": 0, "isomerId": 2, "confId": 0, "nr_conformers:": 1, "nr_isomers:": 9}

$$$$
_i3
     RDKit          3D

 44 46  0  0  0  0  0  0  0  0999 V2000
    0.9237    2.6595    1.0922 N   0  0  0  0  0  0  0  0  0  0  0  0
    1.5548    1.7340    0.2889 C   0  0  0  0  0  0  0  0  0  0  0  0
    2.8397    1.6289    0.3823 N   0  0  0  0  0  0  0  0  0  0  0  0
    3.5302    0.6559   -0.4650 C   0  0  0  0  0  0  0  0  0  0  0  0
    3.5961   -0.6948    0.2407 C   0  0  0  0  0  0  0  0  0  0  0  0
    4.3127   -1.7297   -0.6204 C   0  0  0  0  0  0  0  0  0  0  0  0
    4.4838   -2.9687    0.0690 O   0  0  0  0  0  0  0  0  0  0  0  0
    3.3016   -3.7559    0.1128 C   0  0  0  0  0  0  0  0  0  0  0  0
    0.8471    0.9255   -0.5900 N   0  0  0  0  0  0  0  0  0  0  0  0
   -0.4530    1.0247   -0.6344 C   0  0  0  0  0  0  0  0  0  0  0  0
   -1.2290    0.2789   -1.4841 N   0  0  0  0  0  0  0  0  0  0  0  0
   -2.2070   -0.6583   -1.0579 C   0  0  0  0  0  0  0  0  0  0  0  0
   -2.3534   -1.0714    0.2740 C   0  0  0  0  0  0  0  0  0  0  0  0
   -3.3326   -2.0047    0.6305 C   0  0  0  0  0  0  0  0  0  0  0  0
   -4.1648   -2.5326   -0.3492 C   0  0  0  0  0  0  0  0  0  0  0  0
   -5.1318   -3.4436   -0.0468 O   0  0  0  0  0  0  0  0  0  0  0  0
   -4.0322   -2.1456   -1.6756 C   0  0  0  0  0  0  0  0  0  0  0  0
   -3.0548   -1.2130   -2.0285 C   0  0  0  0  0  0  0  0  0  0  0  0
   -1.1508    1.9992    0.1741 C   0  0  0  0  0  0  0  0  0  0  0  0
   -2.4681    2.4433    0.3637 C   0  0  0  0  0  0  0  0  0  0  0  0
   -2.5484    3.4222    1.2799 N   0  0  0  0  0  0  0  0  0  0  0  0
   -1.2616    3.6155    1.6634 N   0  0  0  0  0  0  0  0  0  0  0  0
   -0.9653    4.6259    2.6464 C   0  0  0  0  0  0  0  0  0  0  0  0
   -0.4093    2.7807    1.0156 C   0  0  0  0  0  0  0  0  0  0  0  0
    1.5423    3.1984    1.6835 H   0  0  0  0  0  0  0  0  0  0  0  0
    3.0781    0.5665   -1.4601 H   0  0  0  0  0  0  0  0  0  0  0  0
    4.5477    1.0275   -0.6352 H   0  0  0  0  0  0  0  0  0  0  0  0
    4.1116   -0.5959    1.2042 H   0  0  0  0  0  0  0  0  0  0  0  0
    2.5858   -1.0418    0.4838 H   0  0  0  0  0  0  0  0  0  0  0  0
    3.7907   -1.8943   -1.5705 H   0  0  0  0  0  0  0  0  0  0  0  0
    5.3176   -1.3668   -0.8627 H   0  0  0  0  0  0  0  0  0  0  0  0
    3.5477   -4.7141    0.5787 H   0  0  0  0  0  0  0  0  0  0  0  0
    2.9270   -3.9486   -0.8970 H   0  0  0  0  0  0  0  0  0  0  0  0
    2.5298   -3.2720    0.7169 H   0  0  0  0  0  0  0  0  0  0  0  0
   -0.6315   -0.1937   -2.1593 H   0  0  0  0  0  0  0  0  0  0  0  0
   -1.7032   -0.6867    1.0559 H   0  0  0  0  0  0  0  0  0  0  0  0
   -3.4242   -2.3051    1.6696 H   0  0  0  0  0  0  0  0  0  0  0  0
   -5.1251   -3.5996    0.9120 H   0  0  0  0  0  0  0  0  0  0  0  0
   -4.6891   -2.5645   -2.4328 H   0  0  0  0  0  0  0  0  0  0  0  0
   -2.9685   -0.9104   -3.0696 H   0  0  0  0  0  0  0  0  0  0  0  0
   -3.3752    2.1007   -0.1177 H   0  0  0  0  0  0  0  0  0  0  0  0
   -1.2681    5.5960    2.2445 H   0  0  0  0  0  0  0  0  0  0  0  0
    0.1048    4.6319    2.8637 H   0  0  0  0  0  0  0  0  0  0  0  0
   -1.5259    4.3968    3.5562 H   0  0  0  0  0  0  0  0  0  0  0  0
  1  2  1  0
  2  3  2  3
  3  4  1  0
  4  5  1  0
  5  6  1  0
  6  7  1  0
  7  8  1  0
  2  9  1  0
  9 10  2  0
 10 11  1  0
 11 12  1  0
 12 13  2  0
 13 14  1  0
 14 15  2  0
 15 16  1  0
 15 17  1  0
 17 18  2  0
 10 19  1  0
 19 20  1  0
 20 21  2  0
 21 22  1  0
 22 23  1  0
 22 24  1  0
 24  1  1  0
 18 12  1  0
 24 19  2  0
  1 25  1  0
  4 26  1  0
  4 27  1  0
  5 28  1  0
  5 29  1  0
  6 30  1  0
  6 31  1  0
  8 32  1  0
  8 33  1  0
  8 34  1  0
 11 35  1  0
 13 36  1  0
 14 37  1  0
 16 38  1  0
 17 39  1  0
 18 40  1  0
 20 41  1  0
 23 42  1  0
 23 43  1  0
 23 44  1  0
M  END
>  <ScrubInfo>  (4) 
{"isomerGroup": 0, "isomerId": 3, "confId": 0, "nr_conformers:": 1, "nr_isomers:": 9}

$$$$
_i4
     RDKit          3D

 44 46  0  0  0  0  0  0  0  0999 V2000
   -1.4744   -4.5482   -1.6084 N   0  0  0  0  0  0  0  0  0  0  0  0
   -2.3627   -3.5318   -1.2700 C   0  0  0  0  0  0  0  0  0  0  0  0
   -1.7469   -2.3765   -0.9878 C   0  0  0  0  0  0  0  0  0  0  0  0
   -2.1215   -1.0496   -0.5579 C   0  0  0  0  0  0  0  0  0  0  0  0
   -3.3596   -0.7033   -0.3883 N   0  0  0  0  0  0  0  0  0  0  0  0
   -3.6397    0.6036    0.0339 C   0  0  0  0  0  0  0  0  0  0  0  0
   -3.7000    1.6563   -0.8847 C   0  0  0  0  0  0  0  0  0  0  0  0
   -4.0121    2.9488   -0.4588 C   0  0  0  0  0  0  0  0  0  0  0  0
   -4.2771    3.1832    0.8854 C   0  0  0  0  0  0  0  0  0  0  0  0
   -4.5797    4.4586    1.2608 O   0  0  0  0  0  0  0  0  0  0  0  0
   -4.2381    2.1458    1.8120 C   0  0  0  0  0  0  0  0  0  0  0  0
   -3.9236    0.8547    1.3800 C   0  0  0  0  0  0  0  0  0  0  0  0
   -1.0635   -0.2080   -0.3387 N   0  0  0  0  0  0  0  0  0  0  0  0
    0.1714   -0.5704   -0.5373 C   0  0  0  0  0  0  0  0  0  0  0  0
    1.1171    0.3788   -0.2813 N   0  0  0  0  0  0  0  0  0  0  0  0
    2.5002    0.0598   -0.0070 C   0  0  0  0  0  0  0  0  0  0  0  0
    3.3067    1.3426    0.1628 C   0  0  0  0  0  0  0  0  0  0  0  0
    4.7711    1.0333    0.4573 C   0  0  0  0  0  0  0  0  0  0  0  0
    5.5592    2.2219    0.5023 O   0  0  0  0  0  0  0  0  0  0  0  0
    5.4520    2.9257    1.7322 C   0  0  0  0  0  0  0  0  0  0  0  0
    0.5832   -1.8054   -0.9714 N   0  0  0  0  0  0  0  0  0  0  0  0
   -0.3294   -2.6800   -1.2156 C   0  0  0  0  0  0  0  0  0  0  0  0
   -0.2010   -3.9875   -1.6878 N   0  0  0  0  0  0  0  0  0  0  0  0
    0.9499   -4.7982   -1.3430 C   0  0  0  0  0  0  0  0  0  0  0  0
   -1.7770   -5.0900   -2.4215 H   0  0  0  0  0  0  0  0  0  0  0  0
   -3.4257   -3.7282   -1.2593 H   0  0  0  0  0  0  0  0  0  0  0  0
   -3.4969    1.4662   -1.9343 H   0  0  0  0  0  0  0  0  0  0  0  0
   -4.0502    3.7650   -1.1737 H   0  0  0  0  0  0  0  0  0  0  0  0
   -4.7560    4.4646    2.2156 H   0  0  0  0  0  0  0  0  0  0  0  0
   -4.4495    2.3163    2.8621 H   0  0  0  0  0  0  0  0  0  0  0  0
   -3.8970    0.0347    2.0918 H   0  0  0  0  0  0  0  0  0  0  0  0
    0.7238    1.1738    0.2090 H   0  0  0  0  0  0  0  0  0  0  0  0
    2.9206   -0.5293   -0.8304 H   0  0  0  0  0  0  0  0  0  0  0  0
    2.5627   -0.5432    0.9063 H   0  0  0  0  0  0  0  0  0  0  0  0
    3.2360    1.9622   -0.7403 H   0  0  0  0  0  0  0  0  0  0  0  0
    2.8777    1.9479    0.9699 H   0  0  0  0  0  0  0  0  0  0  0  0
    4.8848    0.4647    1.3879 H   0  0  0  0  0  0  0  0  0  0  0  0
    5.1814    0.4174   -0.3505 H   0  0  0  0  0  0  0  0  0  0  0  0
    4.4380    3.3060    1.8798 H   0  0  0  0  0  0  0  0  0  0  0  0
    5.7413    2.2842    2.5701 H   0  0  0  0  0  0  0  0  0  0  0  0
    6.1356    3.7786    1.6976 H   0  0  0  0  0  0  0  0  0  0  0  0
    0.9195   -5.7513   -1.8809 H   0  0  0  0  0  0  0  0  0  0  0  0
    0.9717   -5.0059   -0.2681 H   0  0  0  0  0  0  0  0  0  0  0  0
    1.8778   -4.2877   -1.6200 H   0  0  0  0  0  0  0  0  0  0  0  0
  1  2  1  0
  2  3  2  0
  3  4  1  0
  4  5  2  3
  5  6  1  0
  6  7  2  0
  7  8  1  0
  8  9  2  0
  9 10  1  0
  9 11  1  0
 11 12  2  0
  4 13  1  0
 13 14  2  0
 14 15  1  0
 15 16  1  0
 16 17  1  0
 17 18  1  0
 18 19  1  0
 19 20  1  0
 14 21  1  0
 21 22  2  0
 22 23  1  0
 23 24  1  0
 23  1  1  0
 22  3  1  0
 12  6  1  0
  1 25  1  0
  2 26  1  0
  7 27  1  0
  8 28  1  0
 10 29  1  0
 11 30  1  0
 12 31  1  0
 15 32  1  0
 16 33  1  0
 16 34  1  0
 17 35  1  0
 17 36  1  0
 18 37  1  0
 18 38  1  0
 20 39  1  0
 20 40  1  0
 20 41  1  0
 24 42  1  0
 24 43  1  0
 24 44  1  0
M  END
>  <ScrubInfo>  (5) 
{"isomerGroup": 0, "isomerId": 4, "confId": 0, "nr_conformers:": 1, "nr_isomers:": 9}

$$$$
_i5
     RDKit          3D

 44 46  0  0  0  0  0  0  0  0999 V2000
    0.4938   -2.0280    0.4837 N   0  0  0  0  0  0  0  0  0  0  0  0
    0.0697   -0.8472   -0.0821 C   0  0  0  0  0  0  0  0  0  0  0  0
    1.0527   -0.1052   -0.6735 N   0  0  0  0  0  0  0  0  0  0  0  0
    2.2294    0.3194    0.0765 C   0  0  0  0  0  0  0  0  0  0  0  0
    3.1480    1.1358   -0.8237 C   0  0  0  0  0  0  0  0  0  0  0  0
    4.3854    1.6067   -0.0708 C   0  0  0  0  0  0  0  0  0  0  0  0
    5.1989    2.3541   -0.9719 O   0  0  0  0  0  0  0  0  0  0  0  0
    6.3757    2.8421   -0.3408 C   0  0  0  0  0  0  0  0  0  0  0  0
   -1.1591   -0.4101   -0.1067 N   0  0  0  0  0  0  0  0  0  0  0  0
   -2.1581   -1.1715    0.4871 C   0  0  0  0  0  0  0  0  0  0  0  0
   -3.4035   -0.8235    0.5516 N   0  0  0  0  0  0  0  0  0  0  0  0
   -3.7797    0.4012   -0.0150 C   0  0  0  0  0  0  0  0  0  0  0  0
   -3.9247    1.5308    0.7968 C   0  0  0  0  0  0  0  0  0  0  0  0
   -4.3319    2.7511    0.2514 C   0  0  0  0  0  0  0  0  0  0  0  0
   -4.6039    2.8312   -1.1110 C   0  0  0  0  0  0  0  0  0  0  0  0
   -5.0046    4.0004   -1.6869 O   0  0  0  0  0  0  0  0  0  0  0  0
   -4.4799    1.7147   -1.9296 C   0  0  0  0  0  0  0  0  0  0  0  0
   -4.0741    0.4977   -1.3786 C   0  0  0  0  0  0  0  0  0  0  0  0
   -1.7657   -2.4326    1.0631 C   0  0  0  0  0  0  0  0  0  0  0  0
   -2.4196   -3.4953    1.7003 C   0  0  0  0  0  0  0  0  0  0  0  0
   -1.5734   -4.4829    2.0390 N   0  0  0  0  0  0  0  0  0  0  0  0
   -0.3671   -4.0389    1.6048 N   0  0  0  0  0  0  0  0  0  0  0  0
    0.7960   -4.8648    1.8037 C   0  0  0  0  0  0  0  0  0  0  0  0
   -0.4523   -2.8113    1.0298 C   0  0  0  0  0  0  0  0  0  0  0  0
    1.4172   -2.3513    0.2297 H   0  0  0  0  0  0  0  0  0  0  0  0
    0.6026    0.6991   -1.1120 H   0  0  0  0  0  0  0  0  0  0  0  0
    2.7724   -0.5530    0.4566 H   0  0  0  0  0  0  0  0  0  0  0  0
    1.9143    0.9207    0.9374 H   0  0  0  0  0  0  0  0  0  0  0  0
    2.6146    2.0048   -1.2301 H   0  0  0  0  0  0  0  0  0  0  0  0
    3.4509    0.5439   -1.6971 H   0  0  0  0  0  0  0  0  0  0  0  0
    4.9521    0.7471    0.3051 H   0  0  0  0  0  0  0  0  0  0  0  0
    4.0966    2.2418    0.7746 H   0  0  0  0  0  0  0  0  0  0  0  0
    6.1174    3.5133    0.4839 H   0  0  0  0  0  0  0  0  0  0  0  0
    6.9859    2.0112    0.0260 H   0  0  0  0  0  0  0  0  0  0  0  0
    6.9554    3.4024   -1.0792 H   0  0  0  0  0  0  0  0  0  0  0  0
   -3.7174    1.4530    1.8601 H   0  0  0  0  0  0  0  0  0  0  0  0
   -4.4323    3.6143    0.9004 H   0  0  0  0  0  0  0  0  0  0  0  0
   -5.0646    4.6791   -0.9952 H   0  0  0  0  0  0  0  0  0  0  0  0
   -4.7008    1.7876   -2.9901 H   0  0  0  0  0  0  0  0  0  0  0  0
   -3.9821   -0.3796   -2.0120 H   0  0  0  0  0  0  0  0  0  0  0  0
   -3.4731   -3.5975    1.9277 H   0  0  0  0  0  0  0  0  0  0  0  0
    0.6675   -5.7837    1.2262 H   0  0  0  0  0  0  0  0  0  0  0  0
    1.6901   -4.3359    1.4668 H   0  0  0  0  0  0  0  0  0  0  0  0
    0.8816   -5.0914    2.8695 H   0  0  0  0  0  0  0  0  0  0  0  0
  1  2  1  0
  2  3  1  0
  3  4  1  0
  4  5  1  0
  5  6  1  0
  6  7  1  0
  7  8  1  0
  2  9  2  0
  9 10  1  0
 10 11  2  3
 11 12  1  0
 12 13  2  0
 13 14  1  0
 14 15  2  0
 15 16  1  0
 15 17  1  0
 17 18  2  0
 10 19  1  0
 19 20  1  0
 20 21  2  0
 21 22  1  0
 22 23  1  0
 22 24  1  0
 24  1  1  0
 18 12  1  0
 24 19  2  0
  1 25  1  0
  3 26  1  0
  4 27  1  0
  4 28  1  0
  5 29  1  0
  5 30  1  0
  6 31  1  0
  6 32  1  0
  8 33  1  0
  8 34  1  0
  8 35  1  0
 13 36  1  0
 14 37  1  0
 16 38  1  0
 17 39  1  0
 18 40  1  0
 20 41  1  0
 23 42  1  0
 23 43  1  0
 23 44  1  0
M  END
>  <ScrubInfo>  (6) 
{"isomerGroup": 0, "isomerId": 5, "confId": 0, "nr_conformers:": 1, "nr_isomers:": 9}

$$$$
_i6
     RDKit          3D

 44 46  0  0  0  0  0  0  0  0999 V2000
   -1.1522   -4.4415    1.4746 N   0  0  0  0  0  0  0  0  0  0  0  0
   -1.9994   -3.3585    1.2659 C   0  0  0  0  0  0  0  0  0  0  0  0
   -1.3693   -2.2928    0.7519 C   0  0  0  0  0  0  0  0  0  0  0  0
   -1.6861   -0.9149    0.3598 C   0  0  0  0  0  0  0  0  0  0  0  0
   -2.9896   -0.4661    0.4757 N   0  0  0  0  0  0  0  0  0  0  0  0
   -3.5479    0.7929    0.1760 C   0  0  0  0  0  0  0  0  0  0  0  0
   -2.8277    1.8777   -0.3376 C   0  0  0  0  0  0  0  0  0  0  0  0
   -3.4498    3.1024   -0.6136 C   0  0  0  0  0  0  0  0  0  0  0  0
   -4.8087    3.2513   -0.3763 C   0  0  0  0  0  0  0  0  0  0  0  0
   -5.4528    4.4245   -0.6304 O   0  0  0  0  0  0  0  0  0  0  0  0
   -5.5523    2.1976    0.1308 C   0  0  0  0  0  0  0  0  0  0  0  0
   -4.9248    0.9783    0.4040 C   0  0  0  0  0  0  0  0  0  0  0  0
   -0.6964   -0.1919   -0.0764 N   0  0  0  0  0  0  0  0  0  0  0  0
    0.5725   -0.7151   -0.1506 C   0  0  0  0  0  0  0  0  0  0  0  0
    1.4565    0.1321   -0.5455 N   0  0  0  0  0  0  0  0  0  0  0  0
    2.8364   -0.3267   -0.6623 C   0  0  0  0  0  0  0  0  0  0  0  0
    3.7066    0.8197   -1.1723 C   0  0  0  0  0  0  0  0  0  0  0  0
    3.7658    1.9887   -0.1911 C   0  0  0  0  0  0  0  0  0  0  0  0
    4.6493    3.0117   -0.6616 O   0  0  0  0  0  0  0  0  0  0  0  0
    6.0093    2.7681   -0.3319 C   0  0  0  0  0  0  0  0  0  0  0  0
    0.9518   -2.0041    0.1464 N   0  0  0  0  0  0  0  0  0  0  0  0
    0.0156   -2.7793    0.5688 C   0  0  0  0  0  0  0  0  0  0  0  0
    0.0870   -4.1251    0.9296 N   0  0  0  0  0  0  0  0  0  0  0  0
    1.2873   -4.6753    1.5304 C   0  0  0  0  0  0  0  0  0  0  0  0
   -1.5515   -5.3387    1.1877 H   0  0  0  0  0  0  0  0  0  0  0  0
   -3.0429   -3.4612    1.5241 H   0  0  0  0  0  0  0  0  0  0  0  0
   -3.6659   -1.1214    0.8422 H   0  0  0  0  0  0  0  0  0  0  0  0
   -1.7628    1.8058   -0.5392 H   0  0  0  0  0  0  0  0  0  0  0  0
   -2.8506    3.9160   -1.0107 H   0  0  0  0  0  0  0  0  0  0  0  0
   -4.8045    5.0602   -0.9766 H   0  0  0  0  0  0  0  0  0  0  0  0
   -6.6156    2.3214    0.3137 H   0  0  0  0  0  0  0  0  0  0  0  0
   -5.5337    0.1701    0.8010 H   0  0  0  0  0  0  0  0  0  0  0  0
    2.9058   -1.1542   -1.3790 H   0  0  0  0  0  0  0  0  0  0  0  0
    3.2201   -0.6699    0.3063 H   0  0  0  0  0  0  0  0  0  0  0  0
    3.3354    1.1812   -2.1395 H   0  0  0  0  0  0  0  0  0  0  0  0
    4.7154    0.4374   -1.3625 H   0  0  0  0  0  0  0  0  0  0  0  0
    2.7756    2.4481   -0.1038 H   0  0  0  0  0  0  0  0  0  0  0  0
    4.0627    1.6613    0.8124 H   0  0  0  0  0  0  0  0  0  0  0  0
    6.6064    3.6042   -0.7064 H   0  0  0  0  0  0  0  0  0  0  0  0
    6.3716    1.8500   -0.8014 H   0  0  0  0  0  0  0  0  0  0  0  0
    6.1367    2.7120    0.7535 H   0  0  0  0  0  0  0  0  0  0  0  0
    1.4705   -4.2279    2.5128 H   0  0  0  0  0  0  0  0  0  0  0  0
    1.1887   -5.7586    1.6541 H   0  0  0  0  0  0  0  0  0  0  0  0
    2.1574   -4.4896    0.8926 H   0  0  0  0  0  0  0  0  0  0  0  0
  1  2  1  0
  2  3  2  0
  3  4  1  0
  4  5  1  0
  5  6  1  0
  6  7  2  0
  7  8  1  0
  8  9  2  0
  9 10  1  0
  9 11  1  0
 11 12  2  0
  4 13  2  0
 13 14  1  0
 14 15  2  3
 15 16  1  0
 16 17  1  0
 17 18  1  0
 18 19  1  0
 19 20  1  0
 14 21  1  0
 21 22  2  0
 22 23  1  0
 23 24  1  0
 23  1  1  0
 22  3  1  0
 12  6  1  0
  1 25  1  0
  2 26  1  0
  5 27  1  0
  7 28  1  0
  8 29  1  0
 10 30  1  0
 11 31  1  0
 12 32  1  0
 16 33  1  0
 16 34  1  0
 17 35  1  0
 17 36  1  0
 18 37  1  0
 18 38  1  0
 20 39  1  0
 20 40  1  0
 20 41  1  0
 24 42  1  0
 24 43  1  0
 24 44  1  0
M  END
>  <ScrubInfo>  (7) 
{"isomerGroup": 0, "isomerId": 6, "confId": 0, "nr_conformers:": 1, "nr_isomers:": 9}

$$$$
_i7
     RDKit          3D

 44 46  0  0  0  0  0  0  0  0999 V2000
   -0.6502   -4.3596    0.7672 N   0  0  0  0  0  0  0  0  0  0  0  0
   -1.6663   -3.4253    0.9361 C   0  0  0  0  0  0  0  0  0  0  0  0
   -1.3239   -2.2021    0.5153 C   0  0  0  0  0  0  0  0  0  0  0  0
   -1.9396   -0.8782    0.3996 C   0  0  0  0  0  0  0  0  0  0  0  0
   -3.1530   -0.6994    0.8302 N   0  0  0  0  0  0  0  0  0  0  0  0
   -3.7249    0.5726    0.7097 C   0  0  0  0  0  0  0  0  0  0  0  0
   -3.6150    1.4948    1.7550 C   0  0  0  0  0  0  0  0  0  0  0  0
   -4.1797    2.7673    1.6402 C   0  0  0  0  0  0  0  0  0  0  0  0
   -4.8628    3.1063    0.4765 C   0  0  0  0  0  0  0  0  0  0  0  0
   -5.4293    4.3358    0.3181 O   0  0  0  0  0  0  0  0  0  0  0  0
   -4.9938    2.1949   -0.5651 C   0  0  0  0  0  0  0  0  0  0  0  0
   -4.4292    0.9243   -0.4448 C   0  0  0  0  0  0  0  0  0  0  0  0
   -1.0967    0.0343   -0.1833 N   0  0  0  0  0  0  0  0  0  0  0  0
    0.1815   -0.1944   -0.6194 C   0  0  0  0  0  0  0  0  0  0  0  0
    0.8228    0.7888   -1.1611 N   0  0  0  0  0  0  0  0  0  0  0  0
    2.1874    0.5594   -1.6397 C   0  0  0  0  0  0  0  0  0  0  0  0
    3.1858    0.8471   -0.5230 C   0  0  0  0  0  0  0  0  0  0  0  0
    4.6205    0.6816   -1.0137 C   0  0  0  0  0  0  0  0  0  0  0  0
    5.5678    0.8281    0.0451 O   0  0  0  0  0  0  0  0  0  0  0  0
    5.7884    2.1809    0.4196 C   0  0  0  0  0  0  0  0  0  0  0  0
    0.7879   -1.4267   -0.4812 N   0  0  0  0  0  0  0  0  0  0  0  0
    0.0937   -2.3739    0.0685 C   0  0  0  0  0  0  0  0  0  0  0  0
    0.4913   -3.6861    0.3374 N   0  0  0  0  0  0  0  0  0  0  0  0
    1.4367   -4.3732   -0.5209 C   0  0  0  0  0  0  0  0  0  0  0  0
   -0.5309   -4.9763    1.5741 H   0  0  0  0  0  0  0  0  0  0  0  0
   -2.6085   -3.7292    1.3703 H   0  0  0  0  0  0  0  0  0  0  0  0
   -3.0878    1.2152    2.6633 H   0  0  0  0  0  0  0  0  0  0  0  0
   -4.0803    3.4687    2.4622 H   0  0  0  0  0  0  0  0  0  0  0  0
   -5.2850    4.8528    1.1276 H   0  0  0  0  0  0  0  0  0  0  0  0
   -5.5387    2.4691   -1.4639 H   0  0  0  0  0  0  0  0  0  0  0  0
   -4.5399    0.2044   -1.2510 H   0  0  0  0  0  0  0  0  0  0  0  0
   -1.4245    0.9769   -0.3315 H   0  0  0  0  0  0  0  0  0  0  0  0
    2.3647    1.2509   -2.4721 H   0  0  0  0  0  0  0  0  0  0  0  0
    2.3291   -0.4452   -2.0560 H   0  0  0  0  0  0  0  0  0  0  0  0
    3.0279    1.8632   -0.1434 H   0  0  0  0  0  0  0  0  0  0  0  0
    3.0143    0.1836    0.3333 H   0  0  0  0  0  0  0  0  0  0  0  0
    4.7530   -0.3309   -1.4108 H   0  0  0  0  0  0  0  0  0  0  0  0
    4.8515    1.3802   -1.8267 H   0  0  0  0  0  0  0  0  0  0  0  0
    6.1045    2.7753   -0.4430 H   0  0  0  0  0  0  0  0  0  0  0  0
    6.5881    2.2016    1.1652 H   0  0  0  0  0  0  0  0  0  0  0  0
    4.8918    2.6142    0.8703 H   0  0  0  0  0  0  0  0  0  0  0  0
    1.0135   -4.5293   -1.5187 H   0  0  0  0  0  0  0  0  0  0  0  0
    1.6971   -5.3484   -0.0969 H   0  0  0  0  0  0  0  0  0  0  0  0
    2.3606   -3.7942   -0.6185 H   0  0  0  0  0  0  0  0  0  0  0  0
  1  2  1  0
  2  3  2  0
  3  4  1  0
  4  5  2  3
  5  6  1  0
  6  7  2  0
  7  8  1  0
  8  9  2  0
  9 10  1  0
  9 11  1  0
 11 12  2  0
  4 13  1  0
 13 14  1  0
 14 15  2  3
 15 16  1  0
 16 17  1  0
 17 18  1  0
 18 19  1  0
 19 20  1  0
 14 21  1  0
 21 22  2  0
 22 23  1  0
 23 24  1  0
 23  1  1  0
 22  3  1  0
 12  6  1  0
  1 25  1  0
  2 26  1  0
  7 27  1  0
  8 28  1  0
 10 29  1  0
 11 30  1  0
 12 31  1  0
 13 32  1  0
 16 33  1  0
 16 34  1  0
 17 35  1  0
 17 36  1  0
 18 37  1  0
 18 38  1  0
 20 39  1  0
 20 40  1  0
 20 41  1  0
 24 42  1  0
 24 43  1  0
 24 44  1  0
M  END
>  <ScrubInfo>  (8) 
{"isomerGroup": 0, "isomerId": 7, "confId": 0, "nr_conformers:": 1, "nr_isomers:": 9}

$$$$
_i8
     RDKit          3D

 44 46  0  0  0  0  0  0  0  0999 V2000
    0.8476    0.8382    0.0288 N   0  0  0  0  0  0  0  0  0  0  0  0
    1.0387   -0.4799   -0.3513 C   0  0  0  0  0  0  0  0  0  0  0  0
    2.1511   -1.0678   -0.6409 N   0  0  0  0  0  0  0  0  0  0  0  0
    3.3815   -0.2814   -0.5702 C   0  0  0  0  0  0  0  0  0  0  0  0
    4.5572   -1.2011   -0.8924 C   0  0  0  0  0  0  0  0  0  0  0  0
    5.8782   -0.4386   -0.9465 C   0  0  0  0  0  0  0  0  0  0  0  0
    6.1311    0.3096    0.2425 O   0  0  0  0  0  0  0  0  0  0  0  0
    6.5960   -0.4957    1.3187 C   0  0  0  0  0  0  0  0  0  0  0  0
   -0.1310   -1.2045   -0.4130 N   0  0  0  0  0  0  0  0  0  0  0  0
   -1.4423   -0.8574   -0.1686 C   0  0  0  0  0  0  0  0  0  0  0  0
   -2.4008   -1.7249   -0.2987 N   0  0  0  0  0  0  0  0  0  0  0  0
   -3.7368   -1.4038   -0.0587 C   0  0  0  0  0  0  0  0  0  0  0  0
   -4.2903   -1.5904    1.2112 C   0  0  0  0  0  0  0  0  0  0  0  0
   -5.6358   -1.2997    1.4427 C   0  0  0  0  0  0  0  0  0  0  0  0
   -6.4289   -0.8399    0.3976 C   0  0  0  0  0  0  0  0  0  0  0  0
   -7.7369   -0.5670    0.6666 O   0  0  0  0  0  0  0  0  0  0  0  0
   -5.9014   -0.6724   -0.8790 C   0  0  0  0  0  0  0  0  0  0  0  0
   -4.5540   -0.9642   -1.1055 C   0  0  0  0  0  0  0  0  0  0  0  0
   -1.5417    0.5388    0.2245 C   0  0  0  0  0  0  0  0  0  0  0  0
   -2.5585    1.4429    0.5851 C   0  0  0  0  0  0  0  0  0  0  0  0
   -2.0919    2.6705    0.8597 N   0  0  0  0  0  0  0  0  0  0  0  0
   -0.7576    2.5537    0.6893 N   0  0  0  0  0  0  0  0  0  0  0  0
    0.0848    3.7031    0.9054 C   0  0  0  0  0  0  0  0  0  0  0  0
   -0.3945    1.3004    0.3016 C   0  0  0  0  0  0  0  0  0  0  0  0
    1.6709    1.4218    0.0937 H   0  0  0  0  0  0  0  0  0  0  0  0
    3.3480    0.5385   -1.2976 H   0  0  0  0  0  0  0  0  0  0  0  0
    3.5081    0.1394    0.4342 H   0  0  0  0  0  0  0  0  0  0  0  0
    4.6069   -1.9934   -0.1365 H   0  0  0  0  0  0  0  0  0  0  0  0
    4.3913   -1.6988   -1.8556 H   0  0  0  0  0  0  0  0  0  0  0  0
    6.7132   -1.1181   -1.1534 H   0  0  0  0  0  0  0  0  0  0  0  0
    5.8424    0.2820   -1.7711 H   0  0  0  0  0  0  0  0  0  0  0  0
    6.8248    0.1621    2.1617 H   0  0  0  0  0  0  0  0  0  0  0  0
    7.5096   -1.0275    1.0362 H   0  0  0  0  0  0  0  0  0  0  0  0
    5.8275   -1.2049    1.6369 H   0  0  0  0  0  0  0  0  0  0  0  0
   -0.0022   -2.1671   -0.6892 H   0  0  0  0  0  0  0  0  0  0  0  0
   -3.6704   -1.9637    2.0215 H   0  0  0  0  0  0  0  0  0  0  0  0
   -6.0631   -1.4374    2.4317 H   0  0  0  0  0  0  0  0  0  0  0  0
   -8.1661   -0.2642   -0.1503 H   0  0  0  0  0  0  0  0  0  0  0  0
   -6.5153   -0.3255   -1.7037 H   0  0  0  0  0  0  0  0  0  0  0  0
   -4.1348   -0.8505   -2.1016 H   0  0  0  0  0  0  0  0  0  0  0  0
   -3.6248    1.2810    0.6631 H   0  0  0  0  0  0  0  0  0  0  0  0
    0.1781    4.2388   -0.0422 H   0  0  0  0  0  0  0  0  0  0  0  0
    1.0653    3.3732    1.2564 H   0  0  0  0  0  0  0  0  0  0  0  0
   -0.3728    4.3457    1.6623 H   0  0  0  0  0  0  0  0  0  0  0  0
  1  2  1  0
  2  3  2  3
  3  4  1  0
  4  5  1  0
  5  6  1  0
  6  7  1  0
  7  8  1  0
  2  9  1  0
  9 10  1  0
 10 11  2  3
 11 12  1  0
 12 13  2  0
 13 14  1  0
 14 15  2  0
 15 16  1  0
 15 17  1  0
 17 18  2  0
 10 19  1  0
 19 20  1  0
 20 21  2  0
 21 22  1  0
 22 23  1  0
 22 24  1  0
 24  1  1  0
 18 12  1  0
 24 19  2  0
  1 25  1  0
  4 26  1  0
  4 27  1  0
  5 28  1  0
  5 29  1  0
  6 30  1  0
  6 31  1  0
  8 32  1  0
  8 33  1  0
  8 34  1  0
  9 35  1  0
 13 36  1  0
 14 37  1  0
 16 38  1  0
 17 39  1  0
 18 40  1  0
 20 41  1  0
 23 42  1  0
 23 43  1  0
 23 44  1  0
M  END
>  <ScrubInfo>  (9) 
{"isomerGroup": 0, "isomerId": 8, "confId": 0, "nr_conformers:": 1, "nr_isomers:": 9}

$$$$
