REMARK SMILES COCCCNc1nc(Nc2ccc(O)cc2)c2cnn(C)c2n1
REMARK SMILES IDX 6 1 5 3 4 4 3 5 2 6 1 7 7 8 8 9 24 10 9 11 23 12 18 13 21 14
REMARK SMILES IDX 19 15 20 16 22 17 10 18 11 20 12 21 17 22 13 23 16 24 14 25
REMARK SMILES IDX 15 26
REMARK H PARENT 6 2 10 19 15 27
ROOT
ATOM      1  N   UNL     1       1.189   0.945  -0.679  1.00  0.00    -0.354 N 
ATOM      2  H   UNL     1       0.630   1.769  -0.482  1.00  0.00     0.163 HD
ENDROOT
BRANCH   1   3
ATOM      3  C   UNL     1       2.511   0.948  -0.068  1.00  0.00     0.118 C 
BRANCH   3   4
ATOM      4  C   UNL     1       3.540   0.329  -1.014  1.00  0.00     0.050 C 
BRANCH   4   5
ATOM      5  C   UNL     1       4.904   0.192  -0.350  1.00  0.00     0.161 C 
BRANCH   5   6
ATOM      6  O   UNL     1       5.371   1.477   0.053  1.00  0.00    -0.385 OA
ATOM      7  C   UNL     1       6.660   1.404   0.650  1.00  0.00     0.194 C 
ENDBRANCH   5   6
ENDBRANCH   4   5
ENDBRANCH   3   4
ENDBRANCH   1   3
BRANCH   1   8
ATOM      8  C   UNL     1       0.372  -0.131  -0.351  1.00  0.00     0.226 A 
ATOM      9  N   UNL     1      -0.933   0.176  -0.246  1.00  0.00    -0.195 NA
ATOM     10  N   UNL     1       0.904  -1.346  -0.163  1.00  0.00    -0.193 NA
ATOM     11  C   UNL     1      -1.856  -0.773   0.063  1.00  0.00     0.147 A 
ATOM     12  C   UNL     1      -0.015  -2.272   0.143  1.00  0.00     0.165 A 
ATOM     13  C   UNL     1      -1.374  -2.071   0.274  1.00  0.00     0.082 A 
ATOM     14  N   UNL     1       0.198  -3.601   0.387  1.00  0.00    -0.250 N 
ATOM     15  C   UNL     1      -1.884  -3.345   0.605  1.00  0.00     0.149 A 
ATOM     16  N   UNL     1      -0.934  -4.284   0.681  1.00  0.00    -0.179 NA
ATOM     17  C   UNL     1       1.459  -4.297   0.360  1.00  0.00     0.176 C 
BRANCH  11  18
ATOM     18  N   UNL     1      -3.220  -0.470   0.193  1.00  0.00    -0.339 N 
ATOM     19  H   UNL     1      -3.785  -1.253   0.489  1.00  0.00     0.168 HD
BRANCH  18  20
ATOM     20  C   UNL     1      -3.960   0.694  -0.080  1.00  0.00     0.040 A 
ATOM     21  C   UNL     1      -3.436   1.820  -0.724  1.00  0.00     0.030 A 
ATOM     22  C   UNL     1      -5.295   0.754   0.357  1.00  0.00     0.030 A 
ATOM     23  C   UNL     1      -4.216   2.962  -0.944  1.00  0.00     0.048 A 
ATOM     24  C   UNL     1      -6.080   1.891   0.142  1.00  0.00     0.048 A 
ATOM     25  C   UNL     1      -5.534   2.987  -0.508  1.00  0.00     0.115 A 
BRANCH  25  26
ATOM     26  O   UNL     1      -6.329   4.077  -0.700  1.00  0.00    -0.508 OA
ATOM     27  H   UNL     1      -5.811   4.756  -1.163  1.00  0.00     0.293 HD
ENDBRANCH  25  26
ENDBRANCH  18  20
ENDBRANCH  11  18
ENDBRANCH   1   8
TORSDOF 8
