REMARK SMILES COc1ccc(Nc2nc(NCCC(C)C)nc3c2cnn3C)cc1
REMARK SMILES IDX 8 1 9 2 10 3 17 4 18 5 19 6 20 7 21 8 22 9 23 10 7 11 6 13
REMARK SMILES IDX 3 14 4 15 25 16 5 17 24 18 2 19 1 20 11 21 12 23 13 24 14 25
REMARK SMILES IDX 15 26 16 27
REMARK H PARENT 7 12 11 22
ROOT
ATOM      1  C   UNL     1       1.102  -0.047  -1.286  1.00  0.00     0.147 A 
ATOM      2  N   UNL     1      -0.013  -0.735  -1.641  1.00  0.00    -0.195 NA
ATOM      3  C   UNL     1      -1.229  -0.294  -1.266  1.00  0.00     0.226 A 
ATOM      4  N   UNL     1      -1.472   0.808  -0.545  1.00  0.00    -0.193 NA
ATOM      5  C   UNL     1      -0.358   1.490  -0.241  1.00  0.00     0.165 A 
ATOM      6  C   UNL     1       0.935   1.140  -0.571  1.00  0.00     0.082 A 
ATOM      7  C   UNL     1       1.723   2.191  -0.058  1.00  0.00     0.149 A 
ATOM      8  N   UNL     1       1.001   3.120   0.581  1.00  0.00    -0.179 NA
ATOM      9  N   UNL     1      -0.268   2.670   0.445  1.00  0.00    -0.250 N 
ATOM     10  C   UNL     1      -1.357   3.438   0.993  1.00  0.00     0.176 C 
ENDROOT
BRANCH   1  11
ATOM     11  N   UNL     1       2.329  -0.559  -1.730  1.00  0.00    -0.339 N 
ATOM     12  H   UNL     1       2.137  -1.375  -2.305  1.00  0.00     0.168 HD
BRANCH  11  13
ATOM     13  C   UNL     1       3.543  -0.695  -1.030  1.00  0.00     0.040 A 
ATOM     14  C   UNL     1       6.038  -0.987   0.267  1.00  0.00     0.119 A 
ATOM     15  C   UNL     1       4.881  -0.758   1.008  1.00  0.00     0.048 A 
ATOM     16  C   UNL     1       5.944  -1.079  -1.122  1.00  0.00     0.048 A 
ATOM     17  C   UNL     1       3.645  -0.616   0.363  1.00  0.00     0.030 A 
ATOM     18  C   UNL     1       4.710  -0.937  -1.763  1.00  0.00     0.030 A 
BRANCH  14  19
ATOM     19  O   UNL     1       7.300  -1.142   0.768  1.00  0.00    -0.497 OA
ATOM     20  C   UNL     1       7.451  -1.026   2.177  1.00  0.00     0.278 C 
ENDBRANCH  14  19
ENDBRANCH  11  13
ENDBRANCH   1  11
BRANCH   3  21
ATOM     21  N   UNL     1      -2.284  -1.097  -1.685  1.00  0.00    -0.354 N 
ATOM     22  H   UNL     1      -1.867  -1.987  -1.933  1.00  0.00     0.163 HD
BRANCH  21  23
ATOM     23  C   UNL     1      -3.423  -1.175  -0.783  1.00  0.00     0.116 C 
BRANCH  23  24
ATOM     24  C   UNL     1      -4.487  -0.144  -1.175  1.00  0.00     0.024 C 
BRANCH  24  25
ATOM     25  C   UNL     1      -5.720  -0.091  -0.252  1.00  0.00    -0.016 C 
ATOM     26  C   UNL     1      -5.366   0.382   1.158  1.00  0.00     0.007 C 
ATOM     27  C   UNL     1      -6.469  -1.422  -0.198  1.00  0.00     0.007 C 
ENDBRANCH  24  25
ENDBRANCH  23  24
ENDBRANCH  21  23
ENDBRANCH   3  21
TORSDOF 7
