_i0
     RDKit          3D

 49 51  0  0  0  0  0  0  0  0999 V2000
    7.4510   -1.0261    2.1769 C   0  0  0  0  0  0  0  0  0  0  0  0
    7.3003   -1.1423    0.7676 O   0  0  0  0  0  0  0  0  0  0  0  0
    6.0382   -0.9868    0.2665 C   0  0  0  0  0  0  0  0  0  0  0  0
    4.8813   -0.7577    1.0083 C   0  0  0  0  0  0  0  0  0  0  0  0
    3.6446   -0.6159    0.3631 C   0  0  0  0  0  0  0  0  0  0  0  0
    3.5431   -0.6953   -1.0296 C   0  0  0  0  0  0  0  0  0  0  0  0
    2.3293   -0.5592   -1.7296 N   0  0  0  0  0  0  0  0  0  0  0  0
    1.1024   -0.0473   -1.2865 C   0  0  0  0  0  0  0  0  0  0  0  0
   -0.0134   -0.7348   -1.6409 N   0  0  0  0  0  0  0  0  0  0  0  0
   -1.2294   -0.2943   -1.2659 C   0  0  0  0  0  0  0  0  0  0  0  0
   -2.2844   -1.0966   -1.6849 N   0  0  0  0  0  0  0  0  0  0  0  0
   -3.4229   -1.1753   -0.7830 C   0  0  0  0  0  0  0  0  0  0  0  0
   -4.4875   -0.1441   -1.1745 C   0  0  0  0  0  0  0  0  0  0  0  0
   -5.7201   -0.0910   -0.2523 C   0  0  0  0  0  0  0  0  0  0  0  0
   -5.3659    0.3824    1.1579 C   0  0  0  0  0  0  0  0  0  0  0  0
   -6.4693   -1.4219   -0.1984 C   0  0  0  0  0  0  0  0  0  0  0  0
   -1.4718    0.8082   -0.5448 N   0  0  0  0  0  0  0  0  0  0  0  0
   -0.3585    1.4897   -0.2409 C   0  0  0  0  0  0  0  0  0  0  0  0
    0.9351    1.1399   -0.5708 C   0  0  0  0  0  0  0  0  0  0  0  0
    1.7233    2.1910   -0.0579 C   0  0  0  0  0  0  0  0  0  0  0  0
    1.0012    3.1196    0.5814 N   0  0  0  0  0  0  0  0  0  0  0  0
   -0.2681    2.6696    0.4449 N   0  0  0  0  0  0  0  0  0  0  0  0
   -1.3568    3.4384    0.9929 C   0  0  0  0  0  0  0  0  0  0  0  0
    4.7101   -0.9373   -1.7632 C   0  0  0  0  0  0  0  0  0  0  0  0
    5.9443   -1.0787   -1.1219 C   0  0  0  0  0  0  0  0  0  0  0  0
    8.5116   -1.1576    2.4116 H   0  0  0  0  0  0  0  0  0  0  0  0
    6.8947   -1.8117    2.6988 H   0  0  0  0  0  0  0  0  0  0  0  0
    7.1535   -0.0316    2.5258 H   0  0  0  0  0  0  0  0  0  0  0  0
    4.8996   -0.6892    2.0908 H   0  0  0  0  0  0  0  0  0  0  0  0
    2.7613   -0.4662    0.9782 H   0  0  0  0  0  0  0  0  0  0  0  0
    2.1369   -1.3755   -2.3050 H   0  0  0  0  0  0  0  0  0  0  0  0
   -1.8667   -1.9873   -1.9328 H   0  0  0  0  0  0  0  0  0  0  0  0
   -3.8500   -2.1796   -0.8835 H   0  0  0  0  0  0  0  0  0  0  0  0
   -3.1159   -1.0764    0.2645 H   0  0  0  0  0  0  0  0  0  0  0  0
   -4.8228   -0.3581   -2.1984 H   0  0  0  0  0  0  0  0  0  0  0  0
   -4.0436    0.8584   -1.2150 H   0  0  0  0  0  0  0  0  0  0  0  0
   -6.4048    0.6524   -0.6820 H   0  0  0  0  0  0  0  0  0  0  0  0
   -4.8154    1.3285    1.1251 H   0  0  0  0  0  0  0  0  0  0  0  0
   -6.2752    0.5465    1.7463 H   0  0  0  0  0  0  0  0  0  0  0  0
   -4.7547   -0.3506    1.6936 H   0  0  0  0  0  0  0  0  0  0  0  0
   -5.8840   -2.1985    0.3044 H   0  0  0  0  0  0  0  0  0  0  0  0
   -6.7121   -1.7736   -1.2065 H   0  0  0  0  0  0  0  0  0  0  0  0
   -7.4102   -1.3101    0.3513 H   0  0  0  0  0  0  0  0  0  0  0  0
    2.7969    2.3154   -0.1228 H   0  0  0  0  0  0  0  0  0  0  0  0
   -2.3028    2.9163    0.8323 H   0  0  0  0  0  0  0  0  0  0  0  0
   -1.1832    3.5659    2.0644 H   0  0  0  0  0  0  0  0  0  0  0  0
   -1.3783    4.4090    0.4909 H   0  0  0  0  0  0  0  0  0  0  0  0
    4.6695   -1.0024   -2.8479 H   0  0  0  0  0  0  0  0  0  0  0  0
    6.8396   -1.2582   -1.7121 H   0  0  0  0  0  0  0  0  0  0  0  0
  1  2  1  0
  2  3  1  0
  3  4  2  0
  4  5  1  0
  5  6  2  0
  6  7  1  0
  7  8  1  0
  8  9  2  0
  9 10  1  0
 10 11  1  0
 11 12  1  0
 12 13  1  0
 13 14  1  0
 14 15  1  0
 14 16  1  0
 10 17  2  0
 17 18  1  0
 18 19  2  0
 19 20  1  0
 20 21  2  0
 21 22  1  0
 22 23  1  0
  6 24  1  0
 24 25  2  0
 25  3  1  0
 19  8  1  0
 22 18  1  0
  1 26  1  0
  1 27  1  0
  1 28  1  0
  4 29  1  0
  5 30  1  0
  7 31  1  0
 11 32  1  0
 12 33  1  0
 12 34  1  0
 13 35  1  0
 13 36  1  0
 14 37  1  0
 15 38  1  0
 15 39  1  0
 15 40  1  0
 16 41  1  0
 16 42  1  0
 16 43  1  0
 20 44  1  0
 23 45  1  0
 23 46  1  0
 23 47  1  0
 24 48  1  0
 25 49  1  0
M  END
>  <ScrubInfo>  (1) 
{"isomerGroup": 0, "isomerId": 0, "confId": 0, "nr_conformers:": 1, "nr_isomers:": 9}

$$$$
_i1
     RDKit          3D

 49 51  0  0  0  0  0  0  0  0999 V2000
   -0.0857    1.5743   -0.2811 N   0  0  0  0  0  0  0  0  0  0  0  0
   -1.2799    0.9206   -0.4720 C   0  0  0  0  0  0  0  0  0  0  0  0
   -2.3557    1.7699   -0.4430 N   0  0  0  0  0  0  0  0  0  0  0  0
   -3.7086    1.2930   -0.7040 C   0  0  0  0  0  0  0  0  0  0  0  0
   -4.3036    0.6544    0.5533 C   0  0  0  0  0  0  0  0  0  0  0  0
   -5.6863    0.0185    0.3196 C   0  0  0  0  0  0  0  0  0  0  0  0
   -6.1406   -0.7154    1.5837 C   0  0  0  0  0  0  0  0  0  0  0  0
   -6.7419    1.0474   -0.0872 C   0  0  0  0  0  0  0  0  0  0  0  0
   -1.3767   -0.3707   -0.6532 N   0  0  0  0  0  0  0  0  0  0  0  0
   -0.1569   -0.9777   -0.6408 C   0  0  0  0  0  0  0  0  0  0  0  0
    1.0916   -0.4051   -0.4522 C   0  0  0  0  0  0  0  0  0  0  0  0
    1.9863   -1.4862   -0.5422 C   0  0  0  0  0  0  0  0  0  0  0  0
    1.3694   -2.6526   -0.7729 N   0  0  0  0  0  0  0  0  0  0  0  0
    0.0608   -2.3146   -0.8191 N   0  0  0  0  0  0  0  0  0  0  0  0
   -0.9263   -3.3395   -1.0471 C   0  0  0  0  0  0  0  0  0  0  0  0
    1.1745    1.0240   -0.2253 C   0  0  0  0  0  0  0  0  0  0  0  0
    2.2221    1.7540    0.0107 N   0  0  0  0  0  0  0  0  0  0  0  0
    3.5042    1.2081    0.0800 C   0  0  0  0  0  0  0  0  0  0  0  0
    4.3137    1.1640   -1.0573 C   0  0  0  0  0  0  0  0  0  0  0  0
    5.6125    0.6464   -0.9894 C   0  0  0  0  0  0  0  0  0  0  0  0
    6.1174    0.1829    0.2258 C   0  0  0  0  0  0  0  0  0  0  0  0
    7.3615   -0.3455    0.4314 O   0  0  0  0  0  0  0  0  0  0  0  0
    8.2027   -0.4716   -0.7082 C   0  0  0  0  0  0  0  0  0  0  0  0
    5.3165    0.2519    1.3687 C   0  0  0  0  0  0  0  0  0  0  0  0
    4.0203    0.7686    1.2993 C   0  0  0  0  0  0  0  0  0  0  0  0
   -0.1191    2.5420   -0.0073 H   0  0  0  0  0  0  0  0  0  0  0  0
   -2.1788    2.6770   -0.8575 H   0  0  0  0  0  0  0  0  0  0  0  0
   -3.7158    0.5934   -1.5479 H   0  0  0  0  0  0  0  0  0  0  0  0
   -4.3147    2.1559   -0.9997 H   0  0  0  0  0  0  0  0  0  0  0  0
   -4.3686    1.4101    1.3473 H   0  0  0  0  0  0  0  0  0  0  0  0
   -3.6214   -0.1191    0.9278 H   0  0  0  0  0  0  0  0  0  0  0  0
   -5.6005   -0.7223   -0.4856 H   0  0  0  0  0  0  0  0  0  0  0  0
   -5.4176   -1.4878    1.8668 H   0  0  0  0  0  0  0  0  0  0  0  0
   -7.1059   -1.2071    1.4231 H   0  0  0  0  0  0  0  0  0  0  0  0
   -6.2477   -0.0250    2.4274 H   0  0  0  0  0  0  0  0  0  0  0  0
   -6.5069    1.4979   -1.0562 H   0  0  0  0  0  0  0  0  0  0  0  0
   -7.7269    0.5770   -0.1801 H   0  0  0  0  0  0  0  0  0  0  0  0
   -6.8199    1.8503    0.6535 H   0  0  0  0  0  0  0  0  0  0  0  0
    3.0637   -1.4952   -0.4538 H   0  0  0  0  0  0  0  0  0  0  0  0
   -0.7897   -3.7262   -2.0601 H   0  0  0  0  0  0  0  0  0  0  0  0
   -0.7759   -4.1341   -0.3117 H   0  0  0  0  0  0  0  0  0  0  0  0
   -1.9311   -2.9256   -0.9384 H   0  0  0  0  0  0  0  0  0  0  0  0
    3.9296    1.5344   -2.0040 H   0  0  0  0  0  0  0  0  0  0  0  0
    6.2005    0.6258   -1.9005 H   0  0  0  0  0  0  0  0  0  0  0  0
    8.4372    0.5091   -1.1352 H   0  0  0  0  0  0  0  0  0  0  0  0
    7.7566   -1.1336   -1.4579 H   0  0  0  0  0  0  0  0  0  0  0  0
    9.1431   -0.9254   -0.3809 H   0  0  0  0  0  0  0  0  0  0  0  0
    5.7060   -0.0967    2.3221 H   0  0  0  0  0  0  0  0  0  0  0  0
    3.4125    0.8261    2.1977 H   0  0  0  0  0  0  0  0  0  0  0  0
  1  2  1  0
  2  3  1  0
  3  4  1  0
  4  5  1  0
  5  6  1  0
  6  7  1  0
  6  8  1  0
  2  9  2  0
  9 10  1  0
 10 11  2  0
 11 12  1  0
 12 13  2  0
 13 14  1  0
 14 15  1  0
 11 16  1  0
 16 17  2  3
 17 18  1  0
 18 19  2  0
 19 20  1  0
 20 21  2  0
 21 22  1  0
 22 23  1  0
 21 24  1  0
 24 25  2  0
 16  1  1  0
 25 18  1  0
 14 10  1  0
  1 26  1  0
  3 27  1  0
  4 28  1  0
  4 29  1  0
  5 30  1  0
  5 31  1  0
  6 32  1  0
  7 33  1  0
  7 34  1  0
  7 35  1  0
  8 36  1  0
  8 37  1  0
  8 38  1  0
 12 39  1  0
 15 40  1  0
 15 41  1  0
 15 42  1  0
 19 43  1  0
 20 44  1  0
 23 45  1  0
 23 46  1  0
 23 47  1  0
 24 48  1  0
 25 49  1  0
M  END
>  <ScrubInfo>  (2) 
{"isomerGroup": 0, "isomerId": 1, "confId": 0, "nr_conformers:": 1, "nr_isomers:": 9}

$$$$
_i2
     RDKit          3D

 49 51  0  0  0  0  0  0  0  0999 V2000
   -0.5779    0.0740   -0.3758 N   0  0  0  0  0  0  0  0  0  0  0  0
    0.6402   -0.4834   -0.7208 C   0  0  0  0  0  0  0  0  0  0  0  0
    1.5797    0.2463   -1.4244 N   0  0  0  0  0  0  0  0  0  0  0  0
    2.9108    0.5118   -1.0295 C   0  0  0  0  0  0  0  0  0  0  0  0
    3.7755    1.0966   -1.9659 C   0  0  0  0  0  0  0  0  0  0  0  0
    5.1187    1.3505   -1.6590 C   0  0  0  0  0  0  0  0  0  0  0  0
    5.6236    1.0154   -0.4054 C   0  0  0  0  0  0  0  0  0  0  0  0
    6.9062    1.2063    0.0255 O   0  0  0  0  0  0  0  0  0  0  0  0
    7.8161    1.7909   -0.8978 C   0  0  0  0  0  0  0  0  0  0  0  0
    4.7737    0.4254    0.5302 C   0  0  0  0  0  0  0  0  0  0  0  0
    3.4328    0.1704    0.2218 C   0  0  0  0  0  0  0  0  0  0  0  0
    0.8045   -1.7667   -0.3782 C   0  0  0  0  0  0  0  0  0  0  0  0
    1.8286   -2.8089   -0.5119 C   0  0  0  0  0  0  0  0  0  0  0  0
    1.4788   -3.9433    0.0419 N   0  0  0  0  0  0  0  0  0  0  0  0
    0.1772   -3.7344    0.5268 N   0  0  0  0  0  0  0  0  0  0  0  0
   -0.3966   -4.6923    1.4395 C   0  0  0  0  0  0  0  0  0  0  0  0
   -0.2867   -2.4412    0.3517 C   0  0  0  0  0  0  0  0  0  0  0  0
   -1.3919   -1.8914    0.7202 N   0  0  0  0  0  0  0  0  0  0  0  0
   -1.5469   -0.5693    0.3662 C   0  0  0  0  0  0  0  0  0  0  0  0
   -2.6423   -0.0536    0.7970 N   0  0  0  0  0  0  0  0  0  0  0  0
   -2.9524    1.3348    0.4913 C   0  0  0  0  0  0  0  0  0  0  0  0
   -4.3353    1.6780    1.0510 C   0  0  0  0  0  0  0  0  0  0  0  0
   -5.4984    0.8537    0.4631 C   0  0  0  0  0  0  0  0  0  0  0  0
   -6.8066    1.2376    1.1600 C   0  0  0  0  0  0  0  0  0  0  0  0
   -5.6440    1.0417   -1.0475 C   0  0  0  0  0  0  0  0  0  0  0  0
   -0.6751    1.0649   -0.5170 H   0  0  0  0  0  0  0  0  0  0  0  0
    1.1854    1.0381   -1.9241 H   0  0  0  0  0  0  0  0  0  0  0  0
    3.4120    1.3499   -2.9595 H   0  0  0  0  0  0  0  0  0  0  0  0
    5.7401    1.8039   -2.4240 H   0  0  0  0  0  0  0  0  0  0  0  0
    8.7895    1.8692   -0.4040 H   0  0  0  0  0  0  0  0  0  0  0  0
    7.9414    1.1584   -1.7828 H   0  0  0  0  0  0  0  0  0  0  0  0
    7.5011    2.8022   -1.1754 H   0  0  0  0  0  0  0  0  0  0  0  0
    5.1576    0.1609    1.5130 H   0  0  0  0  0  0  0  0  0  0  0  0
    2.8101   -0.2752    0.9924 H   0  0  0  0  0  0  0  0  0  0  0  0
    2.7823   -2.6098   -1.0171 H   0  0  0  0  0  0  0  0  0  0  0  0
   -0.0722   -5.7080    1.1908 H   0  0  0  0  0  0  0  0  0  0  0  0
   -1.4901   -4.6709    1.3921 H   0  0  0  0  0  0  0  0  0  0  0  0
   -0.0878   -4.4720    2.4661 H   0  0  0  0  0  0  0  0  0  0  0  0
   -2.2174    1.9950    0.9676 H   0  0  0  0  0  0  0  0  0  0  0  0
   -2.9244    1.5231   -0.5873 H   0  0  0  0  0  0  0  0  0  0  0  0
   -4.3160    1.5344    2.1394 H   0  0  0  0  0  0  0  0  0  0  0  0
   -4.5230    2.7458    0.8802 H   0  0  0  0  0  0  0  0  0  0  0  0
   -5.3195   -0.2106    0.6598 H   0  0  0  0  0  0  0  0  0  0  0  0
   -7.6395    0.6334    0.7849 H   0  0  0  0  0  0  0  0  0  0  0  0
   -7.0513    2.2923    0.9939 H   0  0  0  0  0  0  0  0  0  0  0  0
   -6.7356    1.0714    2.2401 H   0  0  0  0  0  0  0  0  0  0  0  0
   -5.7569    2.0997   -1.3070 H   0  0  0  0  0  0  0  0  0  0  0  0
   -6.5232    0.5065   -1.4224 H   0  0  0  0  0  0  0  0  0  0  0  0
   -4.7749    0.6486   -1.5834 H   0  0  0  0  0  0  0  0  0  0  0  0
  1  2  1  0
  2  3  1  0
  3  4  1  0
  4  5  2  0
  5  6  1  0
  6  7  2  0
  7  8  1  0
  8  9  1  0
  7 10  1  0
 10 11  2  0
  2 12  2  0
 12 13  1  0
 13 14  2  0
 14 15  1  0
 15 16  1  0
 15 17  1  0
 17 18  2  0
 18 19  1  0
 19 20  2  3
 20 21  1  0
 21 22  1  0
 22 23  1  0
 23 24  1  0
 23 25  1  0
 19  1  1  0
 11  4  1  0
 17 12  1  0
  1 26  1  0
  3 27  1  0
  5 28  1  0
  6 29  1  0
  9 30  1  0
  9 31  1  0
  9 32  1  0
 10 33  1  0
 11 34  1  0
 13 35  1  0
 16 36  1  0
 16 37  1  0
 16 38  1  0
 21 39  1  0
 21 40  1  0
 22 41  1  0
 22 42  1  0
 23 43  1  0
 24 44  1  0
 24 45  1  0
 24 46  1  0
 25 47  1  0
 25 48  1  0
 25 49  1  0
M  END
>  <ScrubInfo>  (3) 
{"isomerGroup": 0, "isomerId": 2, "confId": 0, "nr_conformers:": 1, "nr_isomers:": 9}

$$$$
_i3
     RDKit          3D

 49 51  0  0  0  0  0  0  0  0999 V2000
    1.2592   -1.8968   -0.3989 N   0  0  0  0  0  0  0  0  0  0  0  0
    1.4984   -0.5535   -0.2038 C   0  0  0  0  0  0  0  0  0  0  0  0
    2.6388   -0.0795   -0.5880 N   0  0  0  0  0  0  0  0  0  0  0  0
    2.8774    1.3468   -0.3684 C   0  0  0  0  0  0  0  0  0  0  0  0
    4.2910    1.7027   -0.8390 C   0  0  0  0  0  0  0  0  0  0  0  0
    5.4060    1.3938    0.1813 C   0  0  0  0  0  0  0  0  0  0  0  0
    6.7447    1.9177   -0.3473 C   0  0  0  0  0  0  0  0  0  0  0  0
    5.5315   -0.0941    0.5080 C   0  0  0  0  0  0  0  0  0  0  0  0
    0.5570    0.2798    0.3849 N   0  0  0  0  0  0  0  0  0  0  0  0
   -0.5920   -0.2208    0.7482 C   0  0  0  0  0  0  0  0  0  0  0  0
   -1.5685    0.5274    1.3560 N   0  0  0  0  0  0  0  0  0  0  0  0
   -2.8708    0.7176    0.8257 C   0  0  0  0  0  0  0  0  0  0  0  0
   -3.8516    1.2673    1.6621 C   0  0  0  0  0  0  0  0  0  0  0  0
   -5.1501    1.5064    1.1953 C   0  0  0  0  0  0  0  0  0  0  0  0
   -5.4835    1.2095   -0.1244 C   0  0  0  0  0  0  0  0  0  0  0  0
   -6.7058    1.3925   -0.7079 O   0  0  0  0  0  0  0  0  0  0  0  0
   -7.7434    1.9056    0.1181 C   0  0  0  0  0  0  0  0  0  0  0  0
   -4.5062    0.6793   -0.9680 C   0  0  0  0  0  0  0  0  0  0  0  0
   -3.2094    0.4398   -0.5021 C   0  0  0  0  0  0  0  0  0  0  0  0
   -0.8698   -1.6313    0.5914 C   0  0  0  0  0  0  0  0  0  0  0  0
   -1.9034   -2.5299    0.8961 C   0  0  0  0  0  0  0  0  0  0  0  0
   -1.6156   -3.7858    0.5166 N   0  0  0  0  0  0  0  0  0  0  0  0
   -0.3775   -3.6849   -0.0283 N   0  0  0  0  0  0  0  0  0  0  0  0
    0.2616   -4.8680   -0.5447 C   0  0  0  0  0  0  0  0  0  0  0  0
    0.0909   -2.4114    0.0103 C   0  0  0  0  0  0  0  0  0  0  0  0
    2.0244   -2.4054   -0.8211 H   0  0  0  0  0  0  0  0  0  0  0  0
    2.7578    1.6209    0.6866 H   0  0  0  0  0  0  0  0  0  0  0  0
    2.1643    1.9300   -0.9644 H   0  0  0  0  0  0  0  0  0  0  0  0
    4.5061    1.2048   -1.7932 H   0  0  0  0  0  0  0  0  0  0  0  0
    4.3089    2.7824   -1.0380 H   0  0  0  0  0  0  0  0  0  0  0  0
    5.1841    1.9292    1.1133 H   0  0  0  0  0  0  0  0  0  0  0  0
    7.5435    1.7542    0.3839 H   0  0  0  0  0  0  0  0  0  0  0  0
    7.0286    1.4145   -1.2779 H   0  0  0  0  0  0  0  0  0  0  0  0
    6.6917    2.9935   -0.5453 H   0  0  0  0  0  0  0  0  0  0  0  0
    5.6504   -0.6928   -0.4012 H   0  0  0  0  0  0  0  0  0  0  0  0
    4.6534   -0.4572    1.0499 H   0  0  0  0  0  0  0  0  0  0  0  0
    6.4002   -0.2795    1.1494 H   0  0  0  0  0  0  0  0  0  0  0  0
   -1.1911    1.4492    1.5680 H   0  0  0  0  0  0  0  0  0  0  0  0
   -3.6134    1.5018    2.6976 H   0  0  0  0  0  0  0  0  0  0  0  0
   -5.8724    1.9241    1.8886 H   0  0  0  0  0  0  0  0  0  0  0  0
   -7.5013    2.9118    0.4757 H   0  0  0  0  0  0  0  0  0  0  0  0
   -8.6501    1.9778   -0.4902 H   0  0  0  0  0  0  0  0  0  0  0  0
   -7.9552    1.2290    0.9527 H   0  0  0  0  0  0  0  0  0  0  0  0
   -4.7545    0.4528   -2.0025 H   0  0  0  0  0  0  0  0  0  0  0  0
   -2.4766    0.0447   -1.2011 H   0  0  0  0  0  0  0  0  0  0  0  0
   -2.8539   -2.3332    1.3753 H   0  0  0  0  0  0  0  0  0  0  0  0
    1.2260   -4.6081   -0.9860 H   0  0  0  0  0  0  0  0  0  0  0  0
    0.4075   -5.5684    0.2815 H   0  0  0  0  0  0  0  0  0  0  0  0
   -0.3873   -5.3060   -1.3074 H   0  0  0  0  0  0  0  0  0  0  0  0
  1  2  1  0
  2  3  2  3
  3  4  1  0
  4  5  1  0
  5  6  1  0
  6  7  1  0
  6  8  1  0
  2  9  1  0
  9 10  2  0
 10 11  1  0
 11 12  1  0
 12 13  2  0
 13 14  1  0
 14 15  2  0
 15 16  1  0
 16 17  1  0
 15 18  1  0
 18 19  2  0
 10 20  1  0
 20 21  1  0
 21 22  2  0
 22 23  1  0
 23 24  1  0
 23 25  1  0
 25  1  1  0
 19 12  1  0
 25 20  2  0
  1 26  1  0
  4 27  1  0
  4 28  1  0
  5 29  1  0
  5 30  1  0
  6 31  1  0
  7 32  1  0
  7 33  1  0
  7 34  1  0
  8 35  1  0
  8 36  1  0
  8 37  1  0
 11 38  1  0
 13 39  1  0
 14 40  1  0
 17 41  1  0
 17 42  1  0
 17 43  1  0
 18 44  1  0
 19 45  1  0
 21 46  1  0
 24 47  1  0
 24 48  1  0
 24 49  1  0
M  END
>  <ScrubInfo>  (4) 
{"isomerGroup": 0, "isomerId": 3, "confId": 0, "nr_conformers:": 1, "nr_isomers:": 9}

$$$$
_i4
     RDKit          3D

 49 51  0  0  0  0  0  0  0  0999 V2000
    0.9709   -2.2372   -0.0033 N   0  0  0  0  0  0  0  0  0  0  0  0
    0.3594   -1.0304    0.2488 C   0  0  0  0  0  0  0  0  0  0  0  0
    1.1403   -0.1023    0.8774 N   0  0  0  0  0  0  0  0  0  0  0  0
    2.4358    0.2922    0.3344 C   0  0  0  0  0  0  0  0  0  0  0  0
    3.0666    1.3522    1.2403 C   0  0  0  0  0  0  0  0  0  0  0  0
    4.3823    1.9287    0.6864 C   0  0  0  0  0  0  0  0  0  0  0  0
    5.4819    0.8718    0.5735 C   0  0  0  0  0  0  0  0  0  0  0  0
    4.8609    3.0780    1.5771 C   0  0  0  0  0  0  0  0  0  0  0  0
   -0.8749   -0.7248   -0.0440 N   0  0  0  0  0  0  0  0  0  0  0  0
   -1.6716   -1.6691   -0.6795 C   0  0  0  0  0  0  0  0  0  0  0  0
   -2.8958   -1.4644   -1.0484 N   0  0  0  0  0  0  0  0  0  0  0  0
   -3.4596   -0.2071   -0.7975 C   0  0  0  0  0  0  0  0  0  0  0  0
   -4.1495    0.0343    0.3927 C   0  0  0  0  0  0  0  0  0  0  0  0
   -4.7416    1.2792    0.6367 C   0  0  0  0  0  0  0  0  0  0  0  0
   -4.6571    2.2925   -0.3187 C   0  0  0  0  0  0  0  0  0  0  0  0
   -5.1866    3.5489   -0.2085 O   0  0  0  0  0  0  0  0  0  0  0  0
   -5.9059    3.8388    0.9832 C   0  0  0  0  0  0  0  0  0  0  0  0
   -3.9810    2.0465   -1.5164 C   0  0  0  0  0  0  0  0  0  0  0  0
   -3.3914    0.8028   -1.7577 C   0  0  0  0  0  0  0  0  0  0  0  0
   -1.0826   -2.9592   -0.9336 C   0  0  0  0  0  0  0  0  0  0  0  0
   -1.5135   -4.1711   -1.4890 C   0  0  0  0  0  0  0  0  0  0  0  0
   -0.5500   -5.1079   -1.4743 N   0  0  0  0  0  0  0  0  0  0  0  0
    0.5060   -4.4775   -0.9011 N   0  0  0  0  0  0  0  0  0  0  0  0
    1.7404   -5.1982   -0.7248 C   0  0  0  0  0  0  0  0  0  0  0  0
    0.2170   -3.1905   -0.5772 C   0  0  0  0  0  0  0  0  0  0  0  0
    1.8490   -2.4153    0.4640 H   0  0  0  0  0  0  0  0  0  0  0  0
    0.5577    0.7188    1.0414 H   0  0  0  0  0  0  0  0  0  0  0  0
    3.0923   -0.5807    0.2692 H   0  0  0  0  0  0  0  0  0  0  0  0
    2.3001    0.6936   -0.6764 H   0  0  0  0  0  0  0  0  0  0  0  0
    2.3504    2.1736    1.3768 H   0  0  0  0  0  0  0  0  0  0  0  0
    3.2350    0.9254    2.2378 H   0  0  0  0  0  0  0  0  0  0  0  0
    4.1938    2.3363   -0.3149 H   0  0  0  0  0  0  0  0  0  0  0  0
    5.2211    0.1015   -0.1585 H   0  0  0  0  0  0  0  0  0  0  0  0
    6.4233    1.3247    0.2439 H   0  0  0  0  0  0  0  0  0  0  0  0
    5.6620    0.3818    1.5363 H   0  0  0  0  0  0  0  0  0  0  0  0
    5.7763    3.5263    1.1763 H   0  0  0  0  0  0  0  0  0  0  0  0
    5.0704    2.7315    2.5949 H   0  0  0  0  0  0  0  0  0  0  0  0
    4.1033    3.8666    1.6361 H   0  0  0  0  0  0  0  0  0  0  0  0
   -4.2222   -0.7545    1.1362 H   0  0  0  0  0  0  0  0  0  0  0  0
   -5.2596    1.4187    1.5788 H   0  0  0  0  0  0  0  0  0  0  0  0
   -6.7786    3.1856    1.0870 H   0  0  0  0  0  0  0  0  0  0  0  0
   -6.2684    4.8689    0.9125 H   0  0  0  0  0  0  0  0  0  0  0  0
   -5.2560    3.7746    1.8621 H   0  0  0  0  0  0  0  0  0  0  0  0
   -3.9157    2.8268   -2.2699 H   0  0  0  0  0  0  0  0  0  0  0  0
   -2.8754    0.6200   -2.6954 H   0  0  0  0  0  0  0  0  0  0  0  0
   -2.4856   -4.4156   -1.8978 H   0  0  0  0  0  0  0  0  0  0  0  0
    2.5062   -4.5318   -0.3224 H   0  0  0  0  0  0  0  0  0  0  0  0
    1.5608   -6.0218   -0.0293 H   0  0  0  0  0  0  0  0  0  0  0  0
    2.0596   -5.5813   -1.6974 H   0  0  0  0  0  0  0  0  0  0  0  0
  1  2  1  0
  2  3  1  0
  3  4  1  0
  4  5  1  0
  5  6  1  0
  6  7  1  0
  6  8  1  0
  2  9  2  0
  9 10  1  0
 10 11  2  3
 11 12  1  0
 12 13  2  0
 13 14  1  0
 14 15  2  0
 15 16  1  0
 16 17  1  0
 15 18  1  0
 18 19  2  0
 10 20  1  0
 20 21  1  0
 21 22  2  0
 22 23  1  0
 23 24  1  0
 23 25  1  0
 25  1  1  0
 19 12  1  0
 25 20  2  0
  1 26  1  0
  3 27  1  0
  4 28  1  0
  4 29  1  0
  5 30  1  0
  5 31  1  0
  6 32  1  0
  7 33  1  0
  7 34  1  0
  7 35  1  0
  8 36  1  0
  8 37  1  0
  8 38  1  0
 13 39  1  0
 14 40  1  0
 17 41  1  0
 17 42  1  0
 17 43  1  0
 18 44  1  0
 19 45  1  0
 21 46  1  0
 24 47  1  0
 24 48  1  0
 24 49  1  0
M  END
>  <ScrubInfo>  (5) 
{"isomerGroup": 0, "isomerId": 4, "confId": 0, "nr_conformers:": 1, "nr_isomers:": 9}

$$$$
_i5
     RDKit          3D

 49 51  0  0  0  0  0  0  0  0999 V2000
   -0.0931   -5.5909    0.3834 N   0  0  0  0  0  0  0  0  0  0  0  0
   -1.0449   -4.5765    0.3406 C   0  0  0  0  0  0  0  0  0  0  0  0
   -0.5026   -3.3623    0.1840 C   0  0  0  0  0  0  0  0  0  0  0  0
   -0.9621   -2.0006    0.0472 C   0  0  0  0  0  0  0  0  0  0  0  0
   -2.2160   -1.6781    0.1237 N   0  0  0  0  0  0  0  0  0  0  0  0
   -2.5607   -0.3257   -0.0122 C   0  0  0  0  0  0  0  0  0  0  0  0
   -2.9351    0.1843   -1.2570 C   0  0  0  0  0  0  0  0  0  0  0  0
   -3.2952    1.5296   -1.3999 C   0  0  0  0  0  0  0  0  0  0  0  0
   -3.2932    2.3756   -0.2901 C   0  0  0  0  0  0  0  0  0  0  0  0
   -3.6179    3.7043   -0.2903 O   0  0  0  0  0  0  0  0  0  0  0  0
   -4.0004    4.2705   -1.5371 C   0  0  0  0  0  0  0  0  0  0  0  0
   -2.9356    1.8619    0.9588 C   0  0  0  0  0  0  0  0  0  0  0  0
   -2.5784    0.5184    1.0990 C   0  0  0  0  0  0  0  0  0  0  0  0
    0.0361   -1.0921   -0.1735 N   0  0  0  0  0  0  0  0  0  0  0  0
    1.2932   -1.4165   -0.2005 C   0  0  0  0  0  0  0  0  0  0  0  0
    2.2511   -0.4689   -0.4148 N   0  0  0  0  0  0  0  0  0  0  0  0
    1.9847    0.8408   -0.9690 C   0  0  0  0  0  0  0  0  0  0  0  0
    1.4305    1.8120    0.0768 C   0  0  0  0  0  0  0  0  0  0  0  0
    2.3166    2.0141    1.3216 C   0  0  0  0  0  0  0  0  0  0  0  0
    3.6920    2.5832    0.9725 C   0  0  0  0  0  0  0  0  0  0  0  0
    1.6080    2.9417    2.3127 C   0  0  0  0  0  0  0  0  0  0  0  0
    1.7906   -2.6841   -0.0295 N   0  0  0  0  0  0  0  0  0  0  0  0
    0.9406   -3.6302    0.1740 C   0  0  0  0  0  0  0  0  0  0  0  0
    1.1650   -4.9906    0.3954 N   0  0  0  0  0  0  0  0  0  0  0  0
    2.2782   -5.6759   -0.2313 C   0  0  0  0  0  0  0  0  0  0  0  0
   -0.2702   -6.2751    1.1227 H   0  0  0  0  0  0  0  0  0  0  0  0
   -2.0941   -4.8189    0.4353 H   0  0  0  0  0  0  0  0  0  0  0  0
   -2.9393   -0.4724   -2.1221 H   0  0  0  0  0  0  0  0  0  0  0  0
   -3.5706    1.8790   -2.3885 H   0  0  0  0  0  0  0  0  0  0  0  0
   -4.2290    5.3272   -1.3681 H   0  0  0  0  0  0  0  0  0  0  0  0
   -3.1812    4.2193   -2.2619 H   0  0  0  0  0  0  0  0  0  0  0  0
   -4.9052    3.7927   -1.9272 H   0  0  0  0  0  0  0  0  0  0  0  0
   -2.9342    2.5111    1.8303 H   0  0  0  0  0  0  0  0  0  0  0  0
   -2.3016    0.1299    2.0743 H   0  0  0  0  0  0  0  0  0  0  0  0
    3.1587   -0.8672   -0.6159 H   0  0  0  0  0  0  0  0  0  0  0  0
    1.2825    0.7600   -1.8076 H   0  0  0  0  0  0  0  0  0  0  0  0
    2.9126    1.2409   -1.3915 H   0  0  0  0  0  0  0  0  0  0  0  0
    1.2645    2.7812   -0.4115 H   0  0  0  0  0  0  0  0  0  0  0  0
    0.4429    1.4661    0.4032 H   0  0  0  0  0  0  0  0  0  0  0  0
    2.4612    1.0481    1.8208 H   0  0  0  0  0  0  0  0  0  0  0  0
    3.6036    3.5235    0.4179 H   0  0  0  0  0  0  0  0  0  0  0  0
    4.2724    2.7802    1.8804 H   0  0  0  0  0  0  0  0  0  0  0  0
    4.2708    1.8812    0.3648 H   0  0  0  0  0  0  0  0  0  0  0  0
    0.6365    2.5292    2.6053 H   0  0  0  0  0  0  0  0  0  0  0  0
    1.4390    3.9332    1.8787 H   0  0  0  0  0  0  0  0  0  0  0  0
    2.2039    3.0671    3.2229 H   0  0  0  0  0  0  0  0  0  0  0  0
    2.3447   -6.7063    0.1326 H   0  0  0  0  0  0  0  0  0  0  0  0
    3.2222   -5.1757    0.0075 H   0  0  0  0  0  0  0  0  0  0  0  0
    2.1588   -5.6982   -1.3196 H   0  0  0  0  0  0  0  0  0  0  0  0
  1  2  1  0
  2  3  2  0
  3  4  1  0
  4  5  2  3
  5  6  1  0
  6  7  2  0
  7  8  1  0
  8  9  2  0
  9 10  1  0
 10 11  1  0
  9 12  1  0
 12 13  2  0
  4 14  1  0
 14 15  2  0
 15 16  1  0
 16 17  1  0
 17 18  1  0
 18 19  1  0
 19 20  1  0
 19 21  1  0
 15 22  1  0
 22 23  2  0
 23 24  1  0
 24 25  1  0
 24  1  1  0
 23  3  1  0
 13  6  1  0
  1 26  1  0
  2 27  1  0
  7 28  1  0
  8 29  1  0
 11 30  1  0
 11 31  1  0
 11 32  1  0
 12 33  1  0
 13 34  1  0
 16 35  1  0
 17 36  1  0
 17 37  1  0
 18 38  1  0
 18 39  1  0
 19 40  1  0
 20 41  1  0
 20 42  1  0
 20 43  1  0
 21 44  1  0
 21 45  1  0
 21 46  1  0
 25 47  1  0
 25 48  1  0
 25 49  1  0
M  END
>  <ScrubInfo>  (6) 
{"isomerGroup": 0, "isomerId": 5, "confId": 0, "nr_conformers:": 1, "nr_isomers:": 9}

$$$$
_i6
     RDKit          3D

 49 51  0  0  0  0  0  0  0  0999 V2000
   -1.4329   -3.9151    0.3302 N   0  0  0  0  0  0  0  0  0  0  0  0
   -1.8691   -2.6329    0.6471 C   0  0  0  0  0  0  0  0  0  0  0  0
   -0.8617   -1.7752    0.8584 C   0  0  0  0  0  0  0  0  0  0  0  0
   -0.6642   -0.3653    1.1899 C   0  0  0  0  0  0  0  0  0  0  0  0
   -1.6941    0.5211    1.4252 N   0  0  0  0  0  0  0  0  0  0  0  0
   -2.8086    0.6961    0.5741 C   0  0  0  0  0  0  0  0  0  0  0  0
   -2.7793    0.4056   -0.7930 C   0  0  0  0  0  0  0  0  0  0  0  0
   -3.9022    0.6408   -1.5927 C   0  0  0  0  0  0  0  0  0  0  0  0
   -5.0655    1.1877   -1.0490 C   0  0  0  0  0  0  0  0  0  0  0  0
   -6.0864    1.3634   -1.9405 O   0  0  0  0  0  0  0  0  0  0  0  0
   -7.2898    1.9306   -1.4380 C   0  0  0  0  0  0  0  0  0  0  0  0
   -5.0939    1.5070    0.3068 C   0  0  0  0  0  0  0  0  0  0  0  0
   -3.9692    1.2708    1.1072 C   0  0  0  0  0  0  0  0  0  0  0  0
    0.5580    0.0774    1.3099 N   0  0  0  0  0  0  0  0  0  0  0  0
    1.6082   -0.7884    1.0729 C   0  0  0  0  0  0  0  0  0  0  0  0
    2.8126   -0.3376    1.0833 N   0  0  0  0  0  0  0  0  0  0  0  0
    3.0090    1.0844    1.3444 C   0  0  0  0  0  0  0  0  0  0  0  0
    4.5041    1.4066    1.2647 C   0  0  0  0  0  0  0  0  0  0  0  0
    5.1554    1.1402   -0.1073 C   0  0  0  0  0  0  0  0  0  0  0  0
    4.5277    1.9737   -1.2252 C   0  0  0  0  0  0  0  0  0  0  0  0
    6.6574    1.4276   -0.0298 C   0  0  0  0  0  0  0  0  0  0  0  0
    1.5235   -2.1360    0.8167 N   0  0  0  0  0  0  0  0  0  0  0  0
    0.3381   -2.6279    0.7257 C   0  0  0  0  0  0  0  0  0  0  0  0
   -0.0521   -3.9473    0.4952 N   0  0  0  0  0  0  0  0  0  0  0  0
    0.7446   -4.8249   -0.3405 C   0  0  0  0  0  0  0  0  0  0  0  0
   -1.9583   -4.6521    0.8062 H   0  0  0  0  0  0  0  0  0  0  0  0
   -2.9304   -2.4352    0.6997 H   0  0  0  0  0  0  0  0  0  0  0  0
   -1.3187    1.4331    1.6790 H   0  0  0  0  0  0  0  0  0  0  0  0
   -1.8842    0.0082   -1.2648 H   0  0  0  0  0  0  0  0  0  0  0  0
   -3.8646    0.4037   -2.6536 H   0  0  0  0  0  0  0  0  0  0  0  0
   -7.7401    1.2880   -0.6743 H   0  0  0  0  0  0  0  0  0  0  0  0
   -7.9971    2.0050   -2.2697 H   0  0  0  0  0  0  0  0  0  0  0  0
   -7.1194    2.9419   -1.0543 H   0  0  0  0  0  0  0  0  0  0  0  0
   -5.9705    1.9420    0.7749 H   0  0  0  0  0  0  0  0  0  0  0  0
   -4.0110    1.5275    2.1638 H   0  0  0  0  0  0  0  0  0  0  0  0
    2.4538    1.7054    0.6327 H   0  0  0  0  0  0  0  0  0  0  0  0
    2.6617    1.3332    2.3550 H   0  0  0  0  0  0  0  0  0  0  0  0
    4.6462    2.4604    1.5368 H   0  0  0  0  0  0  0  0  0  0  0  0
    5.0290    0.8140    2.0256 H   0  0  0  0  0  0  0  0  0  0  0  0
    5.0349    0.0800   -0.3622 H   0  0  0  0  0  0  0  0  0  0  0  0
    3.4845    1.6907   -1.3952 H   0  0  0  0  0  0  0  0  0  0  0  0
    5.0611    1.8211   -2.1697 H   0  0  0  0  0  0  0  0  0  0  0  0
    4.5588    3.0426   -0.9889 H   0  0  0  0  0  0  0  0  0  0  0  0
    6.8494    2.4785    0.2122 H   0  0  0  0  0  0  0  0  0  0  0  0
    7.1463    1.2048   -0.9842 H   0  0  0  0  0  0  0  0  0  0  0  0
    7.1328    0.8096    0.7393 H   0  0  0  0  0  0  0  0  0  0  0  0
    1.7746   -4.8767    0.0265 H   0  0  0  0  0  0  0  0  0  0  0  0
    0.3336   -5.8395   -0.3270 H   0  0  0  0  0  0  0  0  0  0  0  0
    0.7584   -4.4689   -1.3759 H   0  0  0  0  0  0  0  0  0  0  0  0
  1  2  1  0
  2  3  2  0
  3  4  1  0
  4  5  1  0
  5  6  1  0
  6  7  2  0
  7  8  1  0
  8  9  2  0
  9 10  1  0
 10 11  1  0
  9 12  1  0
 12 13  2  0
  4 14  2  0
 14 15  1  0
 15 16  2  3
 16 17  1  0
 17 18  1  0
 18 19  1  0
 19 20  1  0
 19 21  1  0
 15 22  1  0
 22 23  2  0
 23 24  1  0
 24 25  1  0
 24  1  1  0
 23  3  1  0
 13  6  1  0
  1 26  1  0
  2 27  1  0
  5 28  1  0
  7 29  1  0
  8 30  1  0
 11 31  1  0
 11 32  1  0
 11 33  1  0
 12 34  1  0
 13 35  1  0
 17 36  1  0
 17 37  1  0
 18 38  1  0
 18 39  1  0
 19 40  1  0
 20 41  1  0
 20 42  1  0
 20 43  1  0
 21 44  1  0
 21 45  1  0
 21 46  1  0
 25 47  1  0
 25 48  1  0
 25 49  1  0
M  END
>  <ScrubInfo>  (7) 
{"isomerGroup": 0, "isomerId": 6, "confId": 0, "nr_conformers:": 1, "nr_isomers:": 9}

$$$$
_i7
     RDKit          3D

 49 51  0  0  0  0  0  0  0  0999 V2000
    1.3866   -1.9914    0.6523 N   0  0  0  0  0  0  0  0  0  0  0  0
    1.7995   -0.7499    1.0908 C   0  0  0  0  0  0  0  0  0  0  0  0
    3.0450   -0.5965    1.3859 N   0  0  0  0  0  0  0  0  0  0  0  0
    3.5329    0.6927    1.8663 C   0  0  0  0  0  0  0  0  0  0  0  0
    3.8573    1.6370    0.7064 C   0  0  0  0  0  0  0  0  0  0  0  0
    5.2058    1.3653    0.0086 C   0  0  0  0  0  0  0  0  0  0  0  0
    5.4873    2.4736   -1.0108 C   0  0  0  0  0  0  0  0  0  0  0  0
    5.2617    0.0058   -0.6878 C   0  0  0  0  0  0  0  0  0  0  0  0
    0.7772    0.1776    1.1410 N   0  0  0  0  0  0  0  0  0  0  0  0
   -0.5636    0.0714    0.8262 C   0  0  0  0  0  0  0  0  0  0  0  0
   -1.3511    1.0991    0.9405 N   0  0  0  0  0  0  0  0  0  0  0  0
   -2.7096    1.0341    0.6307 C   0  0  0  0  0  0  0  0  0  0  0  0
   -3.6451    0.7277    1.6191 C   0  0  0  0  0  0  0  0  0  0  0  0
   -5.0075    0.6945    1.3115 C   0  0  0  0  0  0  0  0  0  0  0  0
   -5.4526    0.9831    0.0188 C   0  0  0  0  0  0  0  0  0  0  0  0
   -6.8077    0.9118   -0.1477 O   0  0  0  0  0  0  0  0  0  0  0  0
   -7.3102    1.1762   -1.4514 C   0  0  0  0  0  0  0  0  0  0  0  0
   -4.5206    1.3160   -0.9646 C   0  0  0  0  0  0  0  0  0  0  0  0
   -3.1559    1.3488   -0.6549 C   0  0  0  0  0  0  0  0  0  0  0  0
   -0.8957   -1.2715    0.3818 C   0  0  0  0  0  0  0  0  0  0  0  0
   -2.0389   -1.9669   -0.0544 C   0  0  0  0  0  0  0  0  0  0  0  0
   -1.7835   -3.2466   -0.3674 N   0  0  0  0  0  0  0  0  0  0  0  0
   -0.4624   -3.3818   -0.1180 N   0  0  0  0  0  0  0  0  0  0  0  0
    0.1708   -4.6558   -0.3479 C   0  0  0  0  0  0  0  0  0  0  0  0
    0.0990   -2.2236    0.3224 C   0  0  0  0  0  0  0  0  0  0  0  0
    2.1267   -2.6819    0.6064 H   0  0  0  0  0  0  0  0  0  0  0  0
    4.4298    0.5221    2.4728 H   0  0  0  0  0  0  0  0  0  0  0  0
    2.8082    1.1612    2.5426 H   0  0  0  0  0  0  0  0  0  0  0  0
    3.0475    1.6282   -0.0336 H   0  0  0  0  0  0  0  0  0  0  0  0
    3.8910    2.6549    1.1167 H   0  0  0  0  0  0  0  0  0  0  0  0
    6.0030    1.3964    0.7622 H   0  0  0  0  0  0  0  0  0  0  0  0
    6.4636    2.3282   -1.4854 H   0  0  0  0  0  0  0  0  0  0  0  0
    4.7264    2.4911   -1.7987 H   0  0  0  0  0  0  0  0  0  0  0  0
    5.4974    3.4558   -0.5265 H   0  0  0  0  0  0  0  0  0  0  0  0
    4.4175   -0.1260   -1.3728 H   0  0  0  0  0  0  0  0  0  0  0  0
    5.2506   -0.8130    0.0373 H   0  0  0  0  0  0  0  0  0  0  0  0
    6.1855   -0.0967   -1.2679 H   0  0  0  0  0  0  0  0  0  0  0  0
    1.0243    1.1081    1.4366 H   0  0  0  0  0  0  0  0  0  0  0  0
   -3.3140    0.5134    2.6313 H   0  0  0  0  0  0  0  0  0  0  0  0
   -5.7280    0.4461    2.0870 H   0  0  0  0  0  0  0  0  0  0  0  0
   -6.9234    0.4541   -2.1781 H   0  0  0  0  0  0  0  0  0  0  0  0
   -8.3984    1.0655   -1.4191 H   0  0  0  0  0  0  0  0  0  0  0  0
   -7.0892    2.2039   -1.7581 H   0  0  0  0  0  0  0  0  0  0  0  0
   -4.8185    1.5607   -1.9784 H   0  0  0  0  0  0  0  0  0  0  0  0
   -2.4354    1.6212   -1.4216 H   0  0  0  0  0  0  0  0  0  0  0  0
   -3.0551   -1.6148   -0.1674 H   0  0  0  0  0  0  0  0  0  0  0  0
    1.0709   -4.7344    0.2657 H   0  0  0  0  0  0  0  0  0  0  0  0
   -0.5252   -5.4527   -0.0728 H   0  0  0  0  0  0  0  0  0  0  0  0
    0.4260   -4.7220   -1.4082 H   0  0  0  0  0  0  0  0  0  0  0  0
  1  2  1  0
  2  3  2  3
  3  4  1  0
  4  5  1  0
  5  6  1  0
  6  7  1  0
  6  8  1  0
  2  9  1  0
  9 10  1  0
 10 11  2  3
 11 12  1  0
 12 13  2  0
 13 14  1  0
 14 15  2  0
 15 16  1  0
 16 17  1  0
 15 18  1  0
 18 19  2  0
 10 20  1  0
 20 21  1  0
 21 22  2  0
 22 23  1  0
 23 24  1  0
 23 25  1  0
 25  1  1  0
 19 12  1  0
 25 20  2  0
  1 26  1  0
  4 27  1  0
  4 28  1  0
  5 29  1  0
  5 30  1  0
  6 31  1  0
  7 32  1  0
  7 33  1  0
  7 34  1  0
  8 35  1  0
  8 36  1  0
  8 37  1  0
  9 38  1  0
 13 39  1  0
 14 40  1  0
 17 41  1  0
 17 42  1  0
 17 43  1  0
 18 44  1  0
 19 45  1  0
 21 46  1  0
 24 47  1  0
 24 48  1  0
 24 49  1  0
M  END
>  <ScrubInfo>  (8) 
{"isomerGroup": 0, "isomerId": 7, "confId": 0, "nr_conformers:": 1, "nr_isomers:": 9}

$$$$
_i8
     RDKit          3D

 49 51  0  0  0  0  0  0  0  0999 V2000
   -1.6426   -3.1519   -0.5505 N   0  0  0  0  0  0  0  0  0  0  0  0
   -2.0322   -1.8480   -0.2662 C   0  0  0  0  0  0  0  0  0  0  0  0
   -1.0185   -0.9708   -0.2833 C   0  0  0  0  0  0  0  0  0  0  0  0
   -0.7513    0.4599   -0.0480 C   0  0  0  0  0  0  0  0  0  0  0  0
   -1.5815    1.4188    0.2417 N   0  0  0  0  0  0  0  0  0  0  0  0
   -2.9497    1.1656    0.3657 C   0  0  0  0  0  0  0  0  0  0  0  0
   -3.7930    1.2939   -0.7401 C   0  0  0  0  0  0  0  0  0  0  0  0
   -5.1681    1.0614   -0.6200 C   0  0  0  0  0  0  0  0  0  0  0  0
   -5.7119    0.7118    0.6163 C   0  0  0  0  0  0  0  0  0  0  0  0
   -7.0300    0.4534    0.8714 O   0  0  0  0  0  0  0  0  0  0  0  0
   -7.9382    0.6128   -0.2113 C   0  0  0  0  0  0  0  0  0  0  0  0
   -4.8707    0.6052    1.7270 C   0  0  0  0  0  0  0  0  0  0  0  0
   -3.4989    0.8402    1.6059 C   0  0  0  0  0  0  0  0  0  0  0  0
    0.5780    0.7726   -0.1604 N   0  0  0  0  0  0  0  0  0  0  0  0
    1.6096   -0.0788   -0.4668 C   0  0  0  0  0  0  0  0  0  0  0  0
    2.8564    0.2276   -0.5371 N   0  0  0  0  0  0  0  0  0  0  0  0
    3.2771    1.5949   -0.2642 C   0  0  0  0  0  0  0  0  0  0  0  0
    4.8023    1.6895   -0.3623 C   0  0  0  0  0  0  0  0  0  0  0  0
    5.5582    1.2396    0.9049 C   0  0  0  0  0  0  0  0  0  0  0  0
    5.3412   -0.2341    1.2473 C   0  0  0  0  0  0  0  0  0  0  0  0
    7.0557    1.5111    0.7325 C   0  0  0  0  0  0  0  0  0  0  0  0
    1.3692   -1.4081   -0.7439 N   0  0  0  0  0  0  0  0  0  0  0  0
    0.1483   -1.8348   -0.6750 C   0  0  0  0  0  0  0  0  0  0  0  0
   -0.3081   -3.1306   -0.9281 N   0  0  0  0  0  0  0  0  0  0  0  0
    0.5280   -4.2820   -0.6456 C   0  0  0  0  0  0  0  0  0  0  0  0
   -2.2825   -3.6403   -1.1808 H   0  0  0  0  0  0  0  0  0  0  0  0
   -3.0762   -1.6619   -0.0615 H   0  0  0  0  0  0  0  0  0  0  0  0
   -3.3758    1.5799   -1.7021 H   0  0  0  0  0  0  0  0  0  0  0  0
   -5.7820    1.1681   -1.5078 H   0  0  0  0  0  0  0  0  0  0  0  0
   -8.9439    0.3957    0.1614 H   0  0  0  0  0  0  0  0  0  0  0  0
   -7.9354    1.6434   -0.5816 H   0  0  0  0  0  0  0  0  0  0  0  0
   -7.7207   -0.0976   -1.0156 H   0  0  0  0  0  0  0  0  0  0  0  0
   -5.2881    0.3457    2.6969 H   0  0  0  0  0  0  0  0  0  0  0  0
   -2.8581    0.7689    2.4802 H   0  0  0  0  0  0  0  0  0  0  0  0
    0.7973    1.7400    0.0094 H   0  0  0  0  0  0  0  0  0  0  0  0
    2.8442    2.2637   -1.0180 H   0  0  0  0  0  0  0  0  0  0  0  0
    2.9457    1.9285    0.7261 H   0  0  0  0  0  0  0  0  0  0  0  0
    5.1588    1.1244   -1.2332 H   0  0  0  0  0  0  0  0  0  0  0  0
    5.0549    2.7420   -0.5472 H   0  0  0  0  0  0  0  0  0  0  0  0
    5.2066    1.8413    1.7528 H   0  0  0  0  0  0  0  0  0  0  0  0
    5.5776   -0.8800    0.3951 H   0  0  0  0  0  0  0  0  0  0  0  0
    5.9781   -0.5364    2.0860 H   0  0  0  0  0  0  0  0  0  0  0  0
    4.3071   -0.4236    1.5496 H   0  0  0  0  0  0  0  0  0  0  0  0
    7.2392    2.5720    0.5315 H   0  0  0  0  0  0  0  0  0  0  0  0
    7.4715    0.9309   -0.0984 H   0  0  0  0  0  0  0  0  0  0  0  0
    7.6071    1.2458    1.6409 H   0  0  0  0  0  0  0  0  0  0  0  0
    0.7187   -4.3699    0.4290 H   0  0  0  0  0  0  0  0  0  0  0  0
    1.4871   -4.2002   -1.1671 H   0  0  0  0  0  0  0  0  0  0  0  0
    0.0397   -5.2001   -0.9883 H   0  0  0  0  0  0  0  0  0  0  0  0
  1  2  1  0
  2  3  2  0
  3  4  1  0
  4  5  2  3
  5  6  1  0
  6  7  2  0
  7  8  1  0
  8  9  2  0
  9 10  1  0
 10 11  1  0
  9 12  1  0
 12 13  2  0
  4 14  1  0
 14 15  1  0
 15 16  2  3
 16 17  1  0
 17 18  1  0
 18 19  1  0
 19 20  1  0
 19 21  1  0
 15 22  1  0
 22 23  2  0
 23 24  1  0
 24 25  1  0
 24  1  1  0
 23  3  1  0
 13  6  1  0
  1 26  1  0
  2 27  1  0
  7 28  1  0
  8 29  1  0
 11 30  1  0
 11 31  1  0
 11 32  1  0
 12 33  1  0
 13 34  1  0
 14 35  1  0
 17 36  1  0
 17 37  1  0
 18 38  1  0
 18 39  1  0
 19 40  1  0
 20 41  1  0
 20 42  1  0
 20 43  1  0
 21 44  1  0
 21 45  1  0
 21 46  1  0
 25 47  1  0
 25 48  1  0
 25 49  1  0
M  END
>  <ScrubInfo>  (9) 
{"isomerGroup": 0, "isomerId": 8, "confId": 0, "nr_conformers:": 1, "nr_isomers:": 9}

$$$$
