_i0
     RDKit          3D

 42 44  0  0  0  0  0  0  0  0999 V2000
    6.5625    2.7677    1.6400 C   0  0  0  0  0  0  0  0  0  0  0  0
    5.2414    3.0389    1.1899 O   0  0  0  0  0  0  0  0  0  0  0  0
    4.4139    1.9644    1.0222 C   0  0  0  0  0  0  0  0  0  0  0  0
    3.1245    2.2768    0.5951 C   0  0  0  0  0  0  0  0  0  0  0  0
    2.1728    1.2707    0.3823 C   0  0  0  0  0  0  0  0  0  0  0  0
    2.4801   -0.0716    0.6075 C   0  0  0  0  0  0  0  0  0  0  0  0
    1.5962   -1.1356    0.3731 N   0  0  0  0  0  0  0  0  0  0  0  0
    0.2204   -1.1939    0.0092 C   0  0  0  0  0  0  0  0  0  0  0  0
   -0.4554   -0.0787   -0.3238 N   0  0  0  0  0  0  0  0  0  0  0  0
   -1.7290   -0.2058   -0.6877 C   0  0  0  0  0  0  0  0  0  0  0  0
   -2.3774    0.9801   -0.9952 N   0  0  0  0  0  0  0  0  0  0  0  0
   -3.4384    0.9071   -1.9843 C   0  0  0  0  0  0  0  0  0  0  0  0
   -4.8004    0.6318   -1.3484 C   0  0  0  0  0  0  0  0  0  0  0  0
   -5.2421    1.7443   -0.4056 C   0  0  0  0  0  0  0  0  0  0  0  0
   -6.5575    1.4860    0.0767 O   0  0  0  0  0  0  0  0  0  0  0  0
   -2.3626   -1.3710   -0.7703 N   0  0  0  0  0  0  0  0  0  0  0  0
   -1.6939   -2.4699   -0.4490 C   0  0  0  0  0  0  0  0  0  0  0  0
   -2.3469   -3.6363   -0.5352 N   0  0  0  0  0  0  0  0  0  0  0  0
   -1.6807   -4.7655   -0.2050 C   0  0  0  0  0  0  0  0  0  0  0  0
   -0.3679   -4.7509    0.2075 C   0  0  0  0  0  0  0  0  0  0  0  0
    0.3256   -3.6012    0.3025 N   0  0  0  0  0  0  0  0  0  0  0  0
   -0.3566   -2.4604   -0.0354 C   0  0  0  0  0  0  0  0  0  0  0  0
    3.7897   -0.3731    1.0164 C   0  0  0  0  0  0  0  0  0  0  0  0
    4.7463    0.6296    1.2297 C   0  0  0  0  0  0  0  0  0  0  0  0
    6.5544    2.2950    2.6278 H   0  0  0  0  0  0  0  0  0  0  0  0
    7.1092    2.1574    0.9136 H   0  0  0  0  0  0  0  0  0  0  0  0
    7.0869    3.7236    1.7330 H   0  0  0  0  0  0  0  0  0  0  0  0
    2.8511    3.3146    0.4211 H   0  0  0  0  0  0  0  0  0  0  0  0
    1.1882    1.5724    0.0433 H   0  0  0  0  0  0  0  0  0  0  0  0
    1.8803   -2.0220    0.7867 H   0  0  0  0  0  0  0  0  0  0  0  0
   -1.6458    1.6583   -1.1836 H   0  0  0  0  0  0  0  0  0  0  0  0
   -3.4841    1.8716   -2.5048 H   0  0  0  0  0  0  0  0  0  0  0  0
   -3.2192    0.1600   -2.7579 H   0  0  0  0  0  0  0  0  0  0  0  0
   -5.5470    0.5209   -2.1448 H   0  0  0  0  0  0  0  0  0  0  0  0
   -4.8053   -0.3214   -0.8073 H   0  0  0  0  0  0  0  0  0  0  0  0
   -4.5786    1.8170    0.4614 H   0  0  0  0  0  0  0  0  0  0  0  0
   -5.2512    2.7144   -0.9130 H   0  0  0  0  0  0  0  0  0  0  0  0
   -7.1410    1.3826   -0.6933 H   0  0  0  0  0  0  0  0  0  0  0  0
   -2.2446   -5.6883   -0.2841 H   0  0  0  0  0  0  0  0  0  0  0  0
    0.1601   -5.6599    0.4714 H   0  0  0  0  0  0  0  0  0  0  0  0
    4.0849   -1.4081    1.1741 H   0  0  0  0  0  0  0  0  0  0  0  0
    5.7372    0.3284    1.5509 H   0  0  0  0  0  0  0  0  0  0  0  0
  1  2  1  0
  2  3  1  0
  3  4  2  0
  4  5  1  0
  5  6  2  0
  6  7  1  0
  7  8  1  0
  8  9  2  0
  9 10  1  0
 10 11  1  0
 11 12  1  0
 12 13  1  0
 13 14  1  0
 14 15  1  0
 10 16  2  0
 16 17  1  0
 17 18  2  0
 18 19  1  0
 19 20  2  0
 20 21  1  0
 21 22  2  0
  6 23  1  0
 23 24  2  0
 24  3  1  0
 22  8  1  0
 22 17  1  0
  1 25  1  0
  1 26  1  0
  1 27  1  0
  4 28  1  0
  5 29  1  0
  7 30  1  0
 11 31  1  0
 12 32  1  0
 12 33  1  0
 13 34  1  0
 13 35  1  0
 14 36  1  0
 14 37  1  0
 15 38  1  0
 19 39  1  0
 20 40  1  0
 23 41  1  0
 24 42  1  0
M  END
>  <ScrubInfo>  (1) 
{"isomerGroup": 0, "isomerId": 0, "confId": 0, "nr_conformers:": 1, "nr_isomers:": 9}

$$$$
_i1
     RDKit          3D

 42 44  0  0  0  0  0  0  0  0999 V2000
    1.4009    0.5448   -0.8675 N   0  0  0  0  0  0  0  0  0  0  0  0
    2.4336   -0.3389   -0.7878 C   0  0  0  0  0  0  0  0  0  0  0  0
    3.6380    0.2225   -1.1096 N   0  0  0  0  0  0  0  0  0  0  0  0
    4.8899   -0.4888   -0.8789 C   0  0  0  0  0  0  0  0  0  0  0  0
    5.3957   -0.2444    0.5440 C   0  0  0  0  0  0  0  0  0  0  0  0
    5.8930    1.1832    0.7573 C   0  0  0  0  0  0  0  0  0  0  0  0
    4.8611    2.1258    0.4755 O   0  0  0  0  0  0  0  0  0  0  0  0
    2.2700   -1.5842   -0.4589 N   0  0  0  0  0  0  0  0  0  0  0  0
    0.9502   -1.9860   -0.1622 C   0  0  0  0  0  0  0  0  0  0  0  0
    0.8364   -3.2863    0.2063 N   0  0  0  0  0  0  0  0  0  0  0  0
   -0.4159   -3.7062    0.5007 C   0  0  0  0  0  0  0  0  0  0  0  0
   -1.5218   -2.8719    0.4401 C   0  0  0  0  0  0  0  0  0  0  0  0
   -1.4329   -1.5737    0.0815 N   0  0  0  0  0  0  0  0  0  0  0  0
   -0.1789   -1.1500   -0.2218 C   0  0  0  0  0  0  0  0  0  0  0  0
    0.0745    0.2658   -0.6413 C   0  0  0  0  0  0  0  0  0  0  0  0
   -0.7761    1.2449   -0.8233 N   0  0  0  0  0  0  0  0  0  0  0  0
   -2.1504    1.0718   -0.6371 C   0  0  0  0  0  0  0  0  0  0  0  0
   -2.9650    0.6821   -1.7006 C   0  0  0  0  0  0  0  0  0  0  0  0
   -4.3451    0.5551   -1.5214 C   0  0  0  0  0  0  0  0  0  0  0  0
   -4.9298    0.8330   -0.2833 C   0  0  0  0  0  0  0  0  0  0  0  0
   -6.2873    0.6681   -0.2419 O   0  0  0  0  0  0  0  0  0  0  0  0
   -6.9298    0.9534    0.9938 C   0  0  0  0  0  0  0  0  0  0  0  0
   -4.1205    1.2466    0.7755 C   0  0  0  0  0  0  0  0  0  0  0  0
   -2.7380    1.3723    0.5935 C   0  0  0  0  0  0  0  0  0  0  0  0
    1.5851    1.4682   -1.2291 H   0  0  0  0  0  0  0  0  0  0  0  0
    3.7350    1.1897   -0.7899 H   0  0  0  0  0  0  0  0  0  0  0  0
    4.7688   -1.5630   -1.0587 H   0  0  0  0  0  0  0  0  0  0  0  0
    5.6315   -0.1334   -1.6032 H   0  0  0  0  0  0  0  0  0  0  0  0
    4.5924   -0.4579    1.2595 H   0  0  0  0  0  0  0  0  0  0  0  0
    6.2186   -0.9364    0.7563 H   0  0  0  0  0  0  0  0  0  0  0  0
    6.2089    1.3152    1.7971 H   0  0  0  0  0  0  0  0  0  0  0  0
    6.7439    1.3995    0.1034 H   0  0  0  0  0  0  0  0  0  0  0  0
    5.1943    2.9954    0.7642 H   0  0  0  0  0  0  0  0  0  0  0  0
   -0.5081   -4.7469    0.7911 H   0  0  0  0  0  0  0  0  0  0  0  0
   -2.5166   -3.2308    0.6803 H   0  0  0  0  0  0  0  0  0  0  0  0
   -2.5226    0.4725   -2.6694 H   0  0  0  0  0  0  0  0  0  0  0  0
   -4.9676    0.2405   -2.3546 H   0  0  0  0  0  0  0  0  0  0  0  0
   -6.7974    2.0034    1.2749 H   0  0  0  0  0  0  0  0  0  0  0  0
   -6.5781    0.2838    1.7857 H   0  0  0  0  0  0  0  0  0  0  0  0
   -8.0017    0.7774    0.8616 H   0  0  0  0  0  0  0  0  0  0  0  0
   -4.5270    1.4815    1.7524 H   0  0  0  0  0  0  0  0  0  0  0  0
   -2.1116    1.7020    1.4170 H   0  0  0  0  0  0  0  0  0  0  0  0
  1  2  1  0
  2  3  1  0
  3  4  1  0
  4  5  1  0
  5  6  1  0
  6  7  1  0
  2  8  2  0
  8  9  1  0
  9 10  2  0
 10 11  1  0
 11 12  2  0
 12 13  1  0
 13 14  2  0
 14 15  1  0
 15 16  2  3
 16 17  1  0
 17 18  2  0
 18 19  1  0
 19 20  2  0
 20 21  1  0
 21 22  1  0
 20 23  1  0
 23 24  2  0
 15  1  1  0
 24 17  1  0
 14  9  1  0
  1 25  1  0
  3 26  1  0
  4 27  1  0
  4 28  1  0
  5 29  1  0
  5 30  1  0
  6 31  1  0
  6 32  1  0
  7 33  1  0
 11 34  1  0
 12 35  1  0
 18 36  1  0
 19 37  1  0
 22 38  1  0
 22 39  1  0
 22 40  1  0
 23 41  1  0
 24 42  1  0
M  END
>  <ScrubInfo>  (2) 
{"isomerGroup": 0, "isomerId": 1, "confId": 0, "nr_conformers:": 1, "nr_isomers:": 9}

$$$$
_i2
     RDKit          3D

 42 44  0  0  0  0  0  0  0  0999 V2000
   -0.6350    0.4671    0.1595 N   0  0  0  0  0  0  0  0  0  0  0  0
    0.3020    1.3573    0.6251 C   0  0  0  0  0  0  0  0  0  0  0  0
    1.5827    0.9637    0.9942 N   0  0  0  0  0  0  0  0  0  0  0  0
    2.4086   -0.0144    0.4086 C   0  0  0  0  0  0  0  0  0  0  0  0
    3.5422   -0.4341    1.1200 C   0  0  0  0  0  0  0  0  0  0  0  0
    4.3909   -1.4318    0.6222 C   0  0  0  0  0  0  0  0  0  0  0  0
    4.1159   -2.0339   -0.6025 C   0  0  0  0  0  0  0  0  0  0  0  0
    4.8546   -3.0135   -1.2044 O   0  0  0  0  0  0  0  0  0  0  0  0
    6.0063   -3.4708   -0.5070 C   0  0  0  0  0  0  0  0  0  0  0  0
    2.9891   -1.6273   -1.3169 C   0  0  0  0  0  0  0  0  0  0  0  0
    2.1417   -0.6319   -0.8160 C   0  0  0  0  0  0  0  0  0  0  0  0
   -0.0694    2.6522    0.7833 C   0  0  0  0  0  0  0  0  0  0  0  0
    0.7827    3.6215    1.2761 N   0  0  0  0  0  0  0  0  0  0  0  0
    0.2797    4.8100    1.3271 C   0  0  0  0  0  0  0  0  0  0  0  0
   -1.1127    5.1240    0.8932 C   0  0  0  0  0  0  0  0  0  0  0  0
   -1.9277    4.2323    0.4458 N   0  0  0  0  0  0  0  0  0  0  0  0
   -1.4965    2.9287    0.3603 C   0  0  0  0  0  0  0  0  0  0  0  0
   -2.3593    2.0720   -0.0720 N   0  0  0  0  0  0  0  0  0  0  0  0
   -1.9236    0.7777   -0.1467 C   0  0  0  0  0  0  0  0  0  0  0  0
   -2.7284   -0.1699   -0.4994 N   0  0  0  0  0  0  0  0  0  0  0  0
   -4.1026    0.2164   -0.8272 C   0  0  0  0  0  0  0  0  0  0  0  0
   -4.8862   -1.0251   -1.2428 C   0  0  0  0  0  0  0  0  0  0  0  0
   -5.0350   -2.0249   -0.1055 C   0  0  0  0  0  0  0  0  0  0  0  0
   -5.8717   -3.0953   -0.5345 O   0  0  0  0  0  0  0  0  0  0  0  0
   -0.3939   -0.5128    0.1894 H   0  0  0  0  0  0  0  0  0  0  0  0
    2.1122    1.7375    1.3991 H   0  0  0  0  0  0  0  0  0  0  0  0
    3.7686    0.0090    2.0873 H   0  0  0  0  0  0  0  0  0  0  0  0
    5.2506   -1.7143    1.2199 H   0  0  0  0  0  0  0  0  0  0  0  0
    5.7340   -3.9177    0.4549 H   0  0  0  0  0  0  0  0  0  0  0  0
    6.4775   -4.2497   -1.1142 H   0  0  0  0  0  0  0  0  0  0  0  0
    6.7349   -2.6639   -0.3766 H   0  0  0  0  0  0  0  0  0  0  0  0
    2.7669   -2.0859   -2.2777 H   0  0  0  0  0  0  0  0  0  0  0  0
    1.2944   -0.3317   -1.4255 H   0  0  0  0  0  0  0  0  0  0  0  0
    0.8607    5.6676    1.6996 H   0  0  0  0  0  0  0  0  0  0  0  0
   -1.4053    6.1813    0.9816 H   0  0  0  0  0  0  0  0  0  0  0  0
   -4.5940    0.6858    0.0337 H   0  0  0  0  0  0  0  0  0  0  0  0
   -4.1101    0.9241   -1.6652 H   0  0  0  0  0  0  0  0  0  0  0  0
   -4.4020   -1.5158   -2.0965 H   0  0  0  0  0  0  0  0  0  0  0  0
   -5.8819   -0.7259   -1.5928 H   0  0  0  0  0  0  0  0  0  0  0  0
   -5.4990   -1.5579    0.7690 H   0  0  0  0  0  0  0  0  0  0  0  0
   -4.0659   -2.4417    0.1858 H   0  0  0  0  0  0  0  0  0  0  0  0
   -5.8961   -3.7381    0.1942 H   0  0  0  0  0  0  0  0  0  0  0  0
  1  2  1  0
  2  3  1  0
  3  4  1  0
  4  5  2  0
  5  6  1  0
  6  7  2  0
  7  8  1  0
  8  9  1  0
  7 10  1  0
 10 11  2  0
  2 12  2  0
 12 13  1  0
 13 14  2  0
 14 15  1  0
 15 16  2  0
 16 17  1  0
 17 18  2  0
 18 19  1  0
 19 20  2  3
 20 21  1  0
 21 22  1  0
 22 23  1  0
 23 24  1  0
 19  1  1  0
 11  4  1  0
 17 12  1  0
  1 25  1  0
  3 26  1  0
  5 27  1  0
  6 28  1  0
  9 29  1  0
  9 30  1  0
  9 31  1  0
 10 32  1  0
 11 33  1  0
 14 34  1  0
 15 35  1  0
 21 36  1  0
 21 37  1  0
 22 38  1  0
 22 39  1  0
 23 40  1  0
 23 41  1  0
 24 42  1  0
M  END
>  <ScrubInfo>  (3) 
{"isomerGroup": 0, "isomerId": 2, "confId": 0, "nr_conformers:": 1, "nr_isomers:": 9}

$$$$
_i3
     RDKit          3D

 42 44  0  0  0  0  0  0  0  0999 V2000
    2.5882    0.0845   -0.9738 N   0  0  0  0  0  0  0  0  0  0  0  0
    2.3743   -1.1463   -0.4312 C   0  0  0  0  0  0  0  0  0  0  0  0
    3.2439   -1.8805    0.1664 N   0  0  0  0  0  0  0  0  0  0  0  0
    4.6427   -1.4700    0.2252 C   0  0  0  0  0  0  0  0  0  0  0  0
    4.9730   -0.7856    1.5484 C   0  0  0  0  0  0  0  0  0  0  0  0
    4.3030    0.5677    1.7443 C   0  0  0  0  0  0  0  0  0  0  0  0
    4.5256    1.4014    0.6092 O   0  0  0  0  0  0  0  0  0  0  0  0
    1.1324   -1.7360   -0.4752 N   0  0  0  0  0  0  0  0  0  0  0  0
    0.1320   -1.1114   -1.0428 C   0  0  0  0  0  0  0  0  0  0  0  0
   -1.0822   -1.7761   -1.0688 N   0  0  0  0  0  0  0  0  0  0  0  0
   -2.2819   -1.2452   -0.5328 C   0  0  0  0  0  0  0  0  0  0  0  0
   -2.3050   -0.2631    0.4642 C   0  0  0  0  0  0  0  0  0  0  0  0
   -3.5173    0.1826    1.0083 C   0  0  0  0  0  0  0  0  0  0  0  0
   -4.7245   -0.3623    0.5739 C   0  0  0  0  0  0  0  0  0  0  0  0
   -5.9707   -0.0198    1.0200 O   0  0  0  0  0  0  0  0  0  0  0  0
   -6.0407    0.9922    2.0162 C   0  0  0  0  0  0  0  0  0  0  0  0
   -4.7064   -1.3599   -0.4015 C   0  0  0  0  0  0  0  0  0  0  0  0
   -3.4969   -1.8048   -0.9426 C   0  0  0  0  0  0  0  0  0  0  0  0
    0.2954    0.2349   -1.6693 C   0  0  0  0  0  0  0  0  0  0  0  0
   -0.7591    0.8433   -2.2714 N   0  0  0  0  0  0  0  0  0  0  0  0
   -0.4904    2.0697   -2.7656 C   0  0  0  0  0  0  0  0  0  0  0  0
    0.7620    2.6556   -2.6559 C   0  0  0  0  0  0  0  0  0  0  0  0
    1.8100    2.0405   -2.0531 N   0  0  0  0  0  0  0  0  0  0  0  0
    1.5628    0.8004   -1.5661 C   0  0  0  0  0  0  0  0  0  0  0  0
    3.4611    0.5780   -0.8361 H   0  0  0  0  0  0  0  0  0  0  0  0
    4.9517   -0.8639   -0.6338 H   0  0  0  0  0  0  0  0  0  0  0  0
    5.2477   -2.3824    0.1554 H   0  0  0  0  0  0  0  0  0  0  0  0
    6.0598   -0.6375    1.5771 H   0  0  0  0  0  0  0  0  0  0  0  0
    4.7149   -1.4403    2.3889 H   0  0  0  0  0  0  0  0  0  0  0  0
    3.2240    0.4591    1.8904 H   0  0  0  0  0  0  0  0  0  0  0  0
    4.7191    1.0634    2.6276 H   0  0  0  0  0  0  0  0  0  0  0  0
    4.2374    2.2979    0.8628 H   0  0  0  0  0  0  0  0  0  0  0  0
   -0.9551   -2.7107   -0.6831 H   0  0  0  0  0  0  0  0  0  0  0  0
   -1.3804    0.1635    0.8425 H   0  0  0  0  0  0  0  0  0  0  0  0
   -3.4782    0.9501    1.7736 H   0  0  0  0  0  0  0  0  0  0  0  0
   -5.6389    1.9407    1.6448 H   0  0  0  0  0  0  0  0  0  0  0  0
   -7.0961    1.1502    2.2586 H   0  0  0  0  0  0  0  0  0  0  0  0
   -5.5319    0.6787    2.9338 H   0  0  0  0  0  0  0  0  0  0  0  0
   -5.6410   -1.7969   -0.7438 H   0  0  0  0  0  0  0  0  0  0  0  0
   -3.5091   -2.5829   -1.7018 H   0  0  0  0  0  0  0  0  0  0  0  0
   -1.3146    2.5773   -3.2548 H   0  0  0  0  0  0  0  0  0  0  0  0
    0.9596    3.6440   -3.0567 H   0  0  0  0  0  0  0  0  0  0  0  0
  1  2  1  0
  2  3  2  3
  3  4  1  0
  4  5  1  0
  5  6  1  0
  6  7  1  0
  2  8  1  0
  8  9  2  0
  9 10  1  0
 10 11  1  0
 11 12  2  0
 12 13  1  0
 13 14  2  0
 14 15  1  0
 15 16  1  0
 14 17  1  0
 17 18  2  0
  9 19  1  0
 19 20  2  0
 20 21  1  0
 21 22  2  0
 22 23  1  0
 23 24  2  0
 24  1  1  0
 18 11  1  0
 24 19  1  0
  1 25  1  0
  4 26  1  0
  4 27  1  0
  5 28  1  0
  5 29  1  0
  6 30  1  0
  6 31  1  0
  7 32  1  0
 10 33  1  0
 12 34  1  0
 13 35  1  0
 16 36  1  0
 16 37  1  0
 16 38  1  0
 17 39  1  0
 18 40  1  0
 21 41  1  0
 22 42  1  0
M  END
>  <ScrubInfo>  (4) 
{"isomerGroup": 0, "isomerId": 3, "confId": 0, "nr_conformers:": 1, "nr_isomers:": 9}

$$$$
_i4
     RDKit          3D

 42 44  0  0  0  0  0  0  0  0999 V2000
    2.4377   -1.5619   -0.7249 N   0  0  0  0  0  0  0  0  0  0  0  0
    1.5818   -0.5588   -0.4213 C   0  0  0  0  0  0  0  0  0  0  0  0
    2.1482    0.6567   -0.1692 N   0  0  0  0  0  0  0  0  0  0  0  0
    3.2544    0.8304    0.7657 C   0  0  0  0  0  0  0  0  0  0  0  0
    3.8812    2.2171    0.6050 C   0  0  0  0  0  0  0  0  0  0  0  0
    3.0183    3.3400    1.1644 C   0  0  0  0  0  0  0  0  0  0  0  0
    2.8612    3.1877    2.5680 O   0  0  0  0  0  0  0  0  0  0  0  0
    0.2901   -0.6591   -0.3772 N   0  0  0  0  0  0  0  0  0  0  0  0
   -0.2929   -1.8921   -0.6312 C   0  0  0  0  0  0  0  0  0  0  0  0
   -1.5802   -2.0522   -0.5239 N   0  0  0  0  0  0  0  0  0  0  0  0
   -2.3763   -0.9640   -0.1440 C   0  0  0  0  0  0  0  0  0  0  0  0
   -2.6236   -0.6995    1.2034 C   0  0  0  0  0  0  0  0  0  0  0  0
   -3.4443    0.3692    1.5737 C   0  0  0  0  0  0  0  0  0  0  0  0
   -4.0391    1.1785    0.6024 C   0  0  0  0  0  0  0  0  0  0  0  0
   -4.8180    2.1883    1.0975 O   0  0  0  0  0  0  0  0  0  0  0  0
   -5.4549    3.0308    0.1459 C   0  0  0  0  0  0  0  0  0  0  0  0
   -3.8078    0.9061   -0.7465 C   0  0  0  0  0  0  0  0  0  0  0  0
   -2.9842   -0.1646   -1.1141 C   0  0  0  0  0  0  0  0  0  0  0  0
    0.5678   -3.0431   -1.0374 C   0  0  0  0  0  0  0  0  0  0  0  0
    0.0032   -4.2403   -1.3592 N   0  0  0  0  0  0  0  0  0  0  0  0
    0.8799   -5.1937   -1.7366 C   0  0  0  0  0  0  0  0  0  0  0  0
    2.2470   -4.9651   -1.7934 C   0  0  0  0  0  0  0  0  0  0  0  0
    2.8072   -3.7721   -1.4723 N   0  0  0  0  0  0  0  0  0  0  0  0
    1.9397   -2.8042   -1.0872 C   0  0  0  0  0  0  0  0  0  0  0  0
    3.4180   -1.4127   -0.8886 H   0  0  0  0  0  0  0  0  0  0  0  0
    1.3870    1.3004    0.0504 H   0  0  0  0  0  0  0  0  0  0  0  0
    4.0351    0.0882    0.5663 H   0  0  0  0  0  0  0  0  0  0  0  0
    2.9050    0.6665    1.7911 H   0  0  0  0  0  0  0  0  0  0  0  0
    4.8394    2.2163    1.1391 H   0  0  0  0  0  0  0  0  0  0  0  0
    4.0921    2.4122   -0.4530 H   0  0  0  0  0  0  0  0  0  0  0  0
    3.4820    4.3134    0.9728 H   0  0  0  0  0  0  0  0  0  0  0  0
    2.0250    3.3501    0.7068 H   0  0  0  0  0  0  0  0  0  0  0  0
    3.6924    3.4654    2.9908 H   0  0  0  0  0  0  0  0  0  0  0  0
   -2.1716   -1.3274    1.9649 H   0  0  0  0  0  0  0  0  0  0  0  0
   -3.6226    0.5688    2.6268 H   0  0  0  0  0  0  0  0  0  0  0  0
   -6.0362    3.7769    0.6962 H   0  0  0  0  0  0  0  0  0  0  0  0
   -4.7188    3.5659   -0.4632 H   0  0  0  0  0  0  0  0  0  0  0  0
   -6.1508    2.4636   -0.4811 H   0  0  0  0  0  0  0  0  0  0  0  0
   -4.2510    1.4997   -1.5377 H   0  0  0  0  0  0  0  0  0  0  0  0
   -2.8103   -0.3804   -2.1642 H   0  0  0  0  0  0  0  0  0  0  0  0
    0.4531   -6.1562   -1.9969 H   0  0  0  0  0  0  0  0  0  0  0  0
    2.9357   -5.7446   -2.1013 H   0  0  0  0  0  0  0  0  0  0  0  0
  1  2  1  0
  2  3  1  0
  3  4  1  0
  4  5  1  0
  5  6  1  0
  6  7  1  0
  2  8  2  0
  8  9  1  0
  9 10  2  3
 10 11  1  0
 11 12  2  0
 12 13  1  0
 13 14  2  0
 14 15  1  0
 15 16  1  0
 14 17  1  0
 17 18  2  0
  9 19  1  0
 19 20  2  0
 20 21  1  0
 21 22  2  0
 22 23  1  0
 23 24  2  0
 24  1  1  0
 18 11  1  0
 24 19  1  0
  1 25  1  0
  3 26  1  0
  4 27  1  0
  4 28  1  0
  5 29  1  0
  5 30  1  0
  6 31  1  0
  6 32  1  0
  7 33  1  0
 12 34  1  0
 13 35  1  0
 16 36  1  0
 16 37  1  0
 16 38  1  0
 17 39  1  0
 18 40  1  0
 21 41  1  0
 22 42  1  0
M  END
>  <ScrubInfo>  (5) 
{"isomerGroup": 0, "isomerId": 4, "confId": 0, "nr_conformers:": 1, "nr_isomers:": 9}

$$$$
_i5
     RDKit          3D

 42 44  0  0  0  0  0  0  0  0999 V2000
    2.5997   -2.8700   -2.3436 N   0  0  0  0  0  0  0  0  0  0  0  0
    1.7942   -3.7723   -2.9834 C   0  0  0  0  0  0  0  0  0  0  0  0
    0.4572   -3.6412   -2.9635 C   0  0  0  0  0  0  0  0  0  0  0  0
   -0.2073   -2.6153   -2.3170 N   0  0  0  0  0  0  0  0  0  0  0  0
    0.5410   -1.7397   -1.6895 C   0  0  0  0  0  0  0  0  0  0  0  0
   -0.1117   -0.5906   -0.9671 C   0  0  0  0  0  0  0  0  0  0  0  0
   -1.4880   -0.5518   -1.0493 N   0  0  0  0  0  0  0  0  0  0  0  0
   -2.4053    0.3511   -0.4925 C   0  0  0  0  0  0  0  0  0  0  0  0
   -3.7732    0.1554   -0.7468 C   0  0  0  0  0  0  0  0  0  0  0  0
   -4.7506    1.0178   -0.2300 C   0  0  0  0  0  0  0  0  0  0  0  0
   -4.3773    2.1028    0.5566 C   0  0  0  0  0  0  0  0  0  0  0  0
   -5.2192    3.0187    1.1219 O   0  0  0  0  0  0  0  0  0  0  0  0
   -6.6107    2.8415    0.8913 C   0  0  0  0  0  0  0  0  0  0  0  0
   -3.0236    2.3105    0.8152 C   0  0  0  0  0  0  0  0  0  0  0  0
   -2.0499    1.4465    0.2969 C   0  0  0  0  0  0  0  0  0  0  0  0
    0.6663    0.2367   -0.3530 N   0  0  0  0  0  0  0  0  0  0  0  0
    2.0218    0.0568   -0.3608 C   0  0  0  0  0  0  0  0  0  0  0  0
    2.6570    0.9280    0.3358 N   0  0  0  0  0  0  0  0  0  0  0  0
    4.1124    0.8773    0.4191 C   0  0  0  0  0  0  0  0  0  0  0  0
    4.5656   -0.0238    1.5631 C   0  0  0  0  0  0  0  0  0  0  0  0
    4.0689    0.4543    2.9215 C   0  0  0  0  0  0  0  0  0  0  0  0
    4.6226   -0.3658    3.9480 O   0  0  0  0  0  0  0  0  0  0  0  0
    2.7188   -0.9294   -1.0092 N   0  0  0  0  0  0  0  0  0  0  0  0
    2.0479   -1.8188   -1.6567 C   0  0  0  0  0  0  0  0  0  0  0  0
    3.6042   -2.9902   -2.3480 H   0  0  0  0  0  0  0  0  0  0  0  0
    2.2995   -4.5843   -3.4954 H   0  0  0  0  0  0  0  0  0  0  0  0
   -0.1707   -4.3665   -3.4758 H   0  0  0  0  0  0  0  0  0  0  0  0
   -1.8963   -1.3161   -1.5821 H   0  0  0  0  0  0  0  0  0  0  0  0
   -4.1008   -0.6821   -1.3589 H   0  0  0  0  0  0  0  0  0  0  0  0
   -5.7891    0.8101   -0.4635 H   0  0  0  0  0  0  0  0  0  0  0  0
   -7.1408    3.6464    1.4096 H   0  0  0  0  0  0  0  0  0  0  0  0
   -6.8473    2.9197   -0.1750 H   0  0  0  0  0  0  0  0  0  0  0  0
   -6.9619    1.8907    1.3059 H   0  0  0  0  0  0  0  0  0  0  0  0
   -2.7139    3.1540    1.4279 H   0  0  0  0  0  0  0  0  0  0  0  0
   -1.0121    1.6613    0.5342 H   0  0  0  0  0  0  0  0  0  0  0  0
    4.5759    0.5602   -0.5228 H   0  0  0  0  0  0  0  0  0  0  0  0
    4.4764    1.8969    0.5933 H   0  0  0  0  0  0  0  0  0  0  0  0
    4.2311   -1.0557    1.4017 H   0  0  0  0  0  0  0  0  0  0  0  0
    5.6618   -0.0657    1.5734 H   0  0  0  0  0  0  0  0  0  0  0  0
    4.3626    1.4912    3.1145 H   0  0  0  0  0  0  0  0  0  0  0  0
    2.9793    0.3857    2.9923 H   0  0  0  0  0  0  0  0  0  0  0  0
    5.5854   -0.2343    3.9330 H   0  0  0  0  0  0  0  0  0  0  0  0
  1  2  1  0
  2  3  2  0
  3  4  1  0
  4  5  2  0
  5  6  1  0
  6  7  1  0
  7  8  1  0
  8  9  2  0
  9 10  1  0
 10 11  2  0
 11 12  1  0
 12 13  1  0
 11 14  1  0
 14 15  2  0
  6 16  2  0
 16 17  1  0
 17 18  2  3
 18 19  1  0
 19 20  1  0
 20 21  1  0
 21 22  1  0
 17 23  1  0
 23 24  2  0
 24  1  1  0
 24  5  1  0
 15  8  1  0
  1 25  1  0
  2 26  1  0
  3 27  1  0
  7 28  1  0
  9 29  1  0
 10 30  1  0
 13 31  1  0
 13 32  1  0
 13 33  1  0
 14 34  1  0
 15 35  1  0
 19 36  1  0
 19 37  1  0
 20 38  1  0
 20 39  1  0
 21 40  1  0
 21 41  1  0
 22 42  1  0
M  END
>  <ScrubInfo>  (6) 
{"isomerGroup": 0, "isomerId": 5, "confId": 0, "nr_conformers:": 1, "nr_isomers:": 9}

$$$$
_i6
     RDKit          3D

 42 44  0  0  0  0  0  0  0  0999 V2000
   -2.8900   -3.6971   -0.3458 N   0  0  0  0  0  0  0  0  0  0  0  0
   -2.4805   -4.9087    0.1402 C   0  0  0  0  0  0  0  0  0  0  0  0
   -1.2165   -5.0925    0.5552 C   0  0  0  0  0  0  0  0  0  0  0  0
   -0.2486   -4.1082    0.5296 N   0  0  0  0  0  0  0  0  0  0  0  0
   -0.6048   -2.9383    0.0604 C   0  0  0  0  0  0  0  0  0  0  0  0
    0.3237   -1.7672   -0.0314 C   0  0  0  0  0  0  0  0  0  0  0  0
    1.5383   -1.9017    0.4119 N   0  0  0  0  0  0  0  0  0  0  0  0
    2.4147   -0.8123    0.3307 C   0  0  0  0  0  0  0  0  0  0  0  0
    2.5895    0.0312    1.4297 C   0  0  0  0  0  0  0  0  0  0  0  0
    3.4828    1.1077    1.3710 C   0  0  0  0  0  0  0  0  0  0  0  0
    4.2200    1.3413    0.2096 C   0  0  0  0  0  0  0  0  0  0  0  0
    5.1218    2.3518    0.0182 O   0  0  0  0  0  0  0  0  0  0  0  0
    5.3263    3.2433    1.1066 C   0  0  0  0  0  0  0  0  0  0  0  0
    4.0590    0.4871   -0.8841 C   0  0  0  0  0  0  0  0  0  0  0  0
    3.1674   -0.5872   -0.8224 C   0  0  0  0  0  0  0  0  0  0  0  0
   -0.1260   -0.5904   -0.5688 N   0  0  0  0  0  0  0  0  0  0  0  0
   -1.3562   -0.4957   -0.9698 C   0  0  0  0  0  0  0  0  0  0  0  0
   -1.7162    0.7055   -1.4984 N   0  0  0  0  0  0  0  0  0  0  0  0
   -3.0735    1.1765   -1.6571 C   0  0  0  0  0  0  0  0  0  0  0  0
   -3.7035    1.5655   -0.3186 C   0  0  0  0  0  0  0  0  0  0  0  0
   -3.0476    2.7810    0.3233 C   0  0  0  0  0  0  0  0  0  0  0  0
   -3.2115    3.9284   -0.4992 O   0  0  0  0  0  0  0  0  0  0  0  0
   -2.2986   -1.4858   -0.8990 N   0  0  0  0  0  0  0  0  0  0  0  0
   -2.0020   -2.6537   -0.4331 C   0  0  0  0  0  0  0  0  0  0  0  0
   -3.8336   -3.5786   -0.6877 H   0  0  0  0  0  0  0  0  0  0  0  0
   -3.2284   -5.6935    0.1652 H   0  0  0  0  0  0  0  0  0  0  0  0
   -0.8975   -6.0581    0.9396 H   0  0  0  0  0  0  0  0  0  0  0  0
    2.0247   -0.1543    2.3388 H   0  0  0  0  0  0  0  0  0  0  0  0
    3.5789    1.7363    2.2489 H   0  0  0  0  0  0  0  0  0  0  0  0
    4.4048    3.7795    1.3566 H   0  0  0  0  0  0  0  0  0  0  0  0
    5.7272    2.7165    1.9788 H   0  0  0  0  0  0  0  0  0  0  0  0
    6.0686    3.9850    0.7961 H   0  0  0  0  0  0  0  0  0  0  0  0
    4.6341    0.6557   -1.7906 H   0  0  0  0  0  0  0  0  0  0  0  0
    3.0568   -1.2494   -1.6757 H   0  0  0  0  0  0  0  0  0  0  0  0
   -1.0026    1.4199   -1.3997 H   0  0  0  0  0  0  0  0  0  0  0  0
   -3.0736    2.0321   -2.3414 H   0  0  0  0  0  0  0  0  0  0  0  0
   -3.6838    0.4024   -2.1369 H   0  0  0  0  0  0  0  0  0  0  0  0
   -3.6622    0.7231    0.3810 H   0  0  0  0  0  0  0  0  0  0  0  0
   -4.7619    1.7900   -0.4987 H   0  0  0  0  0  0  0  0  0  0  0  0
   -3.4988    2.9901    1.2989 H   0  0  0  0  0  0  0  0  0  0  0  0
   -1.9766    2.6217    0.4805 H   0  0  0  0  0  0  0  0  0  0  0  0
   -4.1437    4.2010   -0.4406 H   0  0  0  0  0  0  0  0  0  0  0  0
  1  2  1  0
  2  3  2  0
  3  4  1  0
  4  5  2  0
  5  6  1  0
  6  7  2  3
  7  8  1  0
  8  9  2  0
  9 10  1  0
 10 11  2  0
 11 12  1  0
 12 13  1  0
 11 14  1  0
 14 15  2  0
  6 16  1  0
 16 17  2  0
 17 18  1  0
 18 19  1  0
 19 20  1  0
 20 21  1  0
 21 22  1  0
 17 23  1  0
 23 24  2  0
 24  1  1  0
 24  5  1  0
 15  8  1  0
  1 25  1  0
  2 26  1  0
  3 27  1  0
  9 28  1  0
 10 29  1  0
 13 30  1  0
 13 31  1  0
 13 32  1  0
 14 33  1  0
 15 34  1  0
 18 35  1  0
 19 36  1  0
 19 37  1  0
 20 38  1  0
 20 39  1  0
 21 40  1  0
 21 41  1  0
 22 42  1  0
M  END
>  <ScrubInfo>  (7) 
{"isomerGroup": 0, "isomerId": 6, "confId": 0, "nr_conformers:": 1, "nr_isomers:": 9}

$$$$
_i7
     RDKit          3D

 42 44  0  0  0  0  0  0  0  0999 V2000
   -2.2011   -1.6833    0.4815 N   0  0  0  0  0  0  0  0  0  0  0  0
   -1.4353   -0.5781    0.7237 C   0  0  0  0  0  0  0  0  0  0  0  0
   -1.7826    0.5209    1.2990 N   0  0  0  0  0  0  0  0  0  0  0  0
   -3.1400    0.6910    1.8143 C   0  0  0  0  0  0  0  0  0  0  0  0
   -4.0486    1.2813    0.7362 C   0  0  0  0  0  0  0  0  0  0  0  0
   -3.7413    2.7468    0.4476 C   0  0  0  0  0  0  0  0  0  0  0  0
   -4.1393    3.5673    1.5402 O   0  0  0  0  0  0  0  0  0  0  0  0
   -0.1485   -0.6914    0.2731 N   0  0  0  0  0  0  0  0  0  0  0  0
    0.4692   -1.7437   -0.3747 C   0  0  0  0  0  0  0  0  0  0  0  0
    1.7078   -1.7853   -0.7775 N   0  0  0  0  0  0  0  0  0  0  0  0
    2.5395   -0.6829   -0.5544 C   0  0  0  0  0  0  0  0  0  0  0  0
    3.2770   -0.5805    0.6246 C   0  0  0  0  0  0  0  0  0  0  0  0
    4.1000    0.5265    0.8449 C   0  0  0  0  0  0  0  0  0  0  0  0
    4.2052    1.5370   -0.1145 C   0  0  0  0  0  0  0  0  0  0  0  0
    5.0417    2.5634    0.2265 O   0  0  0  0  0  0  0  0  0  0  0  0
    5.1909    3.6130   -0.7211 C   0  0  0  0  0  0  0  0  0  0  0  0
    3.4825    1.4267   -1.3029 C   0  0  0  0  0  0  0  0  0  0  0  0
    2.6577    0.3171   -1.5211 C   0  0  0  0  0  0  0  0  0  0  0  0
   -0.4121   -2.9294   -0.6170 C   0  0  0  0  0  0  0  0  0  0  0  0
    0.0882   -4.0224   -1.2515 N   0  0  0  0  0  0  0  0  0  0  0  0
   -0.7951   -5.0282   -1.4169 C   0  0  0  0  0  0  0  0  0  0  0  0
   -2.1073   -4.9452   -0.9748 C   0  0  0  0  0  0  0  0  0  0  0  0
   -2.6050   -3.8516   -0.3436 N   0  0  0  0  0  0  0  0  0  0  0  0
   -1.7343   -2.8287   -0.1637 C   0  0  0  0  0  0  0  0  0  0  0  0
   -3.1690   -1.7350    0.7532 H   0  0  0  0  0  0  0  0  0  0  0  0
   -3.5562   -0.2532    2.1833 H   0  0  0  0  0  0  0  0  0  0  0  0
   -3.0998    1.3538    2.6861 H   0  0  0  0  0  0  0  0  0  0  0  0
   -5.0868    1.1949    1.0784 H   0  0  0  0  0  0  0  0  0  0  0  0
   -3.9544    0.7032   -0.1900 H   0  0  0  0  0  0  0  0  0  0  0  0
   -4.2895    3.0815   -0.4391 H   0  0  0  0  0  0  0  0  0  0  0  0
   -2.6751    2.9085    0.2633 H   0  0  0  0  0  0  0  0  0  0  0  0
   -5.1066    3.5087    1.6145 H   0  0  0  0  0  0  0  0  0  0  0  0
    0.4159    0.1276    0.4610 H   0  0  0  0  0  0  0  0  0  0  0  0
    3.2127   -1.3665    1.3716 H   0  0  0  0  0  0  0  0  0  0  0  0
    4.6683    0.5986    1.7688 H   0  0  0  0  0  0  0  0  0  0  0  0
    5.8857    4.3465   -0.3008 H   0  0  0  0  0  0  0  0  0  0  0  0
    5.6237    3.2422   -1.6561 H   0  0  0  0  0  0  0  0  0  0  0  0
    4.2379    4.1217   -0.9001 H   0  0  0  0  0  0  0  0  0  0  0  0
    3.5402    2.1788   -2.0821 H   0  0  0  0  0  0  0  0  0  0  0  0
    2.1052    0.2275   -2.4526 H   0  0  0  0  0  0  0  0  0  0  0  0
   -0.4195   -5.9130   -1.9192 H   0  0  0  0  0  0  0  0  0  0  0  0
   -2.8020   -5.7662   -1.1181 H   0  0  0  0  0  0  0  0  0  0  0  0
  1  2  1  0
  2  3  2  3
  3  4  1  0
  4  5  1  0
  5  6  1  0
  6  7  1  0
  2  8  1  0
  8  9  1  0
  9 10  2  3
 10 11  1  0
 11 12  2  0
 12 13  1  0
 13 14  2  0
 14 15  1  0
 15 16  1  0
 14 17  1  0
 17 18  2  0
  9 19  1  0
 19 20  2  0
 20 21  1  0
 21 22  2  0
 22 23  1  0
 23 24  2  0
 24  1  1  0
 18 11  1  0
 24 19  1  0
  1 25  1  0
  4 26  1  0
  4 27  1  0
  5 28  1  0
  5 29  1  0
  6 30  1  0
  6 31  1  0
  7 32  1  0
  8 33  1  0
 12 34  1  0
 13 35  1  0
 16 36  1  0
 16 37  1  0
 16 38  1  0
 17 39  1  0
 18 40  1  0
 21 41  1  0
 22 42  1  0
M  END
>  <ScrubInfo>  (8) 
{"isomerGroup": 0, "isomerId": 7, "confId": 0, "nr_conformers:": 1, "nr_isomers:": 9}

$$$$
_i8
     RDKit          3D

 42 44  0  0  0  0  0  0  0  0999 V2000
   -2.7803   -3.6000   -0.5515 N   0  0  0  0  0  0  0  0  0  0  0  0
   -2.2860   -4.8572   -0.3429 C   0  0  0  0  0  0  0  0  0  0  0  0
   -0.9913   -5.0512   -0.0469 C   0  0  0  0  0  0  0  0  0  0  0  0
   -0.0668   -4.0347    0.0711 N   0  0  0  0  0  0  0  0  0  0  0  0
   -0.4896   -2.8110   -0.1216 C   0  0  0  0  0  0  0  0  0  0  0  0
    0.4505   -1.6273   -0.0133 C   0  0  0  0  0  0  0  0  0  0  0  0
    1.6960   -1.8419    0.2811 N   0  0  0  0  0  0  0  0  0  0  0  0
    2.5579   -0.7447    0.3801 C   0  0  0  0  0  0  0  0  0  0  0  0
    2.7238   -0.0834    1.5967 C   0  0  0  0  0  0  0  0  0  0  0  0
    3.5767    1.0192    1.6863 C   0  0  0  0  0  0  0  0  0  0  0  0
    4.2829    1.4656    0.5663 C   0  0  0  0  0  0  0  0  0  0  0  0
    5.0792    2.5541    0.7902 O   0  0  0  0  0  0  0  0  0  0  0  0
    5.8367    3.0352   -0.3131 C   0  0  0  0  0  0  0  0  0  0  0  0
    4.1331    0.7929   -0.6467 C   0  0  0  0  0  0  0  0  0  0  0  0
    3.2772   -0.3110   -0.7350 C   0  0  0  0  0  0  0  0  0  0  0  0
   -0.1859   -0.4436   -0.2551 N   0  0  0  0  0  0  0  0  0  0  0  0
   -1.4948   -0.2480   -0.5653 C   0  0  0  0  0  0  0  0  0  0  0  0
   -1.8936    0.9634   -0.7581 N   0  0  0  0  0  0  0  0  0  0  0  0
   -3.2914    1.2193   -1.1135 C   0  0  0  0  0  0  0  0  0  0  0  0
   -4.1259    1.4595    0.1445 C   0  0  0  0  0  0  0  0  0  0  0  0
   -3.8076    2.7895    0.8184 C   0  0  0  0  0  0  0  0  0  0  0  0
   -4.2632    3.8808    0.0264 O   0  0  0  0  0  0  0  0  0  0  0  0
   -2.3797   -1.2912   -0.6640 N   0  0  0  0  0  0  0  0  0  0  0  0
   -1.9572   -2.5044   -0.4671 C   0  0  0  0  0  0  0  0  0  0  0  0
   -3.7556   -3.4699   -0.7842 H   0  0  0  0  0  0  0  0  0  0  0  0
   -2.9966   -5.6717   -0.4316 H   0  0  0  0  0  0  0  0  0  0  0  0
   -0.6098   -6.0561    0.1168 H   0  0  0  0  0  0  0  0  0  0  0  0
    2.1928   -0.4301    2.4788 H   0  0  0  0  0  0  0  0  0  0  0  0
    3.6979    1.5298    2.6386 H   0  0  0  0  0  0  0  0  0  0  0  0
    6.5425    2.2770   -0.6682 H   0  0  0  0  0  0  0  0  0  0  0  0
    5.1823    3.3768   -1.1219 H   0  0  0  0  0  0  0  0  0  0  0  0
    6.4181    3.8961    0.0306 H   0  0  0  0  0  0  0  0  0  0  0  0
    4.6696    1.0941   -1.5401 H   0  0  0  0  0  0  0  0  0  0  0  0
    3.1745   -0.8406   -1.6787 H   0  0  0  0  0  0  0  0  0  0  0  0
    0.3563    0.4078   -0.2107 H   0  0  0  0  0  0  0  0  0  0  0  0
   -3.7262    0.4035   -1.7031 H   0  0  0  0  0  0  0  0  0  0  0  0
   -3.3244    2.0992   -1.7661 H   0  0  0  0  0  0  0  0  0  0  0  0
   -3.9664    0.6452    0.8604 H   0  0  0  0  0  0  0  0  0  0  0  0
   -5.1847    1.4484   -0.1406 H   0  0  0  0  0  0  0  0  0  0  0  0
   -4.3092    2.8502    1.7898 H   0  0  0  0  0  0  0  0  0  0  0  0
   -2.7336    2.9103    0.9885 H   0  0  0  0  0  0  0  0  0  0  0  0
   -5.2284    3.8003   -0.0543 H   0  0  0  0  0  0  0  0  0  0  0  0
  1  2  1  0
  2  3  2  0
  3  4  1  0
  4  5  2  0
  5  6  1  0
  6  7  2  3
  7  8  1  0
  8  9  2  0
  9 10  1  0
 10 11  2  0
 11 12  1  0
 12 13  1  0
 11 14  1  0
 14 15  2  0
  6 16  1  0
 16 17  1  0
 17 18  2  3
 18 19  1  0
 19 20  1  0
 20 21  1  0
 21 22  1  0
 17 23  1  0
 23 24  2  0
 24  1  1  0
 24  5  1  0
 15  8  1  0
  1 25  1  0
  2 26  1  0
  3 27  1  0
  9 28  1  0
 10 29  1  0
 13 30  1  0
 13 31  1  0
 13 32  1  0
 14 33  1  0
 15 34  1  0
 16 35  1  0
 19 36  1  0
 19 37  1  0
 20 38  1  0
 20 39  1  0
 21 40  1  0
 21 41  1  0
 22 42  1  0
M  END
>  <ScrubInfo>  (9) 
{"isomerGroup": 0, "isomerId": 8, "confId": 0, "nr_conformers:": 1, "nr_isomers:": 9}

$$$$
