REMARK SMILES COc1ccc(Nc2nc(NCCCO)nc3nccnc23)cc1
REMARK SMILES IDX 11 1 10 3 8 4 9 5 22 6 21 7 17 8 16 9 20 10 18 11 19 12 7 13
REMARK SMILES IDX 6 15 3 16 4 17 24 18 5 19 23 20 2 21 1 22 12 23 13 24 14 25
REMARK SMILES IDX 15 26
REMARK H PARENT 11 2 7 14 15 27
ROOT
ATOM      1  N   UNL     1      -2.377   0.980  -0.995  1.00  0.00    -0.354 N 
ATOM      2  H   UNL     1      -1.646   1.658  -1.184  1.00  0.00     0.163 HD
ENDROOT
BRANCH   1   3
ATOM      3  C   UNL     1      -1.729  -0.206  -0.688  1.00  0.00     0.226 A 
ATOM      4  C   UNL     1       0.220  -1.194   0.009  1.00  0.00     0.164 A 
ATOM      5  N   UNL     1      -0.455  -0.079  -0.324  1.00  0.00    -0.193 NA
ATOM      6  C   UNL     1      -0.357  -2.460  -0.035  1.00  0.00     0.150 A 
ATOM      7  N   UNL     1       0.326  -3.601   0.302  1.00  0.00    -0.247 NA
ATOM      8  C   UNL     1      -1.694  -2.470  -0.449  1.00  0.00     0.185 A 
ATOM      9  N   UNL     1      -2.363  -1.371  -0.770  1.00  0.00    -0.191 NA
ATOM     10  C   UNL     1      -0.368  -4.751   0.207  1.00  0.00     0.132 A 
ATOM     11  N   UNL     1      -2.347  -3.636  -0.535  1.00  0.00    -0.233 NA
ATOM     12  C   UNL     1      -1.681  -4.766  -0.205  1.00  0.00     0.133 A 
BRANCH   4  13
ATOM     13  N   UNL     1       1.596  -1.136   0.373  1.00  0.00    -0.338 N 
ATOM     14  H   UNL     1       1.880  -2.022   0.787  1.00  0.00     0.168 HD
BRANCH  13  15
ATOM     15  C   UNL     1       2.480  -0.072   0.608  1.00  0.00     0.040 A 
ATOM     16  C   UNL     1       4.414   1.964   1.022  1.00  0.00     0.119 A 
ATOM     17  C   UNL     1       3.124   2.277   0.595  1.00  0.00     0.048 A 
ATOM     18  C   UNL     1       4.746   0.630   1.230  1.00  0.00     0.048 A 
ATOM     19  C   UNL     1       2.173   1.271   0.382  1.00  0.00     0.030 A 
ATOM     20  C   UNL     1       3.790  -0.373   1.016  1.00  0.00     0.030 A 
BRANCH  16  21
ATOM     21  O   UNL     1       5.241   3.039   1.190  1.00  0.00    -0.497 OA
ATOM     22  C   UNL     1       6.562   2.768   1.640  1.00  0.00     0.278 C 
ENDBRANCH  16  21
ENDBRANCH  13  15
ENDBRANCH   4  13
ENDBRANCH   1   3
BRANCH   1  23
ATOM     23  C   UNL     1      -3.438   0.907  -1.984  1.00  0.00     0.118 C 
BRANCH  23  24
ATOM     24  C   UNL     1      -4.800   0.632  -1.348  1.00  0.00     0.049 C 
BRANCH  24  25
ATOM     25  C   UNL     1      -5.242   1.744  -0.406  1.00  0.00     0.158 C 
BRANCH  25  26
ATOM     26  O   UNL     1      -6.558   1.486   0.077  1.00  0.00    -0.396 OA
ATOM     27  H   UNL     1      -7.141   1.383  -0.693  1.00  0.00     0.210 HD
ENDBRANCH  25  26
ENDBRANCH  24  25
ENDBRANCH  23  24
ENDBRANCH   1  23
TORSDOF 8
