REMARK SMILES CC(=O)NCCNc1nc(Nc2ccc(Br)cc2C)c2cnn(C)c2n1
REMARK SMILES IDX 7 1 6 3 5 4 4 5 2 6 1 7 3 8 8 10 9 11 26 12 10 13 25 14
REMARK SMILES IDX 20 15 23 16 21 17 22 18 24 19 11 20 12 22 13 23 18 24 14 25
REMARK SMILES IDX 17 26 15 27 19 28 16 29
REMARK H PARENT 7 2 4 9 11 21
ROOT
ATOM      1  N   UNL     1       2.573  -1.383   0.876  1.00  0.00    -0.352 N 
ATOM      2  H   UNL     1       2.651  -0.590   1.502  1.00  0.00     0.163 HD
ENDROOT
BRANCH   1   3
ATOM      3  C   UNL     1       3.755  -1.594   0.042  1.00  0.00     0.137 C 
BRANCH   3   4
ATOM      4  C   UNL     1       4.034  -0.409  -0.903  1.00  0.00     0.137 C 
BRANCH   4   5
ATOM      5  N   UNL     1       4.030   0.877  -0.222  1.00  0.00    -0.355 N 
ATOM      6  C   UNL     1       5.090   1.279   0.554  1.00  0.00     0.216 C 
ATOM      7  C   UNL     1       4.887   2.601   1.243  1.00  0.00     0.114 C 
ATOM      8  O   UNL     1       6.112   0.616   0.696  1.00  0.00    -0.275 OA
ATOM      9  H   UNL     1       3.152   1.379  -0.169  1.00  0.00     0.163 HD
ENDBRANCH   4   5
ENDBRANCH   3   4
ENDBRANCH   1   3
BRANCH   1  10
ATOM     10  C   UNL     1       1.365  -1.264   0.209  1.00  0.00     0.226 A 
ATOM     11  N   UNL     1       0.525  -0.351   0.735  1.00  0.00    -0.195 NA
ATOM     12  N   UNL     1       1.133  -2.007  -0.881  1.00  0.00    -0.193 NA
ATOM     13  C   UNL     1      -0.697  -0.153   0.179  1.00  0.00     0.147 A 
ATOM     14  C   UNL     1      -0.069  -1.772  -1.426  1.00  0.00     0.165 A 
ATOM     15  C   UNL     1      -1.017  -0.878  -0.971  1.00  0.00     0.082 A 
ATOM     16  N   UNL     1      -0.608  -2.358  -2.539  1.00  0.00    -0.250 N 
ATOM     17  C   UNL     1      -2.076  -0.986  -1.895  1.00  0.00     0.149 A 
ATOM     18  N   UNL     1      -1.838  -1.889  -2.854  1.00  0.00    -0.179 NA
ATOM     19  C   UNL     1      -0.005  -3.374  -3.363  1.00  0.00     0.176 C 
BRANCH  13  20
ATOM     20  N   UNL     1      -1.523   0.810   0.782  1.00  0.00    -0.339 N 
ATOM     21  H   UNL     1      -1.046   1.105   1.632  1.00  0.00     0.168 HD
BRANCH  20  22
ATOM     22  C   UNL     1      -2.915   0.712   1.018  1.00  0.00     0.043 A 
ATOM     23  C   UNL     1      -3.532  -0.525   1.266  1.00  0.00     0.027 A 
ATOM     24  C   UNL     1      -3.682   1.891   1.128  1.00  0.00    -0.026 A 
ATOM     25  C   UNL     1      -4.895  -0.602   1.561  1.00  0.00     0.018 A 
ATOM     26  C   UNL     1      -5.052   1.804   1.427  1.00  0.00     0.021 A 
ATOM     27  C   UNL     1      -5.649   0.563   1.636  1.00  0.00     0.018 A 
ATOM     28  C   UNL     1      -3.058   3.243   0.910  1.00  0.00     0.046 C 
ATOM     29  Br  UNL     1      -7.493   0.464   2.038  1.00  0.00    -0.051 Br
ENDBRANCH  20  22
ENDBRANCH  13  20
ENDBRANCH   1  10
TORSDOF 6
