_i0
     RDKit          3D

 46 48  0  0  0  0  0  0  0  0999 V2000
    4.8873    2.6008    1.2430 C   0  0  0  0  0  0  0  0  0  0  0  0
    5.0903    1.2791    0.5537 C   0  0  0  0  0  0  0  0  0  0  0  0
    6.1121    0.6162    0.6955 O   0  0  0  0  0  0  0  0  0  0  0  0
    4.0299    0.8770   -0.2221 N   0  0  0  0  0  0  0  0  0  0  0  0
    4.0339   -0.4095   -0.9028 C   0  0  0  0  0  0  0  0  0  0  0  0
    3.7549   -1.5936    0.0418 C   0  0  0  0  0  0  0  0  0  0  0  0
    2.5731   -1.3835    0.8758 N   0  0  0  0  0  0  0  0  0  0  0  0
    1.3647   -1.2636    0.2093 C   0  0  0  0  0  0  0  0  0  0  0  0
    0.5252   -0.3512    0.7346 N   0  0  0  0  0  0  0  0  0  0  0  0
   -0.6969   -0.1531    0.1792 C   0  0  0  0  0  0  0  0  0  0  0  0
   -1.5231    0.8099    0.7822 N   0  0  0  0  0  0  0  0  0  0  0  0
   -2.9149    0.7120    1.0178 C   0  0  0  0  0  0  0  0  0  0  0  0
   -3.5322   -0.5247    1.2659 C   0  0  0  0  0  0  0  0  0  0  0  0
   -4.8950   -0.6019    1.5613 C   0  0  0  0  0  0  0  0  0  0  0  0
   -5.6493    0.5633    1.6361 C   0  0  0  0  0  0  0  0  0  0  0  0
   -7.4934    0.4639    2.0384 Br  0  0  0  0  0  0  0  0  0  0  0  0
   -5.0518    1.8045    1.4274 C   0  0  0  0  0  0  0  0  0  0  0  0
   -3.6816    1.8911    1.1283 C   0  0  0  0  0  0  0  0  0  0  0  0
   -3.0582    3.2434    0.9102 C   0  0  0  0  0  0  0  0  0  0  0  0
   -1.0169   -0.8778   -0.9705 C   0  0  0  0  0  0  0  0  0  0  0  0
   -2.0760   -0.9861   -1.8948 C   0  0  0  0  0  0  0  0  0  0  0  0
   -1.8378   -1.8885   -2.8541 N   0  0  0  0  0  0  0  0  0  0  0  0
   -0.6083   -2.3578   -2.5389 N   0  0  0  0  0  0  0  0  0  0  0  0
   -0.0048   -3.3744   -3.3631 C   0  0  0  0  0  0  0  0  0  0  0  0
   -0.0691   -1.7717   -1.4264 C   0  0  0  0  0  0  0  0  0  0  0  0
    1.1332   -2.0066   -0.8810 N   0  0  0  0  0  0  0  0  0  0  0  0
    4.0439    3.1517    0.8173 H   0  0  0  0  0  0  0  0  0  0  0  0
    5.7882    3.2089    1.1231 H   0  0  0  0  0  0  0  0  0  0  0  0
    4.6983    2.4249    2.3051 H   0  0  0  0  0  0  0  0  0  0  0  0
    3.1520    1.3787   -0.1692 H   0  0  0  0  0  0  0  0  0  0  0  0
    3.2779   -0.3499   -1.6924 H   0  0  0  0  0  0  0  0  0  0  0  0
    5.0080   -0.5503   -1.3843 H   0  0  0  0  0  0  0  0  0  0  0  0
    3.6744   -2.5250   -0.5314 H   0  0  0  0  0  0  0  0  0  0  0  0
    4.6089   -1.7227    0.7168 H   0  0  0  0  0  0  0  0  0  0  0  0
    2.6505   -0.5903    1.5018 H   0  0  0  0  0  0  0  0  0  0  0  0
   -1.0455    1.1048    1.6324 H   0  0  0  0  0  0  0  0  0  0  0  0
   -2.9561   -1.4471    1.2448 H   0  0  0  0  0  0  0  0  0  0  0  0
   -5.3506   -1.5724    1.7395 H   0  0  0  0  0  0  0  0  0  0  0  0
   -5.6506    2.7098    1.4988 H   0  0  0  0  0  0  0  0  0  0  0  0
   -2.6280    3.3054   -0.0947 H   0  0  0  0  0  0  0  0  0  0  0  0
   -3.7967    4.0467    1.0030 H   0  0  0  0  0  0  0  0  0  0  0  0
   -2.2762    3.4253    1.6544 H   0  0  0  0  0  0  0  0  0  0  0  0
   -3.0128   -0.4431   -1.9073 H   0  0  0  0  0  0  0  0  0  0  0  0
   -0.6635   -4.2466   -3.3710 H   0  0  0  0  0  0  0  0  0  0  0  0
    0.9717   -3.6524   -2.9602 H   0  0  0  0  0  0  0  0  0  0  0  0
    0.1111   -2.9735   -4.3732 H   0  0  0  0  0  0  0  0  0  0  0  0
  1  2  1  0
  2  3  2  0
  2  4  1  0
  4  5  1  0
  5  6  1  0
  6  7  1  0
  7  8  1  0
  8  9  2  0
  9 10  1  0
 10 11  1  0
 11 12  1  0
 12 13  2  0
 13 14  1  0
 14 15  2  0
 15 16  1  0
 15 17  1  0
 17 18  2  0
 18 19  1  0
 10 20  2  0
 20 21  1  0
 21 22  2  0
 22 23  1  0
 23 24  1  0
 23 25  1  0
 25 26  2  0
 26  8  1  0
 18 12  1  0
 25 20  1  0
  1 27  1  0
  1 28  1  0
  1 29  1  0
  4 30  1  0
  5 31  1  0
  5 32  1  0
  6 33  1  0
  6 34  1  0
  7 35  1  0
 11 36  1  0
 13 37  1  0
 14 38  1  0
 17 39  1  0
 19 40  1  0
 19 41  1  0
 19 42  1  0
 21 43  1  0
 24 44  1  0
 24 45  1  0
 24 46  1  0
M  END
>  <ScrubInfo>  (1) 
{"isomerGroup": 0, "isomerId": 0, "confId": 0, "nr_conformers:": 1, "nr_isomers:": 9}

$$$$
_i1
     RDKit          3D

 46 48  0  0  0  0  0  0  0  0999 V2000
    0.2094    0.4557    0.0892 N   0  0  0  0  0  0  0  0  0  0  0  0
   -1.1002    0.2300   -0.2853 C   0  0  0  0  0  0  0  0  0  0  0  0
   -2.1033    1.1167    0.0604 N   0  0  0  0  0  0  0  0  0  0  0  0
   -3.3254    0.7982    0.7061 C   0  0  0  0  0  0  0  0  0  0  0  0
   -3.5189   -0.4191    1.3806 C   0  0  0  0  0  0  0  0  0  0  0  0
   -4.7324   -0.7122    2.0079 C   0  0  0  0  0  0  0  0  0  0  0  0
   -5.7681    0.2133    1.9696 C   0  0  0  0  0  0  0  0  0  0  0  0
   -7.4100   -0.1783    2.8194 Br  0  0  0  0  0  0  0  0  0  0  0  0
   -5.6015    1.4289    1.3105 C   0  0  0  0  0  0  0  0  0  0  0  0
   -4.3857    1.7315    0.6727 C   0  0  0  0  0  0  0  0  0  0  0  0
   -4.2469    3.0483   -0.0442 C   0  0  0  0  0  0  0  0  0  0  0  0
   -1.2966   -0.8608   -1.0373 C   0  0  0  0  0  0  0  0  0  0  0  0
   -2.4141   -1.5369   -1.7060 C   0  0  0  0  0  0  0  0  0  0  0  0
   -2.0523   -2.6363   -2.3198 N   0  0  0  0  0  0  0  0  0  0  0  0
   -0.6624   -2.7247   -2.1408 N   0  0  0  0  0  0  0  0  0  0  0  0
    0.0085   -3.9607   -2.4602 C   0  0  0  0  0  0  0  0  0  0  0  0
   -0.1335   -1.7196   -1.3488 C   0  0  0  0  0  0  0  0  0  0  0  0
    1.0738   -1.5265   -0.9371 N   0  0  0  0  0  0  0  0  0  0  0  0
    1.2519   -0.3986   -0.1684 C   0  0  0  0  0  0  0  0  0  0  0  0
    2.4122   -0.1222    0.3328 N   0  0  0  0  0  0  0  0  0  0  0  0
    3.4932   -1.0804    0.0392 C   0  0  0  0  0  0  0  0  0  0  0  0
    4.7680   -0.6222    0.7505 C   0  0  0  0  0  0  0  0  0  0  0  0
    5.1357    0.7254    0.3560 N   0  0  0  0  0  0  0  0  0  0  0  0
    6.3564    1.2569    0.6918 C   0  0  0  0  0  0  0  0  0  0  0  0
    6.5030    2.7165    0.3559 C   0  0  0  0  0  0  0  0  0  0  0  0
    7.2583    0.6178    1.2236 O   0  0  0  0  0  0  0  0  0  0  0  0
    0.4080    1.2059    0.7320 H   0  0  0  0  0  0  0  0  0  0  0  0
   -1.7461    2.0029    0.4075 H   0  0  0  0  0  0  0  0  0  0  0  0
   -2.7197   -1.1527    1.4525 H   0  0  0  0  0  0  0  0  0  0  0  0
   -4.8528   -1.6600    2.5263 H   0  0  0  0  0  0  0  0  0  0  0  0
   -6.4208    2.1443    1.2867 H   0  0  0  0  0  0  0  0  0  0  0  0
   -5.1873    3.6096   -0.0417 H   0  0  0  0  0  0  0  0  0  0  0  0
   -3.4886    3.6674    0.4455 H   0  0  0  0  0  0  0  0  0  0  0  0
   -3.9668    2.8854   -1.0900 H   0  0  0  0  0  0  0  0  0  0  0  0
   -3.4348   -1.1369   -1.6578 H   0  0  0  0  0  0  0  0  0  0  0  0
   -0.4544   -4.4409   -3.3284 H   0  0  0  0  0  0  0  0  0  0  0  0
   -0.0442   -4.6518   -1.6133 H   0  0  0  0  0  0  0  0  0  0  0  0
    1.0617   -3.7828   -2.6997 H   0  0  0  0  0  0  0  0  0  0  0  0
    3.6803   -1.1172   -1.0412 H   0  0  0  0  0  0  0  0  0  0  0  0
    3.2349   -2.0843    0.3962 H   0  0  0  0  0  0  0  0  0  0  0  0
    4.6203   -0.6131    1.8365 H   0  0  0  0  0  0  0  0  0  0  0  0
    5.5986   -1.3003    0.5268 H   0  0  0  0  0  0  0  0  0  0  0  0
    4.3543    1.3510    0.2004 H   0  0  0  0  0  0  0  0  0  0  0  0
    6.4819    3.3001    1.2800 H   0  0  0  0  0  0  0  0  0  0  0  0
    7.4560    2.8712   -0.1576 H   0  0  0  0  0  0  0  0  0  0  0  0
    5.7002    3.0617   -0.3016 H   0  0  0  0  0  0  0  0  0  0  0  0
  1  2  1  0
  2  3  1  0
  3  4  1  0
  4  5  2  0
  5  6  1  0
  6  7  2  0
  7  8  1  0
  7  9  1  0
  9 10  2  0
 10 11  1  0
  2 12  2  0
 12 13  1  0
 13 14  2  0
 14 15  1  0
 15 16  1  0
 15 17  1  0
 17 18  2  0
 18 19  1  0
 19 20  2  3
 20 21  1  0
 21 22  1  0
 22 23  1  0
 23 24  1  0
 24 25  1  0
 24 26  2  0
 19  1  1  0
 10  4  1  0
 17 12  1  0
  1 27  1  0
  3 28  1  0
  5 29  1  0
  6 30  1  0
  9 31  1  0
 11 32  1  0
 11 33  1  0
 11 34  1  0
 13 35  1  0
 16 36  1  0
 16 37  1  0
 16 38  1  0
 21 39  1  0
 21 40  1  0
 22 41  1  0
 22 42  1  0
 23 43  1  0
 25 44  1  0
 25 45  1  0
 25 46  1  0
M  END
>  <ScrubInfo>  (2) 
{"isomerGroup": 0, "isomerId": 1, "confId": 0, "nr_conformers:": 1, "nr_isomers:": 9}

$$$$
_i2
     RDKit          3D

 46 48  0  0  0  0  0  0  0  0999 V2000
   -0.6176    0.0867    0.7615 N   0  0  0  0  0  0  0  0  0  0  0  0
    0.5721   -0.5193    1.1069 C   0  0  0  0  0  0  0  0  0  0  0  0
    1.6650    0.1432    0.6101 N   0  0  0  0  0  0  0  0  0  0  0  0
    3.0151   -0.2755    1.0041 C   0  0  0  0  0  0  0  0  0  0  0  0
    4.0599    0.4530    0.1542 C   0  0  0  0  0  0  0  0  0  0  0  0
    3.8705    0.2066   -1.2647 N   0  0  0  0  0  0  0  0  0  0  0  0
    4.7616    0.6906   -2.1911 C   0  0  0  0  0  0  0  0  0  0  0  0
    4.3735    0.4286   -3.6209 C   0  0  0  0  0  0  0  0  0  0  0  0
    5.7835    1.2983   -1.8902 O   0  0  0  0  0  0  0  0  0  0  0  0
    0.6574   -1.6154    1.8172 N   0  0  0  0  0  0  0  0  0  0  0  0
   -0.5714   -2.0738    2.1865 C   0  0  0  0  0  0  0  0  0  0  0  0
   -1.8065   -1.5345    1.8865 C   0  0  0  0  0  0  0  0  0  0  0  0
   -2.7406   -2.3810    2.4980 C   0  0  0  0  0  0  0  0  0  0  0  0
   -2.1541   -3.3939    3.1500 N   0  0  0  0  0  0  0  0  0  0  0  0
   -0.8300   -3.1838    2.9422 N   0  0  0  0  0  0  0  0  0  0  0  0
    0.1272   -4.1014    3.5061 C   0  0  0  0  0  0  0  0  0  0  0  0
   -1.8888   -0.3432    1.0830 C   0  0  0  0  0  0  0  0  0  0  0  0
   -3.0531    0.1254    0.7797 N   0  0  0  0  0  0  0  0  0  0  0  0
   -3.1090    1.2818   -0.0103 C   0  0  0  0  0  0  0  0  0  0  0  0
   -3.1044    2.5345    0.6156 C   0  0  0  0  0  0  0  0  0  0  0  0
   -3.1432    3.7080   -0.1383 C   0  0  0  0  0  0  0  0  0  0  0  0
   -3.1956    3.6287   -1.5268 C   0  0  0  0  0  0  0  0  0  0  0  0
   -3.2396    5.2143   -2.5548 Br  0  0  0  0  0  0  0  0  0  0  0  0
   -3.2198    2.3889   -2.1658 C   0  0  0  0  0  0  0  0  0  0  0  0
   -3.1899    1.2042   -1.4126 C   0  0  0  0  0  0  0  0  0  0  0  0
   -3.2297   -0.1274   -2.1094 C   0  0  0  0  0  0  0  0  0  0  0  0
   -0.5719    0.8472    0.1047 H   0  0  0  0  0  0  0  0  0  0  0  0
    1.5679    1.1530    0.6109 H   0  0  0  0  0  0  0  0  0  0  0  0
    3.1262   -1.3565    0.8573 H   0  0  0  0  0  0  0  0  0  0  0  0
    3.1777   -0.0510    2.0639 H   0  0  0  0  0  0  0  0  0  0  0  0
    5.0702    0.1334    0.4321 H   0  0  0  0  0  0  0  0  0  0  0  0
    3.9952    1.5363    0.3102 H   0  0  0  0  0  0  0  0  0  0  0  0
    2.9538   -0.1046   -1.5657 H   0  0  0  0  0  0  0  0  0  0  0  0
    3.5645   -0.3039   -3.6912 H   0  0  0  0  0  0  0  0  0  0  0  0
    4.0463    1.3651   -4.0801 H   0  0  0  0  0  0  0  0  0  0  0  0
    5.2395    0.0348   -4.1601 H   0  0  0  0  0  0  0  0  0  0  0  0
   -3.8202   -2.3050    2.4969 H   0  0  0  0  0  0  0  0  0  0  0  0
    0.0038   -4.1023    4.5921 H   0  0  0  0  0  0  0  0  0  0  0  0
    1.1423   -3.7905    3.2497 H   0  0  0  0  0  0  0  0  0  0  0  0
   -0.0692   -5.0963    3.0986 H   0  0  0  0  0  0  0  0  0  0  0  0
   -3.0773    2.5913    1.7014 H   0  0  0  0  0  0  0  0  0  0  0  0
   -3.1408    4.6707    0.3658 H   0  0  0  0  0  0  0  0  0  0  0  0
   -3.2747    2.3409   -3.2513 H   0  0  0  0  0  0  0  0  0  0  0  0
   -3.4591   -0.0143   -3.1742 H   0  0  0  0  0  0  0  0  0  0  0  0
   -2.2595   -0.6270   -2.0242 H   0  0  0  0  0  0  0  0  0  0  0  0
   -4.0070   -0.7652   -1.6761 H   0  0  0  0  0  0  0  0  0  0  0  0
  1  2  1  0
  2  3  1  0
  3  4  1  0
  4  5  1  0
  5  6  1  0
  6  7  1  0
  7  8  1  0
  7  9  2  0
  2 10  2  0
 10 11  1  0
 11 12  2  0
 12 13  1  0
 13 14  2  0
 14 15  1  0
 15 16  1  0
 12 17  1  0
 17 18  2  3
 18 19  1  0
 19 20  2  0
 20 21  1  0
 21 22  2  0
 22 23  1  0
 22 24  1  0
 24 25  2  0
 25 26  1  0
 17  1  1  0
 25 19  1  0
 15 11  1  0
  1 27  1  0
  3 28  1  0
  4 29  1  0
  4 30  1  0
  5 31  1  0
  5 32  1  0
  6 33  1  0
  8 34  1  0
  8 35  1  0
  8 36  1  0
 13 37  1  0
 16 38  1  0
 16 39  1  0
 16 40  1  0
 20 41  1  0
 21 42  1  0
 24 43  1  0
 26 44  1  0
 26 45  1  0
 26 46  1  0
M  END
>  <ScrubInfo>  (3) 
{"isomerGroup": 0, "isomerId": 2, "confId": 0, "nr_conformers:": 1, "nr_isomers:": 9}

$$$$
_i3
     RDKit          3D

 46 48  0  0  0  0  0  0  0  0999 V2000
    0.7277   -1.7039    0.1937 N   0  0  0  0  0  0  0  0  0  0  0  0
    1.0243   -0.3626    0.3710 C   0  0  0  0  0  0  0  0  0  0  0  0
    1.9550    0.1211    1.1151 N   0  0  0  0  0  0  0  0  0  0  0  0
    2.8157   -0.7923    1.8680 C   0  0  0  0  0  0  0  0  0  0  0  0
    3.8325    0.0319    2.6613 C   0  0  0  0  0  0  0  0  0  0  0  0
    4.5609    0.9341    1.7899 N   0  0  0  0  0  0  0  0  0  0  0  0
    5.7071    1.5606    2.2127 C   0  0  0  0  0  0  0  0  0  0  0  0
    6.2179    2.6125    1.2654 C   0  0  0  0  0  0  0  0  0  0  0  0
    6.2787    1.2993    3.2664 O   0  0  0  0  0  0  0  0  0  0  0  0
    0.2990    0.6262   -0.2767 N   0  0  0  0  0  0  0  0  0  0  0  0
   -0.6962    0.2976   -1.0525 C   0  0  0  0  0  0  0  0  0  0  0  0
   -1.4411    1.2358   -1.7232 N   0  0  0  0  0  0  0  0  0  0  0  0
   -2.8588    1.2934   -1.6863 C   0  0  0  0  0  0  0  0  0  0  0  0
   -3.5113    1.5568   -2.9036 C   0  0  0  0  0  0  0  0  0  0  0  0
   -4.8998    1.6745   -2.9686 C   0  0  0  0  0  0  0  0  0  0  0  0
   -5.6492    1.5564   -1.8052 C   0  0  0  0  0  0  0  0  0  0  0  0
   -7.5318    1.7054   -1.8815 Br  0  0  0  0  0  0  0  0  0  0  0  0
   -5.0195    1.3439   -0.5796 C   0  0  0  0  0  0  0  0  0  0  0  0
   -3.6180    1.2387   -0.4994 C   0  0  0  0  0  0  0  0  0  0  0  0
   -2.9972    1.0601    0.8600 C   0  0  0  0  0  0  0  0  0  0  0  0
   -1.0256   -1.0906   -1.2799 C   0  0  0  0  0  0  0  0  0  0  0  0
   -1.9400   -1.8364   -2.0389 C   0  0  0  0  0  0  0  0  0  0  0  0
   -1.7873   -3.1592   -1.8667 N   0  0  0  0  0  0  0  0  0  0  0  0
   -0.7580   -3.2565   -0.9914 N   0  0  0  0  0  0  0  0  0  0  0  0
   -0.3123   -4.5631   -0.5795 C   0  0  0  0  0  0  0  0  0  0  0  0
   -0.2817   -2.0364   -0.6294 C   0  0  0  0  0  0  0  0  0  0  0  0
    1.3021   -2.3788    0.6750 H   0  0  0  0  0  0  0  0  0  0  0  0
    3.3532   -1.4553    1.1793 H   0  0  0  0  0  0  0  0  0  0  0  0
    2.2278   -1.4008    2.5644 H   0  0  0  0  0  0  0  0  0  0  0  0
    4.5385   -0.6243    3.1811 H   0  0  0  0  0  0  0  0  0  0  0  0
    3.3253    0.6485    3.4121 H   0  0  0  0  0  0  0  0  0  0  0  0
    3.9873    1.3897    1.0868 H   0  0  0  0  0  0  0  0  0  0  0  0
    6.0529    3.5997    1.7047 H   0  0  0  0  0  0  0  0  0  0  0  0
    7.2872    2.4552    1.0996 H   0  0  0  0  0  0  0  0  0  0  0  0
    5.7109    2.5646    0.2976 H   0  0  0  0  0  0  0  0  0  0  0  0
   -1.0834    2.1589   -1.4829 H   0  0  0  0  0  0  0  0  0  0  0  0
   -2.9298    1.6496   -3.8192 H   0  0  0  0  0  0  0  0  0  0  0  0
   -5.3804    1.8562   -3.9261 H   0  0  0  0  0  0  0  0  0  0  0  0
   -5.6201    1.2732    0.3253 H   0  0  0  0  0  0  0  0  0  0  0  0
   -3.7032    1.3222    1.6559 H   0  0  0  0  0  0  0  0  0  0  0  0
   -2.1326    1.7195    0.9828 H   0  0  0  0  0  0  0  0  0  0  0  0
   -2.6974    0.0190    1.0098 H   0  0  0  0  0  0  0  0  0  0  0  0
   -2.7120   -1.4869   -2.7117 H   0  0  0  0  0  0  0  0  0  0  0  0
   -1.1624   -5.0982   -0.1486 H   0  0  0  0  0  0  0  0  0  0  0  0
    0.0656   -5.0903   -1.4591 H   0  0  0  0  0  0  0  0  0  0  0  0
    0.4798   -4.4690    0.1660 H   0  0  0  0  0  0  0  0  0  0  0  0
  1  2  1  0
  2  3  2  3
  3  4  1  0
  4  5  1  0
  5  6  1  0
  6  7  1  0
  7  8  1  0
  7  9  2  0
  2 10  1  0
 10 11  2  0
 11 12  1  0
 12 13  1  0
 13 14  2  0
 14 15  1  0
 15 16  2  0
 16 17  1  0
 16 18  1  0
 18 19  2  0
 19 20  1  0
 11 21  1  0
 21 22  1  0
 22 23  2  0
 23 24  1  0
 24 25  1  0
 24 26  1  0
 26  1  1  0
 19 13  1  0
 26 21  2  0
  1 27  1  0
  4 28  1  0
  4 29  1  0
  5 30  1  0
  5 31  1  0
  6 32  1  0
  8 33  1  0
  8 34  1  0
  8 35  1  0
 12 36  1  0
 14 37  1  0
 15 38  1  0
 18 39  1  0
 20 40  1  0
 20 41  1  0
 20 42  1  0
 22 43  1  0
 25 44  1  0
 25 45  1  0
 25 46  1  0
M  END
>  <ScrubInfo>  (4) 
{"isomerGroup": 0, "isomerId": 3, "confId": 0, "nr_conformers:": 1, "nr_isomers:": 9}

$$$$
_i4
     RDKit          3D

 46 48  0  0  0  0  0  0  0  0999 V2000
   -1.7454   -2.2737    1.4263 N   0  0  0  0  0  0  0  0  0  0  0  0
   -2.1185   -0.9775    1.0863 C   0  0  0  0  0  0  0  0  0  0  0  0
   -1.1945   -0.3274    0.3619 C   0  0  0  0  0  0  0  0  0  0  0  0
   -1.0078    0.9617   -0.2921 C   0  0  0  0  0  0  0  0  0  0  0  0
   -1.7589    2.0120   -0.3152 N   0  0  0  0  0  0  0  0  0  0  0  0
   -2.9741    2.0381    0.3758 C   0  0  0  0  0  0  0  0  0  0  0  0
   -2.9899    2.4699    1.7085 C   0  0  0  0  0  0  0  0  0  0  0  0
   -4.1842    2.5193    2.4284 C   0  0  0  0  0  0  0  0  0  0  0  0
   -5.3733    2.1480    1.8080 C   0  0  0  0  0  0  0  0  0  0  0  0
   -6.9938    2.2033    2.7798 Br  0  0  0  0  0  0  0  0  0  0  0  0
   -5.3803    1.7407    0.4737 C   0  0  0  0  0  0  0  0  0  0  0  0
   -4.1828    1.6970   -0.2587 C   0  0  0  0  0  0  0  0  0  0  0  0
   -4.2012    1.2722   -1.7003 C   0  0  0  0  0  0  0  0  0  0  0  0
    0.1603    1.0600   -1.0019 N   0  0  0  0  0  0  0  0  0  0  0  0
    1.0479    0.1122   -1.0502 C   0  0  0  0  0  0  0  0  0  0  0  0
    2.1564    0.3731   -1.8018 N   0  0  0  0  0  0  0  0  0  0  0  0
    3.0159   -0.6634   -2.3530 C   0  0  0  0  0  0  0  0  0  0  0  0
    3.9941   -1.2075   -1.3059 C   0  0  0  0  0  0  0  0  0  0  0  0
    4.7132   -0.1374   -0.6335 N   0  0  0  0  0  0  0  0  0  0  0  0
    5.8416   -0.4033    0.1045 C   0  0  0  0  0  0  0  0  0  0  0  0
    6.3452    0.7696    0.9016 C   0  0  0  0  0  0  0  0  0  0  0  0
    6.4011   -1.4947    0.1251 O   0  0  0  0  0  0  0  0  0  0  0  0
    0.9545   -1.0954   -0.4169 N   0  0  0  0  0  0  0  0  0  0  0  0
   -0.1047   -1.3182    0.2793 C   0  0  0  0  0  0  0  0  0  0  0  0
   -0.4295   -2.4499    1.0271 N   0  0  0  0  0  0  0  0  0  0  0  0
    0.0203   -3.7696    0.6291 C   0  0  0  0  0  0  0  0  0  0  0  0
   -1.9602   -2.5165    2.3965 H   0  0  0  0  0  0  0  0  0  0  0  0
   -3.0810   -0.6197    1.4209 H   0  0  0  0  0  0  0  0  0  0  0  0
   -2.0599    2.7741    2.1828 H   0  0  0  0  0  0  0  0  0  0  0  0
   -4.1744    2.8546    3.4618 H   0  0  0  0  0  0  0  0  0  0  0  0
   -6.3182    1.4667   -0.0039 H   0  0  0  0  0  0  0  0  0  0  0  0
   -5.2253    1.1916   -2.0799 H   0  0  0  0  0  0  0  0  0  0  0  0
   -3.7225    0.2944   -1.8126 H   0  0  0  0  0  0  0  0  0  0  0  0
   -3.6809    2.0063   -2.3241 H   0  0  0  0  0  0  0  0  0  0  0  0
    2.0124    1.1808   -2.3980 H   0  0  0  0  0  0  0  0  0  0  0  0
    3.5929   -0.2182   -3.1722 H   0  0  0  0  0  0  0  0  0  0  0  0
    2.4211   -1.4758   -2.7854 H   0  0  0  0  0  0  0  0  0  0  0  0
    3.4752   -1.7814   -0.5314 H   0  0  0  0  0  0  0  0  0  0  0  0
    4.7148   -1.8810   -1.7830 H   0  0  0  0  0  0  0  0  0  0  0  0
    4.1425    0.6566   -0.3644 H   0  0  0  0  0  0  0  0  0  0  0  0
    6.1387    0.5972    1.9611 H   0  0  0  0  0  0  0  0  0  0  0  0
    7.4228    0.8712    0.7463 H   0  0  0  0  0  0  0  0  0  0  0  0
    5.8658    1.7028    0.5925 H   0  0  0  0  0  0  0  0  0  0  0  0
    1.1094   -3.7885    0.5189 H   0  0  0  0  0  0  0  0  0  0  0  0
   -0.4334   -4.0644   -0.3229 H   0  0  0  0  0  0  0  0  0  0  0  0
   -0.2515   -4.5099    1.3884 H   0  0  0  0  0  0  0  0  0  0  0  0
  1  2  1  0
  2  3  2  0
  3  4  1  0
  4  5  2  3
  5  6  1  0
  6  7  2  0
  7  8  1  0
  8  9  2  0
  9 10  1  0
  9 11  1  0
 11 12  2  0
 12 13  1  0
  4 14  1  0
 14 15  2  0
 15 16  1  0
 16 17  1  0
 17 18  1  0
 18 19  1  0
 19 20  1  0
 20 21  1  0
 20 22  2  0
 15 23  1  0
 23 24  2  0
 24 25  1  0
 25 26  1  0
 25  1  1  0
 24  3  1  0
 12  6  1  0
  1 27  1  0
  2 28  1  0
  7 29  1  0
  8 30  1  0
 11 31  1  0
 13 32  1  0
 13 33  1  0
 13 34  1  0
 16 35  1  0
 17 36  1  0
 17 37  1  0
 18 38  1  0
 18 39  1  0
 19 40  1  0
 21 41  1  0
 21 42  1  0
 21 43  1  0
 26 44  1  0
 26 45  1  0
 26 46  1  0
M  END
>  <ScrubInfo>  (5) 
{"isomerGroup": 0, "isomerId": 4, "confId": 0, "nr_conformers:": 1, "nr_isomers:": 9}

$$$$
_i5
     RDKit          3D

 46 48  0  0  0  0  0  0  0  0999 V2000
    0.7746   -1.1255   -0.2948 N   0  0  0  0  0  0  0  0  0  0  0  0
    1.0017    0.1455    0.1673 C   0  0  0  0  0  0  0  0  0  0  0  0
    2.3011    0.4432    0.4623 N   0  0  0  0  0  0  0  0  0  0  0  0
    3.0923   -0.3986    1.3649 C   0  0  0  0  0  0  0  0  0  0  0  0
    4.5184    0.1491    1.4789 C   0  0  0  0  0  0  0  0  0  0  0  0
    5.1453    0.2808    0.1741 N   0  0  0  0  0  0  0  0  0  0  0  0
    6.5054    0.4491    0.0623 C   0  0  0  0  0  0  0  0  0  0  0  0
    6.9785    0.7483   -1.3345 C   0  0  0  0  0  0  0  0  0  0  0  0
    7.2773    0.3685    1.0117 O   0  0  0  0  0  0  0  0  0  0  0  0
    0.0968    1.0687    0.3217 N   0  0  0  0  0  0  0  0  0  0  0  0
   -1.2329    0.7929    0.0226 C   0  0  0  0  0  0  0  0  0  0  0  0
   -2.0724    1.7525    0.2495 N   0  0  0  0  0  0  0  0  0  0  0  0
   -3.4406    1.6311    0.0003 C   0  0  0  0  0  0  0  0  0  0  0  0
   -3.9409    2.0327   -1.2452 C   0  0  0  0  0  0  0  0  0  0  0  0
   -5.3052    1.9502   -1.5268 C   0  0  0  0  0  0  0  0  0  0  0  0
   -6.1782    1.4776   -0.5515 C   0  0  0  0  0  0  0  0  0  0  0  0
   -8.0268    1.3566   -0.9280 Br  0  0  0  0  0  0  0  0  0  0  0  0
   -5.7014    1.0992    0.7037 C   0  0  0  0  0  0  0  0  0  0  0  0
   -4.3307    1.1887    0.9967 C   0  0  0  0  0  0  0  0  0  0  0  0
   -3.8297    0.7927    2.3572 C   0  0  0  0  0  0  0  0  0  0  0  0
   -1.5185   -0.5314   -0.5058 C   0  0  0  0  0  0  0  0  0  0  0  0
   -2.6336   -1.2475   -0.9775 C   0  0  0  0  0  0  0  0  0  0  0  0
   -2.3228   -2.4894   -1.3826 N   0  0  0  0  0  0  0  0  0  0  0  0
   -0.9914   -2.5746   -1.1667 N   0  0  0  0  0  0  0  0  0  0  0  0
   -0.3072   -3.8002   -1.4909 C   0  0  0  0  0  0  0  0  0  0  0  0
   -0.4879   -1.4280   -0.6413 C   0  0  0  0  0  0  0  0  0  0  0  0
    1.5790   -1.6765   -0.5606 H   0  0  0  0  0  0  0  0  0  0  0  0
    2.3186    1.4145    0.7769 H   0  0  0  0  0  0  0  0  0  0  0  0
    3.1357   -1.4238    0.9810 H   0  0  0  0  0  0  0  0  0  0  0  0
    2.6247   -0.4242    2.3553 H   0  0  0  0  0  0  0  0  0  0  0  0
    5.1273   -0.5063    2.1108 H   0  0  0  0  0  0  0  0  0  0  0  0
    4.5124    1.1462    1.9341 H   0  0  0  0  0  0  0  0  0  0  0  0
    4.5537    0.6280   -0.5734 H   0  0  0  0  0  0  0  0  0  0  0  0
    7.8302    0.1039   -1.5691 H   0  0  0  0  0  0  0  0  0  0  0  0
    6.1947    0.5620   -2.0741 H   0  0  0  0  0  0  0  0  0  0  0  0
    7.2811    1.7970   -1.3927 H   0  0  0  0  0  0  0  0  0  0  0  0
   -3.2563    2.4143   -1.9988 H   0  0  0  0  0  0  0  0  0  0  0  0
   -5.6717    2.2603   -2.5014 H   0  0  0  0  0  0  0  0  0  0  0  0
   -6.3957    0.7426    1.4611 H   0  0  0  0  0  0  0  0  0  0  0  0
   -4.6569    0.6421    3.0589 H   0  0  0  0  0  0  0  0  0  0  0  0
   -3.1898    1.5765    2.7753 H   0  0  0  0  0  0  0  0  0  0  0  0
   -3.2654   -0.1429    2.2949 H   0  0  0  0  0  0  0  0  0  0  0  0
   -3.6661   -0.9364   -1.0566 H   0  0  0  0  0  0  0  0  0  0  0  0
   -0.8326   -4.6294   -1.0100 H   0  0  0  0  0  0  0  0  0  0  0  0
   -0.3163   -3.9202   -2.5771 H   0  0  0  0  0  0  0  0  0  0  0  0
    0.7220   -3.7596   -1.1282 H   0  0  0  0  0  0  0  0  0  0  0  0
  1  2  1  0
  2  3  1  0
  3  4  1  0
  4  5  1  0
  5  6  1  0
  6  7  1  0
  7  8  1  0
  7  9  2  0
  2 10  2  0
 10 11  1  0
 11 12  2  3
 12 13  1  0
 13 14  2  0
 14 15  1  0
 15 16  2  0
 16 17  1  0
 16 18  1  0
 18 19  2  0
 19 20  1  0
 11 21  1  0
 21 22  1  0
 22 23  2  0
 23 24  1  0
 24 25  1  0
 24 26  1  0
 26  1  1  0
 19 13  1  0
 26 21  2  0
  1 27  1  0
  3 28  1  0
  4 29  1  0
  4 30  1  0
  5 31  1  0
  5 32  1  0
  6 33  1  0
  8 34  1  0
  8 35  1  0
  8 36  1  0
 14 37  1  0
 15 38  1  0
 18 39  1  0
 20 40  1  0
 20 41  1  0
 20 42  1  0
 22 43  1  0
 25 44  1  0
 25 45  1  0
 25 46  1  0
M  END
>  <ScrubInfo>  (6) 
{"isomerGroup": 0, "isomerId": 5, "confId": 0, "nr_conformers:": 1, "nr_isomers:": 9}

$$$$
_i6
     RDKit          3D

 46 48  0  0  0  0  0  0  0  0999 V2000
    2.2316   -3.0366    0.7435 N   0  0  0  0  0  0  0  0  0  0  0  0
    2.4772   -1.7507    0.2747 C   0  0  0  0  0  0  0  0  0  0  0  0
    1.3617   -1.1119   -0.1021 C   0  0  0  0  0  0  0  0  0  0  0  0
    0.9699    0.1728   -0.6772 C   0  0  0  0  0  0  0  0  0  0  0  0
    1.8585    1.1899   -0.9555 N   0  0  0  0  0  0  0  0  0  0  0  0
    2.8246    1.6684   -0.0355 C   0  0  0  0  0  0  0  0  0  0  0  0
    2.5884    1.6545    1.3492 C   0  0  0  0  0  0  0  0  0  0  0  0
    3.5220    2.1847    2.2423 C   0  0  0  0  0  0  0  0  0  0  0  0
    4.6922    2.7560    1.7551 C   0  0  0  0  0  0  0  0  0  0  0  0
    5.9579    3.4750    2.9605 Br  0  0  0  0  0  0  0  0  0  0  0  0
    4.9323    2.8114    0.3836 C   0  0  0  0  0  0  0  0  0  0  0  0
    3.9990    2.2800   -0.5223 C   0  0  0  0  0  0  0  0  0  0  0  0
    4.2780    2.3572   -1.9995 C   0  0  0  0  0  0  0  0  0  0  0  0
   -0.2859    0.3574   -0.9782 N   0  0  0  0  0  0  0  0  0  0  0  0
   -1.1899   -0.6512   -0.7221 C   0  0  0  0  0  0  0  0  0  0  0  0
   -2.3863   -0.3731   -1.1053 N   0  0  0  0  0  0  0  0  0  0  0  0
   -3.4219   -1.3871   -0.8600 C   0  0  0  0  0  0  0  0  0  0  0  0
   -4.7559   -0.8555   -1.3949 C   0  0  0  0  0  0  0  0  0  0  0  0
   -5.1151    0.4031   -0.7638 N   0  0  0  0  0  0  0  0  0  0  0  0
   -5.7780    0.4283    0.4404 C   0  0  0  0  0  0  0  0  0  0  0  0
   -5.8686    1.7976    1.0584 C   0  0  0  0  0  0  0  0  0  0  0  0
   -6.2550   -0.5631    0.9835 O   0  0  0  0  0  0  0  0  0  0  0  0
   -0.9322   -1.8598   -0.1168 N   0  0  0  0  0  0  0  0  0  0  0  0
    0.2954   -2.0900    0.1965 C   0  0  0  0  0  0  0  0  0  0  0  0
    0.8527   -3.2102    0.8137 N   0  0  0  0  0  0  0  0  0  0  0  0
    0.2950   -4.5332    0.6059 C   0  0  0  0  0  0  0  0  0  0  0  0
    2.7603   -3.2729    1.5865 H   0  0  0  0  0  0  0  0  0  0  0  0
    3.4927   -1.3811    0.2523 H   0  0  0  0  0  0  0  0  0  0  0  0
    1.3617    1.9807   -1.3629 H   0  0  0  0  0  0  0  0  0  0  0  0
    1.6646    1.2446    1.7519 H   0  0  0  0  0  0  0  0  0  0  0  0
    3.3192    2.1569    3.3098 H   0  0  0  0  0  0  0  0  0  0  0  0
    5.8461    3.2723    0.0146 H   0  0  0  0  0  0  0  0  0  0  0  0
    3.5070    2.9512   -2.5006 H   0  0  0  0  0  0  0  0  0  0  0  0
    4.3051    1.3524   -2.4335 H   0  0  0  0  0  0  0  0  0  0  0  0
    5.2447    2.8302   -2.2022 H   0  0  0  0  0  0  0  0  0  0  0  0
   -3.1832   -2.3214   -1.3817 H   0  0  0  0  0  0  0  0  0  0  0  0
   -3.5149   -1.5875    0.2144 H   0  0  0  0  0  0  0  0  0  0  0  0
   -4.6818   -0.6585   -2.4697 H   0  0  0  0  0  0  0  0  0  0  0  0
   -5.5500   -1.5910   -1.2300 H   0  0  0  0  0  0  0  0  0  0  0  0
   -4.4730    1.1618   -0.9606 H   0  0  0  0  0  0  0  0  0  0  0  0
   -5.1740    1.8568    1.9003 H   0  0  0  0  0  0  0  0  0  0  0  0
   -6.8906    1.9649    1.4095 H   0  0  0  0  0  0  0  0  0  0  0  0
   -5.6228    2.5819    0.3368 H   0  0  0  0  0  0  0  0  0  0  0  0
   -0.7686   -4.5478    0.8649 H   0  0  0  0  0  0  0  0  0  0  0  0
    0.4060   -4.8424   -0.4386 H   0  0  0  0  0  0  0  0  0  0  0  0
    0.8040   -5.2648    1.2417 H   0  0  0  0  0  0  0  0  0  0  0  0
  1  2  1  0
  2  3  2  0
  3  4  1  0
  4  5  1  0
  5  6  1  0
  6  7  2  0
  7  8  1  0
  8  9  2  0
  9 10  1  0
  9 11  1  0
 11 12  2  0
 12 13  1  0
  4 14  2  0
 14 15  1  0
 15 16  2  3
 16 17  1  0
 17 18  1  0
 18 19  1  0
 19 20  1  0
 20 21  1  0
 20 22  2  0
 15 23  1  0
 23 24  2  0
 24 25  1  0
 25 26  1  0
 25  1  1  0
 24  3  1  0
 12  6  1  0
  1 27  1  0
  2 28  1  0
  5 29  1  0
  7 30  1  0
  8 31  1  0
 11 32  1  0
 13 33  1  0
 13 34  1  0
 13 35  1  0
 17 36  1  0
 17 37  1  0
 18 38  1  0
 18 39  1  0
 19 40  1  0
 21 41  1  0
 21 42  1  0
 21 43  1  0
 26 44  1  0
 26 45  1  0
 26 46  1  0
M  END
>  <ScrubInfo>  (7) 
{"isomerGroup": 0, "isomerId": 6, "confId": 0, "nr_conformers:": 1, "nr_isomers:": 9}

$$$$
_i7
     RDKit          3D

 46 48  0  0  0  0  0  0  0  0999 V2000
    1.8750   -2.5306    1.0972 N   0  0  0  0  0  0  0  0  0  0  0  0
    2.1643   -1.1814    0.9292 C   0  0  0  0  0  0  0  0  0  0  0  0
    1.2125   -0.5080    0.2674 C   0  0  0  0  0  0  0  0  0  0  0  0
    0.9299    0.8462   -0.2476 C   0  0  0  0  0  0  0  0  0  0  0  0
    1.6347    1.9336   -0.1394 N   0  0  0  0  0  0  0  0  0  0  0  0
    2.8504    1.9355    0.5538 C   0  0  0  0  0  0  0  0  0  0  0  0
    2.8493    2.2139    1.9267 C   0  0  0  0  0  0  0  0  0  0  0  0
    4.0420    2.2383    2.6506 C   0  0  0  0  0  0  0  0  0  0  0  0
    5.2457    1.9960    1.9955 C   0  0  0  0  0  0  0  0  0  0  0  0
    6.8643    2.0178    2.9714 Br  0  0  0  0  0  0  0  0  0  0  0  0
    5.2679    1.7420    0.6240 C   0  0  0  0  0  0  0  0  0  0  0  0
    4.0719    1.7248   -0.1121 C   0  0  0  0  0  0  0  0  0  0  0  0
    4.1080    1.4611   -1.5912 C   0  0  0  0  0  0  0  0  0  0  0  0
   -0.2539    0.9020   -0.9322 N   0  0  0  0  0  0  0  0  0  0  0  0
   -1.1346   -0.1180   -1.1542 C   0  0  0  0  0  0  0  0  0  0  0  0
   -2.2016    0.1279   -1.8428 N   0  0  0  0  0  0  0  0  0  0  0  0
   -3.1335   -0.9868   -2.0914 C   0  0  0  0  0  0  0  0  0  0  0  0
   -4.1149   -1.1415   -0.9281 C   0  0  0  0  0  0  0  0  0  0  0  0
   -4.8140    0.1035   -0.6641 N   0  0  0  0  0  0  0  0  0  0  0  0
   -5.8746    0.1533    0.2063 C   0  0  0  0  0  0  0  0  0  0  0  0
   -6.3734    1.5451    0.4870 C   0  0  0  0  0  0  0  0  0  0  0  0
   -6.3811   -0.8365    0.7246 O   0  0  0  0  0  0  0  0  0  0  0  0
   -0.9148   -1.3806   -0.6496 N   0  0  0  0  0  0  0  0  0  0  0  0
    0.1719   -1.5714    0.0323 C   0  0  0  0  0  0  0  0  0  0  0  0
    0.5817   -2.7546    0.6499 N   0  0  0  0  0  0  0  0  0  0  0  0
    0.2377   -4.0506    0.0973 C   0  0  0  0  0  0  0  0  0  0  0  0
    2.0980   -2.8821    2.0316 H   0  0  0  0  0  0  0  0  0  0  0  0
    3.0957   -0.8073    1.3276 H   0  0  0  0  0  0  0  0  0  0  0  0
    1.9079    2.4153    2.4319 H   0  0  0  0  0  0  0  0  0  0  0  0
    4.0196    2.4525    3.7156 H   0  0  0  0  0  0  0  0  0  0  0  0
    6.2165    1.5661    0.1216 H   0  0  0  0  0  0  0  0  0  0  0  0
    5.1330    1.4841   -1.9762 H   0  0  0  0  0  0  0  0  0  0  0  0
    3.6876    0.4745   -1.8096 H   0  0  0  0  0  0  0  0  0  0  0  0
    3.5416    2.2259   -2.1324 H   0  0  0  0  0  0  0  0  0  0  0  0
   -0.5005    1.7912   -1.3396 H   0  0  0  0  0  0  0  0  0  0  0  0
   -3.6918   -0.7428   -3.0033 H   0  0  0  0  0  0  0  0  0  0  0  0
   -2.6172   -1.9313   -2.2992 H   0  0  0  0  0  0  0  0  0  0  0  0
   -3.5972   -1.4255   -0.0056 H   0  0  0  0  0  0  0  0  0  0  0  0
   -4.8522   -1.9202   -1.1514 H   0  0  0  0  0  0  0  0  0  0  0  0
   -4.2784    0.9458   -0.8378 H   0  0  0  0  0  0  0  0  0  0  0  0
   -5.9594    2.2718   -0.2176 H   0  0  0  0  0  0  0  0  0  0  0  0
   -6.0858    1.8302    1.5023 H   0  0  0  0  0  0  0  0  0  0  0  0
   -7.4628    1.5602    0.3931 H   0  0  0  0  0  0  0  0  0  0  0  0
   -0.8461   -4.1413   -0.0282 H   0  0  0  0  0  0  0  0  0  0  0  0
    0.7171   -4.1976   -0.8761 H   0  0  0  0  0  0  0  0  0  0  0  0
    0.5636   -4.8505    0.7701 H   0  0  0  0  0  0  0  0  0  0  0  0
  1  2  1  0
  2  3  2  0
  3  4  1  0
  4  5  2  3
  5  6  1  0
  6  7  2  0
  7  8  1  0
  8  9  2  0
  9 10  1  0
  9 11  1  0
 11 12  2  0
 12 13  1  0
  4 14  1  0
 14 15  1  0
 15 16  2  3
 16 17  1  0
 17 18  1  0
 18 19  1  0
 19 20  1  0
 20 21  1  0
 20 22  2  0
 15 23  1  0
 23 24  2  0
 24 25  1  0
 25 26  1  0
 25  1  1  0
 24  3  1  0
 12  6  1  0
  1 27  1  0
  2 28  1  0
  7 29  1  0
  8 30  1  0
 11 31  1  0
 13 32  1  0
 13 33  1  0
 13 34  1  0
 14 35  1  0
 17 36  1  0
 17 37  1  0
 18 38  1  0
 18 39  1  0
 19 40  1  0
 21 41  1  0
 21 42  1  0
 21 43  1  0
 26 44  1  0
 26 45  1  0
 26 46  1  0
M  END
>  <ScrubInfo>  (8) 
{"isomerGroup": 0, "isomerId": 7, "confId": 0, "nr_conformers:": 1, "nr_isomers:": 9}

$$$$
_i8
     RDKit          3D

 46 48  0  0  0  0  0  0  0  0999 V2000
   -0.3259    2.2414   -0.9229 N   0  0  0  0  0  0  0  0  0  0  0  0
   -1.1096    1.2846   -0.3107 C   0  0  0  0  0  0  0  0  0  0  0  0
   -2.3894    1.4570   -0.3065 N   0  0  0  0  0  0  0  0  0  0  0  0
   -3.2124    0.4347    0.3442 C   0  0  0  0  0  0  0  0  0  0  0  0
   -4.6912    0.7642    0.1125 C   0  0  0  0  0  0  0  0  0  0  0  0
   -5.5900   -0.0565    0.9047 N   0  0  0  0  0  0  0  0  0  0  0  0
   -5.7788   -1.3920    0.6390 C   0  0  0  0  0  0  0  0  0  0  0  0
   -6.8133   -2.0567    1.5072 C   0  0  0  0  0  0  0  0  0  0  0  0
   -5.1656   -2.0069   -0.2269 O   0  0  0  0  0  0  0  0  0  0  0  0
   -0.3783    0.2451    0.2320 N   0  0  0  0  0  0  0  0  0  0  0  0
    0.9829    0.0112    0.2642 C   0  0  0  0  0  0  0  0  0  0  0  0
    1.4575   -1.0507    0.8439 N   0  0  0  0  0  0  0  0  0  0  0  0
    2.8268   -1.3249    0.8986 C   0  0  0  0  0  0  0  0  0  0  0  0
    3.5685   -0.8639    1.9940 C   0  0  0  0  0  0  0  0  0  0  0  0
    4.9326   -1.1395    2.0988 C   0  0  0  0  0  0  0  0  0  0  0  0
    5.5569   -1.8936    1.1098 C   0  0  0  0  0  0  0  0  0  0  0  0
    7.4056   -2.2656    1.2420 Br  0  0  0  0  0  0  0  0  0  0  0  0
    4.8285   -2.3823    0.0251 C   0  0  0  0  0  0  0  0  0  0  0  0
    3.4536   -2.1161   -0.0820 C   0  0  0  0  0  0  0  0  0  0  0  0
    2.6771   -2.6553   -1.2504 C   0  0  0  0  0  0  0  0  0  0  0  0
    1.7153    1.0715   -0.4070 C   0  0  0  0  0  0  0  0  0  0  0  0
    3.0574    1.3845   -0.6917 C   0  0  0  0  0  0  0  0  0  0  0  0
    3.1930    2.5361   -1.3666 N   0  0  0  0  0  0  0  0  0  0  0  0
    1.9224    2.9655   -1.5297 N   0  0  0  0  0  0  0  0  0  0  0  0
    1.6819    4.2024   -2.2292 C   0  0  0  0  0  0  0  0  0  0  0  0
    1.0177    2.1219   -0.9633 C   0  0  0  0  0  0  0  0  0  0  0  0
   -0.8469    3.0081   -1.3317 H   0  0  0  0  0  0  0  0  0  0  0  0
   -3.0078    0.4211    1.4218 H   0  0  0  0  0  0  0  0  0  0  0  0
   -2.9916   -0.5594   -0.0610 H   0  0  0  0  0  0  0  0  0  0  0  0
   -4.8943    1.8072    0.3803 H   0  0  0  0  0  0  0  0  0  0  0  0
   -4.9449    0.6373   -0.9464 H   0  0  0  0  0  0  0  0  0  0  0  0
   -6.1984    0.4096    1.5645 H   0  0  0  0  0  0  0  0  0  0  0  0
   -7.6756   -2.3264    0.8918 H   0  0  0  0  0  0  0  0  0  0  0  0
   -7.1478   -1.4012    2.3159 H   0  0  0  0  0  0  0  0  0  0  0  0
   -6.3803   -2.9569    1.9520 H   0  0  0  0  0  0  0  0  0  0  0  0
   -0.9009   -0.4917    0.6800 H   0  0  0  0  0  0  0  0  0  0  0  0
    3.0753   -0.2839    2.7699 H   0  0  0  0  0  0  0  0  0  0  0  0
    5.4919   -0.7659    2.9520 H   0  0  0  0  0  0  0  0  0  0  0  0
    5.3264   -2.9781   -0.7366 H   0  0  0  0  0  0  0  0  0  0  0  0
    3.2665   -3.3811   -1.8208 H   0  0  0  0  0  0  0  0  0  0  0  0
    1.7737   -3.1702   -0.9077 H   0  0  0  0  0  0  0  0  0  0  0  0
    2.3976   -1.8414   -1.9265 H   0  0  0  0  0  0  0  0  0  0  0  0
    3.9570    0.8379   -0.4448 H   0  0  0  0  0  0  0  0  0  0  0  0
    1.8076    5.0238   -1.5198 H   0  0  0  0  0  0  0  0  0  0  0  0
    2.4007    4.2924   -3.0479 H   0  0  0  0  0  0  0  0  0  0  0  0
    0.6685    4.2030   -2.6364 H   0  0  0  0  0  0  0  0  0  0  0  0
  1  2  1  0
  2  3  2  3
  3  4  1  0
  4  5  1  0
  5  6  1  0
  6  7  1  0
  7  8  1  0
  7  9  2  0
  2 10  1  0
 10 11  1  0
 11 12  2  3
 12 13  1  0
 13 14  2  0
 14 15  1  0
 15 16  2  0
 16 17  1  0
 16 18  1  0
 18 19  2  0
 19 20  1  0
 11 21  1  0
 21 22  1  0
 22 23  2  0
 23 24  1  0
 24 25  1  0
 24 26  1  0
 26  1  1  0
 19 13  1  0
 26 21  2  0
  1 27  1  0
  4 28  1  0
  4 29  1  0
  5 30  1  0
  5 31  1  0
  6 32  1  0
  8 33  1  0
  8 34  1  0
  8 35  1  0
 10 36  1  0
 14 37  1  0
 15 38  1  0
 18 39  1  0
 20 40  1  0
 20 41  1  0
 20 42  1  0
 22 43  1  0
 25 44  1  0
 25 45  1  0
 25 46  1  0
M  END
>  <ScrubInfo>  (9) 
{"isomerGroup": 0, "isomerId": 8, "confId": 0, "nr_conformers:": 1, "nr_isomers:": 9}

$$$$
