_i0
     RDKit          3D

 45 47  0  0  0  0  0  0  0  0999 V2000
    4.0060    2.5311    0.2983 C   0  0  0  0  0  0  0  0  0  0  0  0
    3.5486    1.3676    1.1836 C   0  0  0  0  0  0  0  0  0  0  0  0
    4.3020    0.0984    0.7905 C   0  0  0  0  0  0  0  0  0  0  0  0
    2.0153    1.2229    1.0932 C   0  0  0  0  0  0  0  0  0  0  0  0
    1.4082    0.1666    2.0262 C   0  0  0  0  0  0  0  0  0  0  0  0
    1.3515   -1.1596    1.4355 N   0  0  0  0  0  0  0  0  0  0  0  0
    0.4534   -1.3626    0.3999 C   0  0  0  0  0  0  0  0  0  0  0  0
   -0.6855   -0.6470    0.3532 N   0  0  0  0  0  0  0  0  0  0  0  0
   -1.5821   -0.8175   -0.6533 C   0  0  0  0  0  0  0  0  0  0  0  0
   -2.7626   -0.0627   -0.7316 N   0  0  0  0  0  0  0  0  0  0  0  0
   -3.3666    0.8370    0.1633 C   0  0  0  0  0  0  0  0  0  0  0  0
   -2.9431    1.0264    1.4828 C   0  0  0  0  0  0  0  0  0  0  0  0
   -3.5629    1.9629    2.3197 C   0  0  0  0  0  0  0  0  0  0  0  0
   -4.6165    2.7331    1.8377 C   0  0  0  0  0  0  0  0  0  0  0  0
   -5.5362    4.1243    3.0747 I   0  0  0  0  0  0  0  0  0  0  0  0
   -5.0526    2.5727    0.5265 C   0  0  0  0  0  0  0  0  0  0  0  0
   -4.4275    1.6333   -0.3013 C   0  0  0  0  0  0  0  0  0  0  0  0
   -1.2540   -1.7632   -1.6329 C   0  0  0  0  0  0  0  0  0  0  0  0
   -1.8059   -2.2868   -2.8210 C   0  0  0  0  0  0  0  0  0  0  0  0
   -1.0325   -3.2179   -3.3901 N   0  0  0  0  0  0  0  0  0  0  0  0
    0.0256   -3.2953   -2.5491 N   0  0  0  0  0  0  0  0  0  0  0  0
    1.0922   -4.2217   -2.8344 C   0  0  0  0  0  0  0  0  0  0  0  0
   -0.0590   -2.4394   -1.4851 C   0  0  0  0  0  0  0  0  0  0  0  0
    0.8322   -2.2812   -0.4967 N   0  0  0  0  0  0  0  0  0  0  0  0
    5.0861    2.6886    0.3886 H   0  0  0  0  0  0  0  0  0  0  0  0
    3.5098    3.4626    0.5910 H   0  0  0  0  0  0  0  0  0  0  0  0
    3.7779    2.3414   -0.7561 H   0  0  0  0  0  0  0  0  0  0  0  0
    3.8150    1.6144    2.2193 H   0  0  0  0  0  0  0  0  0  0  0  0
    3.9782   -0.2711   -0.1881 H   0  0  0  0  0  0  0  0  0  0  0  0
    4.1522   -0.6937    1.5298 H   0  0  0  0  0  0  0  0  0  0  0  0
    5.3805    0.2846    0.7407 H   0  0  0  0  0  0  0  0  0  0  0  0
    1.7186    1.0504    0.0515 H   0  0  0  0  0  0  0  0  0  0  0  0
    1.5795    2.1904    1.3770 H   0  0  0  0  0  0  0  0  0  0  0  0
    0.4052    0.4835    2.3376 H   0  0  0  0  0  0  0  0  0  0  0  0
    1.9946    0.1085    2.9505 H   0  0  0  0  0  0  0  0  0  0  0  0
    2.2303   -1.5741    1.1548 H   0  0  0  0  0  0  0  0  0  0  0  0
   -3.3017   -0.2351   -1.5681 H   0  0  0  0  0  0  0  0  0  0  0  0
   -2.1323    0.4348    1.8967 H   0  0  0  0  0  0  0  0  0  0  0  0
   -3.2077    2.0721    3.3409 H   0  0  0  0  0  0  0  0  0  0  0  0
   -5.8703    3.1690    0.1308 H   0  0  0  0  0  0  0  0  0  0  0  0
   -4.7784    1.5353   -1.3258 H   0  0  0  0  0  0  0  0  0  0  0  0
   -2.7418   -2.0308   -3.2997 H   0  0  0  0  0  0  0  0  0  0  0  0
    0.6721   -5.2302   -2.8669 H   0  0  0  0  0  0  0  0  0  0  0  0
    1.5270   -3.9574   -3.8017 H   0  0  0  0  0  0  0  0  0  0  0  0
    1.8569   -4.1645   -2.0566 H   0  0  0  0  0  0  0  0  0  0  0  0
  1  2  1  0
  2  3  1  0
  2  4  1  0
  4  5  1  0
  5  6  1  0
  6  7  1  0
  7  8  2  0
  8  9  1  0
  9 10  1  0
 10 11  1  0
 11 12  2  0
 12 13  1  0
 13 14  2  0
 14 15  1  0
 14 16  1  0
 16 17  2  0
  9 18  2  0
 18 19  1  0
 19 20  2  0
 20 21  1  0
 21 22  1  0
 21 23  1  0
 23 24  2  0
 24  7  1  0
 17 11  1  0
 23 18  1  0
  1 25  1  0
  1 26  1  0
  1 27  1  0
  2 28  1  0
  3 29  1  0
  3 30  1  0
  3 31  1  0
  4 32  1  0
  4 33  1  0
  5 34  1  0
  5 35  1  0
  6 36  1  0
 10 37  1  0
 12 38  1  0
 13 39  1  0
 16 40  1  0
 17 41  1  0
 19 42  1  0
 22 43  1  0
 22 44  1  0
 22 45  1  0
M  END
>  <ScrubInfo>  (1) 
{"isomerGroup": 0, "isomerId": 0, "confId": 0, "nr_conformers:": 1, "nr_isomers:": 9}

$$$$
_i1
     RDKit          3D

 45 47  0  0  0  0  0  0  0  0999 V2000
   -0.1121    0.2954    0.2118 N   0  0  0  0  0  0  0  0  0  0  0  0
    1.0943    0.2026   -0.4581 C   0  0  0  0  0  0  0  0  0  0  0  0
    1.6102   -1.0268   -0.8231 N   0  0  0  0  0  0  0  0  0  0  0  0
    2.8965   -1.5301   -0.5219 C   0  0  0  0  0  0  0  0  0  0  0  0
    3.3144   -2.7045   -1.1666 C   0  0  0  0  0  0  0  0  0  0  0  0
    4.5893   -3.2360   -0.9472 C   0  0  0  0  0  0  0  0  0  0  0  0
    5.4659   -2.5896   -0.0804 C   0  0  0  0  0  0  0  0  0  0  0  0
    7.3608   -3.3720    0.2507 I   0  0  0  0  0  0  0  0  0  0  0  0
    5.0753   -1.4185    0.5638 C   0  0  0  0  0  0  0  0  0  0  0  0
    3.7984   -0.8911    0.3389 C   0  0  0  0  0  0  0  0  0  0  0  0
    1.6618    1.3706   -0.7822 C   0  0  0  0  0  0  0  0  0  0  0  0
    2.8323    1.8424   -1.5302 C   0  0  0  0  0  0  0  0  0  0  0  0
    2.9183    3.1486   -1.5744 N   0  0  0  0  0  0  0  0  0  0  0  0
    1.8297    3.6200   -0.8204 N   0  0  0  0  0  0  0  0  0  0  0  0
    1.4448    5.0056   -0.9411 C   0  0  0  0  0  0  0  0  0  0  0  0
    0.9904    2.6163   -0.3636 C   0  0  0  0  0  0  0  0  0  0  0  0
   -0.1296    2.6858    0.2688 N   0  0  0  0  0  0  0  0  0  0  0  0
   -0.7142    1.4787    0.5844 C   0  0  0  0  0  0  0  0  0  0  0  0
   -1.8191    1.6074    1.2253 N   0  0  0  0  0  0  0  0  0  0  0  0
   -2.5795    0.4474    1.6704 C   0  0  0  0  0  0  0  0  0  0  0  0
   -3.5249   -0.0127    0.5598 C   0  0  0  0  0  0  0  0  0  0  0  0
   -4.2906   -1.3032    0.9027 C   0  0  0  0  0  0  0  0  0  0  0  0
   -5.1003   -1.7648   -0.3114 C   0  0  0  0  0  0  0  0  0  0  0  0
   -5.2180   -1.1300    2.1062 C   0  0  0  0  0  0  0  0  0  0  0  0
   -0.5476   -0.5678    0.4853 H   0  0  0  0  0  0  0  0  0  0  0  0
    0.9204   -1.7724   -0.8297 H   0  0  0  0  0  0  0  0  0  0  0  0
    2.6502   -3.2123   -1.8627 H   0  0  0  0  0  0  0  0  0  0  0  0
    4.8819   -4.1466   -1.4638 H   0  0  0  0  0  0  0  0  0  0  0  0
    5.7483   -0.9032    1.2451 H   0  0  0  0  0  0  0  0  0  0  0  0
    3.5211    0.0137    0.8735 H   0  0  0  0  0  0  0  0  0  0  0  0
    3.5246    1.1385   -2.0093 H   0  0  0  0  0  0  0  0  0  0  0  0
    0.8090    5.1494   -1.8203 H   0  0  0  0  0  0  0  0  0  0  0  0
    2.3275    5.6451   -1.0435 H   0  0  0  0  0  0  0  0  0  0  0  0
    0.8946    5.3366   -0.0545 H   0  0  0  0  0  0  0  0  0  0  0  0
   -3.1581    0.7543    2.5483 H   0  0  0  0  0  0  0  0  0  0  0  0
   -1.9317   -0.3687    2.0094 H   0  0  0  0  0  0  0  0  0  0  0  0
   -4.2332    0.7941    0.3299 H   0  0  0  0  0  0  0  0  0  0  0  0
   -2.9471   -0.1792   -0.3584 H   0  0  0  0  0  0  0  0  0  0  0  0
   -3.5636   -2.0904    1.1399 H   0  0  0  0  0  0  0  0  0  0  0  0
   -5.6215   -2.7040   -0.0978 H   0  0  0  0  0  0  0  0  0  0  0  0
   -4.4466   -1.9364   -1.1732 H   0  0  0  0  0  0  0  0  0  0  0  0
   -5.8495   -1.0184   -0.5968 H   0  0  0  0  0  0  0  0  0  0  0  0
   -5.9243   -0.3080    1.9481 H   0  0  0  0  0  0  0  0  0  0  0  0
   -5.7968   -2.0427    2.2848 H   0  0  0  0  0  0  0  0  0  0  0  0
   -4.6517   -0.9231    3.0192 H   0  0  0  0  0  0  0  0  0  0  0  0
  1  2  1  0
  2  3  1  0
  3  4  1  0
  4  5  2  0
  5  6  1  0
  6  7  2  0
  7  8  1  0
  7  9  1  0
  9 10  2  0
  2 11  2  0
 11 12  1  0
 12 13  2  0
 13 14  1  0
 14 15  1  0
 14 16  1  0
 16 17  2  0
 17 18  1  0
 18 19  2  3
 19 20  1  0
 20 21  1  0
 21 22  1  0
 22 23  1  0
 22 24  1  0
 18  1  1  0
 10  4  1  0
 16 11  1  0
  1 25  1  0
  3 26  1  0
  5 27  1  0
  6 28  1  0
  9 29  1  0
 10 30  1  0
 12 31  1  0
 15 32  1  0
 15 33  1  0
 15 34  1  0
 20 35  1  0
 20 36  1  0
 21 37  1  0
 21 38  1  0
 22 39  1  0
 23 40  1  0
 23 41  1  0
 23 42  1  0
 24 43  1  0
 24 44  1  0
 24 45  1  0
M  END
>  <ScrubInfo>  (2) 
{"isomerGroup": 0, "isomerId": 1, "confId": 0, "nr_conformers:": 1, "nr_isomers:": 9}

$$$$
_i2
     RDKit          3D

 45 47  0  0  0  0  0  0  0  0999 V2000
   -1.2734   -0.0786   -0.5140 N   0  0  0  0  0  0  0  0  0  0  0  0
    0.0583    0.2797   -0.4766 C   0  0  0  0  0  0  0  0  0  0  0  0
    0.8958   -0.7962   -0.6158 N   0  0  0  0  0  0  0  0  0  0  0  0
    2.3424   -0.6585   -0.5010 C   0  0  0  0  0  0  0  0  0  0  0  0
    2.7662   -0.6346    0.9695 C   0  0  0  0  0  0  0  0  0  0  0  0
    4.2700   -0.3715    1.1678 C   0  0  0  0  0  0  0  0  0  0  0  0
    5.1405   -1.4767    0.5684 C   0  0  0  0  0  0  0  0  0  0  0  0
    4.5787   -0.2227    2.6596 C   0  0  0  0  0  0  0  0  0  0  0  0
    0.4803    1.5113   -0.3367 N   0  0  0  0  0  0  0  0  0  0  0  0
   -0.5539    2.3891   -0.2139 C   0  0  0  0  0  0  0  0  0  0  0  0
   -1.9074    2.1192   -0.2406 C   0  0  0  0  0  0  0  0  0  0  0  0
   -2.5369    3.3599   -0.0744 C   0  0  0  0  0  0  0  0  0  0  0  0
   -1.6561    4.3613    0.0550 N   0  0  0  0  0  0  0  0  0  0  0  0
   -0.4527    3.7409   -0.0366 N   0  0  0  0  0  0  0  0  0  0  0  0
    0.7541    4.5226    0.0558 C   0  0  0  0  0  0  0  0  0  0  0  0
   -2.3612    0.7653   -0.4233 C   0  0  0  0  0  0  0  0  0  0  0  0
   -3.6308    0.5368   -0.4836 N   0  0  0  0  0  0  0  0  0  0  0  0
   -4.0498   -0.7852   -0.6652 C   0  0  0  0  0  0  0  0  0  0  0  0
   -4.2498   -1.2903   -1.9526 C   0  0  0  0  0  0  0  0  0  0  0  0
   -4.6632   -2.6119   -2.1384 C   0  0  0  0  0  0  0  0  0  0  0  0
   -4.8878   -3.4270   -1.0289 C   0  0  0  0  0  0  0  0  0  0  0  0
   -5.5019   -5.3934   -1.2993 I   0  0  0  0  0  0  0  0  0  0  0  0
   -4.7082   -2.9280    0.2612 C   0  0  0  0  0  0  0  0  0  0  0  0
   -4.2943   -1.6055    0.4392 C   0  0  0  0  0  0  0  0  0  0  0  0
   -1.4810   -1.0290   -0.7688 H   0  0  0  0  0  0  0  0  0  0  0  0
    0.5535   -1.6669   -0.2290 H   0  0  0  0  0  0  0  0  0  0  0  0
    2.7956   -1.5165   -1.0080 H   0  0  0  0  0  0  0  0  0  0  0  0
    2.6886    0.2396   -1.0254 H   0  0  0  0  0  0  0  0  0  0  0  0
    2.2006    0.1448    1.4962 H   0  0  0  0  0  0  0  0  0  0  0  0
    2.4868   -1.5847    1.4438 H   0  0  0  0  0  0  0  0  0  0  0  0
    4.5290    0.5746    0.6758 H   0  0  0  0  0  0  0  0  0  0  0  0
    4.8754   -2.4571    0.9784 H   0  0  0  0  0  0  0  0  0  0  0  0
    6.1994   -1.2962    0.7830 H   0  0  0  0  0  0  0  0  0  0  0  0
    5.0348   -1.5214   -0.5197 H   0  0  0  0  0  0  0  0  0  0  0  0
    5.6386    0.0036    2.8174 H   0  0  0  0  0  0  0  0  0  0  0  0
    3.9959    0.5942    3.0984 H   0  0  0  0  0  0  0  0  0  0  0  0
    4.3426   -1.1410    3.2081 H   0  0  0  0  0  0  0  0  0  0  0  0
   -3.5965    3.5779   -0.0421 H   0  0  0  0  0  0  0  0  0  0  0  0
    0.7548    5.0419    1.0175 H   0  0  0  0  0  0  0  0  0  0  0  0
    1.6294    3.8731   -0.0135 H   0  0  0  0  0  0  0  0  0  0  0  0
    0.7607    5.2423   -0.7667 H   0  0  0  0  0  0  0  0  0  0  0  0
   -4.0894   -0.6464   -2.8140 H   0  0  0  0  0  0  0  0  0  0  0  0
   -4.8141   -2.9839   -3.1486 H   0  0  0  0  0  0  0  0  0  0  0  0
   -4.8950   -3.5480    1.1343 H   0  0  0  0  0  0  0  0  0  0  0  0
   -4.1688   -1.2071    1.4431 H   0  0  0  0  0  0  0  0  0  0  0  0
  1  2  1  0
  2  3  1  0
  3  4  1  0
  4  5  1  0
  5  6  1  0
  6  7  1  0
  6  8  1  0
  2  9  2  0
  9 10  1  0
 10 11  2  0
 11 12  1  0
 12 13  2  0
 13 14  1  0
 14 15  1  0
 11 16  1  0
 16 17  2  3
 17 18  1  0
 18 19  2  0
 19 20  1  0
 20 21  2  0
 21 22  1  0
 21 23  1  0
 23 24  2  0
 16  1  1  0
 24 18  1  0
 14 10  1  0
  1 25  1  0
  3 26  1  0
  4 27  1  0
  4 28  1  0
  5 29  1  0
  5 30  1  0
  6 31  1  0
  7 32  1  0
  7 33  1  0
  7 34  1  0
  8 35  1  0
  8 36  1  0
  8 37  1  0
 12 38  1  0
 15 39  1  0
 15 40  1  0
 15 41  1  0
 19 42  1  0
 20 43  1  0
 23 44  1  0
 24 45  1  0
M  END
>  <ScrubInfo>  (3) 
{"isomerGroup": 0, "isomerId": 2, "confId": 0, "nr_conformers:": 1, "nr_isomers:": 9}

$$$$
_i3
     RDKit          3D

 45 47  0  0  0  0  0  0  0  0999 V2000
   -0.6620   -0.6093   -0.7060 N   0  0  0  0  0  0  0  0  0  0  0  0
   -0.6643    0.7768   -0.7421 C   0  0  0  0  0  0  0  0  0  0  0  0
   -1.6892    1.5420   -0.6182 N   0  0  0  0  0  0  0  0  0  0  0  0
   -3.0275    0.9899   -0.4467 C   0  0  0  0  0  0  0  0  0  0  0  0
   -3.2939    0.7302    1.0374 C   0  0  0  0  0  0  0  0  0  0  0  0
   -4.6634    0.1047    1.3601 C   0  0  0  0  0  0  0  0  0  0  0  0
   -5.8287    0.9891    0.9178 C   0  0  0  0  0  0  0  0  0  0  0  0
   -4.8075   -1.3022    0.7788 C   0  0  0  0  0  0  0  0  0  0  0  0
    0.5136    1.4901   -0.9194 N   0  0  0  0  0  0  0  0  0  0  0  0
    1.6450    0.8552   -1.0333 C   0  0  0  0  0  0  0  0  0  0  0  0
    2.8410    1.4979   -1.2310 N   0  0  0  0  0  0  0  0  0  0  0  0
    3.9443    1.4111   -0.3424 C   0  0  0  0  0  0  0  0  0  0  0  0
    3.8320    0.9597    0.9791 C   0  0  0  0  0  0  0  0  0  0  0  0
    4.9492    0.9279    1.8203 C   0  0  0  0  0  0  0  0  0  0  0  0
    6.1858    1.3626    1.3480 C   0  0  0  0  0  0  0  0  0  0  0  0
    7.8453    1.3157    2.5967 I   0  0  0  0  0  0  0  0  0  0  0  0
    6.3119    1.8349    0.0437 C   0  0  0  0  0  0  0  0  0  0  0  0
    5.1924    1.8646   -0.7928 C   0  0  0  0  0  0  0  0  0  0  0  0
    1.6851   -0.5878   -1.0237 C   0  0  0  0  0  0  0  0  0  0  0  0
    2.6421   -1.6035   -1.1658 C   0  0  0  0  0  0  0  0  0  0  0  0
    2.1014   -2.8289   -1.0689 N   0  0  0  0  0  0  0  0  0  0  0  0
    0.7812   -2.5875   -0.8767 N   0  0  0  0  0  0  0  0  0  0  0  0
   -0.1214   -3.7019   -0.7398 C   0  0  0  0  0  0  0  0  0  0  0  0
    0.5060   -1.2574   -0.8524 C   0  0  0  0  0  0  0  0  0  0  0  0
   -1.5450   -1.0725   -0.5589 H   0  0  0  0  0  0  0  0  0  0  0  0
   -3.7383    1.7323   -0.8255 H   0  0  0  0  0  0  0  0  0  0  0  0
   -3.1782    0.0946   -1.0579 H   0  0  0  0  0  0  0  0  0  0  0  0
   -2.5095    0.0788    1.4436 H   0  0  0  0  0  0  0  0  0  0  0  0
   -3.2009    1.6790    1.5825 H   0  0  0  0  0  0  0  0  0  0  0  0
   -4.7195    0.0122    2.4530 H   0  0  0  0  0  0  0  0  0  0  0  0
   -5.7234    2.0022    1.3195 H   0  0  0  0  0  0  0  0  0  0  0  0
   -5.8968    1.0576   -0.1726 H   0  0  0  0  0  0  0  0  0  0  0  0
   -6.7782    0.5828    1.2829 H   0  0  0  0  0  0  0  0  0  0  0  0
   -3.9664   -1.9362    1.0783 H   0  0  0  0  0  0  0  0  0  0  0  0
   -5.7266   -1.7743    1.1426 H   0  0  0  0  0  0  0  0  0  0  0  0
   -4.8542   -1.2896   -0.3146 H   0  0  0  0  0  0  0  0  0  0  0  0
    2.6504    2.4880   -1.3810 H   0  0  0  0  0  0  0  0  0  0  0  0
    2.8747    0.6363    1.3814 H   0  0  0  0  0  0  0  0  0  0  0  0
    4.8342    0.5674    2.8395 H   0  0  0  0  0  0  0  0  0  0  0  0
    7.2690    2.1823   -0.3368 H   0  0  0  0  0  0  0  0  0  0  0  0
    5.3030    2.2329   -1.8107 H   0  0  0  0  0  0  0  0  0  0  0  0
    3.7078   -1.5131   -1.3329 H   0  0  0  0  0  0  0  0  0  0  0  0
    0.2248   -4.3274    0.0870 H   0  0  0  0  0  0  0  0  0  0  0  0
   -0.1147   -4.2664   -1.6756 H   0  0  0  0  0  0  0  0  0  0  0  0
   -1.1305   -3.3408   -0.5307 H   0  0  0  0  0  0  0  0  0  0  0  0
  1  2  1  0
  2  3  2  3
  3  4  1  0
  4  5  1  0
  5  6  1  0
  6  7  1  0
  6  8  1  0
  2  9  1  0
  9 10  2  0
 10 11  1  0
 11 12  1  0
 12 13  2  0
 13 14  1  0
 14 15  2  0
 15 16  1  0
 15 17  1  0
 17 18  2  0
 10 19  1  0
 19 20  1  0
 20 21  2  0
 21 22  1  0
 22 23  1  0
 22 24  1  0
 24  1  1  0
 18 12  1  0
 24 19  2  0
  1 25  1  0
  4 26  1  0
  4 27  1  0
  5 28  1  0
  5 29  1  0
  6 30  1  0
  7 31  1  0
  7 32  1  0
  7 33  1  0
  8 34  1  0
  8 35  1  0
  8 36  1  0
 11 37  1  0
 13 38  1  0
 14 39  1  0
 17 40  1  0
 18 41  1  0
 20 42  1  0
 23 43  1  0
 23 44  1  0
 23 45  1  0
M  END
>  <ScrubInfo>  (4) 
{"isomerGroup": 0, "isomerId": 3, "confId": 0, "nr_conformers:": 1, "nr_isomers:": 9}

$$$$
_i4
     RDKit          3D

 45 47  0  0  0  0  0  0  0  0999 V2000
   -2.5831    4.6034   -0.3020 N   0  0  0  0  0  0  0  0  0  0  0  0
   -3.1189    3.3318   -0.1243 C   0  0  0  0  0  0  0  0  0  0  0  0
   -2.2046    2.3615   -0.2490 C   0  0  0  0  0  0  0  0  0  0  0  0
   -2.1589    0.9219   -0.1487 C   0  0  0  0  0  0  0  0  0  0  0  0
   -3.2176    0.2060    0.0724 N   0  0  0  0  0  0  0  0  0  0  0  0
   -3.0706   -1.1854    0.1588 C   0  0  0  0  0  0  0  0  0  0  0  0
   -3.3247   -1.9871   -0.9574 C   0  0  0  0  0  0  0  0  0  0  0  0
   -3.1968   -3.3764   -0.8777 C   0  0  0  0  0  0  0  0  0  0  0  0
   -2.8228   -3.9662    0.3297 C   0  0  0  0  0  0  0  0  0  0  0  0
   -2.6231   -6.0312    0.4521 I   0  0  0  0  0  0  0  0  0  0  0  0
   -2.5839   -3.1791    1.4558 C   0  0  0  0  0  0  0  0  0  0  0  0
   -2.7151   -1.7907    1.3680 C   0  0  0  0  0  0  0  0  0  0  0  0
   -0.9089    0.3875   -0.3027 N   0  0  0  0  0  0  0  0  0  0  0  0
    0.1403    1.1117   -0.5525 C   0  0  0  0  0  0  0  0  0  0  0  0
    1.3679    0.5289   -0.6816 N   0  0  0  0  0  0  0  0  0  0  0  0
    1.5289   -0.8793   -0.9780 C   0  0  0  0  0  0  0  0  0  0  0  0
    2.9949   -1.2950   -0.8355 C   0  0  0  0  0  0  0  0  0  0  0  0
    3.5826   -1.1312    0.5810 C   0  0  0  0  0  0  0  0  0  0  0  0
    5.0654   -1.5127    0.5714 C   0  0  0  0  0  0  0  0  0  0  0  0
    2.8406   -1.9692    1.6232 C   0  0  0  0  0  0  0  0  0  0  0  0
    0.1470    2.4734   -0.7186 N   0  0  0  0  0  0  0  0  0  0  0  0
   -0.9758    3.0905   -0.5858 C   0  0  0  0  0  0  0  0  0  0  0  0
   -1.2577    4.4530   -0.7076 N   0  0  0  0  0  0  0  0  0  0  0  0
   -0.2845    5.4511   -0.3073 C   0  0  0  0  0  0  0  0  0  0  0  0
   -3.1660    5.2084   -0.8849 H   0  0  0  0  0  0  0  0  0  0  0  0
   -4.1731    3.2168    0.0859 H   0  0  0  0  0  0  0  0  0  0  0  0
   -3.6182   -1.5218   -1.8939 H   0  0  0  0  0  0  0  0  0  0  0  0
   -3.3923   -3.9781   -1.7607 H   0  0  0  0  0  0  0  0  0  0  0  0
   -2.2966   -3.6250    2.4038 H   0  0  0  0  0  0  0  0  0  0  0  0
   -2.5302   -1.1721    2.2416 H   0  0  0  0  0  0  0  0  0  0  0  0
    2.0377    1.1534   -1.1126 H   0  0  0  0  0  0  0  0  0  0  0  0
    1.2065   -1.0656   -2.0092 H   0  0  0  0  0  0  0  0  0  0  0  0
    0.8984   -1.4954   -0.3282 H   0  0  0  0  0  0  0  0  0  0  0  0
    3.5980   -0.7066   -1.5396 H   0  0  0  0  0  0  0  0  0  0  0  0
    3.0879   -2.3432   -1.1476 H   0  0  0  0  0  0  0  0  0  0  0  0
    3.5148   -0.0774    0.8781 H   0  0  0  0  0  0  0  0  0  0  0  0
    5.5122   -1.3636    1.5601 H   0  0  0  0  0  0  0  0  0  0  0  0
    5.2043   -2.5626    0.2916 H   0  0  0  0  0  0  0  0  0  0  0  0
    5.6217   -0.8947   -0.1413 H   0  0  0  0  0  0  0  0  0  0  0  0
    3.3285   -1.8938    2.6010 H   0  0  0  0  0  0  0  0  0  0  0  0
    2.8166   -3.0266    1.3387 H   0  0  0  0  0  0  0  0  0  0  0  0
    1.8096   -1.6256    1.7505 H   0  0  0  0  0  0  0  0  0  0  0  0
   -0.0997    5.4045    0.7711 H   0  0  0  0  0  0  0  0  0  0  0  0
   -0.6446    6.4548   -0.5556 H   0  0  0  0  0  0  0  0  0  0  0  0
    0.6636    5.2969   -0.8324 H   0  0  0  0  0  0  0  0  0  0  0  0
  1  2  1  0
  2  3  2  0
  3  4  1  0
  4  5  2  3
  5  6  1  0
  6  7  2  0
  7  8  1  0
  8  9  2  0
  9 10  1  0
  9 11  1  0
 11 12  2  0
  4 13  1  0
 13 14  2  0
 14 15  1  0
 15 16  1  0
 16 17  1  0
 17 18  1  0
 18 19  1  0
 18 20  1  0
 14 21  1  0
 21 22  2  0
 22 23  1  0
 23 24  1  0
 23  1  1  0
 22  3  1  0
 12  6  1  0
  1 25  1  0
  2 26  1  0
  7 27  1  0
  8 28  1  0
 11 29  1  0
 12 30  1  0
 15 31  1  0
 16 32  1  0
 16 33  1  0
 17 34  1  0
 17 35  1  0
 18 36  1  0
 19 37  1  0
 19 38  1  0
 19 39  1  0
 20 40  1  0
 20 41  1  0
 20 42  1  0
 24 43  1  0
 24 44  1  0
 24 45  1  0
M  END
>  <ScrubInfo>  (5) 
{"isomerGroup": 0, "isomerId": 4, "confId": 0, "nr_conformers:": 1, "nr_isomers:": 9}

$$$$
_i5
     RDKit          3D

 45 47  0  0  0  0  0  0  0  0999 V2000
   -0.3961   -0.8890   -0.1386 N   0  0  0  0  0  0  0  0  0  0  0  0
   -0.5803    0.3961    0.3047 C   0  0  0  0  0  0  0  0  0  0  0  0
   -1.8793    0.7470    0.5370 N   0  0  0  0  0  0  0  0  0  0  0  0
   -2.7211   -0.0195    1.4465 C   0  0  0  0  0  0  0  0  0  0  0  0
   -4.1434    0.5460    1.4632 C   0  0  0  0  0  0  0  0  0  0  0  0
   -4.8781    0.5011    0.1080 C   0  0  0  0  0  0  0  0  0  0  0  0
   -6.2566    1.1529    0.2467 C   0  0  0  0  0  0  0  0  0  0  0  0
   -5.0316   -0.9229   -0.4278 C   0  0  0  0  0  0  0  0  0  0  0  0
    0.3610    1.2765    0.4886 N   0  0  0  0  0  0  0  0  0  0  0  0
    1.6867    0.9326    0.2486 C   0  0  0  0  0  0  0  0  0  0  0  0
    2.5646    1.8469    0.5149 N   0  0  0  0  0  0  0  0  0  0  0  0
    3.9318    1.6520    0.3328 C   0  0  0  0  0  0  0  0  0  0  0  0
    4.7165    1.1350    1.3678 C   0  0  0  0  0  0  0  0  0  0  0  0
    6.0936    0.9694    1.1982 C   0  0  0  0  0  0  0  0  0  0  0  0
    6.6898    1.3406   -0.0069 C   0  0  0  0  0  0  0  0  0  0  0  0
    8.7371    1.0957   -0.2646 I   0  0  0  0  0  0  0  0  0  0  0  0
    5.9214    1.8828   -1.0371 C   0  0  0  0  0  0  0  0  0  0  0  0
    4.5449    2.0452   -0.8603 C   0  0  0  0  0  0  0  0  0  0  0  0
    1.9277   -0.4041   -0.2718 C   0  0  0  0  0  0  0  0  0  0  0  0
    3.0219   -1.1709   -0.7120 C   0  0  0  0  0  0  0  0  0  0  0  0
    2.6664   -2.3968   -1.1298 N   0  0  0  0  0  0  0  0  0  0  0  0
    1.3258   -2.4185   -0.9571 N   0  0  0  0  0  0  0  0  0  0  0  0
    0.5932   -3.6077   -1.3097 C   0  0  0  0  0  0  0  0  0  0  0  0
    0.8612   -1.2510   -0.4430 C   0  0  0  0  0  0  0  0  0  0  0  0
   -1.2195   -1.3862   -0.4491 H   0  0  0  0  0  0  0  0  0  0  0  0
   -1.8846    1.7334    0.7970 H   0  0  0  0  0  0  0  0  0  0  0  0
   -2.7388   -1.0791    1.1731 H   0  0  0  0  0  0  0  0  0  0  0  0
   -2.3020    0.0432    2.4579 H   0  0  0  0  0  0  0  0  0  0  0  0
   -4.7259   -0.0078    2.2107 H   0  0  0  0  0  0  0  0  0  0  0  0
   -4.1040    1.5873    1.8097 H   0  0  0  0  0  0  0  0  0  0  0  0
   -4.3101    1.0839   -0.6276 H   0  0  0  0  0  0  0  0  0  0  0  0
   -6.1647    2.1882    0.5917 H   0  0  0  0  0  0  0  0  0  0  0  0
   -6.7785    1.1685   -0.7161 H   0  0  0  0  0  0  0  0  0  0  0  0
   -6.8830    0.6103    0.9630 H   0  0  0  0  0  0  0  0  0  0  0  0
   -5.6233   -0.9292   -1.3497 H   0  0  0  0  0  0  0  0  0  0  0  0
   -4.0598   -1.3660   -0.6658 H   0  0  0  0  0  0  0  0  0  0  0  0
   -5.5339   -1.5691    0.2999 H   0  0  0  0  0  0  0  0  0  0  0  0
    4.2499    0.8639    2.3113 H   0  0  0  0  0  0  0  0  0  0  0  0
    6.6830    0.5593    2.0139 H   0  0  0  0  0  0  0  0  0  0  0  0
    6.3755    2.1895   -1.9755 H   0  0  0  0  0  0  0  0  0  0  0  0
    3.9440    2.4832   -1.6532 H   0  0  0  0  0  0  0  0  0  0  0  0
    4.0694   -0.9073   -0.7610 H   0  0  0  0  0  0  0  0  0  0  0  0
    1.0642   -4.4641   -0.8204 H   0  0  0  0  0  0  0  0  0  0  0  0
    0.6278   -3.7214   -2.3960 H   0  0  0  0  0  0  0  0  0  0  0  0
   -0.4428   -3.5198   -0.9760 H   0  0  0  0  0  0  0  0  0  0  0  0
  1  2  1  0
  2  3  1  0
  3  4  1  0
  4  5  1  0
  5  6  1  0
  6  7  1  0
  6  8  1  0
  2  9  2  0
  9 10  1  0
 10 11  2  3
 11 12  1  0
 12 13  2  0
 13 14  1  0
 14 15  2  0
 15 16  1  0
 15 17  1  0
 17 18  2  0
 10 19  1  0
 19 20  1  0
 20 21  2  0
 21 22  1  0
 22 23  1  0
 22 24  1  0
 24  1  1  0
 18 12  1  0
 24 19  2  0
  1 25  1  0
  3 26  1  0
  4 27  1  0
  4 28  1  0
  5 29  1  0
  5 30  1  0
  6 31  1  0
  7 32  1  0
  7 33  1  0
  7 34  1  0
  8 35  1  0
  8 36  1  0
  8 37  1  0
 13 38  1  0
 14 39  1  0
 17 40  1  0
 18 41  1  0
 20 42  1  0
 23 43  1  0
 23 44  1  0
 23 45  1  0
M  END
>  <ScrubInfo>  (6) 
{"isomerGroup": 0, "isomerId": 5, "confId": 0, "nr_conformers:": 1, "nr_isomers:": 9}

$$$$
_i6
     RDKit          3D

 45 47  0  0  0  0  0  0  0  0999 V2000
   -2.6923    3.9163   -1.6855 N   0  0  0  0  0  0  0  0  0  0  0  0
   -3.0731    2.6027   -1.4333 C   0  0  0  0  0  0  0  0  0  0  0  0
   -2.0331    1.7966   -1.1756 C   0  0  0  0  0  0  0  0  0  0  0  0
   -1.7940    0.3929   -0.8212 C   0  0  0  0  0  0  0  0  0  0  0  0
   -2.8732   -0.4700   -0.7442 N   0  0  0  0  0  0  0  0  0  0  0  0
   -2.9344   -1.8116   -0.3206 C   0  0  0  0  0  0  0  0  0  0  0  0
   -4.1228   -2.5281   -0.5530 C   0  0  0  0  0  0  0  0  0  0  0  0
   -4.2520   -3.8721   -0.1842 C   0  0  0  0  0  0  0  0  0  0  0  0
   -3.1841   -4.5255    0.4214 C   0  0  0  0  0  0  0  0  0  0  0  0
   -3.3638   -6.5189    0.9725 I   0  0  0  0  0  0  0  0  0  0  0  0
   -1.9953   -3.8427    0.6559 C   0  0  0  0  0  0  0  0  0  0  0  0
   -1.8757   -2.4975    0.2825 C   0  0  0  0  0  0  0  0  0  0  0  0
   -0.5577    0.0418   -0.6099 N   0  0  0  0  0  0  0  0  0  0  0  0
    0.4544    0.9733   -0.7134 C   0  0  0  0  0  0  0  0  0  0  0  0
    1.6636    0.6314   -0.4395 N   0  0  0  0  0  0  0  0  0  0  0  0
    1.9088   -0.7457   -0.0260 C   0  0  0  0  0  0  0  0  0  0  0  0
    3.4070   -0.9332    0.2300 C   0  0  0  0  0  0  0  0  0  0  0  0
    3.9913   -0.0516    1.3522 C   0  0  0  0  0  0  0  0  0  0  0  0
    5.5025   -0.2769    1.4510 C   0  0  0  0  0  0  0  0  0  0  0  0
    3.3395   -0.3226    2.7087 C   0  0  0  0  0  0  0  0  0  0  0  0
    0.3272    2.2864   -1.0961 N   0  0  0  0  0  0  0  0  0  0  0  0
   -0.8686    2.6928   -1.3348 C   0  0  0  0  0  0  0  0  0  0  0  0
   -1.3039    3.9529   -1.7450 N   0  0  0  0  0  0  0  0  0  0  0  0
   -0.6036    5.1532   -1.3281 C   0  0  0  0  0  0  0  0  0  0  0  0
   -3.1840    4.3467   -2.4724 H   0  0  0  0  0  0  0  0  0  0  0  0
   -4.1239    2.3558   -1.4615 H   0  0  0  0  0  0  0  0  0  0  0  0
   -3.7767   -0.0910   -0.9937 H   0  0  0  0  0  0  0  0  0  0  0  0
   -4.9706   -2.0467   -1.0349 H   0  0  0  0  0  0  0  0  0  0  0  0
   -5.1868   -4.3906   -0.3806 H   0  0  0  0  0  0  0  0  0  0  0  0
   -1.1480   -4.3349    1.1267 H   0  0  0  0  0  0  0  0  0  0  0  0
   -0.9334   -2.0024    0.4929 H   0  0  0  0  0  0  0  0  0  0  0  0
    1.3410   -0.9987    0.8758 H   0  0  0  0  0  0  0  0  0  0  0  0
    1.6120   -1.4402   -0.8219 H   0  0  0  0  0  0  0  0  0  0  0  0
    3.9485   -0.7233   -0.7019 H   0  0  0  0  0  0  0  0  0  0  0  0
    3.5884   -1.9897    0.4656 H   0  0  0  0  0  0  0  0  0  0  0  0
    3.8306    1.0039    1.1001 H   0  0  0  0  0  0  0  0  0  0  0  0
    5.9437    0.3711    2.2158 H   0  0  0  0  0  0  0  0  0  0  0  0
    5.7337   -1.3153    1.7122 H   0  0  0  0  0  0  0  0  0  0  0  0
    5.9932   -0.0489    0.4989 H   0  0  0  0  0  0  0  0  0  0  0  0
    3.8278    0.2600    3.4975 H   0  0  0  0  0  0  0  0  0  0  0  0
    3.4098   -1.3816    2.9787 H   0  0  0  0  0  0  0  0  0  0  0  0
    2.2826   -0.0393    2.7066 H   0  0  0  0  0  0  0  0  0  0  0  0
   -0.6780    5.2902   -0.2443 H   0  0  0  0  0  0  0  0  0  0  0  0
   -1.0311    6.0330   -1.8201 H   0  0  0  0  0  0  0  0  0  0  0  0
    0.4544    5.0977   -1.6033 H   0  0  0  0  0  0  0  0  0  0  0  0
  1  2  1  0
  2  3  2  0
  3  4  1  0
  4  5  1  0
  5  6  1  0
  6  7  2  0
  7  8  1  0
  8  9  2  0
  9 10  1  0
  9 11  1  0
 11 12  2  0
  4 13  2  0
 13 14  1  0
 14 15  2  3
 15 16  1  0
 16 17  1  0
 17 18  1  0
 18 19  1  0
 18 20  1  0
 14 21  1  0
 21 22  2  0
 22 23  1  0
 23 24  1  0
 23  1  1  0
 22  3  1  0
 12  6  1  0
  1 25  1  0
  2 26  1  0
  5 27  1  0
  7 28  1  0
  8 29  1  0
 11 30  1  0
 12 31  1  0
 16 32  1  0
 16 33  1  0
 17 34  1  0
 17 35  1  0
 18 36  1  0
 19 37  1  0
 19 38  1  0
 19 39  1  0
 20 40  1  0
 20 41  1  0
 20 42  1  0
 24 43  1  0
 24 44  1  0
 24 45  1  0
M  END
>  <ScrubInfo>  (7) 
{"isomerGroup": 0, "isomerId": 6, "confId": 0, "nr_conformers:": 1, "nr_isomers:": 9}

$$$$
_i7
     RDKit          3D

 45 47  0  0  0  0  0  0  0  0999 V2000
   -2.2051    4.5813   -0.7491 N   0  0  0  0  0  0  0  0  0  0  0  0
   -2.8693    3.3885   -0.4852 C   0  0  0  0  0  0  0  0  0  0  0  0
   -2.0567    2.3255   -0.5052 C   0  0  0  0  0  0  0  0  0  0  0  0
   -2.1451    0.8828   -0.2795 C   0  0  0  0  0  0  0  0  0  0  0  0
   -3.2995    0.3471   -0.0114 N   0  0  0  0  0  0  0  0  0  0  0  0
   -3.3658   -1.0336    0.2060 C   0  0  0  0  0  0  0  0  0  0  0  0
   -3.5935   -1.9057   -0.8616 C   0  0  0  0  0  0  0  0  0  0  0  0
   -3.6486   -3.2855   -0.6492 C   0  0  0  0  0  0  0  0  0  0  0  0
   -3.4857   -3.7922    0.6401 C   0  0  0  0  0  0  0  0  0  0  0  0
   -3.5647   -5.8434    0.9612 I   0  0  0  0  0  0  0  0  0  0  0  0
   -3.2750   -2.9297    1.7158 C   0  0  0  0  0  0  0  0  0  0  0  0
   -3.2211   -1.5510    1.4959 C   0  0  0  0  0  0  0  0  0  0  0  0
   -0.9251    0.2583   -0.3837 N   0  0  0  0  0  0  0  0  0  0  0  0
    0.2804    0.8583   -0.6684 C   0  0  0  0  0  0  0  0  0  0  0  0
    1.4227    0.2708   -0.7299 N   0  0  0  0  0  0  0  0  0  0  0  0
    1.5146   -1.1600   -0.4764 C   0  0  0  0  0  0  0  0  0  0  0  0
    2.9792   -1.5956   -0.5674 C   0  0  0  0  0  0  0  0  0  0  0  0
    3.9202   -0.9323    0.4585 C   0  0  0  0  0  0  0  0  0  0  0  0
    5.3596   -1.3913    0.2101 C   0  0  0  0  0  0  0  0  0  0  0  0
    3.5222   -1.2405    1.9025 C   0  0  0  0  0  0  0  0  0  0  0  0
    0.3598    2.2125   -0.9288 N   0  0  0  0  0  0  0  0  0  0  0  0
   -0.7306    2.9089   -0.8699 C   0  0  0  0  0  0  0  0  0  0  0  0
   -0.8937    4.2761   -1.1085 N   0  0  0  0  0  0  0  0  0  0  0  0
    0.1642    5.2173   -0.7944 C   0  0  0  0  0  0  0  0  0  0  0  0
   -2.7140    5.1949   -1.3894 H   0  0  0  0  0  0  0  0  0  0  0  0
   -3.9331    3.3979   -0.2935 H   0  0  0  0  0  0  0  0  0  0  0  0
   -3.7327   -1.5059   -1.8630 H   0  0  0  0  0  0  0  0  0  0  0  0
   -3.8263   -3.9462   -1.4939 H   0  0  0  0  0  0  0  0  0  0  0  0
   -3.1596   -3.3111    2.7272 H   0  0  0  0  0  0  0  0  0  0  0  0
   -3.0701   -0.8744    2.3333 H   0  0  0  0  0  0  0  0  0  0  0  0
   -0.9100   -0.7349   -0.2261 H   0  0  0  0  0  0  0  0  0  0  0  0
    0.9458   -1.7115   -1.2350 H   0  0  0  0  0  0  0  0  0  0  0  0
    1.1044   -1.4186    0.5058 H   0  0  0  0  0  0  0  0  0  0  0  0
    3.3464   -1.3741   -1.5781 H   0  0  0  0  0  0  0  0  0  0  0  0
    3.0241   -2.6860   -0.4508 H   0  0  0  0  0  0  0  0  0  0  0  0
    3.8919    0.1556    0.3205 H   0  0  0  0  0  0  0  0  0  0  0  0
    6.0503   -0.8992    0.9031 H   0  0  0  0  0  0  0  0  0  0  0  0
    5.6773   -1.1427   -0.8081 H   0  0  0  0  0  0  0  0  0  0  0  0
    5.4605   -2.4739    0.3427 H   0  0  0  0  0  0  0  0  0  0  0  0
    4.2520   -0.8219    2.6041 H   0  0  0  0  0  0  0  0  0  0  0  0
    3.4668   -2.3202    2.0774 H   0  0  0  0  0  0  0  0  0  0  0  0
    2.5502   -0.8032    2.1498 H   0  0  0  0  0  0  0  0  0  0  0  0
    0.3466    5.2514    0.2847 H   0  0  0  0  0  0  0  0  0  0  0  0
   -0.1077    6.2223   -1.1331 H   0  0  0  0  0  0  0  0  0  0  0  0
    1.0940    4.9354   -1.2989 H   0  0  0  0  0  0  0  0  0  0  0  0
  1  2  1  0
  2  3  2  0
  3  4  1  0
  4  5  2  3
  5  6  1  0
  6  7  2  0
  7  8  1  0
  8  9  2  0
  9 10  1  0
  9 11  1  0
 11 12  2  0
  4 13  1  0
 13 14  1  0
 14 15  2  3
 15 16  1  0
 16 17  1  0
 17 18  1  0
 18 19  1  0
 18 20  1  0
 14 21  1  0
 21 22  2  0
 22 23  1  0
 23 24  1  0
 23  1  1  0
 22  3  1  0
 12  6  1  0
  1 25  1  0
  2 26  1  0
  7 27  1  0
  8 28  1  0
 11 29  1  0
 12 30  1  0
 13 31  1  0
 16 32  1  0
 16 33  1  0
 17 34  1  0
 17 35  1  0
 18 36  1  0
 19 37  1  0
 19 38  1  0
 19 39  1  0
 20 40  1  0
 20 41  1  0
 20 42  1  0
 24 43  1  0
 24 44  1  0
 24 45  1  0
M  END
>  <ScrubInfo>  (8) 
{"isomerGroup": 0, "isomerId": 7, "confId": 0, "nr_conformers:": 1, "nr_isomers:": 9}

$$$$
_i8
     RDKit          3D

 45 47  0  0  0  0  0  0  0  0999 V2000
   -0.2879    1.4432   -0.2628 N   0  0  0  0  0  0  0  0  0  0  0  0
   -0.8102    0.3663    0.4336 C   0  0  0  0  0  0  0  0  0  0  0  0
   -2.0382    0.1605    0.7700 N   0  0  0  0  0  0  0  0  0  0  0  0
   -3.0426    1.1478    0.3895 C   0  0  0  0  0  0  0  0  0  0  0  0
   -4.4239    0.6756    0.8515 C   0  0  0  0  0  0  0  0  0  0  0  0
   -5.1080   -0.3342   -0.0929 C   0  0  0  0  0  0  0  0  0  0  0  0
   -6.5284   -0.6202    0.4038 C   0  0  0  0  0  0  0  0  0  0  0  0
   -4.3399   -1.6484   -0.2317 C   0  0  0  0  0  0  0  0  0  0  0  0
    0.1384   -0.5680    0.7854 N   0  0  0  0  0  0  0  0  0  0  0  0
    1.4986   -0.6235    0.5718 C   0  0  0  0  0  0  0  0  0  0  0  0
    2.2056   -1.6248    1.0026 N   0  0  0  0  0  0  0  0  0  0  0  0
    3.5828   -1.7102    0.8011 C   0  0  0  0  0  0  0  0  0  0  0  0
    4.0912   -2.3628   -0.3256 C   0  0  0  0  0  0  0  0  0  0  0  0
    5.4708   -2.4808   -0.5137 C   0  0  0  0  0  0  0  0  0  0  0  0
    6.3443   -1.9580    0.4399 C   0  0  0  0  0  0  0  0  0  0  0  0
    8.3966   -2.1296    0.1645 I   0  0  0  0  0  0  0  0  0  0  0  0
    5.8482   -1.3271    1.5807 C   0  0  0  0  0  0  0  0  0  0  0  0
    4.4674   -1.2128    1.7621 C   0  0  0  0  0  0  0  0  0  0  0  0
    1.9533    0.5465   -0.1618 C   0  0  0  0  0  0  0  0  0  0  0  0
    3.1723    1.0509   -0.6522 C   0  0  0  0  0  0  0  0  0  0  0  0
    3.0347    2.2276   -1.2814 N   0  0  0  0  0  0  0  0  0  0  0  0
    1.7110    2.4821   -1.2035 N   0  0  0  0  0  0  0  0  0  0  0  0
    1.1919    3.6946   -1.7846 C   0  0  0  0  0  0  0  0  0  0  0  0
    1.0359    1.5060   -0.5366 C   0  0  0  0  0  0  0  0  0  0  0  0
   -0.9356    2.1673   -0.5411 H   0  0  0  0  0  0  0  0  0  0  0  0
   -3.0486    1.3184   -0.6933 H   0  0  0  0  0  0  0  0  0  0  0  0
   -2.8211    2.0988    0.8891 H   0  0  0  0  0  0  0  0  0  0  0  0
   -4.3592    0.2585    1.8647 H   0  0  0  0  0  0  0  0  0  0  0  0
   -5.0687    1.5618    0.9182 H   0  0  0  0  0  0  0  0  0  0  0  0
   -5.1890    0.1193   -1.0890 H   0  0  0  0  0  0  0  0  0  0  0  0
   -6.5164   -1.0835    1.3963 H   0  0  0  0  0  0  0  0  0  0  0  0
   -7.1128    0.3039    0.4673 H   0  0  0  0  0  0  0  0  0  0  0  0
   -7.0517   -1.2969   -0.2801 H   0  0  0  0  0  0  0  0  0  0  0  0
   -4.1370   -2.0964    0.7468 H   0  0  0  0  0  0  0  0  0  0  0  0
   -3.3876   -1.4993   -0.7488 H   0  0  0  0  0  0  0  0  0  0  0  0
   -4.9121   -2.3728   -0.8217 H   0  0  0  0  0  0  0  0  0  0  0  0
   -0.2346   -1.3575    1.2928 H   0  0  0  0  0  0  0  0  0  0  0  0
    3.4073   -2.7819   -1.0590 H   0  0  0  0  0  0  0  0  0  0  0  0
    5.8443   -2.9856   -1.4007 H   0  0  0  0  0  0  0  0  0  0  0  0
    6.5179   -0.9266    2.3372 H   0  0  0  0  0  0  0  0  0  0  0  0
    4.0769   -0.7350    2.6568 H   0  0  0  0  0  0  0  0  0  0  0  0
    4.1657    0.6292   -0.5869 H   0  0  0  0  0  0  0  0  0  0  0  0
    1.2458    4.4829   -1.0302 H   0  0  0  0  0  0  0  0  0  0  0  0
    0.1573    3.5343   -2.0965 H   0  0  0  0  0  0  0  0  0  0  0  0
    1.7953    3.9602   -2.6567 H   0  0  0  0  0  0  0  0  0  0  0  0
  1  2  1  0
  2  3  2  3
  3  4  1  0
  4  5  1  0
  5  6  1  0
  6  7  1  0
  6  8  1  0
  2  9  1  0
  9 10  1  0
 10 11  2  3
 11 12  1  0
 12 13  2  0
 13 14  1  0
 14 15  2  0
 15 16  1  0
 15 17  1  0
 17 18  2  0
 10 19  1  0
 19 20  1  0
 20 21  2  0
 21 22  1  0
 22 23  1  0
 22 24  1  0
 24  1  1  0
 18 12  1  0
 24 19  2  0
  1 25  1  0
  4 26  1  0
  4 27  1  0
  5 28  1  0
  5 29  1  0
  6 30  1  0
  7 31  1  0
  7 32  1  0
  7 33  1  0
  8 34  1  0
  8 35  1  0
  8 36  1  0
  9 37  1  0
 13 38  1  0
 14 39  1  0
 17 40  1  0
 18 41  1  0
 20 42  1  0
 23 43  1  0
 23 44  1  0
 23 45  1  0
M  END
>  <ScrubInfo>  (9) 
{"isomerGroup": 0, "isomerId": 8, "confId": 0, "nr_conformers:": 1, "nr_isomers:": 9}

$$$$
