REMARK SMILES CC(C)CCNc1nc(Nc2ccc(I)cc2)c2cnn(C)c2n1
REMARK SMILES IDX 6 1 5 3 4 4 2 5 1 6 3 7 7 8 8 9 24 10 9 11 23 12 18 13 21 14
REMARK SMILES IDX 19 15 20 16 22 17 10 18 11 20 12 21 17 22 13 23 16 24 14 25
REMARK SMILES IDX 15 26
REMARK H PARENT 6 2 10 19
ROOT
ATOM      1  N   UNL     1       1.351  -1.160   1.435  1.00  0.00    -0.354 N 
ATOM      2  H   UNL     1       2.230  -1.574   1.155  1.00  0.00     0.163 HD
ENDROOT
BRANCH   1   3
ATOM      3  C   UNL     1       1.408   0.167   2.026  1.00  0.00     0.116 C 
BRANCH   3   4
ATOM      4  C   UNL     1       2.015   1.223   1.093  1.00  0.00     0.024 C 
BRANCH   4   5
ATOM      5  C   UNL     1       3.549   1.368   1.184  1.00  0.00    -0.016 C 
ATOM      6  C   UNL     1       4.006   2.531   0.298  1.00  0.00     0.007 C 
ATOM      7  C   UNL     1       4.302   0.098   0.790  1.00  0.00     0.007 C 
ENDBRANCH   4   5
ENDBRANCH   3   4
ENDBRANCH   1   3
BRANCH   1   8
ATOM      8  C   UNL     1       0.453  -1.363   0.400  1.00  0.00     0.226 A 
ATOM      9  N   UNL     1      -0.685  -0.647   0.353  1.00  0.00    -0.195 NA
ATOM     10  N   UNL     1       0.832  -2.281  -0.497  1.00  0.00    -0.193 NA
ATOM     11  C   UNL     1      -1.582  -0.818  -0.653  1.00  0.00     0.147 A 
ATOM     12  C   UNL     1      -0.059  -2.439  -1.485  1.00  0.00     0.165 A 
ATOM     13  C   UNL     1      -1.254  -1.763  -1.633  1.00  0.00     0.082 A 
ATOM     14  N   UNL     1       0.026  -3.295  -2.549  1.00  0.00    -0.250 N 
ATOM     15  C   UNL     1      -1.806  -2.287  -2.821  1.00  0.00     0.149 A 
ATOM     16  N   UNL     1      -1.032  -3.218  -3.390  1.00  0.00    -0.179 NA
ATOM     17  C   UNL     1       1.092  -4.222  -2.834  1.00  0.00     0.176 C 
BRANCH  11  18
ATOM     18  N   UNL     1      -2.763  -0.063  -0.732  1.00  0.00    -0.339 N 
ATOM     19  H   UNL     1      -3.302  -0.235  -1.568  1.00  0.00     0.168 HD
BRANCH  18  20
ATOM     20  C   UNL     1      -3.367   0.837   0.163  1.00  0.00     0.040 A 
ATOM     21  C   UNL     1      -2.943   1.026   1.483  1.00  0.00     0.027 A 
ATOM     22  C   UNL     1      -4.428   1.633  -0.301  1.00  0.00     0.027 A 
ATOM     23  C   UNL     1      -3.563   1.963   2.320  1.00  0.00     0.017 A 
ATOM     24  C   UNL     1      -5.053   2.573   0.526  1.00  0.00     0.017 A 
ATOM     25  C   UNL     1      -4.617   2.733   1.838  1.00  0.00     0.013 A 
ATOM     26  I   UNL     1      -5.536   4.124   3.075  1.00  0.00    -0.044 I 
ENDBRANCH  18  20
ENDBRANCH  11  18
ENDBRANCH   1   8
TORSDOF 6
