REMARK SMILES CC(=O)c1cccc(Nc2nc(NC[C@@H]3CCCO3)c3ccccc3n2)c1
REMARK SMILES IDX 10 1 11 2 12 3 20 4 21 5 22 6 23 7 24 8 25 9 26 10 9 11 8 13
REMARK SMILES IDX 4 14 5 15 27 16 6 17 7 18 2 19 1 20 3 21 13 22 14 24 15 25
REMARK SMILES IDX 16 26 19 27 17 28 18 29
REMARK H PARENT 9 12 13 23
ROOT
ATOM      1  C   UNL     1       0.263   0.063   0.639  1.00  0.00     0.229 A 
ATOM      2  N   UNL     1      -0.952   0.404   1.079  1.00  0.00    -0.195 NA
ATOM      3  C   UNL     1      -1.828  -0.563   1.373  1.00  0.00     0.139 A 
ATOM      4  C   UNL     1      -1.496  -1.921   1.246  1.00  0.00     0.043 A 
ATOM      5  C   UNL     1      -2.368  -3.008   1.511  1.00  0.00     0.014 A 
ATOM      6  C   UNL     1      -1.935  -4.324   1.361  1.00  0.00     0.001 A 
ATOM      7  C   UNL     1      -0.634  -4.567   0.943  1.00  0.00     0.002 A 
ATOM      8  C   UNL     1       0.219  -3.494   0.671  1.00  0.00     0.029 A 
ATOM      9  C   UNL     1      -0.192  -2.174   0.811  1.00  0.00     0.078 A 
ATOM     10  N   UNL     1       0.671  -1.201   0.516  1.00  0.00    -0.213 NA
ENDROOT
BRANCH   1  11
ATOM     11  N   UNL     1       1.077   1.142   0.304  1.00  0.00    -0.324 N 
ATOM     12  H   UNL     1       0.517   1.982   0.380  1.00  0.00     0.170 HD
BRANCH  11  13
ATOM     13  C   UNL     1       2.348   1.261  -0.266  1.00  0.00     0.042 A 
ATOM     14  C   UNL     1       4.465   0.358  -1.100  1.00  0.00     0.019 A 
ATOM     15  C   UNL     1       4.921   1.653  -1.368  1.00  0.00     0.012 A 
ATOM     16  C   UNL     1       3.185   0.176  -0.548  1.00  0.00     0.038 A 
ATOM     17  C   UNL     1       4.108   2.747  -1.082  1.00  0.00     0.003 A 
ATOM     18  C   UNL     1       2.838   2.549  -0.534  1.00  0.00     0.026 A 
BRANCH  14  19
ATOM     19  C   UNL     1       5.301  -0.849  -1.381  1.00  0.00     0.159 C 
ATOM     20  C   UNL     1       6.686  -0.659  -1.944  1.00  0.00     0.093 C 
ATOM     21  O   UNL     1       4.863  -1.976  -1.157  1.00  0.00    -0.295 OA
ENDBRANCH  14  19
ENDBRANCH  11  13
ENDBRANCH   1  11
BRANCH   3  22
ATOM     22  N   UNL     1      -3.122  -0.205   1.812  1.00  0.00    -0.367 N 
ATOM     23  H   UNL     1      -3.267  -0.650   2.715  1.00  0.00     0.162 HD
BRANCH  22  24
ATOM     24  C   UNL     1      -3.430   1.233   1.879  1.00  0.00     0.146 C 
BRANCH  24  25
ATOM     25  C   UNL     1      -3.808   1.881   0.531  1.00  0.00     0.137 C 
ATOM     26  C   UNL     1      -4.654   1.030  -0.409  1.00  0.00     0.036 C 
ATOM     27  O   UNL     1      -2.660   2.329  -0.223  1.00  0.00    -0.376 OA
ATOM     28  C   UNL     1      -4.308   1.620  -1.754  1.00  0.00     0.031 C 
ATOM     29  C   UNL     1      -2.836   1.922  -1.586  1.00  0.00     0.160 C 
ENDBRANCH  24  25
ENDBRANCH  22  24
ENDBRANCH   3  22
TORSDOF 6
