_i0
     RDKit          3D

 49 52  0  0  0  0  0  0  0  0999 V2000
    6.6862   -0.6593   -1.9437 C   0  0  0  0  0  0  0  0  0  0  0  0
    5.3012   -0.8489   -1.3810 C   0  0  0  0  0  0  0  0  0  0  0  0
    4.8630   -1.9755   -1.1574 O   0  0  0  0  0  0  0  0  0  0  0  0
    4.4650    0.3585   -1.0996 C   0  0  0  0  0  0  0  0  0  0  0  0
    4.9214    1.6526   -1.3678 C   0  0  0  0  0  0  0  0  0  0  0  0
    4.1076    2.7465   -1.0824 C   0  0  0  0  0  0  0  0  0  0  0  0
    2.8385    2.5490   -0.5340 C   0  0  0  0  0  0  0  0  0  0  0  0
    2.3477    1.2613   -0.2655 C   0  0  0  0  0  0  0  0  0  0  0  0
    1.0766    1.1424    0.3041 N   0  0  0  0  0  0  0  0  0  0  0  0
    0.2631    0.0632    0.6395 C   0  0  0  0  0  0  0  0  0  0  0  0
   -0.9520    0.4043    1.0789 N   0  0  0  0  0  0  0  0  0  0  0  0
   -1.8283   -0.5633    1.3735 C   0  0  0  0  0  0  0  0  0  0  0  0
   -3.1224   -0.2048    1.8117 N   0  0  0  0  0  0  0  0  0  0  0  0
   -3.4298    1.2332    1.8795 C   0  0  0  0  0  0  0  0  0  0  0  0
   -3.8076    1.8806    0.5312 C   0  0  0  0  0  0  0  0  0  0  0  0
   -4.6540    1.0305   -0.4089 C   0  0  0  0  0  0  0  0  0  0  0  0
   -4.3083    1.6204   -1.7541 C   0  0  0  0  0  0  0  0  0  0  0  0
   -2.8357    1.9218   -1.5858 C   0  0  0  0  0  0  0  0  0  0  0  0
   -2.6603    2.3285   -0.2226 O   0  0  0  0  0  0  0  0  0  0  0  0
   -1.4957   -1.9206    1.2462 C   0  0  0  0  0  0  0  0  0  0  0  0
   -2.3679   -3.0083    1.5109 C   0  0  0  0  0  0  0  0  0  0  0  0
   -1.9347   -4.3238    1.3610 C   0  0  0  0  0  0  0  0  0  0  0  0
   -0.6337   -4.5673    0.9428 C   0  0  0  0  0  0  0  0  0  0  0  0
    0.2192   -3.4940    0.6710 C   0  0  0  0  0  0  0  0  0  0  0  0
   -0.1922   -2.1738    0.8113 C   0  0  0  0  0  0  0  0  0  0  0  0
    0.6713   -1.2009    0.5162 N   0  0  0  0  0  0  0  0  0  0  0  0
    3.1850    0.1756   -0.5478 C   0  0  0  0  0  0  0  0  0  0  0  0
    6.6341   -0.1839   -2.9265 H   0  0  0  0  0  0  0  0  0  0  0  0
    7.2988   -0.0711   -1.2555 H   0  0  0  0  0  0  0  0  0  0  0  0
    7.1615   -1.6378   -2.0653 H   0  0  0  0  0  0  0  0  0  0  0  0
    5.9024    1.8374   -1.7942 H   0  0  0  0  0  0  0  0  0  0  0  0
    4.4584    3.7557   -1.2837 H   0  0  0  0  0  0  0  0  0  0  0  0
    2.2252    3.4209   -0.3155 H   0  0  0  0  0  0  0  0  0  0  0  0
    0.5169    1.9816    0.3797 H   0  0  0  0  0  0  0  0  0  0  0  0
   -3.2665   -0.6502    2.7148 H   0  0  0  0  0  0  0  0  0  0  0  0
   -2.6234    1.7897    2.3727 H   0  0  0  0  0  0  0  0  0  0  0  0
   -4.3078    1.3191    2.5320 H   0  0  0  0  0  0  0  0  0  0  0  0
   -4.3592    2.8019    0.7612 H   0  0  0  0  0  0  0  0  0  0  0  0
   -4.3552   -0.0229   -0.3979 H   0  0  0  0  0  0  0  0  0  0  0  0
   -5.7213    1.0806   -0.1755 H   0  0  0  0  0  0  0  0  0  0  0  0
   -4.8682    2.5507   -1.9059 H   0  0  0  0  0  0  0  0  0  0  0  0
   -4.5147    0.9511   -2.5932 H   0  0  0  0  0  0  0  0  0  0  0  0
   -2.2244    1.0285   -1.7538 H   0  0  0  0  0  0  0  0  0  0  0  0
   -2.4885    2.7144   -2.2543 H   0  0  0  0  0  0  0  0  0  0  0  0
   -3.3935   -2.8249    1.8220 H   0  0  0  0  0  0  0  0  0  0  0  0
   -2.6098   -5.1508    1.5642 H   0  0  0  0  0  0  0  0  0  0  0  0
   -0.2772   -5.5865    0.8181 H   0  0  0  0  0  0  0  0  0  0  0  0
    1.2353   -3.6926    0.3338 H   0  0  0  0  0  0  0  0  0  0  0  0
    2.8537   -0.8388   -0.3411 H   0  0  0  0  0  0  0  0  0  0  0  0
  1  2  1  0
  2  3  2  0
  2  4  1  0
  4  5  2  0
  5  6  1  0
  6  7  2  0
  7  8  1  0
  8  9  1  0
  9 10  1  0
 10 11  2  0
 11 12  1  0
 12 13  1  0
 13 14  1  0
 14 15  1  0
 15 16  1  0
 16 17  1  0
 17 18  1  0
 18 19  1  0
 12 20  2  0
 20 21  1  0
 21 22  2  0
 22 23  1  0
 23 24  2  0
 24 25  1  0
 25 26  2  0
  8 27  2  0
 27  4  1  0
 26 10  1  0
 19 15  1  0
 25 20  1  0
  1 28  1  0
  1 29  1  0
  1 30  1  0
  5 31  1  0
  6 32  1  0
  7 33  1  0
  9 34  1  0
 13 35  1  0
 14 36  1  0
 14 37  1  0
 15 38  1  0
 16 39  1  0
 16 40  1  0
 17 41  1  0
 17 42  1  0
 18 43  1  0
 18 44  1  0
 21 45  1  0
 22 46  1  0
 23 47  1  0
 24 48  1  0
 27 49  1  0
M  END
>  <ScrubInfo>  (1) 
{"isomerGroup": 0, "isomerId": 0, "confId": 0, "nr_conformers:": 1, "nr_isomers:": 11}

$$$$
_i1
     RDKit          3D

 49 52  0  0  0  0  0  0  0  0999 V2000
   -0.0370    0.4838    0.8227 N   0  0  0  0  0  0  0  0  0  0  0  0
   -1.1587   -0.2919    0.9863 C   0  0  0  0  0  0  0  0  0  0  0  0
   -2.3718    0.3074    1.3052 N   0  0  0  0  0  0  0  0  0  0  0  0
   -2.7333    1.6903    0.9967 C   0  0  0  0  0  0  0  0  0  0  0  0
   -4.1861    1.9502    1.4404 C   0  0  0  0  0  0  0  0  0  0  0  0
   -4.6645    3.3534    1.0985 C   0  0  0  0  0  0  0  0  0  0  0  0
   -5.3130    3.1662   -0.2505 C   0  0  0  0  0  0  0  0  0  0  0  0
   -5.9310    1.7935   -0.1128 C   0  0  0  0  0  0  0  0  0  0  0  0
   -5.0588    1.0344    0.7357 O   0  0  0  0  0  0  0  0  0  0  0  0
   -1.0179   -1.6339    0.8358 C   0  0  0  0  0  0  0  0  0  0  0  0
   -2.0515   -2.6435    0.9905 C   0  0  0  0  0  0  0  0  0  0  0  0
   -1.7894   -3.9414    0.7813 C   0  0  0  0  0  0  0  0  0  0  0  0
   -0.4749   -4.3908    0.3953 C   0  0  0  0  0  0  0  0  0  0  0  0
    0.5529   -3.5454    0.2468 C   0  0  0  0  0  0  0  0  0  0  0  0
    0.3812   -2.0810    0.4691 C   0  0  0  0  0  0  0  0  0  0  0  0
    1.4213   -1.3173    0.3317 N   0  0  0  0  0  0  0  0  0  0  0  0
    1.2149    0.0178    0.5580 C   0  0  0  0  0  0  0  0  0  0  0  0
    2.2055    0.8638    0.5268 N   0  0  0  0  0  0  0  0  0  0  0  0
    3.4988    0.3905    0.2635 C   0  0  0  0  0  0  0  0  0  0  0  0
    4.3949    0.1940    1.3171 C   0  0  0  0  0  0  0  0  0  0  0  0
    5.6946   -0.2455    1.0680 C   0  0  0  0  0  0  0  0  0  0  0  0
    6.1062   -0.4828   -0.2436 C   0  0  0  0  0  0  0  0  0  0  0  0
    5.2215   -0.2771   -1.3114 C   0  0  0  0  0  0  0  0  0  0  0  0
    5.7044   -0.5432   -2.6981 C   0  0  0  0  0  0  0  0  0  0  0  0
    4.7486   -0.3713   -3.8498 C   0  0  0  0  0  0  0  0  0  0  0  0
    6.8672   -0.8966   -2.8868 O   0  0  0  0  0  0  0  0  0  0  0  0
    3.9212    0.1695   -1.0517 C   0  0  0  0  0  0  0  0  0  0  0  0
   -0.0972    1.4535    1.0803 H   0  0  0  0  0  0  0  0  0  0  0  0
   -3.1757   -0.3032    1.1565 H   0  0  0  0  0  0  0  0  0  0  0  0
   -2.6346    1.8439   -0.0841 H   0  0  0  0  0  0  0  0  0  0  0  0
   -2.0617    2.3834    1.5146 H   0  0  0  0  0  0  0  0  0  0  0  0
   -4.2835    1.7529    2.5141 H   0  0  0  0  0  0  0  0  0  0  0  0
   -3.8709    4.1059    1.1016 H   0  0  0  0  0  0  0  0  0  0  0  0
   -5.4255    3.6665    1.8239 H   0  0  0  0  0  0  0  0  0  0  0  0
   -4.5474    3.1572   -1.0348 H   0  0  0  0  0  0  0  0  0  0  0  0
   -6.0448    3.9403   -0.4960 H   0  0  0  0  0  0  0  0  0  0  0  0
   -6.9103    1.8464    0.3749 H   0  0  0  0  0  0  0  0  0  0  0  0
   -6.0456    1.2842   -1.0736 H   0  0  0  0  0  0  0  0  0  0  0  0
   -3.0495   -2.3482    1.2926 H   0  0  0  0  0  0  0  0  0  0  0  0
   -2.5662   -4.6908    0.9050 H   0  0  0  0  0  0  0  0  0  0  0  0
   -0.3343   -5.4555    0.2327 H   0  0  0  0  0  0  0  0  0  0  0  0
    1.5432   -3.8838   -0.0341 H   0  0  0  0  0  0  0  0  0  0  0  0
    4.0704    0.3821    2.3368 H   0  0  0  0  0  0  0  0  0  0  0  0
    6.3839   -0.4027    1.8931 H   0  0  0  0  0  0  0  0  0  0  0  0
    7.1215   -0.8280   -0.4304 H   0  0  0  0  0  0  0  0  0  0  0  0
    3.8860   -1.0320   -3.7300 H   0  0  0  0  0  0  0  0  0  0  0  0
    5.2552   -0.6448   -4.7807 H   0  0  0  0  0  0  0  0  0  0  0  0
    4.4344    0.6727   -3.9282 H   0  0  0  0  0  0  0  0  0  0  0  0
    3.2071    0.3467   -1.8487 H   0  0  0  0  0  0  0  0  0  0  0  0
  1  2  1  0
  2  3  1  0
  3  4  1  0
  4  5  1  0
  5  6  1  0
  6  7  1  0
  7  8  1  0
  8  9  1  0
  2 10  2  0
 10 11  1  0
 11 12  2  0
 12 13  1  0
 13 14  2  0
 14 15  1  0
 15 16  2  0
 16 17  1  0
 17 18  2  3
 18 19  1  0
 19 20  2  0
 20 21  1  0
 21 22  2  0
 22 23  1  0
 23 24  1  0
 24 25  1  0
 24 26  2  0
 23 27  2  0
 17  1  1  0
 27 19  1  0
  9  5  1  0
 15 10  1  0
  1 28  1  0
  3 29  1  0
  4 30  1  0
  4 31  1  0
  5 32  1  0
  6 33  1  0
  6 34  1  0
  7 35  1  0
  7 36  1  0
  8 37  1  0
  8 38  1  0
 11 39  1  0
 12 40  1  0
 13 41  1  0
 14 42  1  0
 20 43  1  0
 21 44  1  0
 22 45  1  0
 25 46  1  0
 25 47  1  0
 25 48  1  0
 27 49  1  0
M  END
>  <ScrubInfo>  (2) 
{"isomerGroup": 0, "isomerId": 1, "confId": 0, "nr_conformers:": 1, "nr_isomers:": 11}

$$$$
_i2
     RDKit          3D

 49 52  0  0  0  0  0  0  0  0999 V2000
   -0.1160    0.6258   -0.5732 N   0  0  0  0  0  0  0  0  0  0  0  0
    0.9897   -0.1721   -0.4816 C   0  0  0  0  0  0  0  0  0  0  0  0
    2.1084    0.5303   -0.1072 N   0  0  0  0  0  0  0  0  0  0  0  0
    3.4014    0.0421    0.1695 C   0  0  0  0  0  0  0  0  0  0  0  0
    3.6804   -1.2947    0.4696 C   0  0  0  0  0  0  0  0  0  0  0  0
    4.9812   -1.7171    0.7626 C   0  0  0  0  0  0  0  0  0  0  0  0
    6.0332   -0.8032    0.7727 C   0  0  0  0  0  0  0  0  0  0  0  0
    5.7815    0.5418    0.4951 C   0  0  0  0  0  0  0  0  0  0  0  0
    6.8620    1.5721    0.4990 C   0  0  0  0  0  0  0  0  0  0  0  0
    8.2752    1.1486    0.8032 C   0  0  0  0  0  0  0  0  0  0  0  0
    6.5882    2.7461    0.2560 O   0  0  0  0  0  0  0  0  0  0  0  0
    4.4704    0.9534    0.2028 C   0  0  0  0  0  0  0  0  0  0  0  0
    0.9272   -1.4454   -0.7363 N   0  0  0  0  0  0  0  0  0  0  0  0
   -0.3151   -1.9735   -1.1579 C   0  0  0  0  0  0  0  0  0  0  0  0
   -0.3274   -3.3217   -1.5356 C   0  0  0  0  0  0  0  0  0  0  0  0
   -1.4884   -3.9182   -2.0236 C   0  0  0  0  0  0  0  0  0  0  0  0
   -2.6490   -3.1624   -2.1540 C   0  0  0  0  0  0  0  0  0  0  0  0
   -2.6583   -1.8152   -1.7788 C   0  0  0  0  0  0  0  0  0  0  0  0
   -1.5081   -1.2182   -1.2518 C   0  0  0  0  0  0  0  0  0  0  0  0
   -1.3994    0.2083   -0.8126 C   0  0  0  0  0  0  0  0  0  0  0  0
   -2.3133    1.0938   -0.5921 N   0  0  0  0  0  0  0  0  0  0  0  0
   -3.7485    0.8628   -0.6292 C   0  0  0  0  0  0  0  0  0  0  0  0
   -4.4629    2.0315    0.0830 C   0  0  0  0  0  0  0  0  0  0  0  0
   -5.9652    2.0333   -0.1713 C   0  0  0  0  0  0  0  0  0  0  0  0
   -6.4960    1.1938    0.9632 C   0  0  0  0  0  0  0  0  0  0  0  0
   -5.5777    1.5887    2.0969 C   0  0  0  0  0  0  0  0  0  0  0  0
   -4.3056    1.8938    1.5132 O   0  0  0  0  0  0  0  0  0  0  0  0
   -0.0867    1.5336   -0.1338 H   0  0  0  0  0  0  0  0  0  0  0  0
    2.0958    1.5143   -0.3374 H   0  0  0  0  0  0  0  0  0  0  0  0
    2.8874   -2.0376    0.4931 H   0  0  0  0  0  0  0  0  0  0  0  0
    5.1653   -2.7653    0.9871 H   0  0  0  0  0  0  0  0  0  0  0  0
    7.0298   -1.1657    1.0046 H   0  0  0  0  0  0  0  0  0  0  0  0
    8.6226    0.4257    0.0605 H   0  0  0  0  0  0  0  0  0  0  0  0
    8.9305    2.0240    0.7556 H   0  0  0  0  0  0  0  0  0  0  0  0
    8.3374    0.7335    1.8124 H   0  0  0  0  0  0  0  0  0  0  0  0
    4.2879    2.0062   -0.0072 H   0  0  0  0  0  0  0  0  0  0  0  0
    0.5884   -3.9027   -1.4580 H   0  0  0  0  0  0  0  0  0  0  0  0
   -1.4792   -4.9646   -2.3172 H   0  0  0  0  0  0  0  0  0  0  0  0
   -3.5499   -3.6192   -2.5576 H   0  0  0  0  0  0  0  0  0  0  0  0
   -3.5735   -1.2628   -1.9362 H   0  0  0  0  0  0  0  0  0  0  0  0
   -4.0020   -0.0706   -0.1160 H   0  0  0  0  0  0  0  0  0  0  0  0
   -4.0787    0.8328   -1.6725 H   0  0  0  0  0  0  0  0  0  0  0  0
   -4.0175    2.9849   -0.2235 H   0  0  0  0  0  0  0  0  0  0  0  0
   -6.3503    3.0559   -0.0728 H   0  0  0  0  0  0  0  0  0  0  0  0
   -6.2513    1.6630   -1.1596 H   0  0  0  0  0  0  0  0  0  0  0  0
   -7.5507    1.3745    1.1868 H   0  0  0  0  0  0  0  0  0  0  0  0
   -6.3730    0.1297    0.7311 H   0  0  0  0  0  0  0  0  0  0  0  0
   -5.4621    0.7952    2.8404 H   0  0  0  0  0  0  0  0  0  0  0  0
   -5.9384    2.4908    2.6026 H   0  0  0  0  0  0  0  0  0  0  0  0
  1  2  1  0
  2  3  1  0
  3  4  1  0
  4  5  2  0
  5  6  1  0
  6  7  2  0
  7  8  1  0
  8  9  1  0
  9 10  1  0
  9 11  2  0
  8 12  2  0
  2 13  2  0
 13 14  1  0
 14 15  2  0
 15 16  1  0
 16 17  2  0
 17 18  1  0
 18 19  2  0
 19 20  1  0
 20 21  2  3
 21 22  1  0
 22 23  1  0
 23 24  1  0
 24 25  1  0
 25 26  1  0
 26 27  1  0
 20  1  1  0
 27 23  1  0
 12  4  1  0
 19 14  1  0
  1 28  1  0
  3 29  1  0
  5 30  1  0
  6 31  1  0
  7 32  1  0
 10 33  1  0
 10 34  1  0
 10 35  1  0
 12 36  1  0
 15 37  1  0
 16 38  1  0
 17 39  1  0
 18 40  1  0
 22 41  1  0
 22 42  1  0
 23 43  1  0
 24 44  1  0
 24 45  1  0
 25 46  1  0
 25 47  1  0
 26 48  1  0
 26 49  1  0
M  END
>  <ScrubInfo>  (3) 
{"isomerGroup": 0, "isomerId": 2, "confId": 0, "nr_conformers:": 1, "nr_isomers:": 11}

$$$$
_i3
     RDKit          3D

 49 52  0  0  0  0  0  0  0  0999 V2000
    0.9899   -1.4805   -0.4367 N   0  0  0  0  0  0  0  0  0  0  0  0
    0.4320   -0.2947   -0.8402 C   0  0  0  0  0  0  0  0  0  0  0  0
    1.0872    0.7683   -1.1974 N   0  0  0  0  0  0  0  0  0  0  0  0
    2.4847    0.7674   -1.1950 C   0  0  0  0  0  0  0  0  0  0  0  0
    3.1783    0.5880   -2.3935 C   0  0  0  0  0  0  0  0  0  0  0  0
    4.5733    0.6042   -2.4158 C   0  0  0  0  0  0  0  0  0  0  0  0
    5.2870    0.8115   -1.2342 C   0  0  0  0  0  0  0  0  0  0  0  0
    4.6009    1.0102   -0.0301 C   0  0  0  0  0  0  0  0  0  0  0  0
    5.3186    1.2234    1.2567 C   0  0  0  0  0  0  0  0  0  0  0  0
    6.7521    1.6839    1.2224 C   0  0  0  0  0  0  0  0  0  0  0  0
    4.7417    1.0011    2.3188 O   0  0  0  0  0  0  0  0  0  0  0  0
    3.2003    0.9901   -0.0163 C   0  0  0  0  0  0  0  0  0  0  0  0
   -0.9292   -0.1357   -0.9080 N   0  0  0  0  0  0  0  0  0  0  0  0
   -1.7230   -1.0597   -0.4490 C   0  0  0  0  0  0  0  0  0  0  0  0
   -3.0958   -0.9005   -0.5494 N   0  0  0  0  0  0  0  0  0  0  0  0
   -3.7027    0.2002   -1.2956 C   0  0  0  0  0  0  0  0  0  0  0  0
   -3.5077    1.5845   -0.6509 C   0  0  0  0  0  0  0  0  0  0  0  0
   -3.9263    1.6622    0.8146 C   0  0  0  0  0  0  0  0  0  0  0  0
   -5.3571    2.1299    0.7350 C   0  0  0  0  0  0  0  0  0  0  0  0
   -5.3017    3.0796   -0.4375 C   0  0  0  0  0  0  0  0  0  0  0  0
   -4.3545    2.5275   -1.3593 O   0  0  0  0  0  0  0  0  0  0  0  0
   -1.1862   -2.3061    0.1879 C   0  0  0  0  0  0  0  0  0  0  0  0
   -1.9984   -3.2690    0.7973 C   0  0  0  0  0  0  0  0  0  0  0  0
   -1.4188   -4.4128    1.3493 C   0  0  0  0  0  0  0  0  0  0  0  0
   -0.0371   -4.5922    1.2941 C   0  0  0  0  0  0  0  0  0  0  0  0
    0.7727   -3.6206    0.7024 C   0  0  0  0  0  0  0  0  0  0  0  0
    0.2044   -2.4606    0.1680 C   0  0  0  0  0  0  0  0  0  0  0  0
    1.9831   -1.4993   -0.2741 H   0  0  0  0  0  0  0  0  0  0  0  0
    2.6192    0.4416   -3.3150 H   0  0  0  0  0  0  0  0  0  0  0  0
    5.0998    0.4602   -3.3562 H   0  0  0  0  0  0  0  0  0  0  0  0
    6.3725    0.8088   -1.2761 H   0  0  0  0  0  0  0  0  0  0  0  0
    7.0115    2.1168    2.1935 H   0  0  0  0  0  0  0  0  0  0  0  0
    6.8913    2.4640    0.4691 H   0  0  0  0  0  0  0  0  0  0  0  0
    7.4110    0.8350    1.0240 H   0  0  0  0  0  0  0  0  0  0  0  0
    2.6566    1.1582    0.9115 H   0  0  0  0  0  0  0  0  0  0  0  0
   -3.6234   -1.7596   -0.6450 H   0  0  0  0  0  0  0  0  0  0  0  0
   -4.7774   -0.0030   -1.3847 H   0  0  0  0  0  0  0  0  0  0  0  0
   -3.3289    0.2120   -2.3272 H   0  0  0  0  0  0  0  0  0  0  0  0
   -2.4716    1.9167   -0.7673 H   0  0  0  0  0  0  0  0  0  0  0  0
   -3.8057    0.7327    1.3765 H   0  0  0  0  0  0  0  0  0  0  0  0
   -3.3262    2.4294    1.3203 H   0  0  0  0  0  0  0  0  0  0  0  0
   -5.7149    2.6049    1.6521 H   0  0  0  0  0  0  0  0  0  0  0  0
   -6.0137    1.2829    0.5050 H   0  0  0  0  0  0  0  0  0  0  0  0
   -6.2704    3.1982   -0.9305 H   0  0  0  0  0  0  0  0  0  0  0  0
   -4.9398    4.0677   -0.1333 H   0  0  0  0  0  0  0  0  0  0  0  0
   -3.0731   -3.1421    0.8672 H   0  0  0  0  0  0  0  0  0  0  0  0
   -2.0448   -5.1646    1.8246 H   0  0  0  0  0  0  0  0  0  0  0  0
    0.4119   -5.4868    1.7195 H   0  0  0  0  0  0  0  0  0  0  0  0
    1.8484   -3.7732    0.6720 H   0  0  0  0  0  0  0  0  0  0  0  0
  1  2  1  0
  2  3  2  3
  3  4  1  0
  4  5  2  0
  5  6  1  0
  6  7  2  0
  7  8  1  0
  8  9  1  0
  9 10  1  0
  9 11  2  0
  8 12  2  0
  2 13  1  0
 13 14  2  0
 14 15  1  0
 15 16  1  0
 16 17  1  0
 17 18  1  0
 18 19  1  0
 19 20  1  0
 20 21  1  0
 14 22  1  0
 22 23  2  0
 23 24  1  0
 24 25  2  0
 25 26  1  0
 26 27  2  0
 27  1  1  0
 12  4  1  0
 21 17  1  0
 27 22  1  0
  1 28  1  0
  5 29  1  0
  6 30  1  0
  7 31  1  0
 10 32  1  0
 10 33  1  0
 10 34  1  0
 12 35  1  0
 15 36  1  0
 16 37  1  0
 16 38  1  0
 17 39  1  0
 18 40  1  0
 18 41  1  0
 19 42  1  0
 19 43  1  0
 20 44  1  0
 20 45  1  0
 23 46  1  0
 24 47  1  0
 25 48  1  0
 26 49  1  0
M  END
>  <ScrubInfo>  (4) 
{"isomerGroup": 0, "isomerId": 3, "confId": 0, "nr_conformers:": 1, "nr_isomers:": 11}

$$$$
_i4
     RDKit          3D

 49 52  0  0  0  0  0  0  0  0999 V2000
    3.6682    1.1339    0.0714 O   0  0  0  0  0  0  0  0  0  0  0  0
    3.8591    0.7976    1.3962 C   0  0  0  0  0  0  0  0  0  0  0  0
    4.5445    1.5988    2.2225 C   0  0  0  0  0  0  0  0  0  0  0  0
    3.2297   -0.4721    1.8210 C   0  0  0  0  0  0  0  0  0  0  0  0
    3.8023   -1.2862    2.8063 C   0  0  0  0  0  0  0  0  0  0  0  0
    3.1874   -2.4781    3.1868 C   0  0  0  0  0  0  0  0  0  0  0  0
    1.9924   -2.8707    2.5822 C   0  0  0  0  0  0  0  0  0  0  0  0
    1.3899   -2.0900    1.5850 C   0  0  0  0  0  0  0  0  0  0  0  0
    0.1981   -2.5451    1.0100 N   0  0  0  0  0  0  0  0  0  0  0  0
   -0.6380   -2.0728    0.0007 C   0  0  0  0  0  0  0  0  0  0  0  0
   -0.3376   -0.9889   -0.7201 N   0  0  0  0  0  0  0  0  0  0  0  0
   -1.1941   -0.5860   -1.6726 C   0  0  0  0  0  0  0  0  0  0  0  0
   -0.8726    0.5456   -2.4422 N   0  0  0  0  0  0  0  0  0  0  0  0
    0.3523    1.2801   -2.1042 C   0  0  0  0  0  0  0  0  0  0  0  0
    0.0803    2.4828   -1.1876 C   0  0  0  0  0  0  0  0  0  0  0  0
   -0.2671    2.1836    0.2607 C   0  0  0  0  0  0  0  0  0  0  0  0
   -0.9689    3.4569    0.6650 C   0  0  0  0  0  0  0  0  0  0  0  0
   -1.7621    3.7853   -0.5819 C   0  0  0  0  0  0  0  0  0  0  0  0
   -1.0216    3.2723   -1.7009 O   0  0  0  0  0  0  0  0  0  0  0  0
   -2.3747   -1.2930   -1.9464 C   0  0  0  0  0  0  0  0  0  0  0  0
   -3.3114   -0.9642   -2.9610 C   0  0  0  0  0  0  0  0  0  0  0  0
   -4.4615   -1.7272   -3.1477 C   0  0  0  0  0  0  0  0  0  0  0  0
   -4.6874   -2.8253   -2.3303 C   0  0  0  0  0  0  0  0  0  0  0  0
   -3.7580   -3.1536   -1.3393 C   0  0  0  0  0  0  0  0  0  0  0  0
   -2.6019   -2.4081   -1.1360 C   0  0  0  0  0  0  0  0  0  0  0  0
   -1.7546   -2.7906   -0.1769 N   0  0  0  0  0  0  0  0  0  0  0  0
    2.0356   -0.9041    1.2134 C   0  0  0  0  0  0  0  0  0  0  0  0
    4.1888    1.9314   -0.1177 H   0  0  0  0  0  0  0  0  0  0  0  0
    4.9829    2.5304    1.8833 H   0  0  0  0  0  0  0  0  0  0  0  0
    4.6728    1.3642    3.2742 H   0  0  0  0  0  0  0  0  0  0  0  0
    4.7416   -1.0114    3.2786 H   0  0  0  0  0  0  0  0  0  0  0  0
    3.6413   -3.1046    3.9498 H   0  0  0  0  0  0  0  0  0  0  0  0
    1.5349   -3.8061    2.8954 H   0  0  0  0  0  0  0  0  0  0  0  0
   -0.2141   -3.3764    1.4062 H   0  0  0  0  0  0  0  0  0  0  0  0
   -1.6589    1.1939   -2.4697 H   0  0  0  0  0  0  0  0  0  0  0  0
    0.7215    1.6796   -3.0571 H   0  0  0  0  0  0  0  0  0  0  0  0
    1.1557    0.6447   -1.7180 H   0  0  0  0  0  0  0  0  0  0  0  0
    0.9646    3.1336   -1.2101 H   0  0  0  0  0  0  0  0  0  0  0  0
    0.6113    1.9661    0.8731 H   0  0  0  0  0  0  0  0  0  0  0  0
   -0.9718    1.3528    0.3530 H   0  0  0  0  0  0  0  0  0  0  0  0
   -0.2307    4.2442    0.8588 H   0  0  0  0  0  0  0  0  0  0  0  0
   -1.5964    3.3506    1.5537 H   0  0  0  0  0  0  0  0  0  0  0  0
   -2.7370    3.2865   -0.5739 H   0  0  0  0  0  0  0  0  0  0  0  0
   -1.9208    4.8600   -0.7072 H   0  0  0  0  0  0  0  0  0  0  0  0
   -3.1321   -0.1157   -3.6176 H   0  0  0  0  0  0  0  0  0  0  0  0
   -5.1702   -1.4676   -3.9297 H   0  0  0  0  0  0  0  0  0  0  0  0
   -5.5782   -3.4339   -2.4626 H   0  0  0  0  0  0  0  0  0  0  0  0
   -3.9400   -4.0217   -0.7092 H   0  0  0  0  0  0  0  0  0  0  0  0
    1.6066   -0.2819    0.4364 H   0  0  0  0  0  0  0  0  0  0  0  0
  1  2  1  0
  2  3  2  0
  2  4  1  0
  4  5  2  0
  5  6  1  0
  6  7  2  0
  7  8  1  0
  8  9  1  0
  9 10  1  0
 10 11  2  0
 11 12  1  0
 12 13  1  0
 13 14  1  0
 14 15  1  0
 15 16  1  0
 16 17  1  0
 17 18  1  0
 18 19  1  0
 12 20  2  0
 20 21  1  0
 21 22  2  0
 22 23  1  0
 23 24  2  0
 24 25  1  0
 25 26  2  0
  8 27  2  0
 27  4  1  0
 26 10  1  0
 19 15  1  0
 25 20  1  0
  1 28  1  0
  3 29  1  0
  3 30  1  0
  5 31  1  0
  6 32  1  0
  7 33  1  0
  9 34  1  0
 13 35  1  0
 14 36  1  0
 14 37  1  0
 15 38  1  0
 16 39  1  0
 16 40  1  0
 17 41  1  0
 17 42  1  0
 18 43  1  0
 18 44  1  0
 21 45  1  0
 22 46  1  0
 23 47  1  0
 24 48  1  0
 27 49  1  0
M  END
>  <ScrubInfo>  (5) 
{"isomerGroup": 0, "isomerId": 4, "confId": 0, "nr_conformers:": 1, "nr_isomers:": 11}

$$$$
_i5
     RDKit          3D

 49 52  0  0  0  0  0  0  0  0999 V2000
    1.0050   -1.3451   -0.4746 N   0  0  0  0  0  0  0  0  0  0  0  0
    0.9065   -0.0408   -0.0808 C   0  0  0  0  0  0  0  0  0  0  0  0
    2.0507    0.7030   -0.2062 N   0  0  0  0  0  0  0  0  0  0  0  0
    3.3114    0.3416    0.3293 C   0  0  0  0  0  0  0  0  0  0  0  0
    3.4544   -0.5577    1.3936 C   0  0  0  0  0  0  0  0  0  0  0  0
    4.7168   -0.8571    1.9070 C   0  0  0  0  0  0  0  0  0  0  0  0
    5.8497   -0.2475    1.3703 C   0  0  0  0  0  0  0  0  0  0  0  0
    5.7273    0.6747    0.3239 C   0  0  0  0  0  0  0  0  0  0  0  0
    6.9682    1.3095   -0.2121 C   0  0  0  0  0  0  0  0  0  0  0  0
    6.8492    2.3509   -1.2939 C   0  0  0  0  0  0  0  0  0  0  0  0
    8.0654    0.9753    0.2302 O   0  0  0  0  0  0  0  0  0  0  0  0
    4.4560    0.9706   -0.1854 C   0  0  0  0  0  0  0  0  0  0  0  0
   -0.1769    0.5292    0.3490 N   0  0  0  0  0  0  0  0  0  0  0  0
   -1.3350   -0.2211    0.3790 C   0  0  0  0  0  0  0  0  0  0  0  0
   -2.3944    0.5027    0.3455 N   0  0  0  0  0  0  0  0  0  0  0  0
   -3.7437   -0.0089    0.2052 C   0  0  0  0  0  0  0  0  0  0  0  0
   -4.6463    1.0855   -0.3720 C   0  0  0  0  0  0  0  0  0  0  0  0
   -4.7894    2.3085    0.5215 C   0  0  0  0  0  0  0  0  0  0  0  0
   -6.1178    2.8585    0.0680 C   0  0  0  0  0  0  0  0  0  0  0  0
   -6.9150    1.5945   -0.1708 C   0  0  0  0  0  0  0  0  0  0  0  0
   -5.9837    0.5742   -0.5602 O   0  0  0  0  0  0  0  0  0  0  0  0
   -1.2118   -1.7140    0.4098 C   0  0  0  0  0  0  0  0  0  0  0  0
   -2.1831   -2.5859    0.9085 C   0  0  0  0  0  0  0  0  0  0  0  0
   -1.9833   -3.9675    0.8450 C   0  0  0  0  0  0  0  0  0  0  0  0
   -0.8102   -4.4817    0.2959 C   0  0  0  0  0  0  0  0  0  0  0  0
    0.1834   -3.6162   -0.1613 C   0  0  0  0  0  0  0  0  0  0  0  0
    0.0016   -2.2326   -0.0734 C   0  0  0  0  0  0  0  0  0  0  0  0
    1.9238   -1.7150   -0.6674 H   0  0  0  0  0  0  0  0  0  0  0  0
    1.8395    1.6666    0.0506 H   0  0  0  0  0  0  0  0  0  0  0  0
    2.5836   -1.0218    1.8522 H   0  0  0  0  0  0  0  0  0  0  0  0
    4.8174   -1.5571    2.7333 H   0  0  0  0  0  0  0  0  0  0  0  0
    6.8299   -0.4873    1.7802 H   0  0  0  0  0  0  0  0  0  0  0  0
    6.2314    3.1854   -0.9523 H   0  0  0  0  0  0  0  0  0  0  0  0
    6.4378    1.9057   -2.2034 H   0  0  0  0  0  0  0  0  0  0  0  0
    7.8446    2.7427   -1.5261 H   0  0  0  0  0  0  0  0  0  0  0  0
    4.3316    1.6789   -1.0001 H   0  0  0  0  0  0  0  0  0  0  0  0
   -4.1433   -0.3184    1.1775 H   0  0  0  0  0  0  0  0  0  0  0  0
   -3.7915   -0.8708   -0.4701 H   0  0  0  0  0  0  0  0  0  0  0  0
   -4.2775    1.3884   -1.3604 H   0  0  0  0  0  0  0  0  0  0  0  0
   -4.8520    2.0191    1.5775 H   0  0  0  0  0  0  0  0  0  0  0  0
   -3.9662    3.0193    0.4076 H   0  0  0  0  0  0  0  0  0  0  0  0
   -5.9919    3.4054   -0.8740 H   0  0  0  0  0  0  0  0  0  0  0  0
   -6.5875    3.5290    0.7923 H   0  0  0  0  0  0  0  0  0  0  0  0
   -7.4095    1.2592    0.7471 H   0  0  0  0  0  0  0  0  0  0  0  0
   -7.6731    1.7176   -0.9494 H   0  0  0  0  0  0  0  0  0  0  0  0
   -3.0937   -2.2187    1.3663 H   0  0  0  0  0  0  0  0  0  0  0  0
   -2.7474   -4.6430    1.2239 H   0  0  0  0  0  0  0  0  0  0  0  0
   -0.6636   -5.5578    0.2385 H   0  0  0  0  0  0  0  0  0  0  0  0
    1.1024   -4.0300   -0.5675 H   0  0  0  0  0  0  0  0  0  0  0  0
  1  2  1  0
  2  3  1  0
  3  4  1  0
  4  5  2  0
  5  6  1  0
  6  7  2  0
  7  8  1  0
  8  9  1  0
  9 10  1  0
  9 11  2  0
  8 12  2  0
  2 13  2  0
 13 14  1  0
 14 15  2  3
 15 16  1  0
 16 17  1  0
 17 18  1  0
 18 19  1  0
 19 20  1  0
 20 21  1  0
 14 22  1  0
 22 23  2  0
 23 24  1  0
 24 25  2  0
 25 26  1  0
 26 27  2  0
 27  1  1  0
 12  4  1  0
 21 17  1  0
 27 22  1  0
  1 28  1  0
  3 29  1  0
  5 30  1  0
  6 31  1  0
  7 32  1  0
 10 33  1  0
 10 34  1  0
 10 35  1  0
 12 36  1  0
 16 37  1  0
 16 38  1  0
 17 39  1  0
 18 40  1  0
 18 41  1  0
 19 42  1  0
 19 43  1  0
 20 44  1  0
 20 45  1  0
 23 46  1  0
 24 47  1  0
 25 48  1  0
 26 49  1  0
M  END
>  <ScrubInfo>  (6) 
{"isomerGroup": 0, "isomerId": 5, "confId": 0, "nr_conformers:": 1, "nr_isomers:": 11}

$$$$
_i6
     RDKit          3D

 49 52  0  0  0  0  0  0  0  0999 V2000
    6.0110    0.3495   -2.1831 O   0  0  0  0  0  0  0  0  0  0  0  0
    6.3853   -0.4336   -1.1121 C   0  0  0  0  0  0  0  0  0  0  0  0
    7.5273   -1.1247   -1.1566 C   0  0  0  0  0  0  0  0  0  0  0  0
    5.4701   -0.4671    0.0379 C   0  0  0  0  0  0  0  0  0  0  0  0
    5.9206   -0.1649    1.3298 C   0  0  0  0  0  0  0  0  0  0  0  0
    5.0334   -0.1714    2.4075 C   0  0  0  0  0  0  0  0  0  0  0  0
    3.6871   -0.4711    2.1981 C   0  0  0  0  0  0  0  0  0  0  0  0
    3.2171   -0.7595    0.9153 C   0  0  0  0  0  0  0  0  0  0  0  0
    1.8673   -1.0850    0.7210 N   0  0  0  0  0  0  0  0  0  0  0  0
    1.0528   -0.1721    0.2728 C   0  0  0  0  0  0  0  0  0  0  0  0
    1.4945    1.0944   -0.0088 N   0  0  0  0  0  0  0  0  0  0  0  0
    0.6098    1.9028   -0.5066 C   0  0  0  0  0  0  0  0  0  0  0  0
    1.0369    3.2944   -0.8305 C   0  0  0  0  0  0  0  0  0  0  0  0
    0.1809    4.1706   -1.3719 C   0  0  0  0  0  0  0  0  0  0  0  0
   -1.1845    3.8220   -1.6768 C   0  0  0  0  0  0  0  0  0  0  0  0
   -1.6715    2.6023   -1.4084 C   0  0  0  0  0  0  0  0  0  0  0  0
   -0.8397    1.5784   -0.7989 C   0  0  0  0  0  0  0  0  0  0  0  0
   -1.2165    0.3209   -0.4522 C   0  0  0  0  0  0  0  0  0  0  0  0
   -2.5116   -0.1527   -0.6294 N   0  0  0  0  0  0  0  0  0  0  0  0
   -3.1179   -1.2477    0.1263 C   0  0  0  0  0  0  0  0  0  0  0  0
   -4.5704   -1.4395   -0.3290 C   0  0  0  0  0  0  0  0  0  0  0  0
   -5.2971   -2.5409    0.4229 C   0  0  0  0  0  0  0  0  0  0  0  0
   -6.7340   -2.1053    0.2810 C   0  0  0  0  0  0  0  0  0  0  0  0
   -6.6220   -0.6009    0.4096 C   0  0  0  0  0  0  0  0  0  0  0  0
   -5.3310   -0.2308   -0.0988 O   0  0  0  0  0  0  0  0  0  0  0  0
   -0.2550   -0.5006    0.0830 N   0  0  0  0  0  0  0  0  0  0  0  0
    4.1162   -0.7744   -0.1556 C   0  0  0  0  0  0  0  0  0  0  0  0
    5.2138    0.8445   -1.9213 H   0  0  0  0  0  0  0  0  0  0  0  0
    8.1643   -1.0700   -2.0329 H   0  0  0  0  0  0  0  0  0  0  0  0
    7.8461   -1.7645   -0.3414 H   0  0  0  0  0  0  0  0  0  0  0  0
    6.9645    0.0870    1.5028 H   0  0  0  0  0  0  0  0  0  0  0  0
    5.3881    0.0611    3.4077 H   0  0  0  0  0  0  0  0  0  0  0  0
    2.9939   -0.4764    3.0343 H   0  0  0  0  0  0  0  0  0  0  0  0
    2.0643    3.5545   -0.6056 H   0  0  0  0  0  0  0  0  0  0  0  0
    0.5061    5.1810   -1.6023 H   0  0  0  0  0  0  0  0  0  0  0  0
   -1.8112    4.5800   -2.1381 H   0  0  0  0  0  0  0  0  0  0  0  0
   -2.6998    2.3758   -1.6644 H   0  0  0  0  0  0  0  0  0  0  0  0
   -3.1956    0.5903   -0.7746 H   0  0  0  0  0  0  0  0  0  0  0  0
   -2.5587   -2.1762   -0.0305 H   0  0  0  0  0  0  0  0  0  0  0  0
   -3.0916   -0.9932    1.1923 H   0  0  0  0  0  0  0  0  0  0  0  0
   -4.6041   -1.6306   -1.4092 H   0  0  0  0  0  0  0  0  0  0  0  0
   -5.0169   -2.5448    1.4832 H   0  0  0  0  0  0  0  0  0  0  0  0
   -5.1021   -3.5355    0.0126 H   0  0  0  0  0  0  0  0  0  0  0  0
   -7.4037   -2.5481    1.0229 H   0  0  0  0  0  0  0  0  0  0  0  0
   -7.1054   -2.3689   -0.7165 H   0  0  0  0  0  0  0  0  0  0  0  0
   -7.4019   -0.0728   -0.1462 H   0  0  0  0  0  0  0  0  0  0  0  0
   -6.6676   -0.2885    1.4582 H   0  0  0  0  0  0  0  0  0  0  0  0
   -0.4873   -1.4679    0.2257 H   0  0  0  0  0  0  0  0  0  0  0  0
    3.7459   -1.0297   -1.1452 H   0  0  0  0  0  0  0  0  0  0  0  0
  1  2  1  0
  2  3  2  0
  2  4  1  0
  4  5  2  0
  5  6  1  0
  6  7  2  0
  7  8  1  0
  8  9  1  0
  9 10  2  3
 10 11  1  0
 11 12  2  0
 12 13  1  0
 13 14  2  0
 14 15  1  0
 15 16  2  0
 16 17  1  0
 17 18  2  0
 18 19  1  0
 19 20  1  0
 20 21  1  0
 21 22  1  0
 22 23  1  0
 23 24  1  0
 24 25  1  0
 18 26  1  0
  8 27  2  0
 27  4  1  0
 26 10  1  0
 17 12  1  0
 25 21  1  0
  1 28  1  0
  3 29  1  0
  3 30  1  0
  5 31  1  0
  6 32  1  0
  7 33  1  0
 13 34  1  0
 14 35  1  0
 15 36  1  0
 16 37  1  0
 19 38  1  0
 20 39  1  0
 20 40  1  0
 21 41  1  0
 22 42  1  0
 22 43  1  0
 23 44  1  0
 23 45  1  0
 24 46  1  0
 24 47  1  0
 26 48  1  0
 27 49  1  0
M  END
>  <ScrubInfo>  (7) 
{"isomerGroup": 0, "isomerId": 6, "confId": 0, "nr_conformers:": 1, "nr_isomers:": 11}

$$$$
_i7
     RDKit          3D

 49 52  0  0  0  0  0  0  0  0999 V2000
    1.3719   -1.1995    0.3034 N   0  0  0  0  0  0  0  0  0  0  0  0
    1.1667   -0.1674   -0.5740 C   0  0  0  0  0  0  0  0  0  0  0  0
    2.0712    0.5416   -1.1855 N   0  0  0  0  0  0  0  0  0  0  0  0
    3.4238    0.2588   -0.9638 C   0  0  0  0  0  0  0  0  0  0  0  0
    4.0730   -0.7265   -1.7122 C   0  0  0  0  0  0  0  0  0  0  0  0
    5.4192   -1.0094   -1.4876 C   0  0  0  0  0  0  0  0  0  0  0  0
    6.1253   -0.2942   -0.5199 C   0  0  0  0  0  0  0  0  0  0  0  0
    5.4916    0.7148    0.2190 C   0  0  0  0  0  0  0  0  0  0  0  0
    6.2895    1.4608    1.2349 C   0  0  0  0  0  0  0  0  0  0  0  0
    5.6859    2.6750    1.8910 C   0  0  0  0  0  0  0  0  0  0  0  0
    7.4181    1.0721    1.5292 O   0  0  0  0  0  0  0  0  0  0  0  0
    4.1385    0.9877   -0.0088 C   0  0  0  0  0  0  0  0  0  0  0  0
   -0.1500    0.1069   -0.7855 N   0  0  0  0  0  0  0  0  0  0  0  0
   -1.2797   -0.4707   -0.2649 C   0  0  0  0  0  0  0  0  0  0  0  0
   -2.3875    0.0786   -0.6403 N   0  0  0  0  0  0  0  0  0  0  0  0
   -3.7226   -0.2990   -0.2281 C   0  0  0  0  0  0  0  0  0  0  0  0
   -4.7422    0.6634   -0.8458 C   0  0  0  0  0  0  0  0  0  0  0  0
   -4.5988    2.1035   -0.3766 C   0  0  0  0  0  0  0  0  0  0  0  0
   -5.9948    2.6305   -0.5926 C   0  0  0  0  0  0  0  0  0  0  0  0
   -6.8437    1.4423   -0.1944 C   0  0  0  0  0  0  0  0  0  0  0  0
   -6.0810    0.2618   -0.4856 O   0  0  0  0  0  0  0  0  0  0  0  0
   -1.0286   -1.6363    0.6563 C   0  0  0  0  0  0  0  0  0  0  0  0
   -2.0130   -2.4247    1.2604 C   0  0  0  0  0  0  0  0  0  0  0  0
   -1.6621   -3.4834    2.1057 C   0  0  0  0  0  0  0  0  0  0  0  0
   -0.3252   -3.7708    2.3550 C   0  0  0  0  0  0  0  0  0  0  0  0
    0.6693   -3.0042    1.7533 C   0  0  0  0  0  0  0  0  0  0  0  0
    0.3342   -1.9418    0.8988 C   0  0  0  0  0  0  0  0  0  0  0  0
    2.3207   -1.4853    0.4941 H   0  0  0  0  0  0  0  0  0  0  0  0
    3.5229   -1.2719   -2.4753 H   0  0  0  0  0  0  0  0  0  0  0  0
    5.9203   -1.7785   -2.0703 H   0  0  0  0  0  0  0  0  0  0  0  0
    7.1780   -0.5180   -0.3524 H   0  0  0  0  0  0  0  0  0  0  0  0
    6.4561    3.1858    2.4775 H   0  0  0  0  0  0  0  0  0  0  0  0
    4.8792    2.3758    2.5649 H   0  0  0  0  0  0  0  0  0  0  0  0
    5.3234    3.3779    1.1363 H   0  0  0  0  0  0  0  0  0  0  0  0
    3.6104    1.7592    0.5429 H   0  0  0  0  0  0  0  0  0  0  0  0
   -0.3267    0.8772   -1.4152 H   0  0  0  0  0  0  0  0  0  0  0  0
   -3.9672   -1.3088   -0.5759 H   0  0  0  0  0  0  0  0  0  0  0  0
   -3.8304   -0.2659    0.8619 H   0  0  0  0  0  0  0  0  0  0  0  0
   -4.6782    0.6211   -1.9408 H   0  0  0  0  0  0  0  0  0  0  0  0
   -4.3501    2.1466    0.6907 H   0  0  0  0  0  0  0  0  0  0  0  0
   -3.8369    2.6591   -0.9304 H   0  0  0  0  0  0  0  0  0  0  0  0
   -6.1458    2.8595   -1.6542 H   0  0  0  0  0  0  0  0  0  0  0  0
   -6.2208    3.5296   -0.0135 H   0  0  0  0  0  0  0  0  0  0  0  0
   -7.0507    1.4465    0.8810 H   0  0  0  0  0  0  0  0  0  0  0  0
   -7.7954    1.4079   -0.7321 H   0  0  0  0  0  0  0  0  0  0  0  0
   -3.0688   -2.2636    1.1017 H   0  0  0  0  0  0  0  0  0  0  0  0
   -2.4416   -4.0854    2.5682 H   0  0  0  0  0  0  0  0  0  0  0  0
   -0.0577   -4.5938    3.0133 H   0  0  0  0  0  0  0  0  0  0  0  0
    1.7104   -3.2451    1.9536 H   0  0  0  0  0  0  0  0  0  0  0  0
  1  2  1  0
  2  3  2  3
  3  4  1  0
  4  5  2  0
  5  6  1  0
  6  7  2  0
  7  8  1  0
  8  9  1  0
  9 10  1  0
  9 11  2  0
  8 12  2  0
  2 13  1  0
 13 14  1  0
 14 15  2  3
 15 16  1  0
 16 17  1  0
 17 18  1  0
 18 19  1  0
 19 20  1  0
 20 21  1  0
 14 22  1  0
 22 23  2  0
 23 24  1  0
 24 25  2  0
 25 26  1  0
 26 27  2  0
 27  1  1  0
 12  4  1  0
 21 17  1  0
 27 22  1  0
  1 28  1  0
  5 29  1  0
  6 30  1  0
  7 31  1  0
 10 32  1  0
 10 33  1  0
 10 34  1  0
 12 35  1  0
 13 36  1  0
 16 37  1  0
 16 38  1  0
 17 39  1  0
 18 40  1  0
 18 41  1  0
 19 42  1  0
 19 43  1  0
 20 44  1  0
 20 45  1  0
 23 46  1  0
 24 47  1  0
 25 48  1  0
 26 49  1  0
M  END
>  <ScrubInfo>  (8) 
{"isomerGroup": 0, "isomerId": 7, "confId": 0, "nr_conformers:": 1, "nr_isomers:": 11}

$$$$
_i8
     RDKit          3D

 49 52  0  0  0  0  0  0  0  0999 V2000
    7.5346    1.1178   -0.2111 O   0  0  0  0  0  0  0  0  0  0  0  0
    6.3360    1.6031    0.2663 C   0  0  0  0  0  0  0  0  0  0  0  0
    6.2615    2.7742    0.9116 C   0  0  0  0  0  0  0  0  0  0  0  0
    5.1635    0.7529   -0.0191 C   0  0  0  0  0  0  0  0  0  0  0  0
    5.0941    0.0391   -1.2223 C   0  0  0  0  0  0  0  0  0  0  0  0
    3.9994   -0.7776   -1.5063 C   0  0  0  0  0  0  0  0  0  0  0  0
    2.9568   -0.8954   -0.5869 C   0  0  0  0  0  0  0  0  0  0  0  0
    2.9959   -0.1996    0.6262 C   0  0  0  0  0  0  0  0  0  0  0  0
    1.9780   -0.2868    1.6049 N   0  0  0  0  0  0  0  0  0  0  0  0
    0.7167   -0.7799    1.4204 C   0  0  0  0  0  0  0  0  0  0  0  0
    0.1962   -1.5988    2.2875 N   0  0  0  0  0  0  0  0  0  0  0  0
   -1.1366   -2.0178    2.0483 C   0  0  0  0  0  0  0  0  0  0  0  0
   -1.7079   -2.8468    3.0229 C   0  0  0  0  0  0  0  0  0  0  0  0
   -3.0313   -3.2673    2.9192 C   0  0  0  0  0  0  0  0  0  0  0  0
   -3.8029   -2.8441    1.8433 C   0  0  0  0  0  0  0  0  0  0  0  0
   -3.2487   -2.0205    0.8570 C   0  0  0  0  0  0  0  0  0  0  0  0
   -1.9104   -1.6243    0.9246 C   0  0  0  0  0  0  0  0  0  0  0  0
   -1.2078   -0.7509   -0.0756 C   0  0  0  0  0  0  0  0  0  0  0  0
   -1.5446   -0.3526   -1.2552 N   0  0  0  0  0  0  0  0  0  0  0  0
   -2.7197   -0.6938   -2.0347 C   0  0  0  0  0  0  0  0  0  0  0  0
   -3.7726    0.4214   -2.0060 C   0  0  0  0  0  0  0  0  0  0  0  0
   -3.2617    1.7934   -2.4304 C   0  0  0  0  0  0  0  0  0  0  0  0
   -4.1977    2.7154   -1.6899 C   0  0  0  0  0  0  0  0  0  0  0  0
   -4.3802    1.9785   -0.3822 C   0  0  0  0  0  0  0  0  0  0  0  0
   -4.3548    0.5802   -0.6967 O   0  0  0  0  0  0  0  0  0  0  0  0
    0.0296   -0.3339    0.3365 N   0  0  0  0  0  0  0  0  0  0  0  0
    4.1106    0.6108    0.9000 C   0  0  0  0  0  0  0  0  0  0  0  0
    8.2383    1.7402    0.0354 H   0  0  0  0  0  0  0  0  0  0  0  0
    5.3159    3.1771    1.2604 H   0  0  0  0  0  0  0  0  0  0  0  0
    7.1395    3.3827    1.0964 H   0  0  0  0  0  0  0  0  0  0  0  0
    5.9008    0.1155   -1.9489 H   0  0  0  0  0  0  0  0  0  0  0  0
    3.9646   -1.3307   -2.4416 H   0  0  0  0  0  0  0  0  0  0  0  0
    2.1328   -1.5639   -0.8248 H   0  0  0  0  0  0  0  0  0  0  0  0
    2.3666   -0.6248    2.4817 H   0  0  0  0  0  0  0  0  0  0  0  0
   -1.1095   -3.1522    3.8777 H   0  0  0  0  0  0  0  0  0  0  0  0
   -3.4625   -3.9040    3.6869 H   0  0  0  0  0  0  0  0  0  0  0  0
   -4.8468   -3.1413    1.7726 H   0  0  0  0  0  0  0  0  0  0  0  0
   -3.9117   -1.6815    0.0747 H   0  0  0  0  0  0  0  0  0  0  0  0
   -3.1401   -1.6627   -1.7623 H   0  0  0  0  0  0  0  0  0  0  0  0
   -2.3898   -0.8175   -3.0739 H   0  0  0  0  0  0  0  0  0  0  0  0
   -4.5979    0.1281   -2.6671 H   0  0  0  0  0  0  0  0  0  0  0  0
   -3.2846    1.9335   -3.5149 H   0  0  0  0  0  0  0  0  0  0  0  0
   -2.2355    1.9710   -2.0897 H   0  0  0  0  0  0  0  0  0  0  0  0
   -5.1539    2.7790   -2.2226 H   0  0  0  0  0  0  0  0  0  0  0  0
   -3.8062    3.7275   -1.5599 H   0  0  0  0  0  0  0  0  0  0  0  0
   -3.5544    2.1823    0.3082 H   0  0  0  0  0  0  0  0  0  0  0  0
   -5.3217    2.2278    0.1146 H   0  0  0  0  0  0  0  0  0  0  0  0
    0.5079    0.2796   -0.3059 H   0  0  0  0  0  0  0  0  0  0  0  0
    4.1522    1.1378    1.8507 H   0  0  0  0  0  0  0  0  0  0  0  0
  1  2  1  0
  2  3  2  0
  2  4  1  0
  4  5  2  0
  5  6  1  0
  6  7  2  0
  7  8  1  0
  8  9  1  0
  9 10  1  0
 10 11  2  0
 11 12  1  0
 12 13  2  0
 13 14  1  0
 14 15  2  0
 15 16  1  0
 16 17  2  0
 17 18  1  0
 18 19  2  3
 19 20  1  0
 20 21  1  0
 21 22  1  0
 22 23  1  0
 23 24  1  0
 24 25  1  0
 18 26  1  0
  8 27  2  0
 27  4  1  0
 26 10  1  0
 17 12  1  0
 25 21  1  0
  1 28  1  0
  3 29  1  0
  3 30  1  0
  5 31  1  0
  6 32  1  0
  7 33  1  0
  9 34  1  0
 13 35  1  0
 14 36  1  0
 15 37  1  0
 16 38  1  0
 20 39  1  0
 20 40  1  0
 21 41  1  0
 22 42  1  0
 22 43  1  0
 23 44  1  0
 23 45  1  0
 24 46  1  0
 24 47  1  0
 26 48  1  0
 27 49  1  0
M  END
>  <ScrubInfo>  (9) 
{"isomerGroup": 0, "isomerId": 8, "confId": 0, "nr_conformers:": 1, "nr_isomers:": 11}

$$$$
_i9
     RDKit          3D

 49 52  0  0  0  0  0  0  0  0999 V2000
    6.0948    1.2309    2.3314 O   0  0  0  0  0  0  0  0  0  0  0  0
    6.0977    0.6161    1.0982 C   0  0  0  0  0  0  0  0  0  0  0  0
    7.0494   -0.2724    0.8001 C   0  0  0  0  0  0  0  0  0  0  0  0
    5.0151    0.9749    0.1706 C   0  0  0  0  0  0  0  0  0  0  0  0
    5.2935    1.4073   -1.1331 C   0  0  0  0  0  0  0  0  0  0  0  0
    4.2578    1.7740   -1.9945 C   0  0  0  0  0  0  0  0  0  0  0  0
    2.9349    1.7062   -1.5591 C   0  0  0  0  0  0  0  0  0  0  0  0
    2.6384    1.2618   -0.2692 C   0  0  0  0  0  0  0  0  0  0  0  0
    1.3117    1.1975    0.1672 N   0  0  0  0  0  0  0  0  0  0  0  0
    0.6321    0.1026   -0.0010 C   0  0  0  0  0  0  0  0  0  0  0  0
   -0.6536    0.1889    0.4702 N   0  0  0  0  0  0  0  0  0  0  0  0
   -1.4319   -0.8570    0.4488 C   0  0  0  0  0  0  0  0  0  0  0  0
   -2.7391   -0.7469    0.8972 N   0  0  0  0  0  0  0  0  0  0  0  0
   -3.3259    0.5613    1.1950 C   0  0  0  0  0  0  0  0  0  0  0  0
   -3.7904    1.2430   -0.1035 C   0  0  0  0  0  0  0  0  0  0  0  0
   -4.3754    2.6279    0.1376 C   0  0  0  0  0  0  0  0  0  0  0  0
   -5.8513    2.3518    0.2777 C   0  0  0  0  0  0  0  0  0  0  0  0
   -6.0517    1.2287   -0.7132 C   0  0  0  0  0  0  0  0  0  0  0  0
   -4.8528    0.4431   -0.6854 O   0  0  0  0  0  0  0  0  0  0  0  0
   -0.9519   -2.1834   -0.0550 C   0  0  0  0  0  0  0  0  0  0  0  0
   -1.7275   -3.3469   -0.0107 C   0  0  0  0  0  0  0  0  0  0  0  0
   -1.2106   -4.5411   -0.5158 C   0  0  0  0  0  0  0  0  0  0  0  0
    0.0734   -4.5722   -1.0591 C   0  0  0  0  0  0  0  0  0  0  0  0
    0.8513   -3.4127   -1.0867 C   0  0  0  0  0  0  0  0  0  0  0  0
    0.3498   -2.2160   -0.5668 C   0  0  0  0  0  0  0  0  0  0  0  0
    1.1007   -1.0435   -0.5885 N   0  0  0  0  0  0  0  0  0  0  0  0
    3.6804    0.9113    0.5940 C   0  0  0  0  0  0  0  0  0  0  0  0
    5.4202    1.9332    2.3161 H   0  0  0  0  0  0  0  0  0  0  0  0
    7.8222   -0.5059    1.5252 H   0  0  0  0  0  0  0  0  0  0  0  0
    7.0807   -0.7911   -0.1511 H   0  0  0  0  0  0  0  0  0  0  0  0
    6.3225    1.4813   -1.4794 H   0  0  0  0  0  0  0  0  0  0  0  0
    4.4818    2.1240   -2.9989 H   0  0  0  0  0  0  0  0  0  0  0  0
    2.1262    2.0048   -2.2214 H   0  0  0  0  0  0  0  0  0  0  0  0
   -3.4106   -1.3197    0.3922 H   0  0  0  0  0  0  0  0  0  0  0  0
   -2.6206    1.1920    1.7474 H   0  0  0  0  0  0  0  0  0  0  0  0
   -4.1858    0.3852    1.8515 H   0  0  0  0  0  0  0  0  0  0  0  0
   -2.9686    1.2921   -0.8262 H   0  0  0  0  0  0  0  0  0  0  0  0
   -3.9444    3.1487    0.9972 H   0  0  0  0  0  0  0  0  0  0  0  0
   -4.2082    3.2530   -0.7484 H   0  0  0  0  0  0  0  0  0  0  0  0
   -6.0703    2.0020    1.2931 H   0  0  0  0  0  0  0  0  0  0  0  0
   -6.4812    3.2207    0.0706 H   0  0  0  0  0  0  0  0  0  0  0  0
   -6.9110    0.5985   -0.4685 H   0  0  0  0  0  0  0  0  0  0  0  0
   -6.1777    1.6140   -1.7308 H   0  0  0  0  0  0  0  0  0  0  0  0
   -2.7226   -3.3464    0.4212 H   0  0  0  0  0  0  0  0  0  0  0  0
   -1.8096   -5.4483   -0.4849 H   0  0  0  0  0  0  0  0  0  0  0  0
    0.4718   -5.5026   -1.4572 H   0  0  0  0  0  0  0  0  0  0  0  0
    1.8511   -3.4545   -1.5107 H   0  0  0  0  0  0  0  0  0  0  0  0
    2.0788   -1.0945   -0.8204 H   0  0  0  0  0  0  0  0  0  0  0  0
    3.4361    0.5784    1.6008 H   0  0  0  0  0  0  0  0  0  0  0  0
  1  2  1  0
  2  3  2  0
  2  4  1  0
  4  5  2  0
  5  6  1  0
  6  7  2  0
  7  8  1  0
  8  9  1  0
  9 10  2  3
 10 11  1  0
 11 12  2  0
 12 13  1  0
 13 14  1  0
 14 15  1  0
 15 16  1  0
 16 17  1  0
 17 18  1  0
 18 19  1  0
 12 20  1  0
 20 21  2  0
 21 22  1  0
 22 23  2  0
 23 24  1  0
 24 25  2  0
 25 26  1  0
  8 27  2  0
 27  4  1  0
 26 10  1  0
 19 15  1  0
 25 20  1  0
  1 28  1  0
  3 29  1  0
  3 30  1  0
  5 31  1  0
  6 32  1  0
  7 33  1  0
 13 34  1  0
 14 35  1  0
 14 36  1  0
 15 37  1  0
 16 38  1  0
 16 39  1  0
 17 40  1  0
 17 41  1  0
 18 42  1  0
 18 43  1  0
 21 44  1  0
 22 45  1  0
 23 46  1  0
 24 47  1  0
 26 48  1  0
 27 49  1  0
M  END
>  <ScrubInfo>  (10) 
{"isomerGroup": 0, "isomerId": 9, "confId": 0, "nr_conformers:": 1, "nr_isomers:": 11}

$$$$
_i10
     RDKit          3D

 49 52  0  0  0  0  0  0  0  0999 V2000
    0.9630   -1.1534   -0.7416 N   0  0  0  0  0  0  0  0  0  0  0  0
    0.8561    0.0529   -0.1082 C   0  0  0  0  0  0  0  0  0  0  0  0
    2.0016    0.8038   -0.0790 N   0  0  0  0  0  0  0  0  0  0  0  0
    3.2571    0.3410    0.3870 C   0  0  0  0  0  0  0  0  0  0  0  0
    3.3884   -0.7374    1.2691 C   0  0  0  0  0  0  0  0  0  0  0  0
    4.6476   -1.1361    1.7161 C   0  0  0  0  0  0  0  0  0  0  0  0
    5.7871   -0.4460    1.3006 C   0  0  0  0  0  0  0  0  0  0  0  0
    5.6859    0.6621    0.4486 C   0  0  0  0  0  0  0  0  0  0  0  0
    6.9053    1.3773    0.0236 C   0  0  0  0  0  0  0  0  0  0  0  0
    6.9627    2.7037   -0.1525 C   0  0  0  0  0  0  0  0  0  0  0  0
    8.0138    0.5777   -0.1566 O   0  0  0  0  0  0  0  0  0  0  0  0
    4.4102    1.0424    0.0007 C   0  0  0  0  0  0  0  0  0  0  0  0
   -0.2345    0.5292    0.4093 N   0  0  0  0  0  0  0  0  0  0  0  0
   -1.3890   -0.2167    0.2837 C   0  0  0  0  0  0  0  0  0  0  0  0
   -2.4526    0.4968    0.3720 N   0  0  0  0  0  0  0  0  0  0  0  0
   -3.7966    0.0151    0.1208 C   0  0  0  0  0  0  0  0  0  0  0  0
   -4.6980    1.1944   -0.2565 C   0  0  0  0  0  0  0  0  0  0  0  0
   -4.8569    2.2323    0.8444 C   0  0  0  0  0  0  0  0  0  0  0  0
   -6.1827    2.8529    0.4838 C   0  0  0  0  0  0  0  0  0  0  0  0
   -6.9713    1.6520    0.0079 C   0  0  0  0  0  0  0  0  0  0  0  0
   -6.0310    0.7229   -0.5512 O   0  0  0  0  0  0  0  0  0  0  0  0
   -1.2584   -1.6889    0.0378 C   0  0  0  0  0  0  0  0  0  0  0  0
   -2.2296   -2.6418    0.3559 C   0  0  0  0  0  0  0  0  0  0  0  0
   -2.0218   -3.9868    0.0387 C   0  0  0  0  0  0  0  0  0  0  0  0
   -0.8408   -4.3856   -0.5847 C   0  0  0  0  0  0  0  0  0  0  0  0
    0.1521   -3.4464   -0.8629 C   0  0  0  0  0  0  0  0  0  0  0  0
   -0.0378   -2.1042   -0.5207 C   0  0  0  0  0  0  0  0  0  0  0  0
    1.8888   -1.4763   -0.9820 H   0  0  0  0  0  0  0  0  0  0  0  0
    1.7974    1.7037    0.3521 H   0  0  0  0  0  0  0  0  0  0  0  0
    2.5133   -1.2709    1.6324 H   0  0  0  0  0  0  0  0  0  0  0  0
    4.7432   -1.9788    2.3959 H   0  0  0  0  0  0  0  0  0  0  0  0
    6.7627   -0.7708    1.6577 H   0  0  0  0  0  0  0  0  0  0  0  0
    6.1022    3.3427    0.0186 H   0  0  0  0  0  0  0  0  0  0  0  0
    7.8768    3.2020   -0.4549 H   0  0  0  0  0  0  0  0  0  0  0  0
    8.7533    1.1387   -0.4427 H   0  0  0  0  0  0  0  0  0  0  0  0
    4.3051    1.8799   -0.6856 H   0  0  0  0  0  0  0  0  0  0  0  0
   -4.2070   -0.4701    1.0135 H   0  0  0  0  0  0  0  0  0  0  0  0
   -3.8307   -0.7071   -0.7028 H   0  0  0  0  0  0  0  0  0  0  0  0
   -4.3197    1.6745   -1.1682 H   0  0  0  0  0  0  0  0  0  0  0  0
   -4.9300    1.7538    1.8286 H   0  0  0  0  0  0  0  0  0  0  0  0
   -4.0358    2.9540    0.8726 H   0  0  0  0  0  0  0  0  0  0  0  0
   -6.0488    3.5635   -0.3404 H   0  0  0  0  0  0  0  0  0  0  0  0
   -6.6636    3.3779    1.3131 H   0  0  0  0  0  0  0  0  0  0  0  0
   -7.4742    1.1528    0.8429 H   0  0  0  0  0  0  0  0  0  0  0  0
   -7.7213    1.9140   -0.7436 H   0  0  0  0  0  0  0  0  0  0  0  0
   -3.1461   -2.3688    0.8650 H   0  0  0  0  0  0  0  0  0  0  0  0
   -2.7855   -4.7236    0.2779 H   0  0  0  0  0  0  0  0  0  0  0  0
   -0.6875   -5.4315   -0.8397 H   0  0  0  0  0  0  0  0  0  0  0  0
    1.0775   -3.7731   -1.3297 H   0  0  0  0  0  0  0  0  0  0  0  0
  1  2  1  0
  2  3  1  0
  3  4  1  0
  4  5  2  0
  5  6  1  0
  6  7  2  0
  7  8  1  0
  8  9  1  0
  9 10  2  0
  9 11  1  0
  8 12  2  0
  2 13  2  0
 13 14  1  0
 14 15  2  3
 15 16  1  0
 16 17  1  0
 17 18  1  0
 18 19  1  0
 19 20  1  0
 20 21  1  0
 14 22  1  0
 22 23  2  0
 23 24  1  0
 24 25  2  0
 25 26  1  0
 26 27  2  0
 27  1  1  0
 12  4  1  0
 21 17  1  0
 27 22  1  0
  1 28  1  0
  3 29  1  0
  5 30  1  0
  6 31  1  0
  7 32  1  0
 10 33  1  0
 10 34  1  0
 11 35  1  0
 12 36  1  0
 16 37  1  0
 16 38  1  0
 17 39  1  0
 18 40  1  0
 18 41  1  0
 19 42  1  0
 19 43  1  0
 20 44  1  0
 20 45  1  0
 23 46  1  0
 24 47  1  0
 25 48  1  0
 26 49  1  0
M  END
>  <ScrubInfo>  (11) 
{"isomerGroup": 0, "isomerId": 10, "confId": 0, "nr_conformers:": 1, "nr_isomers:": 11}

$$$$
