_i0
     RDKit          3D

 43 45  0  0  0  0  0  0  0  0999 V2000
    5.1684    2.1932    0.3512 C   0  0  0  0  0  0  0  0  0  0  0  0
    3.7970    2.1237    0.7193 O   0  0  0  0  0  0  0  0  0  0  0  0
    3.5866    1.5266    1.9972 C   0  0  0  0  0  0  0  0  0  0  0  0
    3.6334    0.0012    1.9439 C   0  0  0  0  0  0  0  0  0  0  0  0
    2.6820   -0.6125    0.9135 C   0  0  0  0  0  0  0  0  0  0  0  0
    1.2983   -0.3993    1.3095 N   0  0  0  0  0  0  0  0  0  0  0  0
    0.3659   -1.0024    0.4676 C   0  0  0  0  0  0  0  0  0  0  0  0
   -0.7461   -0.2735    0.2592 N   0  0  0  0  0  0  0  0  0  0  0  0
   -1.7494   -0.7380   -0.5307 C   0  0  0  0  0  0  0  0  0  0  0  0
   -2.9129    0.0050   -0.7681 N   0  0  0  0  0  0  0  0  0  0  0  0
   -3.3712    1.2574   -0.3095 C   0  0  0  0  0  0  0  0  0  0  0  0
   -2.6769    2.0363    0.6253 C   0  0  0  0  0  0  0  0  0  0  0  0
   -3.1713    3.2772    1.0422 C   0  0  0  0  0  0  0  0  0  0  0  0
   -4.3686    3.7523    0.5258 C   0  0  0  0  0  0  0  0  0  0  0  0
   -4.8366    4.9403    0.9290 F   0  0  0  0  0  0  0  0  0  0  0  0
   -5.0871    3.0136   -0.4001 C   0  0  0  0  0  0  0  0  0  0  0  0
   -4.5887    1.7768   -0.8117 C   0  0  0  0  0  0  0  0  0  0  0  0
   -5.5121    0.8765   -1.9713 Cl  0  0  0  0  0  0  0  0  0  0  0  0
   -1.5621   -1.9994   -1.1103 C   0  0  0  0  0  0  0  0  0  0  0  0
   -2.2582   -2.8828   -1.9625 C   0  0  0  0  0  0  0  0  0  0  0  0
   -1.5836   -4.0118   -2.2068 N   0  0  0  0  0  0  0  0  0  0  0  0
   -0.4428   -3.8490   -1.4964 N   0  0  0  0  0  0  0  0  0  0  0  0
    0.5540   -4.8898   -1.5064 C   0  0  0  0  0  0  0  0  0  0  0  0
   -0.3818   -2.6573   -0.8275 C   0  0  0  0  0  0  0  0  0  0  0  0
    0.6155   -2.2110   -0.0519 N   0  0  0  0  0  0  0  0  0  0  0  0
    5.5955    1.1927    0.2429 H   0  0  0  0  0  0  0  0  0  0  0  0
    5.2370    2.7020   -0.6142 H   0  0  0  0  0  0  0  0  0  0  0  0
    5.7360    2.7696    1.0878 H   0  0  0  0  0  0  0  0  0  0  0  0
    4.3157    1.9102    2.7209 H   0  0  0  0  0  0  0  0  0  0  0  0
    2.6010    1.8541    2.3443 H   0  0  0  0  0  0  0  0  0  0  0  0
    4.6513   -0.3186    1.6926 H   0  0  0  0  0  0  0  0  0  0  0  0
    3.4121   -0.3971    2.9415 H   0  0  0  0  0  0  0  0  0  0  0  0
    2.8697   -0.1934   -0.0825 H   0  0  0  0  0  0  0  0  0  0  0  0
    2.9044   -1.6862    0.8695 H   0  0  0  0  0  0  0  0  0  0  0  0
    1.0171    0.5774    1.3235 H   0  0  0  0  0  0  0  0  0  0  0  0
   -3.5631   -0.4370   -1.4089 H   0  0  0  0  0  0  0  0  0  0  0  0
   -1.7410    1.6950    1.0557 H   0  0  0  0  0  0  0  0  0  0  0  0
   -2.6243    3.8709    1.7683 H   0  0  0  0  0  0  0  0  0  0  0  0
   -6.0207    3.4052   -0.7892 H   0  0  0  0  0  0  0  0  0  0  0  0
   -3.2313   -2.7536   -2.4182 H   0  0  0  0  0  0  0  0  0  0  0  0
    0.8818   -5.0418   -2.5379 H   0  0  0  0  0  0  0  0  0  0  0  0
    1.4053   -4.5999   -0.8865 H   0  0  0  0  0  0  0  0  0  0  0  0
    0.1016   -5.8027   -1.1107 H   0  0  0  0  0  0  0  0  0  0  0  0
  1  2  1  0
  2  3  1  0
  3  4  1  0
  4  5  1  0
  5  6  1  0
  6  7  1  0
  7  8  2  0
  8  9  1  0
  9 10  1  0
 10 11  1  0
 11 12  2  0
 12 13  1  0
 13 14  2  0
 14 15  1  0
 14 16  1  0
 16 17  2  0
 17 18  1  0
  9 19  2  0
 19 20  1  0
 20 21  2  0
 21 22  1  0
 22 23  1  0
 22 24  1  0
 24 25  2  0
 25  7  1  0
 17 11  1  0
 24 19  1  0
  1 26  1  0
  1 27  1  0
  1 28  1  0
  3 29  1  0
  3 30  1  0
  4 31  1  0
  4 32  1  0
  5 33  1  0
  5 34  1  0
  6 35  1  0
 10 36  1  0
 12 37  1  0
 13 38  1  0
 16 39  1  0
 20 40  1  0
 23 41  1  0
 23 42  1  0
 23 43  1  0
M  END
>  <ScrubInfo>  (1) 
{"isomerGroup": 0, "isomerId": 0, "confId": 0, "nr_conformers:": 1, "nr_isomers:": 9}

$$$$
_i1
     RDKit          3D

 43 45  0  0  0  0  0  0  0  0999 V2000
   -0.8974    0.0046   -0.0926 N   0  0  0  0  0  0  0  0  0  0  0  0
   -1.7729   -0.7378    0.6771 C   0  0  0  0  0  0  0  0  0  0  0  0
   -3.0253   -0.2848    1.0818 N   0  0  0  0  0  0  0  0  0  0  0  0
   -3.6674    0.8844    0.6107 C   0  0  0  0  0  0  0  0  0  0  0  0
   -4.8003    0.7330   -0.2087 C   0  0  0  0  0  0  0  0  0  0  0  0
   -5.4471    1.8467   -0.7483 C   0  0  0  0  0  0  0  0  0  0  0  0
   -4.9625    3.1192   -0.4771 C   0  0  0  0  0  0  0  0  0  0  0  0
   -5.5855    4.1847   -0.9959 F   0  0  0  0  0  0  0  0  0  0  0  0
   -3.8445    3.3039    0.3234 C   0  0  0  0  0  0  0  0  0  0  0  0
   -3.1967    2.1909    0.8639 C   0  0  0  0  0  0  0  0  0  0  0  0
   -1.8408    2.4858    1.8965 Cl  0  0  0  0  0  0  0  0  0  0  0  0
   -1.3305   -1.9630    0.9916 C   0  0  0  0  0  0  0  0  0  0  0  0
   -1.8134   -3.1404    1.7227 C   0  0  0  0  0  0  0  0  0  0  0  0
   -0.9722   -4.1427    1.6998 N   0  0  0  0  0  0  0  0  0  0  0  0
    0.1467   -3.6708    0.9970 N   0  0  0  0  0  0  0  0  0  0  0  0
    1.1649   -4.6032    0.5809 C   0  0  0  0  0  0  0  0  0  0  0  0
    0.0021   -2.3850    0.5034 C   0  0  0  0  0  0  0  0  0  0  0  0
    0.7973   -1.6750   -0.2216 N   0  0  0  0  0  0  0  0  0  0  0  0
    0.3399   -0.4094   -0.5111 C   0  0  0  0  0  0  0  0  0  0  0  0
    1.0737    0.4194   -1.1767 N   0  0  0  0  0  0  0  0  0  0  0  0
    2.3964   -0.0142   -1.6261 C   0  0  0  0  0  0  0  0  0  0  0  0
    3.4550    0.2674   -0.5638 C   0  0  0  0  0  0  0  0  0  0  0  0
    3.5903    1.7572   -0.2566 C   0  0  0  0  0  0  0  0  0  0  0  0
    4.6144    1.9942    0.7139 O   0  0  0  0  0  0  0  0  0  0  0  0
    5.9161    2.0542    0.1482 C   0  0  0  0  0  0  0  0  0  0  0  0
   -1.1204    0.9715   -0.2710 H   0  0  0  0  0  0  0  0  0  0  0  0
   -3.6786   -1.0341    1.2913 H   0  0  0  0  0  0  0  0  0  0  0  0
   -5.1793   -0.2583   -0.4470 H   0  0  0  0  0  0  0  0  0  0  0  0
   -6.3205    1.7288   -1.3830 H   0  0  0  0  0  0  0  0  0  0  0  0
   -3.4936    4.3115    0.5230 H   0  0  0  0  0  0  0  0  0  0  0  0
   -2.7978   -3.1444    2.2074 H   0  0  0  0  0  0  0  0  0  0  0  0
    2.1342   -4.1043    0.4809 H   0  0  0  0  0  0  0  0  0  0  0  0
    1.2783   -5.4081    1.3144 H   0  0  0  0  0  0  0  0  0  0  0  0
    0.9012   -5.0485   -0.3833 H   0  0  0  0  0  0  0  0  0  0  0  0
    2.4162   -1.0721   -1.9142 H   0  0  0  0  0  0  0  0  0  0  0  0
    2.6402    0.5401   -2.5402 H   0  0  0  0  0  0  0  0  0  0  0  0
    4.4143   -0.1304   -0.9127 H   0  0  0  0  0  0  0  0  0  0  0  0
    3.2295   -0.2714    0.3645 H   0  0  0  0  0  0  0  0  0  0  0  0
    3.7820    2.3426   -1.1637 H   0  0  0  0  0  0  0  0  0  0  0  0
    2.6577    2.1300    0.1800 H   0  0  0  0  0  0  0  0  0  0  0  0
    5.9765    2.8573   -0.5924 H   0  0  0  0  0  0  0  0  0  0  0  0
    6.1931    1.0999   -0.3072 H   0  0  0  0  0  0  0  0  0  0  0  0
    6.6271    2.2705    0.9504 H   0  0  0  0  0  0  0  0  0  0  0  0
  1  2  1  0
  2  3  1  0
  3  4  1  0
  4  5  2  0
  5  6  1  0
  6  7  2  0
  7  8  1  0
  7  9  1  0
  9 10  2  0
 10 11  1  0
  2 12  2  0
 12 13  1  0
 13 14  2  0
 14 15  1  0
 15 16  1  0
 15 17  1  0
 17 18  2  0
 18 19  1  0
 19 20  2  3
 20 21  1  0
 21 22  1  0
 22 23  1  0
 23 24  1  0
 24 25  1  0
 19  1  1  0
 10  4  1  0
 17 12  1  0
  1 26  1  0
  3 27  1  0
  5 28  1  0
  6 29  1  0
  9 30  1  0
 13 31  1  0
 16 32  1  0
 16 33  1  0
 16 34  1  0
 21 35  1  0
 21 36  1  0
 22 37  1  0
 22 38  1  0
 23 39  1  0
 23 40  1  0
 25 41  1  0
 25 42  1  0
 25 43  1  0
M  END
>  <ScrubInfo>  (2) 
{"isomerGroup": 0, "isomerId": 1, "confId": 0, "nr_conformers:": 1, "nr_isomers:": 9}

$$$$
_i2
     RDKit          3D

 43 45  0  0  0  0  0  0  0  0999 V2000
   -0.8699    0.3540    0.1349 N   0  0  0  0  0  0  0  0  0  0  0  0
    0.2363    0.7187    0.8669 C   0  0  0  0  0  0  0  0  0  0  0  0
    1.1599   -0.2717    1.0614 N   0  0  0  0  0  0  0  0  0  0  0  0
    1.8157   -0.9155   -0.0755 C   0  0  0  0  0  0  0  0  0  0  0  0
    2.4756   -2.2260    0.3534 C   0  0  0  0  0  0  0  0  0  0  0  0
    3.6360   -2.0422    1.3289 C   0  0  0  0  0  0  0  0  0  0  0  0
    4.5999   -1.1101    0.8456 O   0  0  0  0  0  0  0  0  0  0  0  0
    5.5246   -1.6834   -0.0700 C   0  0  0  0  0  0  0  0  0  0  0  0
    0.4255    1.9049    1.3874 N   0  0  0  0  0  0  0  0  0  0  0  0
   -0.5991    2.7493    1.0777 C   0  0  0  0  0  0  0  0  0  0  0  0
   -1.7353    2.4760    0.3406 C   0  0  0  0  0  0  0  0  0  0  0  0
   -2.4575    3.6766    0.3139 C   0  0  0  0  0  0  0  0  0  0  0  0
   -1.8372    4.6563    0.9850 N   0  0  0  0  0  0  0  0  0  0  0  0
   -0.7040    4.0638    1.4393 N   0  0  0  0  0  0  0  0  0  0  0  0
    0.2324    4.8343    2.2175 C   0  0  0  0  0  0  0  0  0  0  0  0
   -1.9427    1.1536   -0.1938 C   0  0  0  0  0  0  0  0  0  0  0  0
   -3.0311    0.9131   -0.8454 N   0  0  0  0  0  0  0  0  0  0  0  0
   -3.2368   -0.3775   -1.3611 C   0  0  0  0  0  0  0  0  0  0  0  0
   -4.1374   -1.2150   -0.6894 C   0  0  0  0  0  0  0  0  0  0  0  0
   -4.4007   -2.5017   -1.1615 C   0  0  0  0  0  0  0  0  0  0  0  0
   -3.7700   -2.9488   -2.3160 C   0  0  0  0  0  0  0  0  0  0  0  0
   -4.0207   -4.1845   -2.7663 F   0  0  0  0  0  0  0  0  0  0  0  0
   -2.8833   -2.1365   -3.0107 C   0  0  0  0  0  0  0  0  0  0  0  0
   -2.6211   -0.8500   -2.5370 C   0  0  0  0  0  0  0  0  0  0  0  0
   -1.5056    0.1271   -3.4249 Cl  0  0  0  0  0  0  0  0  0  0  0  0
   -0.9492   -0.6244   -0.0792 H   0  0  0  0  0  0  0  0  0  0  0  0
    1.8776    0.1126    1.6789 H   0  0  0  0  0  0  0  0  0  0  0  0
    2.5468   -0.2294   -0.5175 H   0  0  0  0  0  0  0  0  0  0  0  0
    1.0821   -1.1478   -0.8560 H   0  0  0  0  0  0  0  0  0  0  0  0
    1.7301   -2.8899    0.8073 H   0  0  0  0  0  0  0  0  0  0  0  0
    2.8415   -2.7282   -0.5496 H   0  0  0  0  0  0  0  0  0  0  0  0
    3.2595   -1.6494    2.2794 H   0  0  0  0  0  0  0  0  0  0  0  0
    4.1106   -3.0048    1.5538 H   0  0  0  0  0  0  0  0  0  0  0  0
    5.0143   -2.0400   -0.9688 H   0  0  0  0  0  0  0  0  0  0  0  0
    6.2389   -0.9093   -0.3635 H   0  0  0  0  0  0  0  0  0  0  0  0
    6.0752   -2.5023    0.4026 H   0  0  0  0  0  0  0  0  0  0  0  0
   -3.4074    3.8800   -0.1632 H   0  0  0  0  0  0  0  0  0  0  0  0
   -0.2806    5.1973    3.1117 H   0  0  0  0  0  0  0  0  0  0  0  0
    0.5772    5.6734    1.6080 H   0  0  0  0  0  0  0  0  0  0  0  0
    1.0829    4.2129    2.5061 H   0  0  0  0  0  0  0  0  0  0  0  0
   -4.6410   -0.8534    0.2047 H   0  0  0  0  0  0  0  0  0  0  0  0
   -5.0987   -3.1509   -0.6414 H   0  0  0  0  0  0  0  0  0  0  0  0
   -2.4132   -2.5110   -3.9143 H   0  0  0  0  0  0  0  0  0  0  0  0
  1  2  1  0
  2  3  1  0
  3  4  1  0
  4  5  1  0
  5  6  1  0
  6  7  1  0
  7  8  1  0
  2  9  2  0
  9 10  1  0
 10 11  2  0
 11 12  1  0
 12 13  2  0
 13 14  1  0
 14 15  1  0
 11 16  1  0
 16 17  2  3
 17 18  1  0
 18 19  2  0
 19 20  1  0
 20 21  2  0
 21 22  1  0
 21 23  1  0
 23 24  2  0
 24 25  1  0
 16  1  1  0
 24 18  1  0
 14 10  1  0
  1 26  1  0
  3 27  1  0
  4 28  1  0
  4 29  1  0
  5 30  1  0
  5 31  1  0
  6 32  1  0
  6 33  1  0
  8 34  1  0
  8 35  1  0
  8 36  1  0
 12 37  1  0
 15 38  1  0
 15 39  1  0
 15 40  1  0
 19 41  1  0
 20 42  1  0
 23 43  1  0
M  END
>  <ScrubInfo>  (3) 
{"isomerGroup": 0, "isomerId": 2, "confId": 0, "nr_conformers:": 1, "nr_isomers:": 9}

$$$$
_i3
     RDKit          3D

 43 45  0  0  0  0  0  0  0  0999 V2000
   -0.6092   -2.1244   -0.2841 N   0  0  0  0  0  0  0  0  0  0  0  0
   -0.9177   -0.8077   -0.5521 C   0  0  0  0  0  0  0  0  0  0  0  0
   -2.1645   -0.4640   -0.5507 N   0  0  0  0  0  0  0  0  0  0  0  0
   -2.4730    0.9354   -0.8417 C   0  0  0  0  0  0  0  0  0  0  0  0
   -3.9858    1.1359   -0.7900 C   0  0  0  0  0  0  0  0  0  0  0  0
   -4.5505    0.9346    0.6146 C   0  0  0  0  0  0  0  0  0  0  0  0
   -5.9662    1.1372    0.6396 O   0  0  0  0  0  0  0  0  0  0  0  0
   -6.3339    2.5061    0.7353 C   0  0  0  0  0  0  0  0  0  0  0  0
    0.0659    0.1359   -0.8165 N   0  0  0  0  0  0  0  0  0  0  0  0
    1.3163   -0.2329   -0.7961 C   0  0  0  0  0  0  0  0  0  0  0  0
    2.3579    0.6136   -1.0665 N   0  0  0  0  0  0  0  0  0  0  0  0
    3.2597    1.1221   -0.0835 C   0  0  0  0  0  0  0  0  0  0  0  0
    3.3244    0.6143    1.2242 C   0  0  0  0  0  0  0  0  0  0  0  0
    4.2672    1.1012    2.1349 C   0  0  0  0  0  0  0  0  0  0  0  0
    5.1595    2.0907    1.7435 C   0  0  0  0  0  0  0  0  0  0  0  0
    6.0593    2.5513    2.6214 F   0  0  0  0  0  0  0  0  0  0  0  0
    5.1328    2.6083    0.4578 C   0  0  0  0  0  0  0  0  0  0  0  0
    4.1915    2.1215   -0.4497 C   0  0  0  0  0  0  0  0  0  0  0  0
    4.1805    2.7930   -2.0454 Cl  0  0  0  0  0  0  0  0  0  0  0  0
    1.6796   -1.6122   -0.5648 C   0  0  0  0  0  0  0  0  0  0  0  0
    2.8467   -2.3900   -0.5435 C   0  0  0  0  0  0  0  0  0  0  0  0
    2.5938   -3.6784   -0.2629 N   0  0  0  0  0  0  0  0  0  0  0  0
    1.2439   -3.7250   -0.1318 N   0  0  0  0  0  0  0  0  0  0  0  0
    0.6078   -4.9853    0.1556 C   0  0  0  0  0  0  0  0  0  0  0  0
    0.6762   -2.5047   -0.3101 C   0  0  0  0  0  0  0  0  0  0  0  0
   -1.4094   -2.7246   -0.1333 H   0  0  0  0  0  0  0  0  0  0  0  0
   -1.9923    1.6047   -0.1178 H   0  0  0  0  0  0  0  0  0  0  0  0
   -2.1253    1.1988   -1.8480 H   0  0  0  0  0  0  0  0  0  0  0  0
   -4.2183    2.1462   -1.1442 H   0  0  0  0  0  0  0  0  0  0  0  0
   -4.4880    0.4501   -1.4836 H   0  0  0  0  0  0  0  0  0  0  0  0
   -4.0596    1.5881    1.3456 H   0  0  0  0  0  0  0  0  0  0  0  0
   -4.3800   -0.0980    0.9370 H   0  0  0  0  0  0  0  0  0  0  0  0
   -5.9182    2.9535    1.6432 H   0  0  0  0  0  0  0  0  0  0  0  0
   -6.0061    3.0652   -0.1448 H   0  0  0  0  0  0  0  0  0  0  0  0
   -7.4245    2.5632    0.7908 H   0  0  0  0  0  0  0  0  0  0  0  0
    2.0333    1.4123   -1.6119 H   0  0  0  0  0  0  0  0  0  0  0  0
    2.6385   -0.1548    1.5699 H   0  0  0  0  0  0  0  0  0  0  0  0
    4.3092    0.7110    3.1479 H   0  0  0  0  0  0  0  0  0  0  0  0
    5.8427    3.3793    0.1772 H   0  0  0  0  0  0  0  0  0  0  0  0
    3.8703   -2.0824   -0.7148 H   0  0  0  0  0  0  0  0  0  0  0  0
    0.8020   -5.6660   -0.6770 H   0  0  0  0  0  0  0  0  0  0  0  0
   -0.4680   -4.8408    0.2744 H   0  0  0  0  0  0  0  0  0  0  0  0
    1.0315   -5.3824    1.0816 H   0  0  0  0  0  0  0  0  0  0  0  0
  1  2  1  0
  2  3  2  3
  3  4  1  0
  4  5  1  0
  5  6  1  0
  6  7  1  0
  7  8  1  0
  2  9  1  0
  9 10  2  0
 10 11  1  0
 11 12  1  0
 12 13  2  0
 13 14  1  0
 14 15  2  0
 15 16  1  0
 15 17  1  0
 17 18  2  0
 18 19  1  0
 10 20  1  0
 20 21  1  0
 21 22  2  0
 22 23  1  0
 23 24  1  0
 23 25  1  0
 25  1  1  0
 18 12  1  0
 25 20  2  0
  1 26  1  0
  4 27  1  0
  4 28  1  0
  5 29  1  0
  5 30  1  0
  6 31  1  0
  6 32  1  0
  8 33  1  0
  8 34  1  0
  8 35  1  0
 11 36  1  0
 13 37  1  0
 14 38  1  0
 17 39  1  0
 21 40  1  0
 24 41  1  0
 24 42  1  0
 24 43  1  0
M  END
>  <ScrubInfo>  (4) 
{"isomerGroup": 0, "isomerId": 3, "confId": 0, "nr_conformers:": 1, "nr_isomers:": 9}

$$$$
_i4
     RDKit          3D

 43 45  0  0  0  0  0  0  0  0999 V2000
   -2.8619   -2.2817   -0.9834 N   0  0  0  0  0  0  0  0  0  0  0  0
   -2.8613   -1.0124   -0.4150 C   0  0  0  0  0  0  0  0  0  0  0  0
   -1.6307   -0.5276   -0.1875 C   0  0  0  0  0  0  0  0  0  0  0  0
   -0.9931    0.6772    0.3287 C   0  0  0  0  0  0  0  0  0  0  0  0
   -1.5039    1.7565    0.8214 N   0  0  0  0  0  0  0  0  0  0  0  0
   -2.8904    1.9272    0.9176 C   0  0  0  0  0  0  0  0  0  0  0  0
   -3.5129    1.6314    2.1383 C   0  0  0  0  0  0  0  0  0  0  0  0
   -4.8863    1.8183    2.2994 C   0  0  0  0  0  0  0  0  0  0  0  0
   -5.6371    2.3170    1.2415 C   0  0  0  0  0  0  0  0  0  0  0  0
   -6.9554    2.4927    1.3968 F   0  0  0  0  0  0  0  0  0  0  0  0
   -5.0442    2.6375    0.0272 C   0  0  0  0  0  0  0  0  0  0  0  0
   -3.6701    2.4502   -0.1322 C   0  0  0  0  0  0  0  0  0  0  0  0
   -2.9674    2.8547   -1.6583 Cl  0  0  0  0  0  0  0  0  0  0  0  0
    0.3744    0.6451    0.2812 N   0  0  0  0  0  0  0  0  0  0  0  0
    1.0533   -0.3730   -0.1577 C   0  0  0  0  0  0  0  0  0  0  0  0
    2.4109   -0.2404   -0.1579 N   0  0  0  0  0  0  0  0  0  0  0  0
    3.3128   -1.3695   -0.1176 C   0  0  0  0  0  0  0  0  0  0  0  0
    4.7643   -0.9090   -0.2661 C   0  0  0  0  0  0  0  0  0  0  0  0
    5.2819   -0.1538    0.9584 C   0  0  0  0  0  0  0  0  0  0  0  0
    4.5435    1.0400    1.2171 O   0  0  0  0  0  0  0  0  0  0  0  0
    4.9716    2.1441    0.4270 C   0  0  0  0  0  0  0  0  0  0  0  0
    0.5144   -1.5511   -0.6022 N   0  0  0  0  0  0  0  0  0  0  0  0
   -0.7685   -1.6466   -0.6133 C   0  0  0  0  0  0  0  0  0  0  0  0
   -1.5516   -2.7350   -1.0030 N   0  0  0  0  0  0  0  0  0  0  0  0
   -1.1244   -3.6048   -2.0828 C   0  0  0  0  0  0  0  0  0  0  0  0
   -3.5522   -2.9138   -0.5715 H   0  0  0  0  0  0  0  0  0  0  0  0
   -3.8143   -0.5479   -0.2139 H   0  0  0  0  0  0  0  0  0  0  0  0
   -2.9142    1.2631    2.9685 H   0  0  0  0  0  0  0  0  0  0  0  0
   -5.3698    1.5893    3.2442 H   0  0  0  0  0  0  0  0  0  0  0  0
   -5.6545    3.0337   -0.7777 H   0  0  0  0  0  0  0  0  0  0  0  0
    2.7062    0.5468    0.4200 H   0  0  0  0  0  0  0  0  0  0  0  0
    3.0855   -2.0540   -0.9432 H   0  0  0  0  0  0  0  0  0  0  0  0
    3.1832   -1.9228    0.8195 H   0  0  0  0  0  0  0  0  0  0  0  0
    5.3968   -1.7917   -0.4176 H   0  0  0  0  0  0  0  0  0  0  0  0
    4.8573   -0.2858   -1.1627 H   0  0  0  0  0  0  0  0  0  0  0  0
    6.3487    0.0751    0.8500 H   0  0  0  0  0  0  0  0  0  0  0  0
    5.1808   -0.7903    1.8443 H   0  0  0  0  0  0  0  0  0  0  0  0
    4.8240    1.9452   -0.6378 H   0  0  0  0  0  0  0  0  0  0  0  0
    6.0227    2.3729    0.6270 H   0  0  0  0  0  0  0  0  0  0  0  0
    4.3687    3.0137    0.7023 H   0  0  0  0  0  0  0  0  0  0  0  0
   -1.0871   -3.0589   -3.0314 H   0  0  0  0  0  0  0  0  0  0  0  0
   -1.8182   -4.4447   -2.1919 H   0  0  0  0  0  0  0  0  0  0  0  0
   -0.1315   -4.0169   -1.8760 H   0  0  0  0  0  0  0  0  0  0  0  0
  1  2  1  0
  2  3  2  0
  3  4  1  0
  4  5  2  3
  5  6  1  0
  6  7  2  0
  7  8  1  0
  8  9  2  0
  9 10  1  0
  9 11  1  0
 11 12  2  0
 12 13  1  0
  4 14  1  0
 14 15  2  0
 15 16  1  0
 16 17  1  0
 17 18  1  0
 18 19  1  0
 19 20  1  0
 20 21  1  0
 15 22  1  0
 22 23  2  0
 23 24  1  0
 24 25  1  0
 24  1  1  0
 23  3  1  0
 12  6  1  0
  1 26  1  0
  2 27  1  0
  7 28  1  0
  8 29  1  0
 11 30  1  0
 16 31  1  0
 17 32  1  0
 17 33  1  0
 18 34  1  0
 18 35  1  0
 19 36  1  0
 19 37  1  0
 21 38  1  0
 21 39  1  0
 21 40  1  0
 25 41  1  0
 25 42  1  0
 25 43  1  0
M  END
>  <ScrubInfo>  (5) 
{"isomerGroup": 0, "isomerId": 4, "confId": 0, "nr_conformers:": 1, "nr_isomers:": 9}

$$$$
_i5
     RDKit          3D

 43 45  0  0  0  0  0  0  0  0999 V2000
    0.5318    0.7519   -0.5382 N   0  0  0  0  0  0  0  0  0  0  0  0
    0.6692   -0.4111    0.1759 C   0  0  0  0  0  0  0  0  0  0  0  0
    1.9515   -0.8628    0.3116 N   0  0  0  0  0  0  0  0  0  0  0  0
    2.9941   -0.0196    0.8824 C   0  0  0  0  0  0  0  0  0  0  0  0
    4.3197   -0.7709    0.9524 C   0  0  0  0  0  0  0  0  0  0  0  0
    4.8937   -1.0724   -0.4301 C   0  0  0  0  0  0  0  0  0  0  0  0
    6.1267   -1.7845   -0.3240 O   0  0  0  0  0  0  0  0  0  0  0  0
    7.2524   -0.9385   -0.1334 C   0  0  0  0  0  0  0  0  0  0  0  0
   -0.3046   -1.0953    0.7032 N   0  0  0  0  0  0  0  0  0  0  0  0
   -1.6158   -0.6577    0.5607 C   0  0  0  0  0  0  0  0  0  0  0  0
   -2.5189   -1.3896    1.1314 N   0  0  0  0  0  0  0  0  0  0  0  0
   -3.8864   -1.1056    1.0586 C   0  0  0  0  0  0  0  0  0  0  0  0
   -4.4794   -0.4045    2.1178 C   0  0  0  0  0  0  0  0  0  0  0  0
   -5.8492   -0.1374    2.1138 C   0  0  0  0  0  0  0  0  0  0  0  0
   -6.6310   -0.5872    1.0563 C   0  0  0  0  0  0  0  0  0  0  0  0
   -7.9452   -0.3303    1.0551 F   0  0  0  0  0  0  0  0  0  0  0  0
   -6.0744   -1.3022    0.0039 C   0  0  0  0  0  0  0  0  0  0  0  0
   -4.7043   -1.5687    0.0092 C   0  0  0  0  0  0  0  0  0  0  0  0
   -4.0445   -2.4621   -1.3151 Cl  0  0  0  0  0  0  0  0  0  0  0  0
   -1.8149    0.5651   -0.2012 C   0  0  0  0  0  0  0  0  0  0  0  0
   -2.8878    1.3754   -0.6138 C   0  0  0  0  0  0  0  0  0  0  0  0
   -2.4956    2.4299   -1.3463 N   0  0  0  0  0  0  0  0  0  0  0  0
   -1.1522    2.2935   -1.4115 N   0  0  0  0  0  0  0  0  0  0  0  0
   -0.3848    3.2695   -2.1420 C   0  0  0  0  0  0  0  0  0  0  0  0
   -0.7189    1.2059   -0.7238 C   0  0  0  0  0  0  0  0  0  0  0  0
    1.3302    1.0566   -1.0773 H   0  0  0  0  0  0  0  0  0  0  0  0
    1.9021   -1.7540    0.8077 H   0  0  0  0  0  0  0  0  0  0  0  0
    2.6980    0.2782    1.8952 H   0  0  0  0  0  0  0  0  0  0  0  0
    3.1205    0.8950    0.2924 H   0  0  0  0  0  0  0  0  0  0  0  0
    5.0343   -0.1688    1.5249 H   0  0  0  0  0  0  0  0  0  0  0  0
    4.2047   -1.7087    1.5105 H   0  0  0  0  0  0  0  0  0  0  0  0
    4.2061   -1.7214   -0.9826 H   0  0  0  0  0  0  0  0  0  0  0  0
    5.0264   -0.1591   -1.0222 H   0  0  0  0  0  0  0  0  0  0  0  0
    8.1472   -1.5653   -0.0882 H   0  0  0  0  0  0  0  0  0  0  0  0
    7.3574   -0.2455   -0.9737 H   0  0  0  0  0  0  0  0  0  0  0  0
    7.1732   -0.3834    0.8049 H   0  0  0  0  0  0  0  0  0  0  0  0
   -3.8654   -0.0737    2.9523 H   0  0  0  0  0  0  0  0  0  0  0  0
   -6.3099    0.4087    2.9313 H   0  0  0  0  0  0  0  0  0  0  0  0
   -6.7113   -1.6475   -0.8038 H   0  0  0  0  0  0  0  0  0  0  0  0
   -3.9462    1.2638   -0.4267 H   0  0  0  0  0  0  0  0  0  0  0  0
   -0.6589    3.2008   -3.1977 H   0  0  0  0  0  0  0  0  0  0  0  0
   -0.6218    4.2615   -1.7491 H   0  0  0  0  0  0  0  0  0  0  0  0
    0.6823    3.0720   -2.0212 H   0  0  0  0  0  0  0  0  0  0  0  0
  1  2  1  0
  2  3  1  0
  3  4  1  0
  4  5  1  0
  5  6  1  0
  6  7  1  0
  7  8  1  0
  2  9  2  0
  9 10  1  0
 10 11  2  3
 11 12  1  0
 12 13  2  0
 13 14  1  0
 14 15  2  0
 15 16  1  0
 15 17  1  0
 17 18  2  0
 18 19  1  0
 10 20  1  0
 20 21  1  0
 21 22  2  0
 22 23  1  0
 23 24  1  0
 23 25  1  0
 25  1  1  0
 18 12  1  0
 25 20  2  0
  1 26  1  0
  3 27  1  0
  4 28  1  0
  4 29  1  0
  5 30  1  0
  5 31  1  0
  6 32  1  0
  6 33  1  0
  8 34  1  0
  8 35  1  0
  8 36  1  0
 13 37  1  0
 14 38  1  0
 17 39  1  0
 21 40  1  0
 24 41  1  0
 24 42  1  0
 24 43  1  0
M  END
>  <ScrubInfo>  (6) 
{"isomerGroup": 0, "isomerId": 5, "confId": 0, "nr_conformers:": 1, "nr_isomers:": 9}

$$$$
_i6
     RDKit          3D

 43 45  0  0  0  0  0  0  0  0999 V2000
   -2.6456    4.2335   -0.3033 N   0  0  0  0  0  0  0  0  0  0  0  0
   -3.0099    2.8925   -0.3614 C   0  0  0  0  0  0  0  0  0  0  0  0
   -1.9983    2.0634   -0.0669 C   0  0  0  0  0  0  0  0  0  0  0  0
   -1.7524    0.6198    0.0168 C   0  0  0  0  0  0  0  0  0  0  0  0
   -2.7962   -0.2497   -0.2312 N   0  0  0  0  0  0  0  0  0  0  0  0
   -2.8559   -1.6605   -0.1829 C   0  0  0  0  0  0  0  0  0  0  0  0
   -1.8224   -2.4659    0.3123 C   0  0  0  0  0  0  0  0  0  0  0  0
   -1.9353   -3.8609    0.3253 C   0  0  0  0  0  0  0  0  0  0  0  0
   -3.0867   -4.4658   -0.1582 C   0  0  0  0  0  0  0  0  0  0  0  0
   -3.1883   -5.8007   -0.1426 F   0  0  0  0  0  0  0  0  0  0  0  0
   -4.1341   -3.7069   -0.6541 C   0  0  0  0  0  0  0  0  0  0  0  0
   -4.0153   -2.3165   -0.6638 C   0  0  0  0  0  0  0  0  0  0  0  0
   -5.3446   -1.3936   -1.2878 Cl  0  0  0  0  0  0  0  0  0  0  0  0
   -0.5417    0.2428    0.3138 N   0  0  0  0  0  0  0  0  0  0  0  0
    0.4422    1.1871    0.5231 C   0  0  0  0  0  0  0  0  0  0  0  0
    1.6529    0.8050    0.7300 N   0  0  0  0  0  0  0  0  0  0  0  0
    1.9311   -0.6262    0.7326 C   0  0  0  0  0  0  0  0  0  0  0  0
    3.4221   -0.8504    0.9731 C   0  0  0  0  0  0  0  0  0  0  0  0
    4.2858   -0.2916   -0.1557 C   0  0  0  0  0  0  0  0  0  0  0  0
    5.6684   -0.5935    0.0573 O   0  0  0  0  0  0  0  0  0  0  0  0
    6.0363   -1.8819   -0.4141 C   0  0  0  0  0  0  0  0  0  0  0  0
    0.2843    2.5508    0.5380 N   0  0  0  0  0  0  0  0  0  0  0  0
   -0.8934    2.9874    0.2643 C   0  0  0  0  0  0  0  0  0  0  0  0
   -1.3545    4.3023    0.2078 N   0  0  0  0  0  0  0  0  0  0  0  0
   -0.4789    5.3815   -0.2090 C   0  0  0  0  0  0  0  0  0  0  0  0
   -3.3393    4.8314    0.1526 H   0  0  0  0  0  0  0  0  0  0  0  0
   -4.0277    2.6440   -0.6238 H   0  0  0  0  0  0  0  0  0  0  0  0
   -3.6695    0.1551   -0.5550 H   0  0  0  0  0  0  0  0  0  0  0  0
   -0.9107   -2.0332    0.7113 H   0  0  0  0  0  0  0  0  0  0  0  0
   -1.1274   -4.4741    0.7139 H   0  0  0  0  0  0  0  0  0  0  0  0
   -5.0249   -4.2022   -1.0250 H   0  0  0  0  0  0  0  0  0  0  0  0
    1.6456   -1.0870   -0.2210 H   0  0  0  0  0  0  0  0  0  0  0  0
    1.3763   -1.1196    1.5396 H   0  0  0  0  0  0  0  0  0  0  0  0
    3.7303   -0.3927    1.9215 H   0  0  0  0  0  0  0  0  0  0  0  0
    3.6019   -1.9251    1.0869 H   0  0  0  0  0  0  0  0  0  0  0  0
    3.9618   -0.6616   -1.1358 H   0  0  0  0  0  0  0  0  0  0  0  0
    4.2043    0.8003   -0.1769 H   0  0  0  0  0  0  0  0  0  0  0  0
    7.1052   -2.0206   -0.2301 H   0  0  0  0  0  0  0  0  0  0  0  0
    5.8583   -1.9613   -1.4909 H   0  0  0  0  0  0  0  0  0  0  0  0
    5.4917   -2.6674    0.1161 H   0  0  0  0  0  0  0  0  0  0  0  0
   -0.1835    5.2598   -1.2564 H   0  0  0  0  0  0  0  0  0  0  0  0
    0.4237    5.4066    0.4098 H   0  0  0  0  0  0  0  0  0  0  0  0
   -0.9857    6.3458   -0.1002 H   0  0  0  0  0  0  0  0  0  0  0  0
  1  2  1  0
  2  3  2  0
  3  4  1  0
  4  5  1  0
  5  6  1  0
  6  7  2  0
  7  8  1  0
  8  9  2  0
  9 10  1  0
  9 11  1  0
 11 12  2  0
 12 13  1  0
  4 14  2  0
 14 15  1  0
 15 16  2  3
 16 17  1  0
 17 18  1  0
 18 19  1  0
 19 20  1  0
 20 21  1  0
 15 22  1  0
 22 23  2  0
 23 24  1  0
 24 25  1  0
 24  1  1  0
 23  3  1  0
 12  6  1  0
  1 26  1  0
  2 27  1  0
  5 28  1  0
  7 29  1  0
  8 30  1  0
 11 31  1  0
 17 32  1  0
 17 33  1  0
 18 34  1  0
 18 35  1  0
 19 36  1  0
 19 37  1  0
 21 38  1  0
 21 39  1  0
 21 40  1  0
 25 41  1  0
 25 42  1  0
 25 43  1  0
M  END
>  <ScrubInfo>  (7) 
{"isomerGroup": 0, "isomerId": 6, "confId": 0, "nr_conformers:": 1, "nr_isomers:": 9}

$$$$
_i7
     RDKit          3D

 43 45  0  0  0  0  0  0  0  0999 V2000
   -2.6853   -2.4558    0.0973 N   0  0  0  0  0  0  0  0  0  0  0  0
   -2.7786   -1.0693    0.0722 C   0  0  0  0  0  0  0  0  0  0  0  0
   -1.5965   -0.4543   -0.0765 C   0  0  0  0  0  0  0  0  0  0  0  0
   -1.0301    0.9035   -0.2078 C   0  0  0  0  0  0  0  0  0  0  0  0
   -1.6352    2.0545   -0.1813 N   0  0  0  0  0  0  0  0  0  0  0  0
   -3.0266    2.1426   -0.0337 C   0  0  0  0  0  0  0  0  0  0  0  0
   -3.5491    2.3508    1.2500 C   0  0  0  0  0  0  0  0  0  0  0  0
   -4.9250    2.4816    1.4435 C   0  0  0  0  0  0  0  0  0  0  0  0
   -5.7790    2.4191    0.3486 C   0  0  0  0  0  0  0  0  0  0  0  0
   -7.0989    2.5419    0.5373 F   0  0  0  0  0  0  0  0  0  0  0  0
   -5.2878    2.2334   -0.9371 C   0  0  0  0  0  0  0  0  0  0  0  0
   -3.9115    2.1031   -1.1289 C   0  0  0  0  0  0  0  0  0  0  0  0
   -3.3324    1.8722   -2.7408 Cl  0  0  0  0  0  0  0  0  0  0  0  0
    0.3265    0.8802   -0.3792 N   0  0  0  0  0  0  0  0  0  0  0  0
    1.1402   -0.2147   -0.4348 C   0  0  0  0  0  0  0  0  0  0  0  0
    2.4011   -0.0293   -0.6400 N   0  0  0  0  0  0  0  0  0  0  0  0
    3.2668   -1.2037   -0.6783 C   0  0  0  0  0  0  0  0  0  0  0  0
    4.7287   -0.7674   -0.8135 C   0  0  0  0  0  0  0  0  0  0  0  0
    5.3172   -0.2023    0.4792 C   0  0  0  0  0  0  0  0  0  0  0  0
    4.9013    1.1471    0.6754 O   0  0  0  0  0  0  0  0  0  0  0  0
    5.3909    1.6780    1.8976 C   0  0  0  0  0  0  0  0  0  0  0  0
    0.6451   -1.4916   -0.2737 N   0  0  0  0  0  0  0  0  0  0  0  0
   -0.6328   -1.6136   -0.0908 C   0  0  0  0  0  0  0  0  0  0  0  0
   -1.3421   -2.7997    0.1159 N   0  0  0  0  0  0  0  0  0  0  0  0
   -0.9222   -4.0372   -0.5146 C   0  0  0  0  0  0  0  0  0  0  0  0
   -3.2740   -2.8944    0.8090 H   0  0  0  0  0  0  0  0  0  0  0  0
   -3.7583   -0.6275    0.1691 H   0  0  0  0  0  0  0  0  0  0  0  0
   -2.8738    2.4185    2.0998 H   0  0  0  0  0  0  0  0  0  0  0  0
   -5.3326    2.6416    2.4371 H   0  0  0  0  0  0  0  0  0  0  0  0
   -5.9782    2.1978   -1.7734 H   0  0  0  0  0  0  0  0  0  0  0  0
    0.7953    1.7656   -0.5036 H   0  0  0  0  0  0  0  0  0  0  0  0
    3.0119   -1.8161   -1.5521 H   0  0  0  0  0  0  0  0  0  0  0  0
    3.1511   -1.8205    0.2212 H   0  0  0  0  0  0  0  0  0  0  0  0
    5.3136   -1.6527   -1.0910 H   0  0  0  0  0  0  0  0  0  0  0  0
    4.8252   -0.0342   -1.6230 H   0  0  0  0  0  0  0  0  0  0  0  0
    6.4109   -0.2154    0.4031 H   0  0  0  0  0  0  0  0  0  0  0  0
    5.0243   -0.8172    1.3382 H   0  0  0  0  0  0  0  0  0  0  0  0
    5.0488    2.7127    1.9857 H   0  0  0  0  0  0  0  0  0  0  0  0
    6.4851    1.6696    1.9091 H   0  0  0  0  0  0  0  0  0  0  0  0
    5.0007    1.1084    2.7465 H   0  0  0  0  0  0  0  0  0  0  0  0
   -1.0088   -3.9676   -1.6040 H   0  0  0  0  0  0  0  0  0  0  0  0
   -1.5428   -4.8703   -0.1688 H   0  0  0  0  0  0  0  0  0  0  0  0
    0.1171   -4.2673   -0.2591 H   0  0  0  0  0  0  0  0  0  0  0  0
  1  2  1  0
  2  3  2  0
  3  4  1  0
  4  5  2  3
  5  6  1  0
  6  7  2  0
  7  8  1  0
  8  9  2  0
  9 10  1  0
  9 11  1  0
 11 12  2  0
 12 13  1  0
  4 14  1  0
 14 15  1  0
 15 16  2  3
 16 17  1  0
 17 18  1  0
 18 19  1  0
 19 20  1  0
 20 21  1  0
 15 22  1  0
 22 23  2  0
 23 24  1  0
 24 25  1  0
 24  1  1  0
 23  3  1  0
 12  6  1  0
  1 26  1  0
  2 27  1  0
  7 28  1  0
  8 29  1  0
 11 30  1  0
 14 31  1  0
 17 32  1  0
 17 33  1  0
 18 34  1  0
 18 35  1  0
 19 36  1  0
 19 37  1  0
 21 38  1  0
 21 39  1  0
 21 40  1  0
 25 41  1  0
 25 42  1  0
 25 43  1  0
M  END
>  <ScrubInfo>  (8) 
{"isomerGroup": 0, "isomerId": 7, "confId": 0, "nr_conformers:": 1, "nr_isomers:": 9}

$$$$
_i8
     RDKit          3D

 43 45  0  0  0  0  0  0  0  0999 V2000
   -0.8149   -0.3982    0.7069 N   0  0  0  0  0  0  0  0  0  0  0  0
   -0.8491    0.8633    0.1369 C   0  0  0  0  0  0  0  0  0  0  0  0
   -1.8787    1.5735   -0.1731 N   0  0  0  0  0  0  0  0  0  0  0  0
   -3.2284    1.0784    0.0883 C   0  0  0  0  0  0  0  0  0  0  0  0
   -3.7463    0.3429   -1.1454 C   0  0  0  0  0  0  0  0  0  0  0  0
   -5.1153   -0.2905   -0.9114 C   0  0  0  0  0  0  0  0  0  0  0  0
   -6.0793    0.6290   -0.4061 O   0  0  0  0  0  0  0  0  0  0  0  0
   -6.5743    1.5233   -1.3949 C   0  0  0  0  0  0  0  0  0  0  0  0
    0.4032    1.3766   -0.1207 N   0  0  0  0  0  0  0  0  0  0  0  0
    1.6669    0.8628    0.0716 C   0  0  0  0  0  0  0  0  0  0  0  0
    2.7243    1.5354   -0.2719 N   0  0  0  0  0  0  0  0  0  0  0  0
    4.0219    1.0295   -0.1258 C   0  0  0  0  0  0  0  0  0  0  0  0
    4.7525    1.3815    1.0173 C   0  0  0  0  0  0  0  0  0  0  0  0
    6.0653    0.9379    1.1842 C   0  0  0  0  0  0  0  0  0  0  0  0
    6.6541    0.1546    0.1983 C   0  0  0  0  0  0  0  0  0  0  0  0
    7.9141   -0.2685    0.3607 F   0  0  0  0  0  0  0  0  0  0  0  0
    5.9610   -0.1922   -0.9541 C   0  0  0  0  0  0  0  0  0  0  0  0
    4.6485    0.2521   -1.1198 C   0  0  0  0  0  0  0  0  0  0  0  0
    3.8146   -0.1902   -2.5680 Cl  0  0  0  0  0  0  0  0  0  0  0  0
    1.6007   -0.4545    0.6822 C   0  0  0  0  0  0  0  0  0  0  0  0
    2.5044   -1.4381    1.1244 C   0  0  0  0  0  0  0  0  0  0  0  0
    1.8938   -2.5174    1.6350 N   0  0  0  0  0  0  0  0  0  0  0  0
    0.5800   -2.2251    1.5278 N   0  0  0  0  0  0  0  0  0  0  0  0
   -0.3955   -3.1827    1.9850 C   0  0  0  0  0  0  0  0  0  0  0  0
    0.3675   -1.0044    0.9636 C   0  0  0  0  0  0  0  0  0  0  0  0
   -1.7015   -0.8379    0.9090 H   0  0  0  0  0  0  0  0  0  0  0  0
   -3.2798    0.4481    0.9827 H   0  0  0  0  0  0  0  0  0  0  0  0
   -3.8651    1.9454    0.2988 H   0  0  0  0  0  0  0  0  0  0  0  0
   -3.0410   -0.4421   -1.4440 H   0  0  0  0  0  0  0  0  0  0  0  0
   -3.7959    1.0485   -1.9831 H   0  0  0  0  0  0  0  0  0  0  0  0
   -5.0157   -1.0846   -0.1628 H   0  0  0  0  0  0  0  0  0  0  0  0
   -5.4870   -0.7636   -1.8279 H   0  0  0  0  0  0  0  0  0  0  0  0
   -7.3584    2.1343   -0.9394 H   0  0  0  0  0  0  0  0  0  0  0  0
   -7.0085    0.9702   -2.2332 H   0  0  0  0  0  0  0  0  0  0  0  0
   -5.7840    2.1902   -1.7495 H   0  0  0  0  0  0  0  0  0  0  0  0
    0.3872    2.2901   -0.5513 H   0  0  0  0  0  0  0  0  0  0  0  0
    4.2928    2.0087    1.7774 H   0  0  0  0  0  0  0  0  0  0  0  0
    6.6322    1.2046    2.0710 H   0  0  0  0  0  0  0  0  0  0  0  0
    6.4498   -0.7982   -1.7099 H   0  0  0  0  0  0  0  0  0  0  0  0
    3.5848   -1.4372    1.1082 H   0  0  0  0  0  0  0  0  0  0  0  0
   -0.6464   -3.8379    1.1476 H   0  0  0  0  0  0  0  0  0  0  0  0
   -1.2846   -2.6547    2.3372 H   0  0  0  0  0  0  0  0  0  0  0  0
    0.0301   -3.7631    2.8079 H   0  0  0  0  0  0  0  0  0  0  0  0
  1  2  1  0
  2  3  2  3
  3  4  1  0
  4  5  1  0
  5  6  1  0
  6  7  1  0
  7  8  1  0
  2  9  1  0
  9 10  1  0
 10 11  2  3
 11 12  1  0
 12 13  2  0
 13 14  1  0
 14 15  2  0
 15 16  1  0
 15 17  1  0
 17 18  2  0
 18 19  1  0
 10 20  1  0
 20 21  1  0
 21 22  2  0
 22 23  1  0
 23 24  1  0
 23 25  1  0
 25  1  1  0
 18 12  1  0
 25 20  2  0
  1 26  1  0
  4 27  1  0
  4 28  1  0
  5 29  1  0
  5 30  1  0
  6 31  1  0
  6 32  1  0
  8 33  1  0
  8 34  1  0
  8 35  1  0
  9 36  1  0
 13 37  1  0
 14 38  1  0
 17 39  1  0
 21 40  1  0
 24 41  1  0
 24 42  1  0
 24 43  1  0
M  END
>  <ScrubInfo>  (9) 
{"isomerGroup": 0, "isomerId": 8, "confId": 0, "nr_conformers:": 1, "nr_isomers:": 9}

$$$$
