_i0
     RDKit          3D

 43 45  0  0  0  0  0  0  0  0999 V2000
    5.8353    2.1438   -0.3483 C   0  0  0  0  0  0  0  0  0  0  0  0
    4.6634    1.3399   -0.3780 O   0  0  0  0  0  0  0  0  0  0  0  0
    3.4793    2.1333   -0.2204 C   0  0  0  0  0  0  0  0  0  0  0  0
    2.2527    1.2138   -0.2222 C   0  0  0  0  0  0  0  0  0  0  0  0
    2.3015    0.3385    0.9441 N   0  0  0  0  0  0  0  0  0  0  0  0
    1.3405   -0.6662    0.9330 C   0  0  0  0  0  0  0  0  0  0  0  0
    0.1061   -0.3937    0.4670 N   0  0  0  0  0  0  0  0  0  0  0  0
   -0.8602   -1.3483    0.4445 C   0  0  0  0  0  0  0  0  0  0  0  0
   -2.1455   -1.0935   -0.0506 N   0  0  0  0  0  0  0  0  0  0  0  0
   -2.7870    0.0755   -0.5063 C   0  0  0  0  0  0  0  0  0  0  0  0
   -2.2246    1.3510   -0.3896 C   0  0  0  0  0  0  0  0  0  0  0  0
   -2.8861    2.4891   -0.8697 C   0  0  0  0  0  0  0  0  0  0  0  0
   -4.1393    2.3839   -1.4774 C   0  0  0  0  0  0  0  0  0  0  0  0
   -4.8288    3.5998   -2.0202 C   0  0  0  0  0  0  0  0  0  0  0  0
   -4.7123    1.1179   -1.6194 C   0  0  0  0  0  0  0  0  0  0  0  0
   -4.0461   -0.0152   -1.1361 C   0  0  0  0  0  0  0  0  0  0  0  0
   -4.9038   -1.7023   -1.3608 Br  0  0  0  0  0  0  0  0  0  0  0  0
   -0.5027   -2.6168    0.9187 C   0  0  0  0  0  0  0  0  0  0  0  0
   -1.0989   -3.8834    1.0951 C   0  0  0  0  0  0  0  0  0  0  0  0
   -0.2610   -4.7865    1.6164 N   0  0  0  0  0  0  0  0  0  0  0  0
    0.8850   -4.0845    1.7806 N   0  0  0  0  0  0  0  0  0  0  0  0
    2.0429   -4.7366    2.3383 C   0  0  0  0  0  0  0  0  0  0  0  0
    0.7905   -2.7819    1.3735 C   0  0  0  0  0  0  0  0  0  0  0  0
    1.7518   -1.8487    1.4052 N   0  0  0  0  0  0  0  0  0  0  0  0
    5.8200    2.8736   -1.1635 H   0  0  0  0  0  0  0  0  0  0  0  0
    6.7033    1.4921   -0.4789 H   0  0  0  0  0  0  0  0  0  0  0  0
    5.9243    2.6555    0.6148 H   0  0  0  0  0  0  0  0  0  0  0  0
    3.5356    2.6911    0.7219 H   0  0  0  0  0  0  0  0  0  0  0  0
    3.4078    2.8409   -1.0539 H   0  0  0  0  0  0  0  0  0  0  0  0
    2.2570    0.6168   -1.1429 H   0  0  0  0  0  0  0  0  0  0  0  0
    1.3482    1.8323   -0.2000 H   0  0  0  0  0  0  0  0  0  0  0  0
    3.1988   -0.1320    1.0398 H   0  0  0  0  0  0  0  0  0  0  0  0
   -2.7391   -1.9122   -0.1060 H   0  0  0  0  0  0  0  0  0  0  0  0
   -1.2621    1.4925    0.0921 H   0  0  0  0  0  0  0  0  0  0  0  0
   -2.4085    3.4604   -0.7575 H   0  0  0  0  0  0  0  0  0  0  0  0
   -4.5708    4.4891   -1.4356 H   0  0  0  0  0  0  0  0  0  0  0  0
   -5.9169    3.4852   -1.9731 H   0  0  0  0  0  0  0  0  0  0  0  0
   -4.5346    3.7633   -3.0615 H   0  0  0  0  0  0  0  0  0  0  0  0
   -5.6791    1.0145   -2.1065 H   0  0  0  0  0  0  0  0  0  0  0  0
   -2.1114   -4.1893    0.8663 H   0  0  0  0  0  0  0  0  0  0  0  0
    2.3188   -5.5665    1.6828 H   0  0  0  0  0  0  0  0  0  0  0  0
    1.7833   -5.1060    3.3337 H   0  0  0  0  0  0  0  0  0  0  0  0
    2.8729   -4.0303    2.4109 H   0  0  0  0  0  0  0  0  0  0  0  0
  1  2  1  0
  2  3  1  0
  3  4  1  0
  4  5  1  0
  5  6  1  0
  6  7  2  0
  7  8  1  0
  8  9  1  0
  9 10  1  0
 10 11  2  0
 11 12  1  0
 12 13  2  0
 13 14  1  0
 13 15  1  0
 15 16  2  0
 16 17  1  0
  8 18  2  0
 18 19  1  0
 19 20  2  0
 20 21  1  0
 21 22  1  0
 21 23  1  0
 23 24  2  0
 24  6  1  0
 16 10  1  0
 23 18  1  0
  1 25  1  0
  1 26  1  0
  1 27  1  0
  3 28  1  0
  3 29  1  0
  4 30  1  0
  4 31  1  0
  5 32  1  0
  9 33  1  0
 11 34  1  0
 12 35  1  0
 14 36  1  0
 14 37  1  0
 14 38  1  0
 15 39  1  0
 19 40  1  0
 22 41  1  0
 22 42  1  0
 22 43  1  0
M  END
>  <ScrubInfo>  (1) 
{"isomerGroup": 0, "isomerId": 0, "confId": 0, "nr_conformers:": 1, "nr_isomers:": 9}

$$$$
_i1
     RDKit          3D

 43 45  0  0  0  0  0  0  0  0999 V2000
    1.1170   -0.0545   -0.1998 N   0  0  0  0  0  0  0  0  0  0  0  0
   -0.1813   -0.1671   -0.6627 C   0  0  0  0  0  0  0  0  0  0  0  0
   -0.9299    0.9574   -0.9404 N   0  0  0  0  0  0  0  0  0  0  0  0
   -2.2006    1.3103   -0.4206 C   0  0  0  0  0  0  0  0  0  0  0  0
   -2.8772    0.5254    0.5233 C   0  0  0  0  0  0  0  0  0  0  0  0
   -4.1581    0.8711    0.9709 C   0  0  0  0  0  0  0  0  0  0  0  0
   -4.8074    2.0030    0.4714 C   0  0  0  0  0  0  0  0  0  0  0  0
   -6.1663    2.3875    0.9772 C   0  0  0  0  0  0  0  0  0  0  0  0
   -4.1451    2.8027   -0.4640 C   0  0  0  0  0  0  0  0  0  0  0  0
   -2.8644    2.4546   -0.9087 C   0  0  0  0  0  0  0  0  0  0  0  0
   -2.0362    3.5924   -2.1911 Br  0  0  0  0  0  0  0  0  0  0  0  0
   -0.6040   -1.4164   -0.8887 C   0  0  0  0  0  0  0  0  0  0  0  0
   -1.7888   -2.0818   -1.4414 C   0  0  0  0  0  0  0  0  0  0  0  0
   -1.6780   -3.3866   -1.4645 N   0  0  0  0  0  0  0  0  0  0  0  0
   -0.4262   -3.6653   -0.8888 N   0  0  0  0  0  0  0  0  0  0  0  0
    0.1434   -4.9801   -1.0596 C   0  0  0  0  0  0  0  0  0  0  0  0
    0.3083   -2.5331   -0.5740 C   0  0  0  0  0  0  0  0  0  0  0  0
    1.5089   -2.4132   -0.1224 N   0  0  0  0  0  0  0  0  0  0  0  0
    1.9393   -1.1224    0.0918 C   0  0  0  0  0  0  0  0  0  0  0  0
    3.1307   -1.0603    0.5698 N   0  0  0  0  0  0  0  0  0  0  0  0
    3.7215    0.2435    0.8423 C   0  0  0  0  0  0  0  0  0  0  0  0
    5.0967    0.0496    1.4847 C   0  0  0  0  0  0  0  0  0  0  0  0
    5.7208    1.3097    1.7486 O   0  0  0  0  0  0  0  0  0  0  0  0
    6.4714    1.7900    0.6410 C   0  0  0  0  0  0  0  0  0  0  0  0
    1.4278    0.8701    0.0472 H   0  0  0  0  0  0  0  0  0  0  0  0
   -0.3808    1.7865   -1.1549 H   0  0  0  0  0  0  0  0  0  0  0  0
   -2.4149   -0.3575    0.9568 H   0  0  0  0  0  0  0  0  0  0  0  0
   -4.6440    0.2448    1.7174 H   0  0  0  0  0  0  0  0  0  0  0  0
   -6.0697    3.0432    1.8479 H   0  0  0  0  0  0  0  0  0  0  0  0
   -6.7420    1.5010    1.2635 H   0  0  0  0  0  0  0  0  0  0  0  0
   -6.7380    2.9090    0.2023 H   0  0  0  0  0  0  0  0  0  0  0  0
   -4.6308    3.6968   -0.8489 H   0  0  0  0  0  0  0  0  0  0  0  0
   -2.6468   -1.5050   -1.8097 H   0  0  0  0  0  0  0  0  0  0  0  0
   -0.6358   -5.7481   -1.0181 H   0  0  0  0  0  0  0  0  0  0  0  0
    0.6506   -5.0531   -2.0266 H   0  0  0  0  0  0  0  0  0  0  0  0
    0.8679   -5.1975   -0.2682 H   0  0  0  0  0  0  0  0  0  0  0  0
    3.0970    0.8303    1.5273 H   0  0  0  0  0  0  0  0  0  0  0  0
    3.8223    0.8191   -0.0848 H   0  0  0  0  0  0  0  0  0  0  0  0
    4.9739   -0.4571    2.4487 H   0  0  0  0  0  0  0  0  0  0  0  0
    5.7445   -0.5877    0.8703 H   0  0  0  0  0  0  0  0  0  0  0  0
    5.8313    1.9389   -0.2327 H   0  0  0  0  0  0  0  0  0  0  0  0
    7.2832    1.0969    0.4001 H   0  0  0  0  0  0  0  0  0  0  0  0
    6.9097    2.7530    0.9169 H   0  0  0  0  0  0  0  0  0  0  0  0
  1  2  1  0
  2  3  1  0
  3  4  1  0
  4  5  2  0
  5  6  1  0
  6  7  2  0
  7  8  1  0
  7  9  1  0
  9 10  2  0
 10 11  1  0
  2 12  2  0
 12 13  1  0
 13 14  2  0
 14 15  1  0
 15 16  1  0
 15 17  1  0
 17 18  2  0
 18 19  1  0
 19 20  2  3
 20 21  1  0
 21 22  1  0
 22 23  1  0
 23 24  1  0
 19  1  1  0
 10  4  1  0
 17 12  1  0
  1 25  1  0
  3 26  1  0
  5 27  1  0
  6 28  1  0
  8 29  1  0
  8 30  1  0
  8 31  1  0
  9 32  1  0
 13 33  1  0
 16 34  1  0
 16 35  1  0
 16 36  1  0
 21 37  1  0
 21 38  1  0
 22 39  1  0
 22 40  1  0
 24 41  1  0
 24 42  1  0
 24 43  1  0
M  END
>  <ScrubInfo>  (2) 
{"isomerGroup": 0, "isomerId": 1, "confId": 0, "nr_conformers:": 1, "nr_isomers:": 9}

$$$$
_i2
     RDKit          3D

 43 45  0  0  0  0  0  0  0  0999 V2000
   -0.3036   -0.5667   -0.0579 N   0  0  0  0  0  0  0  0  0  0  0  0
    1.0178   -0.7360   -0.4158 C   0  0  0  0  0  0  0  0  0  0  0  0
    1.7263    0.4373   -0.3620 N   0  0  0  0  0  0  0  0  0  0  0  0
    3.1665    0.4319   -0.6178 C   0  0  0  0  0  0  0  0  0  0  0  0
    3.6929    1.8601   -0.7765 C   0  0  0  0  0  0  0  0  0  0  0  0
    5.1119    1.8295   -0.9300 O   0  0  0  0  0  0  0  0  0  0  0  0
    5.6486    3.1321   -1.1200 C   0  0  0  0  0  0  0  0  0  0  0  0
    1.5384   -1.8812   -0.7761 N   0  0  0  0  0  0  0  0  0  0  0  0
    0.6217   -2.8878   -0.7320 C   0  0  0  0  0  0  0  0  0  0  0  0
   -0.7121   -2.8099   -0.3844 C   0  0  0  0  0  0  0  0  0  0  0  0
   -1.2028   -4.1173   -0.4991 C   0  0  0  0  0  0  0  0  0  0  0  0
   -0.2568   -4.9807   -0.8931 N   0  0  0  0  0  0  0  0  0  0  0  0
    0.8476   -4.2034   -1.0276 N   0  0  0  0  0  0  0  0  0  0  0  0
    2.0881   -4.8049   -1.4465 C   0  0  0  0  0  0  0  0  0  0  0  0
   -1.2818   -1.5390   -0.0197 C   0  0  0  0  0  0  0  0  0  0  0  0
   -2.5409   -1.4803    0.2599 N   0  0  0  0  0  0  0  0  0  0  0  0
   -3.0831   -0.2322    0.6105 C   0  0  0  0  0  0  0  0  0  0  0  0
   -3.7210    0.5162   -0.3845 C   0  0  0  0  0  0  0  0  0  0  0  0
   -4.2789    1.7647   -0.0971 C   0  0  0  0  0  0  0  0  0  0  0  0
   -4.2092    2.2901    1.1973 C   0  0  0  0  0  0  0  0  0  0  0  0
   -4.8456    3.6108    1.5172 C   0  0  0  0  0  0  0  0  0  0  0  0
   -3.5998    1.5337    2.2063 C   0  0  0  0  0  0  0  0  0  0  0  0
   -3.0420    0.2834    1.9155 C   0  0  0  0  0  0  0  0  0  0  0  0
   -2.2248   -0.6771    3.3361 Br  0  0  0  0  0  0  0  0  0  0  0  0
   -0.6234    0.3803    0.0508 H   0  0  0  0  0  0  0  0  0  0  0  0
    1.4877    1.0088    0.4405 H   0  0  0  0  0  0  0  0  0  0  0  0
    3.6897   -0.0677    0.2063 H   0  0  0  0  0  0  0  0  0  0  0  0
    3.3979   -0.1311   -1.5304 H   0  0  0  0  0  0  0  0  0  0  0  0
    3.2343    2.3309   -1.6545 H   0  0  0  0  0  0  0  0  0  0  0  0
    3.4380    2.4556    0.1084 H   0  0  0  0  0  0  0  0  0  0  0  0
    6.7332    3.0456   -1.2261 H   0  0  0  0  0  0  0  0  0  0  0  0
    5.4311    3.7658   -0.2548 H   0  0  0  0  0  0  0  0  0  0  0  0
    5.2431    3.5842   -2.0302 H   0  0  0  0  0  0  0  0  0  0  0  0
   -2.2063   -4.4779   -0.3142 H   0  0  0  0  0  0  0  0  0  0  0  0
    2.8718   -4.0468   -1.5086 H   0  0  0  0  0  0  0  0  0  0  0  0
    1.9351   -5.2598   -2.4284 H   0  0  0  0  0  0  0  0  0  0  0  0
    2.3662   -5.5654   -0.7125 H   0  0  0  0  0  0  0  0  0  0  0  0
   -3.7919    0.1146   -1.3930 H   0  0  0  0  0  0  0  0  0  0  0  0
   -4.7775    2.3179   -0.8907 H   0  0  0  0  0  0  0  0  0  0  0  0
   -5.8866    3.4611    1.8196 H   0  0  0  0  0  0  0  0  0  0  0  0
   -4.8214    4.2766    0.6481 H   0  0  0  0  0  0  0  0  0  0  0  0
   -4.3097    4.1157    2.3277 H   0  0  0  0  0  0  0  0  0  0  0  0
   -3.5686    1.9181    3.2237 H   0  0  0  0  0  0  0  0  0  0  0  0
  1  2  1  0
  2  3  1  0
  3  4  1  0
  4  5  1  0
  5  6  1  0
  6  7  1  0
  2  8  2  0
  8  9  1  0
  9 10  2  0
 10 11  1  0
 11 12  2  0
 12 13  1  0
 13 14  1  0
 10 15  1  0
 15 16  2  3
 16 17  1  0
 17 18  2  0
 18 19  1  0
 19 20  2  0
 20 21  1  0
 20 22  1  0
 22 23  2  0
 23 24  1  0
 15  1  1  0
 23 17  1  0
 13  9  1  0
  1 25  1  0
  3 26  1  0
  4 27  1  0
  4 28  1  0
  5 29  1  0
  5 30  1  0
  7 31  1  0
  7 32  1  0
  7 33  1  0
 11 34  1  0
 14 35  1  0
 14 36  1  0
 14 37  1  0
 18 38  1  0
 19 39  1  0
 21 40  1  0
 21 41  1  0
 21 42  1  0
 22 43  1  0
M  END
>  <ScrubInfo>  (3) 
{"isomerGroup": 0, "isomerId": 2, "confId": 0, "nr_conformers:": 1, "nr_isomers:": 9}

$$$$
_i3
     RDKit          3D

 43 45  0  0  0  0  0  0  0  0999 V2000
    1.7024   -2.0221    0.0644 N   0  0  0  0  0  0  0  0  0  0  0  0
    1.3787   -0.6863    0.2296 C   0  0  0  0  0  0  0  0  0  0  0  0
    2.1955    0.2680    0.5014 N   0  0  0  0  0  0  0  0  0  0  0  0
    3.6208   -0.0150    0.6593 C   0  0  0  0  0  0  0  0  0  0  0  0
    4.3995    1.3040    0.6648 C   0  0  0  0  0  0  0  0  0  0  0  0
    4.6531    1.7123   -0.6840 O   0  0  0  0  0  0  0  0  0  0  0  0
    5.2299    3.0092   -0.7360 C   0  0  0  0  0  0  0  0  0  0  0  0
    0.0685   -0.2523    0.1176 N   0  0  0  0  0  0  0  0  0  0  0  0
   -0.8927   -1.0822   -0.1599 C   0  0  0  0  0  0  0  0  0  0  0  0
   -2.2297   -0.8101   -0.3048 N   0  0  0  0  0  0  0  0  0  0  0  0
   -2.9168    0.4209   -0.2189 C   0  0  0  0  0  0  0  0  0  0  0  0
   -2.2835    1.6440    0.0266 C   0  0  0  0  0  0  0  0  0  0  0  0
   -3.0097    2.8402    0.1059 C   0  0  0  0  0  0  0  0  0  0  0  0
   -4.3954    2.8497   -0.0681 C   0  0  0  0  0  0  0  0  0  0  0  0
   -5.1699    4.1280    0.0513 C   0  0  0  0  0  0  0  0  0  0  0  0
   -5.0507    1.6382   -0.2981 C   0  0  0  0  0  0  0  0  0  0  0  0
   -4.3195    0.4466   -0.3765 C   0  0  0  0  0  0  0  0  0  0  0  0
   -5.2914   -1.1605   -0.7037 Br  0  0  0  0  0  0  0  0  0  0  0  0
   -0.5842   -2.4884   -0.3490 C   0  0  0  0  0  0  0  0  0  0  0  0
   -1.2742   -3.6754   -0.6492 C   0  0  0  0  0  0  0  0  0  0  0  0
   -0.4611   -4.7409   -0.7081 N   0  0  0  0  0  0  0  0  0  0  0  0
    0.7655   -4.2278   -0.4461 N   0  0  0  0  0  0  0  0  0  0  0  0
    1.9051   -5.1092   -0.4345 C   0  0  0  0  0  0  0  0  0  0  0  0
    0.7183   -2.8884   -0.2249 C   0  0  0  0  0  0  0  0  0  0  0  0
    2.6734   -2.2785    0.1483 H   0  0  0  0  0  0  0  0  0  0  0  0
    3.7744   -0.5217    1.6185 H   0  0  0  0  0  0  0  0  0  0  0  0
    3.9953   -0.6486   -0.1527 H   0  0  0  0  0  0  0  0  0  0  0  0
    5.3664    1.1505    1.1573 H   0  0  0  0  0  0  0  0  0  0  0  0
    3.8447    2.0828    1.2012 H   0  0  0  0  0  0  0  0  0  0  0  0
    4.5404    3.7519   -0.3233 H   0  0  0  0  0  0  0  0  0  0  0  0
    6.1778    3.0298   -0.1898 H   0  0  0  0  0  0  0  0  0  0  0  0
    5.4240    3.2582   -1.7827 H   0  0  0  0  0  0  0  0  0  0  0  0
   -2.8560   -1.5774   -0.5112 H   0  0  0  0  0  0  0  0  0  0  0  0
   -1.2071    1.7058    0.1635 H   0  0  0  0  0  0  0  0  0  0  0  0
   -2.4724    3.7658    0.3047 H   0  0  0  0  0  0  0  0  0  0  0  0
   -4.5673    4.9821   -0.2751 H   0  0  0  0  0  0  0  0  0  0  0  0
   -5.4737    4.2859    1.0907 H   0  0  0  0  0  0  0  0  0  0  0  0
   -6.0648    4.1026   -0.5793 H   0  0  0  0  0  0  0  0  0  0  0  0
   -6.1316    1.6237   -0.4171 H   0  0  0  0  0  0  0  0  0  0  0  0
   -2.3299   -3.8282   -0.8301 H   0  0  0  0  0  0  0  0  0  0  0  0
    1.9948   -5.5689   -1.4220 H   0  0  0  0  0  0  0  0  0  0  0  0
    2.8114   -4.5451   -0.2054 H   0  0  0  0  0  0  0  0  0  0  0  0
    1.7418   -5.8733    0.3298 H   0  0  0  0  0  0  0  0  0  0  0  0
  1  2  1  0
  2  3  2  3
  3  4  1  0
  4  5  1  0
  5  6  1  0
  6  7  1  0
  2  8  1  0
  8  9  2  0
  9 10  1  0
 10 11  1  0
 11 12  2  0
 12 13  1  0
 13 14  2  0
 14 15  1  0
 14 16  1  0
 16 17  2  0
 17 18  1  0
  9 19  1  0
 19 20  1  0
 20 21  2  0
 21 22  1  0
 22 23  1  0
 22 24  1  0
 24  1  1  0
 17 11  1  0
 24 19  2  0
  1 25  1  0
  4 26  1  0
  4 27  1  0
  5 28  1  0
  5 29  1  0
  7 30  1  0
  7 31  1  0
  7 32  1  0
 10 33  1  0
 12 34  1  0
 13 35  1  0
 15 36  1  0
 15 37  1  0
 15 38  1  0
 16 39  1  0
 20 40  1  0
 23 41  1  0
 23 42  1  0
 23 43  1  0
M  END
>  <ScrubInfo>  (4) 
{"isomerGroup": 0, "isomerId": 3, "confId": 0, "nr_conformers:": 1, "nr_isomers:": 9}

$$$$
_i4
     RDKit          3D

 43 45  0  0  0  0  0  0  0  0999 V2000
   -1.4057   -2.8049   -1.1120 N   0  0  0  0  0  0  0  0  0  0  0  0
   -1.6709   -1.5566   -0.5540 C   0  0  0  0  0  0  0  0  0  0  0  0
   -0.6178   -0.7230   -0.5723 C   0  0  0  0  0  0  0  0  0  0  0  0
   -0.2666    0.6193   -0.1254 C   0  0  0  0  0  0  0  0  0  0  0  0
   -0.9949    1.5541    0.3890 N   0  0  0  0  0  0  0  0  0  0  0  0
   -2.3721    1.3715    0.5746 C   0  0  0  0  0  0  0  0  0  0  0  0
   -2.8249    0.9897    1.8427 C   0  0  0  0  0  0  0  0  0  0  0  0
   -4.1874    0.8085    2.0952 C   0  0  0  0  0  0  0  0  0  0  0  0
   -5.1278    1.0115    1.0800 C   0  0  0  0  0  0  0  0  0  0  0  0
   -6.5939    0.8563    1.3583 C   0  0  0  0  0  0  0  0  0  0  0  0
   -4.6868    1.4318   -0.1812 C   0  0  0  0  0  0  0  0  0  0  0  0
   -3.3213    1.6140   -0.4310 C   0  0  0  0  0  0  0  0  0  0  0  0
   -2.8053    2.1891   -2.1664 Br  0  0  0  0  0  0  0  0  0  0  0  0
    1.0599    0.9235   -0.2737 N   0  0  0  0  0  0  0  0  0  0  0  0
    1.9312    0.1048   -0.7790 C   0  0  0  0  0  0  0  0  0  0  0  0
    3.2345    0.4806   -0.9093 N   0  0  0  0  0  0  0  0  0  0  0  0
    3.8028    1.5966   -0.1782 C   0  0  0  0  0  0  0  0  0  0  0  0
    5.2930    1.7338   -0.5124 C   0  0  0  0  0  0  0  0  0  0  0  0
    6.0286    0.5345   -0.2324 O   0  0  0  0  0  0  0  0  0  0  0  0
    6.2992    0.3540    1.1513 C   0  0  0  0  0  0  0  0  0  0  0  0
    1.6669   -1.1671   -1.2084 N   0  0  0  0  0  0  0  0  0  0  0  0
    0.4479   -1.5717   -1.1382 C   0  0  0  0  0  0  0  0  0  0  0  0
   -0.0803   -2.8038   -1.5020 N   0  0  0  0  0  0  0  0  0  0  0  0
    0.6931   -4.0172   -1.6048 C   0  0  0  0  0  0  0  0  0  0  0  0
   -1.7252   -3.5790   -0.5264 H   0  0  0  0  0  0  0  0  0  0  0  0
   -2.6531   -1.3844   -0.1396 H   0  0  0  0  0  0  0  0  0  0  0  0
   -2.1039    0.8423    2.6433 H   0  0  0  0  0  0  0  0  0  0  0  0
   -4.5077    0.5183    3.0937 H   0  0  0  0  0  0  0  0  0  0  0  0
   -6.7668    0.0986    2.1298 H   0  0  0  0  0  0  0  0  0  0  0  0
   -7.0134    1.8085    1.6971 H   0  0  0  0  0  0  0  0  0  0  0  0
   -7.1292    0.5324    0.4596 H   0  0  0  0  0  0  0  0  0  0  0  0
   -5.4112    1.6251   -0.9696 H   0  0  0  0  0  0  0  0  0  0  0  0
    3.8667   -0.2992   -1.0585 H   0  0  0  0  0  0  0  0  0  0  0  0
    3.6698    1.4310    0.8959 H   0  0  0  0  0  0  0  0  0  0  0  0
    3.2881    2.5260   -0.4460 H   0  0  0  0  0  0  0  0  0  0  0  0
    5.7377    2.5825    0.0198 H   0  0  0  0  0  0  0  0  0  0  0  0
    5.4067    1.9251   -1.5854 H   0  0  0  0  0  0  0  0  0  0  0  0
    5.3758    0.1889    1.7124 H   0  0  0  0  0  0  0  0  0  0  0  0
    6.9289   -0.5330    1.2622 H   0  0  0  0  0  0  0  0  0  0  0  0
    6.8398    1.2153    1.5552 H   0  0  0  0  0  0  0  0  0  0  0  0
    1.5962   -3.8531   -2.2012 H   0  0  0  0  0  0  0  0  0  0  0  0
    0.9898   -4.3697   -0.6119 H   0  0  0  0  0  0  0  0  0  0  0  0
    0.1095   -4.8049   -2.0921 H   0  0  0  0  0  0  0  0  0  0  0  0
  1  2  1  0
  2  3  2  0
  3  4  1  0
  4  5  2  3
  5  6  1  0
  6  7  2  0
  7  8  1  0
  8  9  2  0
  9 10  1  0
  9 11  1  0
 11 12  2  0
 12 13  1  0
  4 14  1  0
 14 15  2  0
 15 16  1  0
 16 17  1  0
 17 18  1  0
 18 19  1  0
 19 20  1  0
 15 21  1  0
 21 22  2  0
 22 23  1  0
 23 24  1  0
 23  1  1  0
 22  3  1  0
 12  6  1  0
  1 25  1  0
  2 26  1  0
  7 27  1  0
  8 28  1  0
 10 29  1  0
 10 30  1  0
 10 31  1  0
 11 32  1  0
 16 33  1  0
 17 34  1  0
 17 35  1  0
 18 36  1  0
 18 37  1  0
 20 38  1  0
 20 39  1  0
 20 40  1  0
 24 41  1  0
 24 42  1  0
 24 43  1  0
M  END
>  <ScrubInfo>  (5) 
{"isomerGroup": 0, "isomerId": 4, "confId": 0, "nr_conformers:": 1, "nr_isomers:": 9}

$$$$
_i5
     RDKit          3D

 43 45  0  0  0  0  0  0  0  0999 V2000
    1.3981   -1.9718   -0.0494 N   0  0  0  0  0  0  0  0  0  0  0  0
    0.8729   -0.7065    0.0765 C   0  0  0  0  0  0  0  0  0  0  0  0
    1.7799    0.3141    0.0529 N   0  0  0  0  0  0  0  0  0  0  0  0
    2.7697    0.4339   -1.0138 C   0  0  0  0  0  0  0  0  0  0  0  0
    3.6591    1.6595   -0.7931 C   0  0  0  0  0  0  0  0  0  0  0  0
    4.6351    1.7218   -1.8338 O   0  0  0  0  0  0  0  0  0  0  0  0
    5.4863    2.8514   -1.6860 C   0  0  0  0  0  0  0  0  0  0  0  0
   -0.3905   -0.4170    0.2312 N   0  0  0  0  0  0  0  0  0  0  0  0
   -1.3205   -1.4495    0.2535 C   0  0  0  0  0  0  0  0  0  0  0  0
   -2.5990   -1.2766    0.3626 N   0  0  0  0  0  0  0  0  0  0  0  0
   -3.0796    0.0432    0.4399 C   0  0  0  0  0  0  0  0  0  0  0  0
   -3.3498    0.5824    1.7029 C   0  0  0  0  0  0  0  0  0  0  0  0
   -3.8526    1.8796    1.8390 C   0  0  0  0  0  0  0  0  0  0  0  0
   -4.0965    2.6663    0.7086 C   0  0  0  0  0  0  0  0  0  0  0  0
   -4.6702    4.0449    0.8503 C   0  0  0  0  0  0  0  0  0  0  0  0
   -3.8579    2.1241   -0.5606 C   0  0  0  0  0  0  0  0  0  0  0  0
   -3.3544    0.8242   -0.6936 C   0  0  0  0  0  0  0  0  0  0  0  0
   -3.0725    0.1568   -2.4513 Br  0  0  0  0  0  0  0  0  0  0  0  0
   -0.8122   -2.7934    0.1552 C   0  0  0  0  0  0  0  0  0  0  0  0
   -1.3616   -4.0819    0.1734 C   0  0  0  0  0  0  0  0  0  0  0  0
   -0.4222   -5.0365    0.0617 N   0  0  0  0  0  0  0  0  0  0  0  0
    0.7377   -4.3393   -0.0375 N   0  0  0  0  0  0  0  0  0  0  0  0
    1.9765   -5.0586   -0.1864 C   0  0  0  0  0  0  0  0  0  0  0  0
    0.5319   -2.9976    0.0118 C   0  0  0  0  0  0  0  0  0  0  0  0
    2.4004   -2.0730    0.0275 H   0  0  0  0  0  0  0  0  0  0  0  0
    1.2563    1.1824    0.1603 H   0  0  0  0  0  0  0  0  0  0  0  0
    2.2668    0.5143   -1.9851 H   0  0  0  0  0  0  0  0  0  0  0  0
    3.4042   -0.4585   -1.0617 H   0  0  0  0  0  0  0  0  0  0  0  0
    4.1631    1.5875    0.1782 H   0  0  0  0  0  0  0  0  0  0  0  0
    3.0509    2.5720   -0.8031 H   0  0  0  0  0  0  0  0  0  0  0  0
    6.0303    2.7993   -0.7380 H   0  0  0  0  0  0  0  0  0  0  0  0
    4.9057    3.7775   -1.7378 H   0  0  0  0  0  0  0  0  0  0  0  0
    6.2102    2.8464   -2.5052 H   0  0  0  0  0  0  0  0  0  0  0  0
   -3.1653   -0.0194    2.5889 H   0  0  0  0  0  0  0  0  0  0  0  0
   -4.0538    2.2672    2.8352 H   0  0  0  0  0  0  0  0  0  0  0  0
   -4.3321    4.6938    0.0355 H   0  0  0  0  0  0  0  0  0  0  0  0
   -4.3474    4.5079    1.7887 H   0  0  0  0  0  0  0  0  0  0  0  0
   -5.7634    3.9986    0.8362 H   0  0  0  0  0  0  0  0  0  0  0  0
   -4.0700    2.7152   -1.4485 H   0  0  0  0  0  0  0  0  0  0  0  0
   -2.4012   -4.3686    0.2682 H   0  0  0  0  0  0  0  0  0  0  0  0
    2.8004   -4.3559   -0.3274 H   0  0  0  0  0  0  0  0  0  0  0  0
    1.8953   -5.7110   -1.0596 H   0  0  0  0  0  0  0  0  0  0  0  0
    2.1416   -5.6490    0.7183 H   0  0  0  0  0  0  0  0  0  0  0  0
  1  2  1  0
  2  3  1  0
  3  4  1  0
  4  5  1  0
  5  6  1  0
  6  7  1  0
  2  8  2  0
  8  9  1  0
  9 10  2  3
 10 11  1  0
 11 12  2  0
 12 13  1  0
 13 14  2  0
 14 15  1  0
 14 16  1  0
 16 17  2  0
 17 18  1  0
  9 19  1  0
 19 20  1  0
 20 21  2  0
 21 22  1  0
 22 23  1  0
 22 24  1  0
 24  1  1  0
 17 11  1  0
 24 19  2  0
  1 25  1  0
  3 26  1  0
  4 27  1  0
  4 28  1  0
  5 29  1  0
  5 30  1  0
  7 31  1  0
  7 32  1  0
  7 33  1  0
 12 34  1  0
 13 35  1  0
 15 36  1  0
 15 37  1  0
 15 38  1  0
 16 39  1  0
 20 40  1  0
 23 41  1  0
 23 42  1  0
 23 43  1  0
M  END
>  <ScrubInfo>  (6) 
{"isomerGroup": 0, "isomerId": 5, "confId": 0, "nr_conformers:": 1, "nr_isomers:": 9}

$$$$
_i6
     RDKit          3D

 43 45  0  0  0  0  0  0  0  0999 V2000
    0.3817   -4.4542   -0.5914 N   0  0  0  0  0  0  0  0  0  0  0  0
   -0.6782   -3.5539   -0.5669 C   0  0  0  0  0  0  0  0  0  0  0  0
   -0.2792   -2.2804   -0.4405 C   0  0  0  0  0  0  0  0  0  0  0  0
   -0.8834   -0.9488   -0.3268 C   0  0  0  0  0  0  0  0  0  0  0  0
   -2.2580   -0.8319   -0.3842 N   0  0  0  0  0  0  0  0  0  0  0  0
   -3.0940    0.3043   -0.3113 C   0  0  0  0  0  0  0  0  0  0  0  0
   -2.6183    1.6116   -0.1663 C   0  0  0  0  0  0  0  0  0  0  0  0
   -3.4929    2.7053   -0.0996 C   0  0  0  0  0  0  0  0  0  0  0  0
   -4.8748    2.5244   -0.1867 C   0  0  0  0  0  0  0  0  0  0  0  0
   -5.8051    3.6955   -0.0808 C   0  0  0  0  0  0  0  0  0  0  0  0
   -5.3738    1.2269   -0.3165 C   0  0  0  0  0  0  0  0  0  0  0  0
   -4.4949    0.1387   -0.3826 C   0  0  0  0  0  0  0  0  0  0  0  0
   -5.2607   -1.5975   -0.5712 Br  0  0  0  0  0  0  0  0  0  0  0  0
   -0.0670    0.0521   -0.1721 N   0  0  0  0  0  0  0  0  0  0  0  0
    1.2909   -0.1583   -0.1174 C   0  0  0  0  0  0  0  0  0  0  0  0
    1.9694    0.9141    0.0940 N   0  0  0  0  0  0  0  0  0  0  0  0
    3.4250    0.7914    0.1607 C   0  0  0  0  0  0  0  0  0  0  0  0
    4.0308    2.1841    0.3549 C   0  0  0  0  0  0  0  0  0  0  0  0
    5.4613    2.1528    0.3805 O   0  0  0  0  0  0  0  0  0  0  0  0
    5.9825    1.7582    1.6419 C   0  0  0  0  0  0  0  0  0  0  0  0
    1.9458   -1.3592   -0.2646 N   0  0  0  0  0  0  0  0  0  0  0  0
    1.1953   -2.3898   -0.4380 C   0  0  0  0  0  0  0  0  0  0  0  0
    1.5627   -3.7215   -0.6315 N   0  0  0  0  0  0  0  0  0  0  0  0
    2.7575   -4.2654   -0.0147 C   0  0  0  0  0  0  0  0  0  0  0  0
    0.2842   -5.1856   -1.3001 H   0  0  0  0  0  0  0  0  0  0  0  0
   -1.6851   -3.9367   -0.6469 H   0  0  0  0  0  0  0  0  0  0  0  0
   -2.7926   -1.6859   -0.4946 H   0  0  0  0  0  0  0  0  0  0  0  0
   -1.5551    1.8235   -0.0986 H   0  0  0  0  0  0  0  0  0  0  0  0
   -3.0739    3.7029    0.0206 H   0  0  0  0  0  0  0  0  0  0  0  0
   -5.3414    4.6009   -0.4864 H   0  0  0  0  0  0  0  0  0  0  0  0
   -6.7229    3.5179   -0.6511 H   0  0  0  0  0  0  0  0  0  0  0  0
   -6.0677    3.8713    0.9669 H   0  0  0  0  0  0  0  0  0  0  0  0
   -6.4480    1.0649   -0.3669 H   0  0  0  0  0  0  0  0  0  0  0  0
    3.8347    0.3573   -0.7600 H   0  0  0  0  0  0  0  0  0  0  0  0
    3.7173    0.1430    0.9943 H   0  0  0  0  0  0  0  0  0  0  0  0
    3.7432    2.8198   -0.4904 H   0  0  0  0  0  0  0  0  0  0  0  0
    3.6418    2.6681    1.2591 H   0  0  0  0  0  0  0  0  0  0  0  0
    7.0734    1.8166    1.5932 H   0  0  0  0  0  0  0  0  0  0  0  0
    5.6357    2.4322    2.4311 H   0  0  0  0  0  0  0  0  0  0  0  0
    5.7060    0.7271    1.8767 H   0  0  0  0  0  0  0  0  0  0  0  0
    2.9307   -5.2902   -0.3589 H   0  0  0  0  0  0  0  0  0  0  0  0
    2.6616   -4.2760    1.0760 H   0  0  0  0  0  0  0  0  0  0  0  0
    3.6355   -3.6696   -0.2839 H   0  0  0  0  0  0  0  0  0  0  0  0
  1  2  1  0
  2  3  2  0
  3  4  1  0
  4  5  1  0
  5  6  1  0
  6  7  2  0
  7  8  1  0
  8  9  2  0
  9 10  1  0
  9 11  1  0
 11 12  2  0
 12 13  1  0
  4 14  2  0
 14 15  1  0
 15 16  2  3
 16 17  1  0
 17 18  1  0
 18 19  1  0
 19 20  1  0
 15 21  1  0
 21 22  2  0
 22 23  1  0
 23 24  1  0
 23  1  1  0
 22  3  1  0
 12  6  1  0
  1 25  1  0
  2 26  1  0
  5 27  1  0
  7 28  1  0
  8 29  1  0
 10 30  1  0
 10 31  1  0
 10 32  1  0
 11 33  1  0
 17 34  1  0
 17 35  1  0
 18 36  1  0
 18 37  1  0
 20 38  1  0
 20 39  1  0
 20 40  1  0
 24 41  1  0
 24 42  1  0
 24 43  1  0
M  END
>  <ScrubInfo>  (7) 
{"isomerGroup": 0, "isomerId": 6, "confId": 0, "nr_conformers:": 1, "nr_isomers:": 9}

$$$$
_i7
     RDKit          3D

 43 45  0  0  0  0  0  0  0  0999 V2000
    0.1371   -4.6498    0.0009 N   0  0  0  0  0  0  0  0  0  0  0  0
   -0.9556   -3.7944    0.0947 C   0  0  0  0  0  0  0  0  0  0  0  0
   -0.6177   -2.5043   -0.0141 C   0  0  0  0  0  0  0  0  0  0  0  0
   -1.2791   -1.1986    0.0360 C   0  0  0  0  0  0  0  0  0  0  0  0
   -2.5679   -1.1445    0.1961 N   0  0  0  0  0  0  0  0  0  0  0  0
   -3.1914    0.1154    0.2271 C   0  0  0  0  0  0  0  0  0  0  0  0
   -3.4103    0.7220    1.4684 C   0  0  0  0  0  0  0  0  0  0  0  0
   -4.0239    1.9744    1.5561 C   0  0  0  0  0  0  0  0  0  0  0  0
   -4.4319    2.6455    0.3985 C   0  0  0  0  0  0  0  0  0  0  0  0
   -5.1234    3.9738    0.4930 C   0  0  0  0  0  0  0  0  0  0  0  0
   -4.2457    2.0304   -0.8459 C   0  0  0  0  0  0  0  0  0  0  0  0
   -3.6315    0.7759   -0.9306 C   0  0  0  0  0  0  0  0  0  0  0  0
   -3.4073    0.0073   -2.6534 Br  0  0  0  0  0  0  0  0  0  0  0  0
   -0.3882   -0.1632   -0.0952 N   0  0  0  0  0  0  0  0  0  0  0  0
    0.9669   -0.2675   -0.2643 C   0  0  0  0  0  0  0  0  0  0  0  0
    1.6552    0.8251   -0.3448 N   0  0  0  0  0  0  0  0  0  0  0  0
    3.1025    0.6838   -0.5375 C   0  0  0  0  0  0  0  0  0  0  0  0
    3.7295    2.0774   -0.6374 C   0  0  0  0  0  0  0  0  0  0  0  0
    5.1301    2.0279   -0.9222 O   0  0  0  0  0  0  0  0  0  0  0  0
    5.9185    1.7125    0.2168 C   0  0  0  0  0  0  0  0  0  0  0  0
    1.5998   -1.4917   -0.3493 N   0  0  0  0  0  0  0  0  0  0  0  0
    0.8587   -2.5515   -0.2523 C   0  0  0  0  0  0  0  0  0  0  0  0
    1.2559   -3.8888   -0.3327 N   0  0  0  0  0  0  0  0  0  0  0  0
    2.5626   -4.3123    0.1308 C   0  0  0  0  0  0  0  0  0  0  0  0
   -0.0419   -5.4657   -0.5892 H   0  0  0  0  0  0  0  0  0  0  0  0
   -1.9464   -4.2024    0.2375 H   0  0  0  0  0  0  0  0  0  0  0  0
   -3.1038    0.2087    2.3767 H   0  0  0  0  0  0  0  0  0  0  0  0
   -4.1855    2.4187    2.5362 H   0  0  0  0  0  0  0  0  0  0  0  0
   -6.2045    3.8276    0.5776 H   0  0  0  0  0  0  0  0  0  0  0  0
   -4.7726    4.5356    1.3651 H   0  0  0  0  0  0  0  0  0  0  0  0
   -4.9161    4.5852   -0.3915 H   0  0  0  0  0  0  0  0  0  0  0  0
   -4.5846    2.5305   -1.7508 H   0  0  0  0  0  0  0  0  0  0  0  0
   -0.7303    0.7849   -0.0685 H   0  0  0  0  0  0  0  0  0  0  0  0
    3.3297    0.1293   -1.4565 H   0  0  0  0  0  0  0  0  0  0  0  0
    3.5493    0.1401    0.3026 H   0  0  0  0  0  0  0  0  0  0  0  0
    3.5452    2.6641    0.2708 H   0  0  0  0  0  0  0  0  0  0  0  0
    3.2589    2.6225   -1.4638 H   0  0  0  0  0  0  0  0  0  0  0  0
    5.7191    0.6949    0.5622 H   0  0  0  0  0  0  0  0  0  0  0  0
    6.9719    1.7746   -0.0703 H   0  0  0  0  0  0  0  0  0  0  0  0
    5.7375    2.4291    1.0236 H   0  0  0  0  0  0  0  0  0  0  0  0
    3.3522   -3.7352   -0.3610 H   0  0  0  0  0  0  0  0  0  0  0  0
    2.6531   -4.1785    1.2138 H   0  0  0  0  0  0  0  0  0  0  0  0
    2.7260   -5.3691   -0.1040 H   0  0  0  0  0  0  0  0  0  0  0  0
  1  2  1  0
  2  3  2  0
  3  4  1  0
  4  5  2  3
  5  6  1  0
  6  7  2  0
  7  8  1  0
  8  9  2  0
  9 10  1  0
  9 11  1  0
 11 12  2  0
 12 13  1  0
  4 14  1  0
 14 15  1  0
 15 16  2  3
 16 17  1  0
 17 18  1  0
 18 19  1  0
 19 20  1  0
 15 21  1  0
 21 22  2  0
 22 23  1  0
 23 24  1  0
 23  1  1  0
 22  3  1  0
 12  6  1  0
  1 25  1  0
  2 26  1  0
  7 27  1  0
  8 28  1  0
 10 29  1  0
 10 30  1  0
 10 31  1  0
 11 32  1  0
 14 33  1  0
 17 34  1  0
 17 35  1  0
 18 36  1  0
 18 37  1  0
 20 38  1  0
 20 39  1  0
 20 40  1  0
 24 41  1  0
 24 42  1  0
 24 43  1  0
M  END
>  <ScrubInfo>  (8) 
{"isomerGroup": 0, "isomerId": 7, "confId": 0, "nr_conformers:": 1, "nr_isomers:": 9}

$$$$
_i8
     RDKit          3D

 43 45  0  0  0  0  0  0  0  0999 V2000
    1.5213   -2.0155    0.1422 N   0  0  0  0  0  0  0  0  0  0  0  0
    1.1542   -0.6788    0.0809 C   0  0  0  0  0  0  0  0  0  0  0  0
    1.9225    0.3529   -0.0158 N   0  0  0  0  0  0  0  0  0  0  0  0
    3.3716    0.1433   -0.0909 C   0  0  0  0  0  0  0  0  0  0  0  0
    4.0596    1.4700   -0.4265 C   0  0  0  0  0  0  0  0  0  0  0  0
    3.9495    1.7231   -1.8308 O   0  0  0  0  0  0  0  0  0  0  0  0
    4.4804    2.9945   -2.1760 C   0  0  0  0  0  0  0  0  0  0  0  0
   -0.2103   -0.4734    0.1437 N   0  0  0  0  0  0  0  0  0  0  0  0
   -1.2586   -1.3658    0.2495 C   0  0  0  0  0  0  0  0  0  0  0  0
   -2.5363   -1.1826    0.3066 N   0  0  0  0  0  0  0  0  0  0  0  0
   -3.0179    0.1362    0.2421 C   0  0  0  0  0  0  0  0  0  0  0  0
   -3.2675    0.8145    1.4399 C   0  0  0  0  0  0  0  0  0  0  0  0
   -3.7463    2.1273    1.4347 C   0  0  0  0  0  0  0  0  0  0  0  0
   -4.0058    2.7813    0.2257 C   0  0  0  0  0  0  0  0  0  0  0  0
   -4.4908    4.2011    0.2171 C   0  0  0  0  0  0  0  0  0  0  0  0
   -3.7611    2.1086   -0.9780 C   0  0  0  0  0  0  0  0  0  0  0  0
   -3.2820    0.7937   -0.9697 C   0  0  0  0  0  0  0  0  0  0  0  0
   -2.9893   -0.0580   -2.6424 Br  0  0  0  0  0  0  0  0  0  0  0  0
   -0.7704   -2.7232    0.3036 C   0  0  0  0  0  0  0  0  0  0  0  0
   -1.3662   -3.9888    0.4023 C   0  0  0  0  0  0  0  0  0  0  0  0
   -0.4597   -4.9782    0.4125 N   0  0  0  0  0  0  0  0  0  0  0  0
    0.7276   -4.3320    0.3116 N   0  0  0  0  0  0  0  0  0  0  0  0
    1.9403   -5.1093    0.2780 C   0  0  0  0  0  0  0  0  0  0  0  0
    0.5778   -2.9796    0.2475 C   0  0  0  0  0  0  0  0  0  0  0  0
    2.5076   -2.2257    0.0826 H   0  0  0  0  0  0  0  0  0  0  0  0
    3.7319   -0.2066    0.8831 H   0  0  0  0  0  0  0  0  0  0  0  0
    3.6201   -0.5961   -0.8610 H   0  0  0  0  0  0  0  0  0  0  0  0
    5.1237    1.3982   -0.1744 H   0  0  0  0  0  0  0  0  0  0  0  0
    3.6115    2.2936    0.1417 H   0  0  0  0  0  0  0  0  0  0  0  0
    3.9206    3.7916   -1.6774 H   0  0  0  0  0  0  0  0  0  0  0  0
    5.5398    3.0533   -1.9083 H   0  0  0  0  0  0  0  0  0  0  0  0
    4.3854    3.1256   -3.2572 H   0  0  0  0  0  0  0  0  0  0  0  0
   -0.4587    0.5027    0.0806 H   0  0  0  0  0  0  0  0  0  0  0  0
   -3.0871    0.3118    2.3872 H   0  0  0  0  0  0  0  0  0  0  0  0
   -3.9224    2.6314    2.3828 H   0  0  0  0  0  0  0  0  0  0  0  0
   -3.6386    4.8870    0.1903 H   0  0  0  0  0  0  0  0  0  0  0  0
   -5.0896    4.4153    1.1086 H   0  0  0  0  0  0  0  0  0  0  0  0
   -5.1266    4.3910   -0.6540 H   0  0  0  0  0  0  0  0  0  0  0  0
   -3.9505    2.6103   -1.9246 H   0  0  0  0  0  0  0  0  0  0  0  0
   -2.4191   -4.2322    0.4662 H   0  0  0  0  0  0  0  0  0  0  0  0
    1.9734   -5.6501   -0.6710 H   0  0  0  0  0  0  0  0  0  0  0  0
    2.8079   -4.4522    0.3645 H   0  0  0  0  0  0  0  0  0  0  0  0
    1.9278   -5.8100    1.1170 H   0  0  0  0  0  0  0  0  0  0  0  0
  1  2  1  0
  2  3  2  3
  3  4  1  0
  4  5  1  0
  5  6  1  0
  6  7  1  0
  2  8  1  0
  8  9  1  0
  9 10  2  3
 10 11  1  0
 11 12  2  0
 12 13  1  0
 13 14  2  0
 14 15  1  0
 14 16  1  0
 16 17  2  0
 17 18  1  0
  9 19  1  0
 19 20  1  0
 20 21  2  0
 21 22  1  0
 22 23  1  0
 22 24  1  0
 24  1  1  0
 17 11  1  0
 24 19  2  0
  1 25  1  0
  4 26  1  0
  4 27  1  0
  5 28  1  0
  5 29  1  0
  7 30  1  0
  7 31  1  0
  7 32  1  0
  8 33  1  0
 12 34  1  0
 13 35  1  0
 15 36  1  0
 15 37  1  0
 15 38  1  0
 16 39  1  0
 20 40  1  0
 23 41  1  0
 23 42  1  0
 23 43  1  0
M  END
>  <ScrubInfo>  (9) 
{"isomerGroup": 0, "isomerId": 8, "confId": 0, "nr_conformers:": 1, "nr_isomers:": 9}

$$$$
