REMARK SMILES COCCNc1nc(Nc2ccc(C)cc2Br)c2cnn(C)c2n1
REMARK SMILES IDX 5 1 4 3 3 4 2 5 1 6 6 7 7 8 24 9 8 10 23 11 18 12 21 13
REMARK SMILES IDX 19 14 20 15 22 16 9 17 10 19 11 20 16 21 12 22 15 23 13 24
REMARK SMILES IDX 17 25 14 26
REMARK H PARENT 5 2 9 18
ROOT
ATOM      1  N   UNL     1       2.301   0.339   0.944  1.00  0.00    -0.352 N 
ATOM      2  H   UNL     1       3.199  -0.132   1.040  1.00  0.00     0.163 HD
ENDROOT
BRANCH   1   3
ATOM      3  C   UNL     1       2.253   1.214  -0.222  1.00  0.00     0.144 C 
BRANCH   3   4
ATOM      4  C   UNL     1       3.479   2.133  -0.220  1.00  0.00     0.181 C 
BRANCH   4   5
ATOM      5  O   UNL     1       4.663   1.340  -0.378  1.00  0.00    -0.383 OA
ATOM      6  C   UNL     1       5.835   2.144  -0.348  1.00  0.00     0.194 C 
ENDBRANCH   4   5
ENDBRANCH   3   4
ENDBRANCH   1   3
BRANCH   1   7
ATOM      7  C   UNL     1       1.341  -0.666   0.933  1.00  0.00     0.226 A 
ATOM      8  N   UNL     1       0.106  -0.394   0.467  1.00  0.00    -0.195 NA
ATOM      9  N   UNL     1       1.752  -1.849   1.405  1.00  0.00    -0.193 NA
ATOM     10  C   UNL     1      -0.860  -1.348   0.445  1.00  0.00     0.147 A 
ATOM     11  C   UNL     1       0.790  -2.782   1.373  1.00  0.00     0.165 A 
ATOM     12  C   UNL     1      -0.503  -2.617   0.919  1.00  0.00     0.082 A 
ATOM     13  N   UNL     1       0.885  -4.085   1.781  1.00  0.00    -0.250 N 
ATOM     14  C   UNL     1      -1.099  -3.883   1.095  1.00  0.00     0.149 A 
ATOM     15  N   UNL     1      -0.261  -4.787   1.616  1.00  0.00    -0.179 NA
ATOM     16  C   UNL     1       2.043  -4.737   2.338  1.00  0.00     0.176 C 
BRANCH  10  17
ATOM     17  N   UNL     1      -2.146  -1.093  -0.051  1.00  0.00    -0.339 N 
ATOM     18  H   UNL     1      -2.739  -1.912  -0.106  1.00  0.00     0.168 HD
BRANCH  17  19
ATOM     19  C   UNL     1      -2.787   0.075  -0.506  1.00  0.00     0.054 A 
ATOM     20  C   UNL     1      -2.225   1.351  -0.390  1.00  0.00     0.027 A 
ATOM     21  C   UNL     1      -4.046  -0.015  -1.136  1.00  0.00     0.041 A 
ATOM     22  C   UNL     1      -2.886   2.489  -0.870  1.00  0.00     0.005 A 
ATOM     23  C   UNL     1      -4.712   1.118  -1.619  1.00  0.00     0.021 A 
ATOM     24  C   UNL     1      -4.139   2.384  -1.477  1.00  0.00    -0.050 A 
ATOM     25  Br  UNL     1      -4.904  -1.702  -1.361  1.00  0.00    -0.049 Br
ATOM     26  C   UNL     1      -4.829   3.600  -2.020  1.00  0.00     0.044 C 
ENDBRANCH  17  19
ENDBRANCH  10  17
ENDBRANCH   1   7
TORSDOF 6
