_i0
     RDKit          3D

 49 51  0  0  0  0  0  0  0  0999 V2000
    6.1848    0.8181    1.9709 C   0  0  0  0  0  0  0  0  0  0  0  0
    5.3165    0.6869    0.7356 C   0  0  0  0  0  0  0  0  0  0  0  0
    4.0151    1.1806    1.0460 O   0  0  0  0  0  0  0  0  0  0  0  0
    3.1314    1.0792   -0.0698 C   0  0  0  0  0  0  0  0  0  0  0  0
    1.7754    1.6720    0.2969 C   0  0  0  0  0  0  0  0  0  0  0  0
    1.1128    0.9821    1.4880 C   0  0  0  0  0  0  0  0  0  0  0  0
    0.7942   -0.4095    1.2044 N   0  0  0  0  0  0  0  0  0  0  0  0
   -0.2767   -0.9449    0.4869 C   0  0  0  0  0  0  0  0  0  0  0  0
   -0.3476   -2.2711    0.2612 C   0  0  0  0  0  0  0  0  0  0  0  0
   -1.5193   -2.7911   -0.5124 C   0  0  0  0  0  0  0  0  0  0  0  0
   -1.6039   -4.2978   -0.7699 C   0  0  0  0  0  0  0  0  0  0  0  0
   -0.4303   -4.7820   -1.6157 C   0  0  0  0  0  0  0  0  0  0  0  0
   -1.7214   -5.0773    0.5361 C   0  0  0  0  0  0  0  0  0  0  0  0
   -2.4765   -2.0512   -0.9861 N   0  0  0  0  0  0  0  0  0  0  0  0
   -2.3919   -0.7123   -0.7486 C   0  0  0  0  0  0  0  0  0  0  0  0
   -3.2235    0.2336   -1.1216 N   0  0  0  0  0  0  0  0  0  0  0  0
   -2.6712    1.3828   -0.6270 C   0  0  0  0  0  0  0  0  0  0  0  0
   -3.2939    2.6821   -0.8238 C   0  0  0  0  0  0  0  0  0  0  0  0
   -2.7358    3.8581   -0.3119 C   0  0  0  0  0  0  0  0  0  0  0  0
   -3.3705    5.0804   -0.5278 C   0  0  0  0  0  0  0  0  0  0  0  0
   -4.5503    5.0892   -1.2535 C   0  0  0  0  0  0  0  0  0  0  0  0
   -5.1231    3.9795   -1.7655 N   0  0  0  0  0  0  0  0  0  0  0  0
   -4.4818    2.8035   -1.5378 C   0  0  0  0  0  0  0  0  0  0  0  0
   -1.5243    1.2050    0.0378 N   0  0  0  0  0  0  0  0  0  0  0  0
   -1.3311   -0.1410   -0.0299 N   0  0  0  0  0  0  0  0  0  0  0  0
    6.2445    1.8636    2.2910 H   0  0  0  0  0  0  0  0  0  0  0  0
    5.7556    0.2536    2.8054 H   0  0  0  0  0  0  0  0  0  0  0  0
    7.1961    0.4494    1.7781 H   0  0  0  0  0  0  0  0  0  0  0  0
    5.2513   -0.3648    0.4361 H   0  0  0  0  0  0  0  0  0  0  0  0
    5.7469    1.2695   -0.0861 H   0  0  0  0  0  0  0  0  0  0  0  0
    3.0290    0.0288   -0.3646 H   0  0  0  0  0  0  0  0  0  0  0  0
    3.5502    1.6371   -0.9155 H   0  0  0  0  0  0  0  0  0  0  0  0
    1.1256    1.6374   -0.5838 H   0  0  0  0  0  0  0  0  0  0  0  0
    1.9142    2.7281    0.5589 H   0  0  0  0  0  0  0  0  0  0  0  0
    1.7854    1.0083    2.3535 H   0  0  0  0  0  0  0  0  0  0  0  0
    0.2194    1.5296    1.8039 H   0  0  0  0  0  0  0  0  0  0  0  0
    1.5221   -1.0639    1.4794 H   0  0  0  0  0  0  0  0  0  0  0  0
    0.3982   -2.9685    0.6154 H   0  0  0  0  0  0  0  0  0  0  0  0
   -2.5222   -4.4769   -1.3454 H   0  0  0  0  0  0  0  0  0  0  0  0
    0.5192   -4.7134   -1.0747 H   0  0  0  0  0  0  0  0  0  0  0  0
   -0.5722   -5.8275   -1.9090 H   0  0  0  0  0  0  0  0  0  0  0  0
   -0.3354   -4.1836   -2.5283 H   0  0  0  0  0  0  0  0  0  0  0  0
   -2.5417   -4.6882    1.1490 H   0  0  0  0  0  0  0  0  0  0  0  0
   -0.8050   -5.0165    1.1323 H   0  0  0  0  0  0  0  0  0  0  0  0
   -1.9198   -6.1357    0.3366 H   0  0  0  0  0  0  0  0  0  0  0  0
   -1.8090    3.8275    0.2560 H   0  0  0  0  0  0  0  0  0  0  0  0
   -2.9536    6.0021   -0.1380 H   0  0  0  0  0  0  0  0  0  0  0  0
   -5.0819    6.0164   -1.4479 H   0  0  0  0  0  0  0  0  0  0  0  0
   -4.9739    1.9321   -1.9648 H   0  0  0  0  0  0  0  0  0  0  0  0
  1  2  1  0
  2  3  1  0
  3  4  1  0
  4  5  1  0
  5  6  1  0
  6  7  1  0
  7  8  1  0
  8  9  2  0
  9 10  1  0
 10 11  1  0
 11 12  1  0
 11 13  1  0
 10 14  2  0
 14 15  1  0
 15 16  2  0
 16 17  1  0
 17 18  1  0
 18 19  2  0
 19 20  1  0
 20 21  2  0
 21 22  1  0
 22 23  2  0
 17 24  2  0
 24 25  1  0
 25  8  1  0
 25 15  1  0
 23 18  1  0
  1 26  1  0
  1 27  1  0
  1 28  1  0
  2 29  1  0
  2 30  1  0
  4 31  1  0
  4 32  1  0
  5 33  1  0
  5 34  1  0
  6 35  1  0
  6 36  1  0
  7 37  1  0
  9 38  1  0
 11 39  1  0
 12 40  1  0
 12 41  1  0
 12 42  1  0
 13 43  1  0
 13 44  1  0
 13 45  1  0
 19 46  1  0
 20 47  1  0
 21 48  1  0
 23 49  1  0
M  END
>  <ScrubInfo>  (1) 
{"isomerGroup": 0, "isomerId": 0, "confId": 0, "nr_conformers:": 1, "nr_isomers:": 4}

$$$$
_i1
     RDKit          3D

 49 51  0  0  0  0  0  0  0  0999 V2000
   -2.7231   -1.5849   -0.5216 N   0  0  0  0  0  0  0  0  0  0  0  0
   -1.7435   -2.4912   -0.8888 C   0  0  0  0  0  0  0  0  0  0  0  0
   -2.1640   -3.7702   -1.5997 C   0  0  0  0  0  0  0  0  0  0  0  0
   -2.8340   -3.4724   -2.9434 C   0  0  0  0  0  0  0  0  0  0  0  0
   -3.0722   -4.6310   -0.7180 C   0  0  0  0  0  0  0  0  0  0  0  0
   -0.4445   -2.2453   -0.6214 C   0  0  0  0  0  0  0  0  0  0  0  0
   -0.0139   -0.9902    0.0808 C   0  0  0  0  0  0  0  0  0  0  0  0
    1.2465   -0.8131    0.3094 N   0  0  0  0  0  0  0  0  0  0  0  0
    1.7352    0.3752    0.9981 C   0  0  0  0  0  0  0  0  0  0  0  0
    3.2505    0.2722    1.1545 C   0  0  0  0  0  0  0  0  0  0  0  0
    3.9798    0.2993   -0.1842 C   0  0  0  0  0  0  0  0  0  0  0  0
    5.3858    0.3085    0.0747 O   0  0  0  0  0  0  0  0  0  0  0  0
    6.1777    0.2404   -1.1088 C   0  0  0  0  0  0  0  0  0  0  0  0
    6.2667    1.5884   -1.8017 C   0  0  0  0  0  0  0  0  0  0  0  0
   -1.1036   -0.1542    0.3986 N   0  0  0  0  0  0  0  0  0  0  0  0
   -1.0203    1.0457    1.0233 N   0  0  0  0  0  0  0  0  0  0  0  0
   -2.3068    1.4273    1.0852 C   0  0  0  0  0  0  0  0  0  0  0  0
   -2.7474    2.6769    1.6849 C   0  0  0  0  0  0  0  0  0  0  0  0
   -1.8491    3.5825    2.2585 C   0  0  0  0  0  0  0  0  0  0  0  0
   -2.3209    4.7676    2.8211 C   0  0  0  0  0  0  0  0  0  0  0  0
   -3.6840    5.0122    2.7925 C   0  0  0  0  0  0  0  0  0  0  0  0
   -4.5852    4.1665    2.2494 N   0  0  0  0  0  0  0  0  0  0  0  0
   -4.0952    3.0206    1.7098 C   0  0  0  0  0  0  0  0  0  0  0  0
   -3.1952    0.5333    0.5271 N   0  0  0  0  0  0  0  0  0  0  0  0
   -2.4229   -0.4345    0.1095 C   0  0  0  0  0  0  0  0  0  0  0  0
   -3.6912   -1.8026   -0.7381 H   0  0  0  0  0  0  0  0  0  0  0  0
   -1.2679   -4.3683   -1.8151 H   0  0  0  0  0  0  0  0  0  0  0  0
   -3.0478   -4.4031   -3.4802 H   0  0  0  0  0  0  0  0  0  0  0  0
   -2.1827   -2.8630   -3.5796 H   0  0  0  0  0  0  0  0  0  0  0  0
   -3.7814   -2.9371   -2.8176 H   0  0  0  0  0  0  0  0  0  0  0  0
   -3.2908   -5.5856   -1.2090 H   0  0  0  0  0  0  0  0  0  0  0  0
   -2.5918   -4.8523    0.2414 H   0  0  0  0  0  0  0  0  0  0  0  0
   -4.0283   -4.1375   -0.5120 H   0  0  0  0  0  0  0  0  0  0  0  0
    0.3512   -2.9305   -0.8916 H   0  0  0  0  0  0  0  0  0  0  0  0
    1.4961    1.2838    0.4342 H   0  0  0  0  0  0  0  0  0  0  0  0
    1.2999    0.4421    2.0015 H   0  0  0  0  0  0  0  0  0  0  0  0
    3.5184   -0.6444    1.6951 H   0  0  0  0  0  0  0  0  0  0  0  0
    3.6079    1.1035    1.7750 H   0  0  0  0  0  0  0  0  0  0  0  0
    3.7017    1.1990   -0.7423 H   0  0  0  0  0  0  0  0  0  0  0  0
    3.7237   -0.5850   -0.7782 H   0  0  0  0  0  0  0  0  0  0  0  0
    5.7971   -0.5323   -1.7862 H   0  0  0  0  0  0  0  0  0  0  0  0
    7.1831   -0.0641   -0.7998 H   0  0  0  0  0  0  0  0  0  0  0  0
    6.5881    2.3634   -1.0984 H   0  0  0  0  0  0  0  0  0  0  0  0
    6.9767    1.5477   -2.6329 H   0  0  0  0  0  0  0  0  0  0  0  0
    5.2952    1.8969   -2.1991 H   0  0  0  0  0  0  0  0  0  0  0  0
   -0.7824    3.3708    2.2710 H   0  0  0  0  0  0  0  0  0  0  0  0
   -1.6397    5.4814    3.2708 H   0  0  0  0  0  0  0  0  0  0  0  0
   -4.0992    5.9214    3.2181 H   0  0  0  0  0  0  0  0  0  0  0  0
   -4.8522    2.3662    1.2833 H   0  0  0  0  0  0  0  0  0  0  0  0
  1  2  1  0
  2  3  1  0
  3  4  1  0
  3  5  1  0
  2  6  2  0
  6  7  1  0
  7  8  2  3
  8  9  1  0
  9 10  1  0
 10 11  1  0
 11 12  1  0
 12 13  1  0
 13 14  1  0
  7 15  1  0
 15 16  1  0
 16 17  2  0
 17 18  1  0
 18 19  2  0
 19 20  1  0
 20 21  2  0
 21 22  1  0
 22 23  2  0
 17 24  1  0
 24 25  2  0
 25  1  1  0
 25 15  1  0
 23 18  1  0
  1 26  1  0
  3 27  1  0
  4 28  1  0
  4 29  1  0
  4 30  1  0
  5 31  1  0
  5 32  1  0
  5 33  1  0
  6 34  1  0
  9 35  1  0
  9 36  1  0
 10 37  1  0
 10 38  1  0
 11 39  1  0
 11 40  1  0
 13 41  1  0
 13 42  1  0
 14 43  1  0
 14 44  1  0
 14 45  1  0
 19 46  1  0
 20 47  1  0
 21 48  1  0
 23 49  1  0
M  END
>  <ScrubInfo>  (2) 
{"isomerGroup": 0, "isomerId": 1, "confId": 0, "nr_conformers:": 1, "nr_isomers:": 4}

$$$$
_i2
     RDKit          3D

 49 51  0  0  0  0  0  0  0  0999 V2000
   -3.0134    1.3076   -0.6250 N   0  0  0  0  0  0  0  0  0  0  0  0
   -2.0065    2.0980   -1.1210 C   0  0  0  0  0  0  0  0  0  0  0  0
   -2.1604    3.4841   -1.5835 C   0  0  0  0  0  0  0  0  0  0  0  0
   -3.3892    4.1453   -1.5592 C   0  0  0  0  0  0  0  0  0  0  0  0
   -3.4636    5.4621   -2.0131 C   0  0  0  0  0  0  0  0  0  0  0  0
   -2.3065    6.0697   -2.4745 C   0  0  0  0  0  0  0  0  0  0  0  0
   -1.1043    5.4571   -2.5103 N   0  0  0  0  0  0  0  0  0  0  0  0
   -1.0560    4.1771   -2.0646 C   0  0  0  0  0  0  0  0  0  0  0  0
   -0.8522    1.4503   -1.1334 N   0  0  0  0  0  0  0  0  0  0  0  0
   -1.1791    0.1760   -0.6102 N   0  0  0  0  0  0  0  0  0  0  0  0
   -0.3340   -0.9057   -0.4033 C   0  0  0  0  0  0  0  0  0  0  0  0
    0.9337   -1.0651   -0.6175 N   0  0  0  0  0  0  0  0  0  0  0  0
    1.6844    0.0487   -1.1878 C   0  0  0  0  0  0  0  0  0  0  0  0
    3.1382   -0.3750   -1.3795 C   0  0  0  0  0  0  0  0  0  0  0  0
    3.8394   -0.6681   -0.0579 C   0  0  0  0  0  0  0  0  0  0  0  0
    5.2167   -0.9375   -0.3333 O   0  0  0  0  0  0  0  0  0  0  0  0
    5.9556   -1.3289    0.8213 C   0  0  0  0  0  0  0  0  0  0  0  0
    6.3254   -0.1340    1.6821 C   0  0  0  0  0  0  0  0  0  0  0  0
   -1.0217   -2.1109    0.1766 C   0  0  0  0  0  0  0  0  0  0  0  0
   -2.3463   -2.0565    0.4448 C   0  0  0  0  0  0  0  0  0  0  0  0
   -3.1142   -3.2455    1.0237 C   0  0  0  0  0  0  0  0  0  0  0  0
   -3.3101   -3.0635    2.5316 C   0  0  0  0  0  0  0  0  0  0  0  0
   -2.5052   -4.6232    0.7377 C   0  0  0  0  0  0  0  0  0  0  0  0
   -3.1499   -0.9413    0.2131 N   0  0  0  0  0  0  0  0  0  0  0  0
   -2.5339    0.0753   -0.2849 C   0  0  0  0  0  0  0  0  0  0  0  0
   -3.9813    1.5470   -0.5047 H   0  0  0  0  0  0  0  0  0  0  0  0
   -4.2916    3.6655   -1.1973 H   0  0  0  0  0  0  0  0  0  0  0  0
   -4.4033    6.0044   -2.0079 H   0  0  0  0  0  0  0  0  0  0  0  0
   -2.3158    7.0939   -2.8378 H   0  0  0  0  0  0  0  0  0  0  0  0
   -0.0706    3.7196   -2.1107 H   0  0  0  0  0  0  0  0  0  0  0  0
    1.6493    0.9237   -0.5288 H   0  0  0  0  0  0  0  0  0  0  0  0
    1.2788    0.3193   -2.1693 H   0  0  0  0  0  0  0  0  0  0  0  0
    3.1972   -1.2602   -2.0252 H   0  0  0  0  0  0  0  0  0  0  0  0
    3.6808    0.4195   -1.9067 H   0  0  0  0  0  0  0  0  0  0  0  0
    3.3875   -1.5384    0.4309 H   0  0  0  0  0  0  0  0  0  0  0  0
    3.7599    0.1981    0.6068 H   0  0  0  0  0  0  0  0  0  0  0  0
    6.8753   -1.8029    0.4628 H   0  0  0  0  0  0  0  0  0  0  0  0
    5.4051   -2.0809    1.3976 H   0  0  0  0  0  0  0  0  0  0  0  0
    5.4385    0.3244    2.1294 H   0  0  0  0  0  0  0  0  0  0  0  0
    6.8185    0.6369    1.0811 H   0  0  0  0  0  0  0  0  0  0  0  0
    6.9969   -0.4358    2.4912 H   0  0  0  0  0  0  0  0  0  0  0  0
   -0.3987   -2.9763    0.3567 H   0  0  0  0  0  0  0  0  0  0  0  0
   -4.1082   -3.2501    0.5544 H   0  0  0  0  0  0  0  0  0  0  0  0
   -3.8226   -2.1213    2.7551 H   0  0  0  0  0  0  0  0  0  0  0  0
   -2.3505   -3.0588    3.0608 H   0  0  0  0  0  0  0  0  0  0  0  0
   -3.9183   -3.8758    2.9442 H   0  0  0  0  0  0  0  0  0  0  0  0
   -1.5589   -4.7711    1.2691 H   0  0  0  0  0  0  0  0  0  0  0  0
   -3.1886   -5.4159    1.0623 H   0  0  0  0  0  0  0  0  0  0  0  0
   -2.3262   -4.7607   -0.3342 H   0  0  0  0  0  0  0  0  0  0  0  0
  1  2  1  0
  2  3  1  0
  3  4  2  0
  4  5  1  0
  5  6  2  0
  6  7  1  0
  7  8  2  0
  2  9  2  0
  9 10  1  0
 10 11  1  0
 11 12  2  3
 12 13  1  0
 13 14  1  0
 14 15  1  0
 15 16  1  0
 16 17  1  0
 17 18  1  0
 11 19  1  0
 19 20  2  0
 20 21  1  0
 21 22  1  0
 21 23  1  0
 20 24  1  0
 24 25  2  0
 25  1  1  0
  8  3  1  0
 25 10  1  0
  1 26  1  0
  4 27  1  0
  5 28  1  0
  6 29  1  0
  8 30  1  0
 13 31  1  0
 13 32  1  0
 14 33  1  0
 14 34  1  0
 15 35  1  0
 15 36  1  0
 17 37  1  0
 17 38  1  0
 18 39  1  0
 18 40  1  0
 18 41  1  0
 19 42  1  0
 21 43  1  0
 22 44  1  0
 22 45  1  0
 22 46  1  0
 23 47  1  0
 23 48  1  0
 23 49  1  0
M  END
>  <ScrubInfo>  (3) 
{"isomerGroup": 0, "isomerId": 2, "confId": 0, "nr_conformers:": 1, "nr_isomers:": 4}

$$$$
_i3
     RDKit          3D

 49 51  0  0  0  0  0  0  0  0999 V2000
   -1.6607   -1.9057   -0.5535 N   0  0  0  0  0  0  0  0  0  0  0  0
   -2.6249   -1.9878   -1.5605 C   0  0  0  0  0  0  0  0  0  0  0  0
   -3.2539   -3.2544   -1.9723 C   0  0  0  0  0  0  0  0  0  0  0  0
   -3.0529   -4.4394   -1.2626 C   0  0  0  0  0  0  0  0  0  0  0  0
   -3.6706   -5.6091   -1.7026 C   0  0  0  0  0  0  0  0  0  0  0  0
   -4.4669   -5.5501   -2.8360 C   0  0  0  0  0  0  0  0  0  0  0  0
   -4.6832   -4.4191   -3.5413 N   0  0  0  0  0  0  0  0  0  0  0  0
   -4.0758   -3.2922   -3.0914 C   0  0  0  0  0  0  0  0  0  0  0  0
   -2.9206   -0.8286   -2.1244 N   0  0  0  0  0  0  0  0  0  0  0  0
   -2.0632    0.0513   -1.4904 C   0  0  0  0  0  0  0  0  0  0  0  0
   -2.0117    1.3154   -1.7623 N   0  0  0  0  0  0  0  0  0  0  0  0
   -1.0646    2.0338   -1.0315 C   0  0  0  0  0  0  0  0  0  0  0  0
   -1.0138    3.5282   -1.3318 C   0  0  0  0  0  0  0  0  0  0  0  0
   -0.6335    3.7902   -2.7911 C   0  0  0  0  0  0  0  0  0  0  0  0
   -2.3398    4.2104   -0.9864 C   0  0  0  0  0  0  0  0  0  0  0  0
   -0.2190    1.5048   -0.1132 C   0  0  0  0  0  0  0  0  0  0  0  0
   -0.2975    0.0256    0.1578 C   0  0  0  0  0  0  0  0  0  0  0  0
    0.4580   -0.6393    0.9734 N   0  0  0  0  0  0  0  0  0  0  0  0
    1.4927    0.0652    1.7289 C   0  0  0  0  0  0  0  0  0  0  0  0
    2.2601   -0.9639    2.5581 C   0  0  0  0  0  0  0  0  0  0  0  0
    3.2716   -0.3081    3.4903 C   0  0  0  0  0  0  0  0  0  0  0  0
    4.2130    0.4397    2.7230 O   0  0  0  0  0  0  0  0  0  0  0  0
    5.2029    1.0492    3.5487 C   0  0  0  0  0  0  0  0  0  0  0  0
    6.1532    1.8274    2.6608 C   0  0  0  0  0  0  0  0  0  0  0  0
   -1.2752   -0.5944   -0.5755 N   0  0  0  0  0  0  0  0  0  0  0  0
   -0.8948   -2.5737   -0.5787 H   0  0  0  0  0  0  0  0  0  0  0  0
   -2.4406   -4.4680   -0.3668 H   0  0  0  0  0  0  0  0  0  0  0  0
   -3.5392   -6.5457   -1.1713 H   0  0  0  0  0  0  0  0  0  0  0  0
   -4.9691   -6.4356   -3.2161 H   0  0  0  0  0  0  0  0  0  0  0  0
   -4.2762   -2.3999   -3.6798 H   0  0  0  0  0  0  0  0  0  0  0  0
   -0.2395    3.9958   -0.7086 H   0  0  0  0  0  0  0  0  0  0  0  0
   -0.5238    4.8649   -2.9727 H   0  0  0  0  0  0  0  0  0  0  0  0
    0.3200    3.3112   -3.0396 H   0  0  0  0  0  0  0  0  0  0  0  0
   -1.3931    3.4117   -3.4841 H   0  0  0  0  0  0  0  0  0  0  0  0
   -3.1605    3.8467   -1.6146 H   0  0  0  0  0  0  0  0  0  0  0  0
   -2.2642    5.2934   -1.1323 H   0  0  0  0  0  0  0  0  0  0  0  0
   -2.6107    4.0331    0.0603 H   0  0  0  0  0  0  0  0  0  0  0  0
    0.5013    2.1045    0.4233 H   0  0  0  0  0  0  0  0  0  0  0  0
    1.0353    0.8030    2.3985 H   0  0  0  0  0  0  0  0  0  0  0  0
    2.1851    0.5761    1.0499 H   0  0  0  0  0  0  0  0  0  0  0  0
    2.7794   -1.6484    1.8758 H   0  0  0  0  0  0  0  0  0  0  0  0
    1.5609   -1.5665    3.1500 H   0  0  0  0  0  0  0  0  0  0  0  0
    3.7976   -1.0835    4.0589 H   0  0  0  0  0  0  0  0  0  0  0  0
    2.7603    0.3582    4.1948 H   0  0  0  0  0  0  0  0  0  0  0  0
    4.7227    1.7261    4.2638 H   0  0  0  0  0  0  0  0  0  0  0  0
    5.7534    0.2773    4.0975 H   0  0  0  0  0  0  0  0  0  0  0  0
    6.6279    1.1646    1.9297 H   0  0  0  0  0  0  0  0  0  0  0  0
    6.9321    2.3139    3.2545 H   0  0  0  0  0  0  0  0  0  0  0  0
    5.6119    2.5917    2.0933 H   0  0  0  0  0  0  0  0  0  0  0  0
  1  2  1  0
  2  3  1  0
  3  4  2  0
  4  5  1  0
  5  6  2  0
  6  7  1  0
  7  8  2  0
  2  9  2  0
  9 10  1  0
 10 11  2  0
 11 12  1  0
 12 13  1  0
 13 14  1  0
 13 15  1  0
 12 16  2  0
 16 17  1  0
 17 18  2  3
 18 19  1  0
 19 20  1  0
 20 21  1  0
 21 22  1  0
 22 23  1  0
 23 24  1  0
 17 25  1  0
 25  1  1  0
  8  3  1  0
 25 10  1  0
  1 26  1  0
  4 27  1  0
  5 28  1  0
  6 29  1  0
  8 30  1  0
 13 31  1  0
 14 32  1  0
 14 33  1  0
 14 34  1  0
 15 35  1  0
 15 36  1  0
 15 37  1  0
 16 38  1  0
 19 39  1  0
 19 40  1  0
 20 41  1  0
 20 42  1  0
 21 43  1  0
 21 44  1  0
 23 45  1  0
 23 46  1  0
 24 47  1  0
 24 48  1  0
 24 49  1  0
M  END
>  <ScrubInfo>  (4) 
{"isomerGroup": 0, "isomerId": 3, "confId": 0, "nr_conformers:": 1, "nr_isomers:": 4}

$$$$
