REMARK SMILES CCOCCCNc1cc(C(C)C)nc2nc(-c3cccnc3)nn12
REMARK SMILES IDX 5 1 4 2 3 3 2 4 1 5 6 6 7 7 8 9 9 10 25 11 10 12 24 13 15 14
REMARK SMILES IDX 14 15 17 16 16 17 11 18 12 19 13 20 18 21 19 22 23 23 20 24
REMARK SMILES IDX 22 25 21 26
REMARK H PARENT 7 8
ROOT
ATOM      1  C   UNL     1       1.775   1.672   0.297  1.00  0.00     0.050 C 
ENDROOT
BRANCH   1   2
ATOM      2  C   UNL     1       3.131   1.079  -0.070  1.00  0.00     0.162 C 
BRANCH   2   3
ATOM      3  O   UNL     1       4.015   1.181   1.046  1.00  0.00    -0.382 OA
BRANCH   3   4
ATOM      4  C   UNL     1       5.316   0.687   0.736  1.00  0.00     0.156 C 
ATOM      5  C   UNL     1       6.185   0.818   1.971  1.00  0.00     0.035 C 
ENDBRANCH   3   4
ENDBRANCH   2   3
ENDBRANCH   1   2
BRANCH   1   6
ATOM      6  C   UNL     1       1.113   0.982   1.488  1.00  0.00     0.117 C 
BRANCH   6   7
ATOM      7  N   UNL     1       0.794  -0.409   1.204  1.00  0.00    -0.370 N 
ATOM      8  H   UNL     1       1.522  -1.064   1.479  1.00  0.00     0.162 HD
BRANCH   7   9
ATOM      9  C   UNL     1      -0.277  -0.945   0.487  1.00  0.00     0.133 A 
ATOM     10  C   UNL     1      -0.348  -2.271   0.261  1.00  0.00     0.071 A 
ATOM     11  N   UNL     1      -1.331  -0.141  -0.030  1.00  0.00    -0.180 N 
ATOM     12  C   UNL     1      -1.519  -2.791  -0.512  1.00  0.00     0.051 A 
ATOM     13  N   UNL     1      -1.524   1.205   0.038  1.00  0.00    -0.143 NA
ATOM     14  C   UNL     1      -2.392  -0.712  -0.749  1.00  0.00     0.254 A 
ATOM     15  N   UNL     1      -2.477  -2.051  -0.986  1.00  0.00    -0.216 NA
ATOM     16  C   UNL     1      -2.671   1.383  -0.627  1.00  0.00     0.185 A 
ATOM     17  N   UNL     1      -3.224   0.234  -1.122  1.00  0.00    -0.189 NA
BRANCH  12  18
ATOM     18  C   UNL     1      -1.604  -4.298  -0.770  1.00  0.00     0.032 C 
ATOM     19  C   UNL     1      -0.430  -4.782  -1.616  1.00  0.00     0.014 C 
ATOM     20  C   UNL     1      -1.721  -5.077   0.536  1.00  0.00     0.014 C 
ENDBRANCH  12  18
BRANCH  16  21
ATOM     21  C   UNL     1      -3.294   2.682  -0.824  1.00  0.00     0.039 A 
ATOM     22  C   UNL     1      -2.736   3.858  -0.312  1.00  0.00     0.015 A 
ATOM     23  C   UNL     1      -4.482   2.804  -1.538  1.00  0.00     0.123 A 
ATOM     24  C   UNL     1      -3.370   5.080  -0.528  1.00  0.00     0.021 A 
ATOM     25  N   UNL     1      -5.123   3.979  -1.766  1.00  0.00    -0.264 NA
ATOM     26  C   UNL     1      -4.550   5.089  -1.254  1.00  0.00     0.111 A 
ENDBRANCH  16  21
ENDBRANCH   7   9
ENDBRANCH   6   7
ENDBRANCH   1   6
TORSDOF 8
