REMARK SMILES COCCCNc1nc(Nc2ccc(C)cc2O)c2cnn(C)c2n1
REMARK SMILES IDX 6 1 5 3 4 4 3 5 2 6 1 7 7 8 8 9 25 10 9 11 24 12 19 13 22 14
REMARK SMILES IDX 20 15 21 16 23 17 10 18 11 20 12 21 17 22 13 23 16 24 14 25
REMARK SMILES IDX 15 26 18 27
REMARK H PARENT 6 2 10 19 18 28
ROOT
ATOM      1  N   UNL     1       2.885  -0.052  -0.856  1.00  0.00    -0.354 N 
ATOM      2  H   UNL     1       3.336  -0.835  -1.319  1.00  0.00     0.163 HD
ENDROOT
BRANCH   1   3
ATOM      3  C   UNL     1       3.134   0.060   0.570  1.00  0.00     0.118 C 
BRANCH   3   4
ATOM      4  C   UNL     1       4.639   0.034   0.824  1.00  0.00     0.050 C 
BRANCH   4   5
ATOM      5  C   UNL     1       4.949   0.197   2.308  1.00  0.00     0.161 C 
BRANCH   5   6
ATOM      6  O   UNL     1       6.340   0.018   2.574  1.00  0.00    -0.385 OA
ATOM      7  C   UNL     1       7.124   1.163   2.267  1.00  0.00     0.194 C 
ENDBRANCH   5   6
ENDBRANCH   4   5
ENDBRANCH   3   4
ENDBRANCH   1   3
BRANCH   1   8
ATOM      8  C   UNL     1       1.543  -0.120  -1.213  1.00  0.00     0.226 A 
ATOM      9  N   UNL     1       0.629   0.565  -0.497  1.00  0.00    -0.195 NA
ATOM     10  N   UNL     1       1.285  -0.895  -2.275  1.00  0.00    -0.193 NA
ATOM     11  C   UNL     1      -0.681   0.509  -0.837  1.00  0.00     0.147 A 
ATOM     12  C   UNL     1      -0.016  -0.916  -2.601  1.00  0.00     0.165 A 
ATOM     13  C   UNL     1      -1.037  -0.255  -1.949  1.00  0.00     0.082 A 
ATOM     14  N   UNL     1      -0.604  -1.583  -3.641  1.00  0.00    -0.250 N 
ATOM     15  C   UNL     1      -2.196  -0.584  -2.682  1.00  0.00     0.149 A 
ATOM     16  N   UNL     1      -1.944  -1.403  -3.710  1.00  0.00    -0.179 NA
ATOM     17  C   UNL     1       0.051  -2.413  -4.621  1.00  0.00     0.176 C 
BRANCH  11  18
ATOM     18  N   UNL     1      -1.574   1.267  -0.058  1.00  0.00    -0.336 N 
ATOM     19  H   UNL     1      -1.016   1.609   0.727  1.00  0.00     0.168 HD
BRANCH  18  20
ATOM     20  C   UNL     1      -2.833   0.827   0.420  1.00  0.00     0.082 A 
ATOM     21  C   UNL     1      -3.086  -0.498   0.785  1.00  0.00     0.030 A 
ATOM     22  C   UNL     1      -3.823   1.784   0.682  1.00  0.00     0.139 A 
ATOM     23  C   UNL     1      -4.320  -0.858   1.340  1.00  0.00     0.006 A 
ATOM     24  C   UNL     1      -5.050   1.440   1.240  1.00  0.00     0.051 A 
ATOM     25  C   UNL     1      -5.315   0.105   1.558  1.00  0.00    -0.047 A 
ATOM     26  C   UNL     1      -6.621  -0.280   2.187  1.00  0.00     0.044 C 
BRANCH  22  27
ATOM     27  O   UNL     1      -3.602   3.099   0.367  1.00  0.00    -0.506 OA
ATOM     28  H   UNL     1      -2.763   3.107  -0.132  1.00  0.00     0.293 HD
ENDBRANCH  22  27
ENDBRANCH  18  20
ENDBRANCH  11  18
ENDBRANCH   1   8
TORSDOF 8
