_i0
     RDKit          3D

 47 49  0  0  0  0  0  0  0  0999 V2000
    7.1241    1.1632    2.2669 C   0  0  0  0  0  0  0  0  0  0  0  0
    6.3395    0.0182    2.5741 O   0  0  0  0  0  0  0  0  0  0  0  0
    4.9492    0.1974    2.3078 C   0  0  0  0  0  0  0  0  0  0  0  0
    4.6390    0.0335    0.8235 C   0  0  0  0  0  0  0  0  0  0  0  0
    3.1339    0.0603    0.5704 C   0  0  0  0  0  0  0  0  0  0  0  0
    2.8853   -0.0517   -0.8562 N   0  0  0  0  0  0  0  0  0  0  0  0
    1.5432   -0.1204   -1.2128 C   0  0  0  0  0  0  0  0  0  0  0  0
    0.6293    0.5648   -0.4968 N   0  0  0  0  0  0  0  0  0  0  0  0
   -0.6810    0.5095   -0.8373 C   0  0  0  0  0  0  0  0  0  0  0  0
   -1.5742    1.2672   -0.0576 N   0  0  0  0  0  0  0  0  0  0  0  0
   -2.8331    0.8272    0.4203 C   0  0  0  0  0  0  0  0  0  0  0  0
   -3.0863   -0.4983    0.7846 C   0  0  0  0  0  0  0  0  0  0  0  0
   -4.3199   -0.8578    1.3402 C   0  0  0  0  0  0  0  0  0  0  0  0
   -5.3151    0.1046    1.5576 C   0  0  0  0  0  0  0  0  0  0  0  0
   -6.6214   -0.2800    2.1865 C   0  0  0  0  0  0  0  0  0  0  0  0
   -5.0496    1.4403    1.2396 C   0  0  0  0  0  0  0  0  0  0  0  0
   -3.8231    1.7845    0.6819 C   0  0  0  0  0  0  0  0  0  0  0  0
   -3.6020    3.0989    0.3673 O   0  0  0  0  0  0  0  0  0  0  0  0
   -1.0374   -0.2548   -1.9491 C   0  0  0  0  0  0  0  0  0  0  0  0
   -2.1959   -0.5844   -2.6817 C   0  0  0  0  0  0  0  0  0  0  0  0
   -1.9437   -1.4035   -3.7099 N   0  0  0  0  0  0  0  0  0  0  0  0
   -0.6041   -1.5833   -3.6409 N   0  0  0  0  0  0  0  0  0  0  0  0
    0.0506   -2.4126   -4.6209 C   0  0  0  0  0  0  0  0  0  0  0  0
   -0.0161   -0.9161   -2.6010 C   0  0  0  0  0  0  0  0  0  0  0  0
    1.2850   -0.8946   -2.2745 N   0  0  0  0  0  0  0  0  0  0  0  0
    6.7694    2.0349    2.8250 H   0  0  0  0  0  0  0  0  0  0  0  0
    7.1121    1.3703    1.1937 H   0  0  0  0  0  0  0  0  0  0  0  0
    8.1563    0.9586    2.5642 H   0  0  0  0  0  0  0  0  0  0  0  0
    4.4214   -0.5761    2.8766 H   0  0  0  0  0  0  0  0  0  0  0  0
    4.6087    1.1680    2.6876 H   0  0  0  0  0  0  0  0  0  0  0  0
    5.1271    0.8269    0.2453 H   0  0  0  0  0  0  0  0  0  0  0  0
    5.0718   -0.9069    0.4588 H   0  0  0  0  0  0  0  0  0  0  0  0
    2.6571   -0.7692    1.1079 H   0  0  0  0  0  0  0  0  0  0  0  0
    2.7248    1.0017    0.9577 H   0  0  0  0  0  0  0  0  0  0  0  0
    3.3357   -0.8348   -1.3191 H   0  0  0  0  0  0  0  0  0  0  0  0
   -1.0160    1.6090    0.7268 H   0  0  0  0  0  0  0  0  0  0  0  0
   -2.3288   -1.2670    0.6562 H   0  0  0  0  0  0  0  0  0  0  0  0
   -4.4956   -1.8969    1.6122 H   0  0  0  0  0  0  0  0  0  0  0  0
   -7.4281    0.3765    1.8440 H   0  0  0  0  0  0  0  0  0  0  0  0
   -6.5469   -0.2106    3.2761 H   0  0  0  0  0  0  0  0  0  0  0  0
   -6.8988   -1.3039    1.9147 H   0  0  0  0  0  0  0  0  0  0  0  0
   -5.7905    2.2145    1.4196 H   0  0  0  0  0  0  0  0  0  0  0  0
   -2.7633    3.1071   -0.1324 H   0  0  0  0  0  0  0  0  0  0  0  0
   -3.2148   -0.2626   -2.5058 H   0  0  0  0  0  0  0  0  0  0  0  0
   -0.3819   -3.4149   -4.5673 H   0  0  0  0  0  0  0  0  0  0  0  0
    1.1222   -2.4609   -4.4153 H   0  0  0  0  0  0  0  0  0  0  0  0
   -0.1182   -1.9758   -5.6085 H   0  0  0  0  0  0  0  0  0  0  0  0
  1  2  1  0
  2  3  1  0
  3  4  1  0
  4  5  1  0
  5  6  1  0
  6  7  1  0
  7  8  2  0
  8  9  1  0
  9 10  1  0
 10 11  1  0
 11 12  2  0
 12 13  1  0
 13 14  2  0
 14 15  1  0
 14 16  1  0
 16 17  2  0
 17 18  1  0
  9 19  2  0
 19 20  1  0
 20 21  2  0
 21 22  1  0
 22 23  1  0
 22 24  1  0
 24 25  2  0
 25  7  1  0
 17 11  1  0
 24 19  1  0
  1 26  1  0
  1 27  1  0
  1 28  1  0
  3 29  1  0
  3 30  1  0
  4 31  1  0
  4 32  1  0
  5 33  1  0
  5 34  1  0
  6 35  1  0
 10 36  1  0
 12 37  1  0
 13 38  1  0
 15 39  1  0
 15 40  1  0
 15 41  1  0
 16 42  1  0
 18 43  1  0
 20 44  1  0
 23 45  1  0
 23 46  1  0
 23 47  1  0
M  END
>  <ScrubInfo>  (1) 
{"isomerGroup": 0, "isomerId": 0, "confId": 0, "nr_conformers:": 1, "nr_isomers:": 9}

$$$$
_i1
     RDKit          3D

 47 49  0  0  0  0  0  0  0  0999 V2000
    0.6899   -0.2890   -1.4315 N   0  0  0  0  0  0  0  0  0  0  0  0
   -0.6267   -0.4393   -1.0491 C   0  0  0  0  0  0  0  0  0  0  0  0
   -1.6130    0.4082   -1.5402 N   0  0  0  0  0  0  0  0  0  0  0  0
   -2.6120    1.0029   -0.7191 C   0  0  0  0  0  0  0  0  0  0  0  0
   -2.3583    1.4441    0.5834 C   0  0  0  0  0  0  0  0  0  0  0  0
   -3.3513    2.1112    1.3100 C   0  0  0  0  0  0  0  0  0  0  0  0
   -4.6069    2.3647    0.7411 C   0  0  0  0  0  0  0  0  0  0  0  0
   -5.6541    3.1124    1.5123 C   0  0  0  0  0  0  0  0  0  0  0  0
   -4.8485    1.9687   -0.5785 C   0  0  0  0  0  0  0  0  0  0  0  0
   -3.8579    1.3004   -1.2890 C   0  0  0  0  0  0  0  0  0  0  0  0
   -4.1329    0.9109   -2.5725 O   0  0  0  0  0  0  0  0  0  0  0  0
   -0.8643   -1.4734   -0.2307 C   0  0  0  0  0  0  0  0  0  0  0  0
   -2.0185   -2.1215    0.4038 C   0  0  0  0  0  0  0  0  0  0  0  0
   -1.6891   -3.1675    1.1206 N   0  0  0  0  0  0  0  0  0  0  0  0
   -0.2893   -3.2479    1.0434 N   0  0  0  0  0  0  0  0  0  0  0  0
    0.3663   -4.4580    1.4744 C   0  0  0  0  0  0  0  0  0  0  0  0
    0.2813   -2.3000    0.2098 C   0  0  0  0  0  0  0  0  0  0  0  0
    1.5102   -2.1318   -0.1437 N   0  0  0  0  0  0  0  0  0  0  0  0
    1.7298   -1.0633   -0.9837 C   0  0  0  0  0  0  0  0  0  0  0  0
    2.9224   -0.7563   -1.3710 N   0  0  0  0  0  0  0  0  0  0  0  0
    4.0464   -1.5377   -0.8619 C   0  0  0  0  0  0  0  0  0  0  0  0
    4.5109   -1.0414    0.5106 C   0  0  0  0  0  0  0  0  0  0  0  0
    5.0128    0.4014    0.4999 C   0  0  0  0  0  0  0  0  0  0  0  0
    3.9171    1.3088    0.6313 O   0  0  0  0  0  0  0  0  0  0  0  0
    4.3469    2.6605    0.5628 C   0  0  0  0  0  0  0  0  0  0  0  0
    0.9645    0.5040   -1.9889 H   0  0  0  0  0  0  0  0  0  0  0  0
   -1.1916    1.1564   -2.0922 H   0  0  0  0  0  0  0  0  0  0  0  0
   -1.3869    1.2910    1.0472 H   0  0  0  0  0  0  0  0  0  0  0  0
   -3.1332    2.4424    2.3237 H   0  0  0  0  0  0  0  0  0  0  0  0
   -6.6593    2.8075    1.2027 H   0  0  0  0  0  0  0  0  0  0  0  0
   -5.5437    4.1885    1.3468 H   0  0  0  0  0  0  0  0  0  0  0  0
   -5.5690    2.9081    2.5848 H   0  0  0  0  0  0  0  0  0  0  0  0
   -5.8029    2.1740   -1.0560 H   0  0  0  0  0  0  0  0  0  0  0  0
   -3.3898    0.3359   -2.8356 H   0  0  0  0  0  0  0  0  0  0  0  0
   -3.0397   -1.7521    0.2463 H   0  0  0  0  0  0  0  0  0  0  0  0
   -0.1436   -4.8874    2.3430 H   0  0  0  0  0  0  0  0  0  0  0  0
    1.4037   -4.2590    1.7619 H   0  0  0  0  0  0  0  0  0  0  0  0
    0.3638   -5.1998    0.6698 H   0  0  0  0  0  0  0  0  0  0  0  0
    3.8187   -2.6100   -0.8211 H   0  0  0  0  0  0  0  0  0  0  0  0
    4.8716   -1.4444   -1.5781 H   0  0  0  0  0  0  0  0  0  0  0  0
    5.3352   -1.6907    0.8296 H   0  0  0  0  0  0  0  0  0  0  0  0
    3.7039   -1.1485    1.2441 H   0  0  0  0  0  0  0  0  0  0  0  0
    5.5751    0.6131   -0.4170 H   0  0  0  0  0  0  0  0  0  0  0  0
    5.6796    0.5498    1.3575 H   0  0  0  0  0  0  0  0  0  0  0  0
    3.4725    3.3062    0.6795 H   0  0  0  0  0  0  0  0  0  0  0  0
    4.8061    2.8679   -0.4086 H   0  0  0  0  0  0  0  0  0  0  0  0
    5.0537    2.8802    1.3688 H   0  0  0  0  0  0  0  0  0  0  0  0
  1  2  1  0
  2  3  1  0
  3  4  1  0
  4  5  2  0
  5  6  1  0
  6  7  2  0
  7  8  1  0
  7  9  1  0
  9 10  2  0
 10 11  1  0
  2 12  2  0
 12 13  1  0
 13 14  2  0
 14 15  1  0
 15 16  1  0
 15 17  1  0
 17 18  2  0
 18 19  1  0
 19 20  2  3
 20 21  1  0
 21 22  1  0
 22 23  1  0
 23 24  1  0
 24 25  1  0
 19  1  1  0
 10  4  1  0
 17 12  1  0
  1 26  1  0
  3 27  1  0
  5 28  1  0
  6 29  1  0
  8 30  1  0
  8 31  1  0
  8 32  1  0
  9 33  1  0
 11 34  1  0
 13 35  1  0
 16 36  1  0
 16 37  1  0
 16 38  1  0
 21 39  1  0
 21 40  1  0
 22 41  1  0
 22 42  1  0
 23 43  1  0
 23 44  1  0
 25 45  1  0
 25 46  1  0
 25 47  1  0
M  END
>  <ScrubInfo>  (2) 
{"isomerGroup": 0, "isomerId": 1, "confId": 0, "nr_conformers:": 1, "nr_isomers:": 9}

$$$$
_i2
     RDKit          3D

 47 49  0  0  0  0  0  0  0  0999 V2000
    0.2452   -1.1473   -0.2404 N   0  0  0  0  0  0  0  0  0  0  0  0
    1.3016   -0.3933    0.2153 C   0  0  0  0  0  0  0  0  0  0  0  0
    2.4935   -1.0671    0.1522 N   0  0  0  0  0  0  0  0  0  0  0  0
    3.7437   -0.3855    0.4779 C   0  0  0  0  0  0  0  0  0  0  0  0
    4.8658   -1.4154    0.5971 C   0  0  0  0  0  0  0  0  0  0  0  0
    6.1862   -0.7660    0.9904 C   0  0  0  0  0  0  0  0  0  0  0  0
    6.5905    0.1282   -0.0435 O   0  0  0  0  0  0  0  0  0  0  0  0
    7.8232    0.7665    0.2658 C   0  0  0  0  0  0  0  0  0  0  0  0
    1.1781    0.8249    0.6727 N   0  0  0  0  0  0  0  0  0  0  0  0
   -0.1122    1.2591    0.6170 C   0  0  0  0  0  0  0  0  0  0  0  0
   -1.2370    0.5723    0.1867 C   0  0  0  0  0  0  0  0  0  0  0  0
   -2.2817    1.5059    0.3097 C   0  0  0  0  0  0  0  0  0  0  0  0
   -1.8702    2.6829    0.7988 N   0  0  0  0  0  0  0  0  0  0  0  0
   -0.5420    2.5046    0.9785 N   0  0  0  0  0  0  0  0  0  0  0  0
    0.2546    3.5914    1.4893 C   0  0  0  0  0  0  0  0  0  0  0  0
   -1.0861   -0.7976   -0.2608 C   0  0  0  0  0  0  0  0  0  0  0  0
   -2.0018   -1.6414   -0.6342 N   0  0  0  0  0  0  0  0  0  0  0  0
   -3.3651   -1.3168   -0.5899 C   0  0  0  0  0  0  0  0  0  0  0  0
   -4.0952   -1.4247    0.5945 C   0  0  0  0  0  0  0  0  0  0  0  0
   -5.4586   -1.1123    0.6119 C   0  0  0  0  0  0  0  0  0  0  0  0
   -6.1105   -0.6953   -0.5581 C   0  0  0  0  0  0  0  0  0  0  0  0
   -7.5792   -0.3898   -0.5415 C   0  0  0  0  0  0  0  0  0  0  0  0
   -5.3891   -0.6310   -1.7564 C   0  0  0  0  0  0  0  0  0  0  0  0
   -4.0355   -0.9471   -1.7616 C   0  0  0  0  0  0  0  0  0  0  0  0
   -3.3560   -0.8978   -2.9490 O   0  0  0  0  0  0  0  0  0  0  0  0
    0.4142   -2.1269   -0.3990 H   0  0  0  0  0  0  0  0  0  0  0  0
    2.5869   -1.6531   -0.6696 H   0  0  0  0  0  0  0  0  0  0  0  0
    3.6422    0.1498    1.4293 H   0  0  0  0  0  0  0  0  0  0  0  0
    3.9704    0.3476   -0.3043 H   0  0  0  0  0  0  0  0  0  0  0  0
    4.9828   -1.9309   -0.3644 H   0  0  0  0  0  0  0  0  0  0  0  0
    4.5975   -2.1737    1.3425 H   0  0  0  0  0  0  0  0  0  0  0  0
    6.0781   -0.2195    1.9345 H   0  0  0  0  0  0  0  0  0  0  0  0
    6.9499   -1.5418    1.1175 H   0  0  0  0  0  0  0  0  0  0  0  0
    7.7278    1.3598    1.1803 H   0  0  0  0  0  0  0  0  0  0  0  0
    8.0810    1.4353   -0.5596 H   0  0  0  0  0  0  0  0  0  0  0  0
    8.6205    0.0254    0.3780 H   0  0  0  0  0  0  0  0  0  0  0  0
   -3.3299    1.4004    0.0661 H   0  0  0  0  0  0  0  0  0  0  0  0
   -0.2177    3.9691    2.4000 H   0  0  0  0  0  0  0  0  0  0  0  0
    0.2938    4.3737    0.7272 H   0  0  0  0  0  0  0  0  0  0  0  0
    1.2637    3.2424    1.7191 H   0  0  0  0  0  0  0  0  0  0  0  0
   -3.6034   -1.7481    1.5075 H   0  0  0  0  0  0  0  0  0  0  0  0
   -6.0101   -1.1972    1.5461 H   0  0  0  0  0  0  0  0  0  0  0  0
   -7.8304    0.3610   -1.2981 H   0  0  0  0  0  0  0  0  0  0  0  0
   -7.8825    0.0144    0.4299 H   0  0  0  0  0  0  0  0  0  0  0  0
   -8.1530   -1.2999   -0.7414 H   0  0  0  0  0  0  0  0  0  0  0  0
   -5.8741   -0.3435   -2.6852 H   0  0  0  0  0  0  0  0  0  0  0  0
   -2.4703   -1.2520   -2.7382 H   0  0  0  0  0  0  0  0  0  0  0  0
  1  2  1  0
  2  3  1  0
  3  4  1  0
  4  5  1  0
  5  6  1  0
  6  7  1  0
  7  8  1  0
  2  9  2  0
  9 10  1  0
 10 11  2  0
 11 12  1  0
 12 13  2  0
 13 14  1  0
 14 15  1  0
 11 16  1  0
 16 17  2  3
 17 18  1  0
 18 19  2  0
 19 20  1  0
 20 21  2  0
 21 22  1  0
 21 23  1  0
 23 24  2  0
 24 25  1  0
 16  1  1  0
 24 18  1  0
 14 10  1  0
  1 26  1  0
  3 27  1  0
  4 28  1  0
  4 29  1  0
  5 30  1  0
  5 31  1  0
  6 32  1  0
  6 33  1  0
  8 34  1  0
  8 35  1  0
  8 36  1  0
 12 37  1  0
 15 38  1  0
 15 39  1  0
 15 40  1  0
 19 41  1  0
 20 42  1  0
 22 43  1  0
 22 44  1  0
 22 45  1  0
 23 46  1  0
 25 47  1  0
M  END
>  <ScrubInfo>  (3) 
{"isomerGroup": 0, "isomerId": 2, "confId": 0, "nr_conformers:": 1, "nr_isomers:": 9}

$$$$
_i3
     RDKit          3D

 47 49  0  0  0  0  0  0  0  0999 V2000
    1.2219   -1.7567    0.1035 N   0  0  0  0  0  0  0  0  0  0  0  0
    1.5353   -0.4168    0.2716 C   0  0  0  0  0  0  0  0  0  0  0  0
    2.6789    0.1280    0.0430 N   0  0  0  0  0  0  0  0  0  0  0  0
    3.7805   -0.6904   -0.4404 C   0  0  0  0  0  0  0  0  0  0  0  0
    5.0020    0.1979   -0.6554 C   0  0  0  0  0  0  0  0  0  0  0  0
    5.5290    0.7852    0.6521 C   0  0  0  0  0  0  0  0  0  0  0  0
    6.7731    1.4606    0.4460 O   0  0  0  0  0  0  0  0  0  0  0  0
    6.6053    2.7821   -0.0510 C   0  0  0  0  0  0  0  0  0  0  0  0
    0.5934    0.4909    0.7308 N   0  0  0  0  0  0  0  0  0  0  0  0
   -0.6241    0.0917    0.9788 C   0  0  0  0  0  0  0  0  0  0  0  0
   -1.5898    0.9427    1.4599 N   0  0  0  0  0  0  0  0  0  0  0  0
   -2.8833    1.0789    0.8873 C   0  0  0  0  0  0  0  0  0  0  0  0
   -3.9360    1.4386    1.7390 C   0  0  0  0  0  0  0  0  0  0  0  0
   -5.2238    1.6518    1.2395 C   0  0  0  0  0  0  0  0  0  0  0  0
   -5.4819    1.5285   -0.1295 C   0  0  0  0  0  0  0  0  0  0  0  0
   -6.8579    1.7877   -0.6687 C   0  0  0  0  0  0  0  0  0  0  0  0
   -4.4246    1.2283   -0.9969 C   0  0  0  0  0  0  0  0  0  0  0  0
   -3.1392    1.0178   -0.4911 C   0  0  0  0  0  0  0  0  0  0  0  0
   -2.1086    0.7697   -1.3557 O   0  0  0  0  0  0  0  0  0  0  0  0
   -0.9846   -1.3013    0.8389 C   0  0  0  0  0  0  0  0  0  0  0  0
   -2.1080   -2.1146    1.0511 C   0  0  0  0  0  0  0  0  0  0  0  0
   -1.8718   -3.4026    0.7510 N   0  0  0  0  0  0  0  0  0  0  0  0
   -0.5781   -3.4068    0.3463 N   0  0  0  0  0  0  0  0  0  0  0  0
    0.0243   -4.6524   -0.0541 C   0  0  0  0  0  0  0  0  0  0  0  0
   -0.0235   -2.1678    0.3970 C   0  0  0  0  0  0  0  0  0  0  0  0
    1.9530   -2.3684   -0.2231 H   0  0  0  0  0  0  0  0  0  0  0  0
    3.5175   -1.1547   -1.3983 H   0  0  0  0  0  0  0  0  0  0  0  0
    4.0237   -1.4841    0.2759 H   0  0  0  0  0  0  0  0  0  0  0  0
    4.7563    1.0035   -1.3570 H   0  0  0  0  0  0  0  0  0  0  0  0
    5.7985   -0.3865   -1.1322 H   0  0  0  0  0  0  0  0  0  0  0  0
    4.8040    1.4567    1.1264 H   0  0  0  0  0  0  0  0  0  0  0  0
    5.7305   -0.0270    1.3591 H   0  0  0  0  0  0  0  0  0  0  0  0
    7.5939    3.2414   -0.1377 H   0  0  0  0  0  0  0  0  0  0  0  0
    6.1434    2.7741   -1.0417 H   0  0  0  0  0  0  0  0  0  0  0  0
    6.0058    3.3809    0.6414 H   0  0  0  0  0  0  0  0  0  0  0  0
   -1.1780    1.8735    1.4934 H   0  0  0  0  0  0  0  0  0  0  0  0
   -3.7574    1.5394    2.8074 H   0  0  0  0  0  0  0  0  0  0  0  0
   -6.0229    1.9168    1.9289 H   0  0  0  0  0  0  0  0  0  0  0  0
   -6.9684    2.8474   -0.9184 H   0  0  0  0  0  0  0  0  0  0  0  0
   -7.0436    1.1902   -1.5674 H   0  0  0  0  0  0  0  0  0  0  0  0
   -7.6230    1.5151    0.0658 H   0  0  0  0  0  0  0  0  0  0  0  0
   -4.6120    1.1705   -2.0656 H   0  0  0  0  0  0  0  0  0  0  0  0
   -2.4475    0.7564   -2.2649 H   0  0  0  0  0  0  0  0  0  0  0  0
   -3.0893   -1.8348    1.4109 H   0  0  0  0  0  0  0  0  0  0  0  0
    0.0438   -5.3186    0.8119 H   0  0  0  0  0  0  0  0  0  0  0  0
    1.0412   -4.4773   -0.4112 H   0  0  0  0  0  0  0  0  0  0  0  0
   -0.5782   -5.0856   -0.8566 H   0  0  0  0  0  0  0  0  0  0  0  0
  1  2  1  0
  2  3  2  3
  3  4  1  0
  4  5  1  0
  5  6  1  0
  6  7  1  0
  7  8  1  0
  2  9  1  0
  9 10  2  0
 10 11  1  0
 11 12  1  0
 12 13  2  0
 13 14  1  0
 14 15  2  0
 15 16  1  0
 15 17  1  0
 17 18  2  0
 18 19  1  0
 10 20  1  0
 20 21  1  0
 21 22  2  0
 22 23  1  0
 23 24  1  0
 23 25  1  0
 25  1  1  0
 18 12  1  0
 25 20  2  0
  1 26  1  0
  4 27  1  0
  4 28  1  0
  5 29  1  0
  5 30  1  0
  6 31  1  0
  6 32  1  0
  8 33  1  0
  8 34  1  0
  8 35  1  0
 11 36  1  0
 13 37  1  0
 14 38  1  0
 16 39  1  0
 16 40  1  0
 16 41  1  0
 17 42  1  0
 19 43  1  0
 21 44  1  0
 24 45  1  0
 24 46  1  0
 24 47  1  0
M  END
>  <ScrubInfo>  (4) 
{"isomerGroup": 0, "isomerId": 3, "confId": 0, "nr_conformers:": 1, "nr_isomers:": 9}

$$$$
_i4
     RDKit          3D

 47 49  0  0  0  0  0  0  0  0999 V2000
   -1.3301    0.4920    2.5388 N   0  0  0  0  0  0  0  0  0  0  0  0
   -1.9016    0.1640    1.3126 C   0  0  0  0  0  0  0  0  0  0  0  0
   -1.0046   -0.1788    0.3752 C   0  0  0  0  0  0  0  0  0  0  0  0
   -0.9711   -0.6315   -1.0099 C   0  0  0  0  0  0  0  0  0  0  0  0
   -1.9172   -0.7744   -1.8764 N   0  0  0  0  0  0  0  0  0  0  0  0
   -3.2343   -0.4100   -1.5686 C   0  0  0  0  0  0  0  0  0  0  0  0
   -4.1767   -1.4153   -1.3417 C   0  0  0  0  0  0  0  0  0  0  0  0
   -5.5120   -1.0965   -1.0779 C   0  0  0  0  0  0  0  0  0  0  0  0
   -5.9333    0.2390   -1.0621 C   0  0  0  0  0  0  0  0  0  0  0  0
   -7.3606    0.5795   -0.7490 C   0  0  0  0  0  0  0  0  0  0  0  0
   -4.9956    1.2536   -1.2931 C   0  0  0  0  0  0  0  0  0  0  0  0
   -3.6631    0.9262   -1.5536 C   0  0  0  0  0  0  0  0  0  0  0  0
   -2.7504    1.9254   -1.7675 O   0  0  0  0  0  0  0  0  0  0  0  0
    0.2809   -0.9849   -1.4452 N   0  0  0  0  0  0  0  0  0  0  0  0
    1.3529   -0.8451   -0.7234 C   0  0  0  0  0  0  0  0  0  0  0  0
    2.5207   -1.2324   -1.3108 N   0  0  0  0  0  0  0  0  0  0  0  0
    3.7533   -1.4877   -0.6052 C   0  0  0  0  0  0  0  0  0  0  0  0
    4.5450   -0.1975   -0.4178 C   0  0  0  0  0  0  0  0  0  0  0  0
    5.8822   -0.4735    0.2625 C   0  0  0  0  0  0  0  0  0  0  0  0
    6.5793    0.7279    0.5908 O   0  0  0  0  0  0  0  0  0  0  0  0
    7.1679    1.3678   -0.5332 C   0  0  0  0  0  0  0  0  0  0  0  0
    1.3933   -0.3580    0.5546 N   0  0  0  0  0  0  0  0  0  0  0  0
    0.2739   -0.0207    1.0920 C   0  0  0  0  0  0  0  0  0  0  0  0
    0.0471    0.4962    2.3687 N   0  0  0  0  0  0  0  0  0  0  0  0
    0.9001    0.1355    3.4837 C   0  0  0  0  0  0  0  0  0  0  0  0
   -1.7308    1.3387    2.9489 H   0  0  0  0  0  0  0  0  0  0  0  0
   -2.9762    0.2133    1.2200 H   0  0  0  0  0  0  0  0  0  0  0  0
   -3.8642   -2.4558   -1.3784 H   0  0  0  0  0  0  0  0  0  0  0  0
   -6.2214   -1.9012   -0.8968 H   0  0  0  0  0  0  0  0  0  0  0  0
   -7.6620    1.5023   -1.2557 H   0  0  0  0  0  0  0  0  0  0  0  0
   -8.0354   -0.2129   -1.0896 H   0  0  0  0  0  0  0  0  0  0  0  0
   -7.4854    0.7110    0.3302 H   0  0  0  0  0  0  0  0  0  0  0  0
   -5.3091    2.2932   -1.2623 H   0  0  0  0  0  0  0  0  0  0  0  0
   -3.2266    2.7228   -2.0474 H   0  0  0  0  0  0  0  0  0  0  0  0
    2.3741   -1.7183   -2.1869 H   0  0  0  0  0  0  0  0  0  0  0  0
    4.3481   -2.1950   -1.1950 H   0  0  0  0  0  0  0  0  0  0  0  0
    3.5560   -1.9719    0.3585 H   0  0  0  0  0  0  0  0  0  0  0  0
    4.7071    0.2795   -1.3916 H   0  0  0  0  0  0  0  0  0  0  0  0
    3.9780    0.5295    0.1758 H   0  0  0  0  0  0  0  0  0  0  0  0
    5.7069   -0.9978    1.2085 H   0  0  0  0  0  0  0  0  0  0  0  0
    6.5190   -1.1211   -0.3518 H   0  0  0  0  0  0  0  0  0  0  0  0
    7.8271    0.6794   -1.0707 H   0  0  0  0  0  0  0  0  0  0  0  0
    6.4007    1.7610   -1.2051 H   0  0  0  0  0  0  0  0  0  0  0  0
    7.7663    2.2086   -0.1716 H   0  0  0  0  0  0  0  0  0  0  0  0
    0.6236    0.7073    4.3754 H   0  0  0  0  0  0  0  0  0  0  0  0
    1.9475    0.3584    3.2559 H   0  0  0  0  0  0  0  0  0  0  0  0
    0.8106   -0.9315    3.7131 H   0  0  0  0  0  0  0  0  0  0  0  0
  1  2  1  0
  2  3  2  0
  3  4  1  0
  4  5  2  3
  5  6  1  0
  6  7  2  0
  7  8  1  0
  8  9  2  0
  9 10  1  0
  9 11  1  0
 11 12  2  0
 12 13  1  0
  4 14  1  0
 14 15  2  0
 15 16  1  0
 16 17  1  0
 17 18  1  0
 18 19  1  0
 19 20  1  0
 20 21  1  0
 15 22  1  0
 22 23  2  0
 23 24  1  0
 24 25  1  0
 24  1  1  0
 23  3  1  0
 12  6  1  0
  1 26  1  0
  2 27  1  0
  7 28  1  0
  8 29  1  0
 10 30  1  0
 10 31  1  0
 10 32  1  0
 11 33  1  0
 13 34  1  0
 16 35  1  0
 17 36  1  0
 17 37  1  0
 18 38  1  0
 18 39  1  0
 19 40  1  0
 19 41  1  0
 21 42  1  0
 21 43  1  0
 21 44  1  0
 25 45  1  0
 25 46  1  0
 25 47  1  0
M  END
>  <ScrubInfo>  (5) 
{"isomerGroup": 0, "isomerId": 4, "confId": 0, "nr_conformers:": 1, "nr_isomers:": 9}

$$$$
_i5
     RDKit          3D

 47 49  0  0  0  0  0  0  0  0999 V2000
    1.0998   -1.0859   -0.8463 N   0  0  0  0  0  0  0  0  0  0  0  0
    1.4320    0.0347   -0.1294 C   0  0  0  0  0  0  0  0  0  0  0  0
    2.7699    0.2214    0.0771 N   0  0  0  0  0  0  0  0  0  0  0  0
    3.7076    0.2743   -1.0377 C   0  0  0  0  0  0  0  0  0  0  0  0
    5.1345    0.4356   -0.5244 C   0  0  0  0  0  0  0  0  0  0  0  0
    5.6185   -0.7988    0.2331 C   0  0  0  0  0  0  0  0  0  0  0  0
    7.0118   -0.7014    0.5308 O   0  0  0  0  0  0  0  0  0  0  0  0
    7.2811    0.0711    1.6938 C   0  0  0  0  0  0  0  0  0  0  0  0
    0.5917    0.8979    0.3629 N   0  0  0  0  0  0  0  0  0  0  0  0
   -0.7767    0.7165    0.1800 C   0  0  0  0  0  0  0  0  0  0  0  0
   -1.5373    1.6309    0.6905 N   0  0  0  0  0  0  0  0  0  0  0  0
   -2.9330    1.5644    0.6338 C   0  0  0  0  0  0  0  0  0  0  0  0
   -3.6136    2.3625   -0.2886 C   0  0  0  0  0  0  0  0  0  0  0  0
   -5.0102    2.3554   -0.3446 C   0  0  0  0  0  0  0  0  0  0  0  0
   -5.7520    1.5663    0.5432 C   0  0  0  0  0  0  0  0  0  0  0  0
   -7.2497    1.5344    0.4584 C   0  0  0  0  0  0  0  0  0  0  0  0
   -5.0771    0.7686    1.4766 C   0  0  0  0  0  0  0  0  0  0  0  0
   -3.6813    0.7799    1.5252 C   0  0  0  0  0  0  0  0  0  0  0  0
   -3.0243   -0.0074    2.4338 O   0  0  0  0  0  0  0  0  0  0  0  0
   -1.1784   -0.4599   -0.5771 C   0  0  0  0  0  0  0  0  0  0  0  0
   -2.3718   -1.0513   -1.0302 C   0  0  0  0  0  0  0  0  0  0  0  0
   -2.1668   -2.1927   -1.7087 N   0  0  0  0  0  0  0  0  0  0  0  0
   -0.8227   -2.3365   -1.6916 N   0  0  0  0  0  0  0  0  0  0  0  0
   -0.2342   -3.4781   -2.3437 C   0  0  0  0  0  0  0  0  0  0  0  0
   -0.2093   -1.3123   -1.0451 C   0  0  0  0  0  0  0  0  0  0  0  0
    1.8237   -1.7754   -0.9901 H   0  0  0  0  0  0  0  0  0  0  0  0
    2.8593    1.0571    0.6565 H   0  0  0  0  0  0  0  0  0  0  0  0
    3.4556    1.1287   -1.6766 H   0  0  0  0  0  0  0  0  0  0  0  0
    3.6373   -0.6297   -1.6528 H   0  0  0  0  0  0  0  0  0  0  0  0
    5.8061    0.6187   -1.3723 H   0  0  0  0  0  0  0  0  0  0  0  0
    5.2078    1.3232    0.1146 H   0  0  0  0  0  0  0  0  0  0  0  0
    5.0424   -0.9734    1.1492 H   0  0  0  0  0  0  0  0  0  0  0  0
    5.4973   -1.6842   -0.4006 H   0  0  0  0  0  0  0  0  0  0  0  0
    6.7856   -0.3638    2.5671 H   0  0  0  0  0  0  0  0  0  0  0  0
    8.3605    0.0608    1.8677 H   0  0  0  0  0  0  0  0  0  0  0  0
    6.9649    1.1086    1.5577 H   0  0  0  0  0  0  0  0  0  0  0  0
   -3.0471    2.9964   -0.9657 H   0  0  0  0  0  0  0  0  0  0  0  0
   -5.5131    2.9778   -1.0815 H   0  0  0  0  0  0  0  0  0  0  0  0
   -7.6925    1.3471    1.4422 H   0  0  0  0  0  0  0  0  0  0  0  0
   -7.6418    2.4933    0.1036 H   0  0  0  0  0  0  0  0  0  0  0  0
   -7.5683    0.7453   -0.2297 H   0  0  0  0  0  0  0  0  0  0  0  0
   -5.6460    0.1404    2.1559 H   0  0  0  0  0  0  0  0  0  0  0  0
   -3.6686   -0.3631    3.0648 H   0  0  0  0  0  0  0  0  0  0  0  0
   -3.3918   -0.7158   -0.9063 H   0  0  0  0  0  0  0  0  0  0  0  0
    0.8549   -3.4166   -2.2951 H   0  0  0  0  0  0  0  0  0  0  0  0
   -0.5781   -4.3807   -1.8323 H   0  0  0  0  0  0  0  0  0  0  0  0
   -0.5565   -3.4842   -3.3881 H   0  0  0  0  0  0  0  0  0  0  0  0
  1  2  1  0
  2  3  1  0
  3  4  1  0
  4  5  1  0
  5  6  1  0
  6  7  1  0
  7  8  1  0
  2  9  2  0
  9 10  1  0
 10 11  2  3
 11 12  1  0
 12 13  2  0
 13 14  1  0
 14 15  2  0
 15 16  1  0
 15 17  1  0
 17 18  2  0
 18 19  1  0
 10 20  1  0
 20 21  1  0
 21 22  2  0
 22 23  1  0
 23 24  1  0
 23 25  1  0
 25  1  1  0
 18 12  1  0
 25 20  2  0
  1 26  1  0
  3 27  1  0
  4 28  1  0
  4 29  1  0
  5 30  1  0
  5 31  1  0
  6 32  1  0
  6 33  1  0
  8 34  1  0
  8 35  1  0
  8 36  1  0
 13 37  1  0
 14 38  1  0
 16 39  1  0
 16 40  1  0
 16 41  1  0
 17 42  1  0
 19 43  1  0
 21 44  1  0
 24 45  1  0
 24 46  1  0
 24 47  1  0
M  END
>  <ScrubInfo>  (6) 
{"isomerGroup": 0, "isomerId": 5, "confId": 0, "nr_conformers:": 1, "nr_isomers:": 9}

$$$$
_i6
     RDKit          3D

 47 49  0  0  0  0  0  0  0  0999 V2000
   -1.0632   -2.8748   -1.0487 N   0  0  0  0  0  0  0  0  0  0  0  0
   -1.7196   -1.6525   -1.1466 C   0  0  0  0  0  0  0  0  0  0  0  0
   -0.9354   -0.6151   -0.8281 C   0  0  0  0  0  0  0  0  0  0  0  0
   -1.0242    0.8355   -0.7134 C   0  0  0  0  0  0  0  0  0  0  0  0
   -2.1645    1.5583   -1.0004 N   0  0  0  0  0  0  0  0  0  0  0  0
   -3.3576    1.3093   -0.2742 C   0  0  0  0  0  0  0  0  0  0  0  0
   -4.5539    1.1798   -0.9888 C   0  0  0  0  0  0  0  0  0  0  0  0
   -5.7637    0.9656   -0.3219 C   0  0  0  0  0  0  0  0  0  0  0  0
   -5.8032    0.9129    1.0760 C   0  0  0  0  0  0  0  0  0  0  0  0
   -7.0937    0.6479    1.7932 C   0  0  0  0  0  0  0  0  0  0  0  0
   -4.6133    1.0697    1.7961 C   0  0  0  0  0  0  0  0  0  0  0  0
   -3.4100    1.2895    1.1276 C   0  0  0  0  0  0  0  0  0  0  0  0
   -2.3105    1.5011    1.9145 O   0  0  0  0  0  0  0  0  0  0  0  0
    0.0219    1.4963   -0.3043 N   0  0  0  0  0  0  0  0  0  0  0  0
    1.1730    0.7968   -0.0020 C   0  0  0  0  0  0  0  0  0  0  0  0
    2.1151    1.5460    0.4473 N   0  0  0  0  0  0  0  0  0  0  0  0
    3.3935    0.9436    0.8169 C   0  0  0  0  0  0  0  0  0  0  0  0
    4.3255    0.9094   -0.3892 C   0  0  0  0  0  0  0  0  0  0  0  0
    5.6875    0.3396   -0.0167 C   0  0  0  0  0  0  0  0  0  0  0  0
    6.5114    0.3238   -1.1827 O   0  0  0  0  0  0  0  0  0  0  0  0
    7.8078   -0.1854   -0.9015 C   0  0  0  0  0  0  0  0  0  0  0  0
    1.3760   -0.5577   -0.1365 N   0  0  0  0  0  0  0  0  0  0  0  0
    0.3696   -1.2486   -0.5479 C   0  0  0  0  0  0  0  0  0  0  0  0
    0.2807   -2.6200   -0.7891 N   0  0  0  0  0  0  0  0  0  0  0  0
    1.0377   -3.5678    0.0061 C   0  0  0  0  0  0  0  0  0  0  0  0
   -1.2594   -3.5065   -1.8286 H   0  0  0  0  0  0  0  0  0  0  0  0
   -2.7551   -1.6307   -1.4548 H   0  0  0  0  0  0  0  0  0  0  0  0
   -1.9561    2.5538   -0.9170 H   0  0  0  0  0  0  0  0  0  0  0  0
   -4.5462    1.2280   -2.0753 H   0  0  0  0  0  0  0  0  0  0  0  0
   -6.6764    0.8448   -0.9017 H   0  0  0  0  0  0  0  0  0  0  0  0
   -7.1036    1.1369    2.7730 H   0  0  0  0  0  0  0  0  0  0  0  0
   -7.9440    1.0408    1.2260 H   0  0  0  0  0  0  0  0  0  0  0  0
   -7.2292   -0.4289    1.9333 H   0  0  0  0  0  0  0  0  0  0  0  0
   -4.6177    1.0387    2.8832 H   0  0  0  0  0  0  0  0  0  0  0  0
   -1.5655    1.8090    1.3661 H   0  0  0  0  0  0  0  0  0  0  0  0
    3.2810   -0.0521    1.2629 H   0  0  0  0  0  0  0  0  0  0  0  0
    3.8382    1.5680    1.6012 H   0  0  0  0  0  0  0  0  0  0  0  0
    4.4492    1.9183   -0.8030 H   0  0  0  0  0  0  0  0  0  0  0  0
    3.8894    0.3133   -1.2003 H   0  0  0  0  0  0  0  0  0  0  0  0
    5.5792   -0.6825    0.3646 H   0  0  0  0  0  0  0  0  0  0  0  0
    6.1592    0.9596    0.7544 H   0  0  0  0  0  0  0  0  0  0  0  0
    7.7445   -1.2161   -0.5393 H   0  0  0  0  0  0  0  0  0  0  0  0
    8.3147    0.4433   -0.1632 H   0  0  0  0  0  0  0  0  0  0  0  0
    8.3900   -0.1757   -1.8268 H   0  0  0  0  0  0  0  0  0  0  0  0
    0.9122   -4.5813   -0.3883 H   0  0  0  0  0  0  0  0  0  0  0  0
    0.7030   -3.5558    1.0486 H   0  0  0  0  0  0  0  0  0  0  0  0
    2.1055   -3.3279   -0.0222 H   0  0  0  0  0  0  0  0  0  0  0  0
  1  2  1  0
  2  3  2  0
  3  4  1  0
  4  5  1  0
  5  6  1  0
  6  7  2  0
  7  8  1  0
  8  9  2  0
  9 10  1  0
  9 11  1  0
 11 12  2  0
 12 13  1  0
  4 14  2  0
 14 15  1  0
 15 16  2  3
 16 17  1  0
 17 18  1  0
 18 19  1  0
 19 20  1  0
 20 21  1  0
 15 22  1  0
 22 23  2  0
 23 24  1  0
 24 25  1  0
 24  1  1  0
 23  3  1  0
 12  6  1  0
  1 26  1  0
  2 27  1  0
  5 28  1  0
  7 29  1  0
  8 30  1  0
 10 31  1  0
 10 32  1  0
 10 33  1  0
 11 34  1  0
 13 35  1  0
 17 36  1  0
 17 37  1  0
 18 38  1  0
 18 39  1  0
 19 40  1  0
 19 41  1  0
 21 42  1  0
 21 43  1  0
 21 44  1  0
 25 45  1  0
 25 46  1  0
 25 47  1  0
M  END
>  <ScrubInfo>  (7) 
{"isomerGroup": 0, "isomerId": 6, "confId": 0, "nr_conformers:": 1, "nr_isomers:": 9}

$$$$
_i7
     RDKit          3D

 47 49  0  0  0  0  0  0  0  0999 V2000
   -1.1514    0.5379    2.6019 N   0  0  0  0  0  0  0  0  0  0  0  0
   -1.7790    0.1982    1.4079 C   0  0  0  0  0  0  0  0  0  0  0  0
   -0.9413   -0.2778    0.4758 C   0  0  0  0  0  0  0  0  0  0  0  0
   -0.9621   -0.8277   -0.8939 C   0  0  0  0  0  0  0  0  0  0  0  0
   -1.9587   -0.9589   -1.7179 N   0  0  0  0  0  0  0  0  0  0  0  0
   -3.2342   -0.4834   -1.3821 C   0  0  0  0  0  0  0  0  0  0  0  0
   -4.2162   -1.3943   -0.9873 C   0  0  0  0  0  0  0  0  0  0  0  0
   -5.5102   -0.9606   -0.6847 C   0  0  0  0  0  0  0  0  0  0  0  0
   -5.8500    0.3934   -0.7972 C   0  0  0  0  0  0  0  0  0  0  0  0
   -7.2315    0.8595   -0.4426 C   0  0  0  0  0  0  0  0  0  0  0  0
   -4.8715    1.3129   -1.1971 C   0  0  0  0  0  0  0  0  0  0  0  0
   -3.5805    0.8721   -1.4959 C   0  0  0  0  0  0  0  0  0  0  0  0
   -2.6250    1.7754   -1.8819 O   0  0  0  0  0  0  0  0  0  0  0  0
    0.2747   -1.2570   -1.2939 N   0  0  0  0  0  0  0  0  0  0  0  0
    1.4467   -1.1859   -0.5969 C   0  0  0  0  0  0  0  0  0  0  0  0
    2.5221   -1.6384   -1.1542 N   0  0  0  0  0  0  0  0  0  0  0  0
    3.7812   -1.5723   -0.4104 C   0  0  0  0  0  0  0  0  0  0  0  0
    4.4816   -0.2459   -0.6875 C   0  0  0  0  0  0  0  0  0  0  0  0
    5.8350   -0.1837    0.0135 C   0  0  0  0  0  0  0  0  0  0  0  0
    6.4534    1.0965   -0.1228 O   0  0  0  0  0  0  0  0  0  0  0  0
    7.0150    1.3166   -1.4094 C   0  0  0  0  0  0  0  0  0  0  0  0
    1.5007   -0.6379    0.6667 N   0  0  0  0  0  0  0  0  0  0  0  0
    0.3916   -0.1931    1.1708 C   0  0  0  0  0  0  0  0  0  0  0  0
    0.2183    0.4109    2.4186 N   0  0  0  0  0  0  0  0  0  0  0  0
    1.0543    0.0520    3.5475 C   0  0  0  0  0  0  0  0  0  0  0  0
   -1.4705    1.4323    2.9808 H   0  0  0  0  0  0  0  0  0  0  0  0
   -2.8472    0.3376    1.3354 H   0  0  0  0  0  0  0  0  0  0  0  0
   -3.9690   -2.4504   -0.9192 H   0  0  0  0  0  0  0  0  0  0  0  0
   -6.2526   -1.6912   -0.3705 H   0  0  0  0  0  0  0  0  0  0  0  0
   -7.5110    1.7378   -1.0340 H   0  0  0  0  0  0  0  0  0  0  0  0
   -7.9723    0.0801   -0.6495 H   0  0  0  0  0  0  0  0  0  0  0  0
   -7.2773    1.1185    0.6197 H   0  0  0  0  0  0  0  0  0  0  0  0
   -5.1232    2.3671   -1.2696 H   0  0  0  0  0  0  0  0  0  0  0  0
   -3.0622    2.6057   -2.1278 H   0  0  0  0  0  0  0  0  0  0  0  0
    0.3422   -1.6379   -2.2250 H   0  0  0  0  0  0  0  0  0  0  0  0
    4.4136   -2.3967   -0.7609 H   0  0  0  0  0  0  0  0  0  0  0  0
    3.6489   -1.7394    0.6654 H   0  0  0  0  0  0  0  0  0  0  0  0
    4.6070   -0.1173   -1.7688 H   0  0  0  0  0  0  0  0  0  0  0  0
    3.8619    0.5979   -0.3606 H   0  0  0  0  0  0  0  0  0  0  0  0
    5.6946   -0.3473    1.0877 H   0  0  0  0  0  0  0  0  0  0  0  0
    6.5109   -0.9684   -0.3468 H   0  0  0  0  0  0  0  0  0  0  0  0
    7.7261    0.5247   -1.6633 H   0  0  0  0  0  0  0  0  0  0  0  0
    7.5517    2.2692   -1.3880 H   0  0  0  0  0  0  0  0  0  0  0  0
    6.2341    1.3839   -2.1713 H   0  0  0  0  0  0  0  0  0  0  0  0
    0.8317    0.6941    4.4059 H   0  0  0  0  0  0  0  0  0  0  0  0
    2.1130    0.1809    3.3006 H   0  0  0  0  0  0  0  0  0  0  0  0
    0.8865   -0.9899    3.8399 H   0  0  0  0  0  0  0  0  0  0  0  0
  1  2  1  0
  2  3  2  0
  3  4  1  0
  4  5  2  3
  5  6  1  0
  6  7  2  0
  7  8  1  0
  8  9  2  0
  9 10  1  0
  9 11  1  0
 11 12  2  0
 12 13  1  0
  4 14  1  0
 14 15  1  0
 15 16  2  3
 16 17  1  0
 17 18  1  0
 18 19  1  0
 19 20  1  0
 20 21  1  0
 15 22  1  0
 22 23  2  0
 23 24  1  0
 24 25  1  0
 24  1  1  0
 23  3  1  0
 12  6  1  0
  1 26  1  0
  2 27  1  0
  7 28  1  0
  8 29  1  0
 10 30  1  0
 10 31  1  0
 10 32  1  0
 11 33  1  0
 13 34  1  0
 14 35  1  0
 17 36  1  0
 17 37  1  0
 18 38  1  0
 18 39  1  0
 19 40  1  0
 19 41  1  0
 21 42  1  0
 21 43  1  0
 21 44  1  0
 25 45  1  0
 25 46  1  0
 25 47  1  0
M  END
>  <ScrubInfo>  (8) 
{"isomerGroup": 0, "isomerId": 7, "confId": 0, "nr_conformers:": 1, "nr_isomers:": 9}

$$$$
_i8
     RDKit          3D

 47 49  0  0  0  0  0  0  0  0999 V2000
    1.1957   -1.5646   -0.0055 N   0  0  0  0  0  0  0  0  0  0  0  0
    1.6230   -0.2482   -0.0371 C   0  0  0  0  0  0  0  0  0  0  0  0
    2.8358    0.1926   -0.0577 N   0  0  0  0  0  0  0  0  0  0  0  0
    3.9271   -0.7769   -0.0485 C   0  0  0  0  0  0  0  0  0  0  0  0
    5.2576   -0.0319   -0.0888 C   0  0  0  0  0  0  0  0  0  0  0  0
    5.5018    0.7872    1.1766 C   0  0  0  0  0  0  0  0  0  0  0  0
    6.8301    1.3150    1.2012 O   0  0  0  0  0  0  0  0  0  0  0  0
    6.9748    2.4911    0.4159 C   0  0  0  0  0  0  0  0  0  0  0  0
    0.5888    0.6617   -0.0444 N   0  0  0  0  0  0  0  0  0  0  0  0
   -0.7794    0.4984   -0.0136 C   0  0  0  0  0  0  0  0  0  0  0  0
   -1.5753    1.5271   -0.0053 N   0  0  0  0  0  0  0  0  0  0  0  0
   -2.9671    1.3886    0.0812 C   0  0  0  0  0  0  0  0  0  0  0  0
   -3.6015    1.2433    1.3154 C   0  0  0  0  0  0  0  0  0  0  0  0
   -4.9936    1.1222    1.3813 C   0  0  0  0  0  0  0  0  0  0  0  0
   -5.7688    1.1525    0.2125 C   0  0  0  0  0  0  0  0  0  0  0  0
   -7.2637    1.0535    0.2899 C   0  0  0  0  0  0  0  0  0  0  0  0
   -5.1368    1.3445   -1.0221 C   0  0  0  0  0  0  0  0  0  0  0  0
   -3.7532    1.4683   -1.0742 C   0  0  0  0  0  0  0  0  0  0  0  0
   -3.1596    1.6797   -2.2894 O   0  0  0  0  0  0  0  0  0  0  0  0
   -1.1310   -0.9120   -0.0010 C   0  0  0  0  0  0  0  0  0  0  0  0
   -2.3065   -1.6863   -0.0193 C   0  0  0  0  0  0  0  0  0  0  0  0
   -2.0620   -3.0052    0.0003 N   0  0  0  0  0  0  0  0  0  0  0  0
   -0.7149   -3.0840    0.0211 N   0  0  0  0  0  0  0  0  0  0  0  0
   -0.0862   -4.3810    0.0304 C   0  0  0  0  0  0  0  0  0  0  0  0
   -0.1258   -1.8566    0.0082 C   0  0  0  0  0  0  0  0  0  0  0  0
    1.9084   -2.2815   -0.0109 H   0  0  0  0  0  0  0  0  0  0  0  0
    3.8646   -1.4234   -0.9320 H   0  0  0  0  0  0  0  0  0  0  0  0
    3.8834   -1.4070    0.8478 H   0  0  0  0  0  0  0  0  0  0  0  0
    5.2921    0.6189   -0.9702 H   0  0  0  0  0  0  0  0  0  0  0  0
    6.0751   -0.7529   -0.2117 H   0  0  0  0  0  0  0  0  0  0  0  0
    4.7692    1.5941    1.2937 H   0  0  0  0  0  0  0  0  0  0  0  0
    5.4108    0.1365    2.0532 H   0  0  0  0  0  0  0  0  0  0  0  0
    6.2879    3.2707    0.7589 H   0  0  0  0  0  0  0  0  0  0  0  0
    7.9987    2.8561    0.5346 H   0  0  0  0  0  0  0  0  0  0  0  0
    6.8078    2.2791   -0.6433 H   0  0  0  0  0  0  0  0  0  0  0  0
    0.8943    1.6243   -0.0466 H   0  0  0  0  0  0  0  0  0  0  0  0
   -3.0130    1.2225    2.2283 H   0  0  0  0  0  0  0  0  0  0  0  0
   -5.4704    1.0066    2.3524 H   0  0  0  0  0  0  0  0  0  0  0  0
   -7.6991    2.0503    0.4096 H   0  0  0  0  0  0  0  0  0  0  0  0
   -7.6721    0.5947   -0.6167 H   0  0  0  0  0  0  0  0  0  0  0  0
   -7.5699    0.4290    1.1358 H   0  0  0  0  0  0  0  0  0  0  0  0
   -5.7136    1.4073   -1.9408 H   0  0  0  0  0  0  0  0  0  0  0  0
   -2.2238    1.8633   -2.0763 H   0  0  0  0  0  0  0  0  0  0  0  0
   -3.3395   -1.3672   -0.0504 H   0  0  0  0  0  0  0  0  0  0  0  0
    0.8809   -4.3126    0.5338 H   0  0  0  0  0  0  0  0  0  0  0  0
    0.0442   -4.7027   -1.0056 H   0  0  0  0  0  0  0  0  0  0  0  0
   -0.7257   -5.0845    0.5700 H   0  0  0  0  0  0  0  0  0  0  0  0
  1  2  1  0
  2  3  2  3
  3  4  1  0
  4  5  1  0
  5  6  1  0
  6  7  1  0
  7  8  1  0
  2  9  1  0
  9 10  1  0
 10 11  2  3
 11 12  1  0
 12 13  2  0
 13 14  1  0
 14 15  2  0
 15 16  1  0
 15 17  1  0
 17 18  2  0
 18 19  1  0
 10 20  1  0
 20 21  1  0
 21 22  2  0
 22 23  1  0
 23 24  1  0
 23 25  1  0
 25  1  1  0
 18 12  1  0
 25 20  2  0
  1 26  1  0
  4 27  1  0
  4 28  1  0
  5 29  1  0
  5 30  1  0
  6 31  1  0
  6 32  1  0
  8 33  1  0
  8 34  1  0
  8 35  1  0
  9 36  1  0
 13 37  1  0
 14 38  1  0
 16 39  1  0
 16 40  1  0
 16 41  1  0
 17 42  1  0
 19 43  1  0
 21 44  1  0
 24 45  1  0
 24 46  1  0
 24 47  1  0
M  END
>  <ScrubInfo>  (9) 
{"isomerGroup": 0, "isomerId": 8, "confId": 0, "nr_conformers:": 1, "nr_isomers:": 9}

$$$$
