_i0
     RDKit          3D

 49 51  0  0  0  0  0  0  0  0999 V2000
   -3.4895   -2.1313    0.5594 C   0  0  0  0  0  0  0  0  0  0  0  0
   -4.0941   -0.8824    1.1416 C   0  0  0  0  0  0  0  0  0  0  0  0
   -5.4812   -0.8526    1.3736 C   0  0  0  0  0  0  0  0  0  0  0  0
   -6.0853    0.2750    1.9282 C   0  0  0  0  0  0  0  0  0  0  0  0
   -7.7820    0.2841    2.2124 Cl  0  0  0  0  0  0  0  0  0  0  0  0
   -5.3231    1.3883    2.2609 C   0  0  0  0  0  0  0  0  0  0  0  0
   -3.9487    1.3763    2.0213 C   0  0  0  0  0  0  0  0  0  0  0  0
   -3.3265    0.2628    1.4346 C   0  0  0  0  0  0  0  0  0  0  0  0
   -1.9291    0.3261    1.2449 N   0  0  0  0  0  0  0  0  0  0  0  0
   -1.2710    0.1522    0.0134 C   0  0  0  0  0  0  0  0  0  0  0  0
   -0.0877   -0.5089    0.0404 N   0  0  0  0  0  0  0  0  0  0  0  0
    0.5992   -0.7159   -1.0983 C   0  0  0  0  0  0  0  0  0  0  0  0
    1.8034   -1.4009   -1.0540 N   0  0  0  0  0  0  0  0  0  0  0  0
    2.6022   -1.2434    0.1533 C   0  0  0  0  0  0  0  0  0  0  0  0
    3.1683    0.1757    0.3169 C   0  0  0  0  0  0  0  0  0  0  0  0
    4.1041    0.2352    1.3971 O   0  0  0  0  0  0  0  0  0  0  0  0
    5.4486   -0.0849    1.0287 C   0  0  0  0  0  0  0  0  0  0  0  0
    6.1518    1.1621    0.5025 C   0  0  0  0  0  0  0  0  0  0  0  0
    6.1482   -0.6010    2.2803 C   0  0  0  0  0  0  0  0  0  0  0  0
    0.2320   -0.3066   -2.3189 N   0  0  0  0  0  0  0  0  0  0  0  0
   -0.9378    0.3508   -2.3183 C   0  0  0  0  0  0  0  0  0  0  0  0
   -1.7306    0.6174   -1.2197 C   0  0  0  0  0  0  0  0  0  0  0  0
   -2.8282    1.3309   -1.7427 C   0  0  0  0  0  0  0  0  0  0  0  0
   -2.7522    1.5036   -3.0680 N   0  0  0  0  0  0  0  0  0  0  0  0
   -1.5899    0.8919   -3.3926 N   0  0  0  0  0  0  0  0  0  0  0  0
   -1.1637    0.8672   -4.7690 C   0  0  0  0  0  0  0  0  0  0  0  0
   -2.5443   -2.3772    1.0535 H   0  0  0  0  0  0  0  0  0  0  0  0
   -4.1505   -2.9933    0.7019 H   0  0  0  0  0  0  0  0  0  0  0  0
   -3.3222   -2.0072   -0.5146 H   0  0  0  0  0  0  0  0  0  0  0  0
   -6.0925   -1.7187    1.1284 H   0  0  0  0  0  0  0  0  0  0  0  0
   -5.7869    2.2655    2.7032 H   0  0  0  0  0  0  0  0  0  0  0  0
   -3.3548    2.2503    2.2813 H   0  0  0  0  0  0  0  0  0  0  0  0
   -1.4418   -0.2819    1.9019 H   0  0  0  0  0  0  0  0  0  0  0  0
    2.2812   -1.2227   -1.9299 H   0  0  0  0  0  0  0  0  0  0  0  0
    3.4311   -1.9581    0.0950 H   0  0  0  0  0  0  0  0  0  0  0  0
    2.0453   -1.5372    1.0523 H   0  0  0  0  0  0  0  0  0  0  0  0
    2.3578    0.8699    0.5629 H   0  0  0  0  0  0  0  0  0  0  0  0
    3.6210    0.5327   -0.6152 H   0  0  0  0  0  0  0  0  0  0  0  0
    5.4637   -0.8737    0.2678 H   0  0  0  0  0  0  0  0  0  0  0  0
    5.6694    1.5326   -0.4072 H   0  0  0  0  0  0  0  0  0  0  0  0
    6.1054    1.9756    1.2350 H   0  0  0  0  0  0  0  0  0  0  0  0
    7.2019    0.9566    0.2722 H   0  0  0  0  0  0  0  0  0  0  0  0
    5.6312   -1.4862    2.6667 H   0  0  0  0  0  0  0  0  0  0  0  0
    7.1890   -0.8684    2.0737 H   0  0  0  0  0  0  0  0  0  0  0  0
    6.1293    0.1478    3.0801 H   0  0  0  0  0  0  0  0  0  0  0  0
   -3.6822    1.7319   -1.2120 H   0  0  0  0  0  0  0  0  0  0  0  0
   -1.9335    0.3627   -5.3584 H   0  0  0  0  0  0  0  0  0  0  0  0
   -1.0371    1.8984   -5.1081 H   0  0  0  0  0  0  0  0  0  0  0  0
   -0.2175    0.3290   -4.8588 H   0  0  0  0  0  0  0  0  0  0  0  0
  1  2  1  0
  2  3  2  0
  3  4  1  0
  4  5  1  0
  4  6  2  0
  6  7  1  0
  7  8  2  0
  8  9  1  0
  9 10  1  0
 10 11  2  0
 11 12  1  0
 12 13  1  0
 13 14  1  0
 14 15  1  0
 15 16  1  0
 16 17  1  0
 17 18  1  0
 17 19  1  0
 12 20  2  0
 20 21  1  0
 21 22  2  0
 22 23  1  0
 23 24  2  0
 24 25  1  0
 25 26  1  0
  8  2  1  0
 22 10  1  0
 25 21  1  0
  1 27  1  0
  1 28  1  0
  1 29  1  0
  3 30  1  0
  6 31  1  0
  7 32  1  0
  9 33  1  0
 13 34  1  0
 14 35  1  0
 14 36  1  0
 15 37  1  0
 15 38  1  0
 17 39  1  0
 18 40  1  0
 18 41  1  0
 18 42  1  0
 19 43  1  0
 19 44  1  0
 19 45  1  0
 23 46  1  0
 26 47  1  0
 26 48  1  0
 26 49  1  0
M  END
>  <ScrubInfo>  (1) 
{"isomerGroup": 0, "isomerId": 0, "confId": 0, "nr_conformers:": 1, "nr_isomers:": 9}

$$$$
_i1
     RDKit          3D

 49 51  0  0  0  0  0  0  0  0999 V2000
    0.6388    1.1154    0.3439 N   0  0  0  0  0  0  0  0  0  0  0  0
   -0.4875    0.4359   -0.0552 C   0  0  0  0  0  0  0  0  0  0  0  0
   -1.6309    1.1785    0.0842 N   0  0  0  0  0  0  0  0  0  0  0  0
   -2.9063    0.6633   -0.4085 C   0  0  0  0  0  0  0  0  0  0  0  0
   -4.0704    1.5149    0.1108 C   0  0  0  0  0  0  0  0  0  0  0  0
   -5.3103    1.1239   -0.4800 O   0  0  0  0  0  0  0  0  0  0  0  0
   -5.9554    0.0271    0.1747 C   0  0  0  0  0  0  0  0  0  0  0  0
   -6.7945    0.5395    1.3409 C   0  0  0  0  0  0  0  0  0  0  0  0
   -6.8441   -0.6539   -0.8593 C   0  0  0  0  0  0  0  0  0  0  0  0
   -0.4715   -0.7910   -0.5064 N   0  0  0  0  0  0  0  0  0  0  0  0
    0.7923   -1.2988   -0.5497 C   0  0  0  0  0  0  0  0  0  0  0  0
    1.9798   -0.6941   -0.1669 C   0  0  0  0  0  0  0  0  0  0  0  0
    2.9642   -1.6611   -0.4351 C   0  0  0  0  0  0  0  0  0  0  0  0
    2.4566   -2.7909   -0.9442 N   0  0  0  0  0  0  0  0  0  0  0  0
    1.1281   -2.5444   -1.0003 N   0  0  0  0  0  0  0  0  0  0  0  0
    0.2423   -3.5610   -1.5091 C   0  0  0  0  0  0  0  0  0  0  0  0
    1.9350    0.6533    0.3646 C   0  0  0  0  0  0  0  0  0  0  0  0
    2.9071    1.3838    0.8200 N   0  0  0  0  0  0  0  0  0  0  0  0
    4.2265    0.9243    0.8618 C   0  0  0  0  0  0  0  0  0  0  0  0
    4.6764    0.2518    2.0057 C   0  0  0  0  0  0  0  0  0  0  0  0
    5.9955   -0.1951    2.0972 C   0  0  0  0  0  0  0  0  0  0  0  0
    6.8756    0.0438    1.0462 C   0  0  0  0  0  0  0  0  0  0  0  0
    8.5017   -0.5077    1.1520 Cl  0  0  0  0  0  0  0  0  0  0  0  0
    6.4501    0.7321   -0.0900 C   0  0  0  0  0  0  0  0  0  0  0  0
    5.1264    1.1920   -0.1865 C   0  0  0  0  0  0  0  0  0  0  0  0
    4.6825    1.9383   -1.4129 C   0  0  0  0  0  0  0  0  0  0  0  0
    0.5158    1.9993    0.8091 H   0  0  0  0  0  0  0  0  0  0  0  0
   -1.5058    2.1613   -0.1312 H   0  0  0  0  0  0  0  0  0  0  0  0
   -2.9094    0.6621   -1.5050 H   0  0  0  0  0  0  0  0  0  0  0  0
   -3.0478   -0.3755   -0.0899 H   0  0  0  0  0  0  0  0  0  0  0  0
   -3.9045    2.5603   -0.1733 H   0  0  0  0  0  0  0  0  0  0  0  0
   -4.1229    1.4902    1.2051 H   0  0  0  0  0  0  0  0  0  0  0  0
   -5.2173   -0.6986    0.5340 H   0  0  0  0  0  0  0  0  0  0  0  0
   -6.1654    1.0107    2.1024 H   0  0  0  0  0  0  0  0  0  0  0  0
   -7.3512   -0.2745    1.8154 H   0  0  0  0  0  0  0  0  0  0  0  0
   -7.5054    1.3028    1.0055 H   0  0  0  0  0  0  0  0  0  0  0  0
   -6.2423   -1.0060   -1.7043 H   0  0  0  0  0  0  0  0  0  0  0  0
   -7.5811    0.0461   -1.2685 H   0  0  0  0  0  0  0  0  0  0  0  0
   -7.3732   -1.5095   -0.4287 H   0  0  0  0  0  0  0  0  0  0  0  0
    4.0342   -1.6108   -0.2909 H   0  0  0  0  0  0  0  0  0  0  0  0
    0.3862   -4.4700   -0.9194 H   0  0  0  0  0  0  0  0  0  0  0  0
    0.4947   -3.7419   -2.5570 H   0  0  0  0  0  0  0  0  0  0  0  0
   -0.7957   -3.2312   -1.4289 H   0  0  0  0  0  0  0  0  0  0  0  0
    3.9898    0.0747    2.8297 H   0  0  0  0  0  0  0  0  0  0  0  0
    6.3264   -0.7226    2.9874 H   0  0  0  0  0  0  0  0  0  0  0  0
    7.1523    0.9168   -0.8997 H   0  0  0  0  0  0  0  0  0  0  0  0
    3.9916    1.3246   -1.9994 H   0  0  0  0  0  0  0  0  0  0  0  0
    4.1905    2.8761   -1.1354 H   0  0  0  0  0  0  0  0  0  0  0  0
    5.5325    2.1955   -2.0538 H   0  0  0  0  0  0  0  0  0  0  0  0
  1  2  1  0
  2  3  1  0
  3  4  1  0
  4  5  1  0
  5  6  1  0
  6  7  1  0
  7  8  1  0
  7  9  1  0
  2 10  2  0
 10 11  1  0
 11 12  2  0
 12 13  1  0
 13 14  2  0
 14 15  1  0
 15 16  1  0
 12 17  1  0
 17 18  2  3
 18 19  1  0
 19 20  2  0
 20 21  1  0
 21 22  2  0
 22 23  1  0
 22 24  1  0
 24 25  2  0
 25 26  1  0
 17  1  1  0
 25 19  1  0
 15 11  1  0
  1 27  1  0
  3 28  1  0
  4 29  1  0
  4 30  1  0
  5 31  1  0
  5 32  1  0
  7 33  1  0
  8 34  1  0
  8 35  1  0
  8 36  1  0
  9 37  1  0
  9 38  1  0
  9 39  1  0
 13 40  1  0
 16 41  1  0
 16 42  1  0
 16 43  1  0
 20 44  1  0
 21 45  1  0
 24 46  1  0
 26 47  1  0
 26 48  1  0
 26 49  1  0
M  END
>  <ScrubInfo>  (2) 
{"isomerGroup": 0, "isomerId": 1, "confId": 0, "nr_conformers:": 1, "nr_isomers:": 9}

$$$$
_i2
     RDKit          3D

 49 51  0  0  0  0  0  0  0  0999 V2000
   -0.7214   -0.2235    0.5593 N   0  0  0  0  0  0  0  0  0  0  0  0
   -1.7924    0.3271   -0.1170 C   0  0  0  0  0  0  0  0  0  0  0  0
   -2.7717   -0.4395   -0.7222 N   0  0  0  0  0  0  0  0  0  0  0  0
   -3.2503   -1.7162   -0.3533 C   0  0  0  0  0  0  0  0  0  0  0  0
   -3.0757   -2.2323    0.9417 C   0  0  0  0  0  0  0  0  0  0  0  0
   -3.5284   -3.5100    1.2823 C   0  0  0  0  0  0  0  0  0  0  0  0
   -4.1593   -4.2945    0.3260 C   0  0  0  0  0  0  0  0  0  0  0  0
   -4.7230   -5.8654    0.7413 Cl  0  0  0  0  0  0  0  0  0  0  0  0
   -4.3387   -3.8127   -0.9679 C   0  0  0  0  0  0  0  0  0  0  0  0
   -3.8817   -2.5301   -1.3222 C   0  0  0  0  0  0  0  0  0  0  0  0
   -4.0769   -2.0601   -2.7395 C   0  0  0  0  0  0  0  0  0  0  0  0
   -1.7828    1.6647   -0.1789 C   0  0  0  0  0  0  0  0  0  0  0  0
   -2.6299    2.7361   -0.7139 C   0  0  0  0  0  0  0  0  0  0  0  0
   -2.1724    3.9339   -0.4517 N   0  0  0  0  0  0  0  0  0  0  0  0
   -0.9641    3.7297    0.2338 N   0  0  0  0  0  0  0  0  0  0  0  0
   -0.3601    4.8385    0.9320 C   0  0  0  0  0  0  0  0  0  0  0  0
   -0.6761    2.3965    0.4789 C   0  0  0  0  0  0  0  0  0  0  0  0
    0.3046    1.8602    1.1225 N   0  0  0  0  0  0  0  0  0  0  0  0
    0.2973    0.4822    1.1420 C   0  0  0  0  0  0  0  0  0  0  0  0
    1.2595   -0.1722    1.6990 N   0  0  0  0  0  0  0  0  0  0  0  0
    2.3584    0.5849    2.3160 C   0  0  0  0  0  0  0  0  0  0  0  0
    3.3903    1.0240    1.2728 C   0  0  0  0  0  0  0  0  0  0  0  0
    4.1380   -0.1109    0.8215 O   0  0  0  0  0  0  0  0  0  0  0  0
    5.0525    0.1963   -0.2319 C   0  0  0  0  0  0  0  0  0  0  0  0
    6.1410   -0.8707   -0.2060 C   0  0  0  0  0  0  0  0  0  0  0  0
    4.3346    0.1856   -1.5778 C   0  0  0  0  0  0  0  0  0  0  0  0
   -0.6004   -1.2250    0.5112 H   0  0  0  0  0  0  0  0  0  0  0  0
   -3.4101    0.0584   -1.3332 H   0  0  0  0  0  0  0  0  0  0  0  0
   -2.6151   -1.6325    1.7234 H   0  0  0  0  0  0  0  0  0  0  0  0
   -3.3887   -3.8784    2.2952 H   0  0  0  0  0  0  0  0  0  0  0  0
   -4.8297   -4.4417   -1.7072 H   0  0  0  0  0  0  0  0  0  0  0  0
   -4.7799   -1.2215   -2.7654 H   0  0  0  0  0  0  0  0  0  0  0  0
   -3.1212   -1.7506   -3.1747 H   0  0  0  0  0  0  0  0  0  0  0  0
   -4.4816   -2.8545   -3.3757 H   0  0  0  0  0  0  0  0  0  0  0  0
   -3.5593    2.5113   -1.2521 H   0  0  0  0  0  0  0  0  0  0  0  0
   -0.8054    4.9509    1.9254 H   0  0  0  0  0  0  0  0  0  0  0  0
   -0.5072    5.7718    0.3787 H   0  0  0  0  0  0  0  0  0  0  0  0
    0.7177    4.6862    1.0482 H   0  0  0  0  0  0  0  0  0  0  0  0
    1.9842    1.4497    2.8766 H   0  0  0  0  0  0  0  0  0  0  0  0
    2.8382   -0.0758    3.0473 H   0  0  0  0  0  0  0  0  0  0  0  0
    2.9054    1.5217    0.4282 H   0  0  0  0  0  0  0  0  0  0  0  0
    4.0888    1.7280    1.7392 H   0  0  0  0  0  0  0  0  0  0  0  0
    5.5170    1.1744   -0.0564 H   0  0  0  0  0  0  0  0  0  0  0  0
    5.7155   -1.8710   -0.3440 H   0  0  0  0  0  0  0  0  0  0  0  0
    6.6457   -0.8756    0.7663 H   0  0  0  0  0  0  0  0  0  0  0  0
    6.8891   -0.6963   -0.9853 H   0  0  0  0  0  0  0  0  0  0  0  0
    3.8054   -0.7614   -1.7309 H   0  0  0  0  0  0  0  0  0  0  0  0
    5.0386    0.3326   -2.4029 H   0  0  0  0  0  0  0  0  0  0  0  0
    3.5817    0.9778   -1.6318 H   0  0  0  0  0  0  0  0  0  0  0  0
  1  2  1  0
  2  3  1  0
  3  4  1  0
  4  5  2  0
  5  6  1  0
  6  7  2  0
  7  8  1  0
  7  9  1  0
  9 10  2  0
 10 11  1  0
  2 12  2  0
 12 13  1  0
 13 14  2  0
 14 15  1  0
 15 16  1  0
 15 17  1  0
 17 18  2  0
 18 19  1  0
 19 20  2  3
 20 21  1  0
 21 22  1  0
 22 23  1  0
 23 24  1  0
 24 25  1  0
 24 26  1  0
 19  1  1  0
 10  4  1  0
 17 12  1  0
  1 27  1  0
  3 28  1  0
  5 29  1  0
  6 30  1  0
  9 31  1  0
 11 32  1  0
 11 33  1  0
 11 34  1  0
 13 35  1  0
 16 36  1  0
 16 37  1  0
 16 38  1  0
 21 39  1  0
 21 40  1  0
 22 41  1  0
 22 42  1  0
 24 43  1  0
 25 44  1  0
 25 45  1  0
 25 46  1  0
 26 47  1  0
 26 48  1  0
 26 49  1  0
M  END
>  <ScrubInfo>  (3) 
{"isomerGroup": 0, "isomerId": 2, "confId": 0, "nr_conformers:": 1, "nr_isomers:": 9}

$$$$
_i3
     RDKit          3D

 49 51  0  0  0  0  0  0  0  0999 V2000
    0.3745    1.8477    1.2525 N   0  0  0  0  0  0  0  0  0  0  0  0
    0.8995    1.3150    0.0864 C   0  0  0  0  0  0  0  0  0  0  0  0
    2.1441    1.1301   -0.1755 N   0  0  0  0  0  0  0  0  0  0  0  0
    3.1527    1.4839    0.8207 C   0  0  0  0  0  0  0  0  0  0  0  0
    4.5208    0.9383    0.3921 C   0  0  0  0  0  0  0  0  0  0  0  0
    4.6939   -0.4185    0.8153 O   0  0  0  0  0  0  0  0  0  0  0  0
    4.2264   -1.3881   -0.1271 C   0  0  0  0  0  0  0  0  0  0  0  0
    3.8726   -2.6444    0.6602 C   0  0  0  0  0  0  0  0  0  0  0  0
    5.3238   -1.6893   -1.1428 C   0  0  0  0  0  0  0  0  0  0  0  0
    0.0743    0.9127   -0.9538 N   0  0  0  0  0  0  0  0  0  0  0  0
   -1.2197    1.0063   -0.8284 C   0  0  0  0  0  0  0  0  0  0  0  0
   -2.0807    0.6264   -1.8281 N   0  0  0  0  0  0  0  0  0  0  0  0
   -3.1645   -0.2700   -1.6357 C   0  0  0  0  0  0  0  0  0  0  0  0
   -4.3738    0.0568   -2.2746 C   0  0  0  0  0  0  0  0  0  0  0  0
   -5.4874   -0.7787   -2.1835 C   0  0  0  0  0  0  0  0  0  0  0  0
   -5.3930   -1.9677   -1.4720 C   0  0  0  0  0  0  0  0  0  0  0  0
   -6.7619   -3.0020   -1.3483 Cl  0  0  0  0  0  0  0  0  0  0  0  0
   -4.1896   -2.3343   -0.8714 C   0  0  0  0  0  0  0  0  0  0  0  0
   -3.0541   -1.5076   -0.9684 C   0  0  0  0  0  0  0  0  0  0  0  0
   -1.7729   -1.9866   -0.3403 C   0  0  0  0  0  0  0  0  0  0  0  0
   -1.8062    1.5677    0.3662 C   0  0  0  0  0  0  0  0  0  0  0  0
   -3.0837    1.8745    0.8580 C   0  0  0  0  0  0  0  0  0  0  0  0
   -3.0418    2.4148    2.0865 N   0  0  0  0  0  0  0  0  0  0  0  0
   -1.7191    2.4573    2.3776 N   0  0  0  0  0  0  0  0  0  0  0  0
   -1.2995    2.9937    3.6471 C   0  0  0  0  0  0  0  0  0  0  0  0
   -0.9597    1.9647    1.3645 C   0  0  0  0  0  0  0  0  0  0  0  0
    1.0246    2.1372    1.9671 H   0  0  0  0  0  0  0  0  0  0  0  0
    2.8976    1.0730    1.8043 H   0  0  0  0  0  0  0  0  0  0  0  0
    3.2147    2.5760    0.8869 H   0  0  0  0  0  0  0  0  0  0  0  0
    4.6962    1.0540   -0.6830 H   0  0  0  0  0  0  0  0  0  0  0  0
    5.2941    1.5116    0.9148 H   0  0  0  0  0  0  0  0  0  0  0  0
    3.3275   -1.0395   -0.6439 H   0  0  0  0  0  0  0  0  0  0  0  0
    3.0956   -2.4221    1.3999 H   0  0  0  0  0  0  0  0  0  0  0  0
    3.5083   -3.4384    0.0012 H   0  0  0  0  0  0  0  0  0  0  0  0
    4.7390   -3.0186    1.2168 H   0  0  0  0  0  0  0  0  0  0  0  0
    5.5741   -0.7986   -1.7276 H   0  0  0  0  0  0  0  0  0  0  0  0
    5.0153   -2.4773   -1.8368 H   0  0  0  0  0  0  0  0  0  0  0  0
    6.2456   -2.0040   -0.6411 H   0  0  0  0  0  0  0  0  0  0  0  0
   -1.5244    0.2820   -2.6093 H   0  0  0  0  0  0  0  0  0  0  0  0
   -4.4553    0.9874   -2.8335 H   0  0  0  0  0  0  0  0  0  0  0  0
   -6.4179   -0.4951   -2.6673 H   0  0  0  0  0  0  0  0  0  0  0  0
   -4.1301   -3.2792   -0.3346 H   0  0  0  0  0  0  0  0  0  0  0  0
   -1.8148   -3.0597   -0.1230 H   0  0  0  0  0  0  0  0  0  0  0  0
   -1.5894   -1.4630    0.6022 H   0  0  0  0  0  0  0  0  0  0  0  0
   -0.9278   -1.8406   -1.0201 H   0  0  0  0  0  0  0  0  0  0  0  0
   -4.0471    1.7339    0.3859 H   0  0  0  0  0  0  0  0  0  0  0  0
   -1.7933    2.4280    4.4414 H   0  0  0  0  0  0  0  0  0  0  0  0
   -0.2162    2.9041    3.7502 H   0  0  0  0  0  0  0  0  0  0  0  0
   -1.5912    4.0461    3.6887 H   0  0  0  0  0  0  0  0  0  0  0  0
  1  2  1  0
  2  3  2  3
  3  4  1  0
  4  5  1  0
  5  6  1  0
  6  7  1  0
  7  8  1  0
  7  9  1  0
  2 10  1  0
 10 11  2  0
 11 12  1  0
 12 13  1  0
 13 14  2  0
 14 15  1  0
 15 16  2  0
 16 17  1  0
 16 18  1  0
 18 19  2  0
 19 20  1  0
 11 21  1  0
 21 22  1  0
 22 23  2  0
 23 24  1  0
 24 25  1  0
 24 26  1  0
 26  1  1  0
 19 13  1  0
 26 21  2  0
  1 27  1  0
  4 28  1  0
  4 29  1  0
  5 30  1  0
  5 31  1  0
  7 32  1  0
  8 33  1  0
  8 34  1  0
  8 35  1  0
  9 36  1  0
  9 37  1  0
  9 38  1  0
 12 39  1  0
 14 40  1  0
 15 41  1  0
 18 42  1  0
 20 43  1  0
 20 44  1  0
 20 45  1  0
 22 46  1  0
 25 47  1  0
 25 48  1  0
 25 49  1  0
M  END
>  <ScrubInfo>  (4) 
{"isomerGroup": 0, "isomerId": 3, "confId": 0, "nr_conformers:": 1, "nr_isomers:": 9}

$$$$
_i4
     RDKit          3D

 49 51  0  0  0  0  0  0  0  0999 V2000
   -0.7440    1.3588    1.9127 N   0  0  0  0  0  0  0  0  0  0  0  0
   -0.3956    0.9825    0.6319 C   0  0  0  0  0  0  0  0  0  0  0  0
   -1.4905    0.8893   -0.1848 N   0  0  0  0  0  0  0  0  0  0  0  0
   -1.3173    0.5806   -1.6091 C   0  0  0  0  0  0  0  0  0  0  0  0
   -2.6699    0.3331   -2.2927 C   0  0  0  0  0  0  0  0  0  0  0  0
   -3.1218   -1.0221   -2.2424 O   0  0  0  0  0  0  0  0  0  0  0  0
   -3.3993   -1.5634   -0.9498 C   0  0  0  0  0  0  0  0  0  0  0  0
   -4.6049   -0.8910   -0.3005 C   0  0  0  0  0  0  0  0  0  0  0  0
   -3.6788   -3.0503   -1.1526 C   0  0  0  0  0  0  0  0  0  0  0  0
    0.8168    0.7345    0.2233 N   0  0  0  0  0  0  0  0  0  0  0  0
    1.8748    0.8437    1.1142 C   0  0  0  0  0  0  0  0  0  0  0  0
    3.1148    0.6368    0.8035 N   0  0  0  0  0  0  0  0  0  0  0  0
    3.4107    0.2838   -0.5221 C   0  0  0  0  0  0  0  0  0  0  0  0
    3.7272    1.2957   -1.4382 C   0  0  0  0  0  0  0  0  0  0  0  0
    4.0393    0.9877   -2.7630 C   0  0  0  0  0  0  0  0  0  0  0  0
    4.0441   -0.3413   -3.1748 C   0  0  0  0  0  0  0  0  0  0  0  0
    4.4183   -0.7267   -4.8099 Cl  0  0  0  0  0  0  0  0  0  0  0  0
    3.7505   -1.3632   -2.2723 C   0  0  0  0  0  0  0  0  0  0  0  0
    3.4459   -1.0616   -0.9346 C   0  0  0  0  0  0  0  0  0  0  0  0
    3.1228   -2.1708    0.0258 C   0  0  0  0  0  0  0  0  0  0  0  0
    1.5529    1.2033    2.4704 C   0  0  0  0  0  0  0  0  0  0  0  0
    2.2683    1.3827    3.6611 C   0  0  0  0  0  0  0  0  0  0  0  0
    1.4673    1.7049    4.6906 N   0  0  0  0  0  0  0  0  0  0  0  0
    0.2271    1.7292    4.1416 N   0  0  0  0  0  0  0  0  0  0  0  0
   -0.9013    2.0506    4.9772 C   0  0  0  0  0  0  0  0  0  0  0  0
    0.2511    1.4407    2.8141 C   0  0  0  0  0  0  0  0  0  0  0  0
   -1.7214    1.3137    2.1654 H   0  0  0  0  0  0  0  0  0  0  0  0
   -2.1702    1.6237   -0.0281 H   0  0  0  0  0  0  0  0  0  0  0  0
   -0.8300    1.4394   -2.0845 H   0  0  0  0  0  0  0  0  0  0  0  0
   -0.6769   -0.3005   -1.7308 H   0  0  0  0  0  0  0  0  0  0  0  0
   -3.4501    1.0069   -1.9232 H   0  0  0  0  0  0  0  0  0  0  0  0
   -2.5498    0.5541   -3.3593 H   0  0  0  0  0  0  0  0  0  0  0  0
   -2.5194   -1.4779   -0.3054 H   0  0  0  0  0  0  0  0  0  0  0  0
   -4.3922    0.1536   -0.0546 H   0  0  0  0  0  0  0  0  0  0  0  0
   -5.4646   -0.8892   -0.9793 H   0  0  0  0  0  0  0  0  0  0  0  0
   -4.8892   -1.3983    0.6269 H   0  0  0  0  0  0  0  0  0  0  0  0
   -4.5352   -3.2021   -1.8192 H   0  0  0  0  0  0  0  0  0  0  0  0
   -2.8203   -3.5380   -1.6274 H   0  0  0  0  0  0  0  0  0  0  0  0
   -3.8807   -3.5520   -0.2013 H   0  0  0  0  0  0  0  0  0  0  0  0
    3.7226    2.3318   -1.1107 H   0  0  0  0  0  0  0  0  0  0  0  0
    4.2752    1.7854   -3.4610 H   0  0  0  0  0  0  0  0  0  0  0  0
    3.7609   -2.3971   -2.6083 H   0  0  0  0  0  0  0  0  0  0  0  0
    3.3975   -3.1474   -0.3868 H   0  0  0  0  0  0  0  0  0  0  0  0
    3.6800   -2.0483    0.9603 H   0  0  0  0  0  0  0  0  0  0  0  0
    2.0498   -2.1829    0.2412 H   0  0  0  0  0  0  0  0  0  0  0  0
    3.3340    1.2880    3.8268 H   0  0  0  0  0  0  0  0  0  0  0  0
   -1.0027    1.2678    5.7330 H   0  0  0  0  0  0  0  0  0  0  0  0
   -1.8090    2.1036    4.3724 H   0  0  0  0  0  0  0  0  0  0  0  0
   -0.7171    3.0183    5.4507 H   0  0  0  0  0  0  0  0  0  0  0  0
  1  2  1  0
  2  3  1  0
  3  4  1  0
  4  5  1  0
  5  6  1  0
  6  7  1  0
  7  8  1  0
  7  9  1  0
  2 10  2  0
 10 11  1  0
 11 12  2  3
 12 13  1  0
 13 14  2  0
 14 15  1  0
 15 16  2  0
 16 17  1  0
 16 18  1  0
 18 19  2  0
 19 20  1  0
 11 21  1  0
 21 22  1  0
 22 23  2  0
 23 24  1  0
 24 25  1  0
 24 26  1  0
 26  1  1  0
 19 13  1  0
 26 21  2  0
  1 27  1  0
  3 28  1  0
  4 29  1  0
  4 30  1  0
  5 31  1  0
  5 32  1  0
  7 33  1  0
  8 34  1  0
  8 35  1  0
  8 36  1  0
  9 37  1  0
  9 38  1  0
  9 39  1  0
 14 40  1  0
 15 41  1  0
 18 42  1  0
 20 43  1  0
 20 44  1  0
 20 45  1  0
 22 46  1  0
 25 47  1  0
 25 48  1  0
 25 49  1  0
M  END
>  <ScrubInfo>  (5) 
{"isomerGroup": 0, "isomerId": 4, "confId": 0, "nr_conformers:": 1, "nr_isomers:": 9}

$$$$
_i5
     RDKit          3D

 49 51  0  0  0  0  0  0  0  0999 V2000
   -2.1412   -3.0395   -0.8591 N   0  0  0  0  0  0  0  0  0  0  0  0
   -2.5128   -1.7110   -0.6791 C   0  0  0  0  0  0  0  0  0  0  0  0
   -1.5475   -0.8362   -1.0019 C   0  0  0  0  0  0  0  0  0  0  0  0
   -1.3147    0.6023   -0.9994 C   0  0  0  0  0  0  0  0  0  0  0  0
   -2.0997    1.5815   -0.6929 N   0  0  0  0  0  0  0  0  0  0  0  0
   -3.4193    1.3473   -0.2972 C   0  0  0  0  0  0  0  0  0  0  0  0
   -4.4229    1.2932   -1.2733 C   0  0  0  0  0  0  0  0  0  0  0  0
   -5.7539    1.0744   -0.9158 C   0  0  0  0  0  0  0  0  0  0  0  0
   -6.0874    0.9228    0.4268 C   0  0  0  0  0  0  0  0  0  0  0  0
   -7.7250    0.6413    0.8729 Cl  0  0  0  0  0  0  0  0  0  0  0  0
   -5.1044    1.0001    1.4135 C   0  0  0  0  0  0  0  0  0  0  0  0
   -3.7640    1.2282    1.0619 C   0  0  0  0  0  0  0  0  0  0  0  0
   -2.7140    1.3277    2.1326 C   0  0  0  0  0  0  0  0  0  0  0  0
   -0.0481    0.9591   -1.3774 N   0  0  0  0  0  0  0  0  0  0  0  0
    0.8558    0.1032   -1.7511 C   0  0  0  0  0  0  0  0  0  0  0  0
    2.0696    0.6202   -2.1000 N   0  0  0  0  0  0  0  0  0  0  0  0
    3.3077   -0.1335   -1.9917 C   0  0  0  0  0  0  0  0  0  0  0  0
    3.7367   -0.2700   -0.5274 C   0  0  0  0  0  0  0  0  0  0  0  0
    4.0333    1.0328   -0.0100 O   0  0  0  0  0  0  0  0  0  0  0  0
    4.2046    1.0624    1.4095 C   0  0  0  0  0  0  0  0  0  0  0  0
    4.1391    2.5254    1.8335 C   0  0  0  0  0  0  0  0  0  0  0  0
    5.5425    0.4527    1.8151 C   0  0  0  0  0  0  0  0  0  0  0  0
    0.6849   -1.2546   -1.8128 N   0  0  0  0  0  0  0  0  0  0  0  0
   -0.4671   -1.7200   -1.4783 C   0  0  0  0  0  0  0  0  0  0  0  0
   -0.8992   -3.0469   -1.4755 N   0  0  0  0  0  0  0  0  0  0  0  0
    0.0188   -4.1359   -1.2069 C   0  0  0  0  0  0  0  0  0  0  0  0
   -2.8685   -3.6047   -1.3041 H   0  0  0  0  0  0  0  0  0  0  0  0
   -3.5061   -1.5058   -0.3085 H   0  0  0  0  0  0  0  0  0  0  0  0
   -4.1586    1.4293   -2.3194 H   0  0  0  0  0  0  0  0  0  0  0  0
   -6.5194    1.0325   -1.6855 H   0  0  0  0  0  0  0  0  0  0  0  0
   -5.3831    0.8937    2.4593 H   0  0  0  0  0  0  0  0  0  0  0  0
   -3.1633    1.3598    3.1308 H   0  0  0  0  0  0  0  0  0  0  0  0
   -2.1269    2.2438    2.0112 H   0  0  0  0  0  0  0  0  0  0  0  0
   -2.0479    0.4603    2.0912 H   0  0  0  0  0  0  0  0  0  0  0  0
    2.1587    1.5803   -1.7789 H   0  0  0  0  0  0  0  0  0  0  0  0
    3.2058   -1.1206   -2.4550 H   0  0  0  0  0  0  0  0  0  0  0  0
    4.0792    0.4110   -2.5475 H   0  0  0  0  0  0  0  0  0  0  0  0
    4.6365   -0.8909   -0.4754 H   0  0  0  0  0  0  0  0  0  0  0  0
    2.9431   -0.7390    0.0651 H   0  0  0  0  0  0  0  0  0  0  0  0
    3.3808    0.5242    1.8935 H   0  0  0  0  0  0  0  0  0  0  0  0
    4.9253    3.1120    1.3452 H   0  0  0  0  0  0  0  0  0  0  0  0
    3.1834    2.9671    1.5304 H   0  0  0  0  0  0  0  0  0  0  0  0
    4.2431    2.6319    2.9176 H   0  0  0  0  0  0  0  0  0  0  0  0
    6.3671    0.9141    1.2608 H   0  0  0  0  0  0  0  0  0  0  0  0
    5.5704   -0.6184    1.5921 H   0  0  0  0  0  0  0  0  0  0  0  0
    5.7253    0.5759    2.8872 H   0  0  0  0  0  0  0  0  0  0  0  0
   -0.4828   -5.0996   -1.3423 H   0  0  0  0  0  0  0  0  0  0  0  0
    0.8690   -4.1024   -1.8958 H   0  0  0  0  0  0  0  0  0  0  0  0
    0.3970   -4.0817   -0.1807 H   0  0  0  0  0  0  0  0  0  0  0  0
  1  2  1  0
  2  3  2  0
  3  4  1  0
  4  5  2  3
  5  6  1  0
  6  7  2  0
  7  8  1  0
  8  9  2  0
  9 10  1  0
  9 11  1  0
 11 12  2  0
 12 13  1  0
  4 14  1  0
 14 15  2  0
 15 16  1  0
 16 17  1  0
 17 18  1  0
 18 19  1  0
 19 20  1  0
 20 21  1  0
 20 22  1  0
 15 23  1  0
 23 24  2  0
 24 25  1  0
 25 26  1  0
 25  1  1  0
 24  3  1  0
 12  6  1  0
  1 27  1  0
  2 28  1  0
  7 29  1  0
  8 30  1  0
 11 31  1  0
 13 32  1  0
 13 33  1  0
 13 34  1  0
 16 35  1  0
 17 36  1  0
 17 37  1  0
 18 38  1  0
 18 39  1  0
 20 40  1  0
 21 41  1  0
 21 42  1  0
 21 43  1  0
 22 44  1  0
 22 45  1  0
 22 46  1  0
 26 47  1  0
 26 48  1  0
 26 49  1  0
M  END
>  <ScrubInfo>  (6) 
{"isomerGroup": 0, "isomerId": 5, "confId": 0, "nr_conformers:": 1, "nr_isomers:": 9}

$$$$
_i6
     RDKit          3D

 49 51  0  0  0  0  0  0  0  0999 V2000
   -3.9293    3.5659    0.5840 N   0  0  0  0  0  0  0  0  0  0  0  0
   -3.5530    2.2660    0.9048 C   0  0  0  0  0  0  0  0  0  0  0  0
   -2.2416    2.0442    0.7355 C   0  0  0  0  0  0  0  0  0  0  0  0
   -1.2901    0.9349    0.8659 C   0  0  0  0  0  0  0  0  0  0  0  0
   -1.7424   -0.2852    1.3383 N   0  0  0  0  0  0  0  0  0  0  0  0
   -1.0691   -1.5204    1.4701 C   0  0  0  0  0  0  0  0  0  0  0  0
    0.1855   -1.7658    0.8915 C   0  0  0  0  0  0  0  0  0  0  0  0
    0.8530   -2.9835    1.0613 C   0  0  0  0  0  0  0  0  0  0  0  0
    0.2727   -3.9858    1.8222 C   0  0  0  0  0  0  0  0  0  0  0  0
    1.0831   -5.4881    2.0299 Cl  0  0  0  0  0  0  0  0  0  0  0  0
   -0.9662   -3.7764    2.4195 C   0  0  0  0  0  0  0  0  0  0  0  0
   -1.6416   -2.5500    2.2603 C   0  0  0  0  0  0  0  0  0  0  0  0
   -2.9697   -2.3808    2.9517 C   0  0  0  0  0  0  0  0  0  0  0  0
   -0.0556    1.1814    0.5338 N   0  0  0  0  0  0  0  0  0  0  0  0
    0.3079    2.4282    0.0746 C   0  0  0  0  0  0  0  0  0  0  0  0
    1.5106    2.6307   -0.3337 N   0  0  0  0  0  0  0  0  0  0  0  0
    2.4681    1.5256   -0.2762 C   0  0  0  0  0  0  0  0  0  0  0  0
    2.4118    0.6964   -1.5593 C   0  0  0  0  0  0  0  0  0  0  0  0
    3.2487   -0.4541   -1.4118 O   0  0  0  0  0  0  0  0  0  0  0  0
    3.3960   -1.2113   -2.6158 C   0  0  0  0  0  0  0  0  0  0  0  0
    4.5910   -2.1365   -2.4128 C   0  0  0  0  0  0  0  0  0  0  0  0
    2.1427   -2.0290   -2.9127 C   0  0  0  0  0  0  0  0  0  0  0  0
   -0.4996    3.5351   -0.0177 N   0  0  0  0  0  0  0  0  0  0  0  0
   -1.7309    3.3656    0.3115 C   0  0  0  0  0  0  0  0  0  0  0  0
   -2.7723    4.2931    0.3288 N   0  0  0  0  0  0  0  0  0  0  0  0
   -2.8123    5.3869   -0.6234 C   0  0  0  0  0  0  0  0  0  0  0  0
   -4.5815    3.9850    1.2513 H   0  0  0  0  0  0  0  0  0  0  0  0
   -4.3124    1.5780    1.2452 H   0  0  0  0  0  0  0  0  0  0  0  0
   -2.7157   -0.3287    1.6025 H   0  0  0  0  0  0  0  0  0  0  0  0
    0.6773   -1.0205    0.2755 H   0  0  0  0  0  0  0  0  0  0  0  0
    1.8236   -3.1288    0.5936 H   0  0  0  0  0  0  0  0  0  0  0  0
   -1.4062   -4.5697    3.0198 H   0  0  0  0  0  0  0  0  0  0  0  0
   -3.2169   -3.2484    3.5728 H   0  0  0  0  0  0  0  0  0  0  0  0
   -2.9479   -1.5063    3.6100 H   0  0  0  0  0  0  0  0  0  0  0  0
   -3.7685   -2.2653    2.2122 H   0  0  0  0  0  0  0  0  0  0  0  0
    3.4755    1.9471   -0.1719 H   0  0  0  0  0  0  0  0  0  0  0  0
    2.3454    0.8937    0.6122 H   0  0  0  0  0  0  0  0  0  0  0  0
    2.7546    1.3047   -2.4046 H   0  0  0  0  0  0  0  0  0  0  0  0
    1.3843    0.3775   -1.7588 H   0  0  0  0  0  0  0  0  0  0  0  0
    3.6158   -0.5383   -3.4533 H   0  0  0  0  0  0  0  0  0  0  0  0
    5.4904   -1.5531   -2.1874 H   0  0  0  0  0  0  0  0  0  0  0  0
    4.7834   -2.7416   -3.3040 H   0  0  0  0  0  0  0  0  0  0  0  0
    4.4292   -2.8063   -1.5607 H   0  0  0  0  0  0  0  0  0  0  0  0
    1.2905   -1.3805   -3.1369 H   0  0  0  0  0  0  0  0  0  0  0  0
    1.8588   -2.6388   -2.0486 H   0  0  0  0  0  0  0  0  0  0  0  0
    2.2955   -2.6884   -3.7729 H   0  0  0  0  0  0  0  0  0  0  0  0
   -2.9385    5.0097   -1.6436 H   0  0  0  0  0  0  0  0  0  0  0  0
   -3.6457    6.0593   -0.3954 H   0  0  0  0  0  0  0  0  0  0  0  0
   -1.8884    5.9723   -0.5772 H   0  0  0  0  0  0  0  0  0  0  0  0
  1  2  1  0
  2  3  2  0
  3  4  1  0
  4  5  1  0
  5  6  1  0
  6  7  2  0
  7  8  1  0
  8  9  2  0
  9 10  1  0
  9 11  1  0
 11 12  2  0
 12 13  1  0
  4 14  2  0
 14 15  1  0
 15 16  2  3
 16 17  1  0
 17 18  1  0
 18 19  1  0
 19 20  1  0
 20 21  1  0
 20 22  1  0
 15 23  1  0
 23 24  2  0
 24 25  1  0
 25 26  1  0
 25  1  1  0
 24  3  1  0
 12  6  1  0
  1 27  1  0
  2 28  1  0
  5 29  1  0
  7 30  1  0
  8 31  1  0
 11 32  1  0
 13 33  1  0
 13 34  1  0
 13 35  1  0
 17 36  1  0
 17 37  1  0
 18 38  1  0
 18 39  1  0
 20 40  1  0
 21 41  1  0
 21 42  1  0
 21 43  1  0
 22 44  1  0
 22 45  1  0
 22 46  1  0
 26 47  1  0
 26 48  1  0
 26 49  1  0
M  END
>  <ScrubInfo>  (7) 
{"isomerGroup": 0, "isomerId": 6, "confId": 0, "nr_conformers:": 1, "nr_isomers:": 9}

$$$$
_i7
     RDKit          3D

 49 51  0  0  0  0  0  0  0  0999 V2000
    0.1936    1.7895   -0.0075 N   0  0  0  0  0  0  0  0  0  0  0  0
    0.7274    0.6353   -0.5559 C   0  0  0  0  0  0  0  0  0  0  0  0
    1.9588    0.3894   -0.8481 N   0  0  0  0  0  0  0  0  0  0  0  0
    2.9681    1.4162   -0.5727 C   0  0  0  0  0  0  0  0  0  0  0  0
    4.3648    0.8084   -0.7351 C   0  0  0  0  0  0  0  0  0  0  0  0
    4.6975    0.0690    0.4443 O   0  0  0  0  0  0  0  0  0  0  0  0
    5.9281   -0.6493    0.3330 C   0  0  0  0  0  0  0  0  0  0  0  0
    5.7003   -1.9866   -0.3644 C   0  0  0  0  0  0  0  0  0  0  0  0
    6.4455   -0.8739    1.7492 C   0  0  0  0  0  0  0  0  0  0  0  0
   -0.2170   -0.3352   -0.8079 N   0  0  0  0  0  0  0  0  0  0  0  0
   -1.5804   -0.3657   -0.6120 C   0  0  0  0  0  0  0  0  0  0  0  0
   -2.2814   -1.4127   -0.9296 N   0  0  0  0  0  0  0  0  0  0  0  0
   -3.6648   -1.4751   -0.7445 C   0  0  0  0  0  0  0  0  0  0  0  0
   -4.5080   -1.0748   -1.7893 C   0  0  0  0  0  0  0  0  0  0  0  0
   -5.8951   -1.1503   -1.6545 C   0  0  0  0  0  0  0  0  0  0  0  0
   -6.4441   -1.6429   -0.4745 C   0  0  0  0  0  0  0  0  0  0  0  0
   -8.1534   -1.7334   -0.3008 Cl  0  0  0  0  0  0  0  0  0  0  0  0
   -5.6186   -2.0688    0.5660 C   0  0  0  0  0  0  0  0  0  0  0  0
   -4.2216   -2.0041    0.4348 C   0  0  0  0  0  0  0  0  0  0  0  0
   -3.3428   -2.4760    1.5589 C   0  0  0  0  0  0  0  0  0  0  0  0
   -2.0459    0.8835   -0.0324 C   0  0  0  0  0  0  0  0  0  0  0  0
   -3.2712    1.4398    0.3793 C   0  0  0  0  0  0  0  0  0  0  0  0
   -3.1428    2.6834    0.8653 N   0  0  0  0  0  0  0  0  0  0  0  0
   -1.8177    2.9282    0.7780 N   0  0  0  0  0  0  0  0  0  0  0  0
   -1.3051    4.1994    1.2236 C   0  0  0  0  0  0  0  0  0  0  0  0
   -1.1339    1.8821    0.2381 C   0  0  0  0  0  0  0  0  0  0  0  0
    0.8383    2.5380    0.2048 H   0  0  0  0  0  0  0  0  0  0  0  0
    2.8633    1.8079    0.4456 H   0  0  0  0  0  0  0  0  0  0  0  0
    2.8493    2.2331   -1.2932 H   0  0  0  0  0  0  0  0  0  0  0  0
    4.4035    0.1685   -1.6226 H   0  0  0  0  0  0  0  0  0  0  0  0
    5.0973    1.6158   -0.8461 H   0  0  0  0  0  0  0  0  0  0  0  0
    6.6651   -0.0531   -0.2187 H   0  0  0  0  0  0  0  0  0  0  0  0
    6.6165   -2.5851   -0.3813 H   0  0  0  0  0  0  0  0  0  0  0  0
    4.9141   -2.5606    0.1384 H   0  0  0  0  0  0  0  0  0  0  0  0
    5.3716   -1.8434   -1.3982 H   0  0  0  0  0  0  0  0  0  0  0  0
    5.7221   -1.4381    2.3483 H   0  0  0  0  0  0  0  0  0  0  0  0
    6.5929    0.0857    2.2568 H   0  0  0  0  0  0  0  0  0  0  0  0
    7.3967   -1.4149    1.7452 H   0  0  0  0  0  0  0  0  0  0  0  0
    0.1659   -1.1837   -1.1993 H   0  0  0  0  0  0  0  0  0  0  0  0
   -4.0758   -0.7015   -2.7143 H   0  0  0  0  0  0  0  0  0  0  0  0
   -6.5352   -0.8289   -2.4713 H   0  0  0  0  0  0  0  0  0  0  0  0
   -6.0631   -2.4596    1.4784 H   0  0  0  0  0  0  0  0  0  0  0  0
   -2.5842   -3.1729    1.1880 H   0  0  0  0  0  0  0  0  0  0  0  0
   -3.9218   -3.0046    2.3235 H   0  0  0  0  0  0  0  0  0  0  0  0
   -2.8507   -1.6236    2.0375 H   0  0  0  0  0  0  0  0  0  0  0  0
   -4.2631    1.0105    0.3536 H   0  0  0  0  0  0  0  0  0  0  0  0
   -1.9285    4.5700    2.0417 H   0  0  0  0  0  0  0  0  0  0  0  0
   -0.2799    4.0731    1.5792 H   0  0  0  0  0  0  0  0  0  0  0  0
   -1.3343    4.8922    0.3793 H   0  0  0  0  0  0  0  0  0  0  0  0
  1  2  1  0
  2  3  2  3
  3  4  1  0
  4  5  1  0
  5  6  1  0
  6  7  1  0
  7  8  1  0
  7  9  1  0
  2 10  1  0
 10 11  1  0
 11 12  2  3
 12 13  1  0
 13 14  2  0
 14 15  1  0
 15 16  2  0
 16 17  1  0
 16 18  1  0
 18 19  2  0
 19 20  1  0
 11 21  1  0
 21 22  1  0
 22 23  2  0
 23 24  1  0
 24 25  1  0
 24 26  1  0
 26  1  1  0
 19 13  1  0
 26 21  2  0
  1 27  1  0
  4 28  1  0
  4 29  1  0
  5 30  1  0
  5 31  1  0
  7 32  1  0
  8 33  1  0
  8 34  1  0
  8 35  1  0
  9 36  1  0
  9 37  1  0
  9 38  1  0
 10 39  1  0
 14 40  1  0
 15 41  1  0
 18 42  1  0
 20 43  1  0
 20 44  1  0
 20 45  1  0
 22 46  1  0
 25 47  1  0
 25 48  1  0
 25 49  1  0
M  END
>  <ScrubInfo>  (8) 
{"isomerGroup": 0, "isomerId": 7, "confId": 0, "nr_conformers:": 1, "nr_isomers:": 9}

$$$$
_i8
     RDKit          3D

 49 51  0  0  0  0  0  0  0  0999 V2000
   -2.9662    4.2784   -0.3752 N   0  0  0  0  0  0  0  0  0  0  0  0
   -3.3974    2.9605   -0.4819 C   0  0  0  0  0  0  0  0  0  0  0  0
   -2.4192    2.0740   -0.2628 C   0  0  0  0  0  0  0  0  0  0  0  0
   -2.2616    0.6216   -0.1951 C   0  0  0  0  0  0  0  0  0  0  0  0
   -3.2860   -0.1435   -0.4338 N   0  0  0  0  0  0  0  0  0  0  0  0
   -3.1213   -1.5341   -0.3619 C   0  0  0  0  0  0  0  0  0  0  0  0
   -2.7107   -2.2316   -1.5049 C   0  0  0  0  0  0  0  0  0  0  0  0
   -2.5227   -3.6138   -1.4663 C   0  0  0  0  0  0  0  0  0  0  0  0
   -2.7553   -4.3054   -0.2814 C   0  0  0  0  0  0  0  0  0  0  0  0
   -2.5173   -6.0081   -0.2253 Cl  0  0  0  0  0  0  0  0  0  0  0  0
   -3.1810   -3.6277    0.8611 C   0  0  0  0  0  0  0  0  0  0  0  0
   -3.3797   -2.2379    0.8283 C   0  0  0  0  0  0  0  0  0  0  0  0
   -3.8444   -1.5186    2.0635 C   0  0  0  0  0  0  0  0  0  0  0  0
   -0.9826    0.2456    0.1386 N   0  0  0  0  0  0  0  0  0  0  0  0
    0.0809    1.0844    0.3831 C   0  0  0  0  0  0  0  0  0  0  0  0
    1.2686    0.7287    0.7203 N   0  0  0  0  0  0  0  0  0  0  0  0
    1.6003   -0.6884    0.8661 C   0  0  0  0  0  0  0  0  0  0  0  0
    3.1233   -0.8480    0.8918 C   0  0  0  0  0  0  0  0  0  0  0  0
    3.6157   -0.8639   -0.4525 O   0  0  0  0  0  0  0  0  0  0  0  0
    5.0419   -0.8190   -0.5305 C   0  0  0  0  0  0  0  0  0  0  0  0
    5.5305    0.6237   -0.4492 C   0  0  0  0  0  0  0  0  0  0  0  0
    5.4378   -1.4361   -1.8670 C   0  0  0  0  0  0  0  0  0  0  0  0
   -0.0561    2.4559    0.2842 N   0  0  0  0  0  0  0  0  0  0  0  0
   -1.2174    2.9313   -0.0359 C   0  0  0  0  0  0  0  0  0  0  0  0
   -1.5819    4.2683   -0.2151 N   0  0  0  0  0  0  0  0  0  0  0  0
   -0.9484    5.3229    0.5525 C   0  0  0  0  0  0  0  0  0  0  0  0
   -3.3260    4.8821   -1.1179 H   0  0  0  0  0  0  0  0  0  0  0  0
   -4.4309    2.7519   -0.7196 H   0  0  0  0  0  0  0  0  0  0  0  0
   -2.5385   -1.6895   -2.4318 H   0  0  0  0  0  0  0  0  0  0  0  0
   -2.2012   -4.1402   -2.3609 H   0  0  0  0  0  0  0  0  0  0  0  0
   -3.3672   -4.1842    1.7770 H   0  0  0  0  0  0  0  0  0  0  0  0
   -4.1544   -2.2228    2.8429 H   0  0  0  0  0  0  0  0  0  0  0  0
   -4.7078   -0.8844    1.8374 H   0  0  0  0  0  0  0  0  0  0  0  0
   -3.0356   -0.9019    2.4677 H   0  0  0  0  0  0  0  0  0  0  0  0
   -0.8098   -0.7413    0.2205 H   0  0  0  0  0  0  0  0  0  0  0  0
    1.1870   -1.0501    1.8141 H   0  0  0  0  0  0  0  0  0  0  0  0
    1.1948   -1.2841    0.0405 H   0  0  0  0  0  0  0  0  0  0  0  0
    3.3772   -1.8095    1.3519 H   0  0  0  0  0  0  0  0  0  0  0  0
    3.5863   -0.0436    1.4727 H   0  0  0  0  0  0  0  0  0  0  0  0
    5.4838   -1.4168    0.2761 H   0  0  0  0  0  0  0  0  0  0  0  0
    5.2893    1.0696    0.5204 H   0  0  0  0  0  0  0  0  0  0  0  0
    5.0439    1.2444   -1.2097 H   0  0  0  0  0  0  0  0  0  0  0  0
    6.6146    0.6826   -0.5882 H   0  0  0  0  0  0  0  0  0  0  0  0
    5.0719   -2.4666   -1.9333 H   0  0  0  0  0  0  0  0  0  0  0  0
    4.9876   -0.8887   -2.7027 H   0  0  0  0  0  0  0  0  0  0  0  0
    6.5244   -1.4439   -1.9964 H   0  0  0  0  0  0  0  0  0  0  0  0
    0.1388    5.2903    0.4294 H   0  0  0  0  0  0  0  0  0  0  0  0
   -1.2938    6.3035    0.2093 H   0  0  0  0  0  0  0  0  0  0  0  0
   -1.1843    5.2242    1.6172 H   0  0  0  0  0  0  0  0  0  0  0  0
  1  2  1  0
  2  3  2  0
  3  4  1  0
  4  5  2  3
  5  6  1  0
  6  7  2  0
  7  8  1  0
  8  9  2  0
  9 10  1  0
  9 11  1  0
 11 12  2  0
 12 13  1  0
  4 14  1  0
 14 15  1  0
 15 16  2  3
 16 17  1  0
 17 18  1  0
 18 19  1  0
 19 20  1  0
 20 21  1  0
 20 22  1  0
 15 23  1  0
 23 24  2  0
 24 25  1  0
 25 26  1  0
 25  1  1  0
 24  3  1  0
 12  6  1  0
  1 27  1  0
  2 28  1  0
  7 29  1  0
  8 30  1  0
 11 31  1  0
 13 32  1  0
 13 33  1  0
 13 34  1  0
 14 35  1  0
 17 36  1  0
 17 37  1  0
 18 38  1  0
 18 39  1  0
 20 40  1  0
 21 41  1  0
 21 42  1  0
 21 43  1  0
 22 44  1  0
 22 45  1  0
 22 46  1  0
 26 47  1  0
 26 48  1  0
 26 49  1  0
M  END
>  <ScrubInfo>  (9) 
{"isomerGroup": 0, "isomerId": 8, "confId": 0, "nr_conformers:": 1, "nr_isomers:": 9}

$$$$
