REMARK SMILES Cc1cc(Cl)ccc1Nc1nc(NCCOC(C)C)nc2c1cnn2C
REMARK SMILES IDX 13 1 12 3 10 4 11 5 22 6 21 7 23 8 20 9 25 10 24 11 26 12
REMARK SMILES IDX 9 13 8 15 2 16 3 17 4 18 7 19 6 20 1 21 5 22 14 23 15 24
REMARK SMILES IDX 16 25 17 26 18 27 19 28
REMARK H PARENT 13 2 9 14
ROOT
ATOM      1  N   UNL     1       1.803  -1.401  -1.054  1.00  0.00    -0.352 N 
ATOM      2  H   UNL     1       2.281  -1.223  -1.930  1.00  0.00     0.163 HD
ENDROOT
BRANCH   1   3
ATOM      3  C   UNL     1       0.599  -0.716  -1.098  1.00  0.00     0.226 A 
ATOM      4  C   UNL     1      -1.271   0.152   0.013  1.00  0.00     0.147 A 
ATOM      5  N   UNL     1      -0.088  -0.509   0.040  1.00  0.00    -0.195 NA
ATOM      6  C   UNL     1      -1.731   0.617  -1.220  1.00  0.00     0.082 A 
ATOM      7  C   UNL     1      -0.938   0.351  -2.318  1.00  0.00     0.165 A 
ATOM      8  C   UNL     1      -2.828   1.331  -1.743  1.00  0.00     0.149 A 
ATOM      9  N   UNL     1       0.232  -0.307  -2.319  1.00  0.00    -0.193 NA
ATOM     10  N   UNL     1      -1.590   0.892  -3.393  1.00  0.00    -0.250 N 
ATOM     11  N   UNL     1      -2.752   1.504  -3.068  1.00  0.00    -0.179 NA
ATOM     12  C   UNL     1      -1.164   0.867  -4.769  1.00  0.00     0.176 C 
BRANCH   4  13
ATOM     13  N   UNL     1      -1.929   0.326   1.245  1.00  0.00    -0.339 N 
ATOM     14  H   UNL     1      -1.442  -0.282   1.902  1.00  0.00     0.168 HD
BRANCH  13  15
ATOM     15  C   UNL     1      -3.326   0.263   1.435  1.00  0.00     0.043 A 
ATOM     16  C   UNL     1      -4.094  -0.882   1.142  1.00  0.00    -0.026 A 
ATOM     17  C   UNL     1      -5.481  -0.853   1.374  1.00  0.00     0.026 A 
ATOM     18  C   UNL     1      -6.085   0.275   1.928  1.00  0.00     0.041 A 
ATOM     19  C   UNL     1      -3.949   1.376   2.021  1.00  0.00     0.028 A 
ATOM     20  C   UNL     1      -5.323   1.388   2.261  1.00  0.00     0.022 A 
ATOM     21  C   UNL     1      -3.490  -2.131   0.559  1.00  0.00     0.046 C 
ATOM     22  Cl  UNL     1      -7.782   0.284   2.212  1.00  0.00    -0.084 Cl
ENDBRANCH  13  15
ENDBRANCH   4  13
ENDBRANCH   1   3
BRANCH   1  23
ATOM     23  C   UNL     1       2.602  -1.243   0.153  1.00  0.00     0.144 C 
BRANCH  23  24
ATOM     24  C   UNL     1       3.168   0.176   0.317  1.00  0.00     0.181 C 
BRANCH  24  25
ATOM     25  O   UNL     1       4.104   0.235   1.397  1.00  0.00    -0.377 OA
BRANCH  25  26
ATOM     26  C   UNL     1       5.449  -0.085   1.029  1.00  0.00     0.112 C 
ATOM     27  C   UNL     1       6.152   1.162   0.502  1.00  0.00     0.038 C 
ATOM     28  C   UNL     1       6.148  -0.601   2.280  1.00  0.00     0.038 C 
ENDBRANCH  25  26
ENDBRANCH  24  25
ENDBRANCH  23  24
ENDBRANCH   1  23
TORSDOF 7
