_i0
     RDKit          3D

 49 51  0  0  0  0  0  0  0  0999 V2000
    4.0744   -1.3990   -0.5916 C   0  0  0  0  0  0  0  0  0  0  0  0
    4.0846   -0.9621    0.8666 N   0  0  0  0  0  4  0  0  0  0  0  0
    4.7066    0.3817    1.0803 C   0  0  0  0  0  0  0  0  0  0  0  0
    4.6229   -2.0008    1.7954 C   0  0  0  0  0  0  0  0  0  0  0  0
    2.8340   -0.7944   -1.2834 C   0  0  0  0  0  0  0  0  0  0  0  0
    1.6980   -0.9036   -0.3559 N   0  0  0  0  0  0  0  0  0  0  0  0
    0.9402    0.2680   -0.2717 C   0  0  0  0  0  0  0  0  0  0  0  0
   -0.3742    0.0832   -0.4351 N   0  0  0  0  0  0  0  0  0  0  0  0
    1.5585    1.4231    0.0107 N   0  0  0  0  0  0  0  0  0  0  0  0
   -1.2379    1.1308   -0.3450 C   0  0  0  0  0  0  0  0  0  0  0  0
    0.6939    2.4520    0.0806 C   0  0  0  0  0  0  0  0  0  0  0  0
   -2.6107    0.9580   -0.5619 N   0  0  0  0  0  0  0  0  0  0  0  0
   -0.6791    2.3875   -0.0839 C   0  0  0  0  0  0  0  0  0  0  0  0
    0.9780    3.7707    0.3210 N   0  0  0  0  0  0  0  0  0  0  0  0
   -3.4162   -0.1962   -0.4549 C   0  0  0  0  0  0  0  0  0  0  0  0
   -1.1172    3.7179    0.0801 C   0  0  0  0  0  0  0  0  0  0  0  0
   -0.1130    4.5644    0.3256 N   0  0  0  0  0  0  0  0  0  0  0  0
    2.2728    4.3606    0.5506 C   0  0  0  0  0  0  0  0  0  0  0  0
   -2.9992   -1.3883    0.1403 C   0  0  0  0  0  0  0  0  0  0  0  0
   -4.7046   -0.1703   -1.0148 C   0  0  0  0  0  0  0  0  0  0  0  0
   -3.8645   -2.4875    0.2304 C   0  0  0  0  0  0  0  0  0  0  0  0
   -5.1273    0.9306   -1.7133 O   0  0  0  0  0  0  0  0  0  0  0  0
   -5.5799   -1.2481   -0.9195 C   0  0  0  0  0  0  0  0  0  0  0  0
   -5.1670   -2.4184   -0.2785 C   0  0  0  0  0  0  0  0  0  0  0  0
   -6.0819   -3.6044   -0.1997 C   0  0  0  0  0  0  0  0  0  0  0  0
    5.0171   -1.1013   -1.0610 H   0  0  0  0  0  0  0  0  0  0  0  0
    3.9945   -2.4918   -0.5983 H   0  0  0  0  0  0  0  0  0  0  0  0
    3.0719   -0.8557    1.0778 H   0  0  0  0  0  0  0  0  0  0  0  0
    4.5030    0.6900    2.1091 H   0  0  0  0  0  0  0  0  0  0  0  0
    5.7824    0.2967    0.9046 H   0  0  0  0  0  0  0  0  0  0  0  0
    4.2607    1.0934    0.3830 H   0  0  0  0  0  0  0  0  0  0  0  0
    4.0291   -2.9105    1.6734 H   0  0  0  0  0  0  0  0  0  0  0  0
    4.5229   -1.6299    2.8189 H   0  0  0  0  0  0  0  0  0  0  0  0
    5.6716   -2.1806    1.5448 H   0  0  0  0  0  0  0  0  0  0  0  0
    2.6185   -1.3466   -2.2052 H   0  0  0  0  0  0  0  0  0  0  0  0
    3.0575    0.2389   -1.5753 H   0  0  0  0  0  0  0  0  0  0  0  0
    0.9948   -1.5746   -0.6838 H   0  0  0  0  0  0  0  0  0  0  0  0
   -3.1643    1.7987   -0.4281 H   0  0  0  0  0  0  0  0  0  0  0  0
   -2.1252    4.1109    0.0330 H   0  0  0  0  0  0  0  0  0  0  0  0
    2.2638    4.8401    1.5326 H   0  0  0  0  0  0  0  0  0  0  0  0
    3.0442    3.5877    0.5236 H   0  0  0  0  0  0  0  0  0  0  0  0
    2.4593    5.0980   -0.2342 H   0  0  0  0  0  0  0  0  0  0  0  0
   -2.0108   -1.4771    0.5783 H   0  0  0  0  0  0  0  0  0  0  0  0
   -3.5162   -3.3982    0.7134 H   0  0  0  0  0  0  0  0  0  0  0  0
   -4.3418    1.2545   -2.1887 H   0  0  0  0  0  0  0  0  0  0  0  0
   -6.5707   -1.1750   -1.3603 H   0  0  0  0  0  0  0  0  0  0  0  0
   -5.8751   -4.1978    0.6971 H   0  0  0  0  0  0  0  0  0  0  0  0
   -5.9497   -4.2383   -1.0819 H   0  0  0  0  0  0  0  0  0  0  0  0
   -7.1286   -3.2873   -0.1448 H   0  0  0  0  0  0  0  0  0  0  0  0
  1  2  1  0
  2  3  1  0
  2  4  1  0
  5  1  1  0
  6  5  1  0
  7  6  1  0
  8  7  2  0
  7  9  1  0
 10  8  1  0
  9 11  2  0
 12 10  1  0
 13 10  2  0
 11 13  1  0
 14 11  1  0
 15 12  1  0
 13 16  1  0
 17 14  1  0
 14 18  1  0
 19 15  2  0
 15 20  1  0
 16 17  2  0
 21 19  1  0
 20 22  1  0
 20 23  2  0
 24 21  2  0
 23 24  1  0
 25 24  1  0
  1 26  1  0
  1 27  1  0
  2 28  1  0
  3 29  1  0
  3 30  1  0
  3 31  1  0
  4 32  1  0
  4 33  1  0
  4 34  1  0
  5 35  1  0
  5 36  1  0
  6 37  1  0
 12 38  1  0
 16 39  1  0
 18 40  1  0
 18 41  1  0
 18 42  1  0
 19 43  1  0
 21 44  1  0
 22 45  1  0
 23 46  1  0
 25 47  1  0
 25 48  1  0
 25 49  1  0
M  CHG  1   2   1
M  END
>  <ScrubInfo>  (1) 
{"isomerGroup": 0, "isomerId": 0, "confId": 0, "nr_conformers:": 1, "nr_isomers:": 9}

$$$$
_i1
     RDKit          3D

 49 51  0  0  0  0  0  0  0  0999 V2000
    0.6552   -0.0723   -0.6625 N   0  0  0  0  0  0  0  0  0  0  0  0
    1.6190   -1.0439   -0.8646 C   0  0  0  0  0  0  0  0  0  0  0  0
    2.9589   -0.7198   -1.0272 N   0  0  0  0  0  0  0  0  0  0  0  0
    3.6108    0.3339   -0.3326 C   0  0  0  0  0  0  0  0  0  0  0  0
    3.3302    0.6479    1.0012 C   0  0  0  0  0  0  0  0  0  0  0  0
    4.0717    1.6290    1.6701 C   0  0  0  0  0  0  0  0  0  0  0  0
    5.1138    2.3045    1.0212 C   0  0  0  0  0  0  0  0  0  0  0  0
    5.9341    3.3246    1.7549 C   0  0  0  0  0  0  0  0  0  0  0  0
    5.4241    1.9671   -0.3001 C   0  0  0  0  0  0  0  0  0  0  0  0
    4.6768    0.9961   -0.9576 C   0  0  0  0  0  0  0  0  0  0  0  0
    4.9959    0.7111   -2.2577 O   0  0  0  0  0  0  0  0  0  0  0  0
    1.1522   -2.2970   -0.9236 C   0  0  0  0  0  0  0  0  0  0  0  0
    1.6836   -3.6544   -1.0926 C   0  0  0  0  0  0  0  0  0  0  0  0
    0.7569   -4.5759   -1.0331 N   0  0  0  0  0  0  0  0  0  0  0  0
   -0.4534   -3.8858   -0.8705 N   0  0  0  0  0  0  0  0  0  0  0  0
   -1.6269   -4.6317   -0.4862 C   0  0  0  0  0  0  0  0  0  0  0  0
   -0.3048   -2.5141   -0.7544 C   0  0  0  0  0  0  0  0  0  0  0  0
   -1.1860   -1.5924   -0.5456 N   0  0  0  0  0  0  0  0  0  0  0  0
   -0.6838   -0.3100   -0.5159 C   0  0  0  0  0  0  0  0  0  0  0  0
   -1.4912    0.6886   -0.3525 N   0  0  0  0  0  0  0  0  0  0  0  0
   -2.9131    0.3687   -0.2160 C   0  0  0  0  0  0  0  0  0  0  0  0
   -3.6831    1.6872   -0.0786 C   0  0  0  0  0  0  0  0  0  0  0  0
   -5.1840    1.5116    0.0523 N   0  0  0  0  0  4  0  0  0  0  0  0
   -5.8314    0.9366   -1.1743 C   0  0  0  0  0  0  0  0  0  0  0  0
   -5.5997    0.8013    1.3075 C   0  0  0  0  0  0  0  0  0  0  0  0
    0.9695    0.8884   -0.6694 H   0  0  0  0  0  0  0  0  0  0  0  0
    3.5796   -1.5307   -1.0400 H   0  0  0  0  0  0  0  0  0  0  0  0
    2.5522    0.1215    1.5475 H   0  0  0  0  0  0  0  0  0  0  0  0
    3.8420    1.8529    2.7102 H   0  0  0  0  0  0  0  0  0  0  0  0
    6.7807    2.8386    2.2493 H   0  0  0  0  0  0  0  0  0  0  0  0
    6.3149    4.0872    1.0674 H   0  0  0  0  0  0  0  0  0  0  0  0
    5.3311    3.8402    2.5097 H   0  0  0  0  0  0  0  0  0  0  0  0
    6.2429    2.4564   -0.8217 H   0  0  0  0  0  0  0  0  0  0  0  0
    4.2591    0.1764   -2.6045 H   0  0  0  0  0  0  0  0  0  0  0  0
    2.7576   -3.8341   -1.2294 H   0  0  0  0  0  0  0  0  0  0  0  0
   -2.5386   -4.1092   -0.7929 H   0  0  0  0  0  0  0  0  0  0  0  0
   -1.6523   -4.7678    0.5994 H   0  0  0  0  0  0  0  0  0  0  0  0
   -1.6327   -5.6187   -0.9599 H   0  0  0  0  0  0  0  0  0  0  0  0
   -3.0762   -0.2494    0.6738 H   0  0  0  0  0  0  0  0  0  0  0  0
   -3.2661   -0.1727   -1.1007 H   0  0  0  0  0  0  0  0  0  0  0  0
   -3.3534    2.2433    0.8070 H   0  0  0  0  0  0  0  0  0  0  0  0
   -3.5175    2.3314   -0.9503 H   0  0  0  0  0  0  0  0  0  0  0  0
   -5.5490    2.4692    0.1380 H   0  0  0  0  0  0  0  0  0  0  0  0
   -5.4941    1.5105   -2.0412 H   0  0  0  0  0  0  0  0  0  0  0  0
   -6.9139    1.0388   -1.0594 H   0  0  0  0  0  0  0  0  0  0  0  0
   -5.5545   -0.1164   -1.2642 H   0  0  0  0  0  0  0  0  0  0  0  0
   -5.3184   -0.2517    1.2317 H   0  0  0  0  0  0  0  0  0  0  0  0
   -5.1046    1.2835    2.1543 H   0  0  0  0  0  0  0  0  0  0  0  0
   -6.6841    0.9016    1.4047 H   0  0  0  0  0  0  0  0  0  0  0  0
  1  2  1  0
  2  3  1  0
  3  4  1  0
  4  5  2  0
  5  6  1  0
  6  7  2  0
  7  8  1  0
  7  9  1  0
  9 10  2  0
 10 11  1  0
  2 12  2  0
 12 13  1  0
 13 14  2  0
 14 15  1  0
 15 16  1  0
 15 17  1  0
 17 18  2  0
 18 19  1  0
 19 20  2  3
 20 21  1  0
 21 22  1  0
 22 23  1  0
 23 24  1  0
 23 25  1  0
 19  1  1  0
 10  4  1  0
 17 12  1  0
  1 26  1  0
  3 27  1  0
  5 28  1  0
  6 29  1  0
  8 30  1  0
  8 31  1  0
  8 32  1  0
  9 33  1  0
 11 34  1  0
 13 35  1  0
 16 36  1  0
 16 37  1  0
 16 38  1  0
 21 39  1  0
 21 40  1  0
 22 41  1  0
 22 42  1  0
 23 43  1  0
 24 44  1  0
 24 45  1  0
 24 46  1  0
 25 47  1  0
 25 48  1  0
 25 49  1  0
M  CHG  1  23   1
M  END
>  <ScrubInfo>  (2) 
{"isomerGroup": 0, "isomerId": 1, "confId": 0, "nr_conformers:": 1, "nr_isomers:": 9}

$$$$
_i2
     RDKit          3D

 49 51  0  0  0  0  0  0  0  0999 V2000
   -0.6883   -0.0915   -0.1847 N   0  0  0  0  0  0  0  0  0  0  0  0
    0.5684    0.4122   -0.4298 C   0  0  0  0  0  0  0  0  0  0  0  0
    0.6241    1.7783   -0.3566 N   0  0  0  0  0  0  0  0  0  0  0  0
    1.8018    2.5597   -0.7360 C   0  0  0  0  0  0  0  0  0  0  0  0
    2.8848    2.5466    0.3653 C   0  0  0  0  0  0  0  0  0  0  0  0
    3.5878    1.2060    0.4557 N   0  0  0  0  0  4  0  0  0  0  0  0
    3.9435    0.8253    1.8590 C   0  0  0  0  0  0  0  0  0  0  0  0
    4.7464    1.0797   -0.4829 C   0  0  0  0  0  0  0  0  0  0  0  0
    1.6334   -0.3252   -0.6525 N   0  0  0  0  0  0  0  0  0  0  0  0
    1.3160   -1.6556   -0.6767 C   0  0  0  0  0  0  0  0  0  0  0  0
    0.0848   -2.2415   -0.4446 C   0  0  0  0  0  0  0  0  0  0  0  0
    0.2968   -3.6219   -0.5558 C   0  0  0  0  0  0  0  0  0  0  0  0
    1.5694   -3.9074   -0.8546 N   0  0  0  0  0  0  0  0  0  0  0  0
    2.1567   -2.6975   -0.9694 N   0  0  0  0  0  0  0  0  0  0  0  0
    3.5400   -2.6258   -1.3658 C   0  0  0  0  0  0  0  0  0  0  0  0
   -1.0612   -1.4193   -0.1604 C   0  0  0  0  0  0  0  0  0  0  0  0
   -2.1997   -1.9880    0.0545 N   0  0  0  0  0  0  0  0  0  0  0  0
   -3.2943   -1.1583    0.3535 C   0  0  0  0  0  0  0  0  0  0  0  0
   -3.7114   -0.9919    1.6728 C   0  0  0  0  0  0  0  0  0  0  0  0
   -4.7724   -0.1311    1.9720 C   0  0  0  0  0  0  0  0  0  0  0  0
   -5.4256    0.5787    0.9535 C   0  0  0  0  0  0  0  0  0  0  0  0
   -6.5927    1.4663    1.2752 C   0  0  0  0  0  0  0  0  0  0  0  0
   -5.0276    0.3891   -0.3752 C   0  0  0  0  0  0  0  0  0  0  0  0
   -3.9802   -0.4786   -0.6609 C   0  0  0  0  0  0  0  0  0  0  0  0
   -3.6165   -0.6554   -1.9680 O   0  0  0  0  0  0  0  0  0  0  0  0
   -1.4322    0.5591    0.0183 H   0  0  0  0  0  0  0  0  0  0  0  0
   -0.2403    2.2350   -0.6433 H   0  0  0  0  0  0  0  0  0  0  0  0
    1.4796    3.5982   -0.8745 H   0  0  0  0  0  0  0  0  0  0  0  0
    2.1976    2.2187   -1.6988 H   0  0  0  0  0  0  0  0  0  0  0  0
    3.6510    3.3067    0.1791 H   0  0  0  0  0  0  0  0  0  0  0  0
    2.4230    2.7464    1.3390 H   0  0  0  0  0  0  0  0  0  0  0  0
    2.8880    0.4999    0.1426 H   0  0  0  0  0  0  0  0  0  0  0  0
    4.6548    1.5585    2.2479 H   0  0  0  0  0  0  0  0  0  0  0  0
    3.0255    0.8139    2.4527 H   0  0  0  0  0  0  0  0  0  0  0  0
    4.3824   -0.1758    1.8410 H   0  0  0  0  0  0  0  0  0  0  0  0
    5.5167    1.7959   -0.1846 H   0  0  0  0  0  0  0  0  0  0  0  0
    5.1250    0.0561   -0.4222 H   0  0  0  0  0  0  0  0  0  0  0  0
    4.3943    1.2847   -1.4966 H   0  0  0  0  0  0  0  0  0  0  0  0
   -0.4149   -4.4293   -0.4325 H   0  0  0  0  0  0  0  0  0  0  0  0
    3.7179   -1.6820   -1.8865 H   0  0  0  0  0  0  0  0  0  0  0  0
    4.1553   -2.6863   -0.4650 H   0  0  0  0  0  0  0  0  0  0  0  0
    3.7645   -3.4582   -2.0379 H   0  0  0  0  0  0  0  0  0  0  0  0
   -3.2175   -1.5394    2.4712 H   0  0  0  0  0  0  0  0  0  0  0  0
   -5.0955   -0.0257    3.0064 H   0  0  0  0  0  0  0  0  0  0  0  0
   -6.4798    1.9137    2.2683 H   0  0  0  0  0  0  0  0  0  0  0  0
   -7.5210    0.8874    1.2505 H   0  0  0  0  0  0  0  0  0  0  0  0
   -6.6678    2.2881    0.5554 H   0  0  0  0  0  0  0  0  0  0  0  0
   -5.5427    0.8952   -1.1879 H   0  0  0  0  0  0  0  0  0  0  0  0
   -3.1480   -1.5139   -1.9881 H   0  0  0  0  0  0  0  0  0  0  0  0
  1  2  1  0
  2  3  1  0
  3  4  1  0
  4  5  1  0
  5  6  1  0
  6  7  1  0
  6  8  1  0
  2  9  2  0
  9 10  1  0
 10 11  2  0
 11 12  1  0
 12 13  2  0
 13 14  1  0
 14 15  1  0
 11 16  1  0
 16 17  2  3
 17 18  1  0
 18 19  2  0
 19 20  1  0
 20 21  2  0
 21 22  1  0
 21 23  1  0
 23 24  2  0
 24 25  1  0
 16  1  1  0
 24 18  1  0
 14 10  1  0
  1 26  1  0
  3 27  1  0
  4 28  1  0
  4 29  1  0
  5 30  1  0
  5 31  1  0
  6 32  1  0
  7 33  1  0
  7 34  1  0
  7 35  1  0
  8 36  1  0
  8 37  1  0
  8 38  1  0
 12 39  1  0
 15 40  1  0
 15 41  1  0
 15 42  1  0
 19 43  1  0
 20 44  1  0
 22 45  1  0
 22 46  1  0
 22 47  1  0
 23 48  1  0
 25 49  1  0
M  CHG  1   6   1
M  END
>  <ScrubInfo>  (3) 
{"isomerGroup": 0, "isomerId": 2, "confId": 0, "nr_conformers:": 1, "nr_isomers:": 9}

$$$$
_i3
     RDKit          3D

 49 51  0  0  0  0  0  0  0  0999 V2000
   -0.7869   -0.7577   -1.6028 N   0  0  0  0  0  0  0  0  0  0  0  0
   -0.9235    0.3500   -0.7826 C   0  0  0  0  0  0  0  0  0  0  0  0
   -1.9655    0.6888   -0.1125 N   0  0  0  0  0  0  0  0  0  0  0  0
   -3.1743   -0.1113   -0.1406 C   0  0  0  0  0  0  0  0  0  0  0  0
   -4.1711    0.5473    0.8295 C   0  0  0  0  0  0  0  0  0  0  0  0
   -5.4162   -0.2940    1.0441 N   0  0  0  0  0  4  0  0  0  0  0  0
   -6.2950   -0.3782   -0.1715 C   0  0  0  0  0  0  0  0  0  0  0  0
   -6.1931    0.2035    2.2371 C   0  0  0  0  0  0  0  0  0  0  0  0
    0.1206    1.2419   -0.5848 N   0  0  0  0  0  0  0  0  0  0  0  0
    1.2701    1.0150   -1.1571 C   0  0  0  0  0  0  0  0  0  0  0  0
    2.3593    1.8328   -0.9945 N   0  0  0  0  0  0  0  0  0  0  0  0
    3.3759    1.4407   -0.0718 C   0  0  0  0  0  0  0  0  0  0  0  0
    4.7103    1.5696   -0.4761 C   0  0  0  0  0  0  0  0  0  0  0  0
    5.7538    1.2412    0.3936 C   0  0  0  0  0  0  0  0  0  0  0  0
    5.4822    0.8116    1.6972 C   0  0  0  0  0  0  0  0  0  0  0  0
    6.6006    0.4261    2.6201 C   0  0  0  0  0  0  0  0  0  0  0  0
    4.1505    0.7042    2.1146 C   0  0  0  0  0  0  0  0  0  0  0  0
    3.1100    1.0341    1.2467 C   0  0  0  0  0  0  0  0  0  0  0  0
    1.8472    0.9586    1.7718 O   0  0  0  0  0  0  0  0  0  0  0  0
    1.4652   -0.1300   -2.0047 C   0  0  0  0  0  0  0  0  0  0  0  0
    2.4991   -0.6879   -2.7676 C   0  0  0  0  0  0  0  0  0  0  0  0
    2.1120   -1.8084   -3.3960 N   0  0  0  0  0  0  0  0  0  0  0  0
    0.8209   -1.9678   -3.0222 N   0  0  0  0  0  0  0  0  0  0  0  0
    0.0888   -3.1028   -3.5238 C   0  0  0  0  0  0  0  0  0  0  0  0
    0.4053   -0.9741   -2.1914 C   0  0  0  0  0  0  0  0  0  0  0  0
   -1.5731   -1.3763   -1.7196 H   0  0  0  0  0  0  0  0  0  0  0  0
   -2.9690   -1.1378    0.1843 H   0  0  0  0  0  0  0  0  0  0  0  0
   -3.5909   -0.1350   -1.1529 H   0  0  0  0  0  0  0  0  0  0  0  0
   -4.4901    1.5340    0.4739 H   0  0  0  0  0  0  0  0  0  0  0  0
   -3.6990    0.6681    1.8120 H   0  0  0  0  0  0  0  0  0  0  0  0
   -5.1079   -1.2457    1.2815 H   0  0  0  0  0  0  0  0  0  0  0  0
   -5.7354   -0.8701   -0.9699 H   0  0  0  0  0  0  0  0  0  0  0  0
   -7.1697   -0.9831    0.0825 H   0  0  0  0  0  0  0  0  0  0  0  0
   -6.5912    0.6333   -0.4613 H   0  0  0  0  0  0  0  0  0  0  0  0
   -5.5372    0.1648    3.1109 H   0  0  0  0  0  0  0  0  0  0  0  0
   -6.5232    1.2263    2.0366 H   0  0  0  0  0  0  0  0  0  0  0  0
   -7.0467   -0.4628    2.3875 H   0  0  0  0  0  0  0  0  0  0  0  0
    2.0336    2.7327   -0.6391 H   0  0  0  0  0  0  0  0  0  0  0  0
    4.9467    1.9129   -1.4808 H   0  0  0  0  0  0  0  0  0  0  0  0
    6.7821    1.3270    0.0474 H   0  0  0  0  0  0  0  0  0  0  0  0
    6.8284   -0.6383    2.5069 H   0  0  0  0  0  0  0  0  0  0  0  0
    7.5036    1.0066    2.4037 H   0  0  0  0  0  0  0  0  0  0  0  0
    6.3314    0.6220    3.6633 H   0  0  0  0  0  0  0  0  0  0  0  0
    3.9170    0.3761    3.1249 H   0  0  0  0  0  0  0  0  0  0  0  0
    1.1942    1.2757    1.1206 H   0  0  0  0  0  0  0  0  0  0  0  0
    3.5143   -0.3361   -2.9002 H   0  0  0  0  0  0  0  0  0  0  0  0
    0.0666   -3.0441   -4.6149 H   0  0  0  0  0  0  0  0  0  0  0  0
   -0.9302   -3.0903   -3.1316 H   0  0  0  0  0  0  0  0  0  0  0  0
    0.5992   -4.0131   -3.1993 H   0  0  0  0  0  0  0  0  0  0  0  0
  1  2  1  0
  2  3  2  3
  3  4  1  0
  4  5  1  0
  5  6  1  0
  6  7  1  0
  6  8  1  0
  2  9  1  0
  9 10  2  0
 10 11  1  0
 11 12  1  0
 12 13  2  0
 13 14  1  0
 14 15  2  0
 15 16  1  0
 15 17  1  0
 17 18  2  0
 18 19  1  0
 10 20  1  0
 20 21  1  0
 21 22  2  0
 22 23  1  0
 23 24  1  0
 23 25  1  0
 25  1  1  0
 18 12  1  0
 25 20  2  0
  1 26  1  0
  4 27  1  0
  4 28  1  0
  5 29  1  0
  5 30  1  0
  6 31  1  0
  7 32  1  0
  7 33  1  0
  7 34  1  0
  8 35  1  0
  8 36  1  0
  8 37  1  0
 11 38  1  0
 13 39  1  0
 14 40  1  0
 16 41  1  0
 16 42  1  0
 16 43  1  0
 17 44  1  0
 19 45  1  0
 21 46  1  0
 24 47  1  0
 24 48  1  0
 24 49  1  0
M  CHG  1   6   1
M  END
>  <ScrubInfo>  (4) 
{"isomerGroup": 0, "isomerId": 3, "confId": 0, "nr_conformers:": 1, "nr_isomers:": 9}

$$$$
_i4
     RDKit          3D

 49 51  0  0  0  0  0  0  0  0999 V2000
   -1.0926   -2.3654   -1.4969 N   0  0  0  0  0  0  0  0  0  0  0  0
   -1.5763   -1.0838   -1.5641 C   0  0  0  0  0  0  0  0  0  0  0  0
   -2.7206   -0.9658   -2.3024 N   0  0  0  0  0  0  0  0  0  0  0  0
   -3.2549    0.3232   -2.7577 C   0  0  0  0  0  0  0  0  0  0  0  0
   -3.8781    1.1722   -1.6228 C   0  0  0  0  0  0  0  0  0  0  0  0
   -2.8418    1.8451   -0.7499 N   0  0  0  0  0  4  0  0  0  0  0  0
   -2.2365    3.0800   -1.3391 C   0  0  0  0  0  0  0  0  0  0  0  0
   -3.3008    2.0593    0.6575 C   0  0  0  0  0  0  0  0  0  0  0  0
   -1.0417   -0.0525   -0.9719 N   0  0  0  0  0  0  0  0  0  0  0  0
    0.1060   -0.2097   -0.2004 C   0  0  0  0  0  0  0  0  0  0  0  0
    0.4846    0.8809    0.3860 N   0  0  0  0  0  0  0  0  0  0  0  0
    1.5935    0.8982    1.2440 C   0  0  0  0  0  0  0  0  0  0  0  0
    1.4692    0.5509    2.5901 C   0  0  0  0  0  0  0  0  0  0  0  0
    2.5865    0.5862    3.4309 C   0  0  0  0  0  0  0  0  0  0  0  0
    3.8355    0.9960    2.9419 C   0  0  0  0  0  0  0  0  0  0  0  0
    5.0397    0.9962    3.8381 C   0  0  0  0  0  0  0  0  0  0  0  0
    3.9577    1.3592    1.5956 C   0  0  0  0  0  0  0  0  0  0  0  0
    2.8403    1.3237    0.7699 C   0  0  0  0  0  0  0  0  0  0  0  0
    2.9811    1.7153   -0.5337 O   0  0  0  0  0  0  0  0  0  0  0  0
    0.6835   -1.5333   -0.1445 C   0  0  0  0  0  0  0  0  0  0  0  0
    1.8074   -2.1563    0.4242 C   0  0  0  0  0  0  0  0  0  0  0  0
    1.8475   -3.4725    0.1711 N   0  0  0  0  0  0  0  0  0  0  0  0
    0.7520   -3.6981   -0.5849 N   0  0  0  0  0  0  0  0  0  0  0  0
    0.4957   -5.0359   -1.0567 C   0  0  0  0  0  0  0  0  0  0  0  0
    0.0404   -2.5581   -0.7948 C   0  0  0  0  0  0  0  0  0  0  0  0
   -1.6242   -3.1261   -1.9013 H   0  0  0  0  0  0  0  0  0  0  0  0
   -2.8185   -1.6848   -3.0150 H   0  0  0  0  0  0  0  0  0  0  0  0
   -4.0531    0.1033   -3.4764 H   0  0  0  0  0  0  0  0  0  0  0  0
   -2.4849    0.8773   -3.3045 H   0  0  0  0  0  0  0  0  0  0  0  0
   -4.5133    1.9658   -2.0308 H   0  0  0  0  0  0  0  0  0  0  0  0
   -4.4880    0.5304   -0.9770 H   0  0  0  0  0  0  0  0  0  0  0  0
   -2.0547    1.1645   -0.6778 H   0  0  0  0  0  0  0  0  0  0  0  0
   -1.4315    3.4155   -0.6796 H   0  0  0  0  0  0  0  0  0  0  0  0
   -3.0153    3.8427   -1.4219 H   0  0  0  0  0  0  0  0  0  0  0  0
   -1.8272    2.8343   -2.3213 H   0  0  0  0  0  0  0  0  0  0  0  0
   -3.5923    1.0912    1.0736 H   0  0  0  0  0  0  0  0  0  0  0  0
   -4.1468    2.7513    0.6445 H   0  0  0  0  0  0  0  0  0  0  0  0
   -2.4669    2.4699    1.2334 H   0  0  0  0  0  0  0  0  0  0  0  0
    0.5087    0.2409    2.9907 H   0  0  0  0  0  0  0  0  0  0  0  0
    2.4785    0.2934    4.4740 H   0  0  0  0  0  0  0  0  0  0  0  0
    5.7535    1.7687    3.5332 H   0  0  0  0  0  0  0  0  0  0  0  0
    5.5347    0.0210    3.7988 H   0  0  0  0  0  0  0  0  0  0  0  0
    4.7552    1.2079    4.8741 H   0  0  0  0  0  0  0  0  0  0  0  0
    4.9150    1.6766    1.1897 H   0  0  0  0  0  0  0  0  0  0  0  0
    2.0773    1.7290   -0.8970 H   0  0  0  0  0  0  0  0  0  0  0  0
    2.6085   -1.7319    1.0157 H   0  0  0  0  0  0  0  0  0  0  0  0
    1.3595   -5.3683   -1.6381 H   0  0  0  0  0  0  0  0  0  0  0  0
   -0.3973   -5.0444   -1.6848 H   0  0  0  0  0  0  0  0  0  0  0  0
    0.3457   -5.6832   -0.1890 H   0  0  0  0  0  0  0  0  0  0  0  0
  1  2  1  0
  2  3  1  0
  3  4  1  0
  4  5  1  0
  5  6  1  0
  6  7  1  0
  6  8  1  0
  2  9  2  0
  9 10  1  0
 10 11  2  3
 11 12  1  0
 12 13  2  0
 13 14  1  0
 14 15  2  0
 15 16  1  0
 15 17  1  0
 17 18  2  0
 18 19  1  0
 10 20  1  0
 20 21  1  0
 21 22  2  0
 22 23  1  0
 23 24  1  0
 23 25  1  0
 25  1  1  0
 18 12  1  0
 25 20  2  0
  1 26  1  0
  3 27  1  0
  4 28  1  0
  4 29  1  0
  5 30  1  0
  5 31  1  0
  6 32  1  0
  7 33  1  0
  7 34  1  0
  7 35  1  0
  8 36  1  0
  8 37  1  0
  8 38  1  0
 13 39  1  0
 14 40  1  0
 16 41  1  0
 16 42  1  0
 16 43  1  0
 17 44  1  0
 19 45  1  0
 21 46  1  0
 24 47  1  0
 24 48  1  0
 24 49  1  0
M  CHG  1   6   1
M  END
>  <ScrubInfo>  (5) 
{"isomerGroup": 0, "isomerId": 4, "confId": 0, "nr_conformers:": 1, "nr_isomers:": 9}

$$$$
_i5
     RDKit          3D

 49 51  0  0  0  0  0  0  0  0999 V2000
    1.2860   -4.7643   -1.4016 N   0  0  0  0  0  0  0  0  0  0  0  0
    2.2172   -3.7621   -1.1551 C   0  0  0  0  0  0  0  0  0  0  0  0
    1.6454   -2.5787   -0.8995 C   0  0  0  0  0  0  0  0  0  0  0  0
    2.0761   -1.2468   -0.5441 C   0  0  0  0  0  0  0  0  0  0  0  0
    3.3247   -0.9307   -0.3964 N   0  0  0  0  0  0  0  0  0  0  0  0
    3.6369    0.4013   -0.0601 C   0  0  0  0  0  0  0  0  0  0  0  0
    3.7622    1.3844   -1.0421 C   0  0  0  0  0  0  0  0  0  0  0  0
    4.0850    2.6990   -0.6874 C   0  0  0  0  0  0  0  0  0  0  0  0
    4.2857    3.0473    0.6567 C   0  0  0  0  0  0  0  0  0  0  0  0
    4.6764    4.4474    1.0283 C   0  0  0  0  0  0  0  0  0  0  0  0
    4.1908    2.0556    1.6405 C   0  0  0  0  0  0  0  0  0  0  0  0
    3.8756    0.7518    1.2743 C   0  0  0  0  0  0  0  0  0  0  0  0
    3.8160   -0.2066    2.2512 O   0  0  0  0  0  0  0  0  0  0  0  0
    1.0515   -0.3603   -0.3473 N   0  0  0  0  0  0  0  0  0  0  0  0
   -0.1971   -0.6985   -0.4666 C   0  0  0  0  0  0  0  0  0  0  0  0
   -1.0916    0.3039   -0.2192 N   0  0  0  0  0  0  0  0  0  0  0  0
   -2.4390    0.0465    0.2346 C   0  0  0  0  0  0  0  0  0  0  0  0
   -3.3291    1.2733   -0.0314 C   0  0  0  0  0  0  0  0  0  0  0  0
   -4.8056    0.9870    0.1995 N   0  0  0  0  0  4  0  0  0  0  0  0
   -5.6631    2.0949   -0.3567 C   0  0  0  0  0  0  0  0  0  0  0  0
   -5.1467    0.7094    1.6380 C   0  0  0  0  0  0  0  0  0  0  0  0
   -0.6705   -1.9380   -0.8076 N   0  0  0  0  0  0  0  0  0  0  0  0
    0.2080   -2.8519   -1.0486 C   0  0  0  0  0  0  0  0  0  0  0  0
    0.0248   -4.1761   -1.4499 N   0  0  0  0  0  0  0  0  0  0  0  0
   -1.1212   -4.9510   -1.0173 C   0  0  0  0  0  0  0  0  0  0  0  0
    1.5394   -5.3723   -2.1855 H   0  0  0  0  0  0  0  0  0  0  0  0
    3.2735   -3.9925   -1.1832 H   0  0  0  0  0  0  0  0  0  0  0  0
    3.6134    1.1260   -2.0862 H   0  0  0  0  0  0  0  0  0  0  0  0
    4.1887    3.4483   -1.4693 H   0  0  0  0  0  0  0  0  0  0  0  0
    4.2372    5.1719    0.3345 H   0  0  0  0  0  0  0  0  0  0  0  0
    4.3169    4.6996    2.0315 H   0  0  0  0  0  0  0  0  0  0  0  0
    5.7656    4.5505    1.0059 H   0  0  0  0  0  0  0  0  0  0  0  0
    4.3779    2.2863    2.6856 H   0  0  0  0  0  0  0  0  0  0  0  0
    3.7529   -1.0463    1.7555 H   0  0  0  0  0  0  0  0  0  0  0  0
   -0.5987    1.0837    0.2111 H   0  0  0  0  0  0  0  0  0  0  0  0
   -2.4186   -0.1903    1.3034 H   0  0  0  0  0  0  0  0  0  0  0  0
   -2.8690   -0.8140   -0.2907 H   0  0  0  0  0  0  0  0  0  0  0  0
   -3.2307    1.5787   -1.0799 H   0  0  0  0  0  0  0  0  0  0  0  0
   -3.0501    2.1200    0.6063 H   0  0  0  0  0  0  0  0  0  0  0  0
   -5.0418    0.1438   -0.3427 H   0  0  0  0  0  0  0  0  0  0  0  0
   -5.4338    3.0171    0.1838 H   0  0  0  0  0  0  0  0  0  0  0  0
   -5.4390    2.1963   -1.4219 H   0  0  0  0  0  0  0  0  0  0  0  0
   -6.7108    1.8119   -0.2252 H   0  0  0  0  0  0  0  0  0  0  0  0
   -6.2239    0.5343    1.7043 H   0  0  0  0  0  0  0  0  0  0  0  0
   -4.8536    1.5738    2.2394 H   0  0  0  0  0  0  0  0  0  0  0  0
   -4.6138   -0.1904    1.9521 H   0  0  0  0  0  0  0  0  0  0  0  0
   -1.0931   -5.1162    0.0648 H   0  0  0  0  0  0  0  0  0  0  0  0
   -1.1348   -5.9244   -1.5183 H   0  0  0  0  0  0  0  0  0  0  0  0
   -2.0523   -4.4329   -1.2680 H   0  0  0  0  0  0  0  0  0  0  0  0
  1  2  1  0
  2  3  2  0
  3  4  1  0
  4  5  2  3
  5  6  1  0
  6  7  2  0
  7  8  1  0
  8  9  2  0
  9 10  1  0
  9 11  1  0
 11 12  2  0
 12 13  1  0
  4 14  1  0
 14 15  2  0
 15 16  1  0
 16 17  1  0
 17 18  1  0
 18 19  1  0
 19 20  1  0
 19 21  1  0
 15 22  1  0
 22 23  2  0
 23 24  1  0
 24 25  1  0
 24  1  1  0
 23  3  1  0
 12  6  1  0
  1 26  1  0
  2 27  1  0
  7 28  1  0
  8 29  1  0
 10 30  1  0
 10 31  1  0
 10 32  1  0
 11 33  1  0
 13 34  1  0
 16 35  1  0
 17 36  1  0
 17 37  1  0
 18 38  1  0
 18 39  1  0
 19 40  1  0
 20 41  1  0
 20 42  1  0
 20 43  1  0
 21 44  1  0
 21 45  1  0
 21 46  1  0
 25 47  1  0
 25 48  1  0
 25 49  1  0
M  CHG  1  19   1
M  END
>  <ScrubInfo>  (6) 
{"isomerGroup": 0, "isomerId": 5, "confId": 0, "nr_conformers:": 1, "nr_isomers:": 9}

$$$$
_i6
     RDKit          3D

 49 51  0  0  0  0  0  0  0  0999 V2000
   -0.6753   -4.3394    2.3251 N   0  0  0  0  0  0  0  0  0  0  0  0
   -1.3836   -3.1560    2.1511 C   0  0  0  0  0  0  0  0  0  0  0  0
   -0.8212   -2.3417    1.2471 C   0  0  0  0  0  0  0  0  0  0  0  0
   -1.0581   -1.0108    0.6775 C   0  0  0  0  0  0  0  0  0  0  0  0
   -2.1570   -0.2961    1.0956 N   0  0  0  0  0  0  0  0  0  0  0  0
   -2.6651    0.9543    0.6931 C   0  0  0  0  0  0  0  0  0  0  0  0
   -2.1779    1.7129   -0.3696 C   0  0  0  0  0  0  0  0  0  0  0  0
   -2.7507    2.9514   -0.6894 C   0  0  0  0  0  0  0  0  0  0  0  0
   -3.8318    3.4540    0.0447 C   0  0  0  0  0  0  0  0  0  0  0  0
   -4.4180    4.7952   -0.2865 C   0  0  0  0  0  0  0  0  0  0  0  0
   -4.3235    2.7117    1.1221 C   0  0  0  0  0  0  0  0  0  0  0  0
   -3.7456    1.4800    1.4276 C   0  0  0  0  0  0  0  0  0  0  0  0
   -4.2225    0.7267    2.4751 O   0  0  0  0  0  0  0  0  0  0  0  0
   -0.1873   -0.5775   -0.1930 N   0  0  0  0  0  0  0  0  0  0  0  0
    0.8872   -1.3665   -0.5295 C   0  0  0  0  0  0  0  0  0  0  0  0
    1.7680   -0.9100   -1.3516 N   0  0  0  0  0  0  0  0  0  0  0  0
    1.5676    0.4317   -1.8880 C   0  0  0  0  0  0  0  0  0  0  0  0
    2.6957    0.7645   -2.8746 C   0  0  0  0  0  0  0  0  0  0  0  0
    4.0952    0.7404   -2.2746 N   0  0  0  0  0  4  0  0  0  0  0  0
    4.5756   -0.6403   -1.9085 C   0  0  0  0  0  0  0  0  0  0  0  0
    4.2877    1.7106   -1.1504 C   0  0  0  0  0  0  0  0  0  0  0  0
    1.1710   -2.6303   -0.0837 N   0  0  0  0  0  0  0  0  0  0  0  0
    0.3366   -3.1254    0.7633 C   0  0  0  0  0  0  0  0  0  0  0  0
    0.3338   -4.3795    1.3711 N   0  0  0  0  0  0  0  0  0  0  0  0
    1.5645   -5.0850    1.6704 C   0  0  0  0  0  0  0  0  0  0  0  0
   -1.2680   -5.1714    2.3957 H   0  0  0  0  0  0  0  0  0  0  0  0
   -2.2827   -2.9985    2.7295 H   0  0  0  0  0  0  0  0  0  0  0  0
   -2.7268   -0.6722    1.8512 H   0  0  0  0  0  0  0  0  0  0  0  0
   -1.3574    1.3571   -0.9804 H   0  0  0  0  0  0  0  0  0  0  0  0
   -2.3488    3.5201   -1.5255 H   0  0  0  0  0  0  0  0  0  0  0  0
   -4.3276    5.0076   -1.3569 H   0  0  0  0  0  0  0  0  0  0  0  0
   -5.4841    4.8275   -0.0383 H   0  0  0  0  0  0  0  0  0  0  0  0
   -3.8996    5.5786    0.2749 H   0  0  0  0  0  0  0  0  0  0  0  0
   -5.1519    3.0987    1.7084 H   0  0  0  0  0  0  0  0  0  0  0  0
   -4.9647    1.2097    2.8799 H   0  0  0  0  0  0  0  0  0  0  0  0
    0.6199    0.4866   -2.4377 H   0  0  0  0  0  0  0  0  0  0  0  0
    1.5424    1.1790   -1.0867 H   0  0  0  0  0  0  0  0  0  0  0  0
    2.5557    1.7714   -3.2835 H   0  0  0  0  0  0  0  0  0  0  0  0
    2.7068    0.0586   -3.7129 H   0  0  0  0  0  0  0  0  0  0  0  0
    4.7104    1.0464   -3.0366 H   0  0  0  0  0  0  0  0  0  0  0  0
    4.2795   -1.3371   -2.6965 H   0  0  0  0  0  0  0  0  0  0  0  0
    5.6673   -0.5962   -1.8518 H   0  0  0  0  0  0  0  0  0  0  0  0
    4.1737   -0.9251   -0.9342 H   0  0  0  0  0  0  0  0  0  0  0  0
    3.7202    1.3718   -0.2802 H   0  0  0  0  0  0  0  0  0  0  0  0
    3.9463    2.6935   -1.4852 H   0  0  0  0  0  0  0  0  0  0  0  0
    5.3558    1.7479   -0.9192 H   0  0  0  0  0  0  0  0  0  0  0  0
    2.1776   -5.1887    0.7696 H   0  0  0  0  0  0  0  0  0  0  0  0
    1.3463   -6.0907    2.0442 H   0  0  0  0  0  0  0  0  0  0  0  0
    2.1443   -4.5495    2.4293 H   0  0  0  0  0  0  0  0  0  0  0  0
  1  2  1  0
  2  3  2  0
  3  4  1  0
  4  5  1  0
  5  6  1  0
  6  7  2  0
  7  8  1  0
  8  9  2  0
  9 10  1  0
  9 11  1  0
 11 12  2  0
 12 13  1  0
  4 14  2  0
 14 15  1  0
 15 16  2  3
 16 17  1  0
 17 18  1  0
 18 19  1  0
 19 20  1  0
 19 21  1  0
 15 22  1  0
 22 23  2  0
 23 24  1  0
 24 25  1  0
 24  1  1  0
 23  3  1  0
 12  6  1  0
  1 26  1  0
  2 27  1  0
  5 28  1  0
  7 29  1  0
  8 30  1  0
 10 31  1  0
 10 32  1  0
 10 33  1  0
 11 34  1  0
 13 35  1  0
 17 36  1  0
 17 37  1  0
 18 38  1  0
 18 39  1  0
 19 40  1  0
 20 41  1  0
 20 42  1  0
 20 43  1  0
 21 44  1  0
 21 45  1  0
 21 46  1  0
 25 47  1  0
 25 48  1  0
 25 49  1  0
M  CHG  1  19   1
M  END
>  <ScrubInfo>  (7) 
{"isomerGroup": 0, "isomerId": 6, "confId": 0, "nr_conformers:": 1, "nr_isomers:": 9}

$$$$
_i7
     RDKit          3D

 49 51  0  0  0  0  0  0  0  0999 V2000
   -1.1157   -5.0045   -0.4727 N   0  0  0  0  0  0  0  0  0  0  0  0
   -1.9808   -3.9386   -0.2600 C   0  0  0  0  0  0  0  0  0  0  0  0
   -1.3674   -2.7522   -0.3407 C   0  0  0  0  0  0  0  0  0  0  0  0
   -1.7093   -1.3382   -0.1875 C   0  0  0  0  0  0  0  0  0  0  0  0
   -2.9318   -0.9975    0.0979 N   0  0  0  0  0  0  0  0  0  0  0  0
   -3.2394    0.3702    0.2096 C   0  0  0  0  0  0  0  0  0  0  0  0
   -3.8288    1.0493   -0.8547 C   0  0  0  0  0  0  0  0  0  0  0  0
   -4.0929    2.4192   -0.7550 C   0  0  0  0  0  0  0  0  0  0  0  0
   -3.7647    3.1276    0.4107 C   0  0  0  0  0  0  0  0  0  0  0  0
   -4.0965    4.5868    0.5297 C   0  0  0  0  0  0  0  0  0  0  0  0
   -3.1983    2.4409    1.4912 C   0  0  0  0  0  0  0  0  0  0  0  0
   -2.9512    1.0775    1.3835 C   0  0  0  0  0  0  0  0  0  0  0  0
   -2.4002    0.4251    2.4528 O   0  0  0  0  0  0  0  0  0  0  0  0
   -0.6223   -0.5111   -0.3573 N   0  0  0  0  0  0  0  0  0  0  0  0
    0.6671   -0.9088   -0.6105 C   0  0  0  0  0  0  0  0  0  0  0  0
    1.7045   -0.1509   -0.6943 N   0  0  0  0  0  0  0  0  0  0  0  0
    1.5715    1.2955   -0.5030 C   0  0  0  0  0  0  0  0  0  0  0  0
    2.9545    1.9103   -0.7903 C   0  0  0  0  0  0  0  0  0  0  0  0
    4.0193    0.9290   -0.3291 N   0  0  0  0  0  4  0  0  0  0  0  0
    4.2906    0.9831    1.1396 C   0  0  0  0  0  0  0  0  0  0  0  0
    5.2620    0.9700   -1.1539 C   0  0  0  0  0  0  0  0  0  0  0  0
    0.9922   -2.2345   -0.7996 N   0  0  0  0  0  0  0  0  0  0  0  0
    0.0416   -3.1118   -0.6946 C   0  0  0  0  0  0  0  0  0  0  0  0
    0.1186   -4.4951   -0.8656 N   0  0  0  0  0  0  0  0  0  0  0  0
    1.3205   -5.2391   -0.5431 C   0  0  0  0  0  0  0  0  0  0  0  0
   -1.5125   -5.7461   -1.0565 H   0  0  0  0  0  0  0  0  0  0  0  0
   -3.0260   -4.1295   -0.0585 H   0  0  0  0  0  0  0  0  0  0  0  0
   -4.0924    0.5116   -1.7618 H   0  0  0  0  0  0  0  0  0  0  0  0
   -4.5702    2.9294   -1.5902 H   0  0  0  0  0  0  0  0  0  0  0  0
   -4.0351    5.0811   -0.4455 H   0  0  0  0  0  0  0  0  0  0  0  0
   -5.1090    4.7091    0.9263 H   0  0  0  0  0  0  0  0  0  0  0  0
   -3.3908    5.0941    1.1959 H   0  0  0  0  0  0  0  0  0  0  0  0
   -2.9723    2.9562    2.4212 H   0  0  0  0  0  0  0  0  0  0  0  0
   -2.6237   -0.5174    2.3114 H   0  0  0  0  0  0  0  0  0  0  0  0
   -0.7948    0.4709   -0.2167 H   0  0  0  0  0  0  0  0  0  0  0  0
    0.8297    1.7360   -1.1781 H   0  0  0  0  0  0  0  0  0  0  0  0
    1.2824    1.5121    0.5316 H   0  0  0  0  0  0  0  0  0  0  0  0
    3.1126    2.8737   -0.2961 H   0  0  0  0  0  0  0  0  0  0  0  0
    3.0777    2.0298   -1.8723 H   0  0  0  0  0  0  0  0  0  0  0  0
    3.5567    0.0114   -0.5089 H   0  0  0  0  0  0  0  0  0  0  0  0
    4.7480    1.9484    1.3725 H   0  0  0  0  0  0  0  0  0  0  0  0
    3.3465    0.8609    1.6757 H   0  0  0  0  0  0  0  0  0  0  0  0
    4.9663    0.1615    1.3917 H   0  0  0  0  0  0  0  0  0  0  0  0
    5.7251    1.9530   -1.0346 H   0  0  0  0  0  0  0  0  0  0  0  0
    5.9308    0.1780   -0.8067 H   0  0  0  0  0  0  0  0  0  0  0  0
    4.9890    0.7895   -2.1970 H   0  0  0  0  0  0  0  0  0  0  0  0
    2.1841   -4.8238   -1.0723 H   0  0  0  0  0  0  0  0  0  0  0  0
    1.2144   -6.2857   -0.8464 H   0  0  0  0  0  0  0  0  0  0  0  0
    1.5202   -5.2067    0.5330 H   0  0  0  0  0  0  0  0  0  0  0  0
  1  2  1  0
  2  3  2  0
  3  4  1  0
  4  5  2  3
  5  6  1  0
  6  7  2  0
  7  8  1  0
  8  9  2  0
  9 10  1  0
  9 11  1  0
 11 12  2  0
 12 13  1  0
  4 14  1  0
 14 15  1  0
 15 16  2  3
 16 17  1  0
 17 18  1  0
 18 19  1  0
 19 20  1  0
 19 21  1  0
 15 22  1  0
 22 23  2  0
 23 24  1  0
 24 25  1  0
 24  1  1  0
 23  3  1  0
 12  6  1  0
  1 26  1  0
  2 27  1  0
  7 28  1  0
  8 29  1  0
 10 30  1  0
 10 31  1  0
 10 32  1  0
 11 33  1  0
 13 34  1  0
 14 35  1  0
 17 36  1  0
 17 37  1  0
 18 38  1  0
 18 39  1  0
 19 40  1  0
 20 41  1  0
 20 42  1  0
 20 43  1  0
 21 44  1  0
 21 45  1  0
 21 46  1  0
 25 47  1  0
 25 48  1  0
 25 49  1  0
M  CHG  1  19   1
M  END
>  <ScrubInfo>  (8) 
{"isomerGroup": 0, "isomerId": 7, "confId": 0, "nr_conformers:": 1, "nr_isomers:": 9}

$$$$
_i8
     RDKit          3D

 49 51  0  0  0  0  0  0  0  0999 V2000
   -0.8062   -0.7945   -2.0739 N   0  0  0  0  0  0  0  0  0  0  0  0
   -0.4869   -0.3331   -0.8036 C   0  0  0  0  0  0  0  0  0  0  0  0
   -1.2951   -0.1013    0.1781 N   0  0  0  0  0  0  0  0  0  0  0  0
   -2.7218   -0.3312    0.0069 C   0  0  0  0  0  0  0  0  0  0  0  0
   -3.4072    0.0029    1.3427 C   0  0  0  0  0  0  0  0  0  0  0  0
   -4.8797   -0.3669    1.3468 N   0  0  0  0  0  4  0  0  0  0  0  0
   -5.7121    0.4911    0.4358 C   0  0  0  0  0  0  0  0  0  0  0  0
   -5.4289   -0.3525    2.7508 C   0  0  0  0  0  0  0  0  0  0  0  0
    0.8619   -0.1105   -0.6142 N   0  0  0  0  0  0  0  0  0  0  0  0
    1.9371   -0.2420   -1.4706 C   0  0  0  0  0  0  0  0  0  0  0  0
    3.2010   -0.0478   -1.3080 N   0  0  0  0  0  0  0  0  0  0  0  0
    3.7019    0.3660   -0.0617 C   0  0  0  0  0  0  0  0  0  0  0  0
    4.6771   -0.4295    0.5444 C   0  0  0  0  0  0  0  0  0  0  0  0
    5.2636   -0.0517    1.7565 C   0  0  0  0  0  0  0  0  0  0  0  0
    4.8993    1.1483    2.3776 C   0  0  0  0  0  0  0  0  0  0  0  0
    5.5116    1.5380    3.6910 C   0  0  0  0  0  0  0  0  0  0  0  0
    3.9225    1.9538    1.7807 C   0  0  0  0  0  0  0  0  0  0  0  0
    3.3423    1.5660    0.5706 C   0  0  0  0  0  0  0  0  0  0  0  0
    2.3825    2.3685    0.0107 O   0  0  0  0  0  0  0  0  0  0  0  0
    1.4964   -0.7013   -2.7665 C   0  0  0  0  0  0  0  0  0  0  0  0
    2.1351   -0.9911   -3.9808 C   0  0  0  0  0  0  0  0  0  0  0  0
    1.2710   -1.4017   -4.9206 N   0  0  0  0  0  0  0  0  0  0  0  0
    0.0707   -1.3736   -4.2976 N   0  0  0  0  0  0  0  0  0  0  0  0
   -1.0988   -1.7655   -5.0426 C   0  0  0  0  0  0  0  0  0  0  0  0
    0.1670   -0.9558   -3.0032 C   0  0  0  0  0  0  0  0  0  0  0  0
   -1.7743   -0.9739   -2.2911 H   0  0  0  0  0  0  0  0  0  0  0  0
   -2.9151   -1.3787   -0.2521 H   0  0  0  0  0  0  0  0  0  0  0  0
   -3.1152    0.3107   -0.7883 H   0  0  0  0  0  0  0  0  0  0  0  0
   -3.3285    1.0696    1.5828 H   0  0  0  0  0  0  0  0  0  0  0  0
   -2.9349   -0.5707    2.1492 H   0  0  0  0  0  0  0  0  0  0  0  0
   -4.9538   -1.3394    1.0209 H   0  0  0  0  0  0  0  0  0  0  0  0
   -5.3703    0.3405   -0.5902 H   0  0  0  0  0  0  0  0  0  0  0  0
   -6.7530    0.1673    0.5210 H   0  0  0  0  0  0  0  0  0  0  0  0
   -5.6025    1.5352    0.7404 H   0  0  0  0  0  0  0  0  0  0  0  0
   -4.8455   -1.0550    3.3518 H   0  0  0  0  0  0  0  0  0  0  0  0
   -5.3505    0.6641    3.1455 H   0  0  0  0  0  0  0  0  0  0  0  0
   -6.4714   -0.6793    2.7106 H   0  0  0  0  0  0  0  0  0  0  0  0
    1.0945    0.2970    0.2801 H   0  0  0  0  0  0  0  0  0  0  0  0
    4.9916   -1.3508    0.0596 H   0  0  0  0  0  0  0  0  0  0  0  0
    6.0176   -0.6972    2.2030 H   0  0  0  0  0  0  0  0  0  0  0  0
    6.5370    1.1621    3.7710 H   0  0  0  0  0  0  0  0  0  0  0  0
    5.5566    2.6274    3.7928 H   0  0  0  0  0  0  0  0  0  0  0  0
    4.9191    1.1295    4.5154 H   0  0  0  0  0  0  0  0  0  0  0  0
    3.6167    2.8768    2.2657 H   0  0  0  0  0  0  0  0  0  0  0  0
    2.6413    3.2895    0.1916 H   0  0  0  0  0  0  0  0  0  0  0  0
    3.1889   -0.9212   -4.2206 H   0  0  0  0  0  0  0  0  0  0  0  0
   -1.2458   -1.0476   -5.8534 H   0  0  0  0  0  0  0  0  0  0  0  0
   -1.9732   -1.7721   -4.3891 H   0  0  0  0  0  0  0  0  0  0  0  0
   -0.9334   -2.7684   -5.4447 H   0  0  0  0  0  0  0  0  0  0  0  0
  1  2  1  0
  2  3  2  3
  3  4  1  0
  4  5  1  0
  5  6  1  0
  6  7  1  0
  6  8  1  0
  2  9  1  0
  9 10  1  0
 10 11  2  3
 11 12  1  0
 12 13  2  0
 13 14  1  0
 14 15  2  0
 15 16  1  0
 15 17  1  0
 17 18  2  0
 18 19  1  0
 10 20  1  0
 20 21  1  0
 21 22  2  0
 22 23  1  0
 23 24  1  0
 23 25  1  0
 25  1  1  0
 18 12  1  0
 25 20  2  0
  1 26  1  0
  4 27  1  0
  4 28  1  0
  5 29  1  0
  5 30  1  0
  6 31  1  0
  7 32  1  0
  7 33  1  0
  7 34  1  0
  8 35  1  0
  8 36  1  0
  8 37  1  0
  9 38  1  0
 13 39  1  0
 14 40  1  0
 16 41  1  0
 16 42  1  0
 16 43  1  0
 17 44  1  0
 19 45  1  0
 21 46  1  0
 24 47  1  0
 24 48  1  0
 24 49  1  0
M  CHG  1   6   1
M  END
>  <ScrubInfo>  (9) 
{"isomerGroup": 0, "isomerId": 8, "confId": 0, "nr_conformers:": 1, "nr_isomers:": 9}

$$$$
