REMARK SMILES Cc1ccc(Nc2nc(NCC[NH+](C)C)nc3c2cnn3C)c(O)c1
REMARK SMILES IDX 9 1 8 2 16 3 7 4 17 5 18 6 21 7 19 8 20 9 22 10 10 11 11 13
REMARK SMILES IDX 12 14 13 15 14 16 15 17 6 19 5 21 4 22 23 23 3 24 25 25 2 26
REMARK SMILES IDX 1 27 24 28
REMARK H PARENT 10 12 13 18 6 20 24 29
ROOT
ATOM      1  C   UNL     1       0.940   0.268  -0.272  1.00  0.00     0.226 A 
ATOM      2  N   UNL     1      -0.374   0.083  -0.435  1.00  0.00    -0.195 NA
ATOM      3  N   UNL     1       1.558   1.423   0.011  1.00  0.00    -0.193 NA
ATOM      4  C   UNL     1      -1.238   1.131  -0.345  1.00  0.00     0.147 A 
ATOM      5  C   UNL     1       0.694   2.452   0.081  1.00  0.00     0.165 A 
ATOM      6  C   UNL     1      -0.679   2.388  -0.084  1.00  0.00     0.082 A 
ATOM      7  N   UNL     1       0.978   3.771   0.321  1.00  0.00    -0.250 N 
ATOM      8  C   UNL     1      -1.117   3.718   0.080  1.00  0.00     0.149 A 
ATOM      9  N   UNL     1      -0.113   4.564   0.326  1.00  0.00    -0.179 NA
ATOM     10  C   UNL     1       2.273   4.361   0.551  1.00  0.00     0.176 C 
ENDROOT
BRANCH   1  11
ATOM     11  N   UNL     1       1.698  -0.904  -0.356  1.00  0.00    -0.348 N 
ATOM     12  H   UNL     1       0.995  -1.575  -0.684  1.00  0.00     0.163 HD
BRANCH  11  13
ATOM     13  C   UNL     1       2.834  -0.794  -1.283  1.00  0.00     0.177 C 
BRANCH  13  14
ATOM     14  C   UNL     1       4.074  -1.399  -0.592  1.00  0.00     0.283 C 
BRANCH  14  15
ATOM     15  N   UNL     1       4.085  -0.962   0.867  1.00  0.00    -0.338 N 
ATOM     16  C   UNL     1       4.707   0.382   1.080  1.00  0.00     0.332 C 
ATOM     17  C   UNL     1       4.623  -2.001   1.795  1.00  0.00     0.332 C 
ATOM     18  H   UNL     1       3.072  -0.856   1.078  1.00  0.00     0.347 HD
ENDBRANCH  14  15
ENDBRANCH  13  14
ENDBRANCH  11  13
ENDBRANCH   1  11
BRANCH   4  19
ATOM     19  N   UNL     1      -2.611   0.958  -0.562  1.00  0.00    -0.336 N 
ATOM     20  H   UNL     1      -3.164   1.799  -0.428  1.00  0.00     0.168 HD
BRANCH  19  21
ATOM     21  C   UNL     1      -3.416  -0.196  -0.455  1.00  0.00     0.082 A 
ATOM     22  C   UNL     1      -2.999  -1.388   0.140  1.00  0.00     0.030 A 
ATOM     23  C   UNL     1      -4.705  -0.170  -1.015  1.00  0.00     0.139 A 
ATOM     24  C   UNL     1      -3.865  -2.487   0.230  1.00  0.00     0.006 A 
ATOM     25  C   UNL     1      -5.580  -1.248  -0.919  1.00  0.00     0.051 A 
ATOM     26  C   UNL     1      -5.167  -2.418  -0.279  1.00  0.00    -0.047 A 
ATOM     27  C   UNL     1      -6.082  -3.604  -0.200  1.00  0.00     0.044 C 
BRANCH  23  28
ATOM     28  O   UNL     1      -5.127   0.931  -1.713  1.00  0.00    -0.506 OA
ATOM     29  H   UNL     1      -4.342   1.254  -2.189  1.00  0.00     0.293 HD
ENDBRANCH  23  28
ENDBRANCH  19  21
ENDBRANCH   4  19
TORSDOF 7
