_i0
     RDKit          3D

 58 61  0  0  0  0  0  0  0  0999 V2000
    1.2182    6.1336    0.8303 C   0  0  0  0  0  0  0  0  0  0  0  0
    2.3881    5.7953    1.7351 C   0  0  0  0  0  0  0  0  0  0  0  0
    2.2500    4.4602    2.2417 O   0  0  0  0  0  0  0  0  0  0  0  0
    2.7159    3.4656    1.4337 C   0  0  0  0  0  0  0  0  0  0  0  0
    3.2696    3.6360    0.3563 O   0  0  0  0  0  0  0  0  0  0  0  0
    2.4603    2.1226    2.0751 C   0  0  0  0  0  0  0  0  0  0  0  0
    3.5129    1.8240    3.1508 C   0  0  0  0  0  0  0  0  0  0  0  0
    3.3537    0.4070    3.7143 C   0  0  0  0  0  0  0  0  0  0  0  0
    3.3037   -0.6441    2.5992 C   0  0  0  0  0  0  0  0  0  0  0  0
    2.2779   -0.2892    1.6165 N   0  0  0  0  0  0  0  0  0  0  0  0
    0.9650   -0.6283    1.9516 C   0  0  0  0  0  0  0  0  0  0  0  0
   -0.0361    0.1388    1.4663 N   0  0  0  0  0  0  0  0  0  0  0  0
   -1.3413   -0.1048    1.7602 C   0  0  0  0  0  0  0  0  0  0  0  0
   -2.3736    0.7302    1.3072 N   0  0  0  0  0  0  0  0  0  0  0  0
   -2.3877    1.8024    0.3989 C   0  0  0  0  0  0  0  0  0  0  0  0
   -1.3357    2.0980   -0.4706 C   0  0  0  0  0  0  0  0  0  0  0  0
   -1.3896    3.2013   -1.3313 C   0  0  0  0  0  0  0  0  0  0  0  0
   -2.5057    4.0426   -1.3411 C   0  0  0  0  0  0  0  0  0  0  0  0
   -2.5642    5.2317   -2.2642 C   0  0  0  0  0  0  0  0  0  0  0  0
   -1.9232    6.4643   -1.6463 C   0  0  0  0  0  0  0  0  0  0  0  0
   -3.5568    3.7695   -0.4622 C   0  0  0  0  0  0  0  0  0  0  0  0
   -3.4949    2.6651    0.3951 C   0  0  0  0  0  0  0  0  0  0  0  0
   -1.6020   -1.2062    2.5807 C   0  0  0  0  0  0  0  0  0  0  0  0
   -2.7141   -1.8583    3.1531 C   0  0  0  0  0  0  0  0  0  0  0  0
   -2.3728   -2.9185    3.8940 N   0  0  0  0  0  0  0  0  0  0  0  0
   -1.0235   -2.9476    3.7847 N   0  0  0  0  0  0  0  0  0  0  0  0
   -0.2790   -3.9831    4.4558 C   0  0  0  0  0  0  0  0  0  0  0  0
   -0.5161   -1.9362    3.0159 C   0  0  0  0  0  0  0  0  0  0  0  0
    0.7715   -1.6945    2.7418 N   0  0  0  0  0  0  0  0  0  0  0  0
    2.4721    1.0302    1.0006 C   0  0  0  0  0  0  0  0  0  0  0  0
    1.1966    5.4769   -0.0451 H   0  0  0  0  0  0  0  0  0  0  0  0
    0.2692    5.9910    1.3577 H   0  0  0  0  0  0  0  0  0  0  0  0
    1.2794    7.1702    0.4872 H   0  0  0  0  0  0  0  0  0  0  0  0
    2.3912    6.4669    2.5997 H   0  0  0  0  0  0  0  0  0  0  0  0
    3.3467    5.9281    1.2205 H   0  0  0  0  0  0  0  0  0  0  0  0
    1.4648    2.1588    2.5363 H   0  0  0  0  0  0  0  0  0  0  0  0
    3.4396    2.5534    3.9662 H   0  0  0  0  0  0  0  0  0  0  0  0
    4.5199    1.9346    2.7275 H   0  0  0  0  0  0  0  0  0  0  0  0
    4.1852    0.1856    4.3928 H   0  0  0  0  0  0  0  0  0  0  0  0
    2.4338    0.3602    4.3101 H   0  0  0  0  0  0  0  0  0  0  0  0
    4.2762   -0.6688    2.0904 H   0  0  0  0  0  0  0  0  0  0  0  0
    3.1681   -1.6484    3.0172 H   0  0  0  0  0  0  0  0  0  0  0  0
   -3.2822    0.5010    1.6834 H   0  0  0  0  0  0  0  0  0  0  0  0
   -0.4615    1.4574   -0.5172 H   0  0  0  0  0  0  0  0  0  0  0  0
   -0.5505    3.3907   -1.9973 H   0  0  0  0  0  0  0  0  0  0  0  0
   -3.6083    5.4485   -2.5210 H   0  0  0  0  0  0  0  0  0  0  0  0
   -2.0647    4.9880   -3.2098 H   0  0  0  0  0  0  0  0  0  0  0  0
   -2.4125    6.7390   -0.7057 H   0  0  0  0  0  0  0  0  0  0  0  0
   -0.8621    6.2956   -1.4371 H   0  0  0  0  0  0  0  0  0  0  0  0
   -2.0009    7.3148   -2.3310 H   0  0  0  0  0  0  0  0  0  0  0  0
   -4.4320    4.4144   -0.4353 H   0  0  0  0  0  0  0  0  0  0  0  0
   -4.3278    2.4906    1.0714 H   0  0  0  0  0  0  0  0  0  0  0  0
   -3.7627   -1.6079    3.0623 H   0  0  0  0  0  0  0  0  0  0  0  0
   -0.4618   -3.8963    5.5298 H   0  0  0  0  0  0  0  0  0  0  0  0
    0.7881   -3.8708    4.2513 H   0  0  0  0  0  0  0  0  0  0  0  0
   -0.6265   -4.9511    4.0860 H   0  0  0  0  0  0  0  0  0  0  0  0
    3.4446    1.0217    0.4886 H   0  0  0  0  0  0  0  0  0  0  0  0
    1.7443    1.2312    0.2062 H   0  0  0  0  0  0  0  0  0  0  0  0
  1  2  1  0
  2  3  1  0
  3  4  1  0
  4  5  2  0
  4  6  1  0
  6  7  1  0
  7  8  1  0
  8  9  1  0
  9 10  1  0
 10 11  1  0
 11 12  2  0
 12 13  1  0
 13 14  1  0
 14 15  1  0
 15 16  2  0
 16 17  1  0
 17 18  2  0
 18 19  1  0
 19 20  1  0
 18 21  1  0
 21 22  2  0
 13 23  2  0
 23 24  1  0
 24 25  2  0
 25 26  1  0
 26 27  1  0
 26 28  1  0
 28 29  2  0
 10 30  1  0
 30  6  1  0
 29 11  1  0
 22 15  1  0
 28 23  1  0
  1 31  1  0
  1 32  1  0
  1 33  1  0
  2 34  1  0
  2 35  1  0
  6 36  1  0
  7 37  1  0
  7 38  1  0
  8 39  1  0
  8 40  1  0
  9 41  1  0
  9 42  1  0
 14 43  1  0
 16 44  1  0
 17 45  1  0
 19 46  1  0
 19 47  1  0
 20 48  1  0
 20 49  1  0
 20 50  1  0
 21 51  1  0
 22 52  1  0
 24 53  1  0
 27 54  1  0
 27 55  1  0
 27 56  1  0
 30 57  1  0
 30 58  1  0
M  END
>  <ScrubInfo>  (1) 
{"isomerGroup": 0, "isomerId": 0, "confId": 0, "nr_conformers:": 1, "nr_isomers:": 4}

$$$$
_i1
     RDKit          3D

 58 61  0  0  0  0  0  0  0  0999 V2000
   -0.8849    1.7015   -1.1013 N   0  0  0  0  0  0  0  0  0  0  0  0
   -1.7164    2.1767   -0.1121 C   0  0  0  0  0  0  0  0  0  0  0  0
   -2.8989    1.4620    0.0178 N   0  0  0  0  0  0  0  0  0  0  0  0
   -4.0030    2.1375    0.7287 C   0  0  0  0  0  0  0  0  0  0  0  0
   -5.3331    1.4669    0.3930 C   0  0  0  0  0  0  0  0  0  0  0  0
   -5.2966   -0.0246    0.7103 C   0  0  0  0  0  0  0  0  0  0  0  0
   -4.1084   -0.6903    0.0090 C   0  0  0  0  0  0  0  0  0  0  0  0
   -3.9798   -2.1446    0.4018 C   0  0  0  0  0  0  0  0  0  0  0  0
   -4.4644   -2.6483    1.4047 O   0  0  0  0  0  0  0  0  0  0  0  0
   -3.2284   -2.8091   -0.5211 O   0  0  0  0  0  0  0  0  0  0  0  0
   -3.0436   -4.2027   -0.2397 C   0  0  0  0  0  0  0  0  0  0  0  0
   -2.1925   -4.7987   -1.3437 C   0  0  0  0  0  0  0  0  0  0  0  0
   -2.8055    0.0246    0.3562 C   0  0  0  0  0  0  0  0  0  0  0  0
   -1.4291    3.2238    0.6222 N   0  0  0  0  0  0  0  0  0  0  0  0
   -0.2132    3.7513    0.3056 C   0  0  0  0  0  0  0  0  0  0  0  0
    0.6816    3.3382   -0.6694 C   0  0  0  0  0  0  0  0  0  0  0  0
    1.7628    4.2290   -0.5491 C   0  0  0  0  0  0  0  0  0  0  0  0
    1.5817    5.1371    0.4189 N   0  0  0  0  0  0  0  0  0  0  0  0
    0.3658    4.8248    0.9217 N   0  0  0  0  0  0  0  0  0  0  0  0
   -0.1716    5.6077    2.0056 C   0  0  0  0  0  0  0  0  0  0  0  0
    0.3299    2.2050   -1.5013 C   0  0  0  0  0  0  0  0  0  0  0  0
    0.9866    1.6855   -2.4937 N   0  0  0  0  0  0  0  0  0  0  0  0
    2.2151    2.1971   -2.9147 C   0  0  0  0  0  0  0  0  0  0  0  0
    2.2682    3.1899   -3.8952 C   0  0  0  0  0  0  0  0  0  0  0  0
    3.4982    3.6848   -4.3358 C   0  0  0  0  0  0  0  0  0  0  0  0
    4.6944    3.1818   -3.8082 C   0  0  0  0  0  0  0  0  0  0  0  0
    6.0229    3.7035   -4.2932 C   0  0  0  0  0  0  0  0  0  0  0  0
    6.5361    2.9186   -5.4907 C   0  0  0  0  0  0  0  0  0  0  0  0
    4.6386    2.1624   -2.8490 C   0  0  0  0  0  0  0  0  0  0  0  0
    3.4063    1.6707   -2.4113 C   0  0  0  0  0  0  0  0  0  0  0  0
   -1.2623    0.9980   -1.7141 H   0  0  0  0  0  0  0  0  0  0  0  0
   -3.8235    2.1139    1.8108 H   0  0  0  0  0  0  0  0  0  0  0  0
   -4.0649    3.1888    0.4219 H   0  0  0  0  0  0  0  0  0  0  0  0
   -6.1425    1.9462    0.9549 H   0  0  0  0  0  0  0  0  0  0  0  0
   -5.5541    1.6044   -0.6729 H   0  0  0  0  0  0  0  0  0  0  0  0
   -6.2348   -0.4967    0.3953 H   0  0  0  0  0  0  0  0  0  0  0  0
   -5.2267   -0.1614    1.7972 H   0  0  0  0  0  0  0  0  0  0  0  0
   -4.2887   -0.6445   -1.0735 H   0  0  0  0  0  0  0  0  0  0  0  0
   -2.5356   -4.3206    0.7240 H   0  0  0  0  0  0  0  0  0  0  0  0
   -4.0168   -4.7053   -0.2092 H   0  0  0  0  0  0  0  0  0  0  0  0
   -2.0225   -5.8654   -1.1728 H   0  0  0  0  0  0  0  0  0  0  0  0
   -1.2241   -4.2907   -1.4006 H   0  0  0  0  0  0  0  0  0  0  0  0
   -2.6775   -4.6692   -2.3169 H   0  0  0  0  0  0  0  0  0  0  0  0
   -1.9796   -0.4484   -0.1883 H   0  0  0  0  0  0  0  0  0  0  0  0
   -2.5711   -0.0833    1.4239 H   0  0  0  0  0  0  0  0  0  0  0  0
    2.6834    4.2714   -1.1146 H   0  0  0  0  0  0  0  0  0  0  0  0
    0.4789    5.4814    2.8747 H   0  0  0  0  0  0  0  0  0  0  0  0
   -1.1829    5.2736    2.2471 H   0  0  0  0  0  0  0  0  0  0  0  0
   -0.1950    6.6556    1.6955 H   0  0  0  0  0  0  0  0  0  0  0  0
    1.3462    3.5811   -4.3163 H   0  0  0  0  0  0  0  0  0  0  0  0
    3.5158    4.4622   -5.0962 H   0  0  0  0  0  0  0  0  0  0  0  0
    5.9282    4.7637   -4.5576 H   0  0  0  0  0  0  0  0  0  0  0  0
    6.7561    3.6587   -3.4786 H   0  0  0  0  0  0  0  0  0  0  0  0
    7.5000    3.3188   -5.8204 H   0  0  0  0  0  0  0  0  0  0  0  0
    6.6747    1.8608   -5.2427 H   0  0  0  0  0  0  0  0  0  0  0  0
    5.8383    2.9773   -6.3329 H   0  0  0  0  0  0  0  0  0  0  0  0
    5.5540    1.7413   -2.4396 H   0  0  0  0  0  0  0  0  0  0  0  0
    3.3735    0.8744   -1.6730 H   0  0  0  0  0  0  0  0  0  0  0  0
  1  2  1  0
  2  3  1  0
  3  4  1  0
  4  5  1  0
  5  6  1  0
  6  7  1  0
  7  8  1  0
  8  9  2  0
  8 10  1  0
 10 11  1  0
 11 12  1  0
  7 13  1  0
  2 14  2  0
 14 15  1  0
 15 16  2  0
 16 17  1  0
 17 18  2  0
 18 19  1  0
 19 20  1  0
 16 21  1  0
 21 22  2  3
 22 23  1  0
 23 24  2  0
 24 25  1  0
 25 26  2  0
 26 27  1  0
 27 28  1  0
 26 29  1  0
 29 30  2  0
 21  1  1  0
 30 23  1  0
 13  3  1  0
 19 15  1  0
  1 31  1  0
  4 32  1  0
  4 33  1  0
  5 34  1  0
  5 35  1  0
  6 36  1  0
  6 37  1  0
  7 38  1  0
 11 39  1  0
 11 40  1  0
 12 41  1  0
 12 42  1  0
 12 43  1  0
 13 44  1  0
 13 45  1  0
 17 46  1  0
 20 47  1  0
 20 48  1  0
 20 49  1  0
 24 50  1  0
 25 51  1  0
 27 52  1  0
 27 53  1  0
 28 54  1  0
 28 55  1  0
 28 56  1  0
 29 57  1  0
 30 58  1  0
M  END
>  <ScrubInfo>  (2) 
{"isomerGroup": 0, "isomerId": 1, "confId": 0, "nr_conformers:": 1, "nr_isomers:": 4}

$$$$
_i2
     RDKit          3D

 58 61  0  0  0  0  0  0  0  0999 V2000
    2.0079   -5.1022   -1.6003 N   0  0  0  0  0  0  0  0  0  0  0  0
    2.2842   -3.7486   -1.7634 C   0  0  0  0  0  0  0  0  0  0  0  0
    1.3043   -2.9454   -1.3215 C   0  0  0  0  0  0  0  0  0  0  0  0
    0.9913   -1.5270   -1.2354 C   0  0  0  0  0  0  0  0  0  0  0  0
    1.6945   -0.4890   -1.5464 N   0  0  0  0  0  0  0  0  0  0  0  0
    2.9881   -0.6319   -2.0515 C   0  0  0  0  0  0  0  0  0  0  0  0
    4.0841   -0.6688   -1.1870 C   0  0  0  0  0  0  0  0  0  0  0  0
    5.3804   -0.7990   -1.6916 C   0  0  0  0  0  0  0  0  0  0  0  0
    5.5977   -0.8825   -3.0731 C   0  0  0  0  0  0  0  0  0  0  0  0
    6.9972   -0.9980   -3.6213 C   0  0  0  0  0  0  0  0  0  0  0  0
    7.6207    0.3661   -3.8743 C   0  0  0  0  0  0  0  0  0  0  0  0
    4.4989   -0.8124   -3.9394 C   0  0  0  0  0  0  0  0  0  0  0  0
    3.2046   -0.6820   -3.4298 C   0  0  0  0  0  0  0  0  0  0  0  0
   -0.2588   -1.2660   -0.7456 N   0  0  0  0  0  0  0  0  0  0  0  0
   -1.0916   -2.1751   -0.3269 C   0  0  0  0  0  0  0  0  0  0  0  0
   -2.3425   -1.7839    0.1394 N   0  0  0  0  0  0  0  0  0  0  0  0
   -3.1772   -2.7311    0.8860 C   0  0  0  0  0  0  0  0  0  0  0  0
   -4.6574   -2.3918    0.7175 C   0  0  0  0  0  0  0  0  0  0  0  0
   -4.9493   -0.9424    1.0872 C   0  0  0  0  0  0  0  0  0  0  0  0
   -4.0415   -0.0037    0.2954 C   0  0  0  0  0  0  0  0  0  0  0  0
   -4.2662    1.4223    0.7381 C   0  0  0  0  0  0  0  0  0  0  0  0
   -3.7311    1.9443    1.7063 O   0  0  0  0  0  0  0  0  0  0  0  0
   -5.1788    2.0254   -0.0746 O   0  0  0  0  0  0  0  0  0  0  0  0
   -5.4948    3.3892    0.2418 C   0  0  0  0  0  0  0  0  0  0  0  0
   -4.4973    4.3241   -0.4159 C   0  0  0  0  0  0  0  0  0  0  0  0
   -2.5699   -0.3682    0.4836 C   0  0  0  0  0  0  0  0  0  0  0  0
   -0.8106   -3.5211   -0.3216 N   0  0  0  0  0  0  0  0  0  0  0  0
    0.3268   -3.9055   -0.7827 C   0  0  0  0  0  0  0  0  0  0  0  0
    0.8297   -5.2051   -0.8745 N   0  0  0  0  0  0  0  0  0  0  0  0
   -0.0546   -6.3272   -1.1244 C   0  0  0  0  0  0  0  0  0  0  0  0
    2.8047   -5.6351   -1.2443 H   0  0  0  0  0  0  0  0  0  0  0  0
    3.2273   -3.4692   -2.2098 H   0  0  0  0  0  0  0  0  0  0  0  0
    3.9242   -0.5877   -0.1152 H   0  0  0  0  0  0  0  0  0  0  0  0
    6.2191   -0.8217   -0.9995 H   0  0  0  0  0  0  0  0  0  0  0  0
    6.9813   -1.5770   -4.5528 H   0  0  0  0  0  0  0  0  0  0  0  0
    7.6212   -1.5669   -2.9215 H   0  0  0  0  0  0  0  0  0  0  0  0
    7.0358    0.9422   -4.5993 H   0  0  0  0  0  0  0  0  0  0  0  0
    8.6343    0.2511   -4.2712 H   0  0  0  0  0  0  0  0  0  0  0  0
    7.6823    0.9523   -2.9511 H   0  0  0  0  0  0  0  0  0  0  0  0
    4.6434   -0.8471   -5.0168 H   0  0  0  0  0  0  0  0  0  0  0  0
    2.3581   -0.6133   -4.1079 H   0  0  0  0  0  0  0  0  0  0  0  0
   -2.8985   -2.7059    1.9464 H   0  0  0  0  0  0  0  0  0  0  0  0
   -3.0386   -3.7600    0.5360 H   0  0  0  0  0  0  0  0  0  0  0  0
   -4.9531   -2.5634   -0.3254 H   0  0  0  0  0  0  0  0  0  0  0  0
   -5.2636   -3.0619    1.3373 H   0  0  0  0  0  0  0  0  0  0  0  0
   -6.0024   -0.7122    0.8860 H   0  0  0  0  0  0  0  0  0  0  0  0
   -4.7990   -0.7990    2.1651 H   0  0  0  0  0  0  0  0  0  0  0  0
   -4.2777   -0.0820   -0.7746 H   0  0  0  0  0  0  0  0  0  0  0  0
   -6.4975    3.5846   -0.1524 H   0  0  0  0  0  0  0  0  0  0  0  0
   -5.5392    3.5466    1.3256 H   0  0  0  0  0  0  0  0  0  0  0  0
   -3.4853    4.1487   -0.0374 H   0  0  0  0  0  0  0  0  0  0  0  0
   -4.7635    5.3684   -0.2298 H   0  0  0  0  0  0  0  0  0  0  0  0
   -4.4667    4.1544   -1.4972 H   0  0  0  0  0  0  0  0  0  0  0  0
   -2.2426   -0.1986    1.5175 H   0  0  0  0  0  0  0  0  0  0  0  0
   -1.9750    0.3021   -0.1488 H   0  0  0  0  0  0  0  0  0  0  0  0
   -0.5188   -6.2449   -2.1127 H   0  0  0  0  0  0  0  0  0  0  0  0
    0.5028   -7.2685   -1.0791 H   0  0  0  0  0  0  0  0  0  0  0  0
   -0.8451   -6.3708   -0.3683 H   0  0  0  0  0  0  0  0  0  0  0  0
  1  2  1  0
  2  3  2  0
  3  4  1  0
  4  5  2  3
  5  6  1  0
  6  7  2  0
  7  8  1  0
  8  9  2  0
  9 10  1  0
 10 11  1  0
  9 12  1  0
 12 13  2  0
  4 14  1  0
 14 15  2  0
 15 16  1  0
 16 17  1  0
 17 18  1  0
 18 19  1  0
 19 20  1  0
 20 21  1  0
 21 22  2  0
 21 23  1  0
 23 24  1  0
 24 25  1  0
 20 26  1  0
 15 27  1  0
 27 28  2  0
 28 29  1  0
 29 30  1  0
 29  1  1  0
 28  3  1  0
 13  6  1  0
 26 16  1  0
  1 31  1  0
  2 32  1  0
  7 33  1  0
  8 34  1  0
 10 35  1  0
 10 36  1  0
 11 37  1  0
 11 38  1  0
 11 39  1  0
 12 40  1  0
 13 41  1  0
 17 42  1  0
 17 43  1  0
 18 44  1  0
 18 45  1  0
 19 46  1  0
 19 47  1  0
 20 48  1  0
 24 49  1  0
 24 50  1  0
 25 51  1  0
 25 52  1  0
 25 53  1  0
 26 54  1  0
 26 55  1  0
 30 56  1  0
 30 57  1  0
 30 58  1  0
M  END
>  <ScrubInfo>  (3) 
{"isomerGroup": 0, "isomerId": 2, "confId": 0, "nr_conformers:": 1, "nr_isomers:": 4}

$$$$
_i3
     RDKit          3D

 58 61  0  0  0  0  0  0  0  0999 V2000
    1.3703   -1.4668   -2.1267 N   0  0  0  0  0  0  0  0  0  0  0  0
    2.0733   -0.4737   -1.4797 C   0  0  0  0  0  0  0  0  0  0  0  0
    2.6469   -0.8915   -0.2892 N   0  0  0  0  0  0  0  0  0  0  0  0
    3.5232   -2.0735   -0.2642 C   0  0  0  0  0  0  0  0  0  0  0  0
    4.9489   -1.6732   -0.6446 C   0  0  0  0  0  0  0  0  0  0  0  0
    5.4799   -0.5693    0.2711 C   0  0  0  0  0  0  0  0  0  0  0  0
    4.5131    0.6188    0.3285 C   0  0  0  0  0  0  0  0  0  0  0  0
    4.9725    1.6163    1.3658 C   0  0  0  0  0  0  0  0  0  0  0  0
    4.5032    1.7260    2.4906 O   0  0  0  0  0  0  0  0  0  0  0  0
    6.0090    2.3549    0.8782 O   0  0  0  0  0  0  0  0  0  0  0  0
    6.5121    3.3406    1.7877 C   0  0  0  0  0  0  0  0  0  0  0  0
    7.6409    4.0848    1.1017 C   0  0  0  0  0  0  0  0  0  0  0  0
    3.0960    0.1467    0.6669 C   0  0  0  0  0  0  0  0  0  0  0  0
    2.1794    0.7524   -1.9136 N   0  0  0  0  0  0  0  0  0  0  0  0
    1.5900    1.1348   -3.1108 C   0  0  0  0  0  0  0  0  0  0  0  0
    1.8133    2.3546   -3.4848 N   0  0  0  0  0  0  0  0  0  0  0  0
    1.2936    2.8811   -4.6663 C   0  0  0  0  0  0  0  0  0  0  0  0
    2.0094    2.7800   -5.8611 C   0  0  0  0  0  0  0  0  0  0  0  0
    1.4997    3.3283   -7.0407 C   0  0  0  0  0  0  0  0  0  0  0  0
    0.2697    3.9989   -7.0366 C   0  0  0  0  0  0  0  0  0  0  0  0
   -0.2736    4.6073   -8.3042 C   0  0  0  0  0  0  0  0  0  0  0  0
    0.2025    6.0393   -8.4942 C   0  0  0  0  0  0  0  0  0  0  0  0
   -0.4291    4.1298   -5.8295 C   0  0  0  0  0  0  0  0  0  0  0  0
    0.0846    3.5797   -4.6525 C   0  0  0  0  0  0  0  0  0  0  0  0
    0.7973    0.1278   -3.7940 C   0  0  0  0  0  0  0  0  0  0  0  0
   -0.0129    0.0370   -4.9405 C   0  0  0  0  0  0  0  0  0  0  0  0
   -0.5533   -1.1823   -5.1023 N   0  0  0  0  0  0  0  0  0  0  0  0
   -0.0841   -1.8830   -4.0457 N   0  0  0  0  0  0  0  0  0  0  0  0
   -0.4672   -3.2633   -3.8950 C   0  0  0  0  0  0  0  0  0  0  0  0
    0.7257   -1.1317   -3.2564 C   0  0  0  0  0  0  0  0  0  0  0  0
    1.1473   -2.2857   -1.5780 H   0  0  0  0  0  0  0  0  0  0  0  0
    3.1687   -2.8588   -0.9402 H   0  0  0  0  0  0  0  0  0  0  0  0
    3.5125   -2.5066    0.7437 H   0  0  0  0  0  0  0  0  0  0  0  0
    4.9694   -1.3214   -1.6835 H   0  0  0  0  0  0  0  0  0  0  0  0
    5.6069   -2.5474   -0.5870 H   0  0  0  0  0  0  0  0  0  0  0  0
    6.4648   -0.2409   -0.0818 H   0  0  0  0  0  0  0  0  0  0  0  0
    5.6332   -0.9759    1.2794 H   0  0  0  0  0  0  0  0  0  0  0  0
    4.4975    1.1275   -0.6433 H   0  0  0  0  0  0  0  0  0  0  0  0
    5.7130    4.0420    2.0523 H   0  0  0  0  0  0  0  0  0  0  0  0
    6.8883    2.8501    2.6924 H   0  0  0  0  0  0  0  0  0  0  0  0
    8.4386    3.3930    0.8118 H   0  0  0  0  0  0  0  0  0  0  0  0
    7.2850    4.5632    0.1832 H   0  0  0  0  0  0  0  0  0  0  0  0
    8.0596    4.8513    1.7598 H   0  0  0  0  0  0  0  0  0  0  0  0
    2.3929    0.9895    0.6820 H   0  0  0  0  0  0  0  0  0  0  0  0
    3.0620   -0.2825    1.6773 H   0  0  0  0  0  0  0  0  0  0  0  0
    2.9705    2.2732   -5.8701 H   0  0  0  0  0  0  0  0  0  0  0  0
    2.0729    3.2349   -7.9601 H   0  0  0  0  0  0  0  0  0  0  0  0
   -1.3699    4.5804   -8.2855 H   0  0  0  0  0  0  0  0  0  0  0  0
    0.0298    3.9985   -9.1647 H   0  0  0  0  0  0  0  0  0  0  0  0
   -0.1192    6.6783   -7.6648 H   0  0  0  0  0  0  0  0  0  0  0  0
    1.2950    6.0904   -8.5531 H   0  0  0  0  0  0  0  0  0  0  0  0
   -0.2069    6.4544   -9.4206 H   0  0  0  0  0  0  0  0  0  0  0  0
   -1.3739    4.6673   -5.7954 H   0  0  0  0  0  0  0  0  0  0  0  0
   -0.4569    3.6966   -3.7177 H   0  0  0  0  0  0  0  0  0  0  0  0
   -0.2513    0.7955   -5.6737 H   0  0  0  0  0  0  0  0  0  0  0  0
   -0.2821   -3.7814   -4.8396 H   0  0  0  0  0  0  0  0  0  0  0  0
    0.1215   -3.7288   -3.1017 H   0  0  0  0  0  0  0  0  0  0  0  0
   -1.5298   -3.2977   -3.6421 H   0  0  0  0  0  0  0  0  0  0  0  0
  1  2  1  0
  2  3  1  0
  3  4  1  0
  4  5  1  0
  5  6  1  0
  6  7  1  0
  7  8  1  0
  8  9  2  0
  8 10  1  0
 10 11  1  0
 11 12  1  0
  7 13  1  0
  2 14  2  0
 14 15  1  0
 15 16  2  3
 16 17  1  0
 17 18  2  0
 18 19  1  0
 19 20  2  0
 20 21  1  0
 21 22  1  0
 20 23  1  0
 23 24  2  0
 15 25  1  0
 25 26  1  0
 26 27  2  0
 27 28  1  0
 28 29  1  0
 28 30  1  0
 30  1  1  0
 13  3  1  0
 24 17  1  0
 30 25  2  0
  1 31  1  0
  4 32  1  0
  4 33  1  0
  5 34  1  0
  5 35  1  0
  6 36  1  0
  6 37  1  0
  7 38  1  0
 11 39  1  0
 11 40  1  0
 12 41  1  0
 12 42  1  0
 12 43  1  0
 13 44  1  0
 13 45  1  0
 18 46  1  0
 19 47  1  0
 21 48  1  0
 21 49  1  0
 22 50  1  0
 22 51  1  0
 22 52  1  0
 23 53  1  0
 24 54  1  0
 26 55  1  0
 29 56  1  0
 29 57  1  0
 29 58  1  0
M  END
>  <ScrubInfo>  (4) 
{"isomerGroup": 0, "isomerId": 3, "confId": 0, "nr_conformers:": 1, "nr_isomers:": 4}

$$$$
