REMARK SMILES CCOC(=O)[C@@H]1CCCN(c2nc(Nc3ccc(CC)cc3)c3cnn(C)c3n2)C1
REMARK SMILES IDX 11 1 12 2 13 3 23 4 24 5 25 6 26 7 27 8 28 9 29 10 10 11
REMARK SMILES IDX 6 12 7 13 30 14 8 15 9 16 4 17 5 18 3 19 2 20 1 21 14 22
REMARK SMILES IDX 15 24 16 25 22 26 17 27 21 28 18 29 19 30 20 31
REMARK H PARENT 14 23
ROOT
ATOM      1  C   UNL     1       0.965  -0.628   1.952  1.00  0.00     0.229 A 
ATOM      2  N   UNL     1      -0.036   0.139   1.466  1.00  0.00    -0.195 NA
ATOM      3  C   UNL     1      -1.341  -0.105   1.760  1.00  0.00     0.147 A 
ATOM      4  C   UNL     1      -1.602  -1.206   2.581  1.00  0.00     0.082 A 
ATOM      5  C   UNL     1      -2.714  -1.858   3.153  1.00  0.00     0.149 A 
ATOM      6  N   UNL     1      -2.373  -2.918   3.894  1.00  0.00    -0.179 NA
ATOM      7  N   UNL     1      -1.024  -2.948   3.785  1.00  0.00    -0.250 N 
ATOM      8  C   UNL     1      -0.279  -3.983   4.456  1.00  0.00     0.176 C 
ATOM      9  C   UNL     1      -0.516  -1.936   3.016  1.00  0.00     0.165 A 
ATOM     10  N   UNL     1       0.771  -1.694   2.742  1.00  0.00    -0.193 NA
ENDROOT
BRANCH   1  11
ATOM     11  N   UNL     1       2.278  -0.289   1.617  1.00  0.00    -0.340 N 
ATOM     12  C   UNL     1       2.460   2.123   2.075  1.00  0.00     0.119 C 
ATOM     13  C   UNL     1       3.513   1.824   3.151  1.00  0.00     0.019 C 
ATOM     14  C   UNL     1       2.472   1.030   1.001  1.00  0.00     0.135 C 
ATOM     15  C   UNL     1       3.354   0.407   3.714  1.00  0.00     0.022 C 
ATOM     16  C   UNL     1       3.304  -0.644   2.599  1.00  0.00     0.120 C 
BRANCH  12  17
ATOM     17  C   UNL     1       2.716   3.466   1.434  1.00  0.00     0.310 C 
ATOM     18  O   UNL     1       3.270   3.636   0.356  1.00  0.00    -0.252 OA
BRANCH  17  19
ATOM     19  O   UNL     1       2.250   4.460   2.242  1.00  0.00    -0.466 OA
BRANCH  19  20
ATOM     20  C   UNL     1       2.388   5.795   1.735  1.00  0.00     0.229 C 
ATOM     21  C   UNL     1       1.218   6.134   0.830  1.00  0.00     0.049 C 
ENDBRANCH  19  20
ENDBRANCH  17  19
ENDBRANCH  12  17
ENDBRANCH   1  11
BRANCH   3  22
ATOM     22  N   UNL     1      -2.374   0.730   1.307  1.00  0.00    -0.339 N 
ATOM     23  H   UNL     1      -3.282   0.501   1.683  1.00  0.00     0.168 HD
BRANCH  22  24
ATOM     24  C   UNL     1      -2.388   1.802   0.399  1.00  0.00     0.040 A 
ATOM     25  C   UNL     1      -1.336   2.098  -0.471  1.00  0.00     0.026 A 
ATOM     26  C   UNL     1      -3.495   2.665   0.395  1.00  0.00     0.026 A 
ATOM     27  C   UNL     1      -1.390   3.201  -1.331  1.00  0.00     0.006 A 
ATOM     28  C   UNL     1      -3.557   3.769  -0.462  1.00  0.00     0.006 A 
ATOM     29  C   UNL     1      -2.506   4.043  -1.341  1.00  0.00    -0.048 A 
BRANCH  29  30
ATOM     30  C   UNL     1      -2.564   5.232  -2.264  1.00  0.00     0.032 C 
ATOM     31  C   UNL     1      -1.923   6.464  -1.646  1.00  0.00     0.009 C 
ENDBRANCH  29  30
ENDBRANCH  22  24
ENDBRANCH   3  22
TORSDOF 7
