_i0
     RDKit          3D

 50 53  0  0  0  0  0  0  0  0999 V2000
    5.7079   -0.7279   -0.9962 C   0  0  0  0  0  0  0  0  0  0  0  0
    4.3370   -0.3107   -0.5106 N   0  0  0  0  0  4  0  0  0  0  0  0
    4.2269    1.2147   -0.4578 C   0  0  0  0  0  0  0  0  0  0  0  0
    3.1971   -0.8866   -1.3413 C   0  0  0  0  0  0  0  0  0  0  0  0
    5.9820   -2.2199   -0.7757 C   0  0  0  0  0  0  0  0  0  0  0  0
    7.3475   -2.4799   -1.0596 O   0  0  0  0  0  0  0  0  0  0  0  0
    2.8422    1.6308    0.0606 C   0  0  0  0  0  0  0  0  0  0  0  0
    1.7692    1.0741   -0.7917 N   0  0  0  0  0  0  0  0  0  0  0  0
    0.5096    1.4923   -0.2720 N   0  0  0  0  0  0  0  0  0  0  0  0
    1.8363   -0.3962   -0.8098 C   0  0  0  0  0  0  0  0  0  0  0  0
   -0.0196    2.7306   -0.7191 C   0  0  0  0  0  0  0  0  0  0  0  0
   -1.3483    2.8044   -0.7513 N   0  0  0  0  0  0  0  0  0  0  0  0
    0.7904    3.7252   -1.0838 N   0  0  0  0  0  0  0  0  0  0  0  0
   -1.9041    3.9553   -1.1801 C   0  0  0  0  0  0  0  0  0  0  0  0
    0.2385    4.8551   -1.5037 C   0  0  0  0  0  0  0  0  0  0  0  0
   -3.3171    4.1076   -1.2060 N   0  0  0  0  0  0  0  0  0  0  0  0
   -1.1457    5.0517   -1.5847 C   0  0  0  0  0  0  0  0  0  0  0  0
    1.0696    5.8381   -1.8689 N   0  0  0  0  0  0  0  0  0  0  0  0
   -4.3648    3.2520   -0.8309 C   0  0  0  0  0  0  0  0  0  0  0  0
   -1.7006    6.2171   -2.0400 N   0  0  0  0  0  0  0  0  0  0  0  0
    0.5254    6.9977   -2.3072 C   0  0  0  0  0  0  0  0  0  0  0  0
   -4.2082    2.1735    0.0458 C   0  0  0  0  0  0  0  0  0  0  0  0
   -5.6532    3.5072   -1.3283 C   0  0  0  0  0  0  0  0  0  0  0  0
   -0.8355    7.1864   -2.3931 C   0  0  0  0  0  0  0  0  0  0  0  0
   -5.2929    1.3620    0.3973 C   0  0  0  0  0  0  0  0  0  0  0  0
   -6.7399    2.6986   -0.9821 C   0  0  0  0  0  0  0  0  0  0  0  0
   -6.5581    1.6225   -0.1201 C   0  0  0  0  0  0  0  0  0  0  0  0
    6.4431   -0.1368   -0.4374 H   0  0  0  0  0  0  0  0  0  0  0  0
    5.7946   -0.4566   -2.0547 H   0  0  0  0  0  0  0  0  0  0  0  0
    4.2261   -0.6403    0.4569 H   0  0  0  0  0  0  0  0  0  0  0  0
    4.4122    1.5922   -1.4700 H   0  0  0  0  0  0  0  0  0  0  0  0
    5.0107    1.5693    0.2194 H   0  0  0  0  0  0  0  0  0  0  0  0
    3.3588   -0.5773   -2.3801 H   0  0  0  0  0  0  0  0  0  0  0  0
    3.2549   -1.9761   -1.2663 H   0  0  0  0  0  0  0  0  0  0  0  0
    5.7841   -2.5024    0.2631 H   0  0  0  0  0  0  0  0  0  0  0  0
    5.3688   -2.8374   -1.4380 H   0  0  0  0  0  0  0  0  0  0  0  0
    7.5161   -3.4319   -0.9255 H   0  0  0  0  0  0  0  0  0  0  0  0
    2.8112    2.7253    0.0713 H   0  0  0  0  0  0  0  0  0  0  0  0
    2.7231    1.2951    1.0999 H   0  0  0  0  0  0  0  0  0  0  0  0
   -0.2921    0.8635   -0.3749 H   0  0  0  0  0  0  0  0  0  0  0  0
    1.6660   -0.8079    0.1941 H   0  0  0  0  0  0  0  0  0  0  0  0
    1.0508   -0.7935   -1.4639 H   0  0  0  0  0  0  0  0  0  0  0  0
   -3.5823    4.8549   -1.8449 H   0  0  0  0  0  0  0  0  0  0  0  0
    1.2266    7.7755   -2.5902 H   0  0  0  0  0  0  0  0  0  0  0  0
   -3.2440    1.9572    0.4929 H   0  0  0  0  0  0  0  0  0  0  0  0
   -5.8269    4.3450   -1.9995 H   0  0  0  0  0  0  0  0  0  0  0  0
   -1.2657    8.1170   -2.7462 H   0  0  0  0  0  0  0  0  0  0  0  0
   -5.1487    0.5328    1.0846 H   0  0  0  0  0  0  0  0  0  0  0  0
   -7.7270    2.9144   -1.3829 H   0  0  0  0  0  0  0  0  0  0  0  0
   -7.4019    0.9952    0.1554 H   0  0  0  0  0  0  0  0  0  0  0  0
  1  2  1  0
  2  3  1  0
  2  4  1  0
  5  1  1  0
  6  5  1  0
  3  7  1  0
  7  8  1  0
  8  9  1  0
  8 10  1  0
  9 11  1  0
 10  4  1  0
 11 12  2  0
 13 11  1  0
 12 14  1  0
 15 13  2  0
 14 16  1  0
 14 17  2  0
 18 15  1  0
 15 17  1  0
 16 19  1  0
 17 20  1  0
 21 18  2  0
 19 22  2  0
 23 19  1  0
 20 24  2  0
 24 21  1  0
 22 25  1  0
 26 23  2  0
 25 27  2  0
 27 26  1  0
  1 28  1  0
  1 29  1  0
  2 30  1  0
  3 31  1  0
  3 32  1  0
  4 33  1  0
  4 34  1  0
  5 35  1  0
  5 36  1  0
  6 37  1  0
  7 38  1  0
  7 39  1  0
  9 40  1  0
 10 41  1  0
 10 42  1  0
 16 43  1  0
 21 44  1  0
 22 45  1  0
 23 46  1  0
 24 47  1  0
 25 48  1  0
 26 49  1  0
 27 50  1  0
M  CHG  1   2   1
M  END
>  <ScrubInfo>  (1) 
{"isomerGroup": 0, "isomerId": 0, "confId": 0, "nr_conformers:": 1, "nr_isomers:": 9}

$$$$
_i1
     RDKit          3D

 50 53  0  0  0  0  0  0  0  0999 V2000
   -0.2672   -1.7844    3.1025 N   0  0  0  0  0  0  0  0  0  0  0  0
   -0.5325   -2.7142    4.0805 C   0  0  0  0  0  0  0  0  0  0  0  0
   -1.8289   -3.0523    4.4427 N   0  0  0  0  0  0  0  0  0  0  0  0
   -2.9732   -2.2346    4.5133 C   0  0  0  0  0  0  0  0  0  0  0  0
   -4.2267   -2.8593    4.5998 C   0  0  0  0  0  0  0  0  0  0  0  0
   -5.4070   -2.1121    4.6325 C   0  0  0  0  0  0  0  0  0  0  0  0
   -5.3515   -0.7231    4.5750 C   0  0  0  0  0  0  0  0  0  0  0  0
   -4.1176   -0.0849    4.4855 C   0  0  0  0  0  0  0  0  0  0  0  0
   -2.9382   -0.8364    4.4505 C   0  0  0  0  0  0  0  0  0  0  0  0
    0.5126   -3.3620    4.6524 C   0  0  0  0  0  0  0  0  0  0  0  0
    0.3540   -4.3373    5.6152 N   0  0  0  0  0  0  0  0  0  0  0  0
    1.4536   -4.8207    6.0893 C   0  0  0  0  0  0  0  0  0  0  0  0
    2.8011   -4.3642    5.6371 C   0  0  0  0  0  0  0  0  0  0  0  0
    2.9729   -3.4683    4.7247 N   0  0  0  0  0  0  0  0  0  0  0  0
    1.8607   -2.9081    4.1394 C   0  0  0  0  0  0  0  0  0  0  0  0
    2.0900   -2.0455    3.2068 N   0  0  0  0  0  0  0  0  0  0  0  0
    0.9738   -1.4931    2.6231 C   0  0  0  0  0  0  0  0  0  0  0  0
    1.0908   -0.6865    1.5957 N   0  0  0  0  0  0  0  0  0  0  0  0
    2.3566   -0.4403    1.1587 N   0  0  0  0  0  0  0  0  0  0  0  0
    2.4823   -0.2489   -0.2936 C   0  0  0  0  0  0  0  0  0  0  0  0
    3.9517   -0.2687   -0.7392 C   0  0  0  0  0  0  0  0  0  0  0  0
    4.7861    0.7642    0.0070 N   0  0  0  0  0  4  0  0  0  0  0  0
    4.5739    2.1975   -0.4315 C   0  0  0  0  0  0  0  0  0  0  0  0
    5.1284    2.4687   -1.8355 C   0  0  0  0  0  0  0  0  0  0  0  0
    5.0940    3.8667   -2.0774 O   0  0  0  0  0  0  0  0  0  0  0  0
    4.5909    0.5807    1.5124 C   0  0  0  0  0  0  0  0  0  0  0  0
    3.1051    0.6001    1.8912 C   0  0  0  0  0  0  0  0  0  0  0  0
   -1.0628   -1.4640    2.5679 H   0  0  0  0  0  0  0  0  0  0  0  0
   -1.8535   -3.8248    5.1114 H   0  0  0  0  0  0  0  0  0  0  0  0
   -4.2940   -3.9445    4.6307 H   0  0  0  0  0  0  0  0  0  0  0  0
   -6.3677   -2.6165    4.6996 H   0  0  0  0  0  0  0  0  0  0  0  0
   -6.2681   -0.1392    4.6033 H   0  0  0  0  0  0  0  0  0  0  0  0
   -4.0709    1.0007    4.4511 H   0  0  0  0  0  0  0  0  0  0  0  0
   -1.9943   -0.3014    4.4149 H   0  0  0  0  0  0  0  0  0  0  0  0
    1.4562   -5.6043    6.8627 H   0  0  0  0  0  0  0  0  0  0  0  0
    3.6530   -4.8477    6.1392 H   0  0  0  0  0  0  0  0  0  0  0  0
    1.9636   -1.0647   -0.8120 H   0  0  0  0  0  0  0  0  0  0  0  0
    1.9942    0.6834   -0.6020 H   0  0  0  0  0  0  0  0  0  0  0  0
    4.4099   -1.2414   -0.5238 H   0  0  0  0  0  0  0  0  0  0  0  0
    4.0525   -0.0778   -1.8108 H   0  0  0  0  0  0  0  0  0  0  0  0
    5.7726    0.5370   -0.1679 H   0  0  0  0  0  0  0  0  0  0  0  0
    3.5070    2.4349   -0.3741 H   0  0  0  0  0  0  0  0  0  0  0  0
    5.0954    2.8366    0.2905 H   0  0  0  0  0  0  0  0  0  0  0  0
    4.5277    1.9721   -2.6024 H   0  0  0  0  0  0  0  0  0  0  0  0
    6.1658    2.1294   -1.9169 H   0  0  0  0  0  0  0  0  0  0  0  0
    5.4356    4.0327   -2.9765 H   0  0  0  0  0  0  0  0  0  0  0  0
    5.0511   -0.3816    1.7664 H   0  0  0  0  0  0  0  0  0  0  0  0
    5.1508    1.3739    2.0182 H   0  0  0  0  0  0  0  0  0  0  0  0
    3.0343    0.4344    2.9723 H   0  0  0  0  0  0  0  0  0  0  0  0
    2.6669    1.5871    1.6988 H   0  0  0  0  0  0  0  0  0  0  0  0
  1  2  1  0
  2  3  1  0
  3  4  1  0
  4  5  2  0
  5  6  1  0
  6  7  2  0
  7  8  1  0
  8  9  2  0
  2 10  2  0
 10 11  1  0
 11 12  2  0
 12 13  1  0
 13 14  2  0
 14 15  1  0
 15 16  2  0
 16 17  1  0
 17 18  2  3
 18 19  1  0
 19 20  1  0
 20 21  1  0
 21 22  1  0
 22 23  1  0
 23 24  1  0
 24 25  1  0
 22 26  1  0
 26 27  1  0
 17  1  1  0
 27 19  1  0
  9  4  1  0
 15 10  1  0
  1 28  1  0
  3 29  1  0
  5 30  1  0
  6 31  1  0
  7 32  1  0
  8 33  1  0
  9 34  1  0
 12 35  1  0
 13 36  1  0
 20 37  1  0
 20 38  1  0
 21 39  1  0
 21 40  1  0
 22 41  1  0
 23 42  1  0
 23 43  1  0
 24 44  1  0
 24 45  1  0
 25 46  1  0
 26 47  1  0
 26 48  1  0
 27 49  1  0
 27 50  1  0
M  CHG  1  22   1
M  END
>  <ScrubInfo>  (2) 
{"isomerGroup": 0, "isomerId": 1, "confId": 0, "nr_conformers:": 1, "nr_isomers:": 9}

$$$$
_i2
     RDKit          3D

 50 53  0  0  0  0  0  0  0  0999 V2000
   -1.3476   -0.9991    2.8755 N   0  0  0  0  0  0  0  0  0  0  0  0
   -1.7010   -2.2945    2.6524 C   0  0  0  0  0  0  0  0  0  0  0  0
   -1.0379   -2.8875    1.6008 N   0  0  0  0  0  0  0  0  0  0  0  0
   -1.6915   -2.8975    0.3192 N   0  0  0  0  0  0  0  0  0  0  0  0
   -2.8829   -3.7606    0.2618 C   0  0  0  0  0  0  0  0  0  0  0  0
   -4.2379   -3.0768    0.5234 C   0  0  0  0  0  0  0  0  0  0  0  0
   -4.3549   -1.8073   -0.2916 N   0  0  0  0  0  4  0  0  0  0  0  0
   -5.7160   -1.1487   -0.1648 C   0  0  0  0  0  0  0  0  0  0  0  0
   -5.9928   -0.3594   -1.4497 C   0  0  0  0  0  0  0  0  0  0  0  0
   -5.4765   -1.1204   -2.5491 O   0  0  0  0  0  0  0  0  0  0  0  0
   -3.1993   -0.8709   -0.0174 C   0  0  0  0  0  0  0  0  0  0  0  0
   -1.8572   -1.5751   -0.2934 C   0  0  0  0  0  0  0  0  0  0  0  0
   -2.5905   -2.9208    3.3606 N   0  0  0  0  0  0  0  0  0  0  0  0
   -3.1845   -2.1781    4.4076 C   0  0  0  0  0  0  0  0  0  0  0  0
   -4.1581   -2.8491    5.0642 N   0  0  0  0  0  0  0  0  0  0  0  0
   -4.7568   -2.1722    6.0751 C   0  0  0  0  0  0  0  0  0  0  0  0
   -4.4335   -0.8619    6.3954 C   0  0  0  0  0  0  0  0  0  0  0  0
   -3.4958   -0.1621    5.7197 N   0  0  0  0  0  0  0  0  0  0  0  0
   -2.8667   -0.8480    4.7371 C   0  0  0  0  0  0  0  0  0  0  0  0
   -1.8246   -0.1939    3.8822 C   0  0  0  0  0  0  0  0  0  0  0  0
   -1.3217    1.0101    3.9507 N   0  0  0  0  0  0  0  0  0  0  0  0
   -1.6985    1.9109    4.9532 C   0  0  0  0  0  0  0  0  0  0  0  0
   -2.6808    2.8729    4.7028 C   0  0  0  0  0  0  0  0  0  0  0  0
   -3.0239    3.8059    5.6839 C   0  0  0  0  0  0  0  0  0  0  0  0
   -2.3731    3.7909    6.9168 C   0  0  0  0  0  0  0  0  0  0  0  0
   -1.3752    2.8498    7.1660 C   0  0  0  0  0  0  0  0  0  0  0  0
   -1.0339    1.9186    6.1829 C   0  0  0  0  0  0  0  0  0  0  0  0
   -0.5277   -0.6436    2.3985 H   0  0  0  0  0  0  0  0  0  0  0  0
   -0.8214   -3.8563    1.8660 H   0  0  0  0  0  0  0  0  0  0  0  0
   -2.7751   -4.6312    0.9205 H   0  0  0  0  0  0  0  0  0  0  0  0
   -2.9173   -4.1750   -0.7547 H   0  0  0  0  0  0  0  0  0  0  0  0
   -4.3843   -2.7999    1.5692 H   0  0  0  0  0  0  0  0  0  0  0  0
   -5.0532   -3.7381    0.2113 H   0  0  0  0  0  0  0  0  0  0  0  0
   -4.3113   -2.0653   -1.2966 H   0  0  0  0  0  0  0  0  0  0  0  0
   -6.4472   -1.9598   -0.0816 H   0  0  0  0  0  0  0  0  0  0  0  0
   -5.7429   -0.5353    0.7407 H   0  0  0  0  0  0  0  0  0  0  0  0
   -7.0668   -0.2007   -1.5841 H   0  0  0  0  0  0  0  0  0  0  0  0
   -5.4855    0.6096   -1.4360 H   0  0  0  0  0  0  0  0  0  0  0  0
   -5.7950   -0.6884   -3.3681 H   0  0  0  0  0  0  0  0  0  0  0  0
   -3.2915   -0.5406    1.0208 H   0  0  0  0  0  0  0  0  0  0  0  0
   -3.3092   -0.0063   -0.6790 H   0  0  0  0  0  0  0  0  0  0  0  0
   -1.7777   -1.7170   -1.3794 H   0  0  0  0  0  0  0  0  0  0  0  0
   -1.0257   -0.9101   -0.0302 H   0  0  0  0  0  0  0  0  0  0  0  0
   -5.5143   -2.7179    6.6287 H   0  0  0  0  0  0  0  0  0  0  0  0
   -4.9257   -0.3371    7.2080 H   0  0  0  0  0  0  0  0  0  0  0  0
   -3.1775    2.8982    3.7390 H   0  0  0  0  0  0  0  0  0  0  0  0
   -3.7913    4.5490    5.4848 H   0  0  0  0  0  0  0  0  0  0  0  0
   -2.6354    4.5192    7.6803 H   0  0  0  0  0  0  0  0  0  0  0  0
   -0.8574    2.8449    8.1215 H   0  0  0  0  0  0  0  0  0  0  0  0
   -0.2457    1.1971    6.3759 H   0  0  0  0  0  0  0  0  0  0  0  0
  1  2  1  0
  2  3  1  0
  3  4  1  0
  4  5  1  0
  5  6  1  0
  6  7  1  0
  7  8  1  0
  8  9  1  0
  9 10  1  0
  7 11  1  0
 11 12  1  0
  2 13  2  0
 13 14  1  0
 14 15  2  0
 15 16  1  0
 16 17  2  0
 17 18  1  0
 18 19  2  0
 19 20  1  0
 20 21  2  3
 21 22  1  0
 22 23  2  0
 23 24  1  0
 24 25  2  0
 25 26  1  0
 26 27  2  0
 20  1  1  0
 27 22  1  0
 12  4  1  0
 19 14  1  0
  1 28  1  0
  3 29  1  0
  5 30  1  0
  5 31  1  0
  6 32  1  0
  6 33  1  0
  7 34  1  0
  8 35  1  0
  8 36  1  0
  9 37  1  0
  9 38  1  0
 10 39  1  0
 11 40  1  0
 11 41  1  0
 12 42  1  0
 12 43  1  0
 16 44  1  0
 17 45  1  0
 23 46  1  0
 24 47  1  0
 25 48  1  0
 26 49  1  0
 27 50  1  0
M  CHG  1   7   1
M  END
>  <ScrubInfo>  (3) 
{"isomerGroup": 0, "isomerId": 2, "confId": 0, "nr_conformers:": 1, "nr_isomers:": 9}

$$$$
_i3
     RDKit          3D

 50 53  0  0  0  0  0  0  0  0999 V2000
    0.3942   -4.1453   -1.5930 N   0  0  0  0  0  0  0  0  0  0  0  0
    0.0451   -2.8835   -1.9670 C   0  0  0  0  0  0  0  0  0  0  0  0
    0.8825   -1.8872   -2.0511 N   0  0  0  0  0  0  0  0  0  0  0  0
    2.1907   -2.1518   -1.7418 N   0  0  0  0  0  0  0  0  0  0  0  0
    3.0896   -1.9524   -2.9064 C   0  0  0  0  0  0  0  0  0  0  0  0
    4.5602   -2.2618   -2.5936 C   0  0  0  0  0  0  0  0  0  0  0  0
    5.0344   -1.4324   -1.4241 N   0  0  0  0  0  4  0  0  0  0  0  0
    6.5076   -1.6093   -1.1148 C   0  0  0  0  0  0  0  0  0  0  0  0
    7.0269   -0.3147   -0.4783 C   0  0  0  0  0  0  0  0  0  0  0  0
    6.3925    0.7822   -1.1467 O   0  0  0  0  0  0  0  0  0  0  0  0
    4.1284   -1.6119   -0.2271 C   0  0  0  0  0  0  0  0  0  0  0  0
    2.6728   -1.3167   -0.6133 C   0  0  0  0  0  0  0  0  0  0  0  0
   -1.2476   -2.5581   -2.2916 N   0  0  0  0  0  0  0  0  0  0  0  0
   -2.1860   -3.4627   -2.2486 C   0  0  0  0  0  0  0  0  0  0  0  0
   -3.5169   -3.2399   -2.5556 N   0  0  0  0  0  0  0  0  0  0  0  0
   -4.1848   -2.0748   -2.9685 C   0  0  0  0  0  0  0  0  0  0  0  0
   -3.5669   -0.8348   -3.1566 C   0  0  0  0  0  0  0  0  0  0  0  0
   -4.2978    0.2858   -3.5703 C   0  0  0  0  0  0  0  0  0  0  0  0
   -5.6654    0.1846   -3.8038 C   0  0  0  0  0  0  0  0  0  0  0  0
   -6.3029   -1.0374   -3.6237 C   0  0  0  0  0  0  0  0  0  0  0  0
   -5.5682   -2.1531   -3.2105 C   0  0  0  0  0  0  0  0  0  0  0  0
   -1.8715   -4.8705   -1.8448 C   0  0  0  0  0  0  0  0  0  0  0  0
   -2.8857   -5.7782   -1.8148 N   0  0  0  0  0  0  0  0  0  0  0  0
   -2.4957   -7.0166   -1.4374 C   0  0  0  0  0  0  0  0  0  0  0  0
   -1.1774   -7.3177   -1.1133 C   0  0  0  0  0  0  0  0  0  0  0  0
   -0.1777   -6.3968   -1.1492 N   0  0  0  0  0  0  0  0  0  0  0  0
   -0.5477   -5.1514   -1.5247 C   0  0  0  0  0  0  0  0  0  0  0  0
    1.3454   -4.3526   -1.3587 H   0  0  0  0  0  0  0  0  0  0  0  0
    3.0027   -0.9209   -3.2734 H   0  0  0  0  0  0  0  0  0  0  0  0
    2.7669   -2.6114   -3.7216 H   0  0  0  0  0  0  0  0  0  0  0  0
    4.7033   -3.3149   -2.3265 H   0  0  0  0  0  0  0  0  0  0  0  0
    5.1921   -2.0109   -3.4518 H   0  0  0  0  0  0  0  0  0  0  0  0
    4.9722   -0.4323   -1.7017 H   0  0  0  0  0  0  0  0  0  0  0  0
    7.0105   -1.7604   -2.0760 H   0  0  0  0  0  0  0  0  0  0  0  0
    6.6457   -2.4929   -0.4848 H   0  0  0  0  0  0  0  0  0  0  0  0
    6.7687   -0.2647    0.5835 H   0  0  0  0  0  0  0  0  0  0  0  0
    8.1124   -0.2354   -0.5888 H   0  0  0  0  0  0  0  0  0  0  0  0
    6.8348    1.5997   -0.8387 H   0  0  0  0  0  0  0  0  0  0  0  0
    4.4632   -0.9203    0.5517 H   0  0  0  0  0  0  0  0  0  0  0  0
    4.2490   -2.6433    0.1229 H   0  0  0  0  0  0  0  0  0  0  0  0
    2.5678   -0.2523   -0.8628 H   0  0  0  0  0  0  0  0  0  0  0  0
    2.0409   -1.5052    0.2632 H   0  0  0  0  0  0  0  0  0  0  0  0
   -4.1139   -4.0599   -2.4684 H   0  0  0  0  0  0  0  0  0  0  0  0
   -2.5029   -0.7050   -2.9875 H   0  0  0  0  0  0  0  0  0  0  0  0
   -3.7913    1.2374   -3.7087 H   0  0  0  0  0  0  0  0  0  0  0  0
   -6.2311    1.0552   -4.1249 H   0  0  0  0  0  0  0  0  0  0  0  0
   -7.3711   -1.1258   -3.8038 H   0  0  0  0  0  0  0  0  0  0  0  0
   -6.0962   -3.0947   -3.0786 H   0  0  0  0  0  0  0  0  0  0  0  0
   -3.2730   -7.7733   -1.3995 H   0  0  0  0  0  0  0  0  0  0  0  0
   -0.8879   -8.3199   -0.8128 H   0  0  0  0  0  0  0  0  0  0  0  0
  1  2  1  0
  2  3  2  3
  3  4  1  0
  4  5  1  0
  5  6  1  0
  6  7  1  0
  7  8  1  0
  8  9  1  0
  9 10  1  0
  7 11  1  0
 11 12  1  0
  2 13  1  0
 13 14  2  0
 14 15  1  0
 15 16  1  0
 16 17  2  0
 17 18  1  0
 18 19  2  0
 19 20  1  0
 20 21  2  0
 14 22  1  0
 22 23  2  0
 23 24  1  0
 24 25  2  0
 25 26  1  0
 26 27  2  0
 27  1  1  0
 12  4  1  0
 21 16  1  0
 27 22  1  0
  1 28  1  0
  5 29  1  0
  5 30  1  0
  6 31  1  0
  6 32  1  0
  7 33  1  0
  8 34  1  0
  8 35  1  0
  9 36  1  0
  9 37  1  0
 10 38  1  0
 11 39  1  0
 11 40  1  0
 12 41  1  0
 12 42  1  0
 15 43  1  0
 17 44  1  0
 18 45  1  0
 19 46  1  0
 20 47  1  0
 21 48  1  0
 24 49  1  0
 25 50  1  0
M  CHG  1   7   1
M  END
>  <ScrubInfo>  (4) 
{"isomerGroup": 0, "isomerId": 3, "confId": 0, "nr_conformers:": 1, "nr_isomers:": 9}

$$$$
_i4
     RDKit          3D

 50 53  0  0  0  0  0  0  0  0999 V2000
    1.7254   -3.9538    1.9490 N   0  0  0  0  0  0  0  0  0  0  0  0
    2.8119   -3.7633    1.1639 C   0  0  0  0  0  0  0  0  0  0  0  0
    3.1801   -2.4560    0.9410 N   0  0  0  0  0  0  0  0  0  0  0  0
    2.1524   -1.4833    0.8393 N   0  0  0  0  0  0  0  0  0  0  0  0
    2.6703   -0.1557    1.2114 C   0  0  0  0  0  0  0  0  0  0  0  0
    3.5939    0.5119    0.1740 C   0  0  0  0  0  0  0  0  0  0  0  0
    3.0520    0.4557   -1.2489 N   0  0  0  0  0  4  0  0  0  0  0  0
    2.2987    1.6858   -1.7349 C   0  0  0  0  0  0  0  0  0  0  0  0
    1.0873    2.0971   -0.8950 C   0  0  0  0  0  0  0  0  0  0  0  0
    1.5150    2.6115    0.3602 O   0  0  0  0  0  0  0  0  0  0  0  0
    2.4458   -0.8863   -1.6140 C   0  0  0  0  0  0  0  0  0  0  0  0
    1.5547   -1.4705   -0.5078 C   0  0  0  0  0  0  0  0  0  0  0  0
    3.5137   -4.6992    0.6052 N   0  0  0  0  0  0  0  0  0  0  0  0
    3.1423   -6.0208    0.8172 C   0  0  0  0  0  0  0  0  0  0  0  0
    3.7833   -6.9830    0.2227 N   0  0  0  0  0  0  0  0  0  0  0  0
    4.8560   -6.6818   -0.6270 C   0  0  0  0  0  0  0  0  0  0  0  0
    6.1357   -6.4526   -0.1133 C   0  0  0  0  0  0  0  0  0  0  0  0
    7.2068   -6.1886   -0.9699 C   0  0  0  0  0  0  0  0  0  0  0  0
    7.0052   -6.1656   -2.3496 C   0  0  0  0  0  0  0  0  0  0  0  0
    5.7359   -6.4119   -2.8720 C   0  0  0  0  0  0  0  0  0  0  0  0
    4.6672   -6.6740   -2.0116 C   0  0  0  0  0  0  0  0  0  0  0  0
    1.9930   -6.3313    1.7226 C   0  0  0  0  0  0  0  0  0  0  0  0
    1.6490   -7.6230    1.9708 N   0  0  0  0  0  0  0  0  0  0  0  0
    0.5949   -7.7772    2.8000 C   0  0  0  0  0  0  0  0  0  0  0  0
   -0.0843   -6.6970    3.3452 C   0  0  0  0  0  0  0  0  0  0  0  0
    0.2561   -5.4079    3.0879 N   0  0  0  0  0  0  0  0  0  0  0  0
    1.3167   -5.2384    2.2644 C   0  0  0  0  0  0  0  0  0  0  0  0
    1.2422   -3.1813    2.3771 H   0  0  0  0  0  0  0  0  0  0  0  0
    3.9793   -2.4347    0.3073 H   0  0  0  0  0  0  0  0  0  0  0  0
    3.1992   -0.2186    2.1713 H   0  0  0  0  0  0  0  0  0  0  0  0
    1.8042    0.4813    1.4097 H   0  0  0  0  0  0  0  0  0  0  0  0
    4.5489   -0.0262    0.1385 H   0  0  0  0  0  0  0  0  0  0  0  0
    3.8159    1.5552    0.4178 H   0  0  0  0  0  0  0  0  0  0  0  0
    3.9045    0.4972   -1.8223 H   0  0  0  0  0  0  0  0  0  0  0  0
    2.0032    1.4826   -2.7694 H   0  0  0  0  0  0  0  0  0  0  0  0
    3.0398    2.4936   -1.7423 H   0  0  0  0  0  0  0  0  0  0  0  0
    0.3956    1.2696   -0.7297 H   0  0  0  0  0  0  0  0  0  0  0  0
    0.5486    2.8962   -1.4149 H   0  0  0  0  0  0  0  0  0  0  0  0
    0.7427    3.0375    0.7829 H   0  0  0  0  0  0  0  0  0  0  0  0
    3.2944   -1.5533   -1.8060 H   0  0  0  0  0  0  0  0  0  0  0  0
    1.8935   -0.7659   -2.5514 H   0  0  0  0  0  0  0  0  0  0  0  0
    0.6223   -0.8978   -0.4561 H   0  0  0  0  0  0  0  0  0  0  0  0
    1.2461   -2.4834   -0.7958 H   0  0  0  0  0  0  0  0  0  0  0  0
    6.2954   -6.4934    0.9603 H   0  0  0  0  0  0  0  0  0  0  0  0
    8.1994   -6.0223   -0.5599 H   0  0  0  0  0  0  0  0  0  0  0  0
    7.8425   -5.9804   -3.0178 H   0  0  0  0  0  0  0  0  0  0  0  0
    5.5816   -6.4236   -3.9474 H   0  0  0  0  0  0  0  0  0  0  0  0
    3.6835   -6.8932   -2.4161 H   0  0  0  0  0  0  0  0  0  0  0  0
    0.3059   -8.7999    3.0183 H   0  0  0  0  0  0  0  0  0  0  0  0
   -0.9296   -6.8417    4.0102 H   0  0  0  0  0  0  0  0  0  0  0  0
  1  2  1  0
  2  3  1  0
  3  4  1  0
  4  5  1  0
  5  6  1  0
  6  7  1  0
  7  8  1  0
  8  9  1  0
  9 10  1  0
  7 11  1  0
 11 12  1  0
  2 13  2  0
 13 14  1  0
 14 15  2  3
 15 16  1  0
 16 17  2  0
 17 18  1  0
 18 19  2  0
 19 20  1  0
 20 21  2  0
 14 22  1  0
 22 23  2  0
 23 24  1  0
 24 25  2  0
 25 26  1  0
 26 27  2  0
 27  1  1  0
 12  4  1  0
 21 16  1  0
 27 22  1  0
  1 28  1  0
  3 29  1  0
  5 30  1  0
  5 31  1  0
  6 32  1  0
  6 33  1  0
  7 34  1  0
  8 35  1  0
  8 36  1  0
  9 37  1  0
  9 38  1  0
 10 39  1  0
 11 40  1  0
 11 41  1  0
 12 42  1  0
 12 43  1  0
 17 44  1  0
 18 45  1  0
 19 46  1  0
 20 47  1  0
 21 48  1  0
 24 49  1  0
 25 50  1  0
M  CHG  1   7   1
M  END
>  <ScrubInfo>  (5) 
{"isomerGroup": 0, "isomerId": 4, "confId": 0, "nr_conformers:": 1, "nr_isomers:": 9}

$$$$
_i5
     RDKit          3D

 50 53  0  0  0  0  0  0  0  0999 V2000
   -2.9290   -1.6915   -1.6059 N   0  0  0  0  0  0  0  0  0  0  0  0
   -4.1387   -2.3277   -1.6744 C   0  0  0  0  0  0  0  0  0  0  0  0
   -4.5306   -3.1669   -0.7026 C   0  0  0  0  0  0  0  0  0  0  0  0
   -3.7798   -3.4411    0.4224 N   0  0  0  0  0  0  0  0  0  0  0  0
   -2.6195   -2.8489    0.5287 C   0  0  0  0  0  0  0  0  0  0  0  0
   -1.7338   -3.0652    1.7309 C   0  0  0  0  0  0  0  0  0  0  0  0
   -2.1327   -3.8091    2.8190 N   0  0  0  0  0  0  0  0  0  0  0  0
   -3.3034   -3.5988    3.5860 C   0  0  0  0  0  0  0  0  0  0  0  0
   -4.1530   -2.4976    3.4298 C   0  0  0  0  0  0  0  0  0  0  0  0
   -5.2970   -2.3571    4.2225 C   0  0  0  0  0  0  0  0  0  0  0  0
   -5.6091   -3.3183    5.1800 C   0  0  0  0  0  0  0  0  0  0  0  0
   -4.7793   -4.4228    5.3450 C   0  0  0  0  0  0  0  0  0  0  0  0
   -3.6371   -4.5611    4.5526 C   0  0  0  0  0  0  0  0  0  0  0  0
   -0.5290   -2.5790    1.6962 N   0  0  0  0  0  0  0  0  0  0  0  0
   -0.1288   -1.8261    0.6263 C   0  0  0  0  0  0  0  0  0  0  0  0
    1.1107   -1.4244    0.7188 N   0  0  0  0  0  0  0  0  0  0  0  0
    1.6037   -0.6597   -0.3040 N   0  0  0  0  0  0  0  0  0  0  0  0
    2.4589   -1.3984   -1.2538 C   0  0  0  0  0  0  0  0  0  0  0  0
    3.8140   -1.7955   -0.6444 C   0  0  0  0  0  0  0  0  0  0  0  0
    4.5555   -0.5614   -0.1386 N   0  0  0  0  0  4  0  0  0  0  0  0
    5.8789   -0.8844    0.5176 C   0  0  0  0  0  0  0  0  0  0  0  0
    6.9162   -1.4142   -0.4789 C   0  0  0  0  0  0  0  0  0  0  0  0
    8.1821   -1.4629    0.1603 O   0  0  0  0  0  0  0  0  0  0  0  0
    3.6586    0.2249    0.8214 C   0  0  0  0  0  0  0  0  0  0  0  0
    2.3146    0.5498    0.1529 C   0  0  0  0  0  0  0  0  0  0  0  0
   -0.8786   -1.4767   -0.4685 N   0  0  0  0  0  0  0  0  0  0  0  0
   -2.0785   -1.9420   -0.5587 C   0  0  0  0  0  0  0  0  0  0  0  0
   -2.6192   -1.1201   -2.3808 H   0  0  0  0  0  0  0  0  0  0  0  0
   -4.7435   -2.1192   -2.5507 H   0  0  0  0  0  0  0  0  0  0  0  0
   -5.4920   -3.6720   -0.7654 H   0  0  0  0  0  0  0  0  0  0  0  0
   -1.3589   -4.0111    3.4458 H   0  0  0  0  0  0  0  0  0  0  0  0
   -3.9447   -1.7212    2.7011 H   0  0  0  0  0  0  0  0  0  0  0  0
   -5.9471   -1.4960    4.0881 H   0  0  0  0  0  0  0  0  0  0  0  0
   -6.5012   -3.2097    5.7918 H   0  0  0  0  0  0  0  0  0  0  0  0
   -5.0240   -5.1812    6.0844 H   0  0  0  0  0  0  0  0  0  0  0  0
   -3.0125   -5.4413    4.6872 H   0  0  0  0  0  0  0  0  0  0  0  0
    2.6219   -0.7804   -2.1459 H   0  0  0  0  0  0  0  0  0  0  0  0
    1.9377   -2.2992   -1.5995 H   0  0  0  0  0  0  0  0  0  0  0  0
    4.4426   -2.2601   -1.4094 H   0  0  0  0  0  0  0  0  0  0  0  0
    3.6976   -2.4805    0.2028 H   0  0  0  0  0  0  0  0  0  0  0  0
    4.7343    0.0540   -0.9414 H   0  0  0  0  0  0  0  0  0  0  0  0
    5.6968   -1.6029    1.3251 H   0  0  0  0  0  0  0  0  0  0  0  0
    6.2491    0.0428    0.9708 H   0  0  0  0  0  0  0  0  0  0  0  0
    6.6607   -2.4228   -0.8164 H   0  0  0  0  0  0  0  0  0  0  0  0
    6.9935   -0.7541   -1.3485 H   0  0  0  0  0  0  0  0  0  0  0  0
    8.8341   -1.8201   -0.4720 H   0  0  0  0  0  0  0  0  0  0  0  0
    3.5327   -0.3825    1.7249 H   0  0  0  0  0  0  0  0  0  0  0  0
    4.1923    1.1479    1.0708 H   0  0  0  0  0  0  0  0  0  0  0  0
    2.4774    1.2174   -0.7026 H   0  0  0  0  0  0  0  0  0  0  0  0
    1.6816    1.1045    0.8560 H   0  0  0  0  0  0  0  0  0  0  0  0
  1  2  1  0
  2  3  2  0
  3  4  1  0
  4  5  2  0
  5  6  1  0
  6  7  1  0
  7  8  1  0
  8  9  2  0
  9 10  1  0
 10 11  2  0
 11 12  1  0
 12 13  2  0
  6 14  2  0
 14 15  1  0
 15 16  2  3
 16 17  1  0
 17 18  1  0
 18 19  1  0
 19 20  1  0
 20 21  1  0
 21 22  1  0
 22 23  1  0
 20 24  1  0
 24 25  1  0
 15 26  1  0
 26 27  2  0
 27  1  1  0
 27  5  1  0
 13  8  1  0
 25 17  1  0
  1 28  1  0
  2 29  1  0
  3 30  1  0
  7 31  1  0
  9 32  1  0
 10 33  1  0
 11 34  1  0
 12 35  1  0
 13 36  1  0
 18 37  1  0
 18 38  1  0
 19 39  1  0
 19 40  1  0
 20 41  1  0
 21 42  1  0
 21 43  1  0
 22 44  1  0
 22 45  1  0
 23 46  1  0
 24 47  1  0
 24 48  1  0
 25 49  1  0
 25 50  1  0
M  CHG  1  20   1
M  END
>  <ScrubInfo>  (6) 
{"isomerGroup": 0, "isomerId": 5, "confId": 0, "nr_conformers:": 1, "nr_isomers:": 9}

$$$$
_i6
     RDKit          3D

 50 53  0  0  0  0  0  0  0  0999 V2000
   -1.5802   -0.3548    6.0376 N   0  0  0  0  0  0  0  0  0  0  0  0
   -2.8891   -0.6942    5.8214 C   0  0  0  0  0  0  0  0  0  0  0  0
   -3.2812   -1.2165    4.6482 C   0  0  0  0  0  0  0  0  0  0  0  0
   -2.4241   -1.4642    3.5951 N   0  0  0  0  0  0  0  0  0  0  0  0
   -1.1682   -1.1476    3.7602 C   0  0  0  0  0  0  0  0  0  0  0  0
   -0.0926   -1.3745    2.7397 C   0  0  0  0  0  0  0  0  0  0  0  0
   -0.1397   -2.1096    1.6692 N   0  0  0  0  0  0  0  0  0  0  0  0
   -1.2901   -2.8281    1.3316 C   0  0  0  0  0  0  0  0  0  0  0  0
   -2.2146   -2.2916    0.4314 C   0  0  0  0  0  0  0  0  0  0  0  0
   -3.3381   -3.0275    0.0494 C   0  0  0  0  0  0  0  0  0  0  0  0
   -3.5336   -4.3122    0.5541 C   0  0  0  0  0  0  0  0  0  0  0  0
   -2.6044   -4.8633    1.4352 C   0  0  0  0  0  0  0  0  0  0  0  0
   -1.4817   -4.1256    1.8161 C   0  0  0  0  0  0  0  0  0  0  0  0
    1.1258   -0.7842    2.9218 N   0  0  0  0  0  0  0  0  0  0  0  0
    1.4181   -0.1933    4.0357 C   0  0  0  0  0  0  0  0  0  0  0  0
    2.6598    0.3786    4.2246 N   0  0  0  0  0  0  0  0  0  0  0  0
    3.7911    0.1293    3.4168 N   0  0  0  0  0  0  0  0  0  0  0  0
    3.7462    0.7821    2.1061 C   0  0  0  0  0  0  0  0  0  0  0  0
    3.2798   -0.0700    0.9111 C   0  0  0  0  0  0  0  0  0  0  0  0
    3.9395   -1.4326    0.9088 N   0  0  0  0  0  4  0  0  0  0  0  0
    3.4733   -2.3015   -0.2482 C   0  0  0  0  0  0  0  0  0  0  0  0
    4.2016   -1.8539   -1.5196 C   0  0  0  0  0  0  0  0  0  0  0  0
    5.5566   -1.5455   -1.1677 O   0  0  0  0  0  0  0  0  0  0  0  0
    3.7898   -2.1428    2.2332 C   0  0  0  0  0  0  0  0  0  0  0  0
    4.2510   -1.2609    3.4085 C   0  0  0  0  0  0  0  0  0  0  0  0
    0.5648   -0.0805    5.1000 N   0  0  0  0  0  0  0  0  0  0  0  0
   -0.6617   -0.4876    5.0269 C   0  0  0  0  0  0  0  0  0  0  0  0
   -1.3280    0.1293    6.8901 H   0  0  0  0  0  0  0  0  0  0  0  0
   -3.5753   -0.5086    6.6415 H   0  0  0  0  0  0  0  0  0  0  0  0
   -4.3237   -1.4803    4.4839 H   0  0  0  0  0  0  0  0  0  0  0  0
   -2.0666   -1.2928    0.0322 H   0  0  0  0  0  0  0  0  0  0  0  0
   -4.0614   -2.5983   -0.6392 H   0  0  0  0  0  0  0  0  0  0  0  0
   -4.4102   -4.8843    0.2596 H   0  0  0  0  0  0  0  0  0  0  0  0
   -2.7553   -5.8667    1.8250 H   0  0  0  0  0  0  0  0  0  0  0  0
   -0.7586   -4.5655    2.4957 H   0  0  0  0  0  0  0  0  0  0  0  0
    2.8283    0.6867    5.1822 H   0  0  0  0  0  0  0  0  0  0  0  0
    3.1583    1.7080    2.1455 H   0  0  0  0  0  0  0  0  0  0  0  0
    4.7724    1.1066    1.8878 H   0  0  0  0  0  0  0  0  0  0  0  0
    3.5703    0.4276   -0.0202 H   0  0  0  0  0  0  0  0  0  0  0  0
    2.1994   -0.2175    0.8885 H   0  0  0  0  0  0  0  0  0  0  0  0
    4.9479   -1.2884    0.7225 H   0  0  0  0  0  0  0  0  0  0  0  0
    3.7786   -3.3258   -0.0078 H   0  0  0  0  0  0  0  0  0  0  0  0
    2.3833   -2.2533   -0.3288 H   0  0  0  0  0  0  0  0  0  0  0  0
    3.7442   -0.9550   -1.9430 H   0  0  0  0  0  0  0  0  0  0  0  0
    4.1908   -2.6486   -2.2715 H   0  0  0  0  0  0  0  0  0  0  0  0
    6.0422   -1.4093   -2.0064 H   0  0  0  0  0  0  0  0  0  0  0  0
    4.4201   -3.0381    2.1833 H   0  0  0  0  0  0  0  0  0  0  0  0
    2.7517   -2.4654    2.3263 H   0  0  0  0  0  0  0  0  0  0  0  0
    4.0155   -1.7613    4.3563 H   0  0  0  0  0  0  0  0  0  0  0  0
    5.3480   -1.2237    3.3716 H   0  0  0  0  0  0  0  0  0  0  0  0
  1  2  1  0
  2  3  2  0
  3  4  1  0
  4  5  2  0
  5  6  1  0
  6  7  2  3
  7  8  1  0
  8  9  2  0
  9 10  1  0
 10 11  2  0
 11 12  1  0
 12 13  2  0
  6 14  1  0
 14 15  2  0
 15 16  1  0
 16 17  1  0
 17 18  1  0
 18 19  1  0
 19 20  1  0
 20 21  1  0
 21 22  1  0
 22 23  1  0
 20 24  1  0
 24 25  1  0
 15 26  1  0
 26 27  2  0
 27  1  1  0
 27  5  1  0
 13  8  1  0
 25 17  1  0
  1 28  1  0
  2 29  1  0
  3 30  1  0
  9 31  1  0
 10 32  1  0
 11 33  1  0
 12 34  1  0
 13 35  1  0
 16 36  1  0
 18 37  1  0
 18 38  1  0
 19 39  1  0
 19 40  1  0
 20 41  1  0
 21 42  1  0
 21 43  1  0
 22 44  1  0
 22 45  1  0
 23 46  1  0
 24 47  1  0
 24 48  1  0
 25 49  1  0
 25 50  1  0
M  CHG  1  20   1
M  END
>  <ScrubInfo>  (7) 
{"isomerGroup": 0, "isomerId": 6, "confId": 0, "nr_conformers:": 1, "nr_isomers:": 9}

$$$$
_i7
     RDKit          3D

 50 53  0  0  0  0  0  0  0  0999 V2000
    1.6293   -1.6621    0.6682 N   0  0  0  0  0  0  0  0  0  0  0  0
    0.4208   -1.4242    0.0853 C   0  0  0  0  0  0  0  0  0  0  0  0
   -0.6069   -1.0319    0.7902 N   0  0  0  0  0  0  0  0  0  0  0  0
   -1.7557   -0.8350    0.0755 N   0  0  0  0  0  0  0  0  0  0  0  0
   -2.8418   -1.7712    0.4531 C   0  0  0  0  0  0  0  0  0  0  0  0
   -4.0984   -1.5988   -0.4131 C   0  0  0  0  0  0  0  0  0  0  0  0
   -4.6212   -0.1675   -0.3603 N   0  0  0  0  0  4  0  0  0  0  0  0
   -5.3420    0.1356    0.9397 C   0  0  0  0  0  0  0  0  0  0  0  0
   -6.1864    1.4135    0.8588 C   0  0  0  0  0  0  0  0  0  0  0  0
   -6.9899    1.5010    2.0247 O   0  0  0  0  0  0  0  0  0  0  0  0
   -3.4991    0.7960   -0.7134 C   0  0  0  0  0  0  0  0  0  0  0  0
   -2.2526    0.5592    0.1528 C   0  0  0  0  0  0  0  0  0  0  0  0
    0.4148   -1.6358   -1.2650 N   0  0  0  0  0  0  0  0  0  0  0  0
    1.4271   -2.0446   -2.0997 C   0  0  0  0  0  0  0  0  0  0  0  0
    1.1075   -2.1561   -3.3649 N   0  0  0  0  0  0  0  0  0  0  0  0
    2.0383   -2.5626   -4.3272 C   0  0  0  0  0  0  0  0  0  0  0  0
    2.1595   -3.9134   -4.6651 C   0  0  0  0  0  0  0  0  0  0  0  0
    3.0494   -4.3160   -5.6632 C   0  0  0  0  0  0  0  0  0  0  0  0
    3.8121   -3.3654   -6.3406 C   0  0  0  0  0  0  0  0  0  0  0  0
    3.6809   -2.0137   -6.0249 C   0  0  0  0  0  0  0  0  0  0  0  0
    2.7901   -1.6142   -5.0263 C   0  0  0  0  0  0  0  0  0  0  0  0
    2.7404   -2.2971   -1.4174 C   0  0  0  0  0  0  0  0  0  0  0  0
    3.8222   -2.7055   -2.1213 N   0  0  0  0  0  0  0  0  0  0  0  0
    4.9419   -2.8975   -1.3921 C   0  0  0  0  0  0  0  0  0  0  0  0
    4.9787   -2.6907   -0.0225 C   0  0  0  0  0  0  0  0  0  0  0  0
    3.8968   -2.2815    0.6860 N   0  0  0  0  0  0  0  0  0  0  0  0
    2.7630   -2.0832   -0.0272 C   0  0  0  0  0  0  0  0  0  0  0  0
    1.7519   -1.5390    1.6620 H   0  0  0  0  0  0  0  0  0  0  0  0
   -3.0925   -1.6512    1.5145 H   0  0  0  0  0  0  0  0  0  0  0  0
   -2.4820   -2.7996    0.3261 H   0  0  0  0  0  0  0  0  0  0  0  0
   -3.8785   -1.8061   -1.4670 H   0  0  0  0  0  0  0  0  0  0  0  0
   -4.9081   -2.2627   -0.0935 H   0  0  0  0  0  0  0  0  0  0  0  0
   -5.3240   -0.1019   -1.1082 H   0  0  0  0  0  0  0  0  0  0  0  0
   -5.9990   -0.7166    1.1494 H   0  0  0  0  0  0  0  0  0  0  0  0
   -4.6081    0.1951    1.7495 H   0  0  0  0  0  0  0  0  0  0  0  0
   -6.8452    1.3907   -0.0149 H   0  0  0  0  0  0  0  0  0  0  0  0
   -5.5546    2.3045    0.8084 H   0  0  0  0  0  0  0  0  0  0  0  0
   -7.5194    2.3196    1.9757 H   0  0  0  0  0  0  0  0  0  0  0  0
   -3.8784    1.8157   -0.6083 H   0  0  0  0  0  0  0  0  0  0  0  0
   -3.2728    0.6249   -1.7725 H   0  0  0  0  0  0  0  0  0  0  0  0
   -2.4568    0.8307    1.1959 H   0  0  0  0  0  0  0  0  0  0  0  0
   -1.4633    1.2343   -0.2003 H   0  0  0  0  0  0  0  0  0  0  0  0
   -0.4661   -1.4640   -1.7236 H   0  0  0  0  0  0  0  0  0  0  0  0
    1.5606   -4.6546   -4.1455 H   0  0  0  0  0  0  0  0  0  0  0  0
    3.1449   -5.3691   -5.9133 H   0  0  0  0  0  0  0  0  0  0  0  0
    4.5047   -3.6776   -7.1182 H   0  0  0  0  0  0  0  0  0  0  0  0
    4.2690   -1.2710   -6.5571 H   0  0  0  0  0  0  0  0  0  0  0  0
    2.6835   -0.5605   -4.7887 H   0  0  0  0  0  0  0  0  0  0  0  0
    5.8179   -3.2251   -1.9419 H   0  0  0  0  0  0  0  0  0  0  0  0
    5.8879   -2.8500    0.5480 H   0  0  0  0  0  0  0  0  0  0  0  0
  1  2  1  0
  2  3  2  3
  3  4  1  0
  4  5  1  0
  5  6  1  0
  6  7  1  0
  7  8  1  0
  8  9  1  0
  9 10  1  0
  7 11  1  0
 11 12  1  0
  2 13  1  0
 13 14  1  0
 14 15  2  3
 15 16  1  0
 16 17  2  0
 17 18  1  0
 18 19  2  0
 19 20  1  0
 20 21  2  0
 14 22  1  0
 22 23  2  0
 23 24  1  0
 24 25  2  0
 25 26  1  0
 26 27  2  0
 27  1  1  0
 12  4  1  0
 21 16  1  0
 27 22  1  0
  1 28  1  0
  5 29  1  0
  5 30  1  0
  6 31  1  0
  6 32  1  0
  7 33  1  0
  8 34  1  0
  8 35  1  0
  9 36  1  0
  9 37  1  0
 10 38  1  0
 11 39  1  0
 11 40  1  0
 12 41  1  0
 12 42  1  0
 13 43  1  0
 17 44  1  0
 18 45  1  0
 19 46  1  0
 20 47  1  0
 21 48  1  0
 24 49  1  0
 25 50  1  0
M  CHG  1   7   1
M  END
>  <ScrubInfo>  (8) 
{"isomerGroup": 0, "isomerId": 7, "confId": 0, "nr_conformers:": 1, "nr_isomers:": 9}

$$$$
_i8
     RDKit          3D

 50 53  0  0  0  0  0  0  0  0999 V2000
    0.9232   -0.9870    3.6815 N   0  0  0  0  0  0  0  0  0  0  0  0
    0.2314   -1.4732    4.7559 C   0  0  0  0  0  0  0  0  0  0  0  0
   -0.9004   -0.8862    5.1712 C   0  0  0  0  0  0  0  0  0  0  0  0
   -1.4519    0.2241    4.5729 N   0  0  0  0  0  0  0  0  0  0  0  0
   -0.8398    0.7373    3.5402 C   0  0  0  0  0  0  0  0  0  0  0  0
   -1.3609    1.9586    2.8063 C   0  0  0  0  0  0  0  0  0  0  0  0
   -2.4281    2.6619    3.0552 N   0  0  0  0  0  0  0  0  0  0  0  0
   -3.2872    2.3484    4.1125 C   0  0  0  0  0  0  0  0  0  0  0  0
   -3.1081    2.9401    5.3661 C   0  0  0  0  0  0  0  0  0  0  0  0
   -3.9958    2.6690    6.4096 C   0  0  0  0  0  0  0  0  0  0  0  0
   -5.0787    1.8165    6.1987 C   0  0  0  0  0  0  0  0  0  0  0  0
   -5.2783    1.2416    4.9443 C   0  0  0  0  0  0  0  0  0  0  0  0
   -4.3891    1.5145    3.9026 C   0  0  0  0  0  0  0  0  0  0  0  0
   -0.5589    2.3086    1.7635 N   0  0  0  0  0  0  0  0  0  0  0  0
    0.5872    1.7168    1.3389 C   0  0  0  0  0  0  0  0  0  0  0  0
    1.1919    2.2391    0.3003 N   0  0  0  0  0  0  0  0  0  0  0  0
    2.3423    1.7035   -0.1829 N   0  0  0  0  0  0  0  0  0  0  0  0
    3.5775    1.8672    0.5958 C   0  0  0  0  0  0  0  0  0  0  0  0
    4.8243    1.6918   -0.2833 C   0  0  0  0  0  0  0  0  0  0  0  0
    4.7846    0.3560   -0.9992 N   0  0  0  0  0  4  0  0  0  0  0  0
    6.0269    0.0641   -1.8157 C   0  0  0  0  0  0  0  0  0  0  0  0
    7.1287   -0.4216   -0.8669 C   0  0  0  0  0  0  0  0  0  0  0  0
    6.5182   -1.2596    0.1229 O   0  0  0  0  0  0  0  0  0  0  0  0
    3.5023    0.2018   -1.7897 C   0  0  0  0  0  0  0  0  0  0  0  0
    2.2806    0.4132   -0.8835 C   0  0  0  0  0  0  0  0  0  0  0  0
    1.1030    0.6069    1.9716 N   0  0  0  0  0  0  0  0  0  0  0  0
    0.4711    0.1174    3.0001 C   0  0  0  0  0  0  0  0  0  0  0  0
    1.7707   -1.4505    3.3883 H   0  0  0  0  0  0  0  0  0  0  0  0
    0.6483   -2.3487    5.2427 H   0  0  0  0  0  0  0  0  0  0  0  0
   -1.4445   -1.2798    6.0270 H   0  0  0  0  0  0  0  0  0  0  0  0
   -2.2749    3.6162    5.5301 H   0  0  0  0  0  0  0  0  0  0  0  0
   -3.8457    3.1276    7.3832 H   0  0  0  0  0  0  0  0  0  0  0  0
   -5.7720    1.6073    7.0094 H   0  0  0  0  0  0  0  0  0  0  0  0
   -6.1286    0.5867    4.7749 H   0  0  0  0  0  0  0  0  0  0  0  0
   -4.5564    1.0769    2.9234 H   0  0  0  0  0  0  0  0  0  0  0  0
   -0.8582    3.1175    1.2358 H   0  0  0  0  0  0  0  0  0  0  0  0
    3.6078    2.8720    1.0337 H   0  0  0  0  0  0  0  0  0  0  0  0
    3.6125    1.1516    1.4256 H   0  0  0  0  0  0  0  0  0  0  0  0
    5.7285    1.7130    0.3322 H   0  0  0  0  0  0  0  0  0  0  0  0
    4.8869    2.4710   -1.0515 H   0  0  0  0  0  0  0  0  0  0  0  0
    4.7988   -0.3802   -0.2682 H   0  0  0  0  0  0  0  0  0  0  0  0
    6.3049    0.9529   -2.3898 H   0  0  0  0  0  0  0  0  0  0  0  0
    5.7639   -0.7490   -2.5008 H   0  0  0  0  0  0  0  0  0  0  0  0
    7.8871   -0.9907   -1.4127 H   0  0  0  0  0  0  0  0  0  0  0  0
    7.6092    0.4176   -0.3556 H   0  0  0  0  0  0  0  0  0  0  0  0
    7.2463   -1.6836    0.6216 H   0  0  0  0  0  0  0  0  0  0  0  0
    3.4945   -0.8107   -2.2064 H   0  0  0  0  0  0  0  0  0  0  0  0
    3.5331    0.9340   -2.6045 H   0  0  0  0  0  0  0  0  0  0  0  0
    2.2112   -0.4146   -0.1681 H   0  0  0  0  0  0  0  0  0  0  0  0
    1.3812    0.3753   -1.5096 H   0  0  0  0  0  0  0  0  0  0  0  0
  1  2  1  0
  2  3  2  0
  3  4  1  0
  4  5  2  0
  5  6  1  0
  6  7  2  3
  7  8  1  0
  8  9  2  0
  9 10  1  0
 10 11  2  0
 11 12  1  0
 12 13  2  0
  6 14  1  0
 14 15  1  0
 15 16  2  3
 16 17  1  0
 17 18  1  0
 18 19  1  0
 19 20  1  0
 20 21  1  0
 21 22  1  0
 22 23  1  0
 20 24  1  0
 24 25  1  0
 15 26  1  0
 26 27  2  0
 27  1  1  0
 27  5  1  0
 13  8  1  0
 25 17  1  0
  1 28  1  0
  2 29  1  0
  3 30  1  0
  9 31  1  0
 10 32  1  0
 11 33  1  0
 12 34  1  0
 13 35  1  0
 14 36  1  0
 18 37  1  0
 18 38  1  0
 19 39  1  0
 19 40  1  0
 20 41  1  0
 21 42  1  0
 21 43  1  0
 22 44  1  0
 22 45  1  0
 23 46  1  0
 24 47  1  0
 24 48  1  0
 25 49  1  0
 25 50  1  0
M  CHG  1  20   1
M  END
>  <ScrubInfo>  (9) 
{"isomerGroup": 0, "isomerId": 8, "confId": 0, "nr_conformers:": 1, "nr_isomers:": 9}

$$$$
