REMARK SMILES OCC[NH+]1CCN(Nc2nc(Nc3ccccc3)c3nccnc3n2)CC1
REMARK SMILES IDX 4 1 5 2 27 3 6 4 7 5 26 6 3 8 2 9 1 10 8 12 9 14 10 15 25 16
REMARK SMILES IDX 11 17 24 18 19 19 23 20 20 21 22 22 21 23 12 24 13 26 14 27
REMARK SMILES IDX 18 28 15 29 17 30 16 31
REMARK H PARENT 4 7 1 11 8 13 12 25
ROOT
ATOM      1  N   UNL     1       4.337  -0.311  -0.511  1.00  0.00    -0.331 N 
ATOM      2  C   UNL     1       4.227   1.215  -0.458  1.00  0.00     0.280 C 
ATOM      3  C   UNL     1       3.197  -0.887  -1.341  1.00  0.00     0.280 C 
ATOM      4  C   UNL     1       2.842   1.631   0.061  1.00  0.00     0.169 C 
ATOM      5  N   UNL     1       1.769   1.074  -0.792  1.00  0.00    -0.210 NA
ATOM      6  C   UNL     1       1.836  -0.396  -0.810  1.00  0.00     0.169 C 
ATOM      7  H   UNL     1       4.226  -0.640   0.457  1.00  0.00     0.348 HD
ENDROOT
BRANCH   1   8
ATOM      8  C   UNL     1       5.708  -0.728  -0.996  1.00  0.00     0.290 C 
BRANCH   8   9
ATOM      9  C   UNL     1       5.982  -2.220  -0.776  1.00  0.00     0.217 C 
BRANCH   9  10
ATOM     10  O   UNL     1       7.348  -2.480  -1.060  1.00  0.00    -0.391 OA
ATOM     11  H   UNL     1       7.516  -3.432  -0.925  1.00  0.00     0.210 HD
ENDBRANCH   9  10
ENDBRANCH   8   9
ENDBRANCH   1   8
BRANCH   5  12
ATOM     12  N   UNL     1       0.510   1.492  -0.272  1.00  0.00    -0.286 N 
ATOM     13  H   UNL     1      -0.292   0.864  -0.375  1.00  0.00     0.185 HD
BRANCH  12  14
ATOM     14  C   UNL     1      -0.020   2.731  -0.719  1.00  0.00     0.241 A 
ATOM     15  N   UNL     1      -1.348   2.804  -0.751  1.00  0.00    -0.192 NA
ATOM     16  N   UNL     1       0.790   3.725  -1.084  1.00  0.00    -0.190 NA
ATOM     17  C   UNL     1      -1.904   3.955  -1.180  1.00  0.00     0.164 A 
ATOM     18  C   UNL     1       0.238   4.855  -1.504  1.00  0.00     0.185 A 
ATOM     19  C   UNL     1      -1.146   5.052  -1.585  1.00  0.00     0.150 A 
ATOM     20  N   UNL     1       1.070   5.838  -1.869  1.00  0.00    -0.233 NA
ATOM     21  N   UNL     1      -1.701   6.217  -2.040  1.00  0.00    -0.247 NA
ATOM     22  C   UNL     1       0.525   6.998  -2.307  1.00  0.00     0.133 A 
ATOM     23  C   UNL     1      -0.836   7.186  -2.393  1.00  0.00     0.132 A 
BRANCH  17  24
ATOM     24  N   UNL     1      -3.317   4.108  -1.206  1.00  0.00    -0.338 N 
ATOM     25  H   UNL     1      -3.582   4.855  -1.845  1.00  0.00     0.168 HD
BRANCH  24  26
ATOM     26  C   UNL     1      -4.365   3.252  -0.831  1.00  0.00     0.040 A 
ATOM     27  C   UNL     1      -4.208   2.174   0.046  1.00  0.00     0.026 A 
ATOM     28  C   UNL     1      -5.653   3.507  -1.328  1.00  0.00     0.026 A 
ATOM     29  C   UNL     1      -5.293   1.362   0.397  1.00  0.00     0.002 A 
ATOM     30  C   UNL     1      -6.740   2.699  -0.982  1.00  0.00     0.002 A 
ATOM     31  C   UNL     1      -6.558   1.623  -0.120  1.00  0.00     0.000 A 
ENDBRANCH  24  26
ENDBRANCH  17  24
ENDBRANCH  12  14
ENDBRANCH   5  12
TORSDOF 7
