REMARK SMILES CC(C)CCNc1nc(Nc2cccc(C#N)c2)c2cnn(C)c2n1
REMARK SMILES IDX 7 1 8 2 9 3 19 4 20 5 21 6 22 7 23 8 24 9 25 10 6 11 5 13
REMARK SMILES IDX 4 14 2 15 1 16 3 17 10 18 11 20 12 21 18 22 13 23 15 24
REMARK SMILES IDX 14 25 16 26 17 27
REMARK H PARENT 6 12 10 19
ROOT
ATOM      1  C   UNL     1       0.844   1.009  -0.201  1.00  0.00     0.226 A 
ATOM      2  N   UNL     1       0.019   0.261   0.559  1.00  0.00    -0.195 NA
ATOM      3  C   UNL     1      -1.325   0.371   0.418  1.00  0.00     0.147 A 
ATOM      4  C   UNL     1      -1.810   1.312  -0.492  1.00  0.00     0.082 A 
ATOM      5  C   UNL     1      -3.050   1.816  -0.935  1.00  0.00     0.149 A 
ATOM      6  N   UNL     1      -2.921   2.757  -1.878  1.00  0.00    -0.179 NA
ATOM      7  N   UNL     1      -1.579   2.866  -2.024  1.00  0.00    -0.250 N 
ATOM      8  C   UNL     1      -1.044   3.811  -2.972  1.00  0.00     0.176 C 
ATOM      9  C   UNL     1      -0.871   2.027  -1.207  1.00  0.00     0.165 A 
ATOM     10  N   UNL     1       0.462   1.915  -1.110  1.00  0.00    -0.193 NA
ENDROOT
BRANCH   1  11
ATOM     11  N   UNL     1       2.219   0.862  -0.069  1.00  0.00    -0.354 N 
ATOM     12  H   UNL     1       2.629   1.683  -0.502  1.00  0.00     0.163 HD
BRANCH  11  13
ATOM     13  C   UNL     1       2.678   0.573   1.278  1.00  0.00     0.116 C 
BRANCH  13  14
ATOM     14  C   UNL     1       4.210   0.513   1.322  1.00  0.00     0.024 C 
BRANCH  14  15
ATOM     15  C   UNL     1       4.817  -0.834   0.879  1.00  0.00    -0.016 C 
ATOM     16  C   UNL     1       4.529  -1.177  -0.583  1.00  0.00     0.007 C 
ATOM     17  C   UNL     1       6.331  -0.815   1.111  1.00  0.00     0.007 C 
ENDBRANCH  14  15
ENDBRANCH  13  14
ENDBRANCH  11  13
ENDBRANCH   1  11
BRANCH   3  18
ATOM     18  N   UNL     1      -2.118  -0.441   1.246  1.00  0.00    -0.339 N 
ATOM     19  H   UNL     1      -1.469  -1.015   1.783  1.00  0.00     0.168 HD
BRANCH  18  20
ATOM     20  C   UNL     1      -3.263  -1.182   0.886  1.00  0.00     0.041 A 
ATOM     21  C   UNL     1      -3.524  -1.596  -0.426  1.00  0.00     0.026 A 
ATOM     22  C   UNL     1      -4.136  -1.590   1.904  1.00  0.00     0.045 A 
ATOM     23  C   UNL     1      -4.654  -2.361  -0.724  1.00  0.00     0.004 A 
ATOM     24  C   UNL     1      -5.271  -2.357   1.611  1.00  0.00     0.054 A 
ATOM     25  C   UNL     1      -5.530  -2.739   0.293  1.00  0.00     0.019 A 
BRANCH  24  26
ATOM     26  C   UNL     1      -6.160  -2.752   2.664  1.00  0.00     0.099 C 
ATOM     27  N   UNL     1      -6.879  -3.074   3.516  1.00  0.00    -0.192 NA
ENDBRANCH  24  26
ENDBRANCH  18  20
ENDBRANCH   3  18
TORSDOF 7
