_i0
     RDKit          3D

 46 48  0  0  0  0  0  0  0  0999 V2000
    4.5292   -1.1768   -0.5826 C   0  0  0  0  0  0  0  0  0  0  0  0
    4.8174   -0.8344    0.8788 C   0  0  0  0  0  0  0  0  0  0  0  0
    6.3314   -0.8154    1.1115 C   0  0  0  0  0  0  0  0  0  0  0  0
    4.2100    0.5127    1.3222 C   0  0  0  0  0  0  0  0  0  0  0  0
    2.6784    0.5726    1.2778 C   0  0  0  0  0  0  0  0  0  0  0  0
    2.2194    0.8619   -0.0690 N   0  0  0  0  0  0  0  0  0  0  0  0
    0.8436    1.0090   -0.2005 C   0  0  0  0  0  0  0  0  0  0  0  0
    0.0189    0.2608    0.5586 N   0  0  0  0  0  0  0  0  0  0  0  0
   -1.3247    0.3711    0.4179 C   0  0  0  0  0  0  0  0  0  0  0  0
   -2.1177   -0.4408    1.2457 N   0  0  0  0  0  0  0  0  0  0  0  0
   -3.2629   -1.1816    0.8863 C   0  0  0  0  0  0  0  0  0  0  0  0
   -3.5241   -1.5956   -0.4257 C   0  0  0  0  0  0  0  0  0  0  0  0
   -4.6544   -2.3614   -0.7236 C   0  0  0  0  0  0  0  0  0  0  0  0
   -5.5301   -2.7389    0.2929 C   0  0  0  0  0  0  0  0  0  0  0  0
   -5.2705   -2.3572    1.6114 C   0  0  0  0  0  0  0  0  0  0  0  0
   -6.1600   -2.7520    2.6636 C   0  0  0  0  0  0  0  0  0  0  0  0
   -6.8787   -3.0735    3.5162 N   0  0  0  0  0  0  0  0  0  0  0  0
   -4.1362   -1.5899    1.9036 C   0  0  0  0  0  0  0  0  0  0  0  0
   -1.8102    1.3119   -0.4916 C   0  0  0  0  0  0  0  0  0  0  0  0
   -3.0497    1.8161   -0.9355 C   0  0  0  0  0  0  0  0  0  0  0  0
   -2.9206    2.7575   -1.8781 N   0  0  0  0  0  0  0  0  0  0  0  0
   -1.5793    2.8659   -2.0241 N   0  0  0  0  0  0  0  0  0  0  0  0
   -1.0439    3.8105   -2.9717 C   0  0  0  0  0  0  0  0  0  0  0  0
   -0.8711    2.0274   -1.2071 C   0  0  0  0  0  0  0  0  0  0  0  0
    0.4621    1.9155   -1.1096 N   0  0  0  0  0  0  0  0  0  0  0  0
    4.8349   -0.3640   -1.2498 H   0  0  0  0  0  0  0  0  0  0  0  0
    3.4653   -1.3749   -0.7420 H   0  0  0  0  0  0  0  0  0  0  0  0
    5.0693   -2.0811   -0.8840 H   0  0  0  0  0  0  0  0  0  0  0  0
    4.3950   -1.6308    1.5049 H   0  0  0  0  0  0  0  0  0  0  0  0
    6.8165   -0.0422    0.5059 H   0  0  0  0  0  0  0  0  0  0  0  0
    6.7781   -1.7807    0.8505 H   0  0  0  0  0  0  0  0  0  0  0  0
    6.5619   -0.6173    2.1636 H   0  0  0  0  0  0  0  0  0  0  0  0
    4.6400    1.3319    0.7315 H   0  0  0  0  0  0  0  0  0  0  0  0
    4.5127    0.6884    2.3631 H   0  0  0  0  0  0  0  0  0  0  0  0
    2.3477    1.3735    1.9517 H   0  0  0  0  0  0  0  0  0  0  0  0
    2.2651   -0.3727    1.6501 H   0  0  0  0  0  0  0  0  0  0  0  0
    2.6291    1.6830   -0.5016 H   0  0  0  0  0  0  0  0  0  0  0  0
   -1.4688   -1.0148    1.7827 H   0  0  0  0  0  0  0  0  0  0  0  0
   -2.8436   -1.3425   -1.2357 H   0  0  0  0  0  0  0  0  0  0  0  0
   -4.8447   -2.6691   -1.7494 H   0  0  0  0  0  0  0  0  0  0  0  0
   -6.4071   -3.3364    0.0509 H   0  0  0  0  0  0  0  0  0  0  0  0
   -3.9354   -1.2910    2.9315 H   0  0  0  0  0  0  0  0  0  0  0  0
   -4.0430    1.5336   -0.6107 H   0  0  0  0  0  0  0  0  0  0  0  0
   -1.4401    3.5678   -3.9610 H   0  0  0  0  0  0  0  0  0  0  0  0
    0.0466    3.7502   -2.9857 H   0  0  0  0  0  0  0  0  0  0  0  0
   -1.3563    4.8136   -2.6703 H   0  0  0  0  0  0  0  0  0  0  0  0
  1  2  1  0
  2  3  1  0
  2  4  1  0
  4  5  1  0
  5  6  1  0
  6  7  1  0
  7  8  2  0
  8  9  1  0
  9 10  1  0
 10 11  1  0
 11 12  2  0
 12 13  1  0
 13 14  2  0
 14 15  1  0
 15 16  1  0
 16 17  3  0
 15 18  2  0
  9 19  2  0
 19 20  1  0
 20 21  2  0
 21 22  1  0
 22 23  1  0
 22 24  1  0
 24 25  2  0
 25  7  1  0
 18 11  1  0
 24 19  1  0
  1 26  1  0
  1 27  1  0
  1 28  1  0
  2 29  1  0
  3 30  1  0
  3 31  1  0
  3 32  1  0
  4 33  1  0
  4 34  1  0
  5 35  1  0
  5 36  1  0
  6 37  1  0
 10 38  1  0
 12 39  1  0
 13 40  1  0
 14 41  1  0
 18 42  1  0
 20 43  1  0
 23 44  1  0
 23 45  1  0
 23 46  1  0
M  END
>  <ScrubInfo>  (1) 
{"isomerGroup": 0, "isomerId": 0, "confId": 0, "nr_conformers:": 1, "nr_isomers:": 9}

$$$$
_i1
     RDKit          3D

 46 48  0  0  0  0  0  0  0  0999 V2000
    0.9947    0.0829   -0.1855 N   0  0  0  0  0  0  0  0  0  0  0  0
    2.1252    0.7713    0.2119 C   0  0  0  0  0  0  0  0  0  0  0  0
    3.3934    0.4557   -0.2431 N   0  0  0  0  0  0  0  0  0  0  0  0
    3.9082   -0.8007   -0.6204 C   0  0  0  0  0  0  0  0  0  0  0  0
    3.2999   -2.0181   -0.2891 C   0  0  0  0  0  0  0  0  0  0  0  0
    3.8277   -3.2347   -0.7325 C   0  0  0  0  0  0  0  0  0  0  0  0
    4.9723   -3.2525   -1.5261 C   0  0  0  0  0  0  0  0  0  0  0  0
    5.5904   -2.0509   -1.8758 C   0  0  0  0  0  0  0  0  0  0  0  0
    6.7659   -2.0573   -2.6957 C   0  0  0  0  0  0  0  0  0  0  0  0
    7.7201   -2.0545   -3.3561 N   0  0  0  0  0  0  0  0  0  0  0  0
    5.0569   -0.8351   -1.4264 C   0  0  0  0  0  0  0  0  0  0  0  0
    1.8882    1.8094    1.0245 C   0  0  0  0  0  0  0  0  0  0  0  0
    2.6540    2.8626    1.7005 C   0  0  0  0  0  0  0  0  0  0  0  0
    1.9070    3.6669    2.4128 N   0  0  0  0  0  0  0  0  0  0  0  0
    0.6006    3.1654    2.2937 N   0  0  0  0  0  0  0  0  0  0  0  0
   -0.5063    3.9949    2.7057 C   0  0  0  0  0  0  0  0  0  0  0  0
    0.4913    2.0854    1.4324 C   0  0  0  0  0  0  0  0  0  0  0  0
   -0.5510    1.4410    1.0308 N   0  0  0  0  0  0  0  0  0  0  0  0
   -0.2916    0.4110    0.1540 C   0  0  0  0  0  0  0  0  0  0  0  0
   -1.2600   -0.2621   -0.3746 N   0  0  0  0  0  0  0  0  0  0  0  0
   -2.6208    0.1197    0.0107 C   0  0  0  0  0  0  0  0  0  0  0  0
   -3.5958   -0.7965   -0.7329 C   0  0  0  0  0  0  0  0  0  0  0  0
   -5.0735   -0.4162   -0.5306 C   0  0  0  0  0  0  0  0  0  0  0  0
   -5.9611   -1.2931   -1.4171 C   0  0  0  0  0  0  0  0  0  0  0  0
   -5.5147   -0.5433    0.9281 C   0  0  0  0  0  0  0  0  0  0  0  0
    1.0976   -0.5913   -0.9297 H   0  0  0  0  0  0  0  0  0  0  0  0
    4.1172    1.1393   -0.0443 H   0  0  0  0  0  0  0  0  0  0  0  0
    2.4224   -2.0479    0.3530 H   0  0  0  0  0  0  0  0  0  0  0  0
    3.3440   -4.1682   -0.4524 H   0  0  0  0  0  0  0  0  0  0  0  0
    5.3748   -4.2047   -1.8669 H   0  0  0  0  0  0  0  0  0  0  0  0
    5.5361    0.0969   -1.7220 H   0  0  0  0  0  0  0  0  0  0  0  0
    3.7416    2.9420    1.5793 H   0  0  0  0  0  0  0  0  0  0  0  0
   -0.2431    4.5799    3.5929 H   0  0  0  0  0  0  0  0  0  0  0  0
   -0.7827    4.6867    1.9040 H   0  0  0  0  0  0  0  0  0  0  0  0
   -1.3796    3.3842    2.9560 H   0  0  0  0  0  0  0  0  0  0  0  0
   -2.8213    1.1616   -0.2665 H   0  0  0  0  0  0  0  0  0  0  0  0
   -2.7530    0.0018    1.0919 H   0  0  0  0  0  0  0  0  0  0  0  0
   -3.4289   -1.8354   -0.4192 H   0  0  0  0  0  0  0  0  0  0  0  0
   -3.3622   -0.7608   -1.8054 H   0  0  0  0  0  0  0  0  0  0  0  0
   -5.2141    0.6266   -0.8420 H   0  0  0  0  0  0  0  0  0  0  0  0
   -5.6879   -1.1831   -2.4719 H   0  0  0  0  0  0  0  0  0  0  0  0
   -7.0142   -1.0097   -1.3155 H   0  0  0  0  0  0  0  0  0  0  0  0
   -5.8675   -2.3514   -1.1507 H   0  0  0  0  0  0  0  0  0  0  0  0
   -6.5849   -0.3324    1.0297 H   0  0  0  0  0  0  0  0  0  0  0  0
   -5.3317   -1.5526    1.3119 H   0  0  0  0  0  0  0  0  0  0  0  0
   -4.9836    0.1674    1.5685 H   0  0  0  0  0  0  0  0  0  0  0  0
  1  2  1  0
  2  3  1  0
  3  4  1  0
  4  5  2  0
  5  6  1  0
  6  7  2  0
  7  8  1  0
  8  9  1  0
  9 10  3  0
  8 11  2  0
  2 12  2  0
 12 13  1  0
 13 14  2  0
 14 15  1  0
 15 16  1  0
 15 17  1  0
 17 18  2  0
 18 19  1  0
 19 20  2  3
 20 21  1  0
 21 22  1  0
 22 23  1  0
 23 24  1  0
 23 25  1  0
 19  1  1  0
 11  4  1  0
 17 12  1  0
  1 26  1  0
  3 27  1  0
  5 28  1  0
  6 29  1  0
  7 30  1  0
 11 31  1  0
 13 32  1  0
 16 33  1  0
 16 34  1  0
 16 35  1  0
 21 36  1  0
 21 37  1  0
 22 38  1  0
 22 39  1  0
 23 40  1  0
 24 41  1  0
 24 42  1  0
 24 43  1  0
 25 44  1  0
 25 45  1  0
 25 46  1  0
M  END
>  <ScrubInfo>  (2) 
{"isomerGroup": 0, "isomerId": 1, "confId": 0, "nr_conformers:": 1, "nr_isomers:": 9}

$$$$
_i2
     RDKit          3D

 46 48  0  0  0  0  0  0  0  0999 V2000
    1.2234    0.1399    0.0518 N   0  0  0  0  0  0  0  0  0  0  0  0
   -0.1311    0.0404    0.2952 C   0  0  0  0  0  0  0  0  0  0  0  0
   -0.8598    0.9333   -0.4493 N   0  0  0  0  0  0  0  0  0  0  0  0
   -2.3102    1.0269   -0.3055 C   0  0  0  0  0  0  0  0  0  0  0  0
   -2.9973   -0.0841   -1.1045 C   0  0  0  0  0  0  0  0  0  0  0  0
   -4.5342   -0.1083   -1.0068 C   0  0  0  0  0  0  0  0  0  0  0  0
   -5.1742    1.1748   -1.5358 C   0  0  0  0  0  0  0  0  0  0  0  0
   -5.0186   -0.4026    0.4132 C   0  0  0  0  0  0  0  0  0  0  0  0
   -0.6633   -0.8128    1.1329 N   0  0  0  0  0  0  0  0  0  0  0  0
    0.2827   -1.5788    1.7433 C   0  0  0  0  0  0  0  0  0  0  0  0
    1.6505   -1.5491    1.5593 C   0  0  0  0  0  0  0  0  0  0  0  0
    2.1618   -2.5302    2.4194 C   0  0  0  0  0  0  0  0  0  0  0  0
    1.1964   -3.1486    3.1129 N   0  0  0  0  0  0  0  0  0  0  0  0
    0.0585   -2.5510    2.6778 N   0  0  0  0  0  0  0  0  0  0  0  0
   -1.2111   -2.9734    3.2127 C   0  0  0  0  0  0  0  0  0  0  0  0
    2.2236   -0.6256    0.6150 C   0  0  0  0  0  0  0  0  0  0  0  0
    3.5011   -0.6429    0.4267 N   0  0  0  0  0  0  0  0  0  0  0  0
    4.0460    0.2526   -0.4985 C   0  0  0  0  0  0  0  0  0  0  0  0
    4.1535   -0.1035   -1.8457 C   0  0  0  0  0  0  0  0  0  0  0  0
    4.7049    0.7840   -2.7706 C   0  0  0  0  0  0  0  0  0  0  0  0
    5.1634    2.0320   -2.3472 C   0  0  0  0  0  0  0  0  0  0  0  0
    5.0768    2.3891   -0.9969 C   0  0  0  0  0  0  0  0  0  0  0  0
    5.5527    3.6681   -0.5596 C   0  0  0  0  0  0  0  0  0  0  0  0
    5.9246    4.7110   -0.2123 N   0  0  0  0  0  0  0  0  0  0  0  0
    4.5207    1.4961   -0.0752 C   0  0  0  0  0  0  0  0  0  0  0  0
    1.4961    0.7147   -0.7270 H   0  0  0  0  0  0  0  0  0  0  0  0
   -0.4286    1.8469   -0.5281 H   0  0  0  0  0  0  0  0  0  0  0  0
   -2.5872    1.0023    0.7535 H   0  0  0  0  0  0  0  0  0  0  0  0
   -2.6213    2.0025   -0.6940 H   0  0  0  0  0  0  0  0  0  0  0  0
   -2.6156   -1.0623   -0.7858 H   0  0  0  0  0  0  0  0  0  0  0  0
   -2.7123    0.0134   -2.1608 H   0  0  0  0  0  0  0  0  0  0  0  0
   -4.8788   -0.9325   -1.6455 H   0  0  0  0  0  0  0  0  0  0  0  0
   -6.2636    1.0690   -1.5815 H   0  0  0  0  0  0  0  0  0  0  0  0
   -4.8187    1.3997   -2.5467 H   0  0  0  0  0  0  0  0  0  0  0  0
   -4.9532    2.0345   -0.8951 H   0  0  0  0  0  0  0  0  0  0  0  0
   -6.1035   -0.5541    0.4240 H   0  0  0  0  0  0  0  0  0  0  0  0
   -4.7939    0.4197    1.0997 H   0  0  0  0  0  0  0  0  0  0  0  0
   -4.5513   -1.3125    0.8042 H   0  0  0  0  0  0  0  0  0  0  0  0
    3.1930   -2.8219    2.5708 H   0  0  0  0  0  0  0  0  0  0  0  0
   -1.3267   -4.0432    3.0208 H   0  0  0  0  0  0  0  0  0  0  0  0
   -2.0234   -2.4230    2.7329 H   0  0  0  0  0  0  0  0  0  0  0  0
   -1.2132   -2.7758    4.2876 H   0  0  0  0  0  0  0  0  0  0  0  0
    3.8146   -1.0846   -2.1716 H   0  0  0  0  0  0  0  0  0  0  0  0
    4.7878    0.4969   -3.8164 H   0  0  0  0  0  0  0  0  0  0  0  0
    5.5986    2.7169   -3.0734 H   0  0  0  0  0  0  0  0  0  0  0  0
    4.4603    1.7559    0.9800 H   0  0  0  0  0  0  0  0  0  0  0  0
  1  2  1  0
  2  3  1  0
  3  4  1  0
  4  5  1  0
  5  6  1  0
  6  7  1  0
  6  8  1  0
  2  9  2  0
  9 10  1  0
 10 11  2  0
 11 12  1  0
 12 13  2  0
 13 14  1  0
 14 15  1  0
 11 16  1  0
 16 17  2  3
 17 18  1  0
 18 19  2  0
 19 20  1  0
 20 21  2  0
 21 22  1  0
 22 23  1  0
 23 24  3  0
 22 25  2  0
 16  1  1  0
 25 18  1  0
 14 10  1  0
  1 26  1  0
  3 27  1  0
  4 28  1  0
  4 29  1  0
  5 30  1  0
  5 31  1  0
  6 32  1  0
  7 33  1  0
  7 34  1  0
  7 35  1  0
  8 36  1  0
  8 37  1  0
  8 38  1  0
 12 39  1  0
 15 40  1  0
 15 41  1  0
 15 42  1  0
 19 43  1  0
 20 44  1  0
 21 45  1  0
 25 46  1  0
M  END
>  <ScrubInfo>  (3) 
{"isomerGroup": 0, "isomerId": 2, "confId": 0, "nr_conformers:": 1, "nr_isomers:": 9}

$$$$
_i3
     RDKit          3D

 46 48  0  0  0  0  0  0  0  0999 V2000
    0.6863    1.9854    1.5632 N   0  0  0  0  0  0  0  0  0  0  0  0
    1.1104    1.0329    0.6613 C   0  0  0  0  0  0  0  0  0  0  0  0
    2.3150    0.5774    0.7810 N   0  0  0  0  0  0  0  0  0  0  0  0
    2.7446   -0.4355   -0.1867 C   0  0  0  0  0  0  0  0  0  0  0  0
    4.1874   -0.8227    0.1496 C   0  0  0  0  0  0  0  0  0  0  0  0
    4.8170   -1.8873   -0.7680 C   0  0  0  0  0  0  0  0  0  0  0  0
    4.0836   -3.2265   -0.6945 C   0  0  0  0  0  0  0  0  0  0  0  0
    4.9244   -1.4159   -2.2182 C   0  0  0  0  0  0  0  0  0  0  0  0
    0.2831    0.5641   -0.3508 N   0  0  0  0  0  0  0  0  0  0  0  0
   -0.9309    1.0318   -0.4420 C   0  0  0  0  0  0  0  0  0  0  0  0
   -1.8113    0.6342   -1.4164 N   0  0  0  0  0  0  0  0  0  0  0  0
   -3.0454   -0.0184   -1.1553 C   0  0  0  0  0  0  0  0  0  0  0  0
   -3.9527   -0.1596   -2.2156 C   0  0  0  0  0  0  0  0  0  0  0  0
   -5.1780   -0.8034   -2.0321 C   0  0  0  0  0  0  0  0  0  0  0  0
   -5.5089   -1.3249   -0.7830 C   0  0  0  0  0  0  0  0  0  0  0  0
   -4.6115   -1.2063    0.2819 C   0  0  0  0  0  0  0  0  0  0  0  0
   -4.9447   -1.7532    1.5647 C   0  0  0  0  0  0  0  0  0  0  0  0
   -5.2161   -2.2004    2.6006 N   0  0  0  0  0  0  0  0  0  0  0  0
   -3.3829   -0.5589    0.0932 C   0  0  0  0  0  0  0  0  0  0  0  0
   -1.4002    2.0615    0.4574 C   0  0  0  0  0  0  0  0  0  0  0  0
   -2.5523    2.8414    0.6367 C   0  0  0  0  0  0  0  0  0  0  0  0
   -2.4403    3.6837    1.6763 N   0  0  0  0  0  0  0  0  0  0  0  0
   -1.1928    3.4468    2.1547 N   0  0  0  0  0  0  0  0  0  0  0  0
   -0.7209    4.1968    3.2906 C   0  0  0  0  0  0  0  0  0  0  0  0
   -0.5498    2.4894    1.4385 C   0  0  0  0  0  0  0  0  0  0  0  0
    1.3803    2.2601    2.2458 H   0  0  0  0  0  0  0  0  0  0  0  0
    2.0991   -1.3180   -0.1198 H   0  0  0  0  0  0  0  0  0  0  0  0
    2.6973   -0.0292   -1.2030 H   0  0  0  0  0  0  0  0  0  0  0  0
    4.8126    0.0798    0.1245 H   0  0  0  0  0  0  0  0  0  0  0  0
    4.2263   -1.1824    1.1865 H   0  0  0  0  0  0  0  0  0  0  0  0
    5.8391   -2.0548   -0.4030 H   0  0  0  0  0  0  0  0  0  0  0  0
    4.6351   -3.9960   -1.2457 H   0  0  0  0  0  0  0  0  0  0  0  0
    3.9894   -3.5632    0.3431 H   0  0  0  0  0  0  0  0  0  0  0  0
    3.0803   -3.1661   -1.1280 H   0  0  0  0  0  0  0  0  0  0  0  0
    3.9408   -1.3131   -2.6872 H   0  0  0  0  0  0  0  0  0  0  0  0
    5.4356   -0.4494   -2.2773 H   0  0  0  0  0  0  0  0  0  0  0  0
    5.4998   -2.1340   -2.8127 H   0  0  0  0  0  0  0  0  0  0  0  0
   -1.3105    0.0769   -2.1068 H   0  0  0  0  0  0  0  0  0  0  0  0
   -3.7133    0.2487   -3.1960 H   0  0  0  0  0  0  0  0  0  0  0  0
   -5.8736   -0.8955   -2.8632 H   0  0  0  0  0  0  0  0  0  0  0  0
   -6.4661   -1.8255   -0.6471 H   0  0  0  0  0  0  0  0  0  0  0  0
   -2.6899   -0.4945    0.9304 H   0  0  0  0  0  0  0  0  0  0  0  0
   -3.4701    2.8389    0.0632 H   0  0  0  0  0  0  0  0  0  0  0  0
    0.2734    3.8494    3.5790 H   0  0  0  0  0  0  0  0  0  0  0  0
   -0.6799    5.2527    3.0121 H   0  0  0  0  0  0  0  0  0  0  0  0
   -1.4189    4.0460    4.1180 H   0  0  0  0  0  0  0  0  0  0  0  0
  1  2  1  0
  2  3  2  3
  3  4  1  0
  4  5  1  0
  5  6  1  0
  6  7  1  0
  6  8  1  0
  2  9  1  0
  9 10  2  0
 10 11  1  0
 11 12  1  0
 12 13  2  0
 13 14  1  0
 14 15  2  0
 15 16  1  0
 16 17  1  0
 17 18  3  0
 16 19  2  0
 10 20  1  0
 20 21  1  0
 21 22  2  0
 22 23  1  0
 23 24  1  0
 23 25  1  0
 25  1  1  0
 19 12  1  0
 25 20  2  0
  1 26  1  0
  4 27  1  0
  4 28  1  0
  5 29  1  0
  5 30  1  0
  6 31  1  0
  7 32  1  0
  7 33  1  0
  7 34  1  0
  8 35  1  0
  8 36  1  0
  8 37  1  0
 11 38  1  0
 13 39  1  0
 14 40  1  0
 15 41  1  0
 19 42  1  0
 21 43  1  0
 24 44  1  0
 24 45  1  0
 24 46  1  0
M  END
>  <ScrubInfo>  (4) 
{"isomerGroup": 0, "isomerId": 3, "confId": 0, "nr_conformers:": 1, "nr_isomers:": 9}

$$$$
_i4
     RDKit          3D

 46 48  0  0  0  0  0  0  0  0999 V2000
    1.4246    4.0508    1.4438 N   0  0  0  0  0  0  0  0  0  0  0  0
    2.3144    3.2056    0.7877 C   0  0  0  0  0  0  0  0  0  0  0  0
    1.8226    1.9732    0.6072 C   0  0  0  0  0  0  0  0  0  0  0  0
    2.2456    0.7376   -0.0092 C   0  0  0  0  0  0  0  0  0  0  0  0
    3.4194    0.5977   -0.5433 N   0  0  0  0  0  0  0  0  0  0  0  0
    3.7488   -0.6334   -1.1253 C   0  0  0  0  0  0  0  0  0  0  0  0
    3.6622   -0.7941   -2.5110 C   0  0  0  0  0  0  0  0  0  0  0  0
    4.0149   -2.0049   -3.1091 C   0  0  0  0  0  0  0  0  0  0  0  0
    4.4677   -3.0623   -2.3199 C   0  0  0  0  0  0  0  0  0  0  0  0
    4.5724   -2.9058   -0.9332 C   0  0  0  0  0  0  0  0  0  0  0  0
    5.0420   -3.9892   -0.1215 C   0  0  0  0  0  0  0  0  0  0  0  0
    5.4234   -4.8722    0.5284 N   0  0  0  0  0  0  0  0  0  0  0  0
    4.2198   -1.6895   -0.3405 C   0  0  0  0  0  0  0  0  0  0  0  0
    1.3052   -0.2583    0.0128 N   0  0  0  0  0  0  0  0  0  0  0  0
    0.1427   -0.1079    0.5819 C   0  0  0  0  0  0  0  0  0  0  0  0
   -0.6934   -1.1838    0.5220 N   0  0  0  0  0  0  0  0  0  0  0  0
   -2.1254   -1.1119    0.7173 C   0  0  0  0  0  0  0  0  0  0  0  0
   -2.8060   -0.5492   -0.5333 C   0  0  0  0  0  0  0  0  0  0  0  0
   -4.3355   -0.3968   -0.4370 C   0  0  0  0  0  0  0  0  0  0  0  0
   -4.7501    0.6189    0.6280 C   0  0  0  0  0  0  0  0  0  0  0  0
   -5.0422   -1.7323   -0.2074 C   0  0  0  0  0  0  0  0  0  0  0  0
   -0.2936    1.0259    1.2194 N   0  0  0  0  0  0  0  0  0  0  0  0
    0.5083    2.0317    1.2564 C   0  0  0  0  0  0  0  0  0  0  0  0
    0.3313    3.2851    1.8447 N   0  0  0  0  0  0  0  0  0  0  0  0
   -0.9792    3.9027    1.9034 C   0  0  0  0  0  0  0  0  0  0  0  0
    1.8689    4.6141    2.1729 H   0  0  0  0  0  0  0  0  0  0  0  0
    3.2846    3.5760    0.4874 H   0  0  0  0  0  0  0  0  0  0  0  0
    3.3142    0.0333   -3.1237 H   0  0  0  0  0  0  0  0  0  0  0  0
    3.9380   -2.1198   -4.1872 H   0  0  0  0  0  0  0  0  0  0  0  0
    4.7411   -4.0040   -2.7921 H   0  0  0  0  0  0  0  0  0  0  0  0
    4.3002   -1.5538    0.7353 H   0  0  0  0  0  0  0  0  0  0  0  0
   -0.3620   -1.8984   -0.1142 H   0  0  0  0  0  0  0  0  0  0  0  0
   -2.4875   -2.1256    0.9168 H   0  0  0  0  0  0  0  0  0  0  0  0
   -2.3578   -0.5139    1.6041 H   0  0  0  0  0  0  0  0  0  0  0  0
   -2.3744    0.4308   -0.7760 H   0  0  0  0  0  0  0  0  0  0  0  0
   -2.5689   -1.1971   -1.3879 H   0  0  0  0  0  0  0  0  0  0  0  0
   -4.6764   -0.0092   -1.4064 H   0  0  0  0  0  0  0  0  0  0  0  0
   -5.8273    0.8111    0.5750 H   0  0  0  0  0  0  0  0  0  0  0  0
   -4.2338    1.5731    0.4794 H   0  0  0  0  0  0  0  0  0  0  0  0
   -4.5284    0.2635    1.6392 H   0  0  0  0  0  0  0  0  0  0  0  0
   -4.7376   -2.4688   -0.9582 H   0  0  0  0  0  0  0  0  0  0  0  0
   -4.8252   -2.1429    0.7838 H   0  0  0  0  0  0  0  0  0  0  0  0
   -6.1281   -1.6091   -0.2828 H   0  0  0  0  0  0  0  0  0  0  0  0
   -1.3463    4.1331    0.8979 H   0  0  0  0  0  0  0  0  0  0  0  0
   -0.9365    4.8324    2.4800 H   0  0  0  0  0  0  0  0  0  0  0  0
   -1.6969    3.2375    2.3942 H   0  0  0  0  0  0  0  0  0  0  0  0
  1  2  1  0
  2  3  2  0
  3  4  1  0
  4  5  2  3
  5  6  1  0
  6  7  2  0
  7  8  1  0
  8  9  2  0
  9 10  1  0
 10 11  1  0
 11 12  3  0
 10 13  2  0
  4 14  1  0
 14 15  2  0
 15 16  1  0
 16 17  1  0
 17 18  1  0
 18 19  1  0
 19 20  1  0
 19 21  1  0
 15 22  1  0
 22 23  2  0
 23 24  1  0
 24 25  1  0
 24  1  1  0
 23  3  1  0
 13  6  1  0
  1 26  1  0
  2 27  1  0
  7 28  1  0
  8 29  1  0
  9 30  1  0
 13 31  1  0
 16 32  1  0
 17 33  1  0
 17 34  1  0
 18 35  1  0
 18 36  1  0
 19 37  1  0
 20 38  1  0
 20 39  1  0
 20 40  1  0
 21 41  1  0
 21 42  1  0
 21 43  1  0
 25 44  1  0
 25 45  1  0
 25 46  1  0
M  END
>  <ScrubInfo>  (5) 
{"isomerGroup": 0, "isomerId": 4, "confId": 0, "nr_conformers:": 1, "nr_isomers:": 9}

$$$$
_i5
     RDKit          3D

 46 48  0  0  0  0  0  0  0  0999 V2000
   -0.1419   -1.9860    0.2256 N   0  0  0  0  0  0  0  0  0  0  0  0
   -0.3245   -0.6220    0.2231 C   0  0  0  0  0  0  0  0  0  0  0  0
    0.6149    0.0929    0.9104 N   0  0  0  0  0  0  0  0  0  0  0  0
    2.0410   -0.0665    0.6482 C   0  0  0  0  0  0  0  0  0  0  0  0
    2.8352    0.8731    1.5587 C   0  0  0  0  0  0  0  0  0  0  0  0
    4.3476    0.8732    1.2712 C   0  0  0  0  0  0  0  0  0  0  0  0
    5.0373    1.9430    2.1216 C   0  0  0  0  0  0  0  0  0  0  0  0
    4.9926   -0.4885    1.5334 C   0  0  0  0  0  0  0  0  0  0  0  0
   -1.3072    0.0146   -0.3544 N   0  0  0  0  0  0  0  0  0  0  0  0
   -2.2678   -0.7136   -1.0458 C   0  0  0  0  0  0  0  0  0  0  0  0
   -3.2682   -0.1855   -1.6766 N   0  0  0  0  0  0  0  0  0  0  0  0
   -3.3959    1.2090   -1.6711 C   0  0  0  0  0  0  0  0  0  0  0  0
   -3.0083    1.9459   -2.7937 C   0  0  0  0  0  0  0  0  0  0  0  0
   -3.1557    3.3336   -2.8184 C   0  0  0  0  0  0  0  0  0  0  0  0
   -3.7034    3.9927   -1.7177 C   0  0  0  0  0  0  0  0  0  0  0  0
   -4.1091    3.2620   -0.5952 C   0  0  0  0  0  0  0  0  0  0  0  0
   -4.6736    3.9369    0.5356 C   0  0  0  0  0  0  0  0  0  0  0  0
   -5.1264    4.4920    1.4490 N   0  0  0  0  0  0  0  0  0  0  0  0
   -3.9622    1.8715   -0.5784 C   0  0  0  0  0  0  0  0  0  0  0  0
   -2.1321   -2.1474   -1.0455 C   0  0  0  0  0  0  0  0  0  0  0  0
   -2.8599   -3.2284   -1.5598 C   0  0  0  0  0  0  0  0  0  0  0  0
   -2.2995   -4.4103   -1.2521 N   0  0  0  0  0  0  0  0  0  0  0  0
   -1.2022   -4.0708   -0.5299 N   0  0  0  0  0  0  0  0  0  0  0  0
   -0.3457   -5.1131   -0.0253 C   0  0  0  0  0  0  0  0  0  0  0  0
   -1.0737   -2.7247   -0.4009 C   0  0  0  0  0  0  0  0  0  0  0  0
    0.5239   -2.3612    0.8871 H   0  0  0  0  0  0  0  0  0  0  0  0
    0.3479    1.0757    0.8639 H   0  0  0  0  0  0  0  0  0  0  0  0
    2.2461    0.1663   -0.4030 H   0  0  0  0  0  0  0  0  0  0  0  0
    2.3392   -1.1030    0.8323 H   0  0  0  0  0  0  0  0  0  0  0  0
    2.6529    0.6041    2.6075 H   0  0  0  0  0  0  0  0  0  0  0  0
    2.4517    1.8948    1.4347 H   0  0  0  0  0  0  0  0  0  0  0  0
    4.5051    1.1303    0.2161 H   0  0  0  0  0  0  0  0  0  0  0  0
    4.9180    1.7387    3.1911 H   0  0  0  0  0  0  0  0  0  0  0  0
    6.1094    1.9840    1.9017 H   0  0  0  0  0  0  0  0  0  0  0  0
    4.6181    2.9338    1.9164 H   0  0  0  0  0  0  0  0  0  0  0  0
    4.6099   -1.2498    0.8470 H   0  0  0  0  0  0  0  0  0  0  0  0
    6.0772   -0.4387    1.3879 H   0  0  0  0  0  0  0  0  0  0  0  0
    4.8046   -0.8262    2.5581 H   0  0  0  0  0  0  0  0  0  0  0  0
   -2.5880    1.4292   -3.6527 H   0  0  0  0  0  0  0  0  0  0  0  0
   -2.8464    3.8961   -3.6956 H   0  0  0  0  0  0  0  0  0  0  0  0
   -3.8153    5.0749   -1.7428 H   0  0  0  0  0  0  0  0  0  0  0  0
   -4.2788    1.2920    0.2856 H   0  0  0  0  0  0  0  0  0  0  0  0
   -3.7743   -3.2098   -2.1390 H   0  0  0  0  0  0  0  0  0  0  0  0
   -0.9158   -5.7087    0.6920 H   0  0  0  0  0  0  0  0  0  0  0  0
    0.5256   -4.6739    0.4652 H   0  0  0  0  0  0  0  0  0  0  0  0
   -0.0222   -5.7325   -0.8656 H   0  0  0  0  0  0  0  0  0  0  0  0
  1  2  1  0
  2  3  1  0
  3  4  1  0
  4  5  1  0
  5  6  1  0
  6  7  1  0
  6  8  1  0
  2  9  2  0
  9 10  1  0
 10 11  2  3
 11 12  1  0
 12 13  2  0
 13 14  1  0
 14 15  2  0
 15 16  1  0
 16 17  1  0
 17 18  3  0
 16 19  2  0
 10 20  1  0
 20 21  1  0
 21 22  2  0
 22 23  1  0
 23 24  1  0
 23 25  1  0
 25  1  1  0
 19 12  1  0
 25 20  2  0
  1 26  1  0
  3 27  1  0
  4 28  1  0
  4 29  1  0
  5 30  1  0
  5 31  1  0
  6 32  1  0
  7 33  1  0
  7 34  1  0
  7 35  1  0
  8 36  1  0
  8 37  1  0
  8 38  1  0
 13 39  1  0
 14 40  1  0
 15 41  1  0
 19 42  1  0
 21 43  1  0
 24 44  1  0
 24 45  1  0
 24 46  1  0
M  END
>  <ScrubInfo>  (6) 
{"isomerGroup": 0, "isomerId": 5, "confId": 0, "nr_conformers:": 1, "nr_isomers:": 9}

$$$$
_i6
     RDKit          3D

 46 48  0  0  0  0  0  0  0  0999 V2000
   -0.8980   -2.9726   -3.1307 N   0  0  0  0  0  0  0  0  0  0  0  0
   -1.8826   -2.1327   -2.6212 C   0  0  0  0  0  0  0  0  0  0  0  0
   -1.4539   -1.3882   -1.5921 C   0  0  0  0  0  0  0  0  0  0  0  0
   -1.9902   -0.3911   -0.6595 C   0  0  0  0  0  0  0  0  0  0  0  0
   -3.3088    0.0094   -0.7848 N   0  0  0  0  0  0  0  0  0  0  0  0
   -4.0388    0.9696   -0.0550 C   0  0  0  0  0  0  0  0  0  0  0  0
   -5.4146    1.0968   -0.3247 C   0  0  0  0  0  0  0  0  0  0  0  0
   -6.2139    2.0164    0.3598 C   0  0  0  0  0  0  0  0  0  0  0  0
   -5.6501    2.8315    1.3357 C   0  0  0  0  0  0  0  0  0  0  0  0
   -4.2881    2.7244    1.6253 C   0  0  0  0  0  0  0  0  0  0  0  0
   -3.7068    3.5672    2.6298 C   0  0  0  0  0  0  0  0  0  0  0  0
   -3.2667    4.2667    3.4450 N   0  0  0  0  0  0  0  0  0  0  0  0
   -3.4933    1.7978    0.9335 C   0  0  0  0  0  0  0  0  0  0  0  0
   -1.1760    0.0552    0.2511 N   0  0  0  0  0  0  0  0  0  0  0  0
    0.1192   -0.4050    0.3171 C   0  0  0  0  0  0  0  0  0  0  0  0
    0.7889    0.0907    1.2951 N   0  0  0  0  0  0  0  0  0  0  0  0
    2.1788   -0.3131    1.4945 C   0  0  0  0  0  0  0  0  0  0  0  0
    3.1057    0.6456    0.7446 C   0  0  0  0  0  0  0  0  0  0  0  0
    4.5890    0.2395    0.8086 C   0  0  0  0  0  0  0  0  0  0  0  0
    5.1390    0.2601    2.2353 C   0  0  0  0  0  0  0  0  0  0  0  0
    5.4205    1.1684   -0.0793 C   0  0  0  0  0  0  0  0  0  0  0  0
    0.7196   -1.2939   -0.5438 N   0  0  0  0  0  0  0  0  0  0  0  0
   -0.0280   -1.7638   -1.4791 C   0  0  0  0  0  0  0  0  0  0  0  0
    0.2991   -2.6594   -2.4971 N   0  0  0  0  0  0  0  0  0  0  0  0
    1.2857   -3.7019   -2.2858 C   0  0  0  0  0  0  0  0  0  0  0  0
   -0.8682   -3.0026   -4.1528 H   0  0  0  0  0  0  0  0  0  0  0  0
   -2.8622   -2.1510   -3.0751 H   0  0  0  0  0  0  0  0  0  0  0  0
   -3.8533   -0.4453   -1.5050 H   0  0  0  0  0  0  0  0  0  0  0  0
   -5.8880    0.4710   -1.0783 H   0  0  0  0  0  0  0  0  0  0  0  0
   -7.2743    2.0933    0.1317 H   0  0  0  0  0  0  0  0  0  0  0  0
   -6.2744    3.5468    1.8676 H   0  0  0  0  0  0  0  0  0  0  0  0
   -2.4367    1.7467    1.1851 H   0  0  0  0  0  0  0  0  0  0  0  0
    2.3797   -0.2594    2.5699 H   0  0  0  0  0  0  0  0  0  0  0  0
    2.3665   -1.3546    1.2077 H   0  0  0  0  0  0  0  0  0  0  0  0
    2.7975    0.6920   -0.3080 H   0  0  0  0  0  0  0  0  0  0  0  0
    2.9767    1.6603    1.1435 H   0  0  0  0  0  0  0  0  0  0  0  0
    4.6913   -0.7801    0.4158 H   0  0  0  0  0  0  0  0  0  0  0  0
    5.0008    1.2421    2.7000 H   0  0  0  0  0  0  0  0  0  0  0  0
    4.6456   -0.4877    2.8635 H   0  0  0  0  0  0  0  0  0  0  0  0
    6.2103    0.0314    2.2416 H   0  0  0  0  0  0  0  0  0  0  0  0
    5.0685    1.1345   -1.1158 H   0  0  0  0  0  0  0  0  0  0  0  0
    5.3611    2.2064    0.2656 H   0  0  0  0  0  0  0  0  0  0  0  0
    6.4742    0.8698   -0.0764 H   0  0  0  0  0  0  0  0  0  0  0  0
    1.4768   -4.2399   -3.2200 H   0  0  0  0  0  0  0  0  0  0  0  0
    0.9383   -4.4196   -1.5354 H   0  0  0  0  0  0  0  0  0  0  0  0
    2.2341   -3.2721   -1.9476 H   0  0  0  0  0  0  0  0  0  0  0  0
  1  2  1  0
  2  3  2  0
  3  4  1  0
  4  5  1  0
  5  6  1  0
  6  7  2  0
  7  8  1  0
  8  9  2  0
  9 10  1  0
 10 11  1  0
 11 12  3  0
 10 13  2  0
  4 14  2  0
 14 15  1  0
 15 16  2  3
 16 17  1  0
 17 18  1  0
 18 19  1  0
 19 20  1  0
 19 21  1  0
 15 22  1  0
 22 23  2  0
 23 24  1  0
 24 25  1  0
 24  1  1  0
 23  3  1  0
 13  6  1  0
  1 26  1  0
  2 27  1  0
  5 28  1  0
  7 29  1  0
  8 30  1  0
  9 31  1  0
 13 32  1  0
 17 33  1  0
 17 34  1  0
 18 35  1  0
 18 36  1  0
 19 37  1  0
 20 38  1  0
 20 39  1  0
 20 40  1  0
 21 41  1  0
 21 42  1  0
 21 43  1  0
 25 44  1  0
 25 45  1  0
 25 46  1  0
M  END
>  <ScrubInfo>  (7) 
{"isomerGroup": 0, "isomerId": 6, "confId": 0, "nr_conformers:": 1, "nr_isomers:": 9}

$$$$
_i7
     RDKit          3D

 46 48  0  0  0  0  0  0  0  0999 V2000
    0.7030    4.0806   -1.2107 N   0  0  0  0  0  0  0  0  0  0  0  0
    1.8063    3.2735   -0.9560 C   0  0  0  0  0  0  0  0  0  0  0  0
    1.4788    1.9907   -0.7613 C   0  0  0  0  0  0  0  0  0  0  0  0
    2.1518    0.7319   -0.4313 C   0  0  0  0  0  0  0  0  0  0  0  0
    3.4452    0.7159   -0.3011 N   0  0  0  0  0  0  0  0  0  0  0  0
    4.0793   -0.4905    0.0161 C   0  0  0  0  0  0  0  0  0  0  0  0
    4.4083   -1.4062   -0.9874 C   0  0  0  0  0  0  0  0  0  0  0  0
    5.0496   -2.6042   -0.6699 C   0  0  0  0  0  0  0  0  0  0  0  0
    5.3782   -2.8856    0.6567 C   0  0  0  0  0  0  0  0  0  0  0  0
    5.0703   -1.9655    1.6649 C   0  0  0  0  0  0  0  0  0  0  0  0
    5.4192   -2.2466    3.0262 C   0  0  0  0  0  0  0  0  0  0  0  0
    5.6999   -2.4789    4.1280 N   0  0  0  0  0  0  0  0  0  0  0  0
    4.4233   -0.7686    1.3407 C   0  0  0  0  0  0  0  0  0  0  0  0
    1.2660   -0.3066   -0.2937 N   0  0  0  0  0  0  0  0  0  0  0  0
   -0.0946   -0.2464   -0.4407 C   0  0  0  0  0  0  0  0  0  0  0  0
   -0.7727   -1.3270   -0.2316 N   0  0  0  0  0  0  0  0  0  0  0  0
   -2.2293   -1.2822   -0.3960 C   0  0  0  0  0  0  0  0  0  0  0  0
   -2.8838   -0.8932    0.9318 C   0  0  0  0  0  0  0  0  0  0  0  0
   -4.4165   -0.7512    0.8927 C   0  0  0  0  0  0  0  0  0  0  0  0
   -5.1134   -2.0478    0.4820 C   0  0  0  0  0  0  0  0  0  0  0  0
   -4.8665    0.4057   -0.0002 C   0  0  0  0  0  0  0  0  0  0  0  0
   -0.7368    0.9223   -0.7963 N   0  0  0  0  0  0  0  0  0  0  0  0
   -0.0037    1.9783   -0.9631 C   0  0  0  0  0  0  0  0  0  0  0  0
   -0.4168    3.2604   -1.3345 N   0  0  0  0  0  0  0  0  0  0  0  0
   -1.7130    3.7712   -0.9302 C   0  0  0  0  0  0  0  0  0  0  0  0
    0.8569    4.7502   -1.9681 H   0  0  0  0  0  0  0  0  0  0  0  0
    2.7954    3.7090   -0.9326 H   0  0  0  0  0  0  0  0  0  0  0  0
    4.1674   -1.1795   -2.0234 H   0  0  0  0  0  0  0  0  0  0  0  0
    5.3000   -3.3119   -1.4569 H   0  0  0  0  0  0  0  0  0  0  0  0
    5.8830   -3.8201    0.8964 H   0  0  0  0  0  0  0  0  0  0  0  0
    4.1873   -0.0405    2.1141 H   0  0  0  0  0  0  0  0  0  0  0  0
    1.6113   -1.2190   -0.0392 H   0  0  0  0  0  0  0  0  0  0  0  0
   -2.5339   -0.6239   -1.2163 H   0  0  0  0  0  0  0  0  0  0  0  0
   -2.5526   -2.2880   -0.6863 H   0  0  0  0  0  0  0  0  0  0  0  0
   -2.6168   -1.6438    1.6876 H   0  0  0  0  0  0  0  0  0  0  0  0
   -2.4556    0.0517    1.2904 H   0  0  0  0  0  0  0  0  0  0  0  0
   -4.7389   -0.5161    1.9159 H   0  0  0  0  0  0  0  0  0  0  0  0
   -6.1987   -1.9524    0.5963 H   0  0  0  0  0  0  0  0  0  0  0  0
   -4.9130   -2.3041   -0.5632 H   0  0  0  0  0  0  0  0  0  0  0  0
   -4.7844   -2.8827    1.1094 H   0  0  0  0  0  0  0  0  0  0  0  0
   -4.6626    0.2094   -1.0574 H   0  0  0  0  0  0  0  0  0  0  0  0
   -4.3587    1.3348    0.2794 H   0  0  0  0  0  0  0  0  0  0  0  0
   -5.9444    0.5715    0.1024 H   0  0  0  0  0  0  0  0  0  0  0  0
   -1.8968    4.7486   -1.3881 H   0  0  0  0  0  0  0  0  0  0  0  0
   -1.7656    3.8810    0.1580 H   0  0  0  0  0  0  0  0  0  0  0  0
   -2.5116    3.0956   -1.2532 H   0  0  0  0  0  0  0  0  0  0  0  0
  1  2  1  0
  2  3  2  0
  3  4  1  0
  4  5  2  3
  5  6  1  0
  6  7  2  0
  7  8  1  0
  8  9  2  0
  9 10  1  0
 10 11  1  0
 11 12  3  0
 10 13  2  0
  4 14  1  0
 14 15  1  0
 15 16  2  3
 16 17  1  0
 17 18  1  0
 18 19  1  0
 19 20  1  0
 19 21  1  0
 15 22  1  0
 22 23  2  0
 23 24  1  0
 24 25  1  0
 24  1  1  0
 23  3  1  0
 13  6  1  0
  1 26  1  0
  2 27  1  0
  7 28  1  0
  8 29  1  0
  9 30  1  0
 13 31  1  0
 14 32  1  0
 17 33  1  0
 17 34  1  0
 18 35  1  0
 18 36  1  0
 19 37  1  0
 20 38  1  0
 20 39  1  0
 20 40  1  0
 21 41  1  0
 21 42  1  0
 21 43  1  0
 25 44  1  0
 25 45  1  0
 25 46  1  0
M  END
>  <ScrubInfo>  (8) 
{"isomerGroup": 0, "isomerId": 7, "confId": 0, "nr_conformers:": 1, "nr_isomers:": 9}

$$$$
_i8
     RDKit          3D

 46 48  0  0  0  0  0  0  0  0999 V2000
   -0.5703    1.9592    0.2681 N   0  0  0  0  0  0  0  0  0  0  0  0
   -0.2060    0.8069   -0.4124 C   0  0  0  0  0  0  0  0  0  0  0  0
   -0.8328    0.2100   -1.3675 N   0  0  0  0  0  0  0  0  0  0  0  0
   -2.0867    0.7515   -1.8806 C   0  0  0  0  0  0  0  0  0  0  0  0
   -3.2762    0.2626   -1.0516 C   0  0  0  0  0  0  0  0  0  0  0  0
   -3.4309   -1.2695   -0.9732 C   0  0  0  0  0  0  0  0  0  0  0  0
   -4.6031   -1.6234   -0.0539 C   0  0  0  0  0  0  0  0  0  0  0  0
   -3.6419   -1.9069   -2.3470 C   0  0  0  0  0  0  0  0  0  0  0  0
    0.9826    0.2558    0.0259 N   0  0  0  0  0  0  0  0  0  0  0  0
    1.8561    0.6527    1.0184 C   0  0  0  0  0  0  0  0  0  0  0  0
    2.9680    0.1409    1.4325 N   0  0  0  0  0  0  0  0  0  0  0  0
    3.4323   -1.0240    0.8129 C   0  0  0  0  0  0  0  0  0  0  0  0
    2.9894   -2.2792    1.2395 C   0  0  0  0  0  0  0  0  0  0  0  0
    3.4594   -3.4415    0.6268 C   0  0  0  0  0  0  0  0  0  0  0  0
    4.3881   -3.3528   -0.4107 C   0  0  0  0  0  0  0  0  0  0  0  0
    4.8515   -2.1012   -0.8309 C   0  0  0  0  0  0  0  0  0  0  0  0
    5.8139   -2.0089   -1.8888 C   0  0  0  0  0  0  0  0  0  0  0  0
    6.5889   -1.9383   -2.7497 N   0  0  0  0  0  0  0  0  0  0  0  0
    4.3738   -0.9397   -0.2152 C   0  0  0  0  0  0  0  0  0  0  0  0
    1.3837    1.8538    1.6646 C   0  0  0  0  0  0  0  0  0  0  0  0
    1.8475    2.6688    2.7073 C   0  0  0  0  0  0  0  0  0  0  0  0
    1.0243    3.7000    2.9508 N   0  0  0  0  0  0  0  0  0  0  0  0
    0.0275    3.5417    2.0463 N   0  0  0  0  0  0  0  0  0  0  0  0
   -1.0518    4.4962    2.0265 C   0  0  0  0  0  0  0  0  0  0  0  0
    0.2093    2.4422    1.2629 C   0  0  0  0  0  0  0  0  0  0  0  0
   -1.4427    2.3953    0.0045 H   0  0  0  0  0  0  0  0  0  0  0  0
   -2.0745    1.8472   -1.9143 H   0  0  0  0  0  0  0  0  0  0  0  0
   -2.1969    0.4369   -2.9239 H   0  0  0  0  0  0  0  0  0  0  0  0
   -3.1852    0.6584   -0.0322 H   0  0  0  0  0  0  0  0  0  0  0  0
   -4.1914    0.6995   -1.4713 H   0  0  0  0  0  0  0  0  0  0  0  0
   -2.5238   -1.6997   -0.5311 H   0  0  0  0  0  0  0  0  0  0  0  0
   -5.5478   -1.2292   -0.4439 H   0  0  0  0  0  0  0  0  0  0  0  0
   -4.4504   -1.2094    0.9485 H   0  0  0  0  0  0  0  0  0  0  0  0
   -4.7048   -2.7092    0.0470 H   0  0  0  0  0  0  0  0  0  0  0  0
   -2.7609   -1.7820   -2.9836 H   0  0  0  0  0  0  0  0  0  0  0  0
   -3.8216   -2.9833   -2.2520 H   0  0  0  0  0  0  0  0  0  0  0  0
   -4.5018   -1.4654   -2.8618 H   0  0  0  0  0  0  0  0  0  0  0  0
    1.2305   -0.5820   -0.4790 H   0  0  0  0  0  0  0  0  0  0  0  0
    2.2785   -2.3493    2.0597 H   0  0  0  0  0  0  0  0  0  0  0  0
    3.1084   -4.4139    0.9647 H   0  0  0  0  0  0  0  0  0  0  0  0
    4.7540   -4.2641   -0.8809 H   0  0  0  0  0  0  0  0  0  0  0  0
    4.7344    0.0390   -0.5257 H   0  0  0  0  0  0  0  0  0  0  0  0
    2.7459    2.5556    3.3006 H   0  0  0  0  0  0  0  0  0  0  0  0
   -1.6690    4.3318    2.9132 H   0  0  0  0  0  0  0  0  0  0  0  0
   -0.6273    5.5035    2.0377 H   0  0  0  0  0  0  0  0  0  0  0  0
   -1.6500    4.3634    1.1228 H   0  0  0  0  0  0  0  0  0  0  0  0
  1  2  1  0
  2  3  2  3
  3  4  1  0
  4  5  1  0
  5  6  1  0
  6  7  1  0
  6  8  1  0
  2  9  1  0
  9 10  1  0
 10 11  2  3
 11 12  1  0
 12 13  2  0
 13 14  1  0
 14 15  2  0
 15 16  1  0
 16 17  1  0
 17 18  3  0
 16 19  2  0
 10 20  1  0
 20 21  1  0
 21 22  2  0
 22 23  1  0
 23 24  1  0
 23 25  1  0
 25  1  1  0
 19 12  1  0
 25 20  2  0
  1 26  1  0
  4 27  1  0
  4 28  1  0
  5 29  1  0
  5 30  1  0
  6 31  1  0
  7 32  1  0
  7 33  1  0
  7 34  1  0
  8 35  1  0
  8 36  1  0
  8 37  1  0
  9 38  1  0
 13 39  1  0
 14 40  1  0
 15 41  1  0
 19 42  1  0
 21 43  1  0
 24 44  1  0
 24 45  1  0
 24 46  1  0
M  END
>  <ScrubInfo>  (9) 
{"isomerGroup": 0, "isomerId": 8, "confId": 0, "nr_conformers:": 1, "nr_isomers:": 9}

$$$$
