REMARK SMILES Cc1ccc(Nc2nc(NCc3ccco3)nc(N)c2[N+](=O)[O-])cc1
REMARK SMILES IDX 7 1 8 2 9 3 17 4 18 5 20 6 6 7 5 9 2 10 3 11 25 12 4 13
REMARK SMILES IDX 24 14 1 15 21 16 22 17 23 18 10 19 11 21 12 22 13 23 16 24
REMARK SMILES IDX 14 25 15 26 19 27
REMARK H PARENT 6 8 10 20 19 28 19 29
ROOT
ATOM      1  C   UNL     1      -0.551  -1.931  -0.510  1.00  0.00     0.217 A 
ATOM      2  N   UNL     1       0.422  -1.033  -0.264  1.00  0.00    -0.188 NA
ATOM      3  C   UNL     1       1.624  -1.207  -0.825  1.00  0.00     0.227 A 
ATOM      4  N   UNL     1       1.916  -2.216  -1.650  1.00  0.00    -0.189 NA
ATOM      5  C   UNL     1       0.958  -3.111  -1.929  1.00  0.00     0.210 A 
ATOM      6  C   UNL     1      -0.295  -3.002  -1.352  1.00  0.00     0.353 A 
ENDROOT
BRANCH   1   7
ATOM      7  N   UNL     1      -1.835  -1.737   0.058  1.00  0.00    -0.334 N 
ATOM      8  H   UNL     1      -2.200  -2.612   0.437  1.00  0.00     0.168 HD
BRANCH   7   9
ATOM      9  C   UNL     1      -2.357  -0.616   0.740  1.00  0.00     0.040 A 
ATOM     10  C   UNL     1      -3.564   1.582   2.060  1.00  0.00    -0.051 A 
ATOM     11  C   UNL     1      -4.021   0.282   2.285  1.00  0.00     0.005 A 
ATOM     12  C   UNL     1      -2.504   1.778   1.172  1.00  0.00     0.005 A 
ATOM     13  C   UNL     1      -3.434  -0.800   1.620  1.00  0.00     0.026 A 
ATOM     14  C   UNL     1      -1.921   0.692   0.509  1.00  0.00     0.026 A 
ATOM     15  C   UNL     1      -4.167   2.742   2.795  1.00  0.00     0.044 C 
ENDBRANCH   7   9
ENDBRANCH   1   7
BRANCH   6  16
ATOM     16  N   UNL     1      -1.314  -3.976  -1.624  1.00  0.00     0.070 N 
ATOM     17  O   UNL     1      -1.451  -4.357  -2.796  1.00  0.00    -0.258 OA
ATOM     18  O   UNL     1      -1.976  -4.393  -0.660  1.00  0.00    -0.258 OA
ENDBRANCH   6  16
BRANCH   3  19
ATOM     19  N   UNL     1       2.658  -0.328  -0.556  1.00  0.00    -0.347 N 
ATOM     20  H   UNL     1       3.344  -0.445  -1.294  1.00  0.00     0.164 HD
BRANCH  19  21
ATOM     21  C   UNL     1       2.238   1.046  -0.350  1.00  0.00     0.191 C 
BRANCH  21  22
ATOM     22  C   UNL     1       3.386   1.992  -0.248  1.00  0.00     0.122 A 
ATOM     23  C   UNL     1       4.235   2.341   0.782  1.00  0.00     0.047 A 
ATOM     24  O   UNL     1       3.727   2.671  -1.383  1.00  0.00    -0.467 OA
ATOM     25  C   UNL     1       5.140   3.291   0.250  1.00  0.00     0.042 A 
ATOM     26  C   UNL     1       4.789   3.457  -1.069  1.00  0.00     0.195 A 
ENDBRANCH  21  22
ENDBRANCH  19  21
ENDBRANCH   3  19
BRANCH   5  27
ATOM     27  N   UNL     1       1.359  -4.163  -2.764  1.00  0.00    -0.378 N 
ATOM     28  H   UNL     1       0.688  -4.301  -3.523  1.00  0.00     0.158 HD
ATOM     29  H   UNL     1       1.424  -5.040  -2.254  1.00  0.00     0.158 HD
ENDBRANCH   5  27
TORSDOF 7
