_i0
     RDKit          3D

 41 43  0  0  0  0  0  0  0  0999 V2000
   -4.1674    2.7416    2.7954 C   0  0  0  0  0  0  0  0  0  0  0  0
   -3.5645    1.5823    2.0601 C   0  0  0  0  0  0  0  0  0  0  0  0
   -4.0211    0.2817    2.2853 C   0  0  0  0  0  0  0  0  0  0  0  0
   -3.4341   -0.8004    1.6202 C   0  0  0  0  0  0  0  0  0  0  0  0
   -2.3575   -0.6164    0.7395 C   0  0  0  0  0  0  0  0  0  0  0  0
   -1.8349   -1.7368    0.0575 N   0  0  0  0  0  0  0  0  0  0  0  0
   -0.5507   -1.9315   -0.5098 C   0  0  0  0  0  0  0  0  0  0  0  0
    0.4224   -1.0328   -0.2635 N   0  0  0  0  0  0  0  0  0  0  0  0
    1.6242   -1.2072   -0.8248 C   0  0  0  0  0  0  0  0  0  0  0  0
    2.6576   -0.3277   -0.5565 N   0  0  0  0  0  0  0  0  0  0  0  0
    2.2376    1.0464   -0.3505 C   0  0  0  0  0  0  0  0  0  0  0  0
    3.3865    1.9921   -0.2483 C   0  0  0  0  0  0  0  0  0  0  0  0
    4.2352    2.3411    0.7822 C   0  0  0  0  0  0  0  0  0  0  0  0
    5.1398    3.2908    0.2498 C   0  0  0  0  0  0  0  0  0  0  0  0
    4.7893    3.4567   -1.0694 C   0  0  0  0  0  0  0  0  0  0  0  0
    3.7271    2.6708   -1.3827 O   0  0  0  0  0  0  0  0  0  0  0  0
    1.9157   -2.2157   -1.6499 N   0  0  0  0  0  0  0  0  0  0  0  0
    0.9576   -3.1111   -1.9293 C   0  0  0  0  0  0  0  0  0  0  0  0
    1.3586   -4.1632   -2.7638 N   0  0  0  0  0  0  0  0  0  0  0  0
   -0.2947   -3.0025   -1.3520 C   0  0  0  0  0  0  0  0  0  0  0  0
   -1.3137   -3.9763   -1.6240 N   0  0  0  0  0  4  0  0  0  0  0  0
   -1.4510   -4.3571   -2.7958 O   0  0  0  0  0  0  0  0  0  0  0  0
   -1.9756   -4.3933   -0.6605 O   0  0  0  0  0  1  0  0  0  0  0  0
   -1.9205    0.6916    0.5093 C   0  0  0  0  0  0  0  0  0  0  0  0
   -2.5040    1.7780    1.1719 C   0  0  0  0  0  0  0  0  0  0  0  0
   -3.6341    2.9057    3.7368 H   0  0  0  0  0  0  0  0  0  0  0  0
   -4.1148    3.6556    2.1945 H   0  0  0  0  0  0  0  0  0  0  0  0
   -5.2245    2.5582    3.0148 H   0  0  0  0  0  0  0  0  0  0  0  0
   -4.8413    0.0989    2.9758 H   0  0  0  0  0  0  0  0  0  0  0  0
   -3.8282   -1.7963    1.8076 H   0  0  0  0  0  0  0  0  0  0  0  0
   -2.1999   -2.6116    0.4373 H   0  0  0  0  0  0  0  0  0  0  0  0
    3.3442   -0.4452   -1.2945 H   0  0  0  0  0  0  0  0  0  0  0  0
    1.5900    1.3760   -1.1744 H   0  0  0  0  0  0  0  0  0  0  0  0
    1.6527    1.1268    0.5751 H   0  0  0  0  0  0  0  0  0  0  0  0
    4.2037    1.9489    1.7894 H   0  0  0  0  0  0  0  0  0  0  0  0
    5.9508    3.7891    0.7617 H   0  0  0  0  0  0  0  0  0  0  0  0
    5.1766    4.0622   -1.8771 H   0  0  0  0  0  0  0  0  0  0  0  0
    0.6884   -4.3009   -3.5227 H   0  0  0  0  0  0  0  0  0  0  0  0
    1.4241   -5.0404   -2.2541 H   0  0  0  0  0  0  0  0  0  0  0  0
   -1.1232    0.8923   -0.1993 H   0  0  0  0  0  0  0  0  0  0  0  0
   -2.1261    2.7794    0.9786 H   0  0  0  0  0  0  0  0  0  0  0  0
  1  2  1  0
  2  3  2  0
  3  4  1  0
  4  5  2  0
  5  6  1  0
  6  7  1  0
  7  8  2  0
  8  9  1  0
  9 10  1  0
 10 11  1  0
 11 12  1  0
 12 13  2  0
 13 14  1  0
 14 15  2  0
 15 16  1  0
  9 17  2  0
 17 18  1  0
 18 19  1  0
 18 20  2  0
 20 21  1  0
 21 22  2  0
 21 23  1  0
  5 24  1  0
 24 25  2  0
 25  2  1  0
 20  7  1  0
 16 12  1  0
  1 26  1  0
  1 27  1  0
  1 28  1  0
  3 29  1  0
  4 30  1  0
  6 31  1  0
 10 32  1  0
 11 33  1  0
 11 34  1  0
 13 35  1  0
 14 36  1  0
 15 37  1  0
 19 38  1  0
 19 39  1  0
 24 40  1  0
 25 41  1  0
M  CHG  2  21   1  23  -1
M  END
>  <ScrubInfo>  (1) 
{"isomerGroup": 0, "isomerId": 0, "confId": 0, "nr_conformers:": 1, "nr_isomers:": 9}

$$$$
_i1
     RDKit          3D

 41 43  0  0  0  0  0  0  0  0999 V2000
   -0.1805   -0.5534    0.5868 N   0  0  0  0  0  0  0  0  0  0  0  0
    1.1079   -0.7081    0.9980 C   0  0  0  0  0  0  0  0  0  0  0  0
    1.6598    0.4451    1.4768 N   0  0  0  0  0  0  0  0  0  0  0  0
    3.0879    0.5272    1.7612 C   0  0  0  0  0  0  0  0  0  0  0  0
    3.9199    0.8077    0.5594 C   0  0  0  0  0  0  0  0  0  0  0  0
    4.7709    0.0389   -0.2066 C   0  0  0  0  0  0  0  0  0  0  0  0
    5.2526    0.8829   -1.2356 C   0  0  0  0  0  0  0  0  0  0  0  0
    4.6612    2.1082   -1.0361 C   0  0  0  0  0  0  0  0  0  0  0  0
    3.8448    2.0723    0.0488 O   0  0  0  0  0  0  0  0  0  0  0  0
    1.7333   -1.8499    0.9483 N   0  0  0  0  0  0  0  0  0  0  0  0
    1.0564   -2.9646    0.4584 C   0  0  0  0  0  0  0  0  0  0  0  0
    1.8055   -4.1351    0.4487 N   0  0  0  0  0  0  0  0  0  0  0  0
   -0.2299   -2.8853    0.0330 C   0  0  0  0  0  0  0  0  0  0  0  0
   -0.8946   -4.0572   -0.4422 N   0  0  0  0  0  4  0  0  0  0  0  0
   -1.9021   -4.4371    0.1699 O   0  0  0  0  0  0  0  0  0  0  0  0
   -0.3909   -4.6374   -1.4190 O   0  0  0  0  0  1  0  0  0  0  0  0
   -0.9367   -1.5817    0.0677 C   0  0  0  0  0  0  0  0  0  0  0  0
   -2.1551   -1.4714   -0.3827 N   0  0  0  0  0  0  0  0  0  0  0  0
   -2.7931   -0.2260   -0.3414 C   0  0  0  0  0  0  0  0  0  0  0  0
   -2.6650    0.6700   -1.4041 C   0  0  0  0  0  0  0  0  0  0  0  0
   -3.2853    1.9207   -1.3529 C   0  0  0  0  0  0  0  0  0  0  0  0
   -4.0609    2.2809   -0.2444 C   0  0  0  0  0  0  0  0  0  0  0  0
   -4.7085    3.6327   -0.1765 C   0  0  0  0  0  0  0  0  0  0  0  0
   -4.1920    1.3780    0.8175 C   0  0  0  0  0  0  0  0  0  0  0  0
   -3.5702    0.1283    0.7623 C   0  0  0  0  0  0  0  0  0  0  0  0
   -0.6328    0.3354    0.7352 H   0  0  0  0  0  0  0  0  0  0  0  0
    1.3477    1.2926    1.0159 H   0  0  0  0  0  0  0  0  0  0  0  0
    3.2377    1.3412    2.4807 H   0  0  0  0  0  0  0  0  0  0  0  0
    3.4383   -0.3818    2.2648 H   0  0  0  0  0  0  0  0  0  0  0  0
    5.0046   -1.0041   -0.0423 H   0  0  0  0  0  0  0  0  0  0  0  0
    5.9422    0.6293   -2.0286 H   0  0  0  0  0  0  0  0  0  0  0  0
    4.7125    3.0570   -1.5521 H   0  0  0  0  0  0  0  0  0  0  0  0
    1.5907   -4.7485   -0.3394 H   0  0  0  0  0  0  0  0  0  0  0  0
    2.7940   -3.8977    0.4892 H   0  0  0  0  0  0  0  0  0  0  0  0
   -2.0831    0.3904   -2.2782 H   0  0  0  0  0  0  0  0  0  0  0  0
   -3.1698    2.6059   -2.1899 H   0  0  0  0  0  0  0  0  0  0  0  0
   -5.6344    3.5935    0.4070 H   0  0  0  0  0  0  0  0  0  0  0  0
   -4.9707    3.9911   -1.1775 H   0  0  0  0  0  0  0  0  0  0  0  0
   -4.0265    4.3507    0.2893 H   0  0  0  0  0  0  0  0  0  0  0  0
   -4.7899    1.6353    1.6891 H   0  0  0  0  0  0  0  0  0  0  0  0
   -3.6954   -0.5759    1.5811 H   0  0  0  0  0  0  0  0  0  0  0  0
  1  2  1  0
  2  3  1  0
  3  4  1  0
  4  5  1  0
  5  6  2  0
  6  7  1  0
  7  8  2  0
  8  9  1  0
  2 10  2  0
 10 11  1  0
 11 12  1  0
 11 13  2  0
 13 14  1  0
 14 15  2  0
 14 16  1  0
 13 17  1  0
 17 18  2  3
 18 19  1  0
 19 20  2  0
 20 21  1  0
 21 22  2  0
 22 23  1  0
 22 24  1  0
 24 25  2  0
 17  1  1  0
 25 19  1  0
  9  5  1  0
  1 26  1  0
  3 27  1  0
  4 28  1  0
  4 29  1  0
  6 30  1  0
  7 31  1  0
  8 32  1  0
 12 33  1  0
 12 34  1  0
 20 35  1  0
 21 36  1  0
 23 37  1  0
 23 38  1  0
 23 39  1  0
 24 40  1  0
 25 41  1  0
M  CHG  2  14   1  16  -1
M  END
>  <ScrubInfo>  (2) 
{"isomerGroup": 0, "isomerId": 1, "confId": 0, "nr_conformers:": 1, "nr_isomers:": 9}

$$$$
_i2
     RDKit          3D

 41 43  0  0  0  0  0  0  0  0999 V2000
   -0.2552   -0.2210   -0.7180 N   0  0  0  0  0  0  0  0  0  0  0  0
    0.6940   -0.4184   -1.7034 C   0  0  0  0  0  0  0  0  0  0  0  0
    1.9151   -0.9958   -1.3756 N   0  0  0  0  0  0  0  0  0  0  0  0
    2.6881   -0.8417   -0.2072 C   0  0  0  0  0  0  0  0  0  0  0  0
    2.4620    0.1520    0.7513 C   0  0  0  0  0  0  0  0  0  0  0  0
    3.2351    0.2200    1.9164 C   0  0  0  0  0  0  0  0  0  0  0  0
    4.2550   -0.7067    2.1487 C   0  0  0  0  0  0  0  0  0  0  0  0
    5.0596   -0.6542    3.4132 C   0  0  0  0  0  0  0  0  0  0  0  0
    4.4732   -1.7165    1.2089 C   0  0  0  0  0  0  0  0  0  0  0  0
    3.6992   -1.7796    0.0457 C   0  0  0  0  0  0  0  0  0  0  0  0
    0.3122   -0.0618   -2.9539 C   0  0  0  0  0  0  0  0  0  0  0  0
    1.2130   -0.1949   -4.0725 N   0  0  0  0  0  4  0  0  0  0  0  0
    2.0737   -1.0889   -4.0358 O   0  0  0  0  0  0  0  0  0  0  0  0
    1.0800    0.6057   -5.0105 O   0  0  0  0  0  1  0  0  0  0  0  0
   -1.0554    0.5298   -3.1479 C   0  0  0  0  0  0  0  0  0  0  0  0
   -1.5447    0.9334   -4.3688 N   0  0  0  0  0  0  0  0  0  0  0  0
   -1.8968    0.6992   -2.1575 N   0  0  0  0  0  0  0  0  0  0  0  0
   -1.5023    0.2887   -0.9096 C   0  0  0  0  0  0  0  0  0  0  0  0
   -2.3055    0.3731    0.0961 N   0  0  0  0  0  0  0  0  0  0  0  0
   -3.6343    0.9295   -0.1771 C   0  0  0  0  0  0  0  0  0  0  0  0
   -4.4378    0.9756    1.0767 C   0  0  0  0  0  0  0  0  0  0  0  0
   -4.2712    0.4591    2.3463 C   0  0  0  0  0  0  0  0  0  0  0  0
   -5.4053    0.8531    3.0948 C   0  0  0  0  0  0  0  0  0  0  0  0
   -6.1938    1.5826    2.2371 C   0  0  0  0  0  0  0  0  0  0  0  0
   -5.6175    1.6621    1.0104 O   0  0  0  0  0  0  0  0  0  0  0  0
   -0.0551   -0.6045    0.1962 H   0  0  0  0  0  0  0  0  0  0  0  0
    2.4704   -1.3236   -2.1727 H   0  0  0  0  0  0  0  0  0  0  0  0
    1.7042    0.9158    0.6014 H   0  0  0  0  0  0  0  0  0  0  0  0
    3.0357    1.0087    2.6389 H   0  0  0  0  0  0  0  0  0  0  0  0
    6.0692   -1.0460    3.2503 H   0  0  0  0  0  0  0  0  0  0  0  0
    5.1650    0.3770    3.7665 H   0  0  0  0  0  0  0  0  0  0  0  0
    4.5712   -1.2473    4.1924 H   0  0  0  0  0  0  0  0  0  0  0  0
    5.2444   -2.4655    1.3749 H   0  0  0  0  0  0  0  0  0  0  0  0
    3.8868   -2.5846   -0.6616 H   0  0  0  0  0  0  0  0  0  0  0  0
   -2.3528    1.5447   -4.2990 H   0  0  0  0  0  0  0  0  0  0  0  0
   -0.8637    1.2323   -5.0676 H   0  0  0  0  0  0  0  0  0  0  0  0
   -3.5505    1.9501   -0.5708 H   0  0  0  0  0  0  0  0  0  0  0  0
   -4.1714    0.3080   -0.9040 H   0  0  0  0  0  0  0  0  0  0  0  0
   -3.4269   -0.1286    2.6784 H   0  0  0  0  0  0  0  0  0  0  0  0
   -5.6219    0.6328    4.1301 H   0  0  0  0  0  0  0  0  0  0  0  0
   -7.1447    2.0862    2.3387 H   0  0  0  0  0  0  0  0  0  0  0  0
  1  2  1  0
  2  3  1  0
  3  4  1  0
  4  5  2  0
  5  6  1  0
  6  7  2  0
  7  8  1  0
  7  9  1  0
  9 10  2  0
  2 11  2  0
 11 12  1  0
 12 13  2  0
 12 14  1  0
 11 15  1  0
 15 16  1  0
 15 17  2  0
 17 18  1  0
 18 19  2  3
 19 20  1  0
 20 21  1  0
 21 22  2  0
 22 23  1  0
 23 24  2  0
 24 25  1  0
 18  1  1  0
 25 21  1  0
 10  4  1  0
  1 26  1  0
  3 27  1  0
  5 28  1  0
  6 29  1  0
  8 30  1  0
  8 31  1  0
  8 32  1  0
  9 33  1  0
 10 34  1  0
 16 35  1  0
 16 36  1  0
 20 37  1  0
 20 38  1  0
 22 39  1  0
 23 40  1  0
 24 41  1  0
M  CHG  2  12   1  14  -1
M  END
>  <ScrubInfo>  (3) 
{"isomerGroup": 0, "isomerId": 2, "confId": 0, "nr_conformers:": 1, "nr_isomers:": 9}

$$$$
_i3
     RDKit          3D

 41 43  0  0  0  0  0  0  0  0999 V2000
    1.9606    0.2415    0.6480 N   0  0  0  0  0  0  0  0  0  0  0  0
    1.0649   -0.6000    1.2695 C   0  0  0  0  0  0  0  0  0  0  0  0
    1.4121   -1.0606    2.5251 N   0  0  0  0  0  0  0  0  0  0  0  0
   -0.0552   -0.8966    0.5730 C   0  0  0  0  0  0  0  0  0  0  0  0
   -0.9742   -1.8785    1.0713 N   0  0  0  0  0  4  0  0  0  0  0  0
   -1.3668   -1.7637    2.2425 O   0  0  0  0  0  0  0  0  0  0  0  0
   -1.2692   -2.8164    0.3184 O   0  0  0  0  0  1  0  0  0  0  0  0
   -0.2396   -0.2900   -0.7825 C   0  0  0  0  0  0  0  0  0  0  0  0
   -1.3817   -0.4452   -1.5503 N   0  0  0  0  0  0  0  0  0  0  0  0
   -2.6721   -0.1002   -1.0759 C   0  0  0  0  0  0  0  0  0  0  0  0
   -3.7830   -0.7164   -1.6617 C   0  0  0  0  0  0  0  0  0  0  0  0
   -5.0800   -0.3742   -1.2706 C   0  0  0  0  0  0  0  0  0  0  0  0
   -5.2894    0.6041   -0.2939 C   0  0  0  0  0  0  0  0  0  0  0  0
   -6.6813    0.9943    0.1061 C   0  0  0  0  0  0  0  0  0  0  0  0
   -4.1828    1.2577    0.2578 C   0  0  0  0  0  0  0  0  0  0  0  0
   -2.8856    0.9132   -0.1343 C   0  0  0  0  0  0  0  0  0  0  0  0
    0.6928    0.4438   -1.3459 N   0  0  0  0  0  0  0  0  0  0  0  0
    1.8381    0.7070   -0.6343 C   0  0  0  0  0  0  0  0  0  0  0  0
    2.6886    1.4046   -1.2957 N   0  0  0  0  0  0  0  0  0  0  0  0
    3.9343    1.8197   -0.6597 C   0  0  0  0  0  0  0  0  0  0  0  0
    4.8557    0.6736   -0.4409 C   0  0  0  0  0  0  0  0  0  0  0  0
    5.6700   -0.0617   -1.2758 C   0  0  0  0  0  0  0  0  0  0  0  0
    6.2976   -1.0362   -0.4643 C   0  0  0  0  0  0  0  0  0  0  0  0
    5.8240   -0.8375    0.8112 C   0  0  0  0  0  0  0  0  0  0  0  0
    4.9384    0.1925    0.8364 O   0  0  0  0  0  0  0  0  0  0  0  0
    2.8361    0.3895    1.1325 H   0  0  0  0  0  0  0  0  0  0  0  0
    0.7902   -1.7680    2.9224 H   0  0  0  0  0  0  0  0  0  0  0  0
    2.3934   -1.3104    2.6176 H   0  0  0  0  0  0  0  0  0  0  0  0
   -1.2427    0.0155   -2.4502 H   0  0  0  0  0  0  0  0  0  0  0  0
   -3.6423   -1.4872   -2.4163 H   0  0  0  0  0  0  0  0  0  0  0  0
   -5.9247   -0.8800   -1.7330 H   0  0  0  0  0  0  0  0  0  0  0  0
   -6.7075    1.3350    1.1465 H   0  0  0  0  0  0  0  0  0  0  0  0
   -7.3640    0.1417    0.0267 H   0  0  0  0  0  0  0  0  0  0  0  0
   -7.0443    1.7999   -0.5396 H   0  0  0  0  0  0  0  0  0  0  0  0
   -4.3232    2.0464    0.9941 H   0  0  0  0  0  0  0  0  0  0  0  0
   -2.0539    1.4650    0.2963 H   0  0  0  0  0  0  0  0  0  0  0  0
    4.4261    2.5471   -1.3161 H   0  0  0  0  0  0  0  0  0  0  0  0
    3.7353    2.3513    0.2791 H   0  0  0  0  0  0  0  0  0  0  0  0
    5.7869    0.0908   -2.3402 H   0  0  0  0  0  0  0  0  0  0  0  0
    7.0080   -1.7908   -0.7715 H   0  0  0  0  0  0  0  0  0  0  0  0
    6.0103   -1.3205    1.7604 H   0  0  0  0  0  0  0  0  0  0  0  0
  1  2  1  0
  2  3  1  0
  2  4  2  0
  4  5  1  0
  5  6  2  0
  5  7  1  0
  4  8  1  0
  8  9  1  0
  9 10  1  0
 10 11  2  0
 11 12  1  0
 12 13  2  0
 13 14  1  0
 13 15  1  0
 15 16  2  0
  8 17  2  0
 17 18  1  0
 18 19  2  3
 19 20  1  0
 20 21  1  0
 21 22  2  0
 22 23  1  0
 23 24  2  0
 24 25  1  0
 18  1  1  0
 25 21  1  0
 16 10  1  0
  1 26  1  0
  3 27  1  0
  3 28  1  0
  9 29  1  0
 11 30  1  0
 12 31  1  0
 14 32  1  0
 14 33  1  0
 14 34  1  0
 15 35  1  0
 16 36  1  0
 20 37  1  0
 20 38  1  0
 22 39  1  0
 23 40  1  0
 24 41  1  0
M  CHG  2   5   1   7  -1
M  END
>  <ScrubInfo>  (4) 
{"isomerGroup": 0, "isomerId": 3, "confId": 0, "nr_conformers:": 1, "nr_isomers:": 9}

$$$$
_i4
     RDKit          3D

 41 43  0  0  0  0  0  0  0  0999 V2000
   -1.8598   -1.5819   -1.8012 N   0  0  0  0  0  0  0  0  0  0  0  0
   -1.8884   -1.2861   -0.4705 C   0  0  0  0  0  0  0  0  0  0  0  0
   -2.8685   -1.9552    0.2053 N   0  0  0  0  0  0  0  0  0  0  0  0
   -3.1829   -1.6141    1.5900 C   0  0  0  0  0  0  0  0  0  0  0  0
   -4.0981   -0.4481    1.7211 C   0  0  0  0  0  0  0  0  0  0  0  0
   -3.9171    0.8630    2.1084 C   0  0  0  0  0  0  0  0  0  0  0  0
   -5.1822    1.4885    1.9998 C   0  0  0  0  0  0  0  0  0  0  0  0
   -6.0508    0.5229    1.5482 C   0  0  0  0  0  0  0  0  0  0  0  0
   -5.4013   -0.6566    1.3697 O   0  0  0  0  0  0  0  0  0  0  0  0
   -1.0464   -0.4668    0.0918 N   0  0  0  0  0  0  0  0  0  0  0  0
   -0.0734    0.1530   -0.7027 C   0  0  0  0  0  0  0  0  0  0  0  0
    0.7562    1.0503   -0.0230 N   0  0  0  0  0  0  0  0  0  0  0  0
    2.1554    0.8594    0.1382 C   0  0  0  0  0  0  0  0  0  0  0  0
    2.9373    1.9733    0.4654 C   0  0  0  0  0  0  0  0  0  0  0  0
    4.3079    1.8425    0.7049 C   0  0  0  0  0  0  0  0  0  0  0  0
    4.9213    0.5883    0.6332 C   0  0  0  0  0  0  0  0  0  0  0  0
    6.3870    0.4403    0.9133 C   0  0  0  0  0  0  0  0  0  0  0  0
    4.1353   -0.5339    0.3520 C   0  0  0  0  0  0  0  0  0  0  0  0
    2.7637   -0.4004    0.1132 C   0  0  0  0  0  0  0  0  0  0  0  0
    0.0066   -0.0883   -2.0353 C   0  0  0  0  0  0  0  0  0  0  0  0
    0.9450    0.6120   -2.8486 N   0  0  0  0  0  4  0  0  0  0  0  0
    0.6672    1.7804   -3.1605 O   0  0  0  0  0  0  0  0  0  0  0  0
    1.9620   -0.0048   -3.1991 O   0  0  0  0  0  1  0  0  0  0  0  0
   -0.9443   -1.0334   -2.6589 C   0  0  0  0  0  0  0  0  0  0  0  0
   -0.9268   -1.3314   -3.9191 N   0  0  0  0  0  0  0  0  0  0  0  0
   -2.4571   -2.3202   -2.1343 H   0  0  0  0  0  0  0  0  0  0  0  0
   -3.7298   -2.0841   -0.3150 H   0  0  0  0  0  0  0  0  0  0  0  0
   -3.6687   -2.4859    2.0447 H   0  0  0  0  0  0  0  0  0  0  0  0
   -2.2666   -1.4491    2.1692 H   0  0  0  0  0  0  0  0  0  0  0  0
   -2.9833    1.3108    2.4203 H   0  0  0  0  0  0  0  0  0  0  0  0
   -5.4302    2.5179    2.2175 H   0  0  0  0  0  0  0  0  0  0  0  0
   -7.1062    0.5168    1.3129 H   0  0  0  0  0  0  0  0  0  0  0  0
    0.3654    1.1426    0.9167 H   0  0  0  0  0  0  0  0  0  0  0  0
    2.4811    2.9592    0.5155 H   0  0  0  0  0  0  0  0  0  0  0  0
    4.8921    2.7286    0.9416 H   0  0  0  0  0  0  0  0  0  0  0  0
    6.8093   -0.3991    0.3510 H   0  0  0  0  0  0  0  0  0  0  0  0
    6.5482    0.2675    1.9818 H   0  0  0  0  0  0  0  0  0  0  0  0
    6.9349    1.3398    0.6134 H   0  0  0  0  0  0  0  0  0  0  0  0
    4.5852   -1.5235    0.3153 H   0  0  0  0  0  0  0  0  0  0  0  0
    2.1849   -1.2976   -0.0867 H   0  0  0  0  0  0  0  0  0  0  0  0
   -1.6638   -1.9968   -4.1597 H   0  0  0  0  0  0  0  0  0  0  0  0
  1  2  1  0
  2  3  1  0
  3  4  1  0
  4  5  1  0
  5  6  2  0
  6  7  1  0
  7  8  2  0
  8  9  1  0
  2 10  2  0
 10 11  1  0
 11 12  1  0
 12 13  1  0
 13 14  2  0
 14 15  1  0
 15 16  2  0
 16 17  1  0
 16 18  1  0
 18 19  2  0
 11 20  2  0
 20 21  1  0
 21 22  2  0
 21 23  1  0
 20 24  1  0
 24 25  2  3
 24  1  1  0
  9  5  1  0
 19 13  1  0
  1 26  1  0
  3 27  1  0
  4 28  1  0
  4 29  1  0
  6 30  1  0
  7 31  1  0
  8 32  1  0
 12 33  1  0
 14 34  1  0
 15 35  1  0
 17 36  1  0
 17 37  1  0
 17 38  1  0
 18 39  1  0
 19 40  1  0
 25 41  1  0
M  CHG  2  21   1  23  -1
M  END
>  <ScrubInfo>  (5) 
{"isomerGroup": 0, "isomerId": 4, "confId": 0, "nr_conformers:": 1, "nr_isomers:": 9}

$$$$
_i5
     RDKit          3D

 41 43  0  0  0  0  0  0  0  0999 V2000
    0.3360   -0.5317    0.8395 N   0  0  0  0  0  0  0  0  0  0  0  0
    1.4029    0.0737    1.4176 C   0  0  0  0  0  0  0  0  0  0  0  0
    2.1578    0.7831    0.5362 N   0  0  0  0  0  0  0  0  0  0  0  0
    3.4307    1.3604    0.9477 C   0  0  0  0  0  0  0  0  0  0  0  0
    4.1317    2.0724   -0.1588 C   0  0  0  0  0  0  0  0  0  0  0  0
    4.6875    3.3292   -0.2795 C   0  0  0  0  0  0  0  0  0  0  0  0
    5.2084    3.4109   -1.5934 C   0  0  0  0  0  0  0  0  0  0  0  0
    4.9368    2.2025   -2.1905 C   0  0  0  0  0  0  0  0  0  0  0  0
    4.2809    1.3823   -1.3296 O   0  0  0  0  0  0  0  0  0  0  0  0
    1.6557    0.0055    2.6839 N   0  0  0  0  0  0  0  0  0  0  0  0
    0.8197   -0.7301    3.4940 C   0  0  0  0  0  0  0  0  0  0  0  0
    1.1485   -0.6970    4.7402 N   0  0  0  0  0  0  0  0  0  0  0  0
   -0.3215   -1.4582    2.8605 C   0  0  0  0  0  0  0  0  0  0  0  0
   -1.1644   -2.2970    3.6827 N   0  0  0  0  0  4  0  0  0  0  0  0
   -1.0957   -2.1559    4.9116 O   0  0  0  0  0  0  0  0  0  0  0  0
   -1.9087   -3.1224    3.1278 O   0  0  0  0  0  1  0  0  0  0  0  0
   -0.5666   -1.3191    1.5326 C   0  0  0  0  0  0  0  0  0  0  0  0
   -1.5896   -1.9411    0.8233 N   0  0  0  0  0  0  0  0  0  0  0  0
   -2.3762   -1.4114   -0.2223 C   0  0  0  0  0  0  0  0  0  0  0  0
   -3.1299   -2.3025   -0.9987 C   0  0  0  0  0  0  0  0  0  0  0  0
   -3.8969   -1.8526   -2.0779 C   0  0  0  0  0  0  0  0  0  0  0  0
   -3.9154   -0.4971   -2.4155 C   0  0  0  0  0  0  0  0  0  0  0  0
   -4.7654   -0.0052   -3.5490 C   0  0  0  0  0  0  0  0  0  0  0  0
   -3.1756    0.4003   -1.6405 C   0  0  0  0  0  0  0  0  0  0  0  0
   -2.4077   -0.0543   -0.5622 C   0  0  0  0  0  0  0  0  0  0  0  0
    0.2000   -0.4904   -0.1609 H   0  0  0  0  0  0  0  0  0  0  0  0
    2.2126    0.4183   -0.4077 H   0  0  0  0  0  0  0  0  0  0  0  0
    3.2638    2.0611    1.7745 H   0  0  0  0  0  0  0  0  0  0  0  0
    4.0914    0.5659    1.3153 H   0  0  0  0  0  0  0  0  0  0  0  0
    4.7121    4.0911    0.4876 H   0  0  0  0  0  0  0  0  0  0  0  0
    5.7192    4.2470   -2.0500 H   0  0  0  0  0  0  0  0  0  0  0  0
    5.1337    1.7909   -3.1708 H   0  0  0  0  0  0  0  0  0  0  0  0
    0.4888   -1.2430    5.3131 H   0  0  0  0  0  0  0  0  0  0  0  0
   -2.0998   -2.6593    1.3508 H   0  0  0  0  0  0  0  0  0  0  0  0
   -3.1204   -3.3665   -0.7719 H   0  0  0  0  0  0  0  0  0  0  0  0
   -4.4761   -2.5711   -2.6537 H   0  0  0  0  0  0  0  0  0  0  0  0
   -5.7664    0.2453   -3.1848 H   0  0  0  0  0  0  0  0  0  0  0  0
   -4.8532   -0.7672   -4.3306 H   0  0  0  0  0  0  0  0  0  0  0  0
   -4.3236    0.8840   -4.0110 H   0  0  0  0  0  0  0  0  0  0  0  0
   -3.1953    1.4647   -1.8655 H   0  0  0  0  0  0  0  0  0  0  0  0
   -1.8698    0.6845    0.0257 H   0  0  0  0  0  0  0  0  0  0  0  0
  1  2  1  0
  2  3  1  0
  3  4  1  0
  4  5  1  0
  5  6  2  0
  6  7  1  0
  7  8  2  0
  8  9  1  0
  2 10  2  0
 10 11  1  0
 11 12  2  3
 11 13  1  0
 13 14  1  0
 14 15  2  0
 14 16  1  0
 13 17  2  0
 17 18  1  0
 18 19  1  0
 19 20  2  0
 20 21  1  0
 21 22  2  0
 22 23  1  0
 22 24  1  0
 24 25  2  0
 17  1  1  0
 25 19  1  0
  9  5  1  0
  1 26  1  0
  3 27  1  0
  4 28  1  0
  4 29  1  0
  6 30  1  0
  7 31  1  0
  8 32  1  0
 12 33  1  0
 18 34  1  0
 20 35  1  0
 21 36  1  0
 23 37  1  0
 23 38  1  0
 23 39  1  0
 24 40  1  0
 25 41  1  0
M  CHG  2  14   1  16  -1
M  END
>  <ScrubInfo>  (6) 
{"isomerGroup": 0, "isomerId": 5, "confId": 0, "nr_conformers:": 1, "nr_isomers:": 9}

$$$$
_i6
     RDKit          3D

 41 43  0  0  0  0  0  0  0  0999 V2000
   -1.5507   -1.2360   -0.5532 N   0  0  0  0  0  0  0  0  0  0  0  0
   -1.7507    0.0955   -0.3295 C   0  0  0  0  0  0  0  0  0  0  0  0
   -3.0469    0.4807   -0.1786 N   0  0  0  0  0  0  0  0  0  0  0  0
   -3.9160   -0.1502    0.8103 C   0  0  0  0  0  0  0  0  0  0  0  0
   -5.3036    0.3906    0.8289 C   0  0  0  0  0  0  0  0  0  0  0  0
   -6.1308    0.9264   -0.1377 C   0  0  0  0  0  0  0  0  0  0  0  0
   -7.3447    1.2548    0.5121 C   0  0  0  0  0  0  0  0  0  0  0  0
   -7.1836    0.8959    1.8294 C   0  0  0  0  0  0  0  0  0  0  0  0
   -5.9492    0.3672    2.0309 O   0  0  0  0  0  0  0  0  0  0  0  0
   -0.8061    0.9812   -0.3022 N   0  0  0  0  0  0  0  0  0  0  0  0
    0.5048    0.5371   -0.4064 C   0  0  0  0  0  0  0  0  0  0  0  0
    1.3540    1.3559    0.1234 N   0  0  0  0  0  0  0  0  0  0  0  0
    2.7079    1.0406    0.2528 C   0  0  0  0  0  0  0  0  0  0  0  0
    3.6481    1.6435   -0.5826 C   0  0  0  0  0  0  0  0  0  0  0  0
    5.0072    1.3483   -0.4502 C   0  0  0  0  0  0  0  0  0  0  0  0
    5.4446    0.4516    0.5313 C   0  0  0  0  0  0  0  0  0  0  0  0
    6.9063    0.1574    0.6932 C   0  0  0  0  0  0  0  0  0  0  0  0
    4.5056   -0.1158    1.4001 C   0  0  0  0  0  0  0  0  0  0  0  0
    3.1472    0.1811    1.2631 C   0  0  0  0  0  0  0  0  0  0  0  0
    0.6820   -0.7981   -1.0393 C   0  0  0  0  0  0  0  0  0  0  0  0
    1.9032   -1.1487   -1.6900 N   0  0  0  0  0  4  0  0  0  0  0  0
    2.2944   -0.4093   -2.6025 O   0  0  0  0  0  0  0  0  0  0  0  0
    2.4509   -2.2091   -1.3445 O   0  0  0  0  0  1  0  0  0  0  0  0
   -0.3421   -1.6842   -1.0570 C   0  0  0  0  0  0  0  0  0  0  0  0
   -0.3199   -2.9717   -1.5700 N   0  0  0  0  0  0  0  0  0  0  0  0
   -2.3442   -1.7313   -0.9425 H   0  0  0  0  0  0  0  0  0  0  0  0
   -3.0667    1.4920   -0.0484 H   0  0  0  0  0  0  0  0  0  0  0  0
   -3.4672   -0.0258    1.8035 H   0  0  0  0  0  0  0  0  0  0  0  0
   -3.9814   -1.2273    0.6168 H   0  0  0  0  0  0  0  0  0  0  0  0
   -5.8823    1.0642   -1.1814 H   0  0  0  0  0  0  0  0  0  0  0  0
   -8.2284    1.6990    0.0757 H   0  0  0  0  0  0  0  0  0  0  0  0
   -7.8184    0.9484    2.7032 H   0  0  0  0  0  0  0  0  0  0  0  0
    3.3182    2.3397   -1.3493 H   0  0  0  0  0  0  0  0  0  0  0  0
    5.7195    1.8232   -1.1208 H   0  0  0  0  0  0  0  0  0  0  0  0
    7.4249    0.2138   -0.2697 H   0  0  0  0  0  0  0  0  0  0  0  0
    7.0600   -0.8534    1.0855 H   0  0  0  0  0  0  0  0  0  0  0  0
    7.3590    0.8772    1.3820 H   0  0  0  0  0  0  0  0  0  0  0  0
    4.8262   -0.7883    2.1922 H   0  0  0  0  0  0  0  0  0  0  0  0
    2.4317   -0.2515    1.9566 H   0  0  0  0  0  0  0  0  0  0  0  0
    0.6283   -3.3510   -1.6711 H   0  0  0  0  0  0  0  0  0  0  0  0
   -0.8913   -3.6135   -1.0244 H   0  0  0  0  0  0  0  0  0  0  0  0
  1  2  1  0
  2  3  1  0
  3  4  1  0
  4  5  1  0
  5  6  2  0
  6  7  1  0
  7  8  2  0
  8  9  1  0
  2 10  2  0
 10 11  1  0
 11 12  2  3
 12 13  1  0
 13 14  2  0
 14 15  1  0
 15 16  2  0
 16 17  1  0
 16 18  1  0
 18 19  2  0
 11 20  1  0
 20 21  1  0
 21 22  2  0
 21 23  1  0
 20 24  2  0
 24 25  1  0
 24  1  1  0
  9  5  1  0
 19 13  1  0
  1 26  1  0
  3 27  1  0
  4 28  1  0
  4 29  1  0
  6 30  1  0
  7 31  1  0
  8 32  1  0
 14 33  1  0
 15 34  1  0
 17 35  1  0
 17 36  1  0
 17 37  1  0
 18 38  1  0
 19 39  1  0
 25 40  1  0
 25 41  1  0
M  CHG  2  21   1  23  -1
M  END
>  <ScrubInfo>  (7) 
{"isomerGroup": 0, "isomerId": 6, "confId": 0, "nr_conformers:": 1, "nr_isomers:": 9}

$$$$
_i7
     RDKit          3D

 41 43  0  0  0  0  0  0  0  0999 V2000
   -1.6146    0.7730   -1.2883 N   0  0  0  0  0  0  0  0  0  0  0  0
   -0.3478    0.8459   -1.8623 C   0  0  0  0  0  0  0  0  0  0  0  0
   -0.2827    1.4703   -3.1008 N   0  0  0  0  0  0  0  0  0  0  0  0
    0.7054    0.2976   -1.1978 C   0  0  0  0  0  0  0  0  0  0  0  0
    1.9638    0.2346   -1.8666 N   0  0  0  0  0  4  0  0  0  0  0  0
    2.3576   -0.8799   -2.2339 O   0  0  0  0  0  0  0  0  0  0  0  0
    2.5296    1.3133   -2.1061 O   0  0  0  0  0  1  0  0  0  0  0  0
    0.4625   -0.3182    0.1445 C   0  0  0  0  0  0  0  0  0  0  0  0
    1.2943   -0.7578    1.0490 N   0  0  0  0  0  0  0  0  0  0  0  0
    2.6808   -0.6570    0.9223 C   0  0  0  0  0  0  0  0  0  0  0  0
    3.3351    0.5458    1.1995 C   0  0  0  0  0  0  0  0  0  0  0  0
    4.7260    0.6343    1.1019 C   0  0  0  0  0  0  0  0  0  0  0  0
    5.4838   -0.4902    0.7557 C   0  0  0  0  0  0  0  0  0  0  0  0
    6.9731   -0.3884    0.6098 C   0  0  0  0  0  0  0  0  0  0  0  0
    4.8273   -1.6987    0.4965 C   0  0  0  0  0  0  0  0  0  0  0  0
    3.4362   -1.7831    0.5957 C   0  0  0  0  0  0  0  0  0  0  0  0
   -0.8643   -0.3967    0.5146 N   0  0  0  0  0  0  0  0  0  0  0  0
   -1.9561    0.1155   -0.1261 C   0  0  0  0  0  0  0  0  0  0  0  0
   -3.1231   -0.0506    0.3913 N   0  0  0  0  0  0  0  0  0  0  0  0
   -4.2724    0.5197   -0.3108 C   0  0  0  0  0  0  0  0  0  0  0  0
   -5.5235    0.2888    0.4575 C   0  0  0  0  0  0  0  0  0  0  0  0
   -5.8351   -0.4094    1.6066 C   0  0  0  0  0  0  0  0  0  0  0  0
   -7.2242   -0.2408    1.8165 C   0  0  0  0  0  0  0  0  0  0  0  0
   -7.6736    0.5475    0.7839 C   0  0  0  0  0  0  0  0  0  0  0  0
   -6.6504    0.8740   -0.0468 O   0  0  0  0  0  0  0  0  0  0  0  0
   -2.3597    1.0706   -1.9025 H   0  0  0  0  0  0  0  0  0  0  0  0
    0.6618    1.7636   -3.3703 H   0  0  0  0  0  0  0  0  0  0  0  0
   -0.9208    2.2589   -3.1799 H   0  0  0  0  0  0  0  0  0  0  0  0
    2.7630    1.4209    1.4941 H   0  0  0  0  0  0  0  0  0  0  0  0
    5.2139    1.5855    1.3016 H   0  0  0  0  0  0  0  0  0  0  0  0
    7.4554   -1.3414    0.8514 H   0  0  0  0  0  0  0  0  0  0  0  0
    7.3820    0.3642    1.2921 H   0  0  0  0  0  0  0  0  0  0  0  0
    7.2301   -0.1119   -0.4173 H   0  0  0  0  0  0  0  0  0  0  0  0
    5.3928   -2.5835    0.2138 H   0  0  0  0  0  0  0  0  0  0  0  0
    2.9386   -2.7289    0.4004 H   0  0  0  0  0  0  0  0  0  0  0  0
   -1.0432   -0.8343    1.4092 H   0  0  0  0  0  0  0  0  0  0  0  0
   -4.1403    1.6004   -0.4435 H   0  0  0  0  0  0  0  0  0  0  0  0
   -4.3809    0.0549   -1.2981 H   0  0  0  0  0  0  0  0  0  0  0  0
   -5.1352   -0.9688    2.2118 H   0  0  0  0  0  0  0  0  0  0  0  0
   -7.8236   -0.6439    2.6202 H   0  0  0  0  0  0  0  0  0  0  0  0
   -8.6415    0.9440    0.5111 H   0  0  0  0  0  0  0  0  0  0  0  0
  1  2  1  0
  2  3  1  0
  2  4  2  0
  4  5  1  0
  5  6  2  0
  5  7  1  0
  4  8  1  0
  8  9  2  3
  9 10  1  0
 10 11  2  0
 11 12  1  0
 12 13  2  0
 13 14  1  0
 13 15  1  0
 15 16  2  0
  8 17  1  0
 17 18  1  0
 18 19  2  3
 19 20  1  0
 20 21  1  0
 21 22  2  0
 22 23  1  0
 23 24  2  0
 24 25  1  0
 18  1  1  0
 25 21  1  0
 16 10  1  0
  1 26  1  0
  3 27  1  0
  3 28  1  0
 11 29  1  0
 12 30  1  0
 14 31  1  0
 14 32  1  0
 14 33  1  0
 15 34  1  0
 16 35  1  0
 17 36  1  0
 20 37  1  0
 20 38  1  0
 22 39  1  0
 23 40  1  0
 24 41  1  0
M  CHG  2   5   1   7  -1
M  END
>  <ScrubInfo>  (8) 
{"isomerGroup": 0, "isomerId": 7, "confId": 0, "nr_conformers:": 1, "nr_isomers:": 9}

$$$$
_i8
     RDKit          3D

 41 43  0  0  0  0  0  0  0  0999 V2000
   -1.5430    0.7774   -1.7338 N   0  0  0  0  0  0  0  0  0  0  0  0
   -1.2063   -0.2783   -0.9210 C   0  0  0  0  0  0  0  0  0  0  0  0
   -1.7125   -1.4621   -0.8808 N   0  0  0  0  0  0  0  0  0  0  0  0
   -2.7584   -1.8303   -1.8368 C   0  0  0  0  0  0  0  0  0  0  0  0
   -4.0316   -1.1100   -1.5743 C   0  0  0  0  0  0  0  0  0  0  0  0
   -5.0614   -1.2948   -0.6767 C   0  0  0  0  0  0  0  0  0  0  0  0
   -5.9914   -0.2556   -0.9175 C   0  0  0  0  0  0  0  0  0  0  0  0
   -5.4699    0.4986   -1.9422 C   0  0  0  0  0  0  0  0  0  0  0  0
   -4.2752   -0.0073   -2.3460 O   0  0  0  0  0  0  0  0  0  0  0  0
   -0.1954    0.0411   -0.0496 N   0  0  0  0  0  0  0  0  0  0  0  0
    0.4941    1.2500    0.0756 C   0  0  0  0  0  0  0  0  0  0  0  0
    1.4905    1.3608    1.0422 N   0  0  0  0  0  0  0  0  0  0  0  0
    2.4425    0.4052    1.4490 C   0  0  0  0  0  0  0  0  0  0  0  0
    3.1105    0.6091    2.6645 C   0  0  0  0  0  0  0  0  0  0  0  0
    4.0306   -0.3247    3.1518 C   0  0  0  0  0  0  0  0  0  0  0  0
    4.2914   -1.4978    2.4398 C   0  0  0  0  0  0  0  0  0  0  0  0
    5.3033   -2.4849    2.9405 C   0  0  0  0  0  0  0  0  0  0  0  0
    3.6358   -1.7069    1.2236 C   0  0  0  0  0  0  0  0  0  0  0  0
    2.7146   -0.7701    0.7406 C   0  0  0  0  0  0  0  0  0  0  0  0
    0.1056    2.2732   -0.7291 C   0  0  0  0  0  0  0  0  0  0  0  0
    0.7945    3.5282   -0.6838 N   0  0  0  0  0  4  0  0  0  0  0  0
    0.9511    4.0506    0.4330 O   0  0  0  0  0  0  0  0  0  0  0  0
    1.2563    3.9733   -1.7423 O   0  0  0  0  0  1  0  0  0  0  0  0
   -1.0181    2.0484   -1.6774 C   0  0  0  0  0  0  0  0  0  0  0  0
   -1.5167    3.0047   -2.3985 N   0  0  0  0  0  0  0  0  0  0  0  0
   -2.3679    0.6480   -2.3058 H   0  0  0  0  0  0  0  0  0  0  0  0
   -2.4167   -1.6622   -2.8655 H   0  0  0  0  0  0  0  0  0  0  0  0
   -2.9346   -2.9086   -1.7494 H   0  0  0  0  0  0  0  0  0  0  0  0
   -5.1248   -2.0814    0.0627 H   0  0  0  0  0  0  0  0  0  0  0  0
   -6.9266   -0.0762   -0.4056 H   0  0  0  0  0  0  0  0  0  0  0  0
   -5.8096    1.3808   -2.4676 H   0  0  0  0  0  0  0  0  0  0  0  0
    0.0487   -0.6664    0.6343 H   0  0  0  0  0  0  0  0  0  0  0  0
    1.7564    2.3171    1.2928 H   0  0  0  0  0  0  0  0  0  0  0  0
    2.9136    1.5026    3.2529 H   0  0  0  0  0  0  0  0  0  0  0  0
    4.5369   -0.1288    4.0944 H   0  0  0  0  0  0  0  0  0  0  0  0
    6.2956   -2.2318    2.5548 H   0  0  0  0  0  0  0  0  0  0  0  0
    5.3386   -2.4871    4.0350 H   0  0  0  0  0  0  0  0  0  0  0  0
    5.0481   -3.5012    2.6222 H   0  0  0  0  0  0  0  0  0  0  0  0
    3.8393   -2.6004    0.6372 H   0  0  0  0  0  0  0  0  0  0  0  0
    2.2465   -0.9659   -0.2202 H   0  0  0  0  0  0  0  0  0  0  0  0
   -2.2843    2.6638   -2.9830 H   0  0  0  0  0  0  0  0  0  0  0  0
  1  2  1  0
  2  3  2  3
  3  4  1  0
  4  5  1  0
  5  6  2  0
  6  7  1  0
  7  8  2  0
  8  9  1  0
  2 10  1  0
 10 11  1  0
 11 12  1  0
 12 13  1  0
 13 14  2  0
 14 15  1  0
 15 16  2  0
 16 17  1  0
 16 18  1  0
 18 19  2  0
 11 20  2  0
 20 21  1  0
 21 22  2  0
 21 23  1  0
 20 24  1  0
 24 25  2  3
 24  1  1  0
  9  5  1  0
 19 13  1  0
  1 26  1  0
  4 27  1  0
  4 28  1  0
  6 29  1  0
  7 30  1  0
  8 31  1  0
 10 32  1  0
 12 33  1  0
 14 34  1  0
 15 35  1  0
 17 36  1  0
 17 37  1  0
 17 38  1  0
 18 39  1  0
 19 40  1  0
 25 41  1  0
M  CHG  2  21   1  23  -1
M  END
>  <ScrubInfo>  (9) 
{"isomerGroup": 0, "isomerId": 8, "confId": 0, "nr_conformers:": 1, "nr_isomers:": 9}

$$$$
