_i0
     RDKit          3D

 43 45  0  0  0  0  0  0  0  0999 V2000
   -0.4792   -4.8970    1.6025 C   0  0  0  0  0  0  0  0  0  0  0  0
   -1.3494   -3.8081    1.2362 N   0  0  0  0  0  0  0  0  0  0  0  0
   -2.6909   -3.9846    1.2770 N   0  0  0  0  0  0  0  0  0  0  0  0
   -3.1659   -2.8010    0.8738 C   0  0  0  0  0  0  0  0  0  0  0  0
   -2.1475   -1.8688    0.5830 C   0  0  0  0  0  0  0  0  0  0  0  0
   -2.0349   -0.5432    0.1438 C   0  0  0  0  0  0  0  0  0  0  0  0
   -3.1701    0.2395   -0.1175 N   0  0  0  0  0  0  0  0  0  0  0  0
   -3.3270    1.5283   -0.6571 C   0  0  0  0  0  0  0  0  0  0  0  0
   -2.2784    2.2815   -1.2000 C   0  0  0  0  0  0  0  0  0  0  0  0
   -2.4943    3.5723   -1.6955 C   0  0  0  0  0  0  0  0  0  0  0  0
   -3.7656    4.1238   -1.6435 C   0  0  0  0  0  0  0  0  0  0  0  0
   -3.9735    5.3592   -2.1167 F   0  0  0  0  0  0  0  0  0  0  0  0
   -4.8247    3.4093   -1.1046 C   0  0  0  0  0  0  0  0  0  0  0  0
   -4.6036    2.1199   -0.6117 C   0  0  0  0  0  0  0  0  0  0  0  0
   -0.7752   -0.0509    0.0102 N   0  0  0  0  0  0  0  0  0  0  0  0
    0.3000   -0.8121    0.2785 C   0  0  0  0  0  0  0  0  0  0  0  0
    1.5202   -0.1747    0.0824 N   0  0  0  0  0  0  0  0  0  0  0  0
    2.5579   -0.5446    1.0265 C   0  0  0  0  0  0  0  0  0  0  0  0
    3.8090    0.3031    0.8004 C   0  0  0  0  0  0  0  0  0  0  0  0
    4.4340    0.0612   -0.5722 C   0  0  0  0  0  0  0  0  0  0  0  0
    5.6965    0.7604   -0.7192 N   0  0  0  0  0  0  0  0  0  0  0  0
    5.7567    2.1054   -0.9777 C   0  0  0  0  0  0  0  0  0  0  0  0
    4.7993    2.8552   -1.0963 O   0  0  0  0  0  0  0  0  0  0  0  0
    0.2716   -2.0824    0.7021 N   0  0  0  0  0  0  0  0  0  0  0  0
   -0.9756   -2.5555    0.8325 C   0  0  0  0  0  0  0  0  0  0  0  0
   -0.6790   -5.7370    0.9324 H   0  0  0  0  0  0  0  0  0  0  0  0
    0.5650   -4.5902    1.5100 H   0  0  0  0  0  0  0  0  0  0  0  0
   -0.6934   -5.1745    2.6377 H   0  0  0  0  0  0  0  0  0  0  0  0
   -4.2380   -2.6705    0.8094 H   0  0  0  0  0  0  0  0  0  0  0  0
   -4.0417   -0.2343    0.0732 H   0  0  0  0  0  0  0  0  0  0  0  0
   -1.2733    1.8769   -1.2646 H   0  0  0  0  0  0  0  0  0  0  0  0
   -1.6743    4.1431   -2.1194 H   0  0  0  0  0  0  0  0  0  0  0  0
   -5.8120    3.8574   -1.0669 H   0  0  0  0  0  0  0  0  0  0  0  0
   -5.4446    1.5803   -0.1833 H   0  0  0  0  0  0  0  0  0  0  0  0
    1.3024    0.8178    0.0412 H   0  0  0  0  0  0  0  0  0  0  0  0
    2.8205   -1.6047    0.9224 H   0  0  0  0  0  0  0  0  0  0  0  0
    2.2099   -0.3824    2.0546 H   0  0  0  0  0  0  0  0  0  0  0  0
    3.5655    1.3662    0.9189 H   0  0  0  0  0  0  0  0  0  0  0  0
    4.5425    0.0628    1.5802 H   0  0  0  0  0  0  0  0  0  0  0  0
    4.6409   -1.0039   -0.7206 H   0  0  0  0  0  0  0  0  0  0  0  0
    3.7622    0.3955   -1.3704 H   0  0  0  0  0  0  0  0  0  0  0  0
    6.5606    0.2427   -0.6269 H   0  0  0  0  0  0  0  0  0  0  0  0
    6.7978    2.4586   -1.0648 H   0  0  0  0  0  0  0  0  0  0  0  0
  1  2  1  0
  2  3  1  0
  3  4  2  0
  4  5  1  0
  5  6  2  0
  6  7  1  0
  7  8  1  0
  8  9  2  0
  9 10  1  0
 10 11  2  0
 11 12  1  0
 11 13  1  0
 13 14  2  0
  6 15  1  0
 15 16  2  0
 16 17  1  0
 17 18  1  0
 18 19  1  0
 19 20  1  0
 20 21  1  0
 21 22  1  0
 22 23  2  0
 16 24  1  0
 24 25  2  0
 25  2  1  0
 25  5  1  0
 14  8  1  0
  1 26  1  0
  1 27  1  0
  1 28  1  0
  4 29  1  0
  7 30  1  0
  9 31  1  0
 10 32  1  0
 13 33  1  0
 14 34  1  0
 17 35  1  0
 18 36  1  0
 18 37  1  0
 19 38  1  0
 19 39  1  0
 20 40  1  0
 20 41  1  0
 21 42  1  0
 22 43  1  0
M  END
>  <ScrubInfo>  (1) 
{"isomerGroup": 0, "isomerId": 0, "confId": 0, "nr_conformers:": 1, "nr_isomers:": 9}

$$$$
_i1
     RDKit          3D

 43 45  0  0  0  0  0  0  0  0999 V2000
   -0.9972   -0.1455    0.3011 N   0  0  0  0  0  0  0  0  0  0  0  0
    0.2711   -0.6866    0.3431 C   0  0  0  0  0  0  0  0  0  0  0  0
    1.1551    0.1021    1.0341 N   0  0  0  0  0  0  0  0  0  0  0  0
    2.5129   -0.3640    1.2999 C   0  0  0  0  0  0  0  0  0  0  0  0
    3.4155    0.8114    1.6680 C   0  0  0  0  0  0  0  0  0  0  0  0
    3.6555    1.7745    0.5044 C   0  0  0  0  0  0  0  0  0  0  0  0
    4.3604    1.1641   -0.6034 N   0  0  0  0  0  0  0  0  0  0  0  0
    5.7173    0.9739   -0.5888 C   0  0  0  0  0  0  0  0  0  0  0  0
    6.4698    1.2897    0.3208 O   0  0  0  0  0  0  0  0  0  0  0  0
    0.6049   -1.8153   -0.2297 N   0  0  0  0  0  0  0  0  0  0  0  0
   -0.4573   -2.3991   -0.8519 C   0  0  0  0  0  0  0  0  0  0  0  0
   -1.7526   -1.9301   -0.9444 C   0  0  0  0  0  0  0  0  0  0  0  0
   -2.4458   -2.8962   -1.6855 C   0  0  0  0  0  0  0  0  0  0  0  0
   -1.6587   -3.9194   -2.0440 N   0  0  0  0  0  0  0  0  0  0  0  0
   -0.4506   -3.5917   -1.5209 N   0  0  0  0  0  0  0  0  0  0  0  0
    0.6653   -4.4835   -1.7092 C   0  0  0  0  0  0  0  0  0  0  0  0
   -2.1017   -0.6730   -0.3359 C   0  0  0  0  0  0  0  0  0  0  0  0
   -3.3086   -0.2327   -0.4651 N   0  0  0  0  0  0  0  0  0  0  0  0
   -3.6288    0.9913    0.1302 C   0  0  0  0  0  0  0  0  0  0  0  0
   -3.5011    2.1810   -0.5949 C   0  0  0  0  0  0  0  0  0  0  0  0
   -3.8187    3.4041   -0.0020 C   0  0  0  0  0  0  0  0  0  0  0  0
   -4.2739    3.4292    1.3115 C   0  0  0  0  0  0  0  0  0  0  0  0
   -4.5761    4.6021    1.8823 F   0  0  0  0  0  0  0  0  0  0  0  0
   -4.4224    2.2547    2.0405 C   0  0  0  0  0  0  0  0  0  0  0  0
   -4.1039    1.0329    1.4455 C   0  0  0  0  0  0  0  0  0  0  0  0
   -1.1055    0.7894    0.6560 H   0  0  0  0  0  0  0  0  0  0  0  0
    0.7493    0.5653    1.8396 H   0  0  0  0  0  0  0  0  0  0  0  0
    2.4835   -1.0744    2.1341 H   0  0  0  0  0  0  0  0  0  0  0  0
    2.9262   -0.8922    0.4333 H   0  0  0  0  0  0  0  0  0  0  0  0
    4.3755    0.4172    2.0222 H   0  0  0  0  0  0  0  0  0  0  0  0
    2.9721    1.3694    2.5019 H   0  0  0  0  0  0  0  0  0  0  0  0
    2.7117    2.1691    0.1147 H   0  0  0  0  0  0  0  0  0  0  0  0
    4.2494    2.6245    0.8596 H   0  0  0  0  0  0  0  0  0  0  0  0
    3.8255    0.8073   -1.3865 H   0  0  0  0  0  0  0  0  0  0  0  0
    6.0734    0.4832   -1.5099 H   0  0  0  0  0  0  0  0  0  0  0  0
   -3.4873   -2.8998   -1.9798 H   0  0  0  0  0  0  0  0  0  0  0  0
    1.5570   -4.0771   -1.2270 H   0  0  0  0  0  0  0  0  0  0  0  0
    0.8417   -4.5913   -2.7825 H   0  0  0  0  0  0  0  0  0  0  0  0
    0.4122   -5.4494   -1.2649 H   0  0  0  0  0  0  0  0  0  0  0  0
   -3.1620    2.1496   -1.6274 H   0  0  0  0  0  0  0  0  0  0  0  0
   -3.7247    4.3317   -0.5578 H   0  0  0  0  0  0  0  0  0  0  0  0
   -4.7941    2.2960    3.0594 H   0  0  0  0  0  0  0  0  0  0  0  0
   -4.2342    0.1076    2.0013 H   0  0  0  0  0  0  0  0  0  0  0  0
  1  2  1  0
  2  3  1  0
  3  4  1  0
  4  5  1  0
  5  6  1  0
  6  7  1  0
  7  8  1  0
  8  9  2  0
  2 10  2  0
 10 11  1  0
 11 12  2  0
 12 13  1  0
 13 14  2  0
 14 15  1  0
 15 16  1  0
 12 17  1  0
 17 18  2  3
 18 19  1  0
 19 20  2  0
 20 21  1  0
 21 22  2  0
 22 23  1  0
 22 24  1  0
 24 25  2  0
 17  1  1  0
 25 19  1  0
 15 11  1  0
  1 26  1  0
  3 27  1  0
  4 28  1  0
  4 29  1  0
  5 30  1  0
  5 31  1  0
  6 32  1  0
  6 33  1  0
  7 34  1  0
  8 35  1  0
 13 36  1  0
 16 37  1  0
 16 38  1  0
 16 39  1  0
 20 40  1  0
 21 41  1  0
 24 42  1  0
 25 43  1  0
M  END
>  <ScrubInfo>  (2) 
{"isomerGroup": 0, "isomerId": 1, "confId": 0, "nr_conformers:": 1, "nr_isomers:": 9}

$$$$
_i2
     RDKit          3D

 43 45  0  0  0  0  0  0  0  0999 V2000
    0.1949    0.2754    0.2350 N   0  0  0  0  0  0  0  0  0  0  0  0
   -1.0776    0.0980   -0.2778 C   0  0  0  0  0  0  0  0  0  0  0  0
   -1.8956    1.1820   -0.5350 N   0  0  0  0  0  0  0  0  0  0  0  0
   -3.2114    1.3853   -0.0587 C   0  0  0  0  0  0  0  0  0  0  0  0
   -3.9551    2.4449   -0.6057 C   0  0  0  0  0  0  0  0  0  0  0  0
   -5.2748    2.6767   -0.2102 C   0  0  0  0  0  0  0  0  0  0  0  0
   -5.8617    1.8432    0.7312 C   0  0  0  0  0  0  0  0  0  0  0  0
   -7.1263    2.0629    1.1121 F   0  0  0  0  0  0  0  0  0  0  0  0
   -5.1537    0.7836    1.2812 C   0  0  0  0  0  0  0  0  0  0  0  0
   -3.8332    0.5526    0.8835 C   0  0  0  0  0  0  0  0  0  0  0  0
   -1.4081   -1.1659   -0.5687 C   0  0  0  0  0  0  0  0  0  0  0  0
   -2.5297   -1.8846   -1.1833 C   0  0  0  0  0  0  0  0  0  0  0  0
   -2.3281   -3.1764   -1.2600 N   0  0  0  0  0  0  0  0  0  0  0  0
   -1.0755   -3.3953   -0.6614 N   0  0  0  0  0  0  0  0  0  0  0  0
   -0.4139   -4.6605   -0.8712 C   0  0  0  0  0  0  0  0  0  0  0  0
   -0.4295   -2.2314   -0.2767 C   0  0  0  0  0  0  0  0  0  0  0  0
    0.7486   -2.0508    0.2126 N   0  0  0  0  0  0  0  0  0  0  0  0
    1.0840   -0.7453    0.4962 C   0  0  0  0  0  0  0  0  0  0  0  0
    2.2611   -0.6301    0.9957 N   0  0  0  0  0  0  0  0  0  0  0  0
    2.8033    0.6665    1.3763 C   0  0  0  0  0  0  0  0  0  0  0  0
    3.4900    1.3386    0.1892 C   0  0  0  0  0  0  0  0  0  0  0  0
    4.6547    0.5301   -0.3839 C   0  0  0  0  0  0  0  0  0  0  0  0
    5.7240    0.3222    0.5696 N   0  0  0  0  0  0  0  0  0  0  0  0
    6.6440    1.2918    0.8650 C   0  0  0  0  0  0  0  0  0  0  0  0
    6.6928    2.4067    0.3664 O   0  0  0  0  0  0  0  0  0  0  0  0
    0.4503    1.2124    0.4948 H   0  0  0  0  0  0  0  0  0  0  0  0
   -1.3947    2.0630   -0.6095 H   0  0  0  0  0  0  0  0  0  0  0  0
   -3.5134    3.0936   -1.3589 H   0  0  0  0  0  0  0  0  0  0  0  0
   -5.8470    3.4953   -0.6349 H   0  0  0  0  0  0  0  0  0  0  0  0
   -5.6302    0.1439    2.0177 H   0  0  0  0  0  0  0  0  0  0  0  0
   -3.2990   -0.2730    1.3463 H   0  0  0  0  0  0  0  0  0  0  0  0
   -3.4162   -1.3518   -1.5503 H   0  0  0  0  0  0  0  0  0  0  0  0
    0.3033   -4.8635   -0.0695 H   0  0  0  0  0  0  0  0  0  0  0  0
    0.1216   -4.6569   -1.8257 H   0  0  0  0  0  0  0  0  0  0  0  0
   -1.1399   -5.4798   -0.8842 H   0  0  0  0  0  0  0  0  0  0  0  0
    3.5236    0.5111    2.1876 H   0  0  0  0  0  0  0  0  0  0  0  0
    2.0372    1.3274    1.7972 H   0  0  0  0  0  0  0  0  0  0  0  0
    2.7598    1.5098   -0.6106 H   0  0  0  0  0  0  0  0  0  0  0  0
    3.8479    2.3250    0.5075 H   0  0  0  0  0  0  0  0  0  0  0  0
    5.0675    1.0604   -1.2497 H   0  0  0  0  0  0  0  0  0  0  0  0
    4.3235   -0.4557   -0.7260 H   0  0  0  0  0  0  0  0  0  0  0  0
    5.7219   -0.5373    1.1054 H   0  0  0  0  0  0  0  0  0  0  0  0
    7.3605    0.9560    1.6330 H   0  0  0  0  0  0  0  0  0  0  0  0
  1  2  1  0
  2  3  1  0
  3  4  1  0
  4  5  2  0
  5  6  1  0
  6  7  2  0
  7  8  1  0
  7  9  1  0
  9 10  2  0
  2 11  2  0
 11 12  1  0
 12 13  2  0
 13 14  1  0
 14 15  1  0
 14 16  1  0
 16 17  2  0
 17 18  1  0
 18 19  2  3
 19 20  1  0
 20 21  1  0
 21 22  1  0
 22 23  1  0
 23 24  1  0
 24 25  2  0
 18  1  1  0
 10  4  1  0
 16 11  1  0
  1 26  1  0
  3 27  1  0
  5 28  1  0
  6 29  1  0
  9 30  1  0
 10 31  1  0
 12 32  1  0
 15 33  1  0
 15 34  1  0
 15 35  1  0
 20 36  1  0
 20 37  1  0
 21 38  1  0
 21 39  1  0
 22 40  1  0
 22 41  1  0
 23 42  1  0
 24 43  1  0
M  END
>  <ScrubInfo>  (3) 
{"isomerGroup": 0, "isomerId": 2, "confId": 0, "nr_conformers:": 1, "nr_isomers:": 9}

$$$$
_i3
     RDKit          3D

 43 45  0  0  0  0  0  0  0  0999 V2000
    0.4786   -1.6547    0.3193 N   0  0  0  0  0  0  0  0  0  0  0  0
    0.8918   -0.3619    0.6019 C   0  0  0  0  0  0  0  0  0  0  0  0
    2.0923    0.0907    0.5061 N   0  0  0  0  0  0  0  0  0  0  0  0
    3.1567   -0.7977    0.0610 C   0  0  0  0  0  0  0  0  0  0  0  0
    4.4687   -0.0193    0.0153 C   0  0  0  0  0  0  0  0  0  0  0  0
    4.4453    1.0793   -1.0450 C   0  0  0  0  0  0  0  0  0  0  0  0
    5.7245    1.7552   -1.1404 N   0  0  0  0  0  0  0  0  0  0  0  0
    6.7676    1.2405   -1.8641 C   0  0  0  0  0  0  0  0  0  0  0  0
    6.7463    0.2055   -2.5141 O   0  0  0  0  0  0  0  0  0  0  0  0
   -0.0083    0.6025    1.0333 N   0  0  0  0  0  0  0  0  0  0  0  0
   -1.2685    0.2989    1.1618 C   0  0  0  0  0  0  0  0  0  0  0  0
   -2.2081    1.1961    1.6028 N   0  0  0  0  0  0  0  0  0  0  0  0
   -3.3338    1.6080    0.8422 C   0  0  0  0  0  0  0  0  0  0  0  0
   -4.3527    2.3140    1.5021 C   0  0  0  0  0  0  0  0  0  0  0  0
   -5.4733    2.7693    0.8043 C   0  0  0  0  0  0  0  0  0  0  0  0
   -5.5721    2.5304   -0.5598 C   0  0  0  0  0  0  0  0  0  0  0  0
   -6.6450    2.9678   -1.2311 F   0  0  0  0  0  0  0  0  0  0  0  0
   -4.5694    1.8500   -1.2383 C   0  0  0  0  0  0  0  0  0  0  0  0
   -3.4479    1.3945   -0.5397 C   0  0  0  0  0  0  0  0  0  0  0  0
   -1.7333   -1.0440    0.9073 C   0  0  0  0  0  0  0  0  0  0  0  0
   -2.9367   -1.7605    0.9856 C   0  0  0  0  0  0  0  0  0  0  0  0
   -2.7892   -3.0435    0.6186 N   0  0  0  0  0  0  0  0  0  0  0  0
   -1.4715   -3.1466    0.3168 N   0  0  0  0  0  0  0  0  0  0  0  0
   -0.9498   -4.4184   -0.1145 C   0  0  0  0  0  0  0  0  0  0  0  0
   -0.8176   -1.9678    0.4871 C   0  0  0  0  0  0  0  0  0  0  0  0
    1.1827   -2.3159    0.0284 H   0  0  0  0  0  0  0  0  0  0  0  0
    2.9385   -1.2074   -0.9324 H   0  0  0  0  0  0  0  0  0  0  0  0
    3.2720   -1.6310    0.7642 H   0  0  0  0  0  0  0  0  0  0  0  0
    5.2853   -0.7203   -0.1959 H   0  0  0  0  0  0  0  0  0  0  0  0
    4.6802    0.4224    0.9973 H   0  0  0  0  0  0  0  0  0  0  0  0
    3.6987    1.8431   -0.8049 H   0  0  0  0  0  0  0  0  0  0  0  0
    4.2009    0.6572   -2.0264 H   0  0  0  0  0  0  0  0  0  0  0  0
    5.8763    2.5839   -0.5805 H   0  0  0  0  0  0  0  0  0  0  0  0
    7.6657    1.8768   -1.7962 H   0  0  0  0  0  0  0  0  0  0  0  0
   -1.7274    2.0389    1.9146 H   0  0  0  0  0  0  0  0  0  0  0  0
   -4.2832    2.5007    2.5716 H   0  0  0  0  0  0  0  0  0  0  0  0
   -6.2659    3.3063    1.3153 H   0  0  0  0  0  0  0  0  0  0  0  0
   -4.6617    1.6823   -2.3068 H   0  0  0  0  0  0  0  0  0  0  0  0
   -2.6656    0.8839   -1.0963 H   0  0  0  0  0  0  0  0  0  0  0  0
   -3.9153   -1.4124    1.2904 H   0  0  0  0  0  0  0  0  0  0  0  0
    0.1049   -4.3184   -0.3786 H   0  0  0  0  0  0  0  0  0  0  0  0
   -1.5188   -4.7470   -0.9880 H   0  0  0  0  0  0  0  0  0  0  0  0
   -1.0622   -5.1317    0.7058 H   0  0  0  0  0  0  0  0  0  0  0  0
  1  2  1  0
  2  3  2  3
  3  4  1  0
  4  5  1  0
  5  6  1  0
  6  7  1  0
  7  8  1  0
  8  9  2  0
  2 10  1  0
 10 11  2  0
 11 12  1  0
 12 13  1  0
 13 14  2  0
 14 15  1  0
 15 16  2  0
 16 17  1  0
 16 18  1  0
 18 19  2  0
 11 20  1  0
 20 21  1  0
 21 22  2  0
 22 23  1  0
 23 24  1  0
 23 25  1  0
 25  1  1  0
 19 13  1  0
 25 20  2  0
  1 26  1  0
  4 27  1  0
  4 28  1  0
  5 29  1  0
  5 30  1  0
  6 31  1  0
  6 32  1  0
  7 33  1  0
  8 34  1  0
 12 35  1  0
 14 36  1  0
 15 37  1  0
 18 38  1  0
 19 39  1  0
 21 40  1  0
 24 41  1  0
 24 42  1  0
 24 43  1  0
M  END
>  <ScrubInfo>  (4) 
{"isomerGroup": 0, "isomerId": 3, "confId": 0, "nr_conformers:": 1, "nr_isomers:": 9}

$$$$
_i4
     RDKit          3D

 43 45  0  0  0  0  0  0  0  0999 V2000
    1.0330   -4.3059   -0.2543 N   0  0  0  0  0  0  0  0  0  0  0  0
    2.0391   -3.3530   -0.1268 C   0  0  0  0  0  0  0  0  0  0  0  0
    1.6063   -2.1070   -0.3585 C   0  0  0  0  0  0  0  0  0  0  0  0
    2.1530   -0.7704   -0.3401 C   0  0  0  0  0  0  0  0  0  0  0  0
    3.4037   -0.5391   -0.0874 N   0  0  0  0  0  0  0  0  0  0  0  0
    3.8519    0.7882   -0.0854 C   0  0  0  0  0  0  0  0  0  0  0  0
    4.2580    1.4039   -1.2751 C   0  0  0  0  0  0  0  0  0  0  0  0
    4.7315    2.7171   -1.2643 C   0  0  0  0  0  0  0  0  0  0  0  0
    4.8083    3.4050   -0.0588 C   0  0  0  0  0  0  0  0  0  0  0  0
    5.2627    4.6651   -0.0464 F   0  0  0  0  0  0  0  0  0  0  0  0
    4.4255    2.8042    1.1350 C   0  0  0  0  0  0  0  0  0  0  0  0
    3.9519    1.4910    1.1205 C   0  0  0  0  0  0  0  0  0  0  0  0
    1.2401    0.2171   -0.5999 N   0  0  0  0  0  0  0  0  0  0  0  0
   -0.0074   -0.0382   -0.8730 C   0  0  0  0  0  0  0  0  0  0  0  0
   -0.7982    1.0471   -1.1107 N   0  0  0  0  0  0  0  0  0  0  0  0
   -2.2416    1.0362   -1.0428 C   0  0  0  0  0  0  0  0  0  0  0  0
   -2.7105    1.0445    0.4093 C   0  0  0  0  0  0  0  0  0  0  0  0
   -4.2303    1.0111    0.4896 C   0  0  0  0  0  0  0  0  0  0  0  0
   -4.6896    1.0437    1.8628 N   0  0  0  0  0  0  0  0  0  0  0  0
   -5.9862    1.3763    2.1646 C   0  0  0  0  0  0  0  0  0  0  0  0
   -6.8295    1.7557    1.3661 O   0  0  0  0  0  0  0  0  0  0  0  0
   -0.5731   -1.2869   -0.9351 N   0  0  0  0  0  0  0  0  0  0  0  0
    0.1950   -2.2958   -0.7131 C   0  0  0  0  0  0  0  0  0  0  0  0
   -0.1025   -3.6592   -0.7375 N   0  0  0  0  0  0  0  0  0  0  0  0
   -1.4118   -4.1497   -0.3560 C   0  0  0  0  0  0  0  0  0  0  0  0
    1.3309   -5.1366   -0.7716 H   0  0  0  0  0  0  0  0  0  0  0  0
    3.0421   -3.6618    0.1330 H   0  0  0  0  0  0  0  0  0  0  0  0
    4.1975    0.8555   -2.2107 H   0  0  0  0  0  0  0  0  0  0  0  0
    5.0405    3.2022   -2.1840 H   0  0  0  0  0  0  0  0  0  0  0  0
    4.5003    3.3564    2.0655 H   0  0  0  0  0  0  0  0  0  0  0  0
    3.6564    1.0090    2.0477 H   0  0  0  0  0  0  0  0  0  0  0  0
   -0.3382    1.9213   -0.8858 H   0  0  0  0  0  0  0  0  0  0  0  0
   -2.6182    1.9282   -1.5565 H   0  0  0  0  0  0  0  0  0  0  0  0
   -2.6482    0.1713   -1.5797 H   0  0  0  0  0  0  0  0  0  0  0  0
   -2.2953    0.1845    0.9500 H   0  0  0  0  0  0  0  0  0  0  0  0
   -2.3289    1.9386    0.9189 H   0  0  0  0  0  0  0  0  0  0  0  0
   -4.6660    1.8602   -0.0494 H   0  0  0  0  0  0  0  0  0  0  0  0
   -4.6222    0.0929    0.0377 H   0  0  0  0  0  0  0  0  0  0  0  0
   -4.1517    0.5643    2.5741 H   0  0  0  0  0  0  0  0  0  0  0  0
   -6.1985    1.2614    3.2407 H   0  0  0  0  0  0  0  0  0  0  0  0
   -1.6047   -3.9591    0.7049 H   0  0  0  0  0  0  0  0  0  0  0  0
   -2.1933   -3.6616   -0.9471 H   0  0  0  0  0  0  0  0  0  0  0  0
   -1.4819   -5.2276   -0.5344 H   0  0  0  0  0  0  0  0  0  0  0  0
  1  2  1  0
  2  3  2  0
  3  4  1  0
  4  5  2  3
  5  6  1  0
  6  7  2  0
  7  8  1  0
  8  9  2  0
  9 10  1  0
  9 11  1  0
 11 12  2  0
  4 13  1  0
 13 14  2  0
 14 15  1  0
 15 16  1  0
 16 17  1  0
 17 18  1  0
 18 19  1  0
 19 20  1  0
 20 21  2  0
 14 22  1  0
 22 23  2  0
 23 24  1  0
 24 25  1  0
 24  1  1  0
 23  3  1  0
 12  6  1  0
  1 26  1  0
  2 27  1  0
  7 28  1  0
  8 29  1  0
 11 30  1  0
 12 31  1  0
 15 32  1  0
 16 33  1  0
 16 34  1  0
 17 35  1  0
 17 36  1  0
 18 37  1  0
 18 38  1  0
 19 39  1  0
 20 40  1  0
 25 41  1  0
 25 42  1  0
 25 43  1  0
M  END
>  <ScrubInfo>  (5) 
{"isomerGroup": 0, "isomerId": 4, "confId": 0, "nr_conformers:": 1, "nr_isomers:": 9}

$$$$
_i5
     RDKit          3D

 43 45  0  0  0  0  0  0  0  0999 V2000
    0.2022   -2.0341    0.2900 N   0  0  0  0  0  0  0  0  0  0  0  0
   -0.0568   -0.6847    0.3716 C   0  0  0  0  0  0  0  0  0  0  0  0
    1.0061    0.0932    0.7350 N   0  0  0  0  0  0  0  0  0  0  0  0
    2.2795    0.0278    0.0276 C   0  0  0  0  0  0  0  0  0  0  0  0
    3.2563    1.0293    0.6373 C   0  0  0  0  0  0  0  0  0  0  0  0
    4.6237    0.9375   -0.0326 C   0  0  0  0  0  0  0  0  0  0  0  0
    5.5466    1.9180    0.4982 N   0  0  0  0  0  0  0  0  0  0  0  0
    5.5640    3.2106    0.0395 C   0  0  0  0  0  0  0  0  0  0  0  0
    4.8541    3.6564   -0.8494 O   0  0  0  0  0  0  0  0  0  0  0  0
   -1.2098   -0.1151    0.1498 N   0  0  0  0  0  0  0  0  0  0  0  0
   -2.2939   -0.9037   -0.2148 C   0  0  0  0  0  0  0  0  0  0  0  0
   -3.4733   -0.4440   -0.4874 N   0  0  0  0  0  0  0  0  0  0  0  0
   -3.6758    0.9395   -0.4138 C   0  0  0  0  0  0  0  0  0  0  0  0
   -3.4919    1.7412   -1.5463 C   0  0  0  0  0  0  0  0  0  0  0  0
   -3.7219    3.1166   -1.4820 C   0  0  0  0  0  0  0  0  0  0  0  0
   -4.1475    3.6825   -0.2857 C   0  0  0  0  0  0  0  0  0  0  0  0
   -4.3693    5.0021   -0.2225 F   0  0  0  0  0  0  0  0  0  0  0  0
   -4.3517    2.8997    0.8448 C   0  0  0  0  0  0  0  0  0  0  0  0
   -4.1206    1.5246    0.7773 C   0  0  0  0  0  0  0  0  0  0  0  0
   -2.0762   -2.3260   -0.2836 C   0  0  0  0  0  0  0  0  0  0  0  0
   -2.8622   -3.4526   -0.5589 C   0  0  0  0  0  0  0  0  0  0  0  0
   -2.1616   -4.5956   -0.4661 N   0  0  0  0  0  0  0  0  0  0  0  0
   -0.9140   -4.1844   -0.1272 N   0  0  0  0  0  0  0  0  0  0  0  0
    0.1214   -5.1685    0.0561 C   0  0  0  0  0  0  0  0  0  0  0  0
   -0.8339   -2.8326   -0.0205 C   0  0  0  0  0  0  0  0  0  0  0  0
    1.0638   -2.3648    0.7009 H   0  0  0  0  0  0  0  0  0  0  0  0
    0.6728    1.0568    0.7835 H   0  0  0  0  0  0  0  0  0  0  0  0
    2.7002   -0.9813    0.0991 H   0  0  0  0  0  0  0  0  0  0  0  0
    2.1219    0.2538   -1.0335 H   0  0  0  0  0  0  0  0  0  0  0  0
    3.3605    0.8459    1.7145 H   0  0  0  0  0  0  0  0  0  0  0  0
    2.8535    2.0454    0.5383 H   0  0  0  0  0  0  0  0  0  0  0  0
    5.0693   -0.0487    0.1352 H   0  0  0  0  0  0  0  0  0  0  0  0
    4.5305    1.0904   -1.1138 H   0  0  0  0  0  0  0  0  0  0  0  0
    6.1332    1.6760    1.2870 H   0  0  0  0  0  0  0  0  0  0  0  0
    6.3061    3.8272    0.5736 H   0  0  0  0  0  0  0  0  0  0  0  0
   -3.1655    1.2874   -2.4776 H   0  0  0  0  0  0  0  0  0  0  0  0
   -3.5747    3.7445   -2.3542 H   0  0  0  0  0  0  0  0  0  0  0  0
   -4.6904    3.3600    1.7666 H   0  0  0  0  0  0  0  0  0  0  0  0
   -4.2825    0.9023    1.6527 H   0  0  0  0  0  0  0  0  0  0  0  0
   -3.9129   -3.4934   -0.8167 H   0  0  0  0  0  0  0  0  0  0  0  0
    1.0754   -4.6734    0.2493 H   0  0  0  0  0  0  0  0  0  0  0  0
    0.1951   -5.7676   -0.8551 H   0  0  0  0  0  0  0  0  0  0  0  0
   -0.1501   -5.7982    0.9071 H   0  0  0  0  0  0  0  0  0  0  0  0
  1  2  1  0
  2  3  1  0
  3  4  1  0
  4  5  1  0
  5  6  1  0
  6  7  1  0
  7  8  1  0
  8  9  2  0
  2 10  2  0
 10 11  1  0
 11 12  2  3
 12 13  1  0
 13 14  2  0
 14 15  1  0
 15 16  2  0
 16 17  1  0
 16 18  1  0
 18 19  2  0
 11 20  1  0
 20 21  1  0
 21 22  2  0
 22 23  1  0
 23 24  1  0
 23 25  1  0
 25  1  1  0
 19 13  1  0
 25 20  2  0
  1 26  1  0
  3 27  1  0
  4 28  1  0
  4 29  1  0
  5 30  1  0
  5 31  1  0
  6 32  1  0
  6 33  1  0
  7 34  1  0
  8 35  1  0
 14 36  1  0
 15 37  1  0
 18 38  1  0
 19 39  1  0
 21 40  1  0
 24 41  1  0
 24 42  1  0
 24 43  1  0
M  END
>  <ScrubInfo>  (6) 
{"isomerGroup": 0, "isomerId": 5, "confId": 0, "nr_conformers:": 1, "nr_isomers:": 9}

$$$$
_i6
     RDKit          3D

 43 45  0  0  0  0  0  0  0  0999 V2000
   -2.3541   -2.0938    2.5167 N   0  0  0  0  0  0  0  0  0  0  0  0
   -2.3985   -0.8199    1.9613 C   0  0  0  0  0  0  0  0  0  0  0  0
   -1.3779   -0.5790    1.1276 C   0  0  0  0  0  0  0  0  0  0  0  0
   -0.8622    0.5135    0.3053 C   0  0  0  0  0  0  0  0  0  0  0  0
   -1.4889    1.7348    0.1724 N   0  0  0  0  0  0  0  0  0  0  0  0
   -2.8564    1.8969   -0.1486 C   0  0  0  0  0  0  0  0  0  0  0  0
   -3.5917    0.9358   -0.8581 C   0  0  0  0  0  0  0  0  0  0  0  0
   -4.9297    1.1666   -1.1885 C   0  0  0  0  0  0  0  0  0  0  0  0
   -5.5292    2.3660   -0.8267 C   0  0  0  0  0  0  0  0  0  0  0  0
   -6.8112    2.5860   -1.1441 F   0  0  0  0  0  0  0  0  0  0  0  0
   -4.8136    3.3436   -0.1486 C   0  0  0  0  0  0  0  0  0  0  0  0
   -3.4763    3.1123    0.1803 C   0  0  0  0  0  0  0  0  0  0  0  0
    0.2778    0.3419   -0.3066 N   0  0  0  0  0  0  0  0  0  0  0  0
    0.9267   -0.8708   -0.1823 C   0  0  0  0  0  0  0  0  0  0  0  0
    2.0681   -1.0373   -0.7520 N   0  0  0  0  0  0  0  0  0  0  0  0
    2.6223    0.0794   -1.5130 C   0  0  0  0  0  0  0  0  0  0  0  0
    3.9283   -0.3609   -2.1750 C   0  0  0  0  0  0  0  0  0  0  0  0
    5.0054   -0.8017   -1.1849 C   0  0  0  0  0  0  0  0  0  0  0  0
    5.4000    0.2490   -0.2682 N   0  0  0  0  0  0  0  0  0  0  0  0
    6.2860    1.2336   -0.6129 C   0  0  0  0  0  0  0  0  0  0  0  0
    6.8656    1.3380   -1.6836 O   0  0  0  0  0  0  0  0  0  0  0  0
    0.4863   -1.9764    0.5048 N   0  0  0  0  0  0  0  0  0  0  0  0
   -0.6299   -1.8531    1.1334 C   0  0  0  0  0  0  0  0  0  0  0  0
   -1.3171   -2.7908    1.9047 N   0  0  0  0  0  0  0  0  0  0  0  0
   -0.6021   -3.8038    2.6579 C   0  0  0  0  0  0  0  0  0  0  0  0
   -3.2623   -2.5637    2.5396 H   0  0  0  0  0  0  0  0  0  0  0  0
   -3.2081   -0.1556    2.2288 H   0  0  0  0  0  0  0  0  0  0  0  0
   -0.9295    2.3556   -0.4103 H   0  0  0  0  0  0  0  0  0  0  0  0
   -3.1324    0.0043   -1.1805 H   0  0  0  0  0  0  0  0  0  0  0  0
   -5.5020    0.4236   -1.7353 H   0  0  0  0  0  0  0  0  0  0  0  0
   -5.2974    4.2784    0.1166 H   0  0  0  0  0  0  0  0  0  0  0  0
   -2.9199    3.8825    0.7105 H   0  0  0  0  0  0  0  0  0  0  0  0
    2.8077    0.9415   -0.8615 H   0  0  0  0  0  0  0  0  0  0  0  0
    1.9288    0.3881   -2.3051 H   0  0  0  0  0  0  0  0  0  0  0  0
    4.3064    0.4674   -2.7863 H   0  0  0  0  0  0  0  0  0  0  0  0
    3.7232   -1.1945   -2.8580 H   0  0  0  0  0  0  0  0  0  0  0  0
    5.8937   -1.1238   -1.7404 H   0  0  0  0  0  0  0  0  0  0  0  0
    4.6668   -1.6504   -0.5819 H   0  0  0  0  0  0  0  0  0  0  0  0
    4.9159    0.3081    0.6182 H   0  0  0  0  0  0  0  0  0  0  0  0
    6.4290    1.9576    0.2064 H   0  0  0  0  0  0  0  0  0  0  0  0
    0.0061   -3.3463    3.4451 H   0  0  0  0  0  0  0  0  0  0  0  0
   -1.3073   -4.5002    3.1232 H   0  0  0  0  0  0  0  0  0  0  0  0
    0.0535   -4.3825    1.9994 H   0  0  0  0  0  0  0  0  0  0  0  0
  1  2  1  0
  2  3  2  0
  3  4  1  0
  4  5  1  0
  5  6  1  0
  6  7  2  0
  7  8  1  0
  8  9  2  0
  9 10  1  0
  9 11  1  0
 11 12  2  0
  4 13  2  0
 13 14  1  0
 14 15  2  3
 15 16  1  0
 16 17  1  0
 17 18  1  0
 18 19  1  0
 19 20  1  0
 20 21  2  0
 14 22  1  0
 22 23  2  0
 23 24  1  0
 24 25  1  0
 24  1  1  0
 23  3  1  0
 12  6  1  0
  1 26  1  0
  2 27  1  0
  5 28  1  0
  7 29  1  0
  8 30  1  0
 11 31  1  0
 12 32  1  0
 16 33  1  0
 16 34  1  0
 17 35  1  0
 17 36  1  0
 18 37  1  0
 18 38  1  0
 19 39  1  0
 20 40  1  0
 25 41  1  0
 25 42  1  0
 25 43  1  0
M  END
>  <ScrubInfo>  (7) 
{"isomerGroup": 0, "isomerId": 6, "confId": 0, "nr_conformers:": 1, "nr_isomers:": 9}

$$$$
_i7
     RDKit          3D

 43 45  0  0  0  0  0  0  0  0999 V2000
    0.6790   -0.8434    0.1499 N   0  0  0  0  0  0  0  0  0  0  0  0
    0.8650    0.0885   -0.8572 C   0  0  0  0  0  0  0  0  0  0  0  0
    1.9631    0.4226   -1.4426 N   0  0  0  0  0  0  0  0  0  0  0  0
    3.2253   -0.2170   -1.0870 C   0  0  0  0  0  0  0  0  0  0  0  0
    3.8811    0.5235    0.0768 C   0  0  0  0  0  0  0  0  0  0  0  0
    5.2400   -0.0699    0.4449 C   0  0  0  0  0  0  0  0  0  0  0  0
    6.2512    0.1815   -0.5601 N   0  0  0  0  0  0  0  0  0  0  0  0
    6.9794    1.3443   -0.5758 C   0  0  0  0  0  0  0  0  0  0  0  0
    6.9047    2.2449    0.2463 O   0  0  0  0  0  0  0  0  0  0  0  0
   -0.3010    0.7127   -1.2426 N   0  0  0  0  0  0  0  0  0  0  0  0
   -1.6037    0.5767   -0.8148 C   0  0  0  0  0  0  0  0  0  0  0  0
   -2.5595    1.2847   -1.3375 N   0  0  0  0  0  0  0  0  0  0  0  0
   -3.8870    1.1736   -0.9261 C   0  0  0  0  0  0  0  0  0  0  0  0
   -4.3822    2.0030    0.0867 C   0  0  0  0  0  0  0  0  0  0  0  0
   -5.7216    1.9218    0.4717 C   0  0  0  0  0  0  0  0  0  0  0  0
   -6.5642    1.0222   -0.1715 C   0  0  0  0  0  0  0  0  0  0  0  0
   -7.8497    0.9445    0.1957 F   0  0  0  0  0  0  0  0  0  0  0  0
   -6.0944    0.2071   -1.1952 C   0  0  0  0  0  0  0  0  0  0  0  0
   -4.7546    0.2901   -1.5784 C   0  0  0  0  0  0  0  0  0  0  0  0
   -1.6984   -0.4200    0.2387 C   0  0  0  0  0  0  0  0  0  0  0  0
   -2.7076   -0.9856    1.0398 C   0  0  0  0  0  0  0  0  0  0  0  0
   -2.2400   -1.9089    1.8930 N   0  0  0  0  0  0  0  0  0  0  0  0
   -0.9128   -1.9320    1.6479 N   0  0  0  0  0  0  0  0  0  0  0  0
   -0.0743   -2.8309    2.4004 C   0  0  0  0  0  0  0  0  0  0  0  0
   -0.5548   -1.0659    0.6602 C   0  0  0  0  0  0  0  0  0  0  0  0
    1.4988   -1.3227    0.4929 H   0  0  0  0  0  0  0  0  0  0  0  0
    3.8752   -0.1732   -1.9684 H   0  0  0  0  0  0  0  0  0  0  0  0
    3.1005   -1.2824   -0.8619 H   0  0  0  0  0  0  0  0  0  0  0  0
    3.2260    0.4686    0.9546 H   0  0  0  0  0  0  0  0  0  0  0  0
    3.9847    1.5872   -0.1709 H   0  0  0  0  0  0  0  0  0  0  0  0
    5.5778    0.3620    1.3938 H   0  0  0  0  0  0  0  0  0  0  0  0
    5.1696   -1.1547    0.5770 H   0  0  0  0  0  0  0  0  0  0  0  0
    6.3567   -0.4610   -1.3347 H   0  0  0  0  0  0  0  0  0  0  0  0
    7.6684    1.3839   -1.4360 H   0  0  0  0  0  0  0  0  0  0  0  0
   -0.1744    1.3991   -1.9727 H   0  0  0  0  0  0  0  0  0  0  0  0
   -3.7204    2.7151    0.5724 H   0  0  0  0  0  0  0  0  0  0  0  0
   -6.1119    2.5572    1.2599 H   0  0  0  0  0  0  0  0  0  0  0  0
   -6.7722   -0.4793   -1.6920 H   0  0  0  0  0  0  0  0  0  0  0  0
   -4.3826   -0.3310   -2.3888 H   0  0  0  0  0  0  0  0  0  0  0  0
   -3.7691   -0.7809    1.0535 H   0  0  0  0  0  0  0  0  0  0  0  0
    0.9314   -2.4115    2.4773 H   0  0  0  0  0  0  0  0  0  0  0  0
   -0.0494   -3.7899    1.8776 H   0  0  0  0  0  0  0  0  0  0  0  0
   -0.4920   -2.9546    3.4031 H   0  0  0  0  0  0  0  0  0  0  0  0
  1  2  1  0
  2  3  2  3
  3  4  1  0
  4  5  1  0
  5  6  1  0
  6  7  1  0
  7  8  1  0
  8  9  2  0
  2 10  1  0
 10 11  1  0
 11 12  2  3
 12 13  1  0
 13 14  2  0
 14 15  1  0
 15 16  2  0
 16 17  1  0
 16 18  1  0
 18 19  2  0
 11 20  1  0
 20 21  1  0
 21 22  2  0
 22 23  1  0
 23 24  1  0
 23 25  1  0
 25  1  1  0
 19 13  1  0
 25 20  2  0
  1 26  1  0
  4 27  1  0
  4 28  1  0
  5 29  1  0
  5 30  1  0
  6 31  1  0
  6 32  1  0
  7 33  1  0
  8 34  1  0
 10 35  1  0
 14 36  1  0
 15 37  1  0
 18 38  1  0
 19 39  1  0
 21 40  1  0
 24 41  1  0
 24 42  1  0
 24 43  1  0
M  END
>  <ScrubInfo>  (8) 
{"isomerGroup": 0, "isomerId": 7, "confId": 0, "nr_conformers:": 1, "nr_isomers:": 9}

$$$$
_i8
     RDKit          3D

 43 45  0  0  0  0  0  0  0  0999 V2000
    0.7357   -4.0337   -0.8594 N   0  0  0  0  0  0  0  0  0  0  0  0
    1.8304   -3.1978   -0.6678 C   0  0  0  0  0  0  0  0  0  0  0  0
    1.4942   -1.9035   -0.6174 C   0  0  0  0  0  0  0  0  0  0  0  0
    2.1554   -0.6129   -0.4088 C   0  0  0  0  0  0  0  0  0  0  0  0
    3.4454   -0.5755   -0.2530 N   0  0  0  0  0  0  0  0  0  0  0  0
    4.0634    0.6636   -0.0521 C   0  0  0  0  0  0  0  0  0  0  0  0
    4.5080    1.4158   -1.1448 C   0  0  0  0  0  0  0  0  0  0  0  0
    5.1292    2.6496   -0.9440 C   0  0  0  0  0  0  0  0  0  0  0  0
    5.3124    3.1197    0.3515 C   0  0  0  0  0  0  0  0  0  0  0  0
    5.9086    4.3029    0.5456 F   0  0  0  0  0  0  0  0  0  0  0  0
    4.8901    2.3779    1.4489 C   0  0  0  0  0  0  0  0  0  0  0  0
    4.2690    1.1445    1.2454 C   0  0  0  0  0  0  0  0  0  0  0  0
    1.2634    0.4298   -0.4024 N   0  0  0  0  0  0  0  0  0  0  0  0
   -0.0933    0.3464   -0.5714 C   0  0  0  0  0  0  0  0  0  0  0  0
   -0.7841    1.4368   -0.4935 N   0  0  0  0  0  0  0  0  0  0  0  0
   -2.2335    1.3609   -0.6915 C   0  0  0  0  0  0  0  0  0  0  0  0
   -2.9257    1.1075    0.6446 C   0  0  0  0  0  0  0  0  0  0  0  0
   -4.4356    1.0171    0.4702 C   0  0  0  0  0  0  0  0  0  0  0  0
   -5.1015    0.8034    1.7395 N   0  0  0  0  0  0  0  0  0  0  0  0
   -6.3635    0.2705    1.8012 C   0  0  0  0  0  0  0  0  0  0  0  0
   -7.0077   -0.1611    0.8569 O   0  0  0  0  0  0  0  0  0  0  0  0
   -0.7236   -0.8574   -0.8124 N   0  0  0  0  0  0  0  0  0  0  0  0
    0.0165   -1.9211   -0.8514 C   0  0  0  0  0  0  0  0  0  0  0  0
   -0.3832   -3.2374   -1.0944 N   0  0  0  0  0  0  0  0  0  0  0  0
   -1.6889   -3.7121   -0.6770 C   0  0  0  0  0  0  0  0  0  0  0  0
    0.9088   -4.7783   -1.5388 H   0  0  0  0  0  0  0  0  0  0  0  0
    2.8205   -3.6224   -0.5775 H   0  0  0  0  0  0  0  0  0  0  0  0
    4.3730    1.0339   -2.1533 H   0  0  0  0  0  0  0  0  0  0  0  0
    5.4759    3.2402   -1.7858 H   0  0  0  0  0  0  0  0  0  0  0  0
    5.0527    2.7589    2.4519 H   0  0  0  0  0  0  0  0  0  0  0  0
    3.9480    0.5510    2.0975 H   0  0  0  0  0  0  0  0  0  0  0  0
    1.6050    1.3655   -0.2442 H   0  0  0  0  0  0  0  0  0  0  0  0
   -2.5640    2.3257   -1.0943 H   0  0  0  0  0  0  0  0  0  0  0  0
   -2.5211    0.6145   -1.4418 H   0  0  0  0  0  0  0  0  0  0  0  0
   -2.5533    0.1806    1.0982 H   0  0  0  0  0  0  0  0  0  0  0  0
   -2.6761    1.9120    1.3481 H   0  0  0  0  0  0  0  0  0  0  0  0
   -4.8341    1.9473    0.0499 H   0  0  0  0  0  0  0  0  0  0  0  0
   -4.6982    0.2020   -0.2137 H   0  0  0  0  0  0  0  0  0  0  0  0
   -4.7549    1.2878    2.5577 H   0  0  0  0  0  0  0  0  0  0  0  0
   -6.7551    0.2684    2.8323 H   0  0  0  0  0  0  0  0  0  0  0  0
   -1.7722   -3.7106    0.4148 H   0  0  0  0  0  0  0  0  0  0  0  0
   -2.4800   -3.0779   -1.0898 H   0  0  0  0  0  0  0  0  0  0  0  0
   -1.8563   -4.7322   -1.0376 H   0  0  0  0  0  0  0  0  0  0  0  0
  1  2  1  0
  2  3  2  0
  3  4  1  0
  4  5  2  3
  5  6  1  0
  6  7  2  0
  7  8  1  0
  8  9  2  0
  9 10  1  0
  9 11  1  0
 11 12  2  0
  4 13  1  0
 13 14  1  0
 14 15  2  3
 15 16  1  0
 16 17  1  0
 17 18  1  0
 18 19  1  0
 19 20  1  0
 20 21  2  0
 14 22  1  0
 22 23  2  0
 23 24  1  0
 24 25  1  0
 24  1  1  0
 23  3  1  0
 12  6  1  0
  1 26  1  0
  2 27  1  0
  7 28  1  0
  8 29  1  0
 11 30  1  0
 12 31  1  0
 13 32  1  0
 16 33  1  0
 16 34  1  0
 17 35  1  0
 17 36  1  0
 18 37  1  0
 18 38  1  0
 19 39  1  0
 20 40  1  0
 25 41  1  0
 25 42  1  0
 25 43  1  0
M  END
>  <ScrubInfo>  (9) 
{"isomerGroup": 0, "isomerId": 8, "confId": 0, "nr_conformers:": 1, "nr_isomers:": 9}

$$$$
