REMARK SMILES Cn1ncc2c(Nc3ccc(F)cc3)nc(NCCCNC=O)nc21
REMARK SMILES IDX 17 1 16 3 2 4 3 5 25 6 4 7 24 8 5 9 6 10 15 11 1 12 7 13
REMARK SMILES IDX 8 15 9 16 14 17 10 18 13 19 11 20 12 21 18 22 19 23 20 24
REMARK SMILES IDX 21 25 22 26 23 28
REMARK H PARENT 17 2 7 14 21 27
ROOT
ATOM      1  N   UNL     1       1.520  -0.175   0.082  1.00  0.00    -0.354 N 
ATOM      2  H   UNL     1       1.302   0.818   0.041  1.00  0.00     0.163 HD
ENDROOT
BRANCH   1   3
ATOM      3  C   UNL     1       0.300  -0.812   0.279  1.00  0.00     0.226 A 
ATOM      4  N   UNL     1      -1.349  -3.808   1.236  1.00  0.00    -0.250 N 
ATOM      5  N   UNL     1      -2.691  -3.985   1.277  1.00  0.00    -0.179 NA
ATOM      6  C   UNL     1      -0.976  -2.555   0.833  1.00  0.00     0.165 A 
ATOM      7  C   UNL     1      -3.166  -2.801   0.874  1.00  0.00     0.149 A 
ATOM      8  N   UNL     1       0.272  -2.082   0.702  1.00  0.00    -0.193 NA
ATOM      9  C   UNL     1      -2.147  -1.869   0.583  1.00  0.00     0.082 A 
ATOM     10  C   UNL     1      -2.035  -0.543   0.144  1.00  0.00     0.147 A 
ATOM     11  N   UNL     1      -0.775  -0.051   0.010  1.00  0.00    -0.195 NA
ATOM     12  C   UNL     1      -0.479  -4.897   1.603  1.00  0.00     0.176 C 
BRANCH  10  13
ATOM     13  N   UNL     1      -3.170   0.239  -0.117  1.00  0.00    -0.339 N 
ATOM     14  H   UNL     1      -4.042  -0.234   0.073  1.00  0.00     0.168 HD
BRANCH  13  15
ATOM     15  C   UNL     1      -3.327   1.528  -0.657  1.00  0.00     0.040 A 
ATOM     16  C   UNL     1      -2.278   2.281  -1.200  1.00  0.00     0.029 A 
ATOM     17  C   UNL     1      -4.604   2.120  -0.612  1.00  0.00     0.029 A 
ATOM     18  C   UNL     1      -2.494   3.572  -1.696  1.00  0.00     0.041 A 
ATOM     19  C   UNL     1      -4.825   3.409  -1.105  1.00  0.00     0.041 A 
ATOM     20  C   UNL     1      -3.766   4.124  -1.643  1.00  0.00     0.123 A 
ATOM     21  F   UNL     1      -3.974   5.359  -2.117  1.00  0.00    -0.207 F 
ENDBRANCH  13  15
ENDBRANCH  10  13
ENDBRANCH   1   3
BRANCH   1  22
ATOM     22  C   UNL     1       2.558  -0.545   1.026  1.00  0.00     0.118 C 
BRANCH  22  23
ATOM     23  C   UNL     1       3.809   0.303   0.800  1.00  0.00     0.042 C 
BRANCH  23  24
ATOM     24  C   UNL     1       4.434   0.061  -0.572  1.00  0.00     0.117 C 
BRANCH  24  25
ATOM     25  N   UNL     1       5.697   0.760  -0.719  1.00  0.00    -0.359 N 
ATOM     26  C   UNL     1       5.757   2.105  -0.978  1.00  0.00     0.337 C 
ATOM     27  H   UNL     1       6.561   0.243  -0.627  1.00  0.00     0.163 HD
ATOM     28  O   UNL     1       4.799   2.855  -1.096  1.00  0.00    -0.279 OA
ENDBRANCH  24  25
ENDBRANCH  23  24
ENDBRANCH  22  23
ENDBRANCH   1  22
TORSDOF 7
