REMARK SMILES Cc1ccc(C)c(Nc2nc(NCC[NH+]3CCOCC3)nc3nccnc23)c1
REMARK SMILES IDX 12 1 13 3 14 4 15 5 16 6 20 7 17 8 19 9 18 10 11 12 10 13
REMARK SMILES IDX 21 14 9 15 22 16 27 17 23 18 26 19 24 20 25 21 8 22 7 24
REMARK SMILES IDX 5 25 28 26 4 27 2 28 3 29 6 30 1 31
REMARK H PARENT 12 2 15 11 8 23
ROOT
ATOM      1  N   UNL     1       2.135  -1.059   1.380  1.00  0.00    -0.348 N 
ATOM      2  H   UNL     1       1.841  -0.850   2.340  1.00  0.00     0.163 HD
ENDROOT
BRANCH   1   3
ATOM      3  C   UNL     1       2.879  -2.324   1.274  1.00  0.00     0.177 C 
BRANCH   3   4
ATOM      4  C   UNL     1       3.736  -2.349  -0.013  1.00  0.00     0.283 C 
BRANCH   4   5
ATOM      5  N   UNL     1       4.176  -0.932  -0.340  1.00  0.00    -0.330 N 
ATOM      6  C   UNL     1       5.408  -0.479   0.418  1.00  0.00     0.291 C 
ATOM      7  C   UNL     1       4.319  -0.673  -1.825  1.00  0.00     0.291 C 
ATOM      8  C   UNL     1       5.710   0.983   0.073  1.00  0.00     0.221 C 
ATOM      9  C   UNL     1       4.682   0.798  -2.054  1.00  0.00     0.221 C 
ATOM     10  O   UNL     1       5.873   1.152  -1.341  1.00  0.00    -0.370 OA
ATOM     11  H   UNL     1       3.381  -0.359   0.003  1.00  0.00     0.348 HD
ENDBRANCH   4   5
ENDBRANCH   3   4
ENDBRANCH   1   3
BRANCH   1  12
ATOM     12  C   UNL     1       0.919  -1.063   0.692  1.00  0.00     0.227 A 
ATOM     13  N   UNL     1       0.868  -1.544  -0.546  1.00  0.00    -0.193 NA
ATOM     14  N   UNL     1      -0.099  -0.514   1.328  1.00  0.00    -0.191 NA
ATOM     15  C   UNL     1      -0.335  -1.493  -1.168  1.00  0.00     0.164 A 
ATOM     16  C   UNL     1      -1.267  -0.435   0.698  1.00  0.00     0.185 A 
ATOM     17  C   UNL     1      -1.477  -0.911  -0.603  1.00  0.00     0.150 A 
ATOM     18  N   UNL     1      -2.266   0.140   1.372  1.00  0.00    -0.233 NA
ATOM     19  N   UNL     1      -2.691  -0.785  -1.221  1.00  0.00    -0.247 NA
ATOM     20  C   UNL     1      -3.466   0.254   0.759  1.00  0.00     0.133 A 
ATOM     21  C   UNL     1      -3.678  -0.199  -0.520  1.00  0.00     0.132 A 
BRANCH  15  22
ATOM     22  N   UNL     1      -0.329  -2.028  -2.475  1.00  0.00    -0.338 N 
ATOM     23  H   UNL     1       0.598  -2.395  -2.661  1.00  0.00     0.168 HD
BRANCH  22  24
ATOM     24  C   UNL     1      -1.283  -2.898  -3.067  1.00  0.00     0.043 A 
ATOM     25  C   UNL     1      -1.356  -2.981  -4.472  1.00  0.00    -0.028 A 
ATOM     26  C   UNL     1      -2.074  -3.765  -2.294  1.00  0.00     0.029 A 
ATOM     27  C   UNL     1      -2.231  -3.903  -5.067  1.00  0.00     0.006 A 
ATOM     28  C   UNL     1      -2.962  -4.670  -2.892  1.00  0.00    -0.049 A 
ATOM     29  C   UNL     1      -3.025  -4.740  -4.284  1.00  0.00     0.004 A 
ATOM     30  C   UNL     1      -0.525  -2.086  -5.351  1.00  0.00     0.046 C 
ATOM     31  C   UNL     1      -3.789  -5.594  -2.046  1.00  0.00     0.044 C 
ENDBRANCH  22  24
ENDBRANCH  15  22
ENDBRANCH   1  12
TORSDOF 6
