_i0
     RDKit          3D

 54 57  0  0  0  0  0  0  0  0999 V2000
    3.7365   -2.3494   -0.0125 C   0  0  0  0  0  0  0  0  0  0  0  0
    4.1757   -0.9325   -0.3395 N   0  0  0  0  0  4  0  0  0  0  0  0
    5.4083   -0.4791    0.4179 C   0  0  0  0  0  0  0  0  0  0  0  0
    4.3191   -0.6727   -1.8245 C   0  0  0  0  0  0  0  0  0  0  0  0
    2.8788   -2.3244    1.2735 C   0  0  0  0  0  0  0  0  0  0  0  0
    2.1345   -1.0589    1.3796 N   0  0  0  0  0  0  0  0  0  0  0  0
    0.9192   -1.0632    0.6917 C   0  0  0  0  0  0  0  0  0  0  0  0
    0.8676   -1.5441   -0.5463 N   0  0  0  0  0  0  0  0  0  0  0  0
   -0.0992   -0.5145    1.3279 N   0  0  0  0  0  0  0  0  0  0  0  0
   -0.3352   -1.4929   -1.1679 C   0  0  0  0  0  0  0  0  0  0  0  0
   -1.2670   -0.4354    0.6979 C   0  0  0  0  0  0  0  0  0  0  0  0
   -0.3292   -2.0282   -2.4753 N   0  0  0  0  0  0  0  0  0  0  0  0
   -1.4770   -0.9111   -0.6028 C   0  0  0  0  0  0  0  0  0  0  0  0
   -2.2659    0.1400    1.3722 N   0  0  0  0  0  0  0  0  0  0  0  0
   -1.2828   -2.8982   -3.0665 C   0  0  0  0  0  0  0  0  0  0  0  0
   -2.6914   -0.7846   -1.2213 N   0  0  0  0  0  0  0  0  0  0  0  0
   -3.4663    0.2542    0.7594 C   0  0  0  0  0  0  0  0  0  0  0  0
   -1.3558   -2.9814   -4.4722 C   0  0  0  0  0  0  0  0  0  0  0  0
   -2.0743   -3.7646   -2.2942 C   0  0  0  0  0  0  0  0  0  0  0  0
   -3.6783   -0.1991   -0.5197 C   0  0  0  0  0  0  0  0  0  0  0  0
   -2.2309   -3.9028   -5.0671 C   0  0  0  0  0  0  0  0  0  0  0  0
   -0.5251   -2.0864   -5.3509 C   0  0  0  0  0  0  0  0  0  0  0  0
   -2.9621   -4.6704   -2.8915 C   0  0  0  0  0  0  0  0  0  0  0  0
   -3.0245   -4.7405   -4.2840 C   0  0  0  0  0  0  0  0  0  0  0  0
   -3.7894   -5.5936   -2.0465 C   0  0  0  0  0  0  0  0  0  0  0  0
    5.7098    0.9834    0.0728 C   0  0  0  0  0  0  0  0  0  0  0  0
    5.8733    1.1516   -1.3407 O   0  0  0  0  0  0  0  0  0  0  0  0
    4.6820    0.7985   -2.0544 C   0  0  0  0  0  0  0  0  0  0  0  0
    3.1425   -2.7108   -0.8578 H   0  0  0  0  0  0  0  0  0  0  0  0
    4.6246   -2.9818    0.0859 H   0  0  0  0  0  0  0  0  0  0  0  0
    3.3813   -0.3589    0.0030 H   0  0  0  0  0  0  0  0  0  0  0  0
    5.2139   -0.6021    1.4870 H   0  0  0  0  0  0  0  0  0  0  0  0
    6.2275   -1.1345    0.1032 H   0  0  0  0  0  0  0  0  0  0  0  0
    3.3675   -0.9217   -2.3036 H   0  0  0  0  0  0  0  0  0  0  0  0
    5.1118   -1.3382   -2.1826 H   0  0  0  0  0  0  0  0  0  0  0  0
    2.2271   -3.2046    1.3342 H   0  0  0  0  0  0  0  0  0  0  0  0
    3.5547   -2.3766    2.1353 H   0  0  0  0  0  0  0  0  0  0  0  0
    1.8415   -0.8497    2.3402 H   0  0  0  0  0  0  0  0  0  0  0  0
    0.5977   -2.3948   -2.6608 H   0  0  0  0  0  0  0  0  0  0  0  0
   -4.2539    0.7270    1.3362 H   0  0  0  0  0  0  0  0  0  0  0  0
   -2.0102   -3.7445   -1.2099 H   0  0  0  0  0  0  0  0  0  0  0  0
   -4.6380   -0.1074   -1.0155 H   0  0  0  0  0  0  0  0  0  0  0  0
   -2.3052   -3.9729   -6.1505 H   0  0  0  0  0  0  0  0  0  0  0  0
   -0.7254   -1.0350   -5.1202 H   0  0  0  0  0  0  0  0  0  0  0  0
    0.5397   -2.2954   -5.2059 H   0  0  0  0  0  0  0  0  0  0  0  0
   -0.7522   -2.2389   -6.4113 H   0  0  0  0  0  0  0  0  0  0  0  0
   -3.6946   -5.4462   -4.7709 H   0  0  0  0  0  0  0  0  0  0  0  0
   -3.2281   -6.5082   -1.8320 H   0  0  0  0  0  0  0  0  0  0  0  0
   -4.7211   -5.8616   -2.5557 H   0  0  0  0  0  0  0  0  0  0  0  0
   -4.0634   -5.1150   -1.1003 H   0  0  0  0  0  0  0  0  0  0  0  0
    4.9132    1.6480    0.4276 H   0  0  0  0  0  0  0  0  0  0  0  0
    6.6424    1.2922    0.5549 H   0  0  0  0  0  0  0  0  0  0  0  0
    3.8651    1.4614   -1.7458 H   0  0  0  0  0  0  0  0  0  0  0  0
    4.8680    0.9712   -3.1190 H   0  0  0  0  0  0  0  0  0  0  0  0
  1  2  1  0
  2  3  1  0
  2  4  1  0
  5  1  1  0
  6  5  1  0
  7  6  1  0
  8  7  2  0
  7  9  1  0
 10  8  1  0
  9 11  2  0
 12 10  1  0
 13 10  2  0
 11 14  1  0
 13 11  1  0
 15 12  1  0
 16 13  1  0
 14 17  2  0
 18 15  2  0
 15 19  1  0
 20 16  2  0
 17 20  1  0
 21 18  1  0
 18 22  1  0
 19 23  2  0
 24 21  2  0
 25 23  1  0
 23 24  1  0
  3 26  1  0
 26 27  1  0
 27 28  1  0
 28  4  1  0
  1 29  1  0
  1 30  1  0
  2 31  1  0
  3 32  1  0
  3 33  1  0
  4 34  1  0
  4 35  1  0
  5 36  1  0
  5 37  1  0
  6 38  1  0
 12 39  1  0
 17 40  1  0
 19 41  1  0
 20 42  1  0
 21 43  1  0
 22 44  1  0
 22 45  1  0
 22 46  1  0
 24 47  1  0
 25 48  1  0
 25 49  1  0
 25 50  1  0
 26 51  1  0
 26 52  1  0
 28 53  1  0
 28 54  1  0
M  CHG  1   2   1
M  END
>  <ScrubInfo>  (1) 
{"isomerGroup": 0, "isomerId": 0, "confId": 0, "nr_conformers:": 1, "nr_isomers:": 9}

$$$$
_i1
     RDKit          3D

 54 57  0  0  0  0  0  0  0  0999 V2000
    4.8079    3.7218    3.8959 N   0  0  0  0  0  0  0  0  0  0  0  0
    6.0077    4.0854    4.4671 C   0  0  0  0  0  0  0  0  0  0  0  0
    6.0114    5.0688    5.4466 N   0  0  0  0  0  0  0  0  0  0  0  0
    6.4183    4.9200    6.8003 C   0  0  0  0  0  0  0  0  0  0  0  0
    6.8330    3.6862    7.3309 C   0  0  0  0  0  0  0  0  0  0  0  0
    7.2418    3.5570    8.6668 C   0  0  0  0  0  0  0  0  0  0  0  0
    7.6998    2.2307    9.1970 C   0  0  0  0  0  0  0  0  0  0  0  0
    7.2731    4.6906    9.4785 C   0  0  0  0  0  0  0  0  0  0  0  0
    6.8887    5.9291    8.9681 C   0  0  0  0  0  0  0  0  0  0  0  0
    6.4714    6.0603    7.6334 C   0  0  0  0  0  0  0  0  0  0  0  0
    6.0938    7.4273    7.1275 C   0  0  0  0  0  0  0  0  0  0  0  0
    7.1453    3.5096    3.9919 C   0  0  0  0  0  0  0  0  0  0  0  0
    8.4153    3.8280    4.4170 N   0  0  0  0  0  0  0  0  0  0  0  0
    9.3788    3.1758    3.8636 C   0  0  0  0  0  0  0  0  0  0  0  0
    9.1474    2.1255    2.8302 C   0  0  0  0  0  0  0  0  0  0  0  0
    7.9725    1.8078    2.3962 N   0  0  0  0  0  0  0  0  0  0  0  0
    6.8890    2.4863    2.9074 C   0  0  0  0  0  0  0  0  0  0  0  0
    5.7503    2.1503    2.3969 N   0  0  0  0  0  0  0  0  0  0  0  0
    4.6638    2.8081    2.9024 C   0  0  0  0  0  0  0  0  0  0  0  0
    3.4881    2.5311    2.4417 N   0  0  0  0  0  0  0  0  0  0  0  0
    3.4053    1.5897    1.3203 C   0  0  0  0  0  0  0  0  0  0  0  0
    3.5726    0.1375    1.7947 C   0  0  0  0  0  0  0  0  0  0  0  0
    4.1274   -0.7480    0.6917 N   0  0  0  0  0  4  0  0  0  0  0  0
    5.6229   -0.5440    0.4238 C   0  0  0  0  0  0  0  0  0  0  0  0
    6.4730   -1.2060    1.5145 C   0  0  0  0  0  0  0  0  0  0  0  0
    6.1558   -2.6001    1.6365 O   0  0  0  0  0  0  0  0  0  0  0  0
    4.7826   -2.7995    1.9913 C   0  0  0  0  0  0  0  0  0  0  0  0
    3.8505   -2.2288    0.9168 C   0  0  0  0  0  0  0  0  0  0  0  0
    3.9668    4.1431    4.2622 H   0  0  0  0  0  0  0  0  0  0  0  0
    5.2193    5.6991    5.3889 H   0  0  0  0  0  0  0  0  0  0  0  0
    6.8296    2.7964    6.7094 H   0  0  0  0  0  0  0  0  0  0  0  0
    7.5226    2.1571   10.2751 H   0  0  0  0  0  0  0  0  0  0  0  0
    8.7692    2.1003    9.0048 H   0  0  0  0  0  0  0  0  0  0  0  0
    7.1514    1.4106    8.7218 H   0  0  0  0  0  0  0  0  0  0  0  0
    7.6047    4.6211   10.5124 H   0  0  0  0  0  0  0  0  0  0  0  0
    6.9303    6.7998    9.6198 H   0  0  0  0  0  0  0  0  0  0  0  0
    6.3159    8.2058    7.8652 H   0  0  0  0  0  0  0  0  0  0  0  0
    5.0213    7.4671    6.9124 H   0  0  0  0  0  0  0  0  0  0  0  0
    6.6585    7.6697    6.2213 H   0  0  0  0  0  0  0  0  0  0  0  0
   10.4320    3.3565    4.1286 H   0  0  0  0  0  0  0  0  0  0  0  0
   10.0552    1.6268    2.4572 H   0  0  0  0  0  0  0  0  0  0  0  0
    2.4130    1.6960    0.8653 H   0  0  0  0  0  0  0  0  0  0  0  0
    4.1091    1.8690    0.5279 H   0  0  0  0  0  0  0  0  0  0  0  0
    4.2205    0.0329    2.6686 H   0  0  0  0  0  0  0  0  0  0  0  0
    2.5875   -0.2616    2.0626 H   0  0  0  0  0  0  0  0  0  0  0  0
    3.6361   -0.4860   -0.1716 H   0  0  0  0  0  0  0  0  0  0  0  0
    5.8228    0.5230    0.3186 H   0  0  0  0  0  0  0  0  0  0  0  0
    5.8072   -1.0279   -0.5421 H   0  0  0  0  0  0  0  0  0  0  0  0
    7.5317   -1.1339    1.2460 H   0  0  0  0  0  0  0  0  0  0  0  0
    6.3477   -0.7243    2.4893 H   0  0  0  0  0  0  0  0  0  0  0  0
    4.6194   -3.8781    2.0808 H   0  0  0  0  0  0  0  0  0  0  0  0
    4.5914   -2.3546    2.9742 H   0  0  0  0  0  0  0  0  0  0  0  0
    4.0352   -2.7124   -0.0487 H   0  0  0  0  0  0  0  0  0  0  0  0
    2.7938   -2.3421    1.1768 H   0  0  0  0  0  0  0  0  0  0  0  0
  1  2  1  0
  2  3  1  0
  3  4  1  0
  4  5  2  0
  5  6  1  0
  6  7  1  0
  6  8  2  0
  8  9  1  0
  9 10  2  0
 10 11  1  0
  2 12  2  0
 12 13  1  0
 13 14  2  0
 14 15  1  0
 15 16  2  0
 16 17  1  0
 17 18  2  0
 18 19  1  0
 19 20  2  3
 20 21  1  0
 21 22  1  0
 22 23  1  0
 23 24  1  0
 24 25  1  0
 25 26  1  0
 26 27  1  0
 27 28  1  0
 19  1  1  0
 28 23  1  0
 10  4  1  0
 17 12  1  0
  1 29  1  0
  3 30  1  0
  5 31  1  0
  7 32  1  0
  7 33  1  0
  7 34  1  0
  8 35  1  0
  9 36  1  0
 11 37  1  0
 11 38  1  0
 11 39  1  0
 14 40  1  0
 15 41  1  0
 21 42  1  0
 21 43  1  0
 22 44  1  0
 22 45  1  0
 23 46  1  0
 24 47  1  0
 24 48  1  0
 25 49  1  0
 25 50  1  0
 27 51  1  0
 27 52  1  0
 28 53  1  0
 28 54  1  0
M  CHG  1  23   1
M  END
>  <ScrubInfo>  (2) 
{"isomerGroup": 0, "isomerId": 1, "confId": 0, "nr_conformers:": 1, "nr_isomers:": 9}

$$$$
_i2
     RDKit          3D

 54 57  0  0  0  0  0  0  0  0999 V2000
   -2.8441    2.5789   -3.8593 N   0  0  0  0  0  0  0  0  0  0  0  0
   -2.8333    2.1995   -2.5557 C   0  0  0  0  0  0  0  0  0  0  0  0
   -2.6099    0.8719   -2.3303 N   0  0  0  0  0  0  0  0  0  0  0  0
   -1.9108    0.3140   -1.1625 C   0  0  0  0  0  0  0  0  0  0  0  0
   -2.1413    0.9896    0.2098 C   0  0  0  0  0  0  0  0  0  0  0  0
   -3.5650    1.4169    0.4486 N   0  0  0  0  0  4  0  0  0  0  0  0
   -3.7081    2.3297    1.6554 C   0  0  0  0  0  0  0  0  0  0  0  0
   -5.1536    2.8283    1.7499 C   0  0  0  0  0  0  0  0  0  0  0  0
   -6.0692    1.7262    1.8160 O   0  0  0  0  0  0  0  0  0  0  0  0
   -5.9918    0.9136    0.6386 C   0  0  0  0  0  0  0  0  0  0  0  0
   -4.5913    0.3108    0.4748 C   0  0  0  0  0  0  0  0  0  0  0  0
   -3.0923    3.0209   -1.5823 N   0  0  0  0  0  0  0  0  0  0  0  0
   -3.3584    4.3605   -1.9439 C   0  0  0  0  0  0  0  0  0  0  0  0
   -3.6375    5.1458   -0.8755 N   0  0  0  0  0  0  0  0  0  0  0  0
   -3.9025    6.4434   -1.1767 C   0  0  0  0  0  0  0  0  0  0  0  0
   -3.9005    6.9329   -2.4766 C   0  0  0  0  0  0  0  0  0  0  0  0
   -3.6358    6.1498   -3.5454 N   0  0  0  0  0  0  0  0  0  0  0  0
   -3.3657    4.8573   -3.2574 C   0  0  0  0  0  0  0  0  0  0  0  0
   -3.0760    3.8544   -4.3296 C   0  0  0  0  0  0  0  0  0  0  0  0
   -3.0135    4.0115   -5.6252 N   0  0  0  0  0  0  0  0  0  0  0  0
   -3.2328    5.2588   -6.2282 C   0  0  0  0  0  0  0  0  0  0  0  0
   -4.5312    5.6005   -6.6306 C   0  0  0  0  0  0  0  0  0  0  0  0
   -4.7942    6.8148   -7.2770 C   0  0  0  0  0  0  0  0  0  0  0  0
   -6.1955    7.1838   -7.6618 C   0  0  0  0  0  0  0  0  0  0  0  0
   -3.7372    7.6984   -7.5100 C   0  0  0  0  0  0  0  0  0  0  0  0
   -2.4353    7.3575   -7.1369 C   0  0  0  0  0  0  0  0  0  0  0  0
   -2.1677    6.1312   -6.5107 C   0  0  0  0  0  0  0  0  0  0  0  0
   -0.7588    5.7816   -6.1278 C   0  0  0  0  0  0  0  0  0  0  0  0
   -2.6541    1.9184   -4.6009 H   0  0  0  0  0  0  0  0  0  0  0  0
   -2.3881    0.3389   -3.1690 H   0  0  0  0  0  0  0  0  0  0  0  0
   -0.8344    0.3121   -1.3704 H   0  0  0  0  0  0  0  0  0  0  0  0
   -2.2074   -0.7384   -1.0830 H   0  0  0  0  0  0  0  0  0  0  0  0
   -1.5240    1.8932    0.2752 H   0  0  0  0  0  0  0  0  0  0  0  0
   -1.8523    0.3194    1.0270 H   0  0  0  0  0  0  0  0  0  0  0  0
   -3.7671    2.0327   -0.3650 H   0  0  0  0  0  0  0  0  0  0  0  0
   -3.0100    3.1635    1.5345 H   0  0  0  0  0  0  0  0  0  0  0  0
   -3.4366    1.7309    2.5313 H   0  0  0  0  0  0  0  0  0  0  0  0
   -5.2812    3.4214    2.6606 H   0  0  0  0  0  0  0  0  0  0  0  0
   -5.4148    3.4649    0.8967 H   0  0  0  0  0  0  0  0  0  0  0  0
   -6.7290    0.1111    0.7395 H   0  0  0  0  0  0  0  0  0  0  0  0
   -6.2696    1.5143   -0.2356 H   0  0  0  0  0  0  0  0  0  0  0  0
   -4.5195   -0.2507   -0.4601 H   0  0  0  0  0  0  0  0  0  0  0  0
   -4.3357   -0.3330    1.3230 H   0  0  0  0  0  0  0  0  0  0  0  0
   -4.1205    7.0940   -0.3355 H   0  0  0  0  0  0  0  0  0  0  0  0
   -4.1152    7.9747   -2.6936 H   0  0  0  0  0  0  0  0  0  0  0  0
   -5.3424    4.9048   -6.4344 H   0  0  0  0  0  0  0  0  0  0  0  0
   -6.2007    7.8371   -8.5407 H   0  0  0  0  0  0  0  0  0  0  0  0
   -6.7778    6.2922   -7.9171 H   0  0  0  0  0  0  0  0  0  0  0  0
   -6.6867    7.7023   -6.8328 H   0  0  0  0  0  0  0  0  0  0  0  0
   -3.9173    8.6556   -7.9947 H   0  0  0  0  0  0  0  0  0  0  0  0
   -1.6281    8.0561   -7.3455 H   0  0  0  0  0  0  0  0  0  0  0  0
   -0.0398    6.4846   -6.5617 H   0  0  0  0  0  0  0  0  0  0  0  0
   -0.4965    4.7836   -6.4940 H   0  0  0  0  0  0  0  0  0  0  0  0
   -0.6446    5.8108   -5.0397 H   0  0  0  0  0  0  0  0  0  0  0  0
  1  2  1  0
  2  3  1  0
  3  4  1  0
  4  5  1  0
  5  6  1  0
  6  7  1  0
  7  8  1  0
  8  9  1  0
  9 10  1  0
 10 11  1  0
  2 12  2  0
 12 13  1  0
 13 14  2  0
 14 15  1  0
 15 16  2  0
 16 17  1  0
 17 18  2  0
 18 19  1  0
 19 20  2  3
 20 21  1  0
 21 22  2  0
 22 23  1  0
 23 24  1  0
 23 25  2  0
 25 26  1  0
 26 27  2  0
 27 28  1  0
 19  1  1  0
 27 21  1  0
 11  6  1  0
 18 13  1  0
  1 29  1  0
  3 30  1  0
  4 31  1  0
  4 32  1  0
  5 33  1  0
  5 34  1  0
  6 35  1  0
  7 36  1  0
  7 37  1  0
  8 38  1  0
  8 39  1  0
 10 40  1  0
 10 41  1  0
 11 42  1  0
 11 43  1  0
 15 44  1  0
 16 45  1  0
 22 46  1  0
 24 47  1  0
 24 48  1  0
 24 49  1  0
 25 50  1  0
 26 51  1  0
 28 52  1  0
 28 53  1  0
 28 54  1  0
M  CHG  1   6   1
M  END
>  <ScrubInfo>  (3) 
{"isomerGroup": 0, "isomerId": 2, "confId": 0, "nr_conformers:": 1, "nr_isomers:": 9}

$$$$
_i3
     RDKit          3D

 54 57  0  0  0  0  0  0  0  0999 V2000
    2.6525   -0.9752   -5.2412 N   0  0  0  0  0  0  0  0  0  0  0  0
    2.4585    0.2589   -4.7054 C   0  0  0  0  0  0  0  0  0  0  0  0
    3.2365    0.8809   -3.8955 N   0  0  0  0  0  0  0  0  0  0  0  0
    4.4820    0.2746   -3.4336 C   0  0  0  0  0  0  0  0  0  0  0  0
    5.2279    1.3744   -2.6499 C   0  0  0  0  0  0  0  0  0  0  0  0
    4.1924    2.2754   -1.9982 N   0  0  0  0  0  4  0  0  0  0  0  0
    4.5839    3.7296   -1.8790 C   0  0  0  0  0  0  0  0  0  0  0  0
    5.5184    3.9205   -0.6803 C   0  0  0  0  0  0  0  0  0  0  0  0
    4.9044    3.4568    0.5297 O   0  0  0  0  0  0  0  0  0  0  0  0
    4.5781    2.0625    0.4635 C   0  0  0  0  0  0  0  0  0  0  0  0
    3.6173    1.7638   -0.6946 C   0  0  0  0  0  0  0  0  0  0  0  0
    1.3429    1.0027   -4.9825 N   0  0  0  0  0  0  0  0  0  0  0  0
    0.4334    0.5407   -5.8000 C   0  0  0  0  0  0  0  0  0  0  0  0
   -0.7251    1.2383   -6.1013 N   0  0  0  0  0  0  0  0  0  0  0  0
   -0.8175    2.6472   -6.0920 C   0  0  0  0  0  0  0  0  0  0  0  0
   -1.8846    3.2170   -5.3767 C   0  0  0  0  0  0  0  0  0  0  0  0
   -2.1110    4.5989   -5.3731 C   0  0  0  0  0  0  0  0  0  0  0  0
   -3.2248    5.1854   -4.5579 C   0  0  0  0  0  0  0  0  0  0  0  0
   -1.2518    5.4233   -6.1000 C   0  0  0  0  0  0  0  0  0  0  0  0
   -0.2152    4.8695   -6.8527 C   0  0  0  0  0  0  0  0  0  0  0  0
   -0.0045    3.4803   -6.8840 C   0  0  0  0  0  0  0  0  0  0  0  0
    1.1015    2.9447   -7.7500 C   0  0  0  0  0  0  0  0  0  0  0  0
    0.5817   -0.7934   -6.4457 C   0  0  0  0  0  0  0  0  0  0  0  0
   -0.3826   -1.2114   -7.3070 N   0  0  0  0  0  0  0  0  0  0  0  0
   -0.1420   -2.4314   -7.8396 C   0  0  0  0  0  0  0  0  0  0  0  0
    0.9938   -3.1708   -7.5272 C   0  0  0  0  0  0  0  0  0  0  0  0
    1.9500   -2.7287   -6.6668 N   0  0  0  0  0  0  0  0  0  0  0  0
    1.7269   -1.5129   -6.1235 C   0  0  0  0  0  0  0  0  0  0  0  0
    3.4588   -1.5480   -5.0645 H   0  0  0  0  0  0  0  0  0  0  0  0
    5.1086   -0.0796   -4.2590 H   0  0  0  0  0  0  0  0  0  0  0  0
    4.2635   -0.5667   -2.7666 H   0  0  0  0  0  0  0  0  0  0  0  0
    5.9051    0.9771   -1.8893 H   0  0  0  0  0  0  0  0  0  0  0  0
    5.7927    1.9961   -3.3527 H   0  0  0  0  0  0  0  0  0  0  0  0
    3.4113    2.2264   -2.6904 H   0  0  0  0  0  0  0  0  0  0  0  0
    3.6486    4.2804   -1.7312 H   0  0  0  0  0  0  0  0  0  0  0  0
    5.0405    4.0450   -2.8217 H   0  0  0  0  0  0  0  0  0  0  0  0
    6.4707    3.3976   -0.8255 H   0  0  0  0  0  0  0  0  0  0  0  0
    5.7395    4.9846   -0.5514 H   0  0  0  0  0  0  0  0  0  0  0  0
    4.1046    1.7891    1.4117 H   0  0  0  0  0  0  0  0  0  0  0  0
    5.5035    1.4821    0.3794 H   0  0  0  0  0  0  0  0  0  0  0  0
    3.4148    0.6942   -0.7987 H   0  0  0  0  0  0  0  0  0  0  0  0
    2.6712    2.2985   -0.5564 H   0  0  0  0  0  0  0  0  0  0  0  0
   -1.2775    0.8292   -6.8559 H   0  0  0  0  0  0  0  0  0  0  0  0
   -2.5406    2.5665   -4.8009 H   0  0  0  0  0  0  0  0  0  0  0  0
   -3.5891    6.1162   -5.0053 H   0  0  0  0  0  0  0  0  0  0  0  0
   -2.8748    5.3947   -3.5424 H   0  0  0  0  0  0  0  0  0  0  0  0
   -4.0745    4.4966   -4.5054 H   0  0  0  0  0  0  0  0  0  0  0  0
   -1.3943    6.5019   -6.1017 H   0  0  0  0  0  0  0  0  0  0  0  0
    0.4207    5.5341   -7.4344 H   0  0  0  0  0  0  0  0  0  0  0  0
    0.7876    2.0351   -8.2717 H   0  0  0  0  0  0  0  0  0  0  0  0
    1.9897    2.7353   -7.1468 H   0  0  0  0  0  0  0  0  0  0  0  0
    1.3813    3.6671   -8.5248 H   0  0  0  0  0  0  0  0  0  0  0  0
   -0.8886   -2.8090   -8.5313 H   0  0  0  0  0  0  0  0  0  0  0  0
    1.1668   -4.1486   -7.9665 H   0  0  0  0  0  0  0  0  0  0  0  0
  1  2  1  0
  2  3  2  3
  3  4  1  0
  4  5  1  0
  5  6  1  0
  6  7  1  0
  7  8  1  0
  8  9  1  0
  9 10  1  0
 10 11  1  0
  2 12  1  0
 12 13  2  0
 13 14  1  0
 14 15  1  0
 15 16  2  0
 16 17  1  0
 17 18  1  0
 17 19  2  0
 19 20  1  0
 20 21  2  0
 21 22  1  0
 13 23  1  0
 23 24  2  0
 24 25  1  0
 25 26  2  0
 26 27  1  0
 27 28  2  0
 28  1  1  0
 11  6  1  0
 21 15  1  0
 28 23  1  0
  1 29  1  0
  4 30  1  0
  4 31  1  0
  5 32  1  0
  5 33  1  0
  6 34  1  0
  7 35  1  0
  7 36  1  0
  8 37  1  0
  8 38  1  0
 10 39  1  0
 10 40  1  0
 11 41  1  0
 11 42  1  0
 14 43  1  0
 16 44  1  0
 18 45  1  0
 18 46  1  0
 18 47  1  0
 19 48  1  0
 20 49  1  0
 22 50  1  0
 22 51  1  0
 22 52  1  0
 25 53  1  0
 26 54  1  0
M  CHG  1   6   1
M  END
>  <ScrubInfo>  (4) 
{"isomerGroup": 0, "isomerId": 3, "confId": 0, "nr_conformers:": 1, "nr_isomers:": 9}

$$$$
_i4
     RDKit          3D

 54 57  0  0  0  0  0  0  0  0999 V2000
    1.4217    0.0632    0.1881 N   0  0  0  0  0  0  0  0  0  0  0  0
    0.0997    0.0452   -0.0903 C   0  0  0  0  0  0  0  0  0  0  0  0
   -0.3762   -1.1841   -0.4376 N   0  0  0  0  0  0  0  0  0  0  0  0
   -1.6733   -1.3958   -1.0837 C   0  0  0  0  0  0  0  0  0  0  0  0
   -2.8878   -1.0497   -0.1891 C   0  0  0  0  0  0  0  0  0  0  0  0
   -3.2325    0.4263   -0.1514 N   0  0  0  0  0  4  0  0  0  0  0  0
   -4.1102    0.7681    1.0421 C   0  0  0  0  0  0  0  0  0  0  0  0
   -4.5123    2.2463    1.0347 C   0  0  0  0  0  0  0  0  0  0  0  0
   -5.1380    2.5997   -0.2036 O   0  0  0  0  0  0  0  0  0  0  0  0
   -4.2222    2.4330   -1.2908 C   0  0  0  0  0  0  0  0  0  0  0  0
   -3.8289    0.9602   -1.4407 C   0  0  0  0  0  0  0  0  0  0  0  0
   -0.6882    1.0701   -0.0216 N   0  0  0  0  0  0  0  0  0  0  0  0
   -0.1701    2.2946    0.3739 C   0  0  0  0  0  0  0  0  0  0  0  0
   -1.1271    3.1619    0.5088 N   0  0  0  0  0  0  0  0  0  0  0  0
   -0.8740    4.4780    0.9201 C   0  0  0  0  0  0  0  0  0  0  0  0
   -0.7047    5.4693   -0.0560 C   0  0  0  0  0  0  0  0  0  0  0  0
   -0.5019    6.8085    0.2989 C   0  0  0  0  0  0  0  0  0  0  0  0
   -0.2736    7.8495   -0.7561 C   0  0  0  0  0  0  0  0  0  0  0  0
   -0.4578    7.1489    1.6530 C   0  0  0  0  0  0  0  0  0  0  0  0
   -0.6480    6.1736    2.6340 C   0  0  0  0  0  0  0  0  0  0  0  0
   -0.8770    4.8358    2.2799 C   0  0  0  0  0  0  0  0  0  0  0  0
   -1.0696    3.8087    3.3578 C   0  0  0  0  0  0  0  0  0  0  0  0
    1.3025    2.4391    0.5954 C   0  0  0  0  0  0  0  0  0  0  0  0
    1.8566    3.6414    0.8836 N   0  0  0  0  0  0  0  0  0  0  0  0
    3.1927    3.6264    1.0833 C   0  0  0  0  0  0  0  0  0  0  0  0
    3.9396    2.4622    0.9981 C   0  0  0  0  0  0  0  0  0  0  0  0
    3.3848    1.2588    0.7061 N   0  0  0  0  0  0  0  0  0  0  0  0
    2.0480    1.2635    0.5021 C   0  0  0  0  0  0  0  0  0  0  0  0
    2.0350   -0.7363    0.1554 H   0  0  0  0  0  0  0  0  0  0  0  0
    0.3344   -1.8298   -0.7727 H   0  0  0  0  0  0  0  0  0  0  0  0
   -1.7378   -2.4654   -1.3162 H   0  0  0  0  0  0  0  0  0  0  0  0
   -1.7031   -0.8686   -2.0420 H   0  0  0  0  0  0  0  0  0  0  0  0
   -3.7844   -1.5676   -0.5473 H   0  0  0  0  0  0  0  0  0  0  0  0
   -2.6900   -1.3626    0.8425 H   0  0  0  0  0  0  0  0  0  0  0  0
   -2.3300    0.9366   -0.0082 H   0  0  0  0  0  0  0  0  0  0  0  0
   -4.9978    0.1309    0.9613 H   0  0  0  0  0  0  0  0  0  0  0  0
   -3.5496    0.5175    1.9480 H   0  0  0  0  0  0  0  0  0  0  0  0
   -3.6564    2.9020    1.2140 H   0  0  0  0  0  0  0  0  0  0  0  0
   -5.2362    2.4306    1.8349 H   0  0  0  0  0  0  0  0  0  0  0  0
   -4.7262    2.7708   -2.2018 H   0  0  0  0  0  0  0  0  0  0  0  0
   -3.3469    3.0739   -1.1421 H   0  0  0  0  0  0  0  0  0  0  0  0
   -3.0875    0.8386   -2.2340 H   0  0  0  0  0  0  0  0  0  0  0  0
   -4.7112    0.3464   -1.6516 H   0  0  0  0  0  0  0  0  0  0  0  0
   -0.7264    5.1867   -1.1051 H   0  0  0  0  0  0  0  0  0  0  0  0
    0.7932    7.9171   -0.9902 H   0  0  0  0  0  0  0  0  0  0  0  0
   -0.6252    8.8307   -0.4199 H   0  0  0  0  0  0  0  0  0  0  0  0
   -0.8225    7.6045   -1.6714 H   0  0  0  0  0  0  0  0  0  0  0  0
   -0.2794    8.1790    1.9553 H   0  0  0  0  0  0  0  0  0  0  0  0
   -0.6168    6.4689    3.6808 H   0  0  0  0  0  0  0  0  0  0  0  0
   -1.2840    4.2794    4.3232 H   0  0  0  0  0  0  0  0  0  0  0  0
   -1.9163    3.1547    3.1259 H   0  0  0  0  0  0  0  0  0  0  0  0
   -0.1646    3.2031    3.4674 H   0  0  0  0  0  0  0  0  0  0  0  0
    3.6514    4.5818    1.3170 H   0  0  0  0  0  0  0  0  0  0  0  0
    5.0124    2.4656    1.1626 H   0  0  0  0  0  0  0  0  0  0  0  0
  1  2  1  0
  2  3  1  0
  3  4  1  0
  4  5  1  0
  5  6  1  0
  6  7  1  0
  7  8  1  0
  8  9  1  0
  9 10  1  0
 10 11  1  0
  2 12  2  0
 12 13  1  0
 13 14  2  3
 14 15  1  0
 15 16  2  0
 16 17  1  0
 17 18  1  0
 17 19  2  0
 19 20  1  0
 20 21  2  0
 21 22  1  0
 13 23  1  0
 23 24  2  0
 24 25  1  0
 25 26  2  0
 26 27  1  0
 27 28  2  0
 28  1  1  0
 11  6  1  0
 21 15  1  0
 28 23  1  0
  1 29  1  0
  3 30  1  0
  4 31  1  0
  4 32  1  0
  5 33  1  0
  5 34  1  0
  6 35  1  0
  7 36  1  0
  7 37  1  0
  8 38  1  0
  8 39  1  0
 10 40  1  0
 10 41  1  0
 11 42  1  0
 11 43  1  0
 16 44  1  0
 18 45  1  0
 18 46  1  0
 18 47  1  0
 19 48  1  0
 20 49  1  0
 22 50  1  0
 22 51  1  0
 22 52  1  0
 25 53  1  0
 26 54  1  0
M  CHG  1   6   1
M  END
>  <ScrubInfo>  (5) 
{"isomerGroup": 0, "isomerId": 4, "confId": 0, "nr_conformers:": 1, "nr_isomers:": 9}

$$$$
_i5
     RDKit          3D

 54 57  0  0  0  0  0  0  0  0999 V2000
    1.9481    0.4218   -3.5260 N   0  0  0  0  0  0  0  0  0  0  0  0
    3.2026   -0.1238   -3.5816 C   0  0  0  0  0  0  0  0  0  0  0  0
    3.7239   -0.7632   -2.5225 C   0  0  0  0  0  0  0  0  0  0  0  0
    3.0691   -0.9089   -1.3169 N   0  0  0  0  0  0  0  0  0  0  0  0
    1.8720   -0.3962   -1.2181 C   0  0  0  0  0  0  0  0  0  0  0  0
    1.0842   -0.4696    0.0689 C   0  0  0  0  0  0  0  0  0  0  0  0
    1.6279   -0.9580    1.2392 N   0  0  0  0  0  0  0  0  0  0  0  0
    2.9220   -0.5974    1.6921 C   0  0  0  0  0  0  0  0  0  0  0  0
    3.7768   -1.6405    2.0866 C   0  0  0  0  0  0  0  0  0  0  0  0
    5.0478   -1.3845    2.6143 C   0  0  0  0  0  0  0  0  0  0  0  0
    5.9677   -2.5155    2.9662 C   0  0  0  0  0  0  0  0  0  0  0  0
    5.4666   -0.0606    2.7481 C   0  0  0  0  0  0  0  0  0  0  0  0
    4.6125    0.9874    2.4007 C   0  0  0  0  0  0  0  0  0  0  0  0
    3.3249    0.7367    1.8978 C   0  0  0  0  0  0  0  0  0  0  0  0
    2.4428    1.9114    1.5799 C   0  0  0  0  0  0  0  0  0  0  0  0
   -0.1558   -0.0762    0.0495 N   0  0  0  0  0  0  0  0  0  0  0  0
   -0.6822    0.4260   -1.1032 C   0  0  0  0  0  0  0  0  0  0  0  0
   -1.9388    0.6936   -1.0015 N   0  0  0  0  0  0  0  0  0  0  0  0
   -2.6145    1.2465   -2.1874 C   0  0  0  0  0  0  0  0  0  0  0  0
   -4.0376    1.6337   -1.7534 C   0  0  0  0  0  0  0  0  0  0  0  0
   -4.5066    0.6312   -0.7180 N   0  0  0  0  0  4  0  0  0  0  0  0
   -5.0145   -0.6685   -1.3103 C   0  0  0  0  0  0  0  0  0  0  0  0
   -5.3748   -1.6371   -0.1788 C   0  0  0  0  0  0  0  0  0  0  0  0
   -6.3398   -1.0547    0.7066 O   0  0  0  0  0  0  0  0  0  0  0  0
   -5.8329    0.1339    1.3263 C   0  0  0  0  0  0  0  0  0  0  0  0
   -5.4906    1.1996    0.2790 C   0  0  0  0  0  0  0  0  0  0  0  0
   -0.0427    0.6596   -2.2853 N   0  0  0  0  0  0  0  0  0  0  0  0
    1.1881    0.2795   -2.3925 C   0  0  0  0  0  0  0  0  0  0  0  0
    1.5498    0.8317   -4.3606 H   0  0  0  0  0  0  0  0  0  0  0  0
    3.7347   -0.0135   -4.5209 H   0  0  0  0  0  0  0  0  0  0  0  0
    4.7209   -1.1953   -2.5754 H   0  0  0  0  0  0  0  0  0  0  0  0
    0.9770   -0.8832    2.0157 H   0  0  0  0  0  0  0  0  0  0  0  0
    3.4516   -2.6710    1.9540 H   0  0  0  0  0  0  0  0  0  0  0  0
    6.5563   -2.8054    2.0904 H   0  0  0  0  0  0  0  0  0  0  0  0
    5.4010   -3.3847    3.3163 H   0  0  0  0  0  0  0  0  0  0  0  0
    6.6508   -2.2277    3.7723 H   0  0  0  0  0  0  0  0  0  0  0  0
    6.4590    0.1662    3.1325 H   0  0  0  0  0  0  0  0  0  0  0  0
    4.9618    2.0094    2.5361 H   0  0  0  0  0  0  0  0  0  0  0  0
    1.4270    1.7484    1.9537 H   0  0  0  0  0  0  0  0  0  0  0  0
    2.8098    2.8260    2.0587 H   0  0  0  0  0  0  0  0  0  0  0  0
    2.4152    2.0849    0.5001 H   0  0  0  0  0  0  0  0  0  0  0  0
   -2.1077    2.1343   -2.5823 H   0  0  0  0  0  0  0  0  0  0  0  0
   -2.6696    0.4861   -2.9751 H   0  0  0  0  0  0  0  0  0  0  0  0
   -4.0117    2.6109   -1.2590 H   0  0  0  0  0  0  0  0  0  0  0  0
   -4.7525    1.6613   -2.5812 H   0  0  0  0  0  0  0  0  0  0  0  0
   -3.6229    0.4085   -0.2147 H   0  0  0  0  0  0  0  0  0  0  0  0
   -5.8967   -0.4160   -1.9083 H   0  0  0  0  0  0  0  0  0  0  0  0
   -4.2301   -1.0835   -1.9490 H   0  0  0  0  0  0  0  0  0  0  0  0
   -5.8149   -2.5474   -0.5977 H   0  0  0  0  0  0  0  0  0  0  0  0
   -4.4862   -1.9278    0.3938 H   0  0  0  0  0  0  0  0  0  0  0  0
   -4.9565   -0.1208    1.9339 H   0  0  0  0  0  0  0  0  0  0  0  0
   -6.6069    0.5137    2.0003 H   0  0  0  0  0  0  0  0  0  0  0  0
   -5.0291    2.0748    0.7462 H   0  0  0  0  0  0  0  0  0  0  0  0
   -6.3777    1.4956   -0.2909 H   0  0  0  0  0  0  0  0  0  0  0  0
  1  2  1  0
  2  3  2  0
  3  4  1  0
  4  5  2  0
  5  6  1  0
  6  7  1  0
  7  8  1  0
  8  9  2  0
  9 10  1  0
 10 11  1  0
 10 12  2  0
 12 13  1  0
 13 14  2  0
 14 15  1  0
  6 16  2  0
 16 17  1  0
 17 18  2  3
 18 19  1  0
 19 20  1  0
 20 21  1  0
 21 22  1  0
 22 23  1  0
 23 24  1  0
 24 25  1  0
 25 26  1  0
 17 27  1  0
 27 28  2  0
 28  1  1  0
 28  5  1  0
 14  8  1  0
 26 21  1  0
  1 29  1  0
  2 30  1  0
  3 31  1  0
  7 32  1  0
  9 33  1  0
 11 34  1  0
 11 35  1  0
 11 36  1  0
 12 37  1  0
 13 38  1  0
 15 39  1  0
 15 40  1  0
 15 41  1  0
 19 42  1  0
 19 43  1  0
 20 44  1  0
 20 45  1  0
 21 46  1  0
 22 47  1  0
 22 48  1  0
 23 49  1  0
 23 50  1  0
 25 51  1  0
 25 52  1  0
 26 53  1  0
 26 54  1  0
M  CHG  1  21   1
M  END
>  <ScrubInfo>  (6) 
{"isomerGroup": 0, "isomerId": 5, "confId": 0, "nr_conformers:": 1, "nr_isomers:": 9}

$$$$
_i6
     RDKit          3D

 54 57  0  0  0  0  0  0  0  0999 V2000
    8.0243    5.9257   -1.2739 N   0  0  0  0  0  0  0  0  0  0  0  0
    8.9145    6.9427   -1.4970 C   0  0  0  0  0  0  0  0  0  0  0  0
    8.4874    8.1801   -1.7913 C   0  0  0  0  0  0  0  0  0  0  0  0
    7.1571    8.5294   -1.8706 N   0  0  0  0  0  0  0  0  0  0  0  0
    6.2700    7.5934   -1.6629 C   0  0  0  0  0  0  0  0  0  0  0  0
    4.7827    7.8086   -1.6643 C   0  0  0  0  0  0  0  0  0  0  0  0
    4.1521    8.9398   -1.5929 N   0  0  0  0  0  0  0  0  0  0  0  0
    4.8325   10.1602   -1.4988 C   0  0  0  0  0  0  0  0  0  0  0  0
    5.0946   10.8825   -2.6708 C   0  0  0  0  0  0  0  0  0  0  0  0
    5.7362   12.1267   -2.6279 C   0  0  0  0  0  0  0  0  0  0  0  0
    6.0510   12.8627   -3.8955 C   0  0  0  0  0  0  0  0  0  0  0  0
    6.1256   12.6433   -1.3896 C   0  0  0  0  0  0  0  0  0  0  0  0
    5.8440   11.9465   -0.2126 C   0  0  0  0  0  0  0  0  0  0  0  0
    5.1802   10.7114   -0.2530 C   0  0  0  0  0  0  0  0  0  0  0  0
    4.8723    9.9892    1.0267 C   0  0  0  0  0  0  0  0  0  0  0  0
    3.9644    6.7103   -1.7093 N   0  0  0  0  0  0  0  0  0  0  0  0
    4.4589    5.5261   -1.5565 C   0  0  0  0  0  0  0  0  0  0  0  0
    3.5508    4.5079   -1.6014 N   0  0  0  0  0  0  0  0  0  0  0  0
    3.7547    3.2230   -0.9747 C   0  0  0  0  0  0  0  0  0  0  0  0
    4.6942    2.3391   -1.8190 C   0  0  0  0  0  0  0  0  0  0  0  0
    4.6962    0.8871   -1.3579 N   0  0  0  0  0  4  0  0  0  0  0  0
    5.3166    0.6445    0.0160 C   0  0  0  0  0  0  0  0  0  0  0  0
    6.8454    0.7357   -0.0509 C   0  0  0  0  0  0  0  0  0  0  0  0
    7.3733   -0.1799   -1.0162 O   0  0  0  0  0  0  0  0  0  0  0  0
    6.8751    0.0782   -2.3337 C   0  0  0  0  0  0  0  0  0  0  0  0
    5.3481   -0.0492   -2.3789 C   0  0  0  0  0  0  0  0  0  0  0  0
    5.7769    5.2182   -1.3544 N   0  0  0  0  0  0  0  0  0  0  0  0
    6.6754    6.1524   -1.4112 C   0  0  0  0  0  0  0  0  0  0  0  0
    8.3793    4.9891   -1.1500 H   0  0  0  0  0  0  0  0  0  0  0  0
    9.9673    6.6878   -1.4307 H   0  0  0  0  0  0  0  0  0  0  0  0
    9.1984    8.9837   -1.9705 H   0  0  0  0  0  0  0  0  0  0  0  0
    4.7925   10.4605   -3.6258 H   0  0  0  0  0  0  0  0  0  0  0  0
    6.0708   13.9443   -3.7252 H   0  0  0  0  0  0  0  0  0  0  0  0
    7.0261   12.5472   -4.2789 H   0  0  0  0  0  0  0  0  0  0  0  0
    5.2902   12.6686   -4.6589 H   0  0  0  0  0  0  0  0  0  0  0  0
    6.6421   13.5989   -1.3309 H   0  0  0  0  0  0  0  0  0  0  0  0
    6.1411   12.3804    0.7394 H   0  0  0  0  0  0  0  0  0  0  0  0
    5.5087    9.1041    1.1235 H   0  0  0  0  0  0  0  0  0  0  0  0
    5.0475   10.6282    1.8988 H   0  0  0  0  0  0  0  0  0  0  0  0
    3.8208    9.6856    1.0548 H   0  0  0  0  0  0  0  0  0  0  0  0
    2.6062    4.8879   -1.5479 H   0  0  0  0  0  0  0  0  0  0  0  0
    4.1412    3.3565    0.0413 H   0  0  0  0  0  0  0  0  0  0  0  0
    2.7815    2.7270   -0.8846 H   0  0  0  0  0  0  0  0  0  0  0  0
    5.7264    2.6962   -1.8033 H   0  0  0  0  0  0  0  0  0  0  0  0
    4.3480    2.3306   -2.8591 H   0  0  0  0  0  0  0  0  0  0  0  0
    3.7129    0.5898   -1.3010 H   0  0  0  0  0  0  0  0  0  0  0  0
    5.0064   -0.3671    0.3005 H   0  0  0  0  0  0  0  0  0  0  0  0
    4.8860    1.3574    0.7228 H   0  0  0  0  0  0  0  0  0  0  0  0
    7.1841    1.7501   -0.2883 H   0  0  0  0  0  0  0  0  0  0  0  0
    7.2694    0.4685    0.9222 H   0  0  0  0  0  0  0  0  0  0  0  0
    7.3234   -0.6601   -3.0059 H   0  0  0  0  0  0  0  0  0  0  0  0
    7.2112    1.0681   -2.6614 H   0  0  0  0  0  0  0  0  0  0  0  0
    4.9369    0.1850   -3.3653 H   0  0  0  0  0  0  0  0  0  0  0  0
    5.0366   -1.0590   -2.0900 H   0  0  0  0  0  0  0  0  0  0  0  0
  1  2  1  0
  2  3  2  0
  3  4  1  0
  4  5  2  0
  5  6  1  0
  6  7  2  3
  7  8  1  0
  8  9  2  0
  9 10  1  0
 10 11  1  0
 10 12  2  0
 12 13  1  0
 13 14  2  0
 14 15  1  0
  6 16  1  0
 16 17  2  0
 17 18  1  0
 18 19  1  0
 19 20  1  0
 20 21  1  0
 21 22  1  0
 22 23  1  0
 23 24  1  0
 24 25  1  0
 25 26  1  0
 17 27  1  0
 27 28  2  0
 28  1  1  0
 28  5  1  0
 14  8  1  0
 26 21  1  0
  1 29  1  0
  2 30  1  0
  3 31  1  0
  9 32  1  0
 11 33  1  0
 11 34  1  0
 11 35  1  0
 12 36  1  0
 13 37  1  0
 15 38  1  0
 15 39  1  0
 15 40  1  0
 18 41  1  0
 19 42  1  0
 19 43  1  0
 20 44  1  0
 20 45  1  0
 21 46  1  0
 22 47  1  0
 22 48  1  0
 23 49  1  0
 23 50  1  0
 25 51  1  0
 25 52  1  0
 26 53  1  0
 26 54  1  0
M  CHG  1  21   1
M  END
>  <ScrubInfo>  (7) 
{"isomerGroup": 0, "isomerId": 6, "confId": 0, "nr_conformers:": 1, "nr_isomers:": 9}

$$$$
_i7
     RDKit          3D

 54 57  0  0  0  0  0  0  0  0999 V2000
   -0.7100    2.1188    2.1747 N   0  0  0  0  0  0  0  0  0  0  0  0
   -1.5397    1.3228    2.9076 C   0  0  0  0  0  0  0  0  0  0  0  0
   -2.7622    1.1595    2.5093 N   0  0  0  0  0  0  0  0  0  0  0  0
   -3.6349    0.3057    3.3349 C   0  0  0  0  0  0  0  0  0  0  0  0
   -5.0553    0.3832    2.7474 C   0  0  0  0  0  0  0  0  0  0  0  0
   -4.9474    0.4301    1.2353 N   0  0  0  0  0  4  0  0  0  0  0  0
   -6.0637    1.1867    0.5449 C   0  0  0  0  0  0  0  0  0  0  0  0
   -7.3177    0.3112    0.4586 C   0  0  0  0  0  0  0  0  0  0  0  0
   -7.0372   -0.9161   -0.2264 O   0  0  0  0  0  0  0  0  0  0  0  0
   -6.0357   -1.6874    0.4481 C   0  0  0  0  0  0  0  0  0  0  0  0
   -4.7174   -0.9116    0.5639 C   0  0  0  0  0  0  0  0  0  0  0  0
   -0.9325    0.7788    4.0071 N   0  0  0  0  0  0  0  0  0  0  0  0
    0.3627    0.9296    4.4589 C   0  0  0  0  0  0  0  0  0  0  0  0
    0.6486    0.2691    5.5521 N   0  0  0  0  0  0  0  0  0  0  0  0
    1.9210    0.3267    6.1397 C   0  0  0  0  0  0  0  0  0  0  0  0
    2.1792    1.3068    7.1079 C   0  0  0  0  0  0  0  0  0  0  0  0
    3.4226    1.3841    7.7480 C   0  0  0  0  0  0  0  0  0  0  0  0
    3.6748    2.4259    8.7962 C   0  0  0  0  0  0  0  0  0  0  0  0
    4.4020    0.4374    7.4369 C   0  0  0  0  0  0  0  0  0  0  0  0
    4.1480   -0.5588    6.4918 C   0  0  0  0  0  0  0  0  0  0  0  0
    2.9057   -0.6318    5.8445 C   0  0  0  0  0  0  0  0  0  0  0  0
    2.6515   -1.7157    4.8375 C   0  0  0  0  0  0  0  0  0  0  0  0
    1.2329    1.8208    3.6275 C   0  0  0  0  0  0  0  0  0  0  0  0
    2.5227    2.0521    3.9623 N   0  0  0  0  0  0  0  0  0  0  0  0
    3.1949    2.8745    3.1297 C   0  0  0  0  0  0  0  0  0  0  0  0
    2.6033    3.4381    2.0107 C   0  0  0  0  0  0  0  0  0  0  0  0
    1.3102    3.2055    1.6699 N   0  0  0  0  0  0  0  0  0  0  0  0
    0.6219    2.3838    2.4968 C   0  0  0  0  0  0  0  0  0  0  0  0
   -1.0349    2.5965    1.3483 H   0  0  0  0  0  0  0  0  0  0  0  0
   -3.6616    0.6383    4.3787 H   0  0  0  0  0  0  0  0  0  0  0  0
   -3.2810   -0.7310    3.3016 H   0  0  0  0  0  0  0  0  0  0  0  0
   -5.6879   -0.4567    3.0466 H   0  0  0  0  0  0  0  0  0  0  0  0
   -5.5230    1.3223    3.0619 H   0  0  0  0  0  0  0  0  0  0  0  0
   -4.0741    0.9770    1.1041 H   0  0  0  0  0  0  0  0  0  0  0  0
   -5.6876    1.4224   -0.4567 H   0  0  0  0  0  0  0  0  0  0  0  0
   -6.2390    2.1187    1.0902 H   0  0  0  0  0  0  0  0  0  0  0  0
   -7.7231    0.0878    1.4520 H   0  0  0  0  0  0  0  0  0  0  0  0
   -8.0942    0.8353   -0.1073 H   0  0  0  0  0  0  0  0  0  0  0  0
   -5.8733   -2.5994   -0.1349 H   0  0  0  0  0  0  0  0  0  0  0  0
   -6.4152   -1.9892    1.4305 H   0  0  0  0  0  0  0  0  0  0  0  0
   -4.3207   -0.6794   -0.4305 H   0  0  0  0  0  0  0  0  0  0  0  0
   -3.9621   -1.4613    1.1320 H   0  0  0  0  0  0  0  0  0  0  0  0
   -1.4607    0.1730    4.6188 H   0  0  0  0  0  0  0  0  0  0  0  0
    1.3966    2.0179    7.3575 H   0  0  0  0  0  0  0  0  0  0  0  0
    3.3723    2.0497    9.7783 H   0  0  0  0  0  0  0  0  0  0  0  0
    4.7355    2.6959    8.8318 H   0  0  0  0  0  0  0  0  0  0  0  0
    3.1144    3.3413    8.5793 H   0  0  0  0  0  0  0  0  0  0  0  0
    5.3697    0.4641    7.9334 H   0  0  0  0  0  0  0  0  0  0  0  0
    4.9268   -1.2853    6.2707 H   0  0  0  0  0  0  0  0  0  0  0  0
    1.7301   -2.2556    5.0785 H   0  0  0  0  0  0  0  0  0  0  0  0
    3.4642   -2.4497    4.8248 H   0  0  0  0  0  0  0  0  0  0  0  0
    2.5699   -1.2877    3.8334 H   0  0  0  0  0  0  0  0  0  0  0  0
    4.2305    3.0707    3.3876 H   0  0  0  0  0  0  0  0  0  0  0  0
    3.1585    4.0978    1.3516 H   0  0  0  0  0  0  0  0  0  0  0  0
  1  2  1  0
  2  3  2  3
  3  4  1  0
  4  5  1  0
  5  6  1  0
  6  7  1  0
  7  8  1  0
  8  9  1  0
  9 10  1  0
 10 11  1  0
  2 12  1  0
 12 13  1  0
 13 14  2  3
 14 15  1  0
 15 16  2  0
 16 17  1  0
 17 18  1  0
 17 19  2  0
 19 20  1  0
 20 21  2  0
 21 22  1  0
 13 23  1  0
 23 24  2  0
 24 25  1  0
 25 26  2  0
 26 27  1  0
 27 28  2  0
 28  1  1  0
 11  6  1  0
 21 15  1  0
 28 23  1  0
  1 29  1  0
  4 30  1  0
  4 31  1  0
  5 32  1  0
  5 33  1  0
  6 34  1  0
  7 35  1  0
  7 36  1  0
  8 37  1  0
  8 38  1  0
 10 39  1  0
 10 40  1  0
 11 41  1  0
 11 42  1  0
 12 43  1  0
 16 44  1  0
 18 45  1  0
 18 46  1  0
 18 47  1  0
 19 48  1  0
 20 49  1  0
 22 50  1  0
 22 51  1  0
 22 52  1  0
 25 53  1  0
 26 54  1  0
M  CHG  1   6   1
M  END
>  <ScrubInfo>  (8) 
{"isomerGroup": 0, "isomerId": 7, "confId": 0, "nr_conformers:": 1, "nr_isomers:": 9}

$$$$
_i8
     RDKit          3D

 54 57  0  0  0  0  0  0  0  0999 V2000
    6.4529    7.8572   -1.1783 N   0  0  0  0  0  0  0  0  0  0  0  0
    6.4180    9.1815   -0.8375 C   0  0  0  0  0  0  0  0  0  0  0  0
    5.3458    9.7114   -0.2309 C   0  0  0  0  0  0  0  0  0  0  0  0
    4.2143    8.9951    0.0892 N   0  0  0  0  0  0  0  0  0  0  0  0
    4.1755    7.7306   -0.2288 C   0  0  0  0  0  0  0  0  0  0  0  0
    2.9779    6.8483    0.0701 C   0  0  0  0  0  0  0  0  0  0  0  0
    1.8544    7.1649    0.6464 N   0  0  0  0  0  0  0  0  0  0  0  0
    1.5937    8.4719    1.0805 C   0  0  0  0  0  0  0  0  0  0  0  0
    0.9774    9.3709    0.1991 C   0  0  0  0  0  0  0  0  0  0  0  0
    0.6539   10.6731    0.6006 C   0  0  0  0  0  0  0  0  0  0  0  0
    0.0388   11.6372   -0.3691 C   0  0  0  0  0  0  0  0  0  0  0  0
    0.9642   11.0752    1.9021 C   0  0  0  0  0  0  0  0  0  0  0  0
    1.5540   10.1801    2.7970 C   0  0  0  0  0  0  0  0  0  0  0  0
    1.8581    8.8688    2.4026 C   0  0  0  0  0  0  0  0  0  0  0  0
    2.4838    7.9219    3.3849 C   0  0  0  0  0  0  0  0  0  0  0  0
    3.1676    5.5631   -0.3447 N   0  0  0  0  0  0  0  0  0  0  0  0
    4.2386    5.0391   -0.9887 C   0  0  0  0  0  0  0  0  0  0  0  0
    4.2137    3.7902   -1.3329 N   0  0  0  0  0  0  0  0  0  0  0  0
    5.3494    3.2661   -2.1180 C   0  0  0  0  0  0  0  0  0  0  0  0
    6.3747    2.6407   -1.1650 C   0  0  0  0  0  0  0  0  0  0  0  0
    5.6250    1.8253   -0.1239 N   0  0  0  0  0  4  0  0  0  0  0  0
    6.3033    1.7587    1.2296 C   0  0  0  0  0  0  0  0  0  0  0  0
    7.4502    0.7441    1.1954 C   0  0  0  0  0  0  0  0  0  0  0  0
    6.9741   -0.5501    0.8062 O   0  0  0  0  0  0  0  0  0  0  0  0
    6.3942   -0.5342   -0.5040 C   0  0  0  0  0  0  0  0  0  0  0  0
    5.2081    0.4361   -0.5783 C   0  0  0  0  0  0  0  0  0  0  0  0
    5.3589    5.7817   -1.2504 N   0  0  0  0  0  0  0  0  0  0  0  0
    5.3736    7.0452   -0.9288 C   0  0  0  0  0  0  0  0  0  0  0  0
    7.2503    7.5035   -1.6896 H   0  0  0  0  0  0  0  0  0  0  0  0
    7.2970    9.7670   -1.0877 H   0  0  0  0  0  0  0  0  0  0  0  0
    5.3276   10.7662    0.0352 H   0  0  0  0  0  0  0  0  0  0  0  0
    0.7501    9.0461   -0.8127 H   0  0  0  0  0  0  0  0  0  0  0  0
   -0.5887   12.3685    0.1512 H   0  0  0  0  0  0  0  0  0  0  0  0
    0.8233   12.1695   -0.9157 H   0  0  0  0  0  0  0  0  0  0  0  0
   -0.6010   11.1137   -1.0873 H   0  0  0  0  0  0  0  0  0  0  0  0
    0.7413   12.0875    2.2324 H   0  0  0  0  0  0  0  0  0  0  0  0
    1.7714   10.5151    3.8088 H   0  0  0  0  0  0  0  0  0  0  0  0
    3.5210    7.7156    3.1026 H   0  0  0  0  0  0  0  0  0  0  0  0
    2.4866    8.3386    4.3977 H   0  0  0  0  0  0  0  0  0  0  0  0
    1.9239    6.9818    3.4227 H   0  0  0  0  0  0  0  0  0  0  0  0
    2.3610    4.9637   -0.2342 H   0  0  0  0  0  0  0  0  0  0  0  0
    4.9533    2.4966   -2.7904 H   0  0  0  0  0  0  0  0  0  0  0  0
    5.8204    4.0095   -2.7709 H   0  0  0  0  0  0  0  0  0  0  0  0
    6.9123    3.4296   -0.6291 H   0  0  0  0  0  0  0  0  0  0  0  0
    7.0932    1.9976   -1.6799 H   0  0  0  0  0  0  0  0  0  0  0  0
    4.7485    2.3642   -0.0055 H   0  0  0  0  0  0  0  0  0  0  0  0
    5.5277    1.4413    1.9351 H   0  0  0  0  0  0  0  0  0  0  0  0
    6.6399    2.7648    1.4968 H   0  0  0  0  0  0  0  0  0  0  0  0
    8.2474    1.0585    0.5122 H   0  0  0  0  0  0  0  0  0  0  0  0
    7.8869    0.6487    2.1944 H   0  0  0  0  0  0  0  0  0  0  0  0
    6.0500   -1.5496   -0.7247 H   0  0  0  0  0  0  0  0  0  0  0  0
    7.1689   -0.2842   -1.2370 H   0  0  0  0  0  0  0  0  0  0  0  0
    4.7949    0.5082   -1.5877 H   0  0  0  0  0  0  0  0  0  0  0  0
    4.4164    0.1262    0.1126 H   0  0  0  0  0  0  0  0  0  0  0  0
  1  2  1  0
  2  3  2  0
  3  4  1  0
  4  5  2  0
  5  6  1  0
  6  7  2  3
  7  8  1  0
  8  9  2  0
  9 10  1  0
 10 11  1  0
 10 12  2  0
 12 13  1  0
 13 14  2  0
 14 15  1  0
  6 16  1  0
 16 17  1  0
 17 18  2  3
 18 19  1  0
 19 20  1  0
 20 21  1  0
 21 22  1  0
 22 23  1  0
 23 24  1  0
 24 25  1  0
 25 26  1  0
 17 27  1  0
 27 28  2  0
 28  1  1  0
 28  5  1  0
 14  8  1  0
 26 21  1  0
  1 29  1  0
  2 30  1  0
  3 31  1  0
  9 32  1  0
 11 33  1  0
 11 34  1  0
 11 35  1  0
 12 36  1  0
 13 37  1  0
 15 38  1  0
 15 39  1  0
 15 40  1  0
 16 41  1  0
 19 42  1  0
 19 43  1  0
 20 44  1  0
 20 45  1  0
 21 46  1  0
 22 47  1  0
 22 48  1  0
 23 49  1  0
 23 50  1  0
 25 51  1  0
 25 52  1  0
 26 53  1  0
 26 54  1  0
M  CHG  1  21   1
M  END
>  <ScrubInfo>  (9) 
{"isomerGroup": 0, "isomerId": 8, "confId": 0, "nr_conformers:": 1, "nr_isomers:": 9}

$$$$
