_i0
     RDKit          3D

 48 50  0  0  0  0  0  0  0  0999 V2000
   -7.9828    0.6388    0.6867 C   0  0  0  0  0  0  0  0  0  0  0  0
   -6.5900    0.1264    0.4714 C   0  0  0  0  0  0  0  0  0  0  0  0
   -6.3651   -1.2241    0.1924 C   0  0  0  0  0  0  0  0  0  0  0  0
   -5.0624   -1.7041    0.0256 C   0  0  0  0  0  0  0  0  0  0  0  0
   -3.9561   -0.8517    0.1377 C   0  0  0  0  0  0  0  0  0  0  0  0
   -2.6715   -1.3986   -0.0471 N   0  0  0  0  0  0  0  0  0  0  0  0
   -1.4404   -0.7677   -0.2710 C   0  0  0  0  0  0  0  0  0  0  0  0
   -1.3186    0.3148   -1.1116 C   0  0  0  0  0  0  0  0  0  0  0  0
   -0.0540    0.8291   -1.2693 C   0  0  0  0  0  0  0  0  0  0  0  0
    0.1793    2.0094   -2.1615 C   0  0  0  0  0  0  0  0  0  0  0  0
    1.0161    0.3024   -0.6463 N   0  0  0  0  0  0  0  0  0  0  0  0
    0.8331   -0.7697    0.1420 C   0  0  0  0  0  0  0  0  0  0  0  0
    1.9350   -1.3150    0.8032 N   0  0  0  0  0  0  0  0  0  0  0  0
    1.7515   -2.6792    1.2697 C   0  0  0  0  0  0  0  0  0  0  0  0
    3.2455   -0.9613    0.2528 C   0  0  0  0  0  0  0  0  0  0  0  0
    3.7644    0.3456    0.8703 C   0  0  0  0  0  0  0  0  0  0  0  0
    5.1024    0.7432    0.2987 C   0  0  0  0  0  0  0  0  0  0  0  0
    5.1775    1.4177   -0.9229 C   0  0  0  0  0  0  0  0  0  0  0  0
    6.4271    1.7489   -1.4230 C   0  0  0  0  0  0  0  0  0  0  0  0
    7.5883    1.4552   -0.7998 N   0  0  0  0  0  0  0  0  0  0  0  0
    7.4928    0.8031    0.3787 C   0  0  0  0  0  0  0  0  0  0  0  0
    6.2911    0.4282    0.9603 C   0  0  0  0  0  0  0  0  0  0  0  0
   -0.3765   -1.3203    0.3343 N   0  0  0  0  0  0  0  0  0  0  0  0
   -4.1883    0.4941    0.4378 C   0  0  0  0  0  0  0  0  0  0  0  0
   -5.4903    0.9787    0.6078 C   0  0  0  0  0  0  0  0  0  0  0  0
   -8.2557    0.5490    1.7426 H   0  0  0  0  0  0  0  0  0  0  0  0
   -8.7037    0.0749    0.0853 H   0  0  0  0  0  0  0  0  0  0  0  0
   -8.0629    1.6893    0.3881 H   0  0  0  0  0  0  0  0  0  0  0  0
   -7.2008   -1.9139    0.0996 H   0  0  0  0  0  0  0  0  0  0  0  0
   -4.9146   -2.7564   -0.2063 H   0  0  0  0  0  0  0  0  0  0  0  0
   -2.5044   -2.1861    0.5739 H   0  0  0  0  0  0  0  0  0  0  0  0
   -2.1695    0.7270   -1.6366 H   0  0  0  0  0  0  0  0  0  0  0  0
   -0.4028    2.8684   -1.8134 H   0  0  0  0  0  0  0  0  0  0  0  0
    1.2368    2.2934   -2.1635 H   0  0  0  0  0  0  0  0  0  0  0  0
   -0.1111    1.7705   -3.1893 H   0  0  0  0  0  0  0  0  0  0  0  0
    0.8971   -2.7655    1.9509 H   0  0  0  0  0  0  0  0  0  0  0  0
    1.6167   -3.3723    0.4314 H   0  0  0  0  0  0  0  0  0  0  0  0
    2.6282   -3.0085    1.8392 H   0  0  0  0  0  0  0  0  0  0  0  0
    3.2237   -0.9129   -0.8445 H   0  0  0  0  0  0  0  0  0  0  0  0
    3.9690   -1.7548    0.4855 H   0  0  0  0  0  0  0  0  0  0  0  0
    3.0578    1.1703    0.7192 H   0  0  0  0  0  0  0  0  0  0  0  0
    3.8466    0.2315    1.9593 H   0  0  0  0  0  0  0  0  0  0  0  0
    4.2811    1.6811   -1.4758 H   0  0  0  0  0  0  0  0  0  0  0  0
    6.5291    2.2744   -2.3680 H   0  0  0  0  0  0  0  0  0  0  0  0
    8.4401    0.5803    0.8612 H   0  0  0  0  0  0  0  0  0  0  0  0
    6.2888   -0.0959    1.9101 H   0  0  0  0  0  0  0  0  0  0  0  0
   -3.3613    1.1840    0.5790 H   0  0  0  0  0  0  0  0  0  0  0  0
   -5.6365    2.0279    0.8551 H   0  0  0  0  0  0  0  0  0  0  0  0
  1  2  1  0
  2  3  2  0
  3  4  1  0
  4  5  2  0
  5  6  1  0
  6  7  1  0
  7  8  2  0
  8  9  1  0
  9 10  1  0
  9 11  2  0
 11 12  1  0
 12 13  1  0
 13 14  1  0
 13 15  1  0
 15 16  1  0
 16 17  1  0
 17 18  2  0
 18 19  1  0
 19 20  2  0
 20 21  1  0
 21 22  2  0
 12 23  2  0
  5 24  1  0
 24 25  2  0
 25  2  1  0
 23  7  1  0
 22 17  1  0
  1 26  1  0
  1 27  1  0
  1 28  1  0
  3 29  1  0
  4 30  1  0
  6 31  1  0
  8 32  1  0
 10 33  1  0
 10 34  1  0
 10 35  1  0
 14 36  1  0
 14 37  1  0
 14 38  1  0
 15 39  1  0
 15 40  1  0
 16 41  1  0
 16 42  1  0
 18 43  1  0
 19 44  1  0
 21 45  1  0
 22 46  1  0
 24 47  1  0
 25 48  1  0
M  END
>  <ScrubInfo>  (1) 
{"isomerGroup": 0, "isomerId": 0, "confId": 0, "nr_conformers:": 1, "nr_isomers:": 3}

$$$$
_i1
     RDKit          3D

 48 50  0  0  0  0  0  0  0  0999 V2000
   -0.1251    0.2332   -1.2327 N   0  0  0  0  0  0  0  0  0  0  0  0
   -1.1306    0.9526   -0.6598 C   0  0  0  0  0  0  0  0  0  0  0  0
   -2.3493    0.9146   -1.3128 N   0  0  0  0  0  0  0  0  0  0  0  0
   -3.3691    1.8874   -0.9125 C   0  0  0  0  0  0  0  0  0  0  0  0
   -2.8704   -0.3155   -1.9332 C   0  0  0  0  0  0  0  0  0  0  0  0
   -2.9788   -1.4998   -0.9583 C   0  0  0  0  0  0  0  0  0  0  0  0
   -4.0498   -1.3451    0.0921 C   0  0  0  0  0  0  0  0  0  0  0  0
   -5.3879   -1.6235   -0.1977 C   0  0  0  0  0  0  0  0  0  0  0  0
   -6.3334   -1.4529    0.8026 C   0  0  0  0  0  0  0  0  0  0  0  0
   -6.0418   -1.0259    2.0491 N   0  0  0  0  0  0  0  0  0  0  0  0
   -4.7434   -0.7606    2.3083 C   0  0  0  0  0  0  0  0  0  0  0  0
   -3.7260   -0.9050    1.3783 C   0  0  0  0  0  0  0  0  0  0  0  0
   -0.9450    1.6355    0.4401 N   0  0  0  0  0  0  0  0  0  0  0  0
    0.3120    1.5890    1.0209 C   0  0  0  0  0  0  0  0  0  0  0  0
    0.4356    2.3735    2.2974 C   0  0  0  0  0  0  0  0  0  0  0  0
    1.3711    0.9165    0.5301 C   0  0  0  0  0  0  0  0  0  0  0  0
    1.1506    0.1805   -0.7466 C   0  0  0  0  0  0  0  0  0  0  0  0
    2.0446   -0.4810   -1.4257 N   0  0  0  0  0  0  0  0  0  0  0  0
    3.3642   -0.5506   -0.9630 C   0  0  0  0  0  0  0  0  0  0  0  0
    4.3006    0.4094   -1.3515 C   0  0  0  0  0  0  0  0  0  0  0  0
    5.6206    0.3352   -0.8995 C   0  0  0  0  0  0  0  0  0  0  0  0
    6.0264   -0.7172   -0.0701 C   0  0  0  0  0  0  0  0  0  0  0  0
    7.4352   -0.7820    0.4411 C   0  0  0  0  0  0  0  0  0  0  0  0
    5.0874   -1.6820    0.3139 C   0  0  0  0  0  0  0  0  0  0  0  0
    3.7683   -1.6037   -0.1405 C   0  0  0  0  0  0  0  0  0  0  0  0
   -0.2364   -0.1071   -2.1714 H   0  0  0  0  0  0  0  0  0  0  0  0
   -3.7664    1.6636    0.0813 H   0  0  0  0  0  0  0  0  0  0  0  0
   -4.2023    1.9065   -1.6229 H   0  0  0  0  0  0  0  0  0  0  0  0
   -2.9460    2.8982   -0.8966 H   0  0  0  0  0  0  0  0  0  0  0  0
   -3.8457   -0.1257   -2.3988 H   0  0  0  0  0  0  0  0  0  0  0  0
   -2.2094   -0.6005   -2.7602 H   0  0  0  0  0  0  0  0  0  0  0  0
   -3.1994   -2.4071   -1.5362 H   0  0  0  0  0  0  0  0  0  0  0  0
   -2.0153   -1.6958   -0.4724 H   0  0  0  0  0  0  0  0  0  0  0  0
   -5.6963   -1.9704   -1.1780 H   0  0  0  0  0  0  0  0  0  0  0  0
   -7.3837   -1.6615    0.6205 H   0  0  0  0  0  0  0  0  0  0  0  0
   -4.5323   -0.4124    3.3152 H   0  0  0  0  0  0  0  0  0  0  0  0
   -2.7039   -0.6572    1.6502 H   0  0  0  0  0  0  0  0  0  0  0  0
    1.4414    2.3128    2.7265 H   0  0  0  0  0  0  0  0  0  0  0  0
   -0.2699    1.9944    3.0442 H   0  0  0  0  0  0  0  0  0  0  0  0
    0.2127    3.4301    2.1155 H   0  0  0  0  0  0  0  0  0  0  0  0
    2.3400    0.9054    1.0059 H   0  0  0  0  0  0  0  0  0  0  0  0
    3.9973    1.2202   -2.0080 H   0  0  0  0  0  0  0  0  0  0  0  0
    6.3300    1.1005   -1.2057 H   0  0  0  0  0  0  0  0  0  0  0  0
    8.1334   -0.3464   -0.2813 H   0  0  0  0  0  0  0  0  0  0  0  0
    7.7439   -1.8198    0.6054 H   0  0  0  0  0  0  0  0  0  0  0  0
    7.5157   -0.2350    1.3855 H   0  0  0  0  0  0  0  0  0  0  0  0
    5.3770   -2.5050    0.9629 H   0  0  0  0  0  0  0  0  0  0  0  0
    3.0495   -2.3652    0.1484 H   0  0  0  0  0  0  0  0  0  0  0  0
  1  2  1  0
  2  3  1  0
  3  4  1  0
  3  5  1  0
  5  6  1  0
  6  7  1  0
  7  8  2  0
  8  9  1  0
  9 10  2  0
 10 11  1  0
 11 12  2  0
  2 13  2  0
 13 14  1  0
 14 15  1  0
 14 16  2  0
 16 17  1  0
 17 18  2  3
 18 19  1  0
 19 20  2  0
 20 21  1  0
 21 22  2  0
 22 23  1  0
 22 24  1  0
 24 25  2  0
 17  1  1  0
 25 19  1  0
 12  7  1  0
  1 26  1  0
  4 27  1  0
  4 28  1  0
  4 29  1  0
  5 30  1  0
  5 31  1  0
  6 32  1  0
  6 33  1  0
  8 34  1  0
  9 35  1  0
 11 36  1  0
 12 37  1  0
 15 38  1  0
 15 39  1  0
 15 40  1  0
 16 41  1  0
 20 42  1  0
 21 43  1  0
 23 44  1  0
 23 45  1  0
 23 46  1  0
 24 47  1  0
 25 48  1  0
M  END
>  <ScrubInfo>  (2) 
{"isomerGroup": 0, "isomerId": 1, "confId": 0, "nr_conformers:": 1, "nr_isomers:": 3}

$$$$
_i2
     RDKit          3D

 48 50  0  0  0  0  0  0  0  0999 V2000
   -0.5617    0.6832   -0.1933 N   0  0  0  0  0  0  0  0  0  0  0  0
    0.6203    0.9688   -0.8321 C   0  0  0  0  0  0  0  0  0  0  0  0
    0.5872    1.9038   -2.0018 C   0  0  0  0  0  0  0  0  0  0  0  0
    1.7549    0.4146   -0.3839 C   0  0  0  0  0  0  0  0  0  0  0  0
    1.6884   -0.4846    0.8109 C   0  0  0  0  0  0  0  0  0  0  0  0
    2.6663   -1.1531    1.3342 N   0  0  0  0  0  0  0  0  0  0  0  0
    3.9431   -1.0875    0.7686 C   0  0  0  0  0  0  0  0  0  0  0  0
    4.8717   -0.1535    1.2316 C   0  0  0  0  0  0  0  0  0  0  0  0
    6.1518   -0.0904    0.6751 C   0  0  0  0  0  0  0  0  0  0  0  0
    6.5205   -0.9669   -0.3526 C   0  0  0  0  0  0  0  0  0  0  0  0
    7.9071   -0.9277   -0.9234 C   0  0  0  0  0  0  0  0  0  0  0  0
    5.6004   -1.9270   -0.7904 C   0  0  0  0  0  0  0  0  0  0  0  0
    4.3214   -1.9862   -0.2309 C   0  0  0  0  0  0  0  0  0  0  0  0
    0.4763   -0.6205    1.4511 N   0  0  0  0  0  0  0  0  0  0  0  0
   -0.5866   -0.0688    0.9474 C   0  0  0  0  0  0  0  0  0  0  0  0
   -1.8292   -0.1773    1.5474 N   0  0  0  0  0  0  0  0  0  0  0  0
   -1.8869   -0.7879    2.8790 C   0  0  0  0  0  0  0  0  0  0  0  0
   -3.0590   -0.3415    0.7593 C   0  0  0  0  0  0  0  0  0  0  0  0
   -3.9540    0.8930    0.9144 C   0  0  0  0  0  0  0  0  0  0  0  0
   -5.2296    0.7675    0.1217 C   0  0  0  0  0  0  0  0  0  0  0  0
   -6.3730    0.2045    0.6947 C   0  0  0  0  0  0  0  0  0  0  0  0
   -7.5178    0.0916   -0.0794 C   0  0  0  0  0  0  0  0  0  0  0  0
   -7.5967    0.4914   -1.3659 N   0  0  0  0  0  0  0  0  0  0  0  0
   -6.4817    1.0299   -1.9021 C   0  0  0  0  0  0  0  0  0  0  0  0
   -5.2899    1.1854   -1.2104 C   0  0  0  0  0  0  0  0  0  0  0  0
   -1.3356    1.3071   -0.3631 H   0  0  0  0  0  0  0  0  0  0  0  0
   -0.0603    1.5044   -2.7894 H   0  0  0  0  0  0  0  0  0  0  0  0
    1.5821    2.0583   -2.4326 H   0  0  0  0  0  0  0  0  0  0  0  0
    0.1987    2.8813   -1.6972 H   0  0  0  0  0  0  0  0  0  0  0  0
    2.7158    0.5983   -0.8419 H   0  0  0  0  0  0  0  0  0  0  0  0
    4.5943    0.5220    2.0363 H   0  0  0  0  0  0  0  0  0  0  0  0
    6.8601    0.6413    1.0565 H   0  0  0  0  0  0  0  0  0  0  0  0
    7.9077   -1.2517   -1.9695 H   0  0  0  0  0  0  0  0  0  0  0  0
    8.3107    0.0900   -0.8988 H   0  0  0  0  0  0  0  0  0  0  0  0
    8.5672   -1.5845   -0.3488 H   0  0  0  0  0  0  0  0  0  0  0  0
    5.8744   -2.6414   -1.5631 H   0  0  0  0  0  0  0  0  0  0  0  0
    3.6150   -2.7404   -0.5669 H   0  0  0  0  0  0  0  0  0  0  0  0
   -1.7127   -1.8673    2.8159 H   0  0  0  0  0  0  0  0  0  0  0  0
   -2.8659   -0.6227    3.3416 H   0  0  0  0  0  0  0  0  0  0  0  0
   -1.1396   -0.3434    3.5453 H   0  0  0  0  0  0  0  0  0  0  0  0
   -2.8289   -0.5138   -0.2998 H   0  0  0  0  0  0  0  0  0  0  0  0
   -3.5975   -1.2410    1.0865 H   0  0  0  0  0  0  0  0  0  0  0  0
   -3.4164    1.7958    0.5975 H   0  0  0  0  0  0  0  0  0  0  0  0
   -4.1971    1.0559    1.9724 H   0  0  0  0  0  0  0  0  0  0  0  0
   -6.3816   -0.1403    1.7236 H   0  0  0  0  0  0  0  0  0  0  0  0
   -8.4288   -0.3377    0.3281 H   0  0  0  0  0  0  0  0  0  0  0  0
   -6.5728    1.3434   -2.9383 H   0  0  0  0  0  0  0  0  0  0  0  0
   -4.4326    1.6259   -1.7079 H   0  0  0  0  0  0  0  0  0  0  0  0
  1  2  1  0
  2  3  1  0
  2  4  2  0
  4  5  1  0
  5  6  2  3
  6  7  1  0
  7  8  2  0
  8  9  1  0
  9 10  2  0
 10 11  1  0
 10 12  1  0
 12 13  2  0
  5 14  1  0
 14 15  2  0
 15 16  1  0
 16 17  1  0
 16 18  1  0
 18 19  1  0
 19 20  1  0
 20 21  2  0
 21 22  1  0
 22 23  2  0
 23 24  1  0
 24 25  2  0
 15  1  1  0
 25 20  1  0
 13  7  1  0
  1 26  1  0
  3 27  1  0
  3 28  1  0
  3 29  1  0
  4 30  1  0
  8 31  1  0
  9 32  1  0
 11 33  1  0
 11 34  1  0
 11 35  1  0
 12 36  1  0
 13 37  1  0
 17 38  1  0
 17 39  1  0
 17 40  1  0
 18 41  1  0
 18 42  1  0
 19 43  1  0
 19 44  1  0
 21 45  1  0
 22 46  1  0
 24 47  1  0
 25 48  1  0
M  END
>  <ScrubInfo>  (3) 
{"isomerGroup": 0, "isomerId": 2, "confId": 0, "nr_conformers:": 1, "nr_isomers:": 3}

$$$$
