REMARK SMILES Cc1ccc(Nc2cc(C)nc(N(C)CCc3ccncc3)n2)cc1
REMARK SMILES IDX 7 1 8 2 9 3 10 4 11 5 12 6 23 7 6 8 5 10 2 11 3 12 25 13
REMARK SMILES IDX 4 14 24 15 1 16 13 17 14 18 15 19 16 20 17 21 18 22 22 23
REMARK SMILES IDX 19 24 21 25 20 26
REMARK H PARENT 6 9
ROOT
ATOM      1  C   UNL     1      -1.440  -0.768  -0.271  1.00  0.00     0.136 A 
ATOM      2  C   UNL     1      -1.319   0.315  -1.112  1.00  0.00     0.070 A 
ATOM      3  C   UNL     1      -0.054   0.829  -1.269  1.00  0.00     0.045 A 
ATOM      4  C   UNL     1       0.179   2.009  -2.162  1.00  0.00     0.067 C 
ATOM      5  N   UNL     1       1.016   0.302  -0.646  1.00  0.00    -0.218 NA
ATOM      6  C   UNL     1       0.833  -0.770   0.142  1.00  0.00     0.227 A 
ATOM      7  N   UNL     1      -0.377  -1.320   0.334  1.00  0.00    -0.195 NA
ENDROOT
BRANCH   1   8
ATOM      8  N   UNL     1      -2.671  -1.399  -0.047  1.00  0.00    -0.340 N 
ATOM      9  H   UNL     1      -2.504  -2.186   0.574  1.00  0.00     0.168 HD
BRANCH   8  10
ATOM     10  C   UNL     1      -3.956  -0.852   0.138  1.00  0.00     0.040 A 
ATOM     11  C   UNL     1      -6.590   0.126   0.471  1.00  0.00    -0.051 A 
ATOM     12  C   UNL     1      -6.365  -1.224   0.192  1.00  0.00     0.005 A 
ATOM     13  C   UNL     1      -5.490   0.979   0.608  1.00  0.00     0.005 A 
ATOM     14  C   UNL     1      -5.062  -1.704   0.026  1.00  0.00     0.026 A 
ATOM     15  C   UNL     1      -4.188   0.494   0.438  1.00  0.00     0.026 A 
ATOM     16  C   UNL     1      -7.983   0.639   0.687  1.00  0.00     0.044 C 
ENDBRANCH   8  10
ENDBRANCH   1   8
BRANCH   6  17
ATOM     17  N   UNL     1       1.935  -1.315   0.803  1.00  0.00    -0.343 N 
ATOM     18  C   UNL     1       1.752  -2.679   1.270  1.00  0.00     0.147 C 
BRANCH  17  19
ATOM     19  C   UNL     1       3.245  -0.961   0.253  1.00  0.00     0.124 C 
BRANCH  19  20
ATOM     20  C   UNL     1       3.764   0.346   0.870  1.00  0.00     0.057 C 
BRANCH  20  21
ATOM     21  C   UNL     1       5.102   0.743   0.299  1.00  0.00    -0.043 A 
ATOM     22  C   UNL     1       5.178   1.418  -0.923  1.00  0.00     0.024 A 
ATOM     23  C   UNL     1       6.291   0.428   0.960  1.00  0.00     0.024 A 
ATOM     24  C   UNL     1       6.427   1.749  -1.423  1.00  0.00     0.111 A 
ATOM     25  C   UNL     1       7.493   0.803   0.379  1.00  0.00     0.111 A 
ATOM     26  N   UNL     1       7.588   1.455  -0.800  1.00  0.00    -0.265 NA
ENDBRANCH  20  21
ENDBRANCH  19  20
ENDBRANCH  17  19
ENDBRANCH   6  17
TORSDOF 6
