_i0
     RDKit          3D

 42 44  0  0  0  0  0  0  0  0999 V2000
    7.5889   -0.8796   -1.1833 C   0  0  0  0  0  0  0  0  0  0  0  0
    6.1123   -0.7622   -0.9527 C   0  0  0  0  0  0  0  0  0  0  0  0
    5.2152   -1.5670   -1.6565 C   0  0  0  0  0  0  0  0  0  0  0  0
    3.8365   -1.4297   -1.4587 C   0  0  0  0  0  0  0  0  0  0  0  0
    3.3131   -0.4845   -0.5616 C   0  0  0  0  0  0  0  0  0  0  0  0
    1.9238   -0.3956   -0.4216 N   0  0  0  0  0  0  0  0  0  0  0  0
    1.0759    0.3964    0.3441 C   0  0  0  0  0  0  0  0  0  0  0  0
    1.5355    1.3595    1.1544 N   0  0  0  0  0  0  0  0  0  0  0  0
    0.6262    2.0644    1.8541 C   0  0  0  0  0  0  0  0  0  0  0  0
   -0.7245    1.8391    1.7531 C   0  0  0  0  0  0  0  0  0  0  0  0
   -1.6324    2.6591    2.5079 N   0  0  0  0  0  4  0  0  0  0  0  0
   -2.6940    2.9965    1.9627 O   0  0  0  0  0  0  0  0  0  0  0  0
   -1.2727    3.0133    3.6395 O   0  0  0  0  0  1  0  0  0  0  0  0
   -1.1491    0.8416    0.8970 C   0  0  0  0  0  0  0  0  0  0  0  0
   -2.4976    0.4691    0.8013 N   0  0  0  0  0  0  0  0  0  0  0  0
   -2.8209   -0.4974   -0.2407 C   0  0  0  0  0  0  0  0  0  0  0  0
   -4.3163   -0.7125   -0.2627 C   0  0  0  0  0  0  0  0  0  0  0  0
   -5.1062   -0.1582   -1.2803 C   0  0  0  0  0  0  0  0  0  0  0  0
   -6.4891   -0.3504   -1.2860 C   0  0  0  0  0  0  0  0  0  0  0  0
   -7.0959   -1.0920   -0.2738 C   0  0  0  0  0  0  0  0  0  0  0  0
   -6.3224   -1.6401    0.7475 C   0  0  0  0  0  0  0  0  0  0  0  0
   -4.9400   -1.4497    0.7551 C   0  0  0  0  0  0  0  0  0  0  0  0
   -0.2366    0.1213    0.2055 N   0  0  0  0  0  0  0  0  0  0  0  0
    4.2225    0.3277    0.1205 C   0  0  0  0  0  0  0  0  0  0  0  0
    5.6039    0.1956   -0.0724 C   0  0  0  0  0  0  0  0  0  0  0  0
    7.8953   -0.2125   -1.9948 H   0  0  0  0  0  0  0  0  0  0  0  0
    7.8627   -1.9066   -1.4468 H   0  0  0  0  0  0  0  0  0  0  0  0
    8.1475   -0.6169   -0.2788 H   0  0  0  0  0  0  0  0  0  0  0  0
    5.5793   -2.3077   -2.3646 H   0  0  0  0  0  0  0  0  0  0  0  0
    3.1689   -2.0764   -2.0229 H   0  0  0  0  0  0  0  0  0  0  0  0
    1.3753   -1.0718   -0.9320 H   0  0  0  0  0  0  0  0  0  0  0  0
    1.0432    2.8313    2.5016 H   0  0  0  0  0  0  0  0  0  0  0  0
   -3.1093    1.2876    0.7543 H   0  0  0  0  0  0  0  0  0  0  0  0
   -2.3303   -1.4611   -0.0529 H   0  0  0  0  0  0  0  0  0  0  0  0
   -2.4873   -0.1391   -1.2231 H   0  0  0  0  0  0  0  0  0  0  0  0
   -4.6509    0.4280   -2.0753 H   0  0  0  0  0  0  0  0  0  0  0  0
   -7.0944    0.0813   -2.0790 H   0  0  0  0  0  0  0  0  0  0  0  0
   -8.1728   -1.2385   -0.2779 H   0  0  0  0  0  0  0  0  0  0  0  0
   -6.7958   -2.2117    1.5415 H   0  0  0  0  0  0  0  0  0  0  0  0
   -4.3460   -1.8715    1.5636 H   0  0  0  0  0  0  0  0  0  0  0  0
    3.8816    1.0850    0.8193 H   0  0  0  0  0  0  0  0  0  0  0  0
    6.2769    0.8515    0.4754 H   0  0  0  0  0  0  0  0  0  0  0  0
  1  2  1  0
  2  3  2  0
  3  4  1  0
  4  5  2  0
  5  6  1  0
  6  7  1  0
  7  8  2  0
  8  9  1  0
  9 10  2  0
 10 11  1  0
 11 12  2  0
 11 13  1  0
 10 14  1  0
 14 15  1  0
 15 16  1  0
 16 17  1  0
 17 18  2  0
 18 19  1  0
 19 20  2  0
 20 21  1  0
 21 22  2  0
 14 23  2  0
  5 24  1  0
 24 25  2  0
 25  2  1  0
 23  7  1  0
 22 17  1  0
  1 26  1  0
  1 27  1  0
  1 28  1  0
  3 29  1  0
  4 30  1  0
  6 31  1  0
  9 32  1  0
 15 33  1  0
 16 34  1  0
 16 35  1  0
 18 36  1  0
 19 37  1  0
 20 38  1  0
 21 39  1  0
 22 40  1  0
 24 41  1  0
 25 42  1  0
M  CHG  2  11   1  13  -1
M  END
>  <ScrubInfo>  (1) 
{"isomerGroup": 0, "isomerId": 0, "confId": 0, "nr_conformers:": 1, "nr_isomers:": 6}

$$$$
_i1
     RDKit          3D

 42 44  0  0  0  0  0  0  0  0999 V2000
   -1.6504    1.0327    0.5315 N   0  0  0  0  0  0  0  0  0  0  0  0
   -0.8617    1.9232    1.2094 C   0  0  0  0  0  0  0  0  0  0  0  0
    0.4664    1.7599    1.2482 C   0  0  0  0  0  0  0  0  0  0  0  0
    1.2813    2.6915    1.9876 N   0  0  0  0  0  4  0  0  0  0  0  0
    0.7554    3.7448    2.3772 O   0  0  0  0  0  0  0  0  0  0  0  0
    2.4608    2.3794    2.2046 O   0  0  0  0  0  1  0  0  0  0  0  0
    1.0242    0.5753    0.5074 C   0  0  0  0  0  0  0  0  0  0  0  0
    2.3832    0.3268    0.4455 N   0  0  0  0  0  0  0  0  0  0  0  0
    2.9325   -0.9242   -0.0358 C   0  0  0  0  0  0  0  0  0  0  0  0
    4.4397   -0.8541    0.0038 C   0  0  0  0  0  0  0  0  0  0  0  0
    5.1509   -1.3679    1.0979 C   0  0  0  0  0  0  0  0  0  0  0  0
    6.5431   -1.2772    1.1416 C   0  0  0  0  0  0  0  0  0  0  0  0
    7.2365   -0.6665    0.0981 C   0  0  0  0  0  0  0  0  0  0  0  0
    6.5395   -0.1424   -0.9890 C   0  0  0  0  0  0  0  0  0  0  0  0
    5.1476   -0.2319   -1.0351 C   0  0  0  0  0  0  0  0  0  0  0  0
    0.2335   -0.2660   -0.1227 N   0  0  0  0  0  0  0  0  0  0  0  0
   -1.1292   -0.0617   -0.1189 C   0  0  0  0  0  0  0  0  0  0  0  0
   -1.7998   -0.9669   -0.7583 N   0  0  0  0  0  0  0  0  0  0  0  0
   -3.1936   -0.8656   -0.8248 C   0  0  0  0  0  0  0  0  0  0  0  0
   -3.8016   -0.1688   -1.8707 C   0  0  0  0  0  0  0  0  0  0  0  0
   -5.1926   -0.0542   -1.9310 C   0  0  0  0  0  0  0  0  0  0  0  0
   -5.9951   -0.6567   -0.9546 C   0  0  0  0  0  0  0  0  0  0  0  0
   -7.4877   -0.5139   -1.0036 C   0  0  0  0  0  0  0  0  0  0  0  0
   -5.3837   -1.3599    0.0903 C   0  0  0  0  0  0  0  0  0  0  0  0
   -3.9922   -1.4719    0.1466 C   0  0  0  0  0  0  0  0  0  0  0  0
   -2.6544    1.1634    0.5244 H   0  0  0  0  0  0  0  0  0  0  0  0
   -1.3986    2.7301    1.6976 H   0  0  0  0  0  0  0  0  0  0  0  0
    2.9894    0.8416    1.0867 H   0  0  0  0  0  0  0  0  0  0  0  0
    2.5812   -1.7571    0.5850 H   0  0  0  0  0  0  0  0  0  0  0  0
    2.6061   -1.1249   -1.0634 H   0  0  0  0  0  0  0  0  0  0  0  0
    4.6238   -1.8413    1.9234 H   0  0  0  0  0  0  0  0  0  0  0  0
    7.0873   -1.6806    1.9917 H   0  0  0  0  0  0  0  0  0  0  0  0
    8.3204   -0.5952    0.1340 H   0  0  0  0  0  0  0  0  0  0  0  0
    7.0795    0.3395   -1.7998 H   0  0  0  0  0  0  0  0  0  0  0  0
    4.6128    0.1895   -1.8840 H   0  0  0  0  0  0  0  0  0  0  0  0
   -3.1855    0.2828   -2.6438 H   0  0  0  0  0  0  0  0  0  0  0  0
   -5.6446    0.4977   -2.7521 H   0  0  0  0  0  0  0  0  0  0  0  0
   -7.8389   -0.4338   -2.0377 H   0  0  0  0  0  0  0  0  0  0  0  0
   -7.7957    0.3813   -0.4547 H   0  0  0  0  0  0  0  0  0  0  0  0
   -7.9785   -1.3872   -0.5611 H   0  0  0  0  0  0  0  0  0  0  0  0
   -5.9862   -1.8361    0.8605 H   0  0  0  0  0  0  0  0  0  0  0  0
   -3.5251   -2.0378    0.9483 H   0  0  0  0  0  0  0  0  0  0  0  0
  1  2  1  0
  2  3  2  0
  3  4  1  0
  4  5  2  0
  4  6  1  0
  3  7  1  0
  7  8  1  0
  8  9  1  0
  9 10  1  0
 10 11  2  0
 11 12  1  0
 12 13  2  0
 13 14  1  0
 14 15  2  0
  7 16  2  0
 16 17  1  0
 17 18  2  3
 18 19  1  0
 19 20  2  0
 20 21  1  0
 21 22  2  0
 22 23  1  0
 22 24  1  0
 24 25  2  0
 17  1  1  0
 25 19  1  0
 15 10  1  0
  1 26  1  0
  2 27  1  0
  8 28  1  0
  9 29  1  0
  9 30  1  0
 11 31  1  0
 12 32  1  0
 13 33  1  0
 14 34  1  0
 15 35  1  0
 20 36  1  0
 21 37  1  0
 23 38  1  0
 23 39  1  0
 23 40  1  0
 24 41  1  0
 25 42  1  0
M  CHG  2   4   1   6  -1
M  END
>  <ScrubInfo>  (2) 
{"isomerGroup": 0, "isomerId": 1, "confId": 0, "nr_conformers:": 1, "nr_isomers:": 6}

$$$$
_i2
     RDKit          3D

 42 44  0  0  0  0  0  0  0  0999 V2000
   -0.7319   -1.1610   -0.8092 N   0  0  0  0  0  0  0  0  0  0  0  0
    0.5531   -1.0554   -0.3224 C   0  0  0  0  0  0  0  0  0  0  0  0
    1.0936    0.1814   -0.5695 N   0  0  0  0  0  0  0  0  0  0  0  0
    2.3326    0.7031   -0.1424 C   0  0  0  0  0  0  0  0  0  0  0  0
    2.8194    1.8672   -0.7608 C   0  0  0  0  0  0  0  0  0  0  0  0
    4.0284    2.4523   -0.3675 C   0  0  0  0  0  0  0  0  0  0  0  0
    4.7848    1.8870    0.6606 C   0  0  0  0  0  0  0  0  0  0  0  0
    6.0645    2.5261    1.1097 C   0  0  0  0  0  0  0  0  0  0  0  0
    4.2945    0.7495    1.3056 C   0  0  0  0  0  0  0  0  0  0  0  0
    3.0836    0.1683    0.9079 C   0  0  0  0  0  0  0  0  0  0  0  0
    1.1427   -2.0501    0.2861 N   0  0  0  0  0  0  0  0  0  0  0  0
    0.4243   -3.2264    0.4263 C   0  0  0  0  0  0  0  0  0  0  0  0
   -0.8353   -3.4161    0.0058 C   0  0  0  0  0  0  0  0  0  0  0  0
   -1.4455   -4.6938    0.1944 N   0  0  0  0  0  4  0  0  0  0  0  0
   -1.8926   -5.2679   -0.8070 O   0  0  0  0  0  0  0  0  0  0  0  0
   -1.4364   -5.1633    1.3420 O   0  0  0  0  0  1  0  0  0  0  0  0
   -1.5307   -2.2782   -0.6405 C   0  0  0  0  0  0  0  0  0  0  0  0
   -2.7779   -2.3810   -0.9577 N   0  0  0  0  0  0  0  0  0  0  0  0
   -3.4790   -1.2920   -1.6392 C   0  0  0  0  0  0  0  0  0  0  0  0
   -3.6775   -0.0445   -0.8098 C   0  0  0  0  0  0  0  0  0  0  0  0
   -3.5867    1.2206   -1.4095 C   0  0  0  0  0  0  0  0  0  0  0  0
   -3.7627    2.3784   -0.6502 C   0  0  0  0  0  0  0  0  0  0  0  0
   -4.0431    2.2839    0.7114 C   0  0  0  0  0  0  0  0  0  0  0  0
   -4.1588    1.0326    1.3132 C   0  0  0  0  0  0  0  0  0  0  0  0
   -3.9849   -0.1260    0.5555 C   0  0  0  0  0  0  0  0  0  0  0  0
   -1.2107   -0.2933   -0.9941 H   0  0  0  0  0  0  0  0  0  0  0  0
    0.7228    0.6725   -1.3703 H   0  0  0  0  0  0  0  0  0  0  0  0
    2.2618    2.3394   -1.5657 H   0  0  0  0  0  0  0  0  0  0  0  0
    4.3729    3.3529   -0.8706 H   0  0  0  0  0  0  0  0  0  0  0  0
    6.5632    3.0302    0.2752 H   0  0  0  0  0  0  0  0  0  0  0  0
    6.7607    1.7753    1.4979 H   0  0  0  0  0  0  0  0  0  0  0  0
    5.8609    3.2600    1.8955 H   0  0  0  0  0  0  0  0  0  0  0  0
    4.8473    0.3020    2.1289 H   0  0  0  0  0  0  0  0  0  0  0  0
    2.7415   -0.7065    1.4532 H   0  0  0  0  0  0  0  0  0  0  0  0
    0.9725   -4.0314    0.9124 H   0  0  0  0  0  0  0  0  0  0  0  0
   -2.9518   -1.0530   -2.5718 H   0  0  0  0  0  0  0  0  0  0  0  0
   -4.4697   -1.6572   -1.9350 H   0  0  0  0  0  0  0  0  0  0  0  0
   -3.3877    1.3140   -2.4751 H   0  0  0  0  0  0  0  0  0  0  0  0
   -3.6932    3.3557   -1.1215 H   0  0  0  0  0  0  0  0  0  0  0  0
   -4.1856    3.1852    1.3025 H   0  0  0  0  0  0  0  0  0  0  0  0
   -4.3925    0.9573    2.3724 H   0  0  0  0  0  0  0  0  0  0  0  0
   -4.0908   -1.0976    1.0355 H   0  0  0  0  0  0  0  0  0  0  0  0
  1  2  1  0
  2  3  1  0
  3  4  1  0
  4  5  2  0
  5  6  1  0
  6  7  2  0
  7  8  1  0
  7  9  1  0
  9 10  2  0
  2 11  2  0
 11 12  1  0
 12 13  2  0
 13 14  1  0
 14 15  2  0
 14 16  1  0
 13 17  1  0
 17 18  2  3
 18 19  1  0
 19 20  1  0
 20 21  2  0
 21 22  1  0
 22 23  2  0
 23 24  1  0
 24 25  2  0
 17  1  1  0
 25 20  1  0
 10  4  1  0
  1 26  1  0
  3 27  1  0
  5 28  1  0
  6 29  1  0
  8 30  1  0
  8 31  1  0
  8 32  1  0
  9 33  1  0
 10 34  1  0
 12 35  1  0
 19 36  1  0
 19 37  1  0
 21 38  1  0
 22 39  1  0
 23 40  1  0
 24 41  1  0
 25 42  1  0
M  CHG  2  14   1  16  -1
M  END
>  <ScrubInfo>  (3) 
{"isomerGroup": 0, "isomerId": 2, "confId": 0, "nr_conformers:": 1, "nr_isomers:": 6}

$$$$
_i3
     RDKit          3D

 42 44  0  0  0  0  0  0  0  0999 V2000
   -0.0745   -0.0910   -0.1738 N   0  0  0  0  0  0  0  0  0  0  0  0
   -1.1017    0.2513    0.6873 C   0  0  0  0  0  0  0  0  0  0  0  0
   -2.4191    0.1163    0.2649 N   0  0  0  0  0  0  0  0  0  0  0  0
   -2.9006   -0.8044   -0.7518 C   0  0  0  0  0  0  0  0  0  0  0  0
   -4.3964   -0.6710   -0.8838 C   0  0  0  0  0  0  0  0  0  0  0  0
   -4.9518    0.3841   -1.6229 C   0  0  0  0  0  0  0  0  0  0  0  0
   -6.3364    0.5218   -1.7303 C   0  0  0  0  0  0  0  0  0  0  0  0
   -7.1791   -0.3877   -1.0943 C   0  0  0  0  0  0  0  0  0  0  0  0
   -6.6392   -1.4326   -0.3466 C   0  0  0  0  0  0  0  0  0  0  0  0
   -5.2545   -1.5725   -0.2378 C   0  0  0  0  0  0  0  0  0  0  0  0
   -0.7100    0.7277    1.8943 C   0  0  0  0  0  0  0  0  0  0  0  0
   -1.6352    1.1299    2.9219 N   0  0  0  0  0  4  0  0  0  0  0  0
   -2.8126    0.7471    2.8497 O   0  0  0  0  0  0  0  0  0  0  0  0
   -1.1868    1.8306    3.8390 O   0  0  0  0  0  1  0  0  0  0  0  0
    0.7422    0.8110    2.1533 C   0  0  0  0  0  0  0  0  0  0  0  0
    1.6820    0.4922    1.3168 N   0  0  0  0  0  0  0  0  0  0  0  0
    1.2621    0.0508    0.0838 C   0  0  0  0  0  0  0  0  0  0  0  0
    2.1109   -0.2334   -0.8589 N   0  0  0  0  0  0  0  0  0  0  0  0
    3.4837   -0.0893   -0.6104 C   0  0  0  0  0  0  0  0  0  0  0  0
    4.1329    1.1115   -0.9045 C   0  0  0  0  0  0  0  0  0  0  0  0
    5.5078    1.2462   -0.6922 C   0  0  0  0  0  0  0  0  0  0  0  0
    6.2572    0.1699   -0.2027 C   0  0  0  0  0  0  0  0  0  0  0  0
    7.7260    0.3227    0.0587 C   0  0  0  0  0  0  0  0  0  0  0  0
    5.6060   -1.0344    0.0895 C   0  0  0  0  0  0  0  0  0  0  0  0
    4.2309   -1.1642   -0.1245 C   0  0  0  0  0  0  0  0  0  0  0  0
   -0.3073   -0.3225   -1.1270 H   0  0  0  0  0  0  0  0  0  0  0  0
   -3.1077    0.2598    1.0151 H   0  0  0  0  0  0  0  0  0  0  0  0
   -2.6355   -1.8341   -0.4834 H   0  0  0  0  0  0  0  0  0  0  0  0
   -2.4343   -0.5926   -1.7213 H   0  0  0  0  0  0  0  0  0  0  0  0
   -4.3048    1.1090   -2.1126 H   0  0  0  0  0  0  0  0  0  0  0  0
   -6.7578    1.3424   -2.3053 H   0  0  0  0  0  0  0  0  0  0  0  0
   -8.2575   -0.2780   -1.1755 H   0  0  0  0  0  0  0  0  0  0  0  0
   -7.2978   -2.1361    0.1564 H   0  0  0  0  0  0  0  0  0  0  0  0
   -4.8509   -2.3881    0.3583 H   0  0  0  0  0  0  0  0  0  0  0  0
    1.0491    1.1676    3.1502 H   0  0  0  0  0  0  0  0  0  0  0  0
    3.5615    1.9475   -1.2961 H   0  0  0  0  0  0  0  0  0  0  0  0
    5.9879    2.1959   -0.9148 H   0  0  0  0  0  0  0  0  0  0  0  0
    8.1754    1.0347   -0.6416 H   0  0  0  0  0  0  0  0  0  0  0  0
    8.2472   -0.6317   -0.0701 H   0  0  0  0  0  0  0  0  0  0  0  0
    7.8890    0.6800    1.0801 H   0  0  0  0  0  0  0  0  0  0  0  0
    6.1635   -1.8810    0.4826 H   0  0  0  0  0  0  0  0  0  0  0  0
    3.7358   -2.1057    0.0932 H   0  0  0  0  0  0  0  0  0  0  0  0
  1  2  1  0
  2  3  1  0
  3  4  1  0
  4  5  1  0
  5  6  2  0
  6  7  1  0
  7  8  2  0
  8  9  1  0
  9 10  2  0
  2 11  2  0
 11 12  1  0
 12 13  2  0
 12 14  1  0
 11 15  1  0
 15 16  2  0
 16 17  1  0
 17 18  2  3
 18 19  1  0
 19 20  2  0
 20 21  1  0
 21 22  2  0
 22 23  1  0
 22 24  1  0
 24 25  2  0
 17  1  1  0
 25 19  1  0
 10  5  1  0
  1 26  1  0
  3 27  1  0
  4 28  1  0
  4 29  1  0
  6 30  1  0
  7 31  1  0
  8 32  1  0
  9 33  1  0
 10 34  1  0
 15 35  1  0
 20 36  1  0
 21 37  1  0
 23 38  1  0
 23 39  1  0
 23 40  1  0
 24 41  1  0
 25 42  1  0
M  CHG  2  12   1  14  -1
M  END
>  <ScrubInfo>  (4) 
{"isomerGroup": 0, "isomerId": 3, "confId": 0, "nr_conformers:": 1, "nr_isomers:": 6}

$$$$
_i4
     RDKit          3D

 42 44  0  0  0  0  0  0  0  0999 V2000
    1.2658   -0.4719   -1.9387 N   0  0  0  0  0  0  0  0  0  0  0  0
    0.4169   -1.3241   -2.5900 C   0  0  0  0  0  0  0  0  0  0  0  0
   -0.8401   -1.4606   -2.1531 C   0  0  0  0  0  0  0  0  0  0  0  0
   -1.7078   -2.3738   -2.8278 N   0  0  0  0  0  4  0  0  0  0  0  0
   -1.7660   -2.2886   -4.0641 O   0  0  0  0  0  0  0  0  0  0  0  0
   -2.2805   -3.2330   -2.1463 O   0  0  0  0  0  1  0  0  0  0  0  0
   -1.3103   -0.6398   -1.0145 C   0  0  0  0  0  0  0  0  0  0  0  0
   -2.5327   -0.6544   -0.6111 N   0  0  0  0  0  0  0  0  0  0  0  0
   -2.8806    0.2020    0.5251 C   0  0  0  0  0  0  0  0  0  0  0  0
   -4.3404    0.0826    0.9100 C   0  0  0  0  0  0  0  0  0  0  0  0
   -5.0283   -1.1341    0.7929 C   0  0  0  0  0  0  0  0  0  0  0  0
   -6.3631   -1.2390    1.1888 C   0  0  0  0  0  0  0  0  0  0  0  0
   -7.0232   -0.1321    1.7180 C   0  0  0  0  0  0  0  0  0  0  0  0
   -6.3484    1.0794    1.8542 C   0  0  0  0  0  0  0  0  0  0  0  0
   -5.0135    1.1852    1.4576 C   0  0  0  0  0  0  0  0  0  0  0  0
   -0.3821    0.1940   -0.3972 N   0  0  0  0  0  0  0  0  0  0  0  0
    0.8378    0.2457   -0.8544 C   0  0  0  0  0  0  0  0  0  0  0  0
    1.7464    1.0982   -0.2968 N   0  0  0  0  0  0  0  0  0  0  0  0
    3.1018    0.8273   -0.0058 C   0  0  0  0  0  0  0  0  0  0  0  0
    3.9555    1.9092    0.2469 C   0  0  0  0  0  0  0  0  0  0  0  0
    5.3101    1.7081    0.5282 C   0  0  0  0  0  0  0  0  0  0  0  0
    5.8419    0.4161    0.5577 C   0  0  0  0  0  0  0  0  0  0  0  0
    7.2864    0.1944    0.8961 C   0  0  0  0  0  0  0  0  0  0  0  0
    4.9913   -0.6696    0.3297 C   0  0  0  0  0  0  0  0  0  0  0  0
    3.6366   -0.4647    0.0463 C   0  0  0  0  0  0  0  0  0  0  0  0
    2.1825   -0.2795   -2.3286 H   0  0  0  0  0  0  0  0  0  0  0  0
    0.8349   -1.8594   -3.4363 H   0  0  0  0  0  0  0  0  0  0  0  0
   -2.6751    1.2490    0.2679 H   0  0  0  0  0  0  0  0  0  0  0  0
   -2.2872   -0.0683    1.4078 H   0  0  0  0  0  0  0  0  0  0  0  0
   -4.5244   -2.0076    0.3827 H   0  0  0  0  0  0  0  0  0  0  0  0
   -6.8845   -2.1863    1.0821 H   0  0  0  0  0  0  0  0  0  0  0  0
   -8.0621   -0.2148    2.0248 H   0  0  0  0  0  0  0  0  0  0  0  0
   -6.8609    1.9423    2.2704 H   0  0  0  0  0  0  0  0  0  0  0  0
   -4.5000    2.1363    1.5763 H   0  0  0  0  0  0  0  0  0  0  0  0
    1.3310    1.6627    0.4400 H   0  0  0  0  0  0  0  0  0  0  0  0
    3.5718    2.9268    0.2160 H   0  0  0  0  0  0  0  0  0  0  0  0
    5.9463    2.5691    0.7224 H   0  0  0  0  0  0  0  0  0  0  0  0
    7.6678   -0.7082    0.4072 H   0  0  0  0  0  0  0  0  0  0  0  0
    7.9010    1.0334    0.5532 H   0  0  0  0  0  0  0  0  0  0  0  0
    7.4050    0.0878    1.9787 H   0  0  0  0  0  0  0  0  0  0  0  0
    5.3753   -1.6865    0.3801 H   0  0  0  0  0  0  0  0  0  0  0  0
    3.0051   -1.3378   -0.0966 H   0  0  0  0  0  0  0  0  0  0  0  0
  1  2  1  0
  2  3  2  0
  3  4  1  0
  4  5  2  0
  4  6  1  0
  3  7  1  0
  7  8  2  3
  8  9  1  0
  9 10  1  0
 10 11  2  0
 11 12  1  0
 12 13  2  0
 13 14  1  0
 14 15  2  0
  7 16  1  0
 16 17  2  0
 17 18  1  0
 18 19  1  0
 19 20  2  0
 20 21  1  0
 21 22  2  0
 22 23  1  0
 22 24  1  0
 24 25  2  0
 17  1  1  0
 25 19  1  0
 15 10  1  0
  1 26  1  0
  2 27  1  0
  9 28  1  0
  9 29  1  0
 11 30  1  0
 12 31  1  0
 13 32  1  0
 14 33  1  0
 15 34  1  0
 18 35  1  0
 20 36  1  0
 21 37  1  0
 23 38  1  0
 23 39  1  0
 23 40  1  0
 24 41  1  0
 25 42  1  0
M  CHG  2   4   1   6  -1
M  END
>  <ScrubInfo>  (5) 
{"isomerGroup": 0, "isomerId": 4, "confId": 0, "nr_conformers:": 1, "nr_isomers:": 6}

$$$$
_i5
     RDKit          3D

 42 44  0  0  0  0  0  0  0  0999 V2000
    0.6030   -0.6329    0.6484 N   0  0  0  0  0  0  0  0  0  0  0  0
    1.2124   -0.3429    1.8488 C   0  0  0  0  0  0  0  0  0  0  0  0
    2.4167    0.0930    2.0597 N   0  0  0  0  0  0  0  0  0  0  0  0
    3.2494    0.3132    0.9551 C   0  0  0  0  0  0  0  0  0  0  0  0
    3.2948    1.5689    0.3472 C   0  0  0  0  0  0  0  0  0  0  0  0
    4.1157    1.7893   -0.7616 C   0  0  0  0  0  0  0  0  0  0  0  0
    4.9032    0.7526   -1.2761 C   0  0  0  0  0  0  0  0  0  0  0  0
    5.8128    0.9972   -2.4438 C   0  0  0  0  0  0  0  0  0  0  0  0
    4.8806   -0.4967   -0.6447 C   0  0  0  0  0  0  0  0  0  0  0  0
    4.0584   -0.7128    0.4639 C   0  0  0  0  0  0  0  0  0  0  0  0
    0.3764   -0.5629    2.9204 N   0  0  0  0  0  0  0  0  0  0  0  0
   -0.8971   -1.0866    2.8283 C   0  0  0  0  0  0  0  0  0  0  0  0
   -1.4961   -1.3507    1.6529 C   0  0  0  0  0  0  0  0  0  0  0  0
   -2.7230   -2.0797    1.7051 N   0  0  0  0  0  4  0  0  0  0  0  0
   -3.6259   -1.6285    2.4241 O   0  0  0  0  0  0  0  0  0  0  0  0
   -2.7728   -3.1548    1.0947 O   0  0  0  0  0  1  0  0  0  0  0  0
   -0.7049   -1.0393    0.4189 C   0  0  0  0  0  0  0  0  0  0  0  0
   -1.0286   -1.0299   -0.8304 N   0  0  0  0  0  0  0  0  0  0  0  0
   -2.3651   -1.2725   -1.3574 C   0  0  0  0  0  0  0  0  0  0  0  0
   -3.3773   -0.2158   -0.9843 C   0  0  0  0  0  0  0  0  0  0  0  0
   -4.6905   -0.5777   -0.6545 C   0  0  0  0  0  0  0  0  0  0  0  0
   -5.6324    0.3973   -0.3215 C   0  0  0  0  0  0  0  0  0  0  0  0
   -5.2773    1.7446   -0.3311 C   0  0  0  0  0  0  0  0  0  0  0  0
   -3.9817    2.1194   -0.6794 C   0  0  0  0  0  0  0  0  0  0  0  0
   -3.0385    1.1454   -1.0099 C   0  0  0  0  0  0  0  0  0  0  0  0
    1.1258   -0.4308   -0.1939 H   0  0  0  0  0  0  0  0  0  0  0  0
    2.6907    2.3807    0.7432 H   0  0  0  0  0  0  0  0  0  0  0  0
    4.1400    2.7770   -1.2167 H   0  0  0  0  0  0  0  0  0  0  0  0
    6.7898    1.3419   -2.0914 H   0  0  0  0  0  0  0  0  0  0  0  0
    5.3914    1.7526   -3.1153 H   0  0  0  0  0  0  0  0  0  0  0  0
    5.9500    0.0824   -3.0300 H   0  0  0  0  0  0  0  0  0  0  0  0
    5.5068   -1.3085   -1.0080 H   0  0  0  0  0  0  0  0  0  0  0  0
    4.0508   -1.6843    0.9506 H   0  0  0  0  0  0  0  0  0  0  0  0
    0.7770   -0.4012    3.8388 H   0  0  0  0  0  0  0  0  0  0  0  0
   -1.3507   -1.3071    3.7909 H   0  0  0  0  0  0  0  0  0  0  0  0
   -2.2911   -1.2615   -2.4526 H   0  0  0  0  0  0  0  0  0  0  0  0
   -2.7085   -2.2808   -1.1162 H   0  0  0  0  0  0  0  0  0  0  0  0
   -4.9883   -1.6247   -0.6430 H   0  0  0  0  0  0  0  0  0  0  0  0
   -6.6440    0.1033   -0.0536 H   0  0  0  0  0  0  0  0  0  0  0  0
   -6.0126    2.5018   -0.0726 H   0  0  0  0  0  0  0  0  0  0  0  0
   -3.7063    3.1705   -0.6982 H   0  0  0  0  0  0  0  0  0  0  0  0
   -2.0331    1.4515   -1.2920 H   0  0  0  0  0  0  0  0  0  0  0  0
  1  2  1  0
  2  3  2  3
  3  4  1  0
  4  5  2  0
  5  6  1  0
  6  7  2  0
  7  8  1  0
  7  9  1  0
  9 10  2  0
  2 11  1  0
 11 12  1  0
 12 13  2  0
 13 14  1  0
 14 15  2  0
 14 16  1  0
 13 17  1  0
 17 18  2  3
 18 19  1  0
 19 20  1  0
 20 21  2  0
 21 22  1  0
 22 23  2  0
 23 24  1  0
 24 25  2  0
 17  1  1  0
 25 20  1  0
 10  4  1  0
  1 26  1  0
  5 27  1  0
  6 28  1  0
  8 29  1  0
  8 30  1  0
  8 31  1  0
  9 32  1  0
 10 33  1  0
 11 34  1  0
 12 35  1  0
 19 36  1  0
 19 37  1  0
 21 38  1  0
 22 39  1  0
 23 40  1  0
 24 41  1  0
 25 42  1  0
M  CHG  2  14   1  16  -1
M  END
>  <ScrubInfo>  (6) 
{"isomerGroup": 0, "isomerId": 5, "confId": 0, "nr_conformers:": 1, "nr_isomers:": 6}

$$$$
