REMARK SMILES Cc1ccc(Nc2ncc([N+](=O)[O-])c(NCc3ccccc3)n2)cc1
REMARK SMILES IDX 7 1 8 2 9 3 10 4 14 5 23 6 6 7 5 9 2 10 3 11 25 12 4 13
REMARK SMILES IDX 24 14 1 15 15 16 16 18 17 19 18 20 22 21 19 22 21 23 20 24
REMARK SMILES IDX 11 25 12 26 13 27
REMARK H PARENT 6 8 15 17
ROOT
ATOM      1  C   UNL     1       1.076   0.396   0.344  1.00  0.00     0.229 A 
ATOM      2  N   UNL     1       1.536   1.359   1.154  1.00  0.00    -0.214 NA
ATOM      3  C   UNL     1       0.626   2.064   1.854  1.00  0.00     0.204 A 
ATOM      4  C   UNL     1      -0.725   1.839   1.753  1.00  0.00     0.329 A 
ATOM      5  C   UNL     1      -1.149   0.842   0.897  1.00  0.00     0.210 A 
ATOM      6  N   UNL     1      -0.237   0.121   0.205  1.00  0.00    -0.188 NA
ENDROOT
BRANCH   1   7
ATOM      7  N   UNL     1       1.924  -0.396  -0.422  1.00  0.00    -0.324 N 
ATOM      8  H   UNL     1       1.375  -1.072  -0.932  1.00  0.00     0.170 HD
BRANCH   7   9
ATOM      9  C   UNL     1       3.313  -0.484  -0.562  1.00  0.00     0.041 A 
ATOM     10  C   UNL     1       6.112  -0.762  -0.953  1.00  0.00    -0.051 A 
ATOM     11  C   UNL     1       5.215  -1.567  -1.657  1.00  0.00     0.005 A 
ATOM     12  C   UNL     1       5.604   0.196  -0.072  1.00  0.00     0.005 A 
ATOM     13  C   UNL     1       3.837  -1.430  -1.459  1.00  0.00     0.026 A 
ATOM     14  C   UNL     1       4.223   0.328   0.120  1.00  0.00     0.026 A 
ATOM     15  C   UNL     1       7.589  -0.880  -1.183  1.00  0.00     0.044 C 
ENDBRANCH   7   9
ENDBRANCH   1   7
BRANCH   5  16
ATOM     16  N   UNL     1      -2.498   0.469   0.801  1.00  0.00    -0.360 N 
ATOM     17  H   UNL     1      -3.109   1.288   0.754  1.00  0.00     0.162 HD
BRANCH  16  18
ATOM     18  C   UNL     1      -2.821  -0.497  -0.241  1.00  0.00     0.150 C 
BRANCH  18  19
ATOM     19  C   UNL     1      -4.316  -0.713  -0.263  1.00  0.00    -0.029 A 
ATOM     20  C   UNL     1      -5.106  -0.158  -1.280  1.00  0.00     0.005 A 
ATOM     21  C   UNL     1      -4.940  -1.450   0.755  1.00  0.00     0.005 A 
ATOM     22  C   UNL     1      -6.489  -0.350  -1.286  1.00  0.00     0.000 A 
ATOM     23  C   UNL     1      -6.322  -1.640   0.748  1.00  0.00     0.000 A 
ATOM     24  C   UNL     1      -7.096  -1.092  -0.274  1.00  0.00     0.000 A 
ENDBRANCH  18  19
ENDBRANCH  16  18
ENDBRANCH   5  16
BRANCH   4  25
ATOM     25  N   UNL     1      -1.632   2.659   2.508  1.00  0.00     0.068 N 
ATOM     26  O   UNL     1      -2.694   2.997   1.963  1.00  0.00    -0.258 OA
ATOM     27  O   UNL     1      -1.273   3.013   3.639  1.00  0.00    -0.258 OA
ENDBRANCH   4  25
TORSDOF 6
