REMARK SMILES COc1ccc(Nc2nc(NC[C@@H]3CCCO3)nc3nccnc23)cc1
REMARK SMILES IDX 8 1 9 2 10 3 18 4 19 5 20 6 21 7 22 8 23 9 24 10 7 11 6 13
REMARK SMILES IDX 3 14 4 15 26 16 5 17 25 18 2 19 1 20 11 21 12 23 13 24 14 25
REMARK SMILES IDX 17 26 15 27 16 28
REMARK H PARENT 7 12 11 22
ROOT
ATOM      1  C   UNL     1       0.444  -0.993   0.298  1.00  0.00     0.164 A 
ATOM      2  N   UNL     1      -0.849  -0.624   0.200  1.00  0.00    -0.193 NA
ATOM      3  C   UNL     1      -1.698  -1.498  -0.335  1.00  0.00     0.226 A 
ATOM      4  N   UNL     1      -1.349  -2.708  -0.749  1.00  0.00    -0.191 NA
ATOM      5  C   UNL     1      -0.079  -3.075  -0.619  1.00  0.00     0.185 A 
ATOM      6  N   UNL     1       0.225  -4.313  -1.029  1.00  0.00    -0.233 NA
ATOM      7  C   UNL     1       1.503  -4.732  -0.900  1.00  0.00     0.133 A 
ATOM      8  C   UNL     1       2.484  -3.933  -0.365  1.00  0.00     0.132 A 
ATOM      9  N   UNL     1       2.213  -2.686   0.054  1.00  0.00    -0.247 NA
ATOM     10  C   UNL     1       0.918  -2.251  -0.081  1.00  0.00     0.150 A 
ENDROOT
BRANCH   1  11
ATOM     11  N   UNL     1       1.273  -0.006   0.879  1.00  0.00    -0.338 N 
ATOM     12  H   UNL     1       0.665   0.785   1.083  1.00  0.00     0.168 HD
BRANCH  11  13
ATOM     13  C   UNL     1       2.529   0.462   0.436  1.00  0.00     0.040 A 
ATOM     14  C   UNL     1       5.022   1.539  -0.350  1.00  0.00     0.119 A 
ATOM     15  C   UNL     1       4.252   0.795  -1.244  1.00  0.00     0.048 A 
ATOM     16  C   UNL     1       4.540   1.754   0.939  1.00  0.00     0.048 A 
ATOM     17  C   UNL     1       3.015   0.265  -0.859  1.00  0.00     0.030 A 
ATOM     18  C   UNL     1       3.301   1.224   1.323  1.00  0.00     0.030 A 
BRANCH  14  19
ATOM     19  O   UNL     1       6.207   1.996  -0.855  1.00  0.00    -0.497 OA
ATOM     20  C   UNL     1       7.036   2.740   0.029  1.00  0.00     0.278 C 
ENDBRANCH  14  19
ENDBRANCH  11  13
ENDBRANCH   1  11
BRANCH   3  21
ATOM     21  N   UNL     1      -3.035  -1.170  -0.503  1.00  0.00    -0.351 N 
ATOM     22  H   UNL     1      -3.511  -2.053  -0.669  1.00  0.00     0.163 HD
BRANCH  21  23
ATOM     23  C   UNL     1      -3.600  -0.361   0.569  1.00  0.00     0.148 C 
BRANCH  23  24
ATOM     24  C   UNL     1      -5.085  -0.054   0.296  1.00  0.00     0.137 C 
ATOM     25  C   UNL     1      -5.304   0.909  -0.865  1.00  0.00     0.036 C 
ATOM     26  O   UNL     1      -5.652   0.580   1.463  1.00  0.00    -0.376 OA
ATOM     27  C   UNL     1      -5.358   2.251  -0.180  1.00  0.00     0.031 C 
ATOM     28  C   UNL     1      -6.058   1.910   1.115  1.00  0.00     0.160 C 
ENDBRANCH  23  24
ENDBRANCH  21  23
ENDBRANCH   3  21
TORSDOF 6
