_i0
     RDKit          3D

 46 49  0  0  0  0  0  0  0  0999 V2000
    7.0361    2.7402    0.0286 C   0  0  0  0  0  0  0  0  0  0  0  0
    6.2067    1.9964   -0.8548 O   0  0  0  0  0  0  0  0  0  0  0  0
    5.0216    1.5387   -0.3496 C   0  0  0  0  0  0  0  0  0  0  0  0
    4.2518    0.7947   -1.2445 C   0  0  0  0  0  0  0  0  0  0  0  0
    3.0153    0.2648   -0.8590 C   0  0  0  0  0  0  0  0  0  0  0  0
    2.5292    0.4615    0.4357 C   0  0  0  0  0  0  0  0  0  0  0  0
    1.2727   -0.0063    0.8792 N   0  0  0  0  0  0  0  0  0  0  0  0
    0.4441   -0.9926    0.2981 C   0  0  0  0  0  0  0  0  0  0  0  0
   -0.8491   -0.6237    0.1996 N   0  0  0  0  0  0  0  0  0  0  0  0
   -1.6977   -1.4977   -0.3348 C   0  0  0  0  0  0  0  0  0  0  0  0
   -3.0353   -1.1701   -0.5029 N   0  0  0  0  0  0  0  0  0  0  0  0
   -3.6005   -0.3612    0.5694 C   0  0  0  0  0  0  0  0  0  0  0  0
   -5.0848   -0.0539    0.2963 C   0  0  0  0  0  0  0  0  0  0  0  0
   -5.3038    0.9087   -0.8653 C   0  0  0  0  0  0  0  0  0  0  0  0
   -5.3584    2.2512   -0.1805 C   0  0  0  0  0  0  0  0  0  0  0  0
   -6.0575    1.9104    1.1150 C   0  0  0  0  0  0  0  0  0  0  0  0
   -5.6520    0.5797    1.4632 O   0  0  0  0  0  0  0  0  0  0  0  0
   -1.3485   -2.7085   -0.7491 N   0  0  0  0  0  0  0  0  0  0  0  0
   -0.0794   -3.0754   -0.6190 C   0  0  0  0  0  0  0  0  0  0  0  0
    0.2252   -4.3131   -1.0288 N   0  0  0  0  0  0  0  0  0  0  0  0
    1.5031   -4.7321   -0.8996 C   0  0  0  0  0  0  0  0  0  0  0  0
    2.4838   -3.9335   -0.3650 C   0  0  0  0  0  0  0  0  0  0  0  0
    2.2129   -2.6861    0.0542 N   0  0  0  0  0  0  0  0  0  0  0  0
    0.9183   -2.2506   -0.0813 C   0  0  0  0  0  0  0  0  0  0  0  0
    3.3010    1.2240    1.3227 C   0  0  0  0  0  0  0  0  0  0  0  0
    4.5395    1.7543    0.9393 C   0  0  0  0  0  0  0  0  0  0  0  0
    7.9415    3.0197   -0.5188 H   0  0  0  0  0  0  0  0  0  0  0  0
    6.5428    3.6637    0.3492 H   0  0  0  0  0  0  0  0  0  0  0  0
    7.3408    2.1347    0.8887 H   0  0  0  0  0  0  0  0  0  0  0  0
    4.6148    0.6253   -2.2552 H   0  0  0  0  0  0  0  0  0  0  0  0
    2.4441   -0.2951   -1.5928 H   0  0  0  0  0  0  0  0  0  0  0  0
    0.6648    0.7849    1.0828 H   0  0  0  0  0  0  0  0  0  0  0  0
   -3.5115   -2.0528   -0.6690 H   0  0  0  0  0  0  0  0  0  0  0  0
   -3.0543    0.5832    0.6897 H   0  0  0  0  0  0  0  0  0  0  0  0
   -3.5206   -0.8936    1.5266 H   0  0  0  0  0  0  0  0  0  0  0  0
   -5.6255   -0.9916    0.1234 H   0  0  0  0  0  0  0  0  0  0  0  0
   -6.2759    0.7023   -1.3301 H   0  0  0  0  0  0  0  0  0  0  0  0
   -4.5430    0.8515   -1.6484 H   0  0  0  0  0  0  0  0  0  0  0  0
   -4.3424    2.6090    0.0222 H   0  0  0  0  0  0  0  0  0  0  0  0
   -5.8819    3.0172   -0.7586 H   0  0  0  0  0  0  0  0  0  0  0  0
   -5.8014    2.5979    1.9259 H   0  0  0  0  0  0  0  0  0  0  0  0
   -7.1456    1.9069    0.9897 H   0  0  0  0  0  0  0  0  0  0  0  0
    1.7098   -5.7396   -1.2421 H   0  0  0  0  0  0  0  0  0  0  0  0
    3.5087   -4.2681   -0.2581 H   0  0  0  0  0  0  0  0  0  0  0  0
    2.9438    1.3978    2.3353 H   0  0  0  0  0  0  0  0  0  0  0  0
    5.0966    2.3270    1.6724 H   0  0  0  0  0  0  0  0  0  0  0  0
  1  2  1  0
  2  3  1  0
  3  4  2  0
  4  5  1  0
  5  6  2  0
  6  7  1  0
  7  8  1  0
  8  9  2  0
  9 10  1  0
 10 11  1  0
 11 12  1  0
 12 13  1  0
 13 14  1  0
 14 15  1  0
 15 16  1  0
 16 17  1  0
 10 18  2  0
 18 19  1  0
 19 20  2  0
 20 21  1  0
 21 22  2  0
 22 23  1  0
 23 24  2  0
  6 25  1  0
 25 26  2  0
 26  3  1  0
 24  8  1  0
 17 13  1  0
 24 19  1  0
  1 27  1  0
  1 28  1  0
  1 29  1  0
  4 30  1  0
  5 31  1  0
  7 32  1  0
 11 33  1  0
 12 34  1  0
 12 35  1  0
 13 36  1  0
 14 37  1  0
 14 38  1  0
 15 39  1  0
 15 40  1  0
 16 41  1  0
 16 42  1  0
 21 43  1  0
 22 44  1  0
 25 45  1  0
 26 46  1  0
M  END
>  <ScrubInfo>  (1) 
{"isomerGroup": 0, "isomerId": 0, "confId": 0, "nr_conformers:": 1, "nr_isomers:": 9}

$$$$
_i1
     RDKit          3D

 46 49  0  0  0  0  0  0  0  0999 V2000
    0.6947    0.0604    1.2386 N   0  0  0  0  0  0  0  0  0  0  0  0
    1.7170    0.9397    1.0681 C   0  0  0  0  0  0  0  0  0  0  0  0
    2.9127    0.5802    1.6166 N   0  0  0  0  0  0  0  0  0  0  0  0
    3.5564   -0.7013    1.3160 C   0  0  0  0  0  0  0  0  0  0  0  0
    4.2921   -0.6287   -0.0348 C   0  0  0  0  0  0  0  0  0  0  0  0
    4.9529   -1.9462   -0.4165 C   0  0  0  0  0  0  0  0  0  0  0  0
    6.3553   -1.7879    0.1160 C   0  0  0  0  0  0  0  0  0  0  0  0
    6.6108   -0.3166   -0.1160 C   0  0  0  0  0  0  0  0  0  0  0  0
    5.3545    0.3459    0.0767 O   0  0  0  0  0  0  0  0  0  0  0  0
    1.5869    2.0709    0.4449 N   0  0  0  0  0  0  0  0  0  0  0  0
    0.3065    2.3444   -0.0852 C   0  0  0  0  0  0  0  0  0  0  0  0
    0.2254    3.5147   -0.7643 N   0  0  0  0  0  0  0  0  0  0  0  0
   -0.9864    3.8062   -1.2915 C   0  0  0  0  0  0  0  0  0  0  0  0
   -2.0837    2.9687   -1.1604 C   0  0  0  0  0  0  0  0  0  0  0  0
   -2.0265    1.7959   -0.4941 N   0  0  0  0  0  0  0  0  0  0  0  0
   -0.8147    1.5046    0.0441 C   0  0  0  0  0  0  0  0  0  0  0  0
   -0.6018    0.2393    0.8189 C   0  0  0  0  0  0  0  0  0  0  0  0
   -1.4631   -0.6893    1.1512 N   0  0  0  0  0  0  0  0  0  0  0  0
   -2.8128   -0.6019    0.7985 C   0  0  0  0  0  0  0  0  0  0  0  0
   -3.2775   -1.2138   -0.3676 C   0  0  0  0  0  0  0  0  0  0  0  0
   -4.6356   -1.1710   -0.7051 C   0  0  0  0  0  0  0  0  0  0  0  0
   -5.5445   -0.5266    0.1349 C   0  0  0  0  0  0  0  0  0  0  0  0
   -6.8913   -0.4104   -0.0744 O   0  0  0  0  0  0  0  0  0  0  0  0
   -7.4101   -1.0075   -1.2557 C   0  0  0  0  0  0  0  0  0  0  0  0
   -5.0834    0.0649    1.3137 C   0  0  0  0  0  0  0  0  0  0  0  0
   -3.7275    0.0204    1.6487 C   0  0  0  0  0  0  0  0  0  0  0  0
    0.8275   -0.7023    1.8854 H   0  0  0  0  0  0  0  0  0  0  0  0
    3.5887    1.3305    1.4448 H   0  0  0  0  0  0  0  0  0  0  0  0
    2.8281   -1.5190    1.3172 H   0  0  0  0  0  0  0  0  0  0  0  0
    4.2733   -0.8978    2.1211 H   0  0  0  0  0  0  0  0  0  0  0  0
    3.6038   -0.2986   -0.8210 H   0  0  0  0  0  0  0  0  0  0  0  0
    4.4366   -2.8303   -0.0320 H   0  0  0  0  0  0  0  0  0  0  0  0
    4.9902   -2.0315   -1.5096 H   0  0  0  0  0  0  0  0  0  0  0  0
    6.3732   -2.0085    1.1895 H   0  0  0  0  0  0  0  0  0  0  0  0
    7.0873   -2.4313   -0.3790 H   0  0  0  0  0  0  0  0  0  0  0  0
    7.3551    0.0963    0.5704 H   0  0  0  0  0  0  0  0  0  0  0  0
    6.9373   -0.1267   -1.1442 H   0  0  0  0  0  0  0  0  0  0  0  0
   -1.0524    4.7449   -1.8307 H   0  0  0  0  0  0  0  0  0  0  0  0
   -3.0458    3.2232   -1.5917 H   0  0  0  0  0  0  0  0  0  0  0  0
   -2.5741   -1.7226   -1.0198 H   0  0  0  0  0  0  0  0  0  0  0  0
   -4.9451   -1.6516   -1.6261 H   0  0  0  0  0  0  0  0  0  0  0  0
   -7.2518   -2.0911   -1.2531 H   0  0  0  0  0  0  0  0  0  0  0  0
   -8.4896   -0.8294   -1.2738 H   0  0  0  0  0  0  0  0  0  0  0  0
   -6.9820   -0.5467   -2.1521 H   0  0  0  0  0  0  0  0  0  0  0  0
   -5.7845    0.5619    1.9788 H   0  0  0  0  0  0  0  0  0  0  0  0
   -3.3824    0.4756    2.5718 H   0  0  0  0  0  0  0  0  0  0  0  0
  1  2  1  0
  2  3  1  0
  3  4  1  0
  4  5  1  0
  5  6  1  0
  6  7  1  0
  7  8  1  0
  8  9  1  0
  2 10  2  0
 10 11  1  0
 11 12  2  0
 12 13  1  0
 13 14  2  0
 14 15  1  0
 15 16  2  0
 16 17  1  0
 17 18  2  3
 18 19  1  0
 19 20  2  0
 20 21  1  0
 21 22  2  0
 22 23  1  0
 23 24  1  0
 22 25  1  0
 25 26  2  0
 17  1  1  0
 26 19  1  0
  9  5  1  0
 16 11  1  0
  1 27  1  0
  3 28  1  0
  4 29  1  0
  4 30  1  0
  5 31  1  0
  6 32  1  0
  6 33  1  0
  7 34  1  0
  7 35  1  0
  8 36  1  0
  8 37  1  0
 13 38  1  0
 14 39  1  0
 20 40  1  0
 21 41  1  0
 24 42  1  0
 24 43  1  0
 24 44  1  0
 25 45  1  0
 26 46  1  0
M  END
>  <ScrubInfo>  (2) 
{"isomerGroup": 0, "isomerId": 1, "confId": 0, "nr_conformers:": 1, "nr_isomers:": 9}

$$$$
_i2
     RDKit          3D

 46 49  0  0  0  0  0  0  0  0999 V2000
    0.1063   -0.6207   -0.1071 N   0  0  0  0  0  0  0  0  0  0  0  0
    0.7504   -1.8059   -0.3684 C   0  0  0  0  0  0  0  0  0  0  0  0
    1.9885   -2.1177    0.1796 N   0  0  0  0  0  0  0  0  0  0  0  0
    3.0777   -1.2713    0.4574 C   0  0  0  0  0  0  0  0  0  0  0  0
    4.1149   -1.7698    1.2565 C   0  0  0  0  0  0  0  0  0  0  0  0
    5.2056   -0.9679    1.6076 C   0  0  0  0  0  0  0  0  0  0  0  0
    5.2824    0.3550    1.1750 C   0  0  0  0  0  0  0  0  0  0  0  0
    6.3974    1.0301    1.5863 O   0  0  0  0  0  0  0  0  0  0  0  0
    6.5005    2.3946    1.1991 C   0  0  0  0  0  0  0  0  0  0  0  0
    4.2559    0.8662    0.3848 C   0  0  0  0  0  0  0  0  0  0  0  0
    3.1628    0.0595    0.0350 C   0  0  0  0  0  0  0  0  0  0  0  0
    0.1148   -2.7219   -1.1410 C   0  0  0  0  0  0  0  0  0  0  0  0
    0.6559   -3.9582   -1.4367 N   0  0  0  0  0  0  0  0  0  0  0  0
   -0.0632   -4.6916   -2.2193 C   0  0  0  0  0  0  0  0  0  0  0  0
   -1.3768   -4.2486   -2.7704 C   0  0  0  0  0  0  0  0  0  0  0  0
   -1.9063   -3.1070   -2.4948 N   0  0  0  0  0  0  0  0  0  0  0  0
   -1.2321   -2.2547   -1.6507 C   0  0  0  0  0  0  0  0  0  0  0  0
   -1.8223   -1.1397   -1.3798 N   0  0  0  0  0  0  0  0  0  0  0  0
   -1.1476   -0.3051   -0.5311 C   0  0  0  0  0  0  0  0  0  0  0  0
   -1.6870    0.7926   -0.1177 N   0  0  0  0  0  0  0  0  0  0  0  0
   -3.0529    1.0779   -0.5831 C   0  0  0  0  0  0  0  0  0  0  0  0
   -3.5447    2.3860    0.0652 C   0  0  0  0  0  0  0  0  0  0  0  0
   -4.8120    2.9163   -0.5931 C   0  0  0  0  0  0  0  0  0  0  0  0
   -5.9033    2.2364    0.1942 C   0  0  0  0  0  0  0  0  0  0  0  0
   -5.3189    2.2216    1.5884 C   0  0  0  0  0  0  0  0  0  0  0  0
   -3.8954    2.1459    1.4470 O   0  0  0  0  0  0  0  0  0  0  0  0
    0.4899   -0.0443    0.6283 H   0  0  0  0  0  0  0  0  0  0  0  0
    2.2706   -3.0741   -0.0398 H   0  0  0  0  0  0  0  0  0  0  0  0
    4.0763   -2.7912    1.6272 H   0  0  0  0  0  0  0  0  0  0  0  0
    5.9968   -1.3784    2.2300 H   0  0  0  0  0  0  0  0  0  0  0  0
    7.4303    2.7914    1.6181 H   0  0  0  0  0  0  0  0  0  0  0  0
    5.6731    2.9850    1.6066 H   0  0  0  0  0  0  0  0  0  0  0  0
    6.5580    2.4920    0.1100 H   0  0  0  0  0  0  0  0  0  0  0  0
    4.2704    1.8866    0.0167 H   0  0  0  0  0  0  0  0  0  0  0  0
    2.3997    0.4913   -0.6065 H   0  0  0  0  0  0  0  0  0  0  0  0
    0.2606   -5.6977   -2.5272 H   0  0  0  0  0  0  0  0  0  0  0  0
   -1.8731   -4.9691   -3.4381 H   0  0  0  0  0  0  0  0  0  0  0  0
   -3.7231    0.2552   -0.3058 H   0  0  0  0  0  0  0  0  0  0  0  0
   -3.0459    1.1961   -1.6733 H   0  0  0  0  0  0  0  0  0  0  0  0
   -2.7495    3.1396    0.0368 H   0  0  0  0  0  0  0  0  0  0  0  0
   -4.8782    4.0003   -0.4371 H   0  0  0  0  0  0  0  0  0  0  0  0
   -4.8682    2.7293   -1.6690 H   0  0  0  0  0  0  0  0  0  0  0  0
   -6.8670    2.7498    0.1423 H   0  0  0  0  0  0  0  0  0  0  0  0
   -6.0437    1.2111   -0.1668 H   0  0  0  0  0  0  0  0  0  0  0  0
   -5.5515    3.1481    2.1241 H   0  0  0  0  0  0  0  0  0  0  0  0
   -5.6760    1.3770    2.1843 H   0  0  0  0  0  0  0  0  0  0  0  0
  1  2  1  0
  2  3  1  0
  3  4  1  0
  4  5  2  0
  5  6  1  0
  6  7  2  0
  7  8  1  0
  8  9  1  0
  7 10  1  0
 10 11  2  0
  2 12  2  0
 12 13  1  0
 13 14  2  0
 14 15  1  0
 15 16  2  0
 16 17  1  0
 17 18  2  0
 18 19  1  0
 19 20  2  3
 20 21  1  0
 21 22  1  0
 22 23  1  0
 23 24  1  0
 24 25  1  0
 25 26  1  0
 19  1  1  0
 26 22  1  0
 11  4  1  0
 17 12  1  0
  1 27  1  0
  3 28  1  0
  5 29  1  0
  6 30  1  0
  9 31  1  0
  9 32  1  0
  9 33  1  0
 10 34  1  0
 11 35  1  0
 14 36  1  0
 15 37  1  0
 21 38  1  0
 21 39  1  0
 22 40  1  0
 23 41  1  0
 23 42  1  0
 24 43  1  0
 24 44  1  0
 25 45  1  0
 25 46  1  0
M  END
>  <ScrubInfo>  (3) 
{"isomerGroup": 0, "isomerId": 2, "confId": 0, "nr_conformers:": 1, "nr_isomers:": 9}

$$$$
_i3
     RDKit          3D

 46 49  0  0  0  0  0  0  0  0999 V2000
   -1.4506   -2.1777    0.1513 N   0  0  0  0  0  0  0  0  0  0  0  0
   -1.7069   -0.8728   -0.1171 C   0  0  0  0  0  0  0  0  0  0  0  0
   -2.9085   -0.4368    0.0686 N   0  0  0  0  0  0  0  0  0  0  0  0
   -3.1671    0.9764   -0.2456 C   0  0  0  0  0  0  0  0  0  0  0  0
   -4.6489    1.3142   -0.0397 C   0  0  0  0  0  0  0  0  0  0  0  0
   -5.1980    0.9950    1.3447 C   0  0  0  0  0  0  0  0  0  0  0  0
   -6.6596    0.7664    1.0506 C   0  0  0  0  0  0  0  0  0  0  0  0
   -6.5970    0.0609   -0.2861 C   0  0  0  0  0  0  0  0  0  0  0  0
   -5.4850    0.6235   -0.9932 O   0  0  0  0  0  0  0  0  0  0  0  0
   -0.7278   -0.0170   -0.5637 N   0  0  0  0  0  0  0  0  0  0  0  0
    0.4819   -0.4798   -0.7663 C   0  0  0  0  0  0  0  0  0  0  0  0
    1.4266    0.4250   -1.2187 N   0  0  0  0  0  0  0  0  0  0  0  0
    2.6621    0.6760   -0.5720 C   0  0  0  0  0  0  0  0  0  0  0  0
    3.6592    1.3517   -1.2877 C   0  0  0  0  0  0  0  0  0  0  0  0
    4.8881    1.6693   -0.6956 C   0  0  0  0  0  0  0  0  0  0  0  0
    5.1323    1.3267    0.6326 C   0  0  0  0  0  0  0  0  0  0  0  0
    6.2804    1.5757    1.3318 O   0  0  0  0  0  0  0  0  0  0  0  0
    7.3302    2.2300    0.6304 C   0  0  0  0  0  0  0  0  0  0  0  0
    4.1361    0.6715    1.3580 C   0  0  0  0  0  0  0  0  0  0  0  0
    2.9093    0.3536    0.7655 C   0  0  0  0  0  0  0  0  0  0  0  0
    0.8202   -1.9256   -0.5724 C   0  0  0  0  0  0  0  0  0  0  0  0
    2.0624   -2.3830   -0.8749 N   0  0  0  0  0  0  0  0  0  0  0  0
    2.2378   -3.7046   -0.6640 C   0  0  0  0  0  0  0  0  0  0  0  0
    1.2241   -4.5213   -0.1838 C   0  0  0  0  0  0  0  0  0  0  0  0
   -0.0171   -4.0575    0.1066 N   0  0  0  0  0  0  0  0  0  0  0  0
   -0.2119   -2.7337   -0.1016 C   0  0  0  0  0  0  0  0  0  0  0  0
   -2.1986   -2.7795    0.4484 H   0  0  0  0  0  0  0  0  0  0  0  0
   -2.5652    1.6224    0.4048 H   0  0  0  0  0  0  0  0  0  0  0  0
   -2.9115    1.1756   -1.2937 H   0  0  0  0  0  0  0  0  0  0  0  0
   -4.7871    2.3838   -0.2429 H   0  0  0  0  0  0  0  0  0  0  0  0
   -4.7638    0.0771    1.7560 H   0  0  0  0  0  0  0  0  0  0  0  0
   -5.0220    1.8010    2.0629 H   0  0  0  0  0  0  0  0  0  0  0  0
   -7.1765    0.1842    1.8178 H   0  0  0  0  0  0  0  0  0  0  0  0
   -7.1714    1.7301    0.9435 H   0  0  0  0  0  0  0  0  0  0  0  0
   -6.4084   -1.0109   -0.1610 H   0  0  0  0  0  0  0  0  0  0  0  0
   -7.5106    0.1892   -0.8730 H   0  0  0  0  0  0  0  0  0  0  0  0
    0.9808    1.3203   -1.4071 H   0  0  0  0  0  0  0  0  0  0  0  0
    3.4886    1.6221   -2.3274 H   0  0  0  0  0  0  0  0  0  0  0  0
    5.6273    2.1819   -1.3013 H   0  0  0  0  0  0  0  0  0  0  0  0
    8.1715    2.3462    1.3205 H   0  0  0  0  0  0  0  0  0  0  0  0
    7.6750    1.6277   -0.2165 H   0  0  0  0  0  0  0  0  0  0  0  0
    7.0247    3.2305    0.3066 H   0  0  0  0  0  0  0  0  0  0  0  0
    4.3131    0.4084    2.3980 H   0  0  0  0  0  0  0  0  0  0  0  0
    2.1552   -0.1379    1.3727 H   0  0  0  0  0  0  0  0  0  0  0  0
    3.2228   -4.0969   -0.8921 H   0  0  0  0  0  0  0  0  0  0  0  0
    1.3838   -5.5817   -0.0198 H   0  0  0  0  0  0  0  0  0  0  0  0
  1  2  1  0
  2  3  2  3
  3  4  1  0
  4  5  1  0
  5  6  1  0
  6  7  1  0
  7  8  1  0
  8  9  1  0
  2 10  1  0
 10 11  2  0
 11 12  1  0
 12 13  1  0
 13 14  2  0
 14 15  1  0
 15 16  2  0
 16 17  1  0
 17 18  1  0
 16 19  1  0
 19 20  2  0
 11 21  1  0
 21 22  2  0
 22 23  1  0
 23 24  2  0
 24 25  1  0
 25 26  2  0
 26  1  1  0
  9  5  1  0
 20 13  1  0
 26 21  1  0
  1 27  1  0
  4 28  1  0
  4 29  1  0
  5 30  1  0
  6 31  1  0
  6 32  1  0
  7 33  1  0
  7 34  1  0
  8 35  1  0
  8 36  1  0
 12 37  1  0
 14 38  1  0
 15 39  1  0
 18 40  1  0
 18 41  1  0
 18 42  1  0
 19 43  1  0
 20 44  1  0
 23 45  1  0
 24 46  1  0
M  END
>  <ScrubInfo>  (4) 
{"isomerGroup": 0, "isomerId": 3, "confId": 0, "nr_conformers:": 1, "nr_isomers:": 9}

$$$$
_i4
     RDKit          3D

 46 49  0  0  0  0  0  0  0  0999 V2000
   -1.1948   -1.7827   -0.0311 N   0  0  0  0  0  0  0  0  0  0  0  0
   -1.5537   -0.4804    0.0334 C   0  0  0  0  0  0  0  0  0  0  0  0
   -2.8938   -0.2385    0.0763 N   0  0  0  0  0  0  0  0  0  0  0  0
   -3.8435   -0.8662   -0.8402 C   0  0  0  0  0  0  0  0  0  0  0  0
   -5.2554   -0.3072   -0.6221 C   0  0  0  0  0  0  0  0  0  0  0  0
   -5.8559   -0.6054    0.7439 C   0  0  0  0  0  0  0  0  0  0  0  0
   -6.8417    0.5266    0.8937 C   0  0  0  0  0  0  0  0  0  0  0  0
   -6.0891    1.6824    0.2699 C   0  0  0  0  0  0  0  0  0  0  0  0
   -5.2580    1.1293   -0.7622 O   0  0  0  0  0  0  0  0  0  0  0  0
   -0.7342    0.5214    0.0761 N   0  0  0  0  0  0  0  0  0  0  0  0
    0.6315    0.2840    0.0180 C   0  0  0  0  0  0  0  0  0  0  0  0
    1.3299    1.3755   -0.1006 N   0  0  0  0  0  0  0  0  0  0  0  0
    2.7222    1.3648   -0.2006 C   0  0  0  0  0  0  0  0  0  0  0  0
    3.3443    1.2428   -1.4438 C   0  0  0  0  0  0  0  0  0  0  0  0
    4.7380    1.2744   -1.5408 C   0  0  0  0  0  0  0  0  0  0  0  0
    5.5261    1.4494   -0.4003 C   0  0  0  0  0  0  0  0  0  0  0  0
    6.8744    1.4602   -0.6327 O   0  0  0  0  0  0  0  0  0  0  0  0
    7.7151    1.6914    0.4903 C   0  0  0  0  0  0  0  0  0  0  0  0
    4.9060    1.5991    0.8407 C   0  0  0  0  0  0  0  0  0  0  0  0
    3.5096    1.5651    0.9351 C   0  0  0  0  0  0  0  0  0  0  0  0
    1.1231   -1.1347    0.0957 C   0  0  0  0  0  0  0  0  0  0  0  0
    2.4483   -1.4195    0.2042 N   0  0  0  0  0  0  0  0  0  0  0  0
    2.7552   -2.7305    0.2867 C   0  0  0  0  0  0  0  0  0  0  0  0
    1.7859   -3.7190    0.2720 C   0  0  0  0  0  0  0  0  0  0  0  0
    0.4634   -3.4431    0.1724 N   0  0  0  0  0  0  0  0  0  0  0  0
    0.1428   -2.1274    0.0834 C   0  0  0  0  0  0  0  0  0  0  0  0
   -1.8502   -2.5319    0.1061 H   0  0  0  0  0  0  0  0  0  0  0  0
   -3.0428    0.7742    0.0772 H   0  0  0  0  0  0  0  0  0  0  0  0
   -3.8540   -1.9528   -0.7050 H   0  0  0  0  0  0  0  0  0  0  0  0
   -3.5275   -0.6468   -1.8667 H   0  0  0  0  0  0  0  0  0  0  0  0
   -5.9161   -0.7011   -1.4046 H   0  0  0  0  0  0  0  0  0  0  0  0
   -6.3209   -1.5940    0.7937 H   0  0  0  0  0  0  0  0  0  0  0  0
   -5.1048   -0.5422    1.5396 H   0  0  0  0  0  0  0  0  0  0  0  0
   -7.1376    0.7186    1.9282 H   0  0  0  0  0  0  0  0  0  0  0  0
   -7.7457    0.3108    0.3119 H   0  0  0  0  0  0  0  0  0  0  0  0
   -6.7555    2.4364   -0.1581 H   0  0  0  0  0  0  0  0  0  0  0  0
   -5.4332    2.1684    1.0000 H   0  0  0  0  0  0  0  0  0  0  0  0
    2.7402    1.1235   -2.3378 H   0  0  0  0  0  0  0  0  0  0  0  0
    5.2107    1.1696   -2.5134 H   0  0  0  0  0  0  0  0  0  0  0  0
    7.5169    2.6708    0.9383 H   0  0  0  0  0  0  0  0  0  0  0  0
    8.7511    1.6907    0.1379 H   0  0  0  0  0  0  0  0  0  0  0  0
    7.6149    0.8899    1.2296 H   0  0  0  0  0  0  0  0  0  0  0  0
    5.4721    1.7472    1.7531 H   0  0  0  0  0  0  0  0  0  0  0  0
    3.0272    1.6934    1.8998 H   0  0  0  0  0  0  0  0  0  0  0  0
    3.8106   -2.9674    0.3665 H   0  0  0  0  0  0  0  0  0  0  0  0
    2.0488   -4.7690    0.3404 H   0  0  0  0  0  0  0  0  0  0  0  0
  1  2  1  0
  2  3  1  0
  3  4  1  0
  4  5  1  0
  5  6  1  0
  6  7  1  0
  7  8  1  0
  8  9  1  0
  2 10  2  0
 10 11  1  0
 11 12  2  3
 12 13  1  0
 13 14  2  0
 14 15  1  0
 15 16  2  0
 16 17  1  0
 17 18  1  0
 16 19  1  0
 19 20  2  0
 11 21  1  0
 21 22  2  0
 22 23  1  0
 23 24  2  0
 24 25  1  0
 25 26  2  0
 26  1  1  0
  9  5  1  0
 20 13  1  0
 26 21  1  0
  1 27  1  0
  3 28  1  0
  4 29  1  0
  4 30  1  0
  5 31  1  0
  6 32  1  0
  6 33  1  0
  7 34  1  0
  7 35  1  0
  8 36  1  0
  8 37  1  0
 14 38  1  0
 15 39  1  0
 18 40  1  0
 18 41  1  0
 18 42  1  0
 19 43  1  0
 20 44  1  0
 23 45  1  0
 24 46  1  0
M  END
>  <ScrubInfo>  (5) 
{"isomerGroup": 0, "isomerId": 4, "confId": 0, "nr_conformers:": 1, "nr_isomers:": 9}

$$$$
_i5
     RDKit          3D

 46 49  0  0  0  0  0  0  0  0999 V2000
   -0.0635    3.5223   -2.3662 N   0  0  0  0  0  0  0  0  0  0  0  0
   -1.0633    4.2317   -1.7584 C   0  0  0  0  0  0  0  0  0  0  0  0
   -1.6851    3.7503   -0.6697 C   0  0  0  0  0  0  0  0  0  0  0  0
   -1.3927    2.5295   -0.0944 N   0  0  0  0  0  0  0  0  0  0  0  0
   -0.4271    1.8318   -0.6358 C   0  0  0  0  0  0  0  0  0  0  0  0
   -0.0450    0.4715   -0.1085 C   0  0  0  0  0  0  0  0  0  0  0  0
   -0.7737   -0.1774    0.8642 N   0  0  0  0  0  0  0  0  0  0  0  0
   -2.1588   -0.4560    0.8209 C   0  0  0  0  0  0  0  0  0  0  0  0
   -2.9677   -0.2308   -0.2975 C   0  0  0  0  0  0  0  0  0  0  0  0
   -4.3395   -0.5230   -0.2708 C   0  0  0  0  0  0  0  0  0  0  0  0
   -4.9263   -1.0428    0.8806 C   0  0  0  0  0  0  0  0  0  0  0  0
   -6.2439   -1.3701    1.0381 O   0  0  0  0  0  0  0  0  0  0  0  0
   -7.1014   -1.1344   -0.0715 C   0  0  0  0  0  0  0  0  0  0  0  0
   -4.1295   -1.2664    2.0025 C   0  0  0  0  0  0  0  0  0  0  0  0
   -2.7625   -0.9745    1.9745 C   0  0  0  0  0  0  0  0  0  0  0  0
    1.0455   -0.0743   -0.5572 N   0  0  0  0  0  0  0  0  0  0  0  0
    1.7739    0.5674   -1.5261 C   0  0  0  0  0  0  0  0  0  0  0  0
    2.9158    0.0986   -1.8746 N   0  0  0  0  0  0  0  0  0  0  0  0
    3.4228   -1.1188   -1.2309 C   0  0  0  0  0  0  0  0  0  0  0  0
    4.0719   -0.8131    0.1243 C   0  0  0  0  0  0  0  0  0  0  0  0
    4.3599   -2.0731    0.9275 C   0  0  0  0  0  0  0  0  0  0  0  0
    5.4833   -1.6152    1.8225 C   0  0  0  0  0  0  0  0  0  0  0  0
    6.2779   -0.7244    0.8927 C   0  0  0  0  0  0  0  0  0  0  0  0
    5.3484   -0.1603   -0.0411 O   0  0  0  0  0  0  0  0  0  0  0  0
    1.4128    1.6957   -2.2087 N   0  0  0  0  0  0  0  0  0  0  0  0
    0.3765    2.3479   -1.8096 C   0  0  0  0  0  0  0  0  0  0  0  0
    0.4962    3.9555   -3.0899 H   0  0  0  0  0  0  0  0  0  0  0  0
   -1.3038    5.1930   -2.1992 H   0  0  0  0  0  0  0  0  0  0  0  0
   -2.4743    4.3231   -0.1889 H   0  0  0  0  0  0  0  0  0  0  0  0
   -0.2773   -0.9861    1.2266 H   0  0  0  0  0  0  0  0  0  0  0  0
   -2.5539    0.1640   -1.2204 H   0  0  0  0  0  0  0  0  0  0  0  0
   -4.9160   -0.3299   -1.1692 H   0  0  0  0  0  0  0  0  0  0  0  0
   -8.1129   -1.4353    0.2179 H   0  0  0  0  0  0  0  0  0  0  0  0
   -7.1313   -0.0705   -0.3290 H   0  0  0  0  0  0  0  0  0  0  0  0
   -6.8070   -1.7423   -0.9334 H   0  0  0  0  0  0  0  0  0  0  0  0
   -4.5765   -1.6651    2.9100 H   0  0  0  0  0  0  0  0  0  0  0  0
   -2.1735   -1.1446    2.8727 H   0  0  0  0  0  0  0  0  0  0  0  0
    2.6309   -1.8712   -1.1298 H   0  0  0  0  0  0  0  0  0  0  0  0
    4.1730   -1.5495   -1.9048 H   0  0  0  0  0  0  0  0  0  0  0  0
    3.4475   -0.1340    0.7169 H   0  0  0  0  0  0  0  0  0  0  0  0
    3.4862   -2.4338    1.4775 H   0  0  0  0  0  0  0  0  0  0  0  0
    4.7147   -2.8812    0.2761 H   0  0  0  0  0  0  0  0  0  0  0  0
    5.0798   -1.0247    2.6536 H   0  0  0  0  0  0  0  0  0  0  0  0
    6.0758   -2.4334    2.2400 H   0  0  0  0  0  0  0  0  0  0  0  0
    6.8001    0.0765    1.4237 H   0  0  0  0  0  0  0  0  0  0  0  0
    7.0131   -1.3023    0.3228 H   0  0  0  0  0  0  0  0  0  0  0  0
  1  2  1  0
  2  3  2  0
  3  4  1  0
  4  5  2  0
  5  6  1  0
  6  7  1  0
  7  8  1  0
  8  9  2  0
  9 10  1  0
 10 11  2  0
 11 12  1  0
 12 13  1  0
 11 14  1  0
 14 15  2  0
  6 16  2  0
 16 17  1  0
 17 18  2  3
 18 19  1  0
 19 20  1  0
 20 21  1  0
 21 22  1  0
 22 23  1  0
 23 24  1  0
 17 25  1  0
 25 26  2  0
 26  1  1  0
 26  5  1  0
 15  8  1  0
 24 20  1  0
  1 27  1  0
  2 28  1  0
  3 29  1  0
  7 30  1  0
  9 31  1  0
 10 32  1  0
 13 33  1  0
 13 34  1  0
 13 35  1  0
 14 36  1  0
 15 37  1  0
 19 38  1  0
 19 39  1  0
 20 40  1  0
 21 41  1  0
 21 42  1  0
 22 43  1  0
 22 44  1  0
 23 45  1  0
 23 46  1  0
M  END
>  <ScrubInfo>  (6) 
{"isomerGroup": 0, "isomerId": 5, "confId": 0, "nr_conformers:": 1, "nr_isomers:": 9}

$$$$
_i6
     RDKit          3D

 46 49  0  0  0  0  0  0  0  0999 V2000
    0.2803   -0.5054   -3.2340 N   0  0  0  0  0  0  0  0  0  0  0  0
    1.5677   -0.4565   -3.6935 C   0  0  0  0  0  0  0  0  0  0  0  0
    2.5712   -0.0827   -2.8843 C   0  0  0  0  0  0  0  0  0  0  0  0
    2.3998    0.2591   -1.5591 N   0  0  0  0  0  0  0  0  0  0  0  0
    1.1812    0.2391   -1.0820 C   0  0  0  0  0  0  0  0  0  0  0  0
    0.8126    0.5526    0.3428 C   0  0  0  0  0  0  0  0  0  0  0  0
    1.6238    0.6516    1.3532 N   0  0  0  0  0  0  0  0  0  0  0  0
    2.9995    0.4582    1.2193 C   0  0  0  0  0  0  0  0  0  0  0  0
    3.8504    1.5489    1.0388 C   0  0  0  0  0  0  0  0  0  0  0  0
    5.2318    1.3581    0.9490 C   0  0  0  0  0  0  0  0  0  0  0  0
    5.7816    0.0784    1.0579 C   0  0  0  0  0  0  0  0  0  0  0  0
    7.1446    0.0302    0.9521 O   0  0  0  0  0  0  0  0  0  0  0  0
    7.7515   -1.2499    1.0701 C   0  0  0  0  0  0  0  0  0  0  0  0
    4.9353   -1.0114    1.2659 C   0  0  0  0  0  0  0  0  0  0  0  0
    3.5514   -0.8180    1.3543 C   0  0  0  0  0  0  0  0  0  0  0  0
   -0.5081    0.7374    0.6558 N   0  0  0  0  0  0  0  0  0  0  0  0
   -1.4264    0.4766   -0.2211 C   0  0  0  0  0  0  0  0  0  0  0  0
   -2.7128    0.6870    0.1728 N   0  0  0  0  0  0  0  0  0  0  0  0
   -3.8405   -0.0213   -0.4062 C   0  0  0  0  0  0  0  0  0  0  0  0
   -5.1405    0.4587    0.2463 C   0  0  0  0  0  0  0  0  0  0  0  0
   -6.3817   -0.1994   -0.3317 C   0  0  0  0  0  0  0  0  0  0  0  0
   -7.3530   -0.0697    0.8149 C   0  0  0  0  0  0  0  0  0  0  0  0
   -6.4604   -0.3100    2.0142 C   0  0  0  0  0  0  0  0  0  0  0  0
   -5.1442    0.1362    1.6547 O   0  0  0  0  0  0  0  0  0  0  0  0
   -1.2081    0.0140   -1.4902 N   0  0  0  0  0  0  0  0  0  0  0  0
   -0.0080   -0.0993   -1.9541 C   0  0  0  0  0  0  0  0  0  0  0  0
   -0.4794   -0.6711   -3.8800 H   0  0  0  0  0  0  0  0  0  0  0  0
    1.7175   -0.7242   -4.7336 H   0  0  0  0  0  0  0  0  0  0  0  0
    3.5928   -0.0412   -3.2541 H   0  0  0  0  0  0  0  0  0  0  0  0
    3.4353    2.5493    0.9640 H   0  0  0  0  0  0  0  0  0  0  0  0
    5.8826    2.2148    0.7970 H   0  0  0  0  0  0  0  0  0  0  0  0
    8.8327   -1.1181    0.9650 H   0  0  0  0  0  0  0  0  0  0  0  0
    7.5640   -1.6867    2.0566 H   0  0  0  0  0  0  0  0  0  0  0  0
    7.4190   -1.9200    0.2704 H   0  0  0  0  0  0  0  0  0  0  0  0
    5.3143   -2.0218    1.3689 H   0  0  0  0  0  0  0  0  0  0  0  0
    2.8984   -1.6673    1.5327 H   0  0  0  0  0  0  0  0  0  0  0  0
   -2.7847    0.8045    1.1817 H   0  0  0  0  0  0  0  0  0  0  0  0
   -3.7093   -1.0955   -0.2307 H   0  0  0  0  0  0  0  0  0  0  0  0
   -3.8851    0.1555   -1.4866 H   0  0  0  0  0  0  0  0  0  0  0  0
   -5.2215    1.5508    0.1714 H   0  0  0  0  0  0  0  0  0  0  0  0
   -6.7284    0.2809   -1.2508 H   0  0  0  0  0  0  0  0  0  0  0  0
   -6.2019   -1.2603   -0.5435 H   0  0  0  0  0  0  0  0  0  0  0  0
   -8.1928   -0.7673    0.7617 H   0  0  0  0  0  0  0  0  0  0  0  0
   -7.7561    0.9495    0.8471 H   0  0  0  0  0  0  0  0  0  0  0  0
   -6.8009    0.2260    2.9046 H   0  0  0  0  0  0  0  0  0  0  0  0
   -6.3955   -1.3769    2.2521 H   0  0  0  0  0  0  0  0  0  0  0  0
  1  2  1  0
  2  3  2  0
  3  4  1  0
  4  5  2  0
  5  6  1  0
  6  7  2  3
  7  8  1  0
  8  9  2  0
  9 10  1  0
 10 11  2  0
 11 12  1  0
 12 13  1  0
 11 14  1  0
 14 15  2  0
  6 16  1  0
 16 17  2  0
 17 18  1  0
 18 19  1  0
 19 20  1  0
 20 21  1  0
 21 22  1  0
 22 23  1  0
 23 24  1  0
 17 25  1  0
 25 26  2  0
 26  1  1  0
 26  5  1  0
 15  8  1  0
 24 20  1  0
  1 27  1  0
  2 28  1  0
  3 29  1  0
  9 30  1  0
 10 31  1  0
 13 32  1  0
 13 33  1  0
 13 34  1  0
 14 35  1  0
 15 36  1  0
 18 37  1  0
 19 38  1  0
 19 39  1  0
 20 40  1  0
 21 41  1  0
 21 42  1  0
 22 43  1  0
 22 44  1  0
 23 45  1  0
 23 46  1  0
M  END
>  <ScrubInfo>  (7) 
{"isomerGroup": 0, "isomerId": 6, "confId": 0, "nr_conformers:": 1, "nr_isomers:": 9}

$$$$
_i7
     RDKit          3D

 46 49  0  0  0  0  0  0  0  0999 V2000
   -1.3599   -1.8151    0.0810 N   0  0  0  0  0  0  0  0  0  0  0  0
   -1.7778   -0.5214    0.1831 C   0  0  0  0  0  0  0  0  0  0  0  0
   -3.0447   -0.2855    0.2085 N   0  0  0  0  0  0  0  0  0  0  0  0
   -3.4964    1.1075    0.3083 C   0  0  0  0  0  0  0  0  0  0  0  0
   -5.0175    1.2014    0.1334 C   0  0  0  0  0  0  0  0  0  0  0  0
   -5.8362    0.3137    1.0610 C   0  0  0  0  0  0  0  0  0  0  0  0
   -7.0867    0.0908    0.2472 C   0  0  0  0  0  0  0  0  0  0  0  0
   -6.5261   -0.0201   -1.1536 C   0  0  0  0  0  0  0  0  0  0  0  0
   -5.4056    0.8715   -1.2170 O   0  0  0  0  0  0  0  0  0  0  0  0
   -0.7472    0.3773    0.2539 N   0  0  0  0  0  0  0  0  0  0  0  0
    0.6133    0.1546    0.2322 C   0  0  0  0  0  0  0  0  0  0  0  0
    1.3693    1.2206    0.3276 N   0  0  0  0  0  0  0  0  0  0  0  0
    2.7647    1.1428    0.3228 C   0  0  0  0  0  0  0  0  0  0  0  0
    3.4735    1.2716   -0.8736 C   0  0  0  0  0  0  0  0  0  0  0  0
    4.8732    1.2416   -0.8822 C   0  0  0  0  0  0  0  0  0  0  0  0
    5.5763    1.0985    0.3145 C   0  0  0  0  0  0  0  0  0  0  0  0
    6.9370    1.0524    0.4479 O   0  0  0  0  0  0  0  0  0  0  0  0
    7.7024    1.1863   -0.7428 C   0  0  0  0  0  0  0  0  0  0  0  0
    4.8679    0.9936    1.5142 C   0  0  0  0  0  0  0  0  0  0  0  0
    3.4709    1.0250    1.5203 C   0  0  0  0  0  0  0  0  0  0  0  0
    1.0204   -1.2847    0.1029 C   0  0  0  0  0  0  0  0  0  0  0  0
    2.3289   -1.6377    0.0574 N   0  0  0  0  0  0  0  0  0  0  0  0
    2.5623   -2.9613   -0.0576 C   0  0  0  0  0  0  0  0  0  0  0  0
    1.5380   -3.8908   -0.1266 C   0  0  0  0  0  0  0  0  0  0  0  0
    0.2292   -3.5422   -0.0838 N   0  0  0  0  0  0  0  0  0  0  0  0
   -0.0282   -2.2158    0.0324 C   0  0  0  0  0  0  0  0  0  0  0  0
   -2.0493   -2.5474    0.0129 H   0  0  0  0  0  0  0  0  0  0  0  0
   -3.2226    1.5130    1.2892 H   0  0  0  0  0  0  0  0  0  0  0  0
   -3.0230    1.7101   -0.4763 H   0  0  0  0  0  0  0  0  0  0  0  0
   -5.3148    2.2474    0.2812 H   0  0  0  0  0  0  0  0  0  0  0  0
   -5.3478   -0.6498    1.2440 H   0  0  0  0  0  0  0  0  0  0  0  0
   -6.0285    0.7824    2.0303 H   0  0  0  0  0  0  0  0  0  0  0  0
   -7.6573   -0.7906    0.5507 H   0  0  0  0  0  0  0  0  0  0  0  0
   -7.7393    0.9687    0.3225 H   0  0  0  0  0  0  0  0  0  0  0  0
   -6.1614   -1.0329   -1.3565 H   0  0  0  0  0  0  0  0  0  0  0  0
   -7.2561    0.2494   -1.9218 H   0  0  0  0  0  0  0  0  0  0  0  0
   -0.9820    1.3563    0.3319 H   0  0  0  0  0  0  0  0  0  0  0  0
    2.9296    1.3925   -1.8058 H   0  0  0  0  0  0  0  0  0  0  0  0
    5.3769    1.3352   -1.8375 H   0  0  0  0  0  0  0  0  0  0  0  0
    8.7603    1.1393   -0.4670 H   0  0  0  0  0  0  0  0  0  0  0  0
    7.5024    0.3620   -1.4353 H   0  0  0  0  0  0  0  0  0  0  0  0
    7.5257    2.1561   -1.2196 H   0  0  0  0  0  0  0  0  0  0  0  0
    5.4067    0.8911    2.4522 H   0  0  0  0  0  0  0  0  0  0  0  0
    2.9315    0.9532    2.4594 H   0  0  0  0  0  0  0  0  0  0  0  0
    3.6047   -3.2589   -0.0927 H   0  0  0  0  0  0  0  0  0  0  0  0
    1.7433   -4.9519   -0.2190 H   0  0  0  0  0  0  0  0  0  0  0  0
  1  2  1  0
  2  3  2  3
  3  4  1  0
  4  5  1  0
  5  6  1  0
  6  7  1  0
  7  8  1  0
  8  9  1  0
  2 10  1  0
 10 11  1  0
 11 12  2  3
 12 13  1  0
 13 14  2  0
 14 15  1  0
 15 16  2  0
 16 17  1  0
 17 18  1  0
 16 19  1  0
 19 20  2  0
 11 21  1  0
 21 22  2  0
 22 23  1  0
 23 24  2  0
 24 25  1  0
 25 26  2  0
 26  1  1  0
  9  5  1  0
 20 13  1  0
 26 21  1  0
  1 27  1  0
  4 28  1  0
  4 29  1  0
  5 30  1  0
  6 31  1  0
  6 32  1  0
  7 33  1  0
  7 34  1  0
  8 35  1  0
  8 36  1  0
 10 37  1  0
 14 38  1  0
 15 39  1  0
 18 40  1  0
 18 41  1  0
 18 42  1  0
 19 43  1  0
 20 44  1  0
 23 45  1  0
 24 46  1  0
M  END
>  <ScrubInfo>  (8) 
{"isomerGroup": 0, "isomerId": 7, "confId": 0, "nr_conformers:": 1, "nr_isomers:": 9}

$$$$
_i8
     RDKit          3D

 46 49  0  0  0  0  0  0  0  0999 V2000
   -0.3711   -0.1304   -2.7258 N   0  0  0  0  0  0  0  0  0  0  0  0
    0.8493    0.1009   -3.2940 C   0  0  0  0  0  0  0  0  0  0  0  0
    1.9614    0.1399   -2.5452 C   0  0  0  0  0  0  0  0  0  0  0  0
    1.9757   -0.0416   -1.1797 N   0  0  0  0  0  0  0  0  0  0  0  0
    0.8371   -0.2630   -0.5766 C   0  0  0  0  0  0  0  0  0  0  0  0
    0.7330   -0.4713    0.9252 C   0  0  0  0  0  0  0  0  0  0  0  0
    1.6866   -0.4326    1.8133 N   0  0  0  0  0  0  0  0  0  0  0  0
    3.0112   -0.1657    1.4592 C   0  0  0  0  0  0  0  0  0  0  0  0
    3.4926    1.1439    1.4588 C   0  0  0  0  0  0  0  0  0  0  0  0
    4.8307    1.4024    1.1499 C   0  0  0  0  0  0  0  0  0  0  0  0
    5.7078    0.3556    0.8554 C   0  0  0  0  0  0  0  0  0  0  0  0
    6.9876    0.7451    0.5697 O   0  0  0  0  0  0  0  0  0  0  0  0
    7.9184   -0.2858    0.2662 C   0  0  0  0  0  0  0  0  0  0  0  0
    5.2351   -0.9569    0.8804 C   0  0  0  0  0  0  0  0  0  0  0  0
    3.8940   -1.2137    1.1898 C   0  0  0  0  0  0  0  0  0  0  0  0
   -0.5468   -0.7225    1.3163 N   0  0  0  0  0  0  0  0  0  0  0  0
   -1.6686   -0.7754    0.5551 C   0  0  0  0  0  0  0  0  0  0  0  0
   -2.7917   -1.0163    1.1407 N   0  0  0  0  0  0  0  0  0  0  0  0
   -4.0203   -1.0662    0.3339 C   0  0  0  0  0  0  0  0  0  0  0  0
   -4.5784    0.3469    0.0777 C   0  0  0  0  0  0  0  0  0  0  0  0
   -5.7428    0.3358   -0.9045 C   0  0  0  0  0  0  0  0  0  0  0  0
   -6.9371    0.1560   -0.0018 C   0  0  0  0  0  0  0  0  0  0  0  0
   -6.5348    0.9621    1.2123 C   0  0  0  0  0  0  0  0  0  0  0  0
   -5.1069    0.8926    1.3065 O   0  0  0  0  0  0  0  0  0  0  0  0
   -1.6281   -0.5774   -0.8018 N   0  0  0  0  0  0  0  0  0  0  0  0
   -0.4856   -0.3350   -1.3728 C   0  0  0  0  0  0  0  0  0  0  0  0
   -1.1996   -0.1719   -3.3037 H   0  0  0  0  0  0  0  0  0  0  0  0
    0.8585    0.2475   -4.3685 H   0  0  0  0  0  0  0  0  0  0  0  0
    2.9287    0.3258   -3.0057 H   0  0  0  0  0  0  0  0  0  0  0  0
    2.8248    1.9660    1.6967 H   0  0  0  0  0  0  0  0  0  0  0  0
    5.1916    2.4274    1.1422 H   0  0  0  0  0  0  0  0  0  0  0  0
    8.8842    0.1860    0.0606 H   0  0  0  0  0  0  0  0  0  0  0  0
    8.0525   -0.9603    1.1183 H   0  0  0  0  0  0  0  0  0  0  0  0
    7.6194   -0.8364   -0.6319 H   0  0  0  0  0  0  0  0  0  0  0  0
    5.8784   -1.8034    0.6685 H   0  0  0  0  0  0  0  0  0  0  0  0
    3.5340   -2.2379    1.2178 H   0  0  0  0  0  0  0  0  0  0  0  0
   -0.6971   -0.8576    2.3062 H   0  0  0  0  0  0  0  0  0  0  0  0
   -4.7478   -1.6559    0.9039 H   0  0  0  0  0  0  0  0  0  0  0  0
   -3.8550   -1.6056   -0.6066 H   0  0  0  0  0  0  0  0  0  0  0  0
   -3.7867    1.0150   -0.2765 H   0  0  0  0  0  0  0  0  0  0  0  0
   -5.8110    1.3120   -1.4006 H   0  0  0  0  0  0  0  0  0  0  0  0
   -5.6629   -0.4290   -1.6820 H   0  0  0  0  0  0  0  0  0  0  0  0
   -7.0484   -0.9007    0.2672 H   0  0  0  0  0  0  0  0  0  0  0  0
   -7.8772    0.4947   -0.4450 H   0  0  0  0  0  0  0  0  0  0  0  0
   -6.8102    2.0157    1.0961 H   0  0  0  0  0  0  0  0  0  0  0  0
   -6.9845    0.5849    2.1350 H   0  0  0  0  0  0  0  0  0  0  0  0
  1  2  1  0
  2  3  2  0
  3  4  1  0
  4  5  2  0
  5  6  1  0
  6  7  2  3
  7  8  1  0
  8  9  2  0
  9 10  1  0
 10 11  2  0
 11 12  1  0
 12 13  1  0
 11 14  1  0
 14 15  2  0
  6 16  1  0
 16 17  1  0
 17 18  2  3
 18 19  1  0
 19 20  1  0
 20 21  1  0
 21 22  1  0
 22 23  1  0
 23 24  1  0
 17 25  1  0
 25 26  2  0
 26  1  1  0
 26  5  1  0
 15  8  1  0
 24 20  1  0
  1 27  1  0
  2 28  1  0
  3 29  1  0
  9 30  1  0
 10 31  1  0
 13 32  1  0
 13 33  1  0
 13 34  1  0
 14 35  1  0
 15 36  1  0
 16 37  1  0
 19 38  1  0
 19 39  1  0
 20 40  1  0
 21 41  1  0
 21 42  1  0
 22 43  1  0
 22 44  1  0
 23 45  1  0
 23 46  1  0
M  END
>  <ScrubInfo>  (9) 
{"isomerGroup": 0, "isomerId": 8, "confId": 0, "nr_conformers:": 1, "nr_isomers:": 9}

$$$$
