_i0
     RDKit          3D

 43 45  0  0  0  0  0  0  0  0999 V2000
    6.8441    0.6192    0.9359 C   0  0  0  0  0  0  0  0  0  0  0  0
    6.2419    0.4348   -0.4486 C   0  0  0  0  0  0  0  0  0  0  0  0
    4.7391    0.5332   -0.4236 C   0  0  0  0  0  0  0  0  0  0  0  0
    4.1015    1.7646   -0.5895 C   0  0  0  0  0  0  0  0  0  0  0  0
    2.7053    1.8498   -0.5486 C   0  0  0  0  0  0  0  0  0  0  0  0
    1.9054    0.7153   -0.3364 C   0  0  0  0  0  0  0  0  0  0  0  0
    0.5162    0.8736   -0.3101 N   0  0  0  0  0  0  0  0  0  0  0  0
   -0.5581    0.0055   -0.1352 C   0  0  0  0  0  0  0  0  0  0  0  0
   -1.7621    0.5929   -0.1767 N   0  0  0  0  0  0  0  0  0  0  0  0
   -2.8544   -0.1755   -0.0267 C   0  0  0  0  0  0  0  0  0  0  0  0
   -4.1322    0.4341   -0.0791 N   0  0  0  0  0  0  0  0  0  0  0  0
   -4.1122    1.8733   -0.3394 C   0  0  0  0  0  0  0  0  0  0  0  0
   -5.5339    2.4423   -0.2741 C   0  0  0  0  0  0  0  0  0  0  0  0
   -5.5375    3.8469   -0.5090 O   0  0  0  0  0  0  0  0  0  0  0  0
   -2.7644   -1.5574    0.2029 C   0  0  0  0  0  0  0  0  0  0  0  0
   -3.8641   -2.4294    0.4162 C   0  0  0  0  0  0  0  0  0  0  0  0
   -3.6654   -3.7919    0.6270 C   0  0  0  0  0  0  0  0  0  0  0  0
   -2.3729   -4.2967    0.6311 C   0  0  0  0  0  0  0  0  0  0  0  0
   -1.2917   -3.4337    0.4318 C   0  0  0  0  0  0  0  0  0  0  0  0
   -1.4658   -2.0704    0.2221 C   0  0  0  0  0  0  0  0  0  0  0  0
   -0.3853   -1.3064    0.0500 N   0  0  0  0  0  0  0  0  0  0  0  0
    2.5567   -0.5089   -0.1664 C   0  0  0  0  0  0  0  0  0  0  0  0
    3.9540   -0.6023   -0.2060 C   0  0  0  0  0  0  0  0  0  0  0  0
    6.5907    1.6002    1.3520 H   0  0  0  0  0  0  0  0  0  0  0  0
    7.9350    0.5430    0.8873 H   0  0  0  0  0  0  0  0  0  0  0  0
    6.4814   -0.1447    1.6321 H   0  0  0  0  0  0  0  0  0  0  0  0
    6.5413   -0.5385   -0.8562 H   0  0  0  0  0  0  0  0  0  0  0  0
    6.6497    1.1883   -1.1333 H   0  0  0  0  0  0  0  0  0  0  0  0
    4.6842    2.6683   -0.7515 H   0  0  0  0  0  0  0  0  0  0  0  0
    2.2442    2.8250   -0.6848 H   0  0  0  0  0  0  0  0  0  0  0  0
    0.1611    1.8098   -0.4325 H   0  0  0  0  0  0  0  0  0  0  0  0
   -4.6824   -0.0618   -0.7775 H   0  0  0  0  0  0  0  0  0  0  0  0
   -3.4988    2.3991    0.4036 H   0  0  0  0  0  0  0  0  0  0  0  0
   -3.6854    2.0881   -1.3275 H   0  0  0  0  0  0  0  0  0  0  0  0
   -5.9909    2.2514    0.7030 H   0  0  0  0  0  0  0  0  0  0  0  0
   -6.1680    1.9728   -1.0335 H   0  0  0  0  0  0  0  0  0  0  0  0
   -5.0692    4.2656    0.2345 H   0  0  0  0  0  0  0  0  0  0  0  0
   -4.8789   -2.0390    0.4333 H   0  0  0  0  0  0  0  0  0  0  0  0
   -4.5135   -4.4513    0.7921 H   0  0  0  0  0  0  0  0  0  0  0  0
   -2.1977   -5.3568    0.7955 H   0  0  0  0  0  0  0  0  0  0  0  0
   -0.2811   -3.8369    0.4444 H   0  0  0  0  0  0  0  0  0  0  0  0
    1.9939   -1.4212    0.0038 H   0  0  0  0  0  0  0  0  0  0  0  0
    4.4201   -1.5746   -0.0637 H   0  0  0  0  0  0  0  0  0  0  0  0
  1  2  1  0
  2  3  1  0
  3  4  2  0
  4  5  1  0
  5  6  2  0
  6  7  1  0
  7  8  1  0
  8  9  2  0
  9 10  1  0
 10 11  1  0
 11 12  1  0
 12 13  1  0
 13 14  1  0
 10 15  2  0
 15 16  1  0
 16 17  2  0
 17 18  1  0
 18 19  2  0
 19 20  1  0
 20 21  2  0
  6 22  1  0
 22 23  2  0
 23  3  1  0
 21  8  1  0
 20 15  1  0
  1 24  1  0
  1 25  1  0
  1 26  1  0
  2 27  1  0
  2 28  1  0
  4 29  1  0
  5 30  1  0
  7 31  1  0
 11 32  1  0
 12 33  1  0
 12 34  1  0
 13 35  1  0
 13 36  1  0
 14 37  1  0
 16 38  1  0
 17 39  1  0
 18 40  1  0
 19 41  1  0
 22 42  1  0
 23 43  1  0
M  END
>  <ScrubInfo>  (1) 
{"isomerGroup": 0, "isomerId": 0, "confId": 0, "nr_conformers:": 1, "nr_isomers:": 6}

$$$$
_i1
     RDKit          3D

 43 45  0  0  0  0  0  0  0  0999 V2000
   -1.4065    1.2460    0.2375 N   0  0  0  0  0  0  0  0  0  0  0  0
   -2.5524    0.6173    0.6497 C   0  0  0  0  0  0  0  0  0  0  0  0
   -3.7338    1.3499    0.7081 N   0  0  0  0  0  0  0  0  0  0  0  0
   -4.7744    1.1589   -0.3156 C   0  0  0  0  0  0  0  0  0  0  0  0
   -5.8510    2.2353   -0.1458 C   0  0  0  0  0  0  0  0  0  0  0  0
   -5.2594    3.5279   -0.2986 O   0  0  0  0  0  0  0  0  0  0  0  0
   -2.4682   -0.6861    1.0072 C   0  0  0  0  0  0  0  0  0  0  0  0
   -3.5398   -1.5056    1.5387 C   0  0  0  0  0  0  0  0  0  0  0  0
   -3.3360   -2.7936    1.8480 C   0  0  0  0  0  0  0  0  0  0  0  0
   -2.0447   -3.4124    1.6667 C   0  0  0  0  0  0  0  0  0  0  0  0
   -0.9841   -2.7334    1.2092 C   0  0  0  0  0  0  0  0  0  0  0  0
   -1.0939   -1.2907    0.8474 C   0  0  0  0  0  0  0  0  0  0  0  0
   -0.0311   -0.6774    0.4261 N   0  0  0  0  0  0  0  0  0  0  0  0
   -0.1887    0.6461    0.1033 C   0  0  0  0  0  0  0  0  0  0  0  0
    0.8093    1.3548   -0.3422 N   0  0  0  0  0  0  0  0  0  0  0  0
    2.0658    0.7489   -0.4855 C   0  0  0  0  0  0  0  0  0  0  0  0
    2.4415    0.1832   -1.7056 C   0  0  0  0  0  0  0  0  0  0  0  0
    3.7077   -0.3864   -1.8652 C   0  0  0  0  0  0  0  0  0  0  0  0
    4.6215   -0.3912   -0.8034 C   0  0  0  0  0  0  0  0  0  0  0  0
    5.9934   -0.9896   -0.9774 C   0  0  0  0  0  0  0  0  0  0  0  0
    6.9984    0.0358   -1.4794 C   0  0  0  0  0  0  0  0  0  0  0  0
    4.2512    0.1965    0.4131 C   0  0  0  0  0  0  0  0  0  0  0  0
    2.9836    0.7647    0.5668 C   0  0  0  0  0  0  0  0  0  0  0  0
   -1.4595    2.2059   -0.0607 H   0  0  0  0  0  0  0  0  0  0  0  0
   -3.5150    2.3492    0.7205 H   0  0  0  0  0  0  0  0  0  0  0  0
   -4.3193    1.2551   -1.3086 H   0  0  0  0  0  0  0  0  0  0  0  0
   -5.2261    0.1661   -0.2306 H   0  0  0  0  0  0  0  0  0  0  0  0
   -6.6309    2.1176   -0.9041 H   0  0  0  0  0  0  0  0  0  0  0  0
   -6.3034    2.1798    0.8497 H   0  0  0  0  0  0  0  0  0  0  0  0
   -5.9665    4.1798   -0.1482 H   0  0  0  0  0  0  0  0  0  0  0  0
   -4.5087   -1.0481    1.7052 H   0  0  0  0  0  0  0  0  0  0  0  0
   -4.1386   -3.4000    2.2571 H   0  0  0  0  0  0  0  0  0  0  0  0
   -1.9491   -4.4624    1.9272 H   0  0  0  0  0  0  0  0  0  0  0  0
   -0.0115   -3.1939    1.0824 H   0  0  0  0  0  0  0  0  0  0  0  0
    1.7391    0.1863   -2.5335 H   0  0  0  0  0  0  0  0  0  0  0  0
    3.9747   -0.8231   -2.8242 H   0  0  0  0  0  0  0  0  0  0  0  0
    5.9422   -1.8321   -1.6778 H   0  0  0  0  0  0  0  0  0  0  0  0
    6.3366   -1.4089   -0.0238 H   0  0  0  0  0  0  0  0  0  0  0  0
    6.6980    0.4444   -2.4502 H   0  0  0  0  0  0  0  0  0  0  0  0
    7.9839   -0.4261   -1.5962 H   0  0  0  0  0  0  0  0  0  0  0  0
    7.0965    0.8720   -0.7789 H   0  0  0  0  0  0  0  0  0  0  0  0
    4.9459    0.2188    1.2489 H   0  0  0  0  0  0  0  0  0  0  0  0
    2.7037    1.2207    1.5117 H   0  0  0  0  0  0  0  0  0  0  0  0
  1  2  1  0
  2  3  1  0
  3  4  1  0
  4  5  1  0
  5  6  1  0
  2  7  2  0
  7  8  1  0
  8  9  2  0
  9 10  1  0
 10 11  2  0
 11 12  1  0
 12 13  2  0
 13 14  1  0
 14 15  2  3
 15 16  1  0
 16 17  2  0
 17 18  1  0
 18 19  2  0
 19 20  1  0
 20 21  1  0
 19 22  1  0
 22 23  2  0
 14  1  1  0
 23 16  1  0
 12  7  1  0
  1 24  1  0
  3 25  1  0
  4 26  1  0
  4 27  1  0
  5 28  1  0
  5 29  1  0
  6 30  1  0
  8 31  1  0
  9 32  1  0
 10 33  1  0
 11 34  1  0
 17 35  1  0
 18 36  1  0
 20 37  1  0
 20 38  1  0
 21 39  1  0
 21 40  1  0
 21 41  1  0
 22 42  1  0
 23 43  1  0
M  END
>  <ScrubInfo>  (2) 
{"isomerGroup": 0, "isomerId": 1, "confId": 0, "nr_conformers:": 1, "nr_isomers:": 6}

$$$$
_i2
     RDKit          3D

 43 45  0  0  0  0  0  0  0  0999 V2000
   -1.7614    0.6020    0.4796 N   0  0  0  0  0  0  0  0  0  0  0  0
   -0.5860    0.0567    0.0245 C   0  0  0  0  0  0  0  0  0  0  0  0
    0.4568    0.9488    0.1084 N   0  0  0  0  0  0  0  0  0  0  0  0
    1.8265    0.7016   -0.1285 C   0  0  0  0  0  0  0  0  0  0  0  0
    2.6786    1.7937   -0.3612 C   0  0  0  0  0  0  0  0  0  0  0  0
    4.0524    1.6167   -0.5610 C   0  0  0  0  0  0  0  0  0  0  0  0
    4.6143    0.3383   -0.5206 C   0  0  0  0  0  0  0  0  0  0  0  0
    6.0947    0.1413   -0.7187 C   0  0  0  0  0  0  0  0  0  0  0  0
    6.8573    0.2207    0.5950 C   0  0  0  0  0  0  0  0  0  0  0  0
    3.7803   -0.7520   -0.2578 C   0  0  0  0  0  0  0  0  0  0  0  0
    2.4065   -0.5686   -0.0584 C   0  0  0  0  0  0  0  0  0  0  0  0
   -0.5208   -1.1585   -0.4338 N   0  0  0  0  0  0  0  0  0  0  0  0
   -1.7127   -1.9162   -0.4586 C   0  0  0  0  0  0  0  0  0  0  0  0
   -1.6563   -3.2155   -0.9698 C   0  0  0  0  0  0  0  0  0  0  0  0
   -2.8030   -4.0138   -1.0227 C   0  0  0  0  0  0  0  0  0  0  0  0
   -4.0239   -3.5191   -0.5630 C   0  0  0  0  0  0  0  0  0  0  0  0
   -4.1017   -2.2251   -0.0490 C   0  0  0  0  0  0  0  0  0  0  0  0
   -2.9500   -1.4315    0.0006 C   0  0  0  0  0  0  0  0  0  0  0  0
   -2.9742   -0.0419    0.5441 C   0  0  0  0  0  0  0  0  0  0  0  0
   -4.0864    0.4094    1.0090 N   0  0  0  0  0  0  0  0  0  0  0  0
   -4.2072    1.7651    1.5474 C   0  0  0  0  0  0  0  0  0  0  0  0
   -4.5953    2.7512    0.4430 C   0  0  0  0  0  0  0  0  0  0  0  0
   -5.9680    2.6015    0.0954 O   0  0  0  0  0  0  0  0  0  0  0  0
   -1.6770    1.4562    1.0006 H   0  0  0  0  0  0  0  0  0  0  0  0
    0.2063    1.9099   -0.0740 H   0  0  0  0  0  0  0  0  0  0  0  0
    2.2828    2.8054   -0.3950 H   0  0  0  0  0  0  0  0  0  0  0  0
    4.6800    2.4858   -0.7451 H   0  0  0  0  0  0  0  0  0  0  0  0
    6.4772    0.8972   -1.4154 H   0  0  0  0  0  0  0  0  0  0  0  0
    6.2772   -0.8297   -1.1951 H   0  0  0  0  0  0  0  0  0  0  0  0
    6.5198   -0.5488    1.2975 H   0  0  0  0  0  0  0  0  0  0  0  0
    7.9279    0.0745    0.4204 H   0  0  0  0  0  0  0  0  0  0  0  0
    6.7218    1.1960    1.0748 H   0  0  0  0  0  0  0  0  0  0  0  0
    4.1903   -1.7579   -0.1993 H   0  0  0  0  0  0  0  0  0  0  0  0
    1.8037   -1.4452    0.1631 H   0  0  0  0  0  0  0  0  0  0  0  0
   -0.7076   -3.6047   -1.3304 H   0  0  0  0  0  0  0  0  0  0  0  0
   -2.7410   -5.0223   -1.4238 H   0  0  0  0  0  0  0  0  0  0  0  0
   -4.9149   -4.1406   -0.6045 H   0  0  0  0  0  0  0  0  0  0  0  0
   -5.0523   -1.8381    0.3095 H   0  0  0  0  0  0  0  0  0  0  0  0
   -3.2871    2.0895    2.0434 H   0  0  0  0  0  0  0  0  0  0  0  0
   -4.9872    1.7481    2.3170 H   0  0  0  0  0  0  0  0  0  0  0  0
   -3.9845    2.6022   -0.4535 H   0  0  0  0  0  0  0  0  0  0  0  0
   -4.4571    3.7777    0.7962 H   0  0  0  0  0  0  0  0  0  0  0  0
   -6.0989    3.0399   -0.7613 H   0  0  0  0  0  0  0  0  0  0  0  0
  1  2  1  0
  2  3  1  0
  3  4  1  0
  4  5  2  0
  5  6  1  0
  6  7  2  0
  7  8  1  0
  8  9  1  0
  7 10  1  0
 10 11  2  0
  2 12  2  0
 12 13  1  0
 13 14  2  0
 14 15  1  0
 15 16  2  0
 16 17  1  0
 17 18  2  0
 18 19  1  0
 19 20  2  3
 20 21  1  0
 21 22  1  0
 22 23  1  0
 19  1  1  0
 11  4  1  0
 18 13  1  0
  1 24  1  0
  3 25  1  0
  5 26  1  0
  6 27  1  0
  8 28  1  0
  8 29  1  0
  9 30  1  0
  9 31  1  0
  9 32  1  0
 10 33  1  0
 11 34  1  0
 14 35  1  0
 15 36  1  0
 16 37  1  0
 17 38  1  0
 21 39  1  0
 21 40  1  0
 22 41  1  0
 22 42  1  0
 23 43  1  0
M  END
>  <ScrubInfo>  (3) 
{"isomerGroup": 0, "isomerId": 2, "confId": 0, "nr_conformers:": 1, "nr_isomers:": 6}

$$$$
_i3
     RDKit          3D

 43 45  0  0  0  0  0  0  0  0999 V2000
   -0.2120   -0.8835   -0.0541 N   0  0  0  0  0  0  0  0  0  0  0  0
   -0.4228    0.4444    0.2136 C   0  0  0  0  0  0  0  0  0  0  0  0
    0.5048    1.3449    0.3402 N   0  0  0  0  0  0  0  0  0  0  0  0
    1.8463    0.9759    0.1962 C   0  0  0  0  0  0  0  0  0  0  0  0
    2.5801    0.5295    1.2967 C   0  0  0  0  0  0  0  0  0  0  0  0
    3.9167    0.1503    1.1502 C   0  0  0  0  0  0  0  0  0  0  0  0
    4.5396    0.2203   -0.1027 C   0  0  0  0  0  0  0  0  0  0  0  0
    5.9891   -0.1637   -0.2583 C   0  0  0  0  0  0  0  0  0  0  0  0
    6.9163    1.0197   -0.0276 C   0  0  0  0  0  0  0  0  0  0  0  0
    3.8082    0.6931   -1.2000 C   0  0  0  0  0  0  0  0  0  0  0  0
    2.4719    1.0710   -1.0481 C   0  0  0  0  0  0  0  0  0  0  0  0
   -1.6903    0.9440    0.3825 N   0  0  0  0  0  0  0  0  0  0  0  0
   -2.7276    0.1795    0.1909 C   0  0  0  0  0  0  0  0  0  0  0  0
   -3.9995    0.6924    0.3986 N   0  0  0  0  0  0  0  0  0  0  0  0
   -4.1747    2.0281    0.9787 C   0  0  0  0  0  0  0  0  0  0  0  0
   -5.6547    2.4149    0.9061 C   0  0  0  0  0  0  0  0  0  0  0  0
   -6.1289    2.3474   -0.4396 O   0  0  0  0  0  0  0  0  0  0  0  0
   -2.5843   -1.2467   -0.2450 C   0  0  0  0  0  0  0  0  0  0  0  0
   -3.6737   -2.0686   -0.5542 C   0  0  0  0  0  0  0  0  0  0  0  0
   -3.4524   -3.3928   -0.9366 C   0  0  0  0  0  0  0  0  0  0  0  0
   -2.1520   -3.8908   -1.0116 C   0  0  0  0  0  0  0  0  0  0  0  0
   -1.0662   -3.0625   -0.7199 C   0  0  0  0  0  0  0  0  0  0  0  0
   -1.2757   -1.7297   -0.3554 C   0  0  0  0  0  0  0  0  0  0  0  0
    0.7259   -1.1768   -0.2744 H   0  0  0  0  0  0  0  0  0  0  0  0
    2.1054    0.4844    2.2733 H   0  0  0  0  0  0  0  0  0  0  0  0
    4.4703   -0.1889    2.0228 H   0  0  0  0  0  0  0  0  0  0  0  0
    6.2343   -0.9694    0.4444 H   0  0  0  0  0  0  0  0  0  0  0  0
    6.1556   -0.5753   -1.2613 H   0  0  0  0  0  0  0  0  0  0  0  0
    6.7168    1.8259   -0.7416 H   0  0  0  0  0  0  0  0  0  0  0  0
    6.7963    1.4277    0.9817 H   0  0  0  0  0  0  0  0  0  0  0  0
    7.9598    0.7116   -0.1470 H   0  0  0  0  0  0  0  0  0  0  0  0
    4.2765    0.7819   -2.1775 H   0  0  0  0  0  0  0  0  0  0  0  0
    1.9129    1.4494   -1.9000 H   0  0  0  0  0  0  0  0  0  0  0  0
   -4.6753    0.0223    0.7502 H   0  0  0  0  0  0  0  0  0  0  0  0
   -3.8319    2.0396    2.0184 H   0  0  0  0  0  0  0  0  0  0  0  0
   -3.5923    2.7547    0.4007 H   0  0  0  0  0  0  0  0  0  0  0  0
   -6.2634    1.7315    1.5070 H   0  0  0  0  0  0  0  0  0  0  0  0
   -5.8081    3.4328    1.2758 H   0  0  0  0  0  0  0  0  0  0  0  0
   -5.5130    1.7561   -0.9157 H   0  0  0  0  0  0  0  0  0  0  0  0
   -4.6924   -1.6981   -0.5194 H   0  0  0  0  0  0  0  0  0  0  0  0
   -4.2947   -4.0373   -1.1783 H   0  0  0  0  0  0  0  0  0  0  0  0
   -1.9824   -4.9246   -1.3041 H   0  0  0  0  0  0  0  0  0  0  0  0
   -0.0585   -3.4645   -0.7869 H   0  0  0  0  0  0  0  0  0  0  0  0
  1  2  1  0
  2  3  2  3
  3  4  1  0
  4  5  2  0
  5  6  1  0
  6  7  2  0
  7  8  1  0
  8  9  1  0
  7 10  1  0
 10 11  2  0
  2 12  1  0
 12 13  2  0
 13 14  1  0
 14 15  1  0
 15 16  1  0
 16 17  1  0
 13 18  1  0
 18 19  2  0
 19 20  1  0
 20 21  2  0
 21 22  1  0
 22 23  2  0
 23  1  1  0
 11  4  1  0
 23 18  1  0
  1 24  1  0
  5 25  1  0
  6 26  1  0
  8 27  1  0
  8 28  1  0
  9 29  1  0
  9 30  1  0
  9 31  1  0
 10 32  1  0
 11 33  1  0
 14 34  1  0
 15 35  1  0
 15 36  1  0
 16 37  1  0
 16 38  1  0
 17 39  1  0
 19 40  1  0
 20 41  1  0
 21 42  1  0
 22 43  1  0
M  END
>  <ScrubInfo>  (4) 
{"isomerGroup": 0, "isomerId": 3, "confId": 0, "nr_conformers:": 1, "nr_isomers:": 6}

$$$$
_i4
     RDKit          3D

 43 45  0  0  0  0  0  0  0  0999 V2000
   -0.4350    0.8304    0.8084 N   0  0  0  0  0  0  0  0  0  0  0  0
   -0.6029   -0.5057    0.5780 C   0  0  0  0  0  0  0  0  0  0  0  0
    0.5213   -1.2733    0.7165 N   0  0  0  0  0  0  0  0  0  0  0  0
    1.8158   -0.9968    0.2238 C   0  0  0  0  0  0  0  0  0  0  0  0
    2.0898    0.0036   -0.7152 C   0  0  0  0  0  0  0  0  0  0  0  0
    3.3979    0.2409   -1.1514 C   0  0  0  0  0  0  0  0  0  0  0  0
    4.4621   -0.5215   -0.6586 C   0  0  0  0  0  0  0  0  0  0  0  0
    5.8730   -0.2550   -1.1167 C   0  0  0  0  0  0  0  0  0  0  0  0
    6.5656    0.7787   -0.2420 C   0  0  0  0  0  0  0  0  0  0  0  0
    4.1961   -1.5202    0.2831 C   0  0  0  0  0  0  0  0  0  0  0  0
    2.8873   -1.7555    0.7145 C   0  0  0  0  0  0  0  0  0  0  0  0
   -1.7339   -1.0881    0.3107 N   0  0  0  0  0  0  0  0  0  0  0  0
   -2.8684   -0.3112    0.2125 C   0  0  0  0  0  0  0  0  0  0  0  0
   -3.9925   -0.8309   -0.1574 N   0  0  0  0  0  0  0  0  0  0  0  0
   -3.9819   -2.2705   -0.4630 C   0  0  0  0  0  0  0  0  0  0  0  0
   -5.4082   -2.6790   -0.8324 C   0  0  0  0  0  0  0  0  0  0  0  0
   -5.8667   -1.8854   -1.9266 O   0  0  0  0  0  0  0  0  0  0  0  0
   -2.8064    1.1382    0.5449 C   0  0  0  0  0  0  0  0  0  0  0  0
   -3.9449    1.9504    0.5380 C   0  0  0  0  0  0  0  0  0  0  0  0
   -3.8251    3.3041    0.8513 C   0  0  0  0  0  0  0  0  0  0  0  0
   -2.5741    3.8399    1.1613 C   0  0  0  0  0  0  0  0  0  0  0  0
   -1.4391    3.0237    1.1653 C   0  0  0  0  0  0  0  0  0  0  0  0
   -1.5530    1.6620    0.8760 C   0  0  0  0  0  0  0  0  0  0  0  0
    0.4069    1.1183    1.2867 H   0  0  0  0  0  0  0  0  0  0  0  0
    0.3044   -2.2615    0.6193 H   0  0  0  0  0  0  0  0  0  0  0  0
    1.2889    0.5969   -1.1492 H   0  0  0  0  0  0  0  0  0  0  0  0
    3.5771    1.0222   -1.8871 H   0  0  0  0  0  0  0  0  0  0  0  0
    6.4461   -1.1902   -1.1098 H   0  0  0  0  0  0  0  0  0  0  0  0
    5.8641    0.0871   -2.1588 H   0  0  0  0  0  0  0  0  0  0  0  0
    6.6205    0.4450    0.7997 H   0  0  0  0  0  0  0  0  0  0  0  0
    7.5864    0.9519   -0.5970 H   0  0  0  0  0  0  0  0  0  0  0  0
    6.0330    1.7357   -0.2603 H   0  0  0  0  0  0  0  0  0  0  0  0
    5.0060   -2.1221    0.6896 H   0  0  0  0  0  0  0  0  0  0  0  0
    2.7107   -2.5338    1.4538 H   0  0  0  0  0  0  0  0  0  0  0  0
   -3.6508   -2.8608    0.3987 H   0  0  0  0  0  0  0  0  0  0  0  0
   -3.3246   -2.4612   -1.3197 H   0  0  0  0  0  0  0  0  0  0  0  0
   -6.0911   -2.5200    0.0084 H   0  0  0  0  0  0  0  0  0  0  0  0
   -5.4501   -3.7319   -1.1249 H   0  0  0  0  0  0  0  0  0  0  0  0
   -5.5276   -0.9898   -1.7249 H   0  0  0  0  0  0  0  0  0  0  0  0
   -4.9176    1.5335    0.2897 H   0  0  0  0  0  0  0  0  0  0  0  0
   -4.7059    3.9419    0.8469 H   0  0  0  0  0  0  0  0  0  0  0  0
   -2.4819    4.8983    1.3942 H   0  0  0  0  0  0  0  0  0  0  0  0
   -0.4710    3.4618    1.3927 H   0  0  0  0  0  0  0  0  0  0  0  0
  1  2  1  0
  2  3  1  0
  3  4  1  0
  4  5  2  0
  5  6  1  0
  6  7  2  0
  7  8  1  0
  8  9  1  0
  7 10  1  0
 10 11  2  0
  2 12  2  0
 12 13  1  0
 13 14  2  3
 14 15  1  0
 15 16  1  0
 16 17  1  0
 13 18  1  0
 18 19  2  0
 19 20  1  0
 20 21  2  0
 21 22  1  0
 22 23  2  0
 23  1  1  0
 11  4  1  0
 23 18  1  0
  1 24  1  0
  3 25  1  0
  5 26  1  0
  6 27  1  0
  8 28  1  0
  8 29  1  0
  9 30  1  0
  9 31  1  0
  9 32  1  0
 10 33  1  0
 11 34  1  0
 15 35  1  0
 15 36  1  0
 16 37  1  0
 16 38  1  0
 17 39  1  0
 19 40  1  0
 20 41  1  0
 21 42  1  0
 22 43  1  0
M  END
>  <ScrubInfo>  (5) 
{"isomerGroup": 0, "isomerId": 4, "confId": 0, "nr_conformers:": 1, "nr_isomers:": 6}

$$$$
_i5
     RDKit          3D

 43 45  0  0  0  0  0  0  0  0999 V2000
   -0.3068   -0.7757   -0.1954 N   0  0  0  0  0  0  0  0  0  0  0  0
   -0.4079    0.5300    0.2175 C   0  0  0  0  0  0  0  0  0  0  0  0
    0.5651    1.3685    0.4304 N   0  0  0  0  0  0  0  0  0  0  0  0
    1.8817    0.9354    0.2283 C   0  0  0  0  0  0  0  0  0  0  0  0
    2.6062    0.3669    1.2773 C   0  0  0  0  0  0  0  0  0  0  0  0
    3.9165   -0.0736    1.0758 C   0  0  0  0  0  0  0  0  0  0  0  0
    4.5220    0.0557   -0.1809 C   0  0  0  0  0  0  0  0  0  0  0  0
    5.9441   -0.3969   -0.3947 C   0  0  0  0  0  0  0  0  0  0  0  0
    6.9418    0.7118   -0.0972 C   0  0  0  0  0  0  0  0  0  0  0  0
    3.8004    0.6483   -1.2252 C   0  0  0  0  0  0  0  0  0  0  0  0
    2.4904    1.0872   -1.0187 C   0  0  0  0  0  0  0  0  0  0  0  0
   -1.6931    0.9562    0.4147 N   0  0  0  0  0  0  0  0  0  0  0  0
   -2.8749    0.2721    0.2570 C   0  0  0  0  0  0  0  0  0  0  0  0
   -4.0711    0.7210    0.4516 N   0  0  0  0  0  0  0  0  0  0  0  0
   -4.2306    2.1103    0.8977 C   0  0  0  0  0  0  0  0  0  0  0  0
   -5.7277    2.3901    1.0352 C   0  0  0  0  0  0  0  0  0  0  0  0
   -6.3718    2.1535   -0.2153 O   0  0  0  0  0  0  0  0  0  0  0  0
   -2.7220   -1.1476   -0.1915 C   0  0  0  0  0  0  0  0  0  0  0  0
   -3.8264   -1.9818   -0.3932 C   0  0  0  0  0  0  0  0  0  0  0  0
   -3.6281   -3.2967   -0.8124 C   0  0  0  0  0  0  0  0  0  0  0  0
   -2.3343   -3.7730   -1.0271 C   0  0  0  0  0  0  0  0  0  0  0  0
   -1.2316   -2.9376   -0.8234 C   0  0  0  0  0  0  0  0  0  0  0  0
   -1.4123   -1.6154   -0.4031 C   0  0  0  0  0  0  0  0  0  0  0  0
    0.6142   -1.1545   -0.3630 H   0  0  0  0  0  0  0  0  0  0  0  0
    2.1466    0.2711    2.2573 H   0  0  0  0  0  0  0  0  0  0  0  0
    4.4641   -0.5093    1.9085 H   0  0  0  0  0  0  0  0  0  0  0  0
    6.1540   -1.2653    0.2416 H   0  0  0  0  0  0  0  0  0  0  0  0
    6.0697   -0.7413   -1.4284 H   0  0  0  0  0  0  0  0  0  0  0  0
    6.7773    1.5791   -0.7456 H   0  0  0  0  0  0  0  0  0  0  0  0
    6.8624    1.0496    0.9417 H   0  0  0  0  0  0  0  0  0  0  0  0
    7.9637    0.3552   -0.2606 H   0  0  0  0  0  0  0  0  0  0  0  0
    4.2566    0.7809   -2.2037 H   0  0  0  0  0  0  0  0  0  0  0  0
    1.9404    1.5539   -1.8314 H   0  0  0  0  0  0  0  0  0  0  0  0
   -1.7392    1.9193    0.7095 H   0  0  0  0  0  0  0  0  0  0  0  0
   -3.7392    2.2732    1.8630 H   0  0  0  0  0  0  0  0  0  0  0  0
   -3.8082    2.7897    0.1482 H   0  0  0  0  0  0  0  0  0  0  0  0
   -6.1839    1.7320    1.7816 H   0  0  0  0  0  0  0  0  0  0  0  0
   -5.9054    3.4292    1.3263 H   0  0  0  0  0  0  0  0  0  0  0  0
   -5.9688    1.3220   -0.5377 H   0  0  0  0  0  0  0  0  0  0  0  0
   -4.8347   -1.6134   -0.2244 H   0  0  0  0  0  0  0  0  0  0  0  0
   -4.4828   -3.9499   -0.9710 H   0  0  0  0  0  0  0  0  0  0  0  0
   -2.1833   -4.7993   -1.3540 H   0  0  0  0  0  0  0  0  0  0  0  0
   -0.2332   -3.3310   -0.9962 H   0  0  0  0  0  0  0  0  0  0  0  0
  1  2  1  0
  2  3  2  3
  3  4  1  0
  4  5  2  0
  5  6  1  0
  6  7  2  0
  7  8  1  0
  8  9  1  0
  7 10  1  0
 10 11  2  0
  2 12  1  0
 12 13  1  0
 13 14  2  3
 14 15  1  0
 15 16  1  0
 16 17  1  0
 13 18  1  0
 18 19  2  0
 19 20  1  0
 20 21  2  0
 21 22  1  0
 22 23  2  0
 23  1  1  0
 11  4  1  0
 23 18  1  0
  1 24  1  0
  5 25  1  0
  6 26  1  0
  8 27  1  0
  8 28  1  0
  9 29  1  0
  9 30  1  0
  9 31  1  0
 10 32  1  0
 11 33  1  0
 12 34  1  0
 15 35  1  0
 15 36  1  0
 16 37  1  0
 16 38  1  0
 17 39  1  0
 19 40  1  0
 20 41  1  0
 21 42  1  0
 22 43  1  0
M  END
>  <ScrubInfo>  (6) 
{"isomerGroup": 0, "isomerId": 5, "confId": 0, "nr_conformers:": 1, "nr_isomers:": 6}

$$$$
