REMARK SMILES CCc1ccc(Nc2nc(NCCO)c3ccccc3n2)cc1
REMARK SMILES IDX 8 1 9 2 10 3 15 4 16 5 17 6 18 7 19 8 20 9 21 10 7 11 6 13
REMARK SMILES IDX 3 14 4 15 23 16 5 17 22 18 2 19 1 20 11 21 12 23 13 24 14 25
REMARK H PARENT 7 12 11 22 14 26
ROOT
ATOM      1  C   UNL     1      -0.558   0.005  -0.135  1.00  0.00     0.229 A 
ATOM      2  N   UNL     1      -1.762   0.593  -0.177  1.00  0.00    -0.195 NA
ATOM      3  C   UNL     1      -2.854  -0.175  -0.027  1.00  0.00     0.139 A 
ATOM      4  C   UNL     1      -2.764  -1.557   0.203  1.00  0.00     0.043 A 
ATOM      5  C   UNL     1      -3.864  -2.429   0.416  1.00  0.00     0.014 A 
ATOM      6  C   UNL     1      -3.665  -3.792   0.627  1.00  0.00     0.001 A 
ATOM      7  C   UNL     1      -2.373  -4.297   0.631  1.00  0.00     0.002 A 
ATOM      8  C   UNL     1      -1.292  -3.434   0.432  1.00  0.00     0.029 A 
ATOM      9  C   UNL     1      -1.466  -2.070   0.222  1.00  0.00     0.078 A 
ATOM     10  N   UNL     1      -0.385  -1.306   0.050  1.00  0.00    -0.213 NA
ENDROOT
BRANCH   1  11
ATOM     11  N   UNL     1       0.516   0.874  -0.310  1.00  0.00    -0.324 N 
ATOM     12  H   UNL     1       0.161   1.810  -0.432  1.00  0.00     0.170 HD
BRANCH  11  13
ATOM     13  C   UNL     1       1.905   0.715  -0.336  1.00  0.00     0.041 A 
ATOM     14  C   UNL     1       4.739   0.533  -0.424  1.00  0.00    -0.048 A 
ATOM     15  C   UNL     1       4.101   1.765  -0.590  1.00  0.00     0.006 A 
ATOM     16  C   UNL     1       3.954  -0.602  -0.206  1.00  0.00     0.006 A 
ATOM     17  C   UNL     1       2.705   1.850  -0.549  1.00  0.00     0.026 A 
ATOM     18  C   UNL     1       2.557  -0.509  -0.166  1.00  0.00     0.026 A 
BRANCH  14  19
ATOM     19  C   UNL     1       6.242   0.435  -0.449  1.00  0.00     0.032 C 
ATOM     20  C   UNL     1       6.844   0.619   0.936  1.00  0.00     0.009 C 
ENDBRANCH  14  19
ENDBRANCH  11  13
ENDBRANCH   1  11
BRANCH   3  21
ATOM     21  N   UNL     1      -4.132   0.434  -0.079  1.00  0.00    -0.367 N 
ATOM     22  H   UNL     1      -4.682  -0.062  -0.777  1.00  0.00     0.162 HD
BRANCH  21  23
ATOM     23  C   UNL     1      -4.112   1.873  -0.339  1.00  0.00     0.142 C 
BRANCH  23  24
ATOM     24  C   UNL     1      -5.534   2.442  -0.274  1.00  0.00     0.177 C 
BRANCH  24  25
ATOM     25  O   UNL     1      -5.537   3.847  -0.509  1.00  0.00    -0.395 OA
ATOM     26  H   UNL     1      -5.069   4.266   0.234  1.00  0.00     0.210 HD
ENDBRANCH  24  25
ENDBRANCH  23  24
ENDBRANCH  21  23
ENDBRANCH   3  21
TORSDOF 7
