REMARK SMILES CC(C)CCNc1nc(Nc2cccc(F)c2)c2cnn(C)c2n1
REMARK SMILES IDX 6 1 5 3 4 4 2 5 1 6 3 7 7 8 8 9 24 10 9 11 23 12 18 13 21 14
REMARK SMILES IDX 19 15 20 16 22 17 10 18 11 20 12 21 17 22 13 23 15 24 14 25
REMARK SMILES IDX 16 26
REMARK H PARENT 6 2 10 19
ROOT
ATOM      1  N   UNL     1      -2.130  -1.111   0.809  1.00  0.00    -0.354 N 
ATOM      2  H   UNL     1      -2.295  -1.905   1.419  1.00  0.00     0.163 HD
ENDROOT
BRANCH   1   3
ATOM      3  C   UNL     1      -2.607   0.164   1.315  1.00  0.00     0.116 C 
BRANCH   3   4
ATOM      4  C   UNL     1      -3.165   1.054   0.198  1.00  0.00     0.024 C 
BRANCH   4   5
ATOM      5  C   UNL     1      -4.309   0.430  -0.628  1.00  0.00    -0.016 C 
ATOM      6  C   UNL     1      -4.720   1.391  -1.748  1.00  0.00     0.007 C 
ATOM      7  C   UNL     1      -5.528   0.084   0.228  1.00  0.00     0.007 C 
ENDBRANCH   4   5
ENDBRANCH   3   4
ENDBRANCH   1   3
BRANCH   1   8
ATOM      8  C   UNL     1      -0.788  -1.177   0.458  1.00  0.00     0.226 A 
ATOM      9  N   UNL     1      -0.176  -0.095  -0.058  1.00  0.00    -0.195 NA
ATOM     10  N   UNL     1      -0.213  -2.366   0.680  1.00  0.00    -0.193 NA
ATOM     11  C   UNL     1       1.135  -0.146  -0.397  1.00  0.00     0.147 A 
ATOM     12  C   UNL     1       1.073  -2.403   0.302  1.00  0.00     0.165 A 
ATOM     13  C   UNL     1       1.802  -1.361  -0.236  1.00  0.00     0.082 A 
ATOM     14  N   UNL     1       1.927  -3.471   0.358  1.00  0.00    -0.250 N 
ATOM     15  C   UNL     1       3.073  -1.917  -0.491  1.00  0.00     0.149 A 
ATOM     16  N   UNL     1       3.164  -3.199  -0.119  1.00  0.00    -0.179 NA
ATOM     17  C   UNL     1       1.630  -4.795   0.843  1.00  0.00     0.176 C 
BRANCH  11  18
ATOM     18  N   UNL     1       1.691   1.018  -0.947  1.00  0.00    -0.339 N 
ATOM     19  H   UNL     1       0.941   1.701  -1.030  1.00  0.00     0.168 HD
BRANCH  18  20
ATOM     20  C   UNL     1       2.922   1.638  -0.653  1.00  0.00     0.042 A 
ATOM     21  C   UNL     1       3.394   2.624  -1.534  1.00  0.00     0.026 A 
ATOM     22  C   UNL     1       3.688   1.336   0.477  1.00  0.00     0.065 A 
ATOM     23  C   UNL     1       4.606   3.283  -1.304  1.00  0.00     0.005 A 
ATOM     24  C   UNL     1       4.893   1.997   0.701  1.00  0.00     0.125 A 
ATOM     25  C   UNL     1       5.361   2.965  -0.179  1.00  0.00     0.039 A 
ATOM     26  F   UNL     1       5.612   1.699   1.791  1.00  0.00    -0.207 F 
ENDBRANCH  18  20
ENDBRANCH  11  18
ENDBRANCH   1   8
TORSDOF 6
