_i0
     RDKit          3D

 45 47  0  0  0  0  0  0  0  0999 V2000
   -4.7198    1.3912   -1.7476 C   0  0  0  0  0  0  0  0  0  0  0  0
   -4.3088    0.4303   -0.6284 C   0  0  0  0  0  0  0  0  0  0  0  0
   -5.5277    0.0841    0.2275 C   0  0  0  0  0  0  0  0  0  0  0  0
   -3.1650    1.0536    0.1975 C   0  0  0  0  0  0  0  0  0  0  0  0
   -2.6071    0.1643    1.3147 C   0  0  0  0  0  0  0  0  0  0  0  0
   -2.1304   -1.1111    0.8087 N   0  0  0  0  0  0  0  0  0  0  0  0
   -0.7884   -1.1774    0.4579 C   0  0  0  0  0  0  0  0  0  0  0  0
   -0.1761   -0.0946   -0.0580 N   0  0  0  0  0  0  0  0  0  0  0  0
    1.1355   -0.1459   -0.3973 C   0  0  0  0  0  0  0  0  0  0  0  0
    1.6912    1.0179   -0.9469 N   0  0  0  0  0  0  0  0  0  0  0  0
    2.9219    1.6382   -0.6529 C   0  0  0  0  0  0  0  0  0  0  0  0
    3.3942    2.6244   -1.5345 C   0  0  0  0  0  0  0  0  0  0  0  0
    4.6062    3.2825   -1.3037 C   0  0  0  0  0  0  0  0  0  0  0  0
    5.3606    2.9648   -0.1788 C   0  0  0  0  0  0  0  0  0  0  0  0
    4.8932    1.9973    0.7013 C   0  0  0  0  0  0  0  0  0  0  0  0
    5.6125    1.6987    1.7913 F   0  0  0  0  0  0  0  0  0  0  0  0
    3.6878    1.3363    0.4767 C   0  0  0  0  0  0  0  0  0  0  0  0
    1.8021   -1.3614   -0.2362 C   0  0  0  0  0  0  0  0  0  0  0  0
    3.0728   -1.9168   -0.4909 C   0  0  0  0  0  0  0  0  0  0  0  0
    3.1643   -3.1991   -0.1187 N   0  0  0  0  0  0  0  0  0  0  0  0
    1.9272   -3.4706    0.3582 N   0  0  0  0  0  0  0  0  0  0  0  0
    1.6301   -4.7946    0.8433 C   0  0  0  0  0  0  0  0  0  0  0  0
    1.0732   -2.4031    0.3021 C   0  0  0  0  0  0  0  0  0  0  0  0
   -0.2134   -2.3664    0.6801 N   0  0  0  0  0  0  0  0  0  0  0  0
   -5.5045    0.9497   -2.3712 H   0  0  0  0  0  0  0  0  0  0  0  0
   -3.8681    1.6192   -2.3972 H   0  0  0  0  0  0  0  0  0  0  0  0
   -5.1001    2.3350   -1.3420 H   0  0  0  0  0  0  0  0  0  0  0  0
   -3.9489   -0.4915   -1.1018 H   0  0  0  0  0  0  0  0  0  0  0  0
   -6.3480   -0.2863   -0.3969 H   0  0  0  0  0  0  0  0  0  0  0  0
   -5.8900    0.9605    0.7754 H   0  0  0  0  0  0  0  0  0  0  0  0
   -5.2952   -0.7009    0.9532 H   0  0  0  0  0  0  0  0  0  0  0  0
   -3.5158    1.9899    0.6509 H   0  0  0  0  0  0  0  0  0  0  0  0
   -2.3526    1.3328   -0.4844 H   0  0  0  0  0  0  0  0  0  0  0  0
   -1.8240    0.6996    1.8675 H   0  0  0  0  0  0  0  0  0  0  0  0
   -3.3973   -0.0310    2.0484 H   0  0  0  0  0  0  0  0  0  0  0  0
   -2.2948   -1.9046    1.4188 H   0  0  0  0  0  0  0  0  0  0  0  0
    0.9408    1.7007   -1.0297 H   0  0  0  0  0  0  0  0  0  0  0  0
    2.8189    2.8761   -2.4235 H   0  0  0  0  0  0  0  0  0  0  0  0
    4.9578    4.0373   -2.0023 H   0  0  0  0  0  0  0  0  0  0  0  0
    6.3036    3.4636    0.0200 H   0  0  0  0  0  0  0  0  0  0  0  0
    3.3608    0.6088    1.2117 H   0  0  0  0  0  0  0  0  0  0  0  0
    3.9371   -1.4375   -0.9330 H   0  0  0  0  0  0  0  0  0  0  0  0
    2.3340   -5.0338    1.6446 H   0  0  0  0  0  0  0  0  0  0  0  0
    1.7422   -5.4973    0.0138 H   0  0  0  0  0  0  0  0  0  0  0  0
    0.6081   -4.8327    1.2268 H   0  0  0  0  0  0  0  0  0  0  0  0
  1  2  1  0
  2  3  1  0
  2  4  1  0
  4  5  1  0
  5  6  1  0
  6  7  1  0
  7  8  2  0
  8  9  1  0
  9 10  1  0
 10 11  1  0
 11 12  2  0
 12 13  1  0
 13 14  2  0
 14 15  1  0
 15 16  1  0
 15 17  2  0
  9 18  2  0
 18 19  1  0
 19 20  2  0
 20 21  1  0
 21 22  1  0
 21 23  1  0
 23 24  2  0
 24  7  1  0
 17 11  1  0
 23 18  1  0
  1 25  1  0
  1 26  1  0
  1 27  1  0
  2 28  1  0
  3 29  1  0
  3 30  1  0
  3 31  1  0
  4 32  1  0
  4 33  1  0
  5 34  1  0
  5 35  1  0
  6 36  1  0
 10 37  1  0
 12 38  1  0
 13 39  1  0
 14 40  1  0
 17 41  1  0
 19 42  1  0
 22 43  1  0
 22 44  1  0
 22 45  1  0
M  END
>  <ScrubInfo>  (1) 
{"isomerGroup": 0, "isomerId": 0, "confId": 0, "nr_conformers:": 1, "nr_isomers:": 9}

$$$$
_i1
     RDKit          3D

 45 47  0  0  0  0  0  0  0  0999 V2000
    1.1397   -0.3611   -0.1724 N   0  0  0  0  0  0  0  0  0  0  0  0
    2.1070    0.6214   -0.0846 C   0  0  0  0  0  0  0  0  0  0  0  0
    3.4085    0.4363   -0.5149 N   0  0  0  0  0  0  0  0  0  0  0  0
    4.1760   -0.7456   -0.5323 C   0  0  0  0  0  0  0  0  0  0  0  0
    5.3079   -0.7909   -1.3652 C   0  0  0  0  0  0  0  0  0  0  0  0
    6.0917   -1.9453   -1.4663 C   0  0  0  0  0  0  0  0  0  0  0  0
    5.7487   -3.0786   -0.7370 C   0  0  0  0  0  0  0  0  0  0  0  0
    4.6278   -3.0443    0.0813 C   0  0  0  0  0  0  0  0  0  0  0  0
    4.2983   -4.1329    0.7890 F   0  0  0  0  0  0  0  0  0  0  0  0
    3.8412   -1.8989    0.1843 C   0  0  0  0  0  0  0  0  0  0  0  0
    1.6720    1.7882    0.4086 C   0  0  0  0  0  0  0  0  0  0  0  0
    2.2266    3.1056    0.7396 C   0  0  0  0  0  0  0  0  0  0  0  0
    1.3464    3.9177    1.2674 N   0  0  0  0  0  0  0  0  0  0  0  0
    0.1385    3.2023    1.2753 N   0  0  0  0  0  0  0  0  0  0  0  0
   -0.9686    3.7010    2.0542 C   0  0  0  0  0  0  0  0  0  0  0  0
    0.2534    1.8998    0.8172 C   0  0  0  0  0  0  0  0  0  0  0  0
   -0.6273    0.9613    0.7426 N   0  0  0  0  0  0  0  0  0  0  0  0
   -0.1731   -0.2171    0.1934 C   0  0  0  0  0  0  0  0  0  0  0  0
   -0.9794   -1.2055   -0.0072 N   0  0  0  0  0  0  0  0  0  0  0  0
   -2.3825   -1.0610    0.3871 C   0  0  0  0  0  0  0  0  0  0  0  0
   -3.1941   -0.5181   -0.7906 C   0  0  0  0  0  0  0  0  0  0  0  0
   -4.6651   -0.2311   -0.4402 C   0  0  0  0  0  0  0  0  0  0  0  0
   -5.3613    0.4365   -1.6286 C   0  0  0  0  0  0  0  0  0  0  0  0
   -5.4270   -1.4947   -0.0386 C   0  0  0  0  0  0  0  0  0  0  0  0
    1.3727   -1.2058   -0.6734 H   0  0  0  0  0  0  0  0  0  0  0  0
    3.9738    1.2758   -0.5921 H   0  0  0  0  0  0  0  0  0  0  0  0
    5.5836    0.0776   -1.9599 H   0  0  0  0  0  0  0  0  0  0  0  0
    6.9618   -1.9585   -2.1177 H   0  0  0  0  0  0  0  0  0  0  0  0
    6.3422   -3.9850   -0.8004 H   0  0  0  0  0  0  0  0  0  0  0  0
    2.9941   -1.9263    0.8618 H   0  0  0  0  0  0  0  0  0  0  0  0
    3.2856    3.3361    0.5685 H   0  0  0  0  0  0  0  0  0  0  0  0
   -0.9939    4.7954    2.0364 H   0  0  0  0  0  0  0  0  0  0  0  0
   -1.9215    3.3390    1.6548 H   0  0  0  0  0  0  0  0  0  0  0  0
   -0.8799    3.3735    3.0947 H   0  0  0  0  0  0  0  0  0  0  0  0
   -2.5119   -0.4401    1.2814 H   0  0  0  0  0  0  0  0  0  0  0  0
   -2.7443   -2.0580    0.6606 H   0  0  0  0  0  0  0  0  0  0  0  0
   -3.1387   -1.2279   -1.6264 H   0  0  0  0  0  0  0  0  0  0  0  0
   -2.7292    0.4094   -1.1491 H   0  0  0  0  0  0  0  0  0  0  0  0
   -4.6949    0.4705    0.4032 H   0  0  0  0  0  0  0  0  0  0  0  0
   -6.3997    0.6834   -1.3833 H   0  0  0  0  0  0  0  0  0  0  0  0
   -4.8547    1.3675   -1.9040 H   0  0  0  0  0  0  0  0  0  0  0  0
   -5.3668   -0.2194   -2.5059 H   0  0  0  0  0  0  0  0  0  0  0  0
   -5.0269   -1.9248    0.8846 H   0  0  0  0  0  0  0  0  0  0  0  0
   -6.4840   -1.2701    0.1410 H   0  0  0  0  0  0  0  0  0  0  0  0
   -5.3725   -2.2573   -0.8228 H   0  0  0  0  0  0  0  0  0  0  0  0
  1  2  1  0
  2  3  1  0
  3  4  1  0
  4  5  2  0
  5  6  1  0
  6  7  2  0
  7  8  1  0
  8  9  1  0
  8 10  2  0
  2 11  2  0
 11 12  1  0
 12 13  2  0
 13 14  1  0
 14 15  1  0
 14 16  1  0
 16 17  2  0
 17 18  1  0
 18 19  2  3
 19 20  1  0
 20 21  1  0
 21 22  1  0
 22 23  1  0
 22 24  1  0
 18  1  1  0
 10  4  1  0
 16 11  1  0
  1 25  1  0
  3 26  1  0
  5 27  1  0
  6 28  1  0
  7 29  1  0
 10 30  1  0
 12 31  1  0
 15 32  1  0
 15 33  1  0
 15 34  1  0
 20 35  1  0
 20 36  1  0
 21 37  1  0
 21 38  1  0
 22 39  1  0
 23 40  1  0
 23 41  1  0
 23 42  1  0
 24 43  1  0
 24 44  1  0
 24 45  1  0
M  END
>  <ScrubInfo>  (2) 
{"isomerGroup": 0, "isomerId": 1, "confId": 0, "nr_conformers:": 1, "nr_isomers:": 9}

$$$$
_i2
     RDKit          3D

 45 47  0  0  0  0  0  0  0  0999 V2000
    0.5805    0.8782   -0.7476 N   0  0  0  0  0  0  0  0  0  0  0  0
   -0.4667    0.1665   -0.2126 C   0  0  0  0  0  0  0  0  0  0  0  0
   -1.6882    0.6736   -0.5710 N   0  0  0  0  0  0  0  0  0  0  0  0
   -2.9118    0.1116   -0.0113 C   0  0  0  0  0  0  0  0  0  0  0  0
   -4.1239    0.7471   -0.6956 C   0  0  0  0  0  0  0  0  0  0  0  0
   -5.4643    0.1147   -0.2797 C   0  0  0  0  0  0  0  0  0  0  0  0
   -5.7607    0.3019    1.2089 C   0  0  0  0  0  0  0  0  0  0  0  0
   -6.6011    0.7127   -1.1121 C   0  0  0  0  0  0  0  0  0  0  0  0
   -0.3139   -0.8865    0.5475 N   0  0  0  0  0  0  0  0  0  0  0  0
    1.0017   -1.1743    0.7557 C   0  0  0  0  0  0  0  0  0  0  0  0
    2.1186   -0.5202    0.2582 C   0  0  0  0  0  0  0  0  0  0  0  0
    3.2054   -1.2295    0.7988 C   0  0  0  0  0  0  0  0  0  0  0  0
    2.8238   -2.2539    1.5722 N   0  0  0  0  0  0  0  0  0  0  0  0
    1.4732   -2.1995    1.5262 N   0  0  0  0  0  0  0  0  0  0  0  0
    0.7020   -3.1715    2.2591 C   0  0  0  0  0  0  0  0  0  0  0  0
    1.9258    0.6218   -0.6132 C   0  0  0  0  0  0  0  0  0  0  0  0
    2.8175    1.3416   -1.2240 N   0  0  0  0  0  0  0  0  0  0  0  0
    4.1850    1.0864   -1.1107 C   0  0  0  0  0  0  0  0  0  0  0  0
    4.8146    0.2034   -1.9965 C   0  0  0  0  0  0  0  0  0  0  0  0
    6.1902   -0.0271   -1.9126 C   0  0  0  0  0  0  0  0  0  0  0  0
    6.9449    0.6417   -0.9510 C   0  0  0  0  0  0  0  0  0  0  0  0
    6.3189    1.5374   -0.0905 C   0  0  0  0  0  0  0  0  0  0  0  0
    7.0487    2.1885    0.8249 F   0  0  0  0  0  0  0  0  0  0  0  0
    4.9504    1.7700   -0.1656 C   0  0  0  0  0  0  0  0  0  0  0  0
    0.3661    1.5801   -1.4363 H   0  0  0  0  0  0  0  0  0  0  0  0
   -1.7141    1.6848   -0.6281 H   0  0  0  0  0  0  0  0  0  0  0  0
   -2.9336    0.3046    1.0664 H   0  0  0  0  0  0  0  0  0  0  0  0
   -2.9300   -0.9731   -0.1689 H   0  0  0  0  0  0  0  0  0  0  0  0
   -4.1385    1.8249   -0.4863 H   0  0  0  0  0  0  0  0  0  0  0  0
   -4.0062    0.6489   -1.7832 H   0  0  0  0  0  0  0  0  0  0  0  0
   -5.4255   -0.9618   -0.4891 H   0  0  0  0  0  0  0  0  0  0  0  0
   -5.0301   -0.2249    1.8300 H   0  0  0  0  0  0  0  0  0  0  0  0
   -6.7484   -0.0989    1.4614 H   0  0  0  0  0  0  0  0  0  0  0  0
   -5.7452    1.3613    1.4867 H   0  0  0  0  0  0  0  0  0  0  0  0
   -6.6937    1.7909   -0.9425 H   0  0  0  0  0  0  0  0  0  0  0  0
   -7.5583    0.2458   -0.8566 H   0  0  0  0  0  0  0  0  0  0  0  0
   -6.4276    0.5510   -2.1813 H   0  0  0  0  0  0  0  0  0  0  0  0
    4.2658   -1.0606    0.6759 H   0  0  0  0  0  0  0  0  0  0  0  0
    0.9107   -3.0419    3.3241 H   0  0  0  0  0  0  0  0  0  0  0  0
    1.0029   -4.1694    1.9299 H   0  0  0  0  0  0  0  0  0  0  0  0
   -0.3639   -3.0279    2.0698 H   0  0  0  0  0  0  0  0  0  0  0  0
    4.2267   -0.3074   -2.7552 H   0  0  0  0  0  0  0  0  0  0  0  0
    6.6690   -0.7209   -2.5987 H   0  0  0  0  0  0  0  0  0  0  0  0
    8.0150    0.4782   -0.8711 H   0  0  0  0  0  0  0  0  0  0  0  0
    4.4882    2.4817    0.5096 H   0  0  0  0  0  0  0  0  0  0  0  0
  1  2  1  0
  2  3  1  0
  3  4  1  0
  4  5  1  0
  5  6  1  0
  6  7  1  0
  6  8  1  0
  2  9  2  0
  9 10  1  0
 10 11  2  0
 11 12  1  0
 12 13  2  0
 13 14  1  0
 14 15  1  0
 11 16  1  0
 16 17  2  3
 17 18  1  0
 18 19  2  0
 19 20  1  0
 20 21  2  0
 21 22  1  0
 22 23  1  0
 22 24  2  0
 16  1  1  0
 24 18  1  0
 14 10  1  0
  1 25  1  0
  3 26  1  0
  4 27  1  0
  4 28  1  0
  5 29  1  0
  5 30  1  0
  6 31  1  0
  7 32  1  0
  7 33  1  0
  7 34  1  0
  8 35  1  0
  8 36  1  0
  8 37  1  0
 12 38  1  0
 15 39  1  0
 15 40  1  0
 15 41  1  0
 19 42  1  0
 20 43  1  0
 21 44  1  0
 24 45  1  0
M  END
>  <ScrubInfo>  (3) 
{"isomerGroup": 0, "isomerId": 2, "confId": 0, "nr_conformers:": 1, "nr_isomers:": 9}

$$$$
_i3
     RDKit          3D

 45 47  0  0  0  0  0  0  0  0999 V2000
    0.1491    2.4317    0.1683 N   0  0  0  0  0  0  0  0  0  0  0  0
    0.6729    1.1729    0.3716 C   0  0  0  0  0  0  0  0  0  0  0  0
    1.9601    1.0448    0.3730 N   0  0  0  0  0  0  0  0  0  0  0  0
    2.4947   -0.3012    0.5907 C   0  0  0  0  0  0  0  0  0  0  0  0
    4.0225   -0.2120    0.5624 C   0  0  0  0  0  0  0  0  0  0  0  0
    4.7228   -1.5358    0.9178 C   0  0  0  0  0  0  0  0  0  0  0  0
    4.4170   -2.6466   -0.0878 C   0  0  0  0  0  0  0  0  0  0  0  0
    6.2353   -1.3167    1.0015 C   0  0  0  0  0  0  0  0  0  0  0  0
   -0.1404    0.0653    0.5701 N   0  0  0  0  0  0  0  0  0  0  0  0
   -1.4358    0.2190    0.5466 C   0  0  0  0  0  0  0  0  0  0  0  0
   -2.3110   -0.8171    0.7531 N   0  0  0  0  0  0  0  0  0  0  0  0
   -3.2613   -1.2645   -0.2027 C   0  0  0  0  0  0  0  0  0  0  0  0
   -3.2524   -0.8616   -1.5468 C   0  0  0  0  0  0  0  0  0  0  0  0
   -4.2074   -1.3462   -2.4474 C   0  0  0  0  0  0  0  0  0  0  0  0
   -5.1776   -2.2464   -2.0156 C   0  0  0  0  0  0  0  0  0  0  0  0
   -5.1816   -2.6566   -0.6892 C   0  0  0  0  0  0  0  0  0  0  0  0
   -6.1106   -3.5261   -0.2710 F   0  0  0  0  0  0  0  0  0  0  0  0
   -4.2360   -2.1802    0.2139 C   0  0  0  0  0  0  0  0  0  0  0  0
   -2.0248    1.5278    0.3710 C   0  0  0  0  0  0  0  0  0  0  0  0
   -3.3058    2.0998    0.3537 C   0  0  0  0  0  0  0  0  0  0  0  0
   -3.2688    3.4262    0.1463 N   0  0  0  0  0  0  0  0  0  0  0  0
   -1.9444    3.7034    0.0485 N   0  0  0  0  0  0  0  0  0  0  0  0
   -1.5251    5.0649   -0.1651 C   0  0  0  0  0  0  0  0  0  0  0  0
   -1.1823    2.5881    0.1832 C   0  0  0  0  0  0  0  0  0  0  0  0
    0.8383    3.1629    0.0547 H   0  0  0  0  0  0  0  0  0  0  0  0
    2.1735   -0.6902    1.5644 H   0  0  0  0  0  0  0  0  0  0  0  0
    2.1484   -0.9761   -0.1998 H   0  0  0  0  0  0  0  0  0  0  0  0
    4.3420    0.5622    1.2728 H   0  0  0  0  0  0  0  0  0  0  0  0
    4.3480    0.1308   -0.4286 H   0  0  0  0  0  0  0  0  0  0  0  0
    4.3760   -1.8628    1.9063 H   0  0  0  0  0  0  0  0  0  0  0  0
    3.3561   -2.9139   -0.0761 H   0  0  0  0  0  0  0  0  0  0  0  0
    4.9814   -3.5541    0.1527 H   0  0  0  0  0  0  0  0  0  0  0  0
    4.6823   -2.3441   -1.1065 H   0  0  0  0  0  0  0  0  0  0  0  0
    6.4776   -0.5533    1.7485 H   0  0  0  0  0  0  0  0  0  0  0  0
    6.7472   -2.2402    1.2922 H   0  0  0  0  0  0  0  0  0  0  0  0
    6.6439   -0.9912    0.0386 H   0  0  0  0  0  0  0  0  0  0  0  0
   -1.7905   -1.6324    1.0723 H   0  0  0  0  0  0  0  0  0  0  0  0
   -2.4969   -0.1744   -1.9218 H   0  0  0  0  0  0  0  0  0  0  0  0
   -4.1884   -1.0219   -3.4852 H   0  0  0  0  0  0  0  0  0  0  0  0
   -5.9252   -2.6316   -2.7016 H   0  0  0  0  0  0  0  0  0  0  0  0
   -4.2790   -2.5207    1.2441 H   0  0  0  0  0  0  0  0  0  0  0  0
   -4.2663    1.6170    0.4799 H   0  0  0  0  0  0  0  0  0  0  0  0
   -1.9938    5.4305   -1.0822 H   0  0  0  0  0  0  0  0  0  0  0  0
   -0.4384    5.1089   -0.2634 H   0  0  0  0  0  0  0  0  0  0  0  0
   -1.8452    5.6618    0.6925 H   0  0  0  0  0  0  0  0  0  0  0  0
  1  2  1  0
  2  3  2  3
  3  4  1  0
  4  5  1  0
  5  6  1  0
  6  7  1  0
  6  8  1  0
  2  9  1  0
  9 10  2  0
 10 11  1  0
 11 12  1  0
 12 13  2  0
 13 14  1  0
 14 15  2  0
 15 16  1  0
 16 17  1  0
 16 18  2  0
 10 19  1  0
 19 20  1  0
 20 21  2  0
 21 22  1  0
 22 23  1  0
 22 24  1  0
 24  1  1  0
 18 12  1  0
 24 19  2  0
  1 25  1  0
  4 26  1  0
  4 27  1  0
  5 28  1  0
  5 29  1  0
  6 30  1  0
  7 31  1  0
  7 32  1  0
  7 33  1  0
  8 34  1  0
  8 35  1  0
  8 36  1  0
 11 37  1  0
 13 38  1  0
 14 39  1  0
 15 40  1  0
 18 41  1  0
 20 42  1  0
 23 43  1  0
 23 44  1  0
 23 45  1  0
M  END
>  <ScrubInfo>  (4) 
{"isomerGroup": 0, "isomerId": 3, "confId": 0, "nr_conformers:": 1, "nr_isomers:": 9}

$$$$
_i4
     RDKit          3D

 45 47  0  0  0  0  0  0  0  0999 V2000
    1.5869    4.3309   -2.3385 N   0  0  0  0  0  0  0  0  0  0  0  0
    2.4246    3.4222   -1.6993 C   0  0  0  0  0  0  0  0  0  0  0  0
    1.7933    2.2963   -1.3430 C   0  0  0  0  0  0  0  0  0  0  0  0
    2.1131    1.0699   -0.6513 C   0  0  0  0  0  0  0  0  0  0  0  0
    3.3088    0.8054   -0.2239 N   0  0  0  0  0  0  0  0  0  0  0  0
    3.5221   -0.4089    0.4441 C   0  0  0  0  0  0  0  0  0  0  0  0
    3.9615   -1.5334   -0.2647 C   0  0  0  0  0  0  0  0  0  0  0  0
    4.2000   -2.7426    0.3938 C   0  0  0  0  0  0  0  0  0  0  0  0
    4.0083   -2.8273    1.7711 C   0  0  0  0  0  0  0  0  0  0  0  0
    3.5858   -1.7033    2.4736 C   0  0  0  0  0  0  0  0  0  0  0  0
    3.4069   -1.7868    3.7990 F   0  0  0  0  0  0  0  0  0  0  0  0
    3.3483   -0.4968    1.8259 C   0  0  0  0  0  0  0  0  0  0  0  0
    1.0497    0.2258   -0.4806 N   0  0  0  0  0  0  0  0  0  0  0  0
   -0.1393    0.4944   -0.9313 C   0  0  0  0  0  0  0  0  0  0  0  0
   -1.1676   -0.3791   -0.7300 N   0  0  0  0  0  0  0  0  0  0  0  0
   -1.1159   -1.4283    0.2660 C   0  0  0  0  0  0  0  0  0  0  0  0
   -2.4148   -2.2396    0.2815 C   0  0  0  0  0  0  0  0  0  0  0  0
   -3.4917   -1.7080    1.2502 C   0  0  0  0  0  0  0  0  0  0  0  0
   -3.9680   -0.2959    0.9130 C   0  0  0  0  0  0  0  0  0  0  0  0
   -4.6878   -2.6644    1.2651 C   0  0  0  0  0  0  0  0  0  0  0  0
   -0.4934    1.6244   -1.6239 N   0  0  0  0  0  0  0  0  0  0  0  0
    0.4297    2.4936   -1.8489 C   0  0  0  0  0  0  0  0  0  0  0  0
    0.3575    3.7055   -2.5387 N   0  0  0  0  0  0  0  0  0  0  0  0
   -0.8512    4.5059   -2.5172 C   0  0  0  0  0  0  0  0  0  0  0  0
    2.0130    4.7583   -3.1642 H   0  0  0  0  0  0  0  0  0  0  0  0
    3.4654    3.6687   -1.5426 H   0  0  0  0  0  0  0  0  0  0  0  0
    4.1115   -1.4618   -1.3386 H   0  0  0  0  0  0  0  0  0  0  0  0
    4.5341   -3.6105   -0.1677 H   0  0  0  0  0  0  0  0  0  0  0  0
    4.1879   -3.7566    2.3016 H   0  0  0  0  0  0  0  0  0  0  0  0
    3.0239    0.3669    2.3946 H   0  0  0  0  0  0  0  0  0  0  0  0
   -2.0689    0.0305   -0.9333 H   0  0  0  0  0  0  0  0  0  0  0  0
   -0.2907   -2.1054    0.0146 H   0  0  0  0  0  0  0  0  0  0  0  0
   -0.9090   -1.0107    1.2580 H   0  0  0  0  0  0  0  0  0  0  0  0
   -2.1604   -3.2591    0.6010 H   0  0  0  0  0  0  0  0  0  0  0  0
   -2.8263   -2.3260   -0.7324 H   0  0  0  0  0  0  0  0  0  0  0  0
   -3.0684   -1.6899    2.2628 H   0  0  0  0  0  0  0  0  0  0  0  0
   -3.1652    0.4357    1.0445 H   0  0  0  0  0  0  0  0  0  0  0  0
   -4.7870    0.0061    1.5751 H   0  0  0  0  0  0  0  0  0  0  0  0
   -4.3298   -0.2336   -0.1187 H   0  0  0  0  0  0  0  0  0  0  0  0
   -4.3761   -3.6743    1.5518 H   0  0  0  0  0  0  0  0  0  0  0  0
   -5.1622   -2.7222    0.2795 H   0  0  0  0  0  0  0  0  0  0  0  0
   -5.4428   -2.3332    1.9860 H   0  0  0  0  0  0  0  0  0  0  0  0
   -0.7496    5.3671   -3.1855 H   0  0  0  0  0  0  0  0  0  0  0  0
   -1.0575    4.8724   -1.5061 H   0  0  0  0  0  0  0  0  0  0  0  0
   -1.7090    3.9176   -2.8585 H   0  0  0  0  0  0  0  0  0  0  0  0
  1  2  1  0
  2  3  2  0
  3  4  1  0
  4  5  2  3
  5  6  1  0
  6  7  2  0
  7  8  1  0
  8  9  2  0
  9 10  1  0
 10 11  1  0
 10 12  2  0
  4 13  1  0
 13 14  2  0
 14 15  1  0
 15 16  1  0
 16 17  1  0
 17 18  1  0
 18 19  1  0
 18 20  1  0
 14 21  1  0
 21 22  2  0
 22 23  1  0
 23 24  1  0
 23  1  1  0
 22  3  1  0
 12  6  1  0
  1 25  1  0
  2 26  1  0
  7 27  1  0
  8 28  1  0
  9 29  1  0
 12 30  1  0
 15 31  1  0
 16 32  1  0
 16 33  1  0
 17 34  1  0
 17 35  1  0
 18 36  1  0
 19 37  1  0
 19 38  1  0
 19 39  1  0
 20 40  1  0
 20 41  1  0
 20 42  1  0
 24 43  1  0
 24 44  1  0
 24 45  1  0
M  END
>  <ScrubInfo>  (5) 
{"isomerGroup": 0, "isomerId": 4, "confId": 0, "nr_conformers:": 1, "nr_isomers:": 9}

$$$$
_i5
     RDKit          3D

 45 47  0  0  0  0  0  0  0  0999 V2000
    0.2221   -2.0416   -0.1124 N   0  0  0  0  0  0  0  0  0  0  0  0
   -0.4698   -0.8527   -0.1219 C   0  0  0  0  0  0  0  0  0  0  0  0
   -1.8243   -1.0581   -0.1353 N   0  0  0  0  0  0  0  0  0  0  0  0
   -2.7351    0.0806   -0.0636 C   0  0  0  0  0  0  0  0  0  0  0  0
   -4.1741   -0.4079   -0.2434 C   0  0  0  0  0  0  0  0  0  0  0  0
   -5.2028    0.7339   -0.3313 C   0  0  0  0  0  0  0  0  0  0  0  0
   -5.2685    1.5599    0.9541 C   0  0  0  0  0  0  0  0  0  0  0  0
   -6.5866    0.1627   -0.6499 C   0  0  0  0  0  0  0  0  0  0  0  0
    0.0744    0.3291   -0.1248 N   0  0  0  0  0  0  0  0  0  0  0  0
    1.4562    0.4645   -0.1057 C   0  0  0  0  0  0  0  0  0  0  0  0
    1.9053    1.6783   -0.0521 N   0  0  0  0  0  0  0  0  0  0  0  0
    3.2657    1.9792   -0.0190 C   0  0  0  0  0  0  0  0  0  0  0  0
    3.9552    2.2454   -1.2082 C   0  0  0  0  0  0  0  0  0  0  0  0
    5.3103    2.5849   -1.1840 C   0  0  0  0  0  0  0  0  0  0  0  0
    5.9767    2.6772    0.0363 C   0  0  0  0  0  0  0  0  0  0  0  0
    5.2805    2.4393    1.2169 C   0  0  0  0  0  0  0  0  0  0  0  0
    5.9209    2.5415    2.3891 F   0  0  0  0  0  0  0  0  0  0  0  0
    3.9328    2.0992    1.2008 C   0  0  0  0  0  0  0  0  0  0  0  0
    2.2292   -0.7656   -0.1497 C   0  0  0  0  0  0  0  0  0  0  0  0
    3.5819   -1.1463   -0.2107 C   0  0  0  0  0  0  0  0  0  0  0  0
    3.7478   -2.4781   -0.2577 N   0  0  0  0  0  0  0  0  0  0  0  0
    2.4855   -2.9602   -0.2222 N   0  0  0  0  0  0  0  0  0  0  0  0
    2.2796   -4.3857   -0.2517 C   0  0  0  0  0  0  0  0  0  0  0  0
    1.5635   -1.9655   -0.1543 C   0  0  0  0  0  0  0  0  0  0  0  0
   -0.2961   -2.8779   -0.3439 H   0  0  0  0  0  0  0  0  0  0  0  0
   -2.1173   -1.8220    0.4617 H   0  0  0  0  0  0  0  0  0  0  0  0
   -2.6154    0.5746    0.9063 H   0  0  0  0  0  0  0  0  0  0  0  0
   -2.4925    0.8018   -0.8527 H   0  0  0  0  0  0  0  0  0  0  0  0
   -4.2300   -1.0089   -1.1610 H   0  0  0  0  0  0  0  0  0  0  0  0
   -4.4362   -1.0843    0.5808 H   0  0  0  0  0  0  0  0  0  0  0  0
   -4.9178    1.4016   -1.1542 H   0  0  0  0  0  0  0  0  0  0  0  0
   -6.0535    2.3211    0.8865 H   0  0  0  0  0  0  0  0  0  0  0  0
   -4.3261    2.0837    1.1398 H   0  0  0  0  0  0  0  0  0  0  0  0
   -5.4853    0.9277    1.8217 H   0  0  0  0  0  0  0  0  0  0  0  0
   -6.5695   -0.3978   -1.5906 H   0  0  0  0  0  0  0  0  0  0  0  0
   -6.9299   -0.5125    0.1414 H   0  0  0  0  0  0  0  0  0  0  0  0
   -7.3245    0.9652   -0.7547 H   0  0  0  0  0  0  0  0  0  0  0  0
    3.4267    2.1907   -2.1570 H   0  0  0  0  0  0  0  0  0  0  0  0
    5.8382    2.7844   -2.1128 H   0  0  0  0  0  0  0  0  0  0  0  0
    7.0282    2.9433    0.0770 H   0  0  0  0  0  0  0  0  0  0  0  0
    3.4072    1.9338    2.1350 H   0  0  0  0  0  0  0  0  0  0  0  0
    4.4690   -0.5287   -0.2317 H   0  0  0  0  0  0  0  0  0  0  0  0
    2.5575   -4.7509   -1.2434 H   0  0  0  0  0  0  0  0  0  0  0  0
    2.9093   -4.8444    0.5150 H   0  0  0  0  0  0  0  0  0  0  0  0
    1.2314   -4.6147   -0.0487 H   0  0  0  0  0  0  0  0  0  0  0  0
  1  2  1  0
  2  3  1  0
  3  4  1  0
  4  5  1  0
  5  6  1  0
  6  7  1  0
  6  8  1  0
  2  9  2  0
  9 10  1  0
 10 11  2  3
 11 12  1  0
 12 13  2  0
 13 14  1  0
 14 15  2  0
 15 16  1  0
 16 17  1  0
 16 18  2  0
 10 19  1  0
 19 20  1  0
 20 21  2  0
 21 22  1  0
 22 23  1  0
 22 24  1  0
 24  1  1  0
 18 12  1  0
 24 19  2  0
  1 25  1  0
  3 26  1  0
  4 27  1  0
  4 28  1  0
  5 29  1  0
  5 30  1  0
  6 31  1  0
  7 32  1  0
  7 33  1  0
  7 34  1  0
  8 35  1  0
  8 36  1  0
  8 37  1  0
 13 38  1  0
 14 39  1  0
 15 40  1  0
 18 41  1  0
 20 42  1  0
 23 43  1  0
 23 44  1  0
 23 45  1  0
M  END
>  <ScrubInfo>  (6) 
{"isomerGroup": 0, "isomerId": 5, "confId": 0, "nr_conformers:": 1, "nr_isomers:": 9}

$$$$
_i6
     RDKit          3D

 45 47  0  0  0  0  0  0  0  0999 V2000
    2.3792    2.9565   -0.8550 N   0  0  0  0  0  0  0  0  0  0  0  0
    2.8659    1.8605   -0.1513 C   0  0  0  0  0  0  0  0  0  0  0  0
    1.9123    0.9690    0.1486 C   0  0  0  0  0  0  0  0  0  0  0  0
    1.7767   -0.3003    0.8587 C   0  0  0  0  0  0  0  0  0  0  0  0
    2.8336   -0.9759    1.4315 N   0  0  0  0  0  0  0  0  0  0  0  0
    4.0364   -1.2849    0.7543 C   0  0  0  0  0  0  0  0  0  0  0  0
    4.1083   -1.4339   -0.6392 C   0  0  0  0  0  0  0  0  0  0  0  0
    5.3102   -1.7882   -1.2614 C   0  0  0  0  0  0  0  0  0  0  0  0
    6.4490   -2.0155   -0.4935 C   0  0  0  0  0  0  0  0  0  0  0  0
    6.3728   -1.8973    0.8881 C   0  0  0  0  0  0  0  0  0  0  0  0
    7.4641   -2.1274    1.6299 F   0  0  0  0  0  0  0  0  0  0  0  0
    5.1811   -1.5470    1.5153 C   0  0  0  0  0  0  0  0  0  0  0  0
    0.5830   -0.8070    0.9932 N   0  0  0  0  0  0  0  0  0  0  0  0
   -0.4935   -0.1444    0.4428 C   0  0  0  0  0  0  0  0  0  0  0  0
   -1.6229   -0.7111    0.6835 N   0  0  0  0  0  0  0  0  0  0  0  0
   -2.8257   -0.0851    0.1378 C   0  0  0  0  0  0  0  0  0  0  0  0
   -4.0314   -0.9250    0.5671 C   0  0  0  0  0  0  0  0  0  0  0  0
   -5.3846   -0.3026    0.1789 C   0  0  0  0  0  0  0  0  0  0  0  0
   -5.5601   -0.1844   -1.3357 C   0  0  0  0  0  0  0  0  0  0  0  0
   -6.5265   -1.1344    0.7679 C   0  0  0  0  0  0  0  0  0  0  0  0
   -0.4570    1.0089   -0.3101 N   0  0  0  0  0  0  0  0  0  0  0  0
    0.7006    1.5514   -0.4642 C   0  0  0  0  0  0  0  0  0  0  0  0
    1.0443    2.7101   -1.1626 N   0  0  0  0  0  0  0  0  0  0  0  0
    0.1231    3.8279   -1.2467 C   0  0  0  0  0  0  0  0  0  0  0  0
    2.9778    3.2428   -1.6331 H   0  0  0  0  0  0  0  0  0  0  0  0
    3.9188    1.8105    0.0877 H   0  0  0  0  0  0  0  0  0  0  0  0
    2.4886   -1.8089    1.9076 H   0  0  0  0  0  0  0  0  0  0  0  0
    3.2258   -1.2963   -1.2605 H   0  0  0  0  0  0  0  0  0  0  0  0
    5.3509   -1.8984   -2.3424 H   0  0  0  0  0  0  0  0  0  0  0  0
    7.3888   -2.2949   -0.9592 H   0  0  0  0  0  0  0  0  0  0  0  0
    5.1604   -1.4674    2.5981 H   0  0  0  0  0  0  0  0  0  0  0  0
   -2.7700   -0.0506   -0.9559 H   0  0  0  0  0  0  0  0  0  0  0  0
   -2.9404    0.9345    0.5252 H   0  0  0  0  0  0  0  0  0  0  0  0
   -3.9985   -1.0546    1.6572 H   0  0  0  0  0  0  0  0  0  0  0  0
   -3.9441   -1.9318    0.1379 H   0  0  0  0  0  0  0  0  0  0  0  0
   -5.4455    0.7043    0.6110 H   0  0  0  0  0  0  0  0  0  0  0  0
   -4.8327    0.5091   -1.7682 H   0  0  0  0  0  0  0  0  0  0  0  0
   -6.5568    0.1975   -1.5823 H   0  0  0  0  0  0  0  0  0  0  0  0
   -5.4400   -1.1562   -1.8263 H   0  0  0  0  0  0  0  0  0  0  0  0
   -6.4420   -1.1951    1.8582 H   0  0  0  0  0  0  0  0  0  0  0  0
   -6.5217   -2.1548    0.3697 H   0  0  0  0  0  0  0  0  0  0  0  0
   -7.4971   -0.6839    0.5346 H   0  0  0  0  0  0  0  0  0  0  0  0
    0.5267    4.6048   -1.9041 H   0  0  0  0  0  0  0  0  0  0  0  0
   -0.0506    4.2644   -0.2576 H   0  0  0  0  0  0  0  0  0  0  0  0
   -0.8373    3.5051   -1.6613 H   0  0  0  0  0  0  0  0  0  0  0  0
  1  2  1  0
  2  3  2  0
  3  4  1  0
  4  5  1  0
  5  6  1  0
  6  7  2  0
  7  8  1  0
  8  9  2  0
  9 10  1  0
 10 11  1  0
 10 12  2  0
  4 13  2  0
 13 14  1  0
 14 15  2  3
 15 16  1  0
 16 17  1  0
 17 18  1  0
 18 19  1  0
 18 20  1  0
 14 21  1  0
 21 22  2  0
 22 23  1  0
 23 24  1  0
 23  1  1  0
 22  3  1  0
 12  6  1  0
  1 25  1  0
  2 26  1  0
  5 27  1  0
  7 28  1  0
  8 29  1  0
  9 30  1  0
 12 31  1  0
 16 32  1  0
 16 33  1  0
 17 34  1  0
 17 35  1  0
 18 36  1  0
 19 37  1  0
 19 38  1  0
 19 39  1  0
 20 40  1  0
 20 41  1  0
 20 42  1  0
 24 43  1  0
 24 44  1  0
 24 45  1  0
M  END
>  <ScrubInfo>  (7) 
{"isomerGroup": 0, "isomerId": 6, "confId": 0, "nr_conformers:": 1, "nr_isomers:": 9}

$$$$
_i7
     RDKit          3D

 45 47  0  0  0  0  0  0  0  0999 V2000
    1.3420    3.9802   -0.9562 N   0  0  0  0  0  0  0  0  0  0  0  0
    2.3316    3.0317   -0.7212 C   0  0  0  0  0  0  0  0  0  0  0  0
    1.8387    1.8039   -0.5207 C   0  0  0  0  0  0  0  0  0  0  0  0
    2.3475    0.4524   -0.2747 C   0  0  0  0  0  0  0  0  0  0  0  0
    3.6290    0.2649   -0.1628 N   0  0  0  0  0  0  0  0  0  0  0  0
    4.1025   -1.0321    0.0696 C   0  0  0  0  0  0  0  0  0  0  0  0
    4.3937   -1.8799   -1.0054 C   0  0  0  0  0  0  0  0  0  0  0  0
    4.8711   -3.1736   -0.7809 C   0  0  0  0  0  0  0  0  0  0  0  0
    5.0696   -3.6192    0.5243 C   0  0  0  0  0  0  0  0  0  0  0  0
    4.7956   -2.7663    1.5882 C   0  0  0  0  0  0  0  0  0  0  0  0
    4.9941   -3.1945    2.8418 F   0  0  0  0  0  0  0  0  0  0  0  0
    4.3184   -1.4786    1.3731 C   0  0  0  0  0  0  0  0  0  0  0  0
    1.3379   -0.4734   -0.1981 N   0  0  0  0  0  0  0  0  0  0  0  0
   -0.0047   -0.2326   -0.3242 C   0  0  0  0  0  0  0  0  0  0  0  0
   -0.8098   -1.2410   -0.2464 N   0  0  0  0  0  0  0  0  0  0  0  0
   -2.2496   -1.0021   -0.3877 C   0  0  0  0  0  0  0  0  0  0  0  0
   -2.8600   -0.7166    0.9864 C   0  0  0  0  0  0  0  0  0  0  0  0
   -4.3678   -0.4045    0.9840 C   0  0  0  0  0  0  0  0  0  0  0  0
   -4.6883    0.8929    0.2408 C   0  0  0  0  0  0  0  0  0  0  0  0
   -5.2026   -1.5590    0.4309 C   0  0  0  0  0  0  0  0  0  0  0  0
   -0.5003    1.0415   -0.5164 N   0  0  0  0  0  0  0  0  0  0  0  0
    0.3585    2.0096   -0.5924 C   0  0  0  0  0  0  0  0  0  0  0  0
    0.1033    3.3731   -0.7594 N   0  0  0  0  0  0  0  0  0  0  0  0
   -1.0382    3.8309   -1.5278 C   0  0  0  0  0  0  0  0  0  0  0  0
    1.4972    4.8579   -0.4548 H   0  0  0  0  0  0  0  0  0  0  0  0
    3.3705    3.3302   -0.7154 H   0  0  0  0  0  0  0  0  0  0  0  0
    4.2511   -1.5250   -2.0233 H   0  0  0  0  0  0  0  0  0  0  0  0
    5.0932   -3.8261   -1.6214 H   0  0  0  0  0  0  0  0  0  0  0  0
    5.4430   -4.6196    0.7199 H   0  0  0  0  0  0  0  0  0  0  0  0
    4.1210   -0.8291    2.2191 H   0  0  0  0  0  0  0  0  0  0  0  0
    1.5702   -1.4429   -0.0453 H   0  0  0  0  0  0  0  0  0  0  0  0
   -2.6886   -1.9152   -0.8046 H   0  0  0  0  0  0  0  0  0  0  0  0
   -2.4696   -0.2096   -1.1107 H   0  0  0  0  0  0  0  0  0  0  0  0
   -2.6783   -1.5816    1.6382 H   0  0  0  0  0  0  0  0  0  0  0  0
   -2.3312    0.1229    1.4560 H   0  0  0  0  0  0  0  0  0  0  0  0
   -4.6628   -0.2601    2.0320 H   0  0  0  0  0  0  0  0  0  0  0  0
   -4.0807    1.7208    0.6209 H   0  0  0  0  0  0  0  0  0  0  0  0
   -4.5088    0.8026   -0.8350 H   0  0  0  0  0  0  0  0  0  0  0  0
   -5.7413    1.1623    0.3778 H   0  0  0  0  0  0  0  0  0  0  0  0
   -4.9672   -2.4938    0.9501 H   0  0  0  0  0  0  0  0  0  0  0  0
   -5.0313   -1.7086   -0.6398 H   0  0  0  0  0  0  0  0  0  0  0  0
   -6.2709   -1.3604    0.5698 H   0  0  0  0  0  0  0  0  0  0  0  0
   -0.9364    3.5488   -2.5809 H   0  0  0  0  0  0  0  0  0  0  0  0
   -1.1265    4.9204   -1.4663 H   0  0  0  0  0  0  0  0  0  0  0  0
   -1.9649    3.3983   -1.1369 H   0  0  0  0  0  0  0  0  0  0  0  0
  1  2  1  0
  2  3  2  0
  3  4  1  0
  4  5  2  3
  5  6  1  0
  6  7  2  0
  7  8  1  0
  8  9  2  0
  9 10  1  0
 10 11  1  0
 10 12  2  0
  4 13  1  0
 13 14  1  0
 14 15  2  3
 15 16  1  0
 16 17  1  0
 17 18  1  0
 18 19  1  0
 18 20  1  0
 14 21  1  0
 21 22  2  0
 22 23  1  0
 23 24  1  0
 23  1  1  0
 22  3  1  0
 12  6  1  0
  1 25  1  0
  2 26  1  0
  7 27  1  0
  8 28  1  0
  9 29  1  0
 12 30  1  0
 13 31  1  0
 16 32  1  0
 16 33  1  0
 17 34  1  0
 17 35  1  0
 18 36  1  0
 19 37  1  0
 19 38  1  0
 19 39  1  0
 20 40  1  0
 20 41  1  0
 20 42  1  0
 24 43  1  0
 24 44  1  0
 24 45  1  0
M  END
>  <ScrubInfo>  (8) 
{"isomerGroup": 0, "isomerId": 7, "confId": 0, "nr_conformers:": 1, "nr_isomers:": 9}

$$$$
_i8
     RDKit          3D

 45 47  0  0  0  0  0  0  0  0999 V2000
   -0.0708    2.9228   -0.9695 N   0  0  0  0  0  0  0  0  0  0  0  0
   -0.4000    1.5803   -0.9404 C   0  0  0  0  0  0  0  0  0  0  0  0
   -1.5631    1.2242   -1.3719 N   0  0  0  0  0  0  0  0  0  0  0  0
   -1.9308   -0.1919   -1.3759 C   0  0  0  0  0  0  0  0  0  0  0  0
   -2.4398   -0.6137    0.0041 C   0  0  0  0  0  0  0  0  0  0  0  0
   -2.6341   -2.1347    0.1388 C   0  0  0  0  0  0  0  0  0  0  0  0
   -3.7117   -2.6686   -0.8054 C   0  0  0  0  0  0  0  0  0  0  0  0
   -2.9881   -2.4889    1.5849 C   0  0  0  0  0  0  0  0  0  0  0  0
    0.6020    0.7763   -0.4222 N   0  0  0  0  0  0  0  0  0  0  0  0
    1.8462    1.1038    0.0874 C   0  0  0  0  0  0  0  0  0  0  0  0
    2.7645    0.3572    0.6086 N   0  0  0  0  0  0  0  0  0  0  0  0
    2.5110   -1.0165    0.7101 C   0  0  0  0  0  0  0  0  0  0  0  0
    2.9618   -1.8877   -0.2874 C   0  0  0  0  0  0  0  0  0  0  0  0
    2.6947   -3.2568   -0.2085 C   0  0  0  0  0  0  0  0  0  0  0  0
    1.9801   -3.7600    0.8769 C   0  0  0  0  0  0  0  0  0  0  0  0
    1.5499   -2.8924    1.8750 C   0  0  0  0  0  0  0  0  0  0  0  0
    0.8629   -3.3778    2.9172 F   0  0  0  0  0  0  0  0  0  0  0  0
    1.8133   -1.5295    1.8049 C   0  0  0  0  0  0  0  0  0  0  0  0
    2.0876    2.5231   -0.0030 C   0  0  0  0  0  0  0  0  0  0  0  0
    3.1463    3.3773    0.3371 C   0  0  0  0  0  0  0  0  0  0  0  0
    2.8763    4.6606    0.0515 N   0  0  0  0  0  0  0  0  0  0  0  0
    1.6272    4.6209   -0.4754 N   0  0  0  0  0  0  0  0  0  0  0  0
    1.0099    5.8524   -0.8980 C   0  0  0  0  0  0  0  0  0  0  0  0
    1.1266    3.3559   -0.5213 C   0  0  0  0  0  0  0  0  0  0  0  0
   -0.7966    3.5225   -1.3443 H   0  0  0  0  0  0  0  0  0  0  0  0
   -1.0994   -0.8235   -1.7104 H   0  0  0  0  0  0  0  0  0  0  0  0
   -2.7249   -0.3227   -2.1191 H   0  0  0  0  0  0  0  0  0  0  0  0
   -3.3814   -0.0911    0.2173 H   0  0  0  0  0  0  0  0  0  0  0  0
   -1.7312   -0.2829    0.7737 H   0  0  0  0  0  0  0  0  0  0  0  0
   -1.6867   -2.6326   -0.1043 H   0  0  0  0  0  0  0  0  0  0  0  0
   -3.4267   -2.5312   -1.8529 H   0  0  0  0  0  0  0  0  0  0  0  0
   -4.6688   -2.1619   -0.6424 H   0  0  0  0  0  0  0  0  0  0  0  0
   -3.8669   -3.7417   -0.6496 H   0  0  0  0  0  0  0  0  0  0  0  0
   -3.0948   -3.5722    1.7055 H   0  0  0  0  0  0  0  0  0  0  0  0
   -3.9289   -2.0188    1.8906 H   0  0  0  0  0  0  0  0  0  0  0  0
   -2.2024   -2.1545    2.2708 H   0  0  0  0  0  0  0  0  0  0  0  0
    0.3848   -0.2047   -0.3723 H   0  0  0  0  0  0  0  0  0  0  0  0
    3.5272   -1.4937   -1.1289 H   0  0  0  0  0  0  0  0  0  0  0  0
    3.0495   -3.9267   -0.9877 H   0  0  0  0  0  0  0  0  0  0  0  0
    1.7646   -4.8210    0.9574 H   0  0  0  0  0  0  0  0  0  0  0  0
    1.4749   -0.8746    2.6011 H   0  0  0  0  0  0  0  0  0  0  0  0
    4.1005    3.1223    0.7802 H   0  0  0  0  0  0  0  0  0  0  0  0
    0.8740    6.4872   -0.0188 H   0  0  0  0  0  0  0  0  0  0  0  0
    0.0428    5.6471   -1.3610 H   0  0  0  0  0  0  0  0  0  0  0  0
    1.6687    6.3383   -1.6223 H   0  0  0  0  0  0  0  0  0  0  0  0
  1  2  1  0
  2  3  2  3
  3  4  1  0
  4  5  1  0
  5  6  1  0
  6  7  1  0
  6  8  1  0
  2  9  1  0
  9 10  1  0
 10 11  2  3
 11 12  1  0
 12 13  2  0
 13 14  1  0
 14 15  2  0
 15 16  1  0
 16 17  1  0
 16 18  2  0
 10 19  1  0
 19 20  1  0
 20 21  2  0
 21 22  1  0
 22 23  1  0
 22 24  1  0
 24  1  1  0
 18 12  1  0
 24 19  2  0
  1 25  1  0
  4 26  1  0
  4 27  1  0
  5 28  1  0
  5 29  1  0
  6 30  1  0
  7 31  1  0
  7 32  1  0
  7 33  1  0
  8 34  1  0
  8 35  1  0
  8 36  1  0
  9 37  1  0
 13 38  1  0
 14 39  1  0
 15 40  1  0
 18 41  1  0
 20 42  1  0
 23 43  1  0
 23 44  1  0
 23 45  1  0
M  END
>  <ScrubInfo>  (9) 
{"isomerGroup": 0, "isomerId": 8, "confId": 0, "nr_conformers:": 1, "nr_isomers:": 9}

$$$$
