REMARK SMILES Cc1ccccc1Nc1nc(NCCC[NH+](C)C)nc2c1cnn2C
REMARK SMILES IDX 13 1 14 2 15 3 16 4 17 5 18 6 12 8 11 10 10 11 19 12 9 13
REMARK SMILES IDX 20 14 21 15 24 16 22 17 23 18 25 19 8 20 7 22 6 23 2 24 5 25
REMARK SMILES IDX 3 26 4 27 1 28
REMARK H PARENT 16 7 12 9 8 21
ROOT
ATOM      1  C   UNL     1      -2.748   1.762  -0.861  1.00  0.00     0.122 C 
ENDROOT
BRANCH   1   2
ATOM      2  C   UNL     1      -3.724   0.583  -0.786  1.00  0.00     0.083 C 
BRANCH   2   3
ATOM      3  C   UNL     1      -4.210   0.343   0.641  1.00  0.00     0.263 C 
BRANCH   3   4
ATOM      4  N   UNL     1      -5.077  -0.905   0.716  1.00  0.00    -0.340 N 
ATOM      5  C   UNL     1      -6.416  -0.757   0.051  1.00  0.00     0.332 C 
ATOM      6  C   UNL     1      -5.229  -1.369   2.142  1.00  0.00     0.332 C 
ATOM      7  H   UNL     1      -4.566  -1.652   0.227  1.00  0.00     0.347 HD
ENDBRANCH   3   4
ENDBRANCH   2   3
ENDBRANCH   1   2
BRANCH   1   8
ATOM      8  N   UNL     1      -1.662   1.621   0.093  1.00  0.00    -0.354 N 
ATOM      9  H   UNL     1      -1.252   2.507   0.392  1.00  0.00     0.163 HD
BRANCH   8  10
ATOM     10  C   UNL     1      -0.550   0.911  -0.363  1.00  0.00     0.226 A 
ATOM     11  N   UNL     1       0.623   1.405   0.065  1.00  0.00    -0.195 NA
ATOM     12  N   UNL     1      -0.720  -0.168  -1.140  1.00  0.00    -0.193 NA
ATOM     13  C   UNL     1       1.787   0.798  -0.285  1.00  0.00     0.147 A 
ATOM     14  C   UNL     1       0.447  -0.726  -1.506  1.00  0.00     0.165 A 
ATOM     15  C   UNL     1       1.711  -0.311  -1.130  1.00  0.00     0.082 A 
ATOM     16  N   UNL     1       0.639  -1.804  -2.329  1.00  0.00    -0.250 N 
ATOM     17  C   UNL     1       2.586  -1.201  -1.787  1.00  0.00     0.149 A 
ATOM     18  N   UNL     1       1.938  -2.125  -2.506  1.00  0.00    -0.179 NA
ATOM     19  C   UNL     1      -0.372  -2.579  -3.002  1.00  0.00     0.176 C 
BRANCH  13  20
ATOM     20  N   UNL     1       2.976   1.376   0.179  1.00  0.00    -0.339 N 
ATOM     21  H   UNL     1       2.733   2.162   0.778  1.00  0.00     0.168 HD
BRANCH  20  22
ATOM     22  C   UNL     1       4.132   0.724   0.667  1.00  0.00     0.043 A 
ATOM     23  C   UNL     1       4.065  -0.540   1.275  1.00  0.00     0.026 A 
ATOM     24  C   UNL     1       5.373   1.393   0.626  1.00  0.00    -0.028 A 
ATOM     25  C   UNL     1       5.209  -1.150   1.792  1.00  0.00     0.002 A 
ATOM     26  C   UNL     1       6.516   0.770   1.151  1.00  0.00     0.005 A 
ATOM     27  C   UNL     1       6.435  -0.497   1.726  1.00  0.00     0.000 A 
ATOM     28  C   UNL     1       5.499   2.760   0.008  1.00  0.00     0.046 C 
ENDBRANCH  20  22
ENDBRANCH  13  20
ENDBRANCH   8  10
ENDBRANCH   1   8
TORSDOF 7
