_i0
     RDKit          3D

 51 53  0  0  0  0  0  0  0  0999 V2000
   -4.2102    0.3426    0.6406 C   0  0  0  0  0  0  0  0  0  0  0  0
   -5.0771   -0.9049    0.7162 N   0  0  0  0  0  4  0  0  0  0  0  0
   -6.4161   -0.7574    0.0510 C   0  0  0  0  0  0  0  0  0  0  0  0
   -5.2289   -1.3691    2.1421 C   0  0  0  0  0  0  0  0  0  0  0  0
   -3.7239    0.5833   -0.7857 C   0  0  0  0  0  0  0  0  0  0  0  0
   -2.7478    1.7624   -0.8613 C   0  0  0  0  0  0  0  0  0  0  0  0
   -1.6618    1.6208    0.0927 N   0  0  0  0  0  0  0  0  0  0  0  0
   -0.5497    0.9113   -0.3635 C   0  0  0  0  0  0  0  0  0  0  0  0
    0.6233    1.4046    0.0649 N   0  0  0  0  0  0  0  0  0  0  0  0
   -0.7200   -0.1680   -1.1404 N   0  0  0  0  0  0  0  0  0  0  0  0
    1.7871    0.7985   -0.2854 C   0  0  0  0  0  0  0  0  0  0  0  0
    0.4472   -0.7260   -1.5060 C   0  0  0  0  0  0  0  0  0  0  0  0
    2.9760    1.3762    0.1795 N   0  0  0  0  0  0  0  0  0  0  0  0
    1.7108   -0.3112   -1.1299 C   0  0  0  0  0  0  0  0  0  0  0  0
    0.6387   -1.8037   -2.3285 N   0  0  0  0  0  0  0  0  0  0  0  0
    4.1319    0.7236    0.6670 C   0  0  0  0  0  0  0  0  0  0  0  0
    2.5856   -1.2012   -1.7867 C   0  0  0  0  0  0  0  0  0  0  0  0
    1.9376   -2.1250   -2.5055 N   0  0  0  0  0  0  0  0  0  0  0  0
   -0.3724   -2.5786   -3.0016 C   0  0  0  0  0  0  0  0  0  0  0  0
    4.0652   -0.5399    1.2746 C   0  0  0  0  0  0  0  0  0  0  0  0
    5.3726    1.3931    0.6256 C   0  0  0  0  0  0  0  0  0  0  0  0
    5.2092   -1.1502    1.7919 C   0  0  0  0  0  0  0  0  0  0  0  0
    5.4989    2.7598    0.0081 C   0  0  0  0  0  0  0  0  0  0  0  0
    6.5160    0.7698    1.1513 C   0  0  0  0  0  0  0  0  0  0  0  0
    6.4347   -0.4968    1.7265 C   0  0  0  0  0  0  0  0  0  0  0  0
   -3.3665    0.1642    1.3148 H   0  0  0  0  0  0  0  0  0  0  0  0
   -4.8031    1.1811    1.0223 H   0  0  0  0  0  0  0  0  0  0  0  0
   -4.5658   -1.6522    0.2271 H   0  0  0  0  0  0  0  0  0  0  0  0
   -6.9499    0.0731    0.5202 H   0  0  0  0  0  0  0  0  0  0  0  0
   -6.9647   -1.6947    0.1785 H   0  0  0  0  0  0  0  0  0  0  0  0
   -6.2586   -0.5750   -1.0137 H   0  0  0  0  0  0  0  0  0  0  0  0
   -4.2313   -1.5569    2.5479 H   0  0  0  0  0  0  0  0  0  0  0  0
   -5.7449   -0.5891    2.7084 H   0  0  0  0  0  0  0  0  0  0  0  0
   -5.8050   -2.2982    2.1377 H   0  0  0  0  0  0  0  0  0  0  0  0
   -4.5695    0.8045   -1.4462 H   0  0  0  0  0  0  0  0  0  0  0  0
   -3.2565   -0.3280   -1.1740 H   0  0  0  0  0  0  0  0  0  0  0  0
   -2.3808    1.8977   -1.8867 H   0  0  0  0  0  0  0  0  0  0  0  0
   -3.2964    2.6784   -0.6096 H   0  0  0  0  0  0  0  0  0  0  0  0
   -1.2517    2.5073    0.3919 H   0  0  0  0  0  0  0  0  0  0  0  0
    2.7328    2.1621    0.7777 H   0  0  0  0  0  0  0  0  0  0  0  0
    3.6688   -1.2140   -1.7683 H   0  0  0  0  0  0  0  0  0  0  0  0
   -0.2795   -3.6193   -2.6809 H   0  0  0  0  0  0  0  0  0  0  0  0
   -1.3647   -2.2003   -2.7455 H   0  0  0  0  0  0  0  0  0  0  0  0
   -0.2105   -2.4943   -4.0792 H   0  0  0  0  0  0  0  0  0  0  0  0
    3.1177   -1.0631    1.3685 H   0  0  0  0  0  0  0  0  0  0  0  0
    5.1417   -2.1323    2.2528 H   0  0  0  0  0  0  0  0  0  0  0  0
    5.1771    2.7351   -1.0381 H   0  0  0  0  0  0  0  0  0  0  0  0
    6.5345    3.1157    0.0261 H   0  0  0  0  0  0  0  0  0  0  0  0
    4.8907    3.4833    0.5606 H   0  0  0  0  0  0  0  0  0  0  0  0
    7.4819    1.2700    1.1144 H   0  0  0  0  0  0  0  0  0  0  0  0
    7.3273   -0.9692    2.1294 H   0  0  0  0  0  0  0  0  0  0  0  0
  1  2  1  0
  2  3  1  0
  2  4  1  0
  5  1  1  0
  6  5  1  0
  7  6  1  0
  8  7  1  0
  9  8  2  0
  8 10  1  0
 11  9  1  0
 10 12  2  0
 13 11  1  0
 14 11  2  0
 12 14  1  0
 15 12  1  0
 16 13  1  0
 14 17  1  0
 18 15  1  0
 15 19  1  0
 20 16  2  0
 16 21  1  0
 17 18  2  0
 22 20  1  0
 23 21  1  0
 21 24  2  0
 25 22  2  0
 24 25  1  0
  1 26  1  0
  1 27  1  0
  2 28  1  0
  3 29  1  0
  3 30  1  0
  3 31  1  0
  4 32  1  0
  4 33  1  0
  4 34  1  0
  5 35  1  0
  5 36  1  0
  6 37  1  0
  6 38  1  0
  7 39  1  0
 13 40  1  0
 17 41  1  0
 19 42  1  0
 19 43  1  0
 19 44  1  0
 20 45  1  0
 22 46  1  0
 23 47  1  0
 23 48  1  0
 23 49  1  0
 24 50  1  0
 25 51  1  0
M  CHG  1   2   1
M  END
>  <ScrubInfo>  (1) 
{"isomerGroup": 0, "isomerId": 0, "confId": 0, "nr_conformers:": 1, "nr_isomers:": 9}

$$$$
_i1
     RDKit          3D

 51 53  0  0  0  0  0  0  0  0999 V2000
   -0.8807   -1.2400   -0.7928 N   0  0  0  0  0  0  0  0  0  0  0  0
   -2.0975   -0.9505   -0.2031 C   0  0  0  0  0  0  0  0  0  0  0  0
   -3.2763   -1.3394   -0.8218 N   0  0  0  0  0  0  0  0  0  0  0  0
   -4.5060   -0.6443   -0.7162 C   0  0  0  0  0  0  0  0  0  0  0  0
   -5.6193   -1.3727   -0.2688 C   0  0  0  0  0  0  0  0  0  0  0  0
   -6.8755   -0.7761   -0.1723 C   0  0  0  0  0  0  0  0  0  0  0  0
   -7.0388    0.5526   -0.5463 C   0  0  0  0  0  0  0  0  0  0  0  0
   -5.9516    1.2762   -1.0362 C   0  0  0  0  0  0  0  0  0  0  0  0
   -4.6826    0.6832   -1.1549 C   0  0  0  0  0  0  0  0  0  0  0  0
   -3.5593    1.5074   -1.7211 C   0  0  0  0  0  0  0  0  0  0  0  0
   -2.0185   -0.3263    0.9811 C   0  0  0  0  0  0  0  0  0  0  0  0
   -2.9234    0.1601    2.0311 C   0  0  0  0  0  0  0  0  0  0  0  0
   -2.2903    0.7140    3.0357 N   0  0  0  0  0  0  0  0  0  0  0  0
   -0.9297    0.6721    2.6985 N   0  0  0  0  0  0  0  0  0  0  0  0
    0.0363    0.8703    3.7519 C   0  0  0  0  0  0  0  0  0  0  0  0
   -0.6744    0.0088    1.5091 C   0  0  0  0  0  0  0  0  0  0  0  0
    0.4530   -0.2854    0.9500 N   0  0  0  0  0  0  0  0  0  0  0  0
    0.3426   -0.9646   -0.2423 C   0  0  0  0  0  0  0  0  0  0  0  0
    1.4081   -1.3462   -0.8687 N   0  0  0  0  0  0  0  0  0  0  0  0
    2.7065   -1.0738   -0.2620 C   0  0  0  0  0  0  0  0  0  0  0  0
    3.2127    0.2885   -0.7277 C   0  0  0  0  0  0  0  0  0  0  0  0
    4.5343    0.6924   -0.0855 C   0  0  0  0  0  0  0  0  0  0  0  0
    5.6805   -0.2363   -0.4349 N   0  0  0  0  0  4  0  0  0  0  0  0
    6.0227   -0.2476   -1.9010 C   0  0  0  0  0  0  0  0  0  0  0  0
    6.8970    0.0723    0.3992 C   0  0  0  0  0  0  0  0  0  0  0  0
   -0.8763   -1.8102   -1.6243 H   0  0  0  0  0  0  0  0  0  0  0  0
   -3.1332   -1.6141   -1.7907 H   0  0  0  0  0  0  0  0  0  0  0  0
   -5.5035   -2.4135    0.0262 H   0  0  0  0  0  0  0  0  0  0  0  0
   -7.7245   -1.3482    0.1936 H   0  0  0  0  0  0  0  0  0  0  0  0
   -8.0158    1.0239   -0.4694 H   0  0  0  0  0  0  0  0  0  0  0  0
   -6.1064    2.3100   -1.3402 H   0  0  0  0  0  0  0  0  0  0  0  0
   -3.9442    2.3473   -2.3100 H   0  0  0  0  0  0  0  0  0  0  0  0
   -2.9367    0.9125   -2.3968 H   0  0  0  0  0  0  0  0  0  0  0  0
   -2.9419    1.9136   -0.9146 H   0  0  0  0  0  0  0  0  0  0  0  0
   -4.0102    0.0339    1.9610 H   0  0  0  0  0  0  0  0  0  0  0  0
    1.0015    1.1836    3.3412 H   0  0  0  0  0  0  0  0  0  0  0  0
   -0.2994    1.6487    4.4448 H   0  0  0  0  0  0  0  0  0  0  0  0
    0.1821   -0.0566    4.3154 H   0  0  0  0  0  0  0  0  0  0  0  0
    3.3897   -1.8606   -0.6003 H   0  0  0  0  0  0  0  0  0  0  0  0
    2.6934   -1.1455    0.8322 H   0  0  0  0  0  0  0  0  0  0  0  0
    2.4714    1.0558   -0.4706 H   0  0  0  0  0  0  0  0  0  0  0  0
    3.2833    0.3093   -1.8210 H   0  0  0  0  0  0  0  0  0  0  0  0
    4.4378    0.6835    1.0062 H   0  0  0  0  0  0  0  0  0  0  0  0
    4.8282    1.6994   -0.4024 H   0  0  0  0  0  0  0  0  0  0  0  0
    5.4022   -1.1935   -0.1842 H   0  0  0  0  0  0  0  0  0  0  0  0
    6.2461    0.7750   -2.2158 H   0  0  0  0  0  0  0  0  0  0  0  0
    6.8908   -0.8973   -2.0428 H   0  0  0  0  0  0  0  0  0  0  0  0
    5.1751   -0.6583   -2.4531 H   0  0  0  0  0  0  0  0  0  0  0  0
    6.6170   -0.0112    1.4526 H   0  0  0  0  0  0  0  0  0  0  0  0
    7.2357    1.0841    0.1607 H   0  0  0  0  0  0  0  0  0  0  0  0
    7.6677   -0.6662    0.1629 H   0  0  0  0  0  0  0  0  0  0  0  0
  1  2  1  0
  2  3  1  0
  3  4  1  0
  4  5  2  0
  5  6  1  0
  6  7  2  0
  7  8  1  0
  8  9  2  0
  9 10  1  0
  2 11  2  0
 11 12  1  0
 12 13  2  0
 13 14  1  0
 14 15  1  0
 14 16  1  0
 16 17  2  0
 17 18  1  0
 18 19  2  3
 19 20  1  0
 20 21  1  0
 21 22  1  0
 22 23  1  0
 23 24  1  0
 23 25  1  0
 18  1  1  0
  9  4  1  0
 16 11  1  0
  1 26  1  0
  3 27  1  0
  5 28  1  0
  6 29  1  0
  7 30  1  0
  8 31  1  0
 10 32  1  0
 10 33  1  0
 10 34  1  0
 12 35  1  0
 15 36  1  0
 15 37  1  0
 15 38  1  0
 20 39  1  0
 20 40  1  0
 21 41  1  0
 21 42  1  0
 22 43  1  0
 22 44  1  0
 23 45  1  0
 24 46  1  0
 24 47  1  0
 24 48  1  0
 25 49  1  0
 25 50  1  0
 25 51  1  0
M  CHG  1  23   1
M  END
>  <ScrubInfo>  (2) 
{"isomerGroup": 0, "isomerId": 1, "confId": 0, "nr_conformers:": 1, "nr_isomers:": 9}

$$$$
_i2
     RDKit          3D

 51 53  0  0  0  0  0  0  0  0999 V2000
   -0.3461    0.2037    1.7021 N   0  0  0  0  0  0  0  0  0  0  0  0
    0.0980   -1.0880    1.6609 C   0  0  0  0  0  0  0  0  0  0  0  0
    0.9649   -1.4747    2.6356 N   0  0  0  0  0  0  0  0  0  0  0  0
    2.1331   -0.7101    3.0353 C   0  0  0  0  0  0  0  0  0  0  0  0
    3.0183   -0.3002    1.8511 C   0  0  0  0  0  0  0  0  0  0  0  0
    3.6016   -1.4621    1.0432 C   0  0  0  0  0  0  0  0  0  0  0  0
    2.6901   -1.9416   -0.0663 N   0  0  0  0  0  4  0  0  0  0  0  0
    3.0596   -3.3208   -0.5372 C   0  0  0  0  0  0  0  0  0  0  0  0
    2.5880   -0.9904   -1.2305 C   0  0  0  0  0  0  0  0  0  0  0  0
   -0.1515   -1.9333    0.6890 N   0  0  0  0  0  0  0  0  0  0  0  0
   -0.9691   -1.3707   -0.2495 C   0  0  0  0  0  0  0  0  0  0  0  0
   -1.4676   -0.0749   -0.2956 C   0  0  0  0  0  0  0  0  0  0  0  0
   -2.1902   -0.0227   -1.5004 C   0  0  0  0  0  0  0  0  0  0  0  0
   -2.1622   -1.1849   -2.1644 N   0  0  0  0  0  0  0  0  0  0  0  0
   -1.4825   -2.0092   -1.3455 N   0  0  0  0  0  0  0  0  0  0  0  0
   -1.3717   -3.4071   -1.6813 C   0  0  0  0  0  0  0  0  0  0  0  0
   -1.1637    0.8350    0.7924 C   0  0  0  0  0  0  0  0  0  0  0  0
   -1.5490    2.0591    0.9685 N   0  0  0  0  0  0  0  0  0  0  0  0
   -2.4022    2.7051    0.0665 C   0  0  0  0  0  0  0  0  0  0  0  0
   -3.7877    2.5836    0.2324 C   0  0  0  0  0  0  0  0  0  0  0  0
   -4.6677    3.2241   -0.6395 C   0  0  0  0  0  0  0  0  0  0  0  0
   -4.1675    4.0054   -1.6770 C   0  0  0  0  0  0  0  0  0  0  0  0
   -2.7895    4.1577   -1.8353 C   0  0  0  0  0  0  0  0  0  0  0  0
   -1.8952    3.5255   -0.9575 C   0  0  0  0  0  0  0  0  0  0  0  0
   -0.4164    3.7148   -1.1375 C   0  0  0  0  0  0  0  0  0  0  0  0
   -0.2444    0.7123    2.5687 H   0  0  0  0  0  0  0  0  0  0  0  0
    1.1088   -2.4819    2.6511 H   0  0  0  0  0  0  0  0  0  0  0  0
    1.8138    0.1876    3.5769 H   0  0  0  0  0  0  0  0  0  0  0  0
    2.7174   -1.3086    3.7436 H   0  0  0  0  0  0  0  0  0  0  0  0
    3.8640    0.2579    2.2745 H   0  0  0  0  0  0  0  0  0  0  0  0
    2.4891    0.4105    1.2094 H   0  0  0  0  0  0  0  0  0  0  0  0
    4.5409   -1.1650    0.5635 H   0  0  0  0  0  0  0  0  0  0  0  0
    3.8052   -2.3168    1.6979 H   0  0  0  0  0  0  0  0  0  0  0  0
    1.7247   -2.0300    0.3025 H   0  0  0  0  0  0  0  0  0  0  0  0
    2.9973   -3.9989    0.3180 H   0  0  0  0  0  0  0  0  0  0  0  0
    4.0742   -3.2900   -0.9429 H   0  0  0  0  0  0  0  0  0  0  0  0
    2.3397   -3.6270   -1.3011 H   0  0  0  0  0  0  0  0  0  0  0  0
    3.5856   -0.8533   -1.6557 H   0  0  0  0  0  0  0  0  0  0  0  0
    2.1777   -0.0433   -0.8768 H   0  0  0  0  0  0  0  0  0  0  0  0
    1.9082   -1.4263   -1.9677 H   0  0  0  0  0  0  0  0  0  0  0  0
   -2.7366    0.8006   -1.9421 H   0  0  0  0  0  0  0  0  0  0  0  0
   -2.2616   -3.9180   -1.3060 H   0  0  0  0  0  0  0  0  0  0  0  0
   -1.3036   -3.5078   -2.7677 H   0  0  0  0  0  0  0  0  0  0  0  0
   -0.4715   -3.8226   -1.2220 H   0  0  0  0  0  0  0  0  0  0  0  0
   -4.1843    1.9842    1.0476 H   0  0  0  0  0  0  0  0  0  0  0  0
   -5.7413    3.1189   -0.5045 H   0  0  0  0  0  0  0  0  0  0  0  0
   -4.8517    4.5085   -2.3567 H   0  0  0  0  0  0  0  0  0  0  0  0
   -2.4198    4.7854   -2.6438 H   0  0  0  0  0  0  0  0  0  0  0  0
    0.0384    2.7940   -1.5160 H   0  0  0  0  0  0  0  0  0  0  0  0
    0.0550    3.9878   -0.1877 H   0  0  0  0  0  0  0  0  0  0  0  0
   -0.1992    4.5183   -1.8490 H   0  0  0  0  0  0  0  0  0  0  0  0
  1  2  1  0
  2  3  1  0
  3  4  1  0
  4  5  1  0
  5  6  1  0
  6  7  1  0
  7  8  1  0
  7  9  1  0
  2 10  2  0
 10 11  1  0
 11 12  2  0
 12 13  1  0
 13 14  2  0
 14 15  1  0
 15 16  1  0
 12 17  1  0
 17 18  2  3
 18 19  1  0
 19 20  2  0
 20 21  1  0
 21 22  2  0
 22 23  1  0
 23 24  2  0
 24 25  1  0
 17  1  1  0
 24 19  1  0
 15 11  1  0
  1 26  1  0
  3 27  1  0
  4 28  1  0
  4 29  1  0
  5 30  1  0
  5 31  1  0
  6 32  1  0
  6 33  1  0
  7 34  1  0
  8 35  1  0
  8 36  1  0
  8 37  1  0
  9 38  1  0
  9 39  1  0
  9 40  1  0
 13 41  1  0
 16 42  1  0
 16 43  1  0
 16 44  1  0
 20 45  1  0
 21 46  1  0
 22 47  1  0
 23 48  1  0
 25 49  1  0
 25 50  1  0
 25 51  1  0
M  CHG  1   7   1
M  END
>  <ScrubInfo>  (3) 
{"isomerGroup": 0, "isomerId": 2, "confId": 0, "nr_conformers:": 1, "nr_isomers:": 9}

$$$$
_i3
     RDKit          3D

 51 53  0  0  0  0  0  0  0  0999 V2000
   -0.1316   -1.3246    1.6203 N   0  0  0  0  0  0  0  0  0  0  0  0
    0.4754   -0.7733    0.5055 C   0  0  0  0  0  0  0  0  0  0  0  0
    1.6935   -0.3671    0.4183 N   0  0  0  0  0  0  0  0  0  0  0  0
    2.5863   -0.4678    1.5559 C   0  0  0  0  0  0  0  0  0  0  0  0
    3.9978   -0.1532    1.0560 C   0  0  0  0  0  0  0  0  0  0  0  0
    4.0537    1.2166    0.3821 C   0  0  0  0  0  0  0  0  0  0  0  0
    5.4702    1.5409   -0.0666 N   0  0  0  0  0  4  0  0  0  0  0  0
    5.8973    0.7426   -1.2705 C   0  0  0  0  0  0  0  0  0  0  0  0
    5.6302    3.0162   -0.3209 C   0  0  0  0  0  0  0  0  0  0  0  0
   -0.2152   -0.5947   -0.6824 N   0  0  0  0  0  0  0  0  0  0  0  0
   -1.4671   -0.9570   -0.7650 C   0  0  0  0  0  0  0  0  0  0  0  0
   -2.1926   -0.8279   -1.9221 N   0  0  0  0  0  0  0  0  0  0  0  0
   -3.4827   -0.2421   -1.9995 C   0  0  0  0  0  0  0  0  0  0  0  0
   -4.4168   -0.8825   -2.8320 C   0  0  0  0  0  0  0  0  0  0  0  0
   -5.6980   -0.3636   -3.0120 C   0  0  0  0  0  0  0  0  0  0  0  0
   -6.0554    0.8217   -2.3820 C   0  0  0  0  0  0  0  0  0  0  0  0
   -5.1246    1.4970   -1.5931 C   0  0  0  0  0  0  0  0  0  0  0  0
   -3.8228    0.9945   -1.4148 C   0  0  0  0  0  0  0  0  0  0  0  0
   -2.8596    1.8028   -0.5897 C   0  0  0  0  0  0  0  0  0  0  0  0
   -2.1294   -1.5694    0.3641 C   0  0  0  0  0  0  0  0  0  0  0  0
   -3.3853   -2.1193    0.6638 C   0  0  0  0  0  0  0  0  0  0  0  0
   -3.4534   -2.5731    1.9250 N   0  0  0  0  0  0  0  0  0  0  0  0
   -2.2265   -2.3161    2.4330 N   0  0  0  0  0  0  0  0  0  0  0  0
   -1.9458   -2.6909    3.7957 C   0  0  0  0  0  0  0  0  0  0  0  0
   -1.4134   -1.7203    1.5205 C   0  0  0  0  0  0  0  0  0  0  0  0
    0.4195   -1.4498    2.4552 H   0  0  0  0  0  0  0  0  0  0  0  0
    2.2986    0.2470    2.3353 H   0  0  0  0  0  0  0  0  0  0  0  0
    2.5846   -1.4764    1.9846 H   0  0  0  0  0  0  0  0  0  0  0  0
    4.2999   -0.9366    0.3522 H   0  0  0  0  0  0  0  0  0  0  0  0
    4.6956   -0.1889    1.9008 H   0  0  0  0  0  0  0  0  0  0  0  0
    3.7617    1.9917    1.0997 H   0  0  0  0  0  0  0  0  0  0  0  0
    3.4133    1.2908   -0.5031 H   0  0  0  0  0  0  0  0  0  0  0  0
    6.1063    1.3017    0.7041 H   0  0  0  0  0  0  0  0  0  0  0  0
    5.1999    0.9406   -2.0888 H   0  0  0  0  0  0  0  0  0  0  0  0
    6.9107    1.0530   -1.5399 H   0  0  0  0  0  0  0  0  0  0  0  0
    5.9051   -0.3158   -1.0039 H   0  0  0  0  0  0  0  0  0  0  0  0
    5.3919    3.5483    0.6039 H   0  0  0  0  0  0  0  0  0  0  0  0
    4.9529    3.3071   -1.1284 H   0  0  0  0  0  0  0  0  0  0  0  0
    6.6720    3.2032   -0.5948 H   0  0  0  0  0  0  0  0  0  0  0  0
   -1.6116   -0.4048   -2.6419 H   0  0  0  0  0  0  0  0  0  0  0  0
   -4.1513   -1.8134   -3.3293 H   0  0  0  0  0  0  0  0  0  0  0  0
   -6.4151   -0.8856   -3.6405 H   0  0  0  0  0  0  0  0  0  0  0  0
   -7.0553    1.2286   -2.5130 H   0  0  0  0  0  0  0  0  0  0  0  0
   -5.4213    2.4339   -1.1246 H   0  0  0  0  0  0  0  0  0  0  0  0
   -1.8782    1.8511   -1.0715 H   0  0  0  0  0  0  0  0  0  0  0  0
   -3.2027    2.8377   -0.4807 H   0  0  0  0  0  0  0  0  0  0  0  0
   -2.7620    1.3760    0.4124 H   0  0  0  0  0  0  0  0  0  0  0  0
   -4.2579   -2.2148    0.0303 H   0  0  0  0  0  0  0  0  0  0  0  0
   -0.9397   -2.3678    4.0706 H   0  0  0  0  0  0  0  0  0  0  0  0
   -2.0221   -3.7782    3.8757 H   0  0  0  0  0  0  0  0  0  0  0  0
   -2.6790   -2.2065    4.4455 H   0  0  0  0  0  0  0  0  0  0  0  0
  1  2  1  0
  2  3  2  3
  3  4  1  0
  4  5  1  0
  5  6  1  0
  6  7  1  0
  7  8  1  0
  7  9  1  0
  2 10  1  0
 10 11  2  0
 11 12  1  0
 12 13  1  0
 13 14  2  0
 14 15  1  0
 15 16  2  0
 16 17  1  0
 17 18  2  0
 18 19  1  0
 11 20  1  0
 20 21  1  0
 21 22  2  0
 22 23  1  0
 23 24  1  0
 23 25  1  0
 25  1  1  0
 18 13  1  0
 25 20  2  0
  1 26  1  0
  4 27  1  0
  4 28  1  0
  5 29  1  0
  5 30  1  0
  6 31  1  0
  6 32  1  0
  7 33  1  0
  8 34  1  0
  8 35  1  0
  8 36  1  0
  9 37  1  0
  9 38  1  0
  9 39  1  0
 12 40  1  0
 14 41  1  0
 15 42  1  0
 16 43  1  0
 17 44  1  0
 19 45  1  0
 19 46  1  0
 19 47  1  0
 21 48  1  0
 24 49  1  0
 24 50  1  0
 24 51  1  0
M  CHG  1   7   1
M  END
>  <ScrubInfo>  (4) 
{"isomerGroup": 0, "isomerId": 3, "confId": 0, "nr_conformers:": 1, "nr_isomers:": 9}

$$$$
_i4
     RDKit          3D

 51 53  0  0  0  0  0  0  0  0999 V2000
   -0.0358    0.8480   -1.1181 N   0  0  0  0  0  0  0  0  0  0  0  0
    0.2810    0.0858   -0.0248 C   0  0  0  0  0  0  0  0  0  0  0  0
    1.5950    0.0450    0.3507 N   0  0  0  0  0  0  0  0  0  0  0  0
    2.4117    1.2391    0.4702 C   0  0  0  0  0  0  0  0  0  0  0  0
    3.8015    0.8607    0.9915 C   0  0  0  0  0  0  0  0  0  0  0  0
    4.5462   -0.0435    0.0101 C   0  0  0  0  0  0  0  0  0  0  0  0
    5.8548   -0.5345    0.6066 N   0  0  0  0  0  4  0  0  0  0  0  0
    6.3967   -1.7098   -0.1703 C   0  0  0  0  0  0  0  0  0  0  0  0
    6.9004    0.5374    0.7528 C   0  0  0  0  0  0  0  0  0  0  0  0
   -0.5571   -0.6092    0.6887 N   0  0  0  0  0  0  0  0  0  0  0  0
   -1.9102   -0.6117    0.3652 C   0  0  0  0  0  0  0  0  0  0  0  0
   -2.6702   -1.3076    1.1476 N   0  0  0  0  0  0  0  0  0  0  0  0
   -4.0503   -1.4107    0.9522 C   0  0  0  0  0  0  0  0  0  0  0  0
   -4.5493   -2.4654    0.1773 C   0  0  0  0  0  0  0  0  0  0  0  0
   -5.9209   -2.6110   -0.0293 C   0  0  0  0  0  0  0  0  0  0  0  0
   -6.8075   -1.7089    0.5518 C   0  0  0  0  0  0  0  0  0  0  0  0
   -6.3249   -0.6714    1.3506 C   0  0  0  0  0  0  0  0  0  0  0  0
   -4.9470   -0.5217    1.5725 C   0  0  0  0  0  0  0  0  0  0  0  0
   -4.4488    0.5940    2.4466 C   0  0  0  0  0  0  0  0  0  0  0  0
   -2.2956    0.1616   -0.8031 C   0  0  0  0  0  0  0  0  0  0  0  0
   -3.4714    0.4397   -1.5232 C   0  0  0  0  0  0  0  0  0  0  0  0
   -3.2547    1.2364   -2.5815 N   0  0  0  0  0  0  0  0  0  0  0  0
   -1.9279    1.4782   -2.5402 N   0  0  0  0  0  0  0  0  0  0  0  0
   -1.3453    2.3269   -3.5482 C   0  0  0  0  0  0  0  0  0  0  0  0
   -1.3292    0.8545   -1.4915 C   0  0  0  0  0  0  0  0  0  0  0  0
    0.7080    1.1941   -1.7047 H   0  0  0  0  0  0  0  0  0  0  0  0
    1.5918   -0.5041    1.2138 H   0  0  0  0  0  0  0  0  0  0  0  0
    1.9405    1.9389    1.1697 H   0  0  0  0  0  0  0  0  0  0  0  0
    2.5075    1.7422   -0.4982 H   0  0  0  0  0  0  0  0  0  0  0  0
    4.3662    1.7846    1.1571 H   0  0  0  0  0  0  0  0  0  0  0  0
    3.7073    0.3599    1.9631 H   0  0  0  0  0  0  0  0  0  0  0  0
    3.9563   -0.9384   -0.2136 H   0  0  0  0  0  0  0  0  0  0  0  0
    4.7819    0.4721   -0.9273 H   0  0  0  0  0  0  0  0  0  0  0  0
    5.6506   -0.8932    1.5498 H   0  0  0  0  0  0  0  0  0  0  0  0
    7.3011   -2.0619    0.3329 H   0  0  0  0  0  0  0  0  0  0  0  0
    6.6155   -1.3806   -1.1896 H   0  0  0  0  0  0  0  0  0  0  0  0
    5.6404   -2.4992   -0.1642 H   0  0  0  0  0  0  0  0  0  0  0  0
    6.5276    1.2943    1.4456 H   0  0  0  0  0  0  0  0  0  0  0  0
    7.8017    0.0794    1.1692 H   0  0  0  0  0  0  0  0  0  0  0  0
    7.1003    0.9665   -0.2325 H   0  0  0  0  0  0  0  0  0  0  0  0
   -3.8598   -3.1783   -0.2668 H   0  0  0  0  0  0  0  0  0  0  0  0
   -6.2961   -3.4299   -0.6373 H   0  0  0  0  0  0  0  0  0  0  0  0
   -7.8777   -1.8196    0.3939 H   0  0  0  0  0  0  0  0  0  0  0  0
   -7.0336    0.0154    1.8086 H   0  0  0  0  0  0  0  0  0  0  0  0
   -3.7493    0.2122    3.1974 H   0  0  0  0  0  0  0  0  0  0  0  0
   -5.2709    1.0761    2.9863 H   0  0  0  0  0  0  0  0  0  0  0  0
   -3.9503    1.3562    1.8397 H   0  0  0  0  0  0  0  0  0  0  0  0
   -4.4840    0.1039   -1.3429 H   0  0  0  0  0  0  0  0  0  0  0  0
   -1.8981    3.2696   -3.5707 H   0  0  0  0  0  0  0  0  0  0  0  0
   -0.2976    2.5220   -3.3103 H   0  0  0  0  0  0  0  0  0  0  0  0
   -1.4204    1.8161   -4.5114 H   0  0  0  0  0  0  0  0  0  0  0  0
  1  2  1  0
  2  3  1  0
  3  4  1  0
  4  5  1  0
  5  6  1  0
  6  7  1  0
  7  8  1  0
  7  9  1  0
  2 10  2  0
 10 11  1  0
 11 12  2  3
 12 13  1  0
 13 14  2  0
 14 15  1  0
 15 16  2  0
 16 17  1  0
 17 18  2  0
 18 19  1  0
 11 20  1  0
 20 21  1  0
 21 22  2  0
 22 23  1  0
 23 24  1  0
 23 25  1  0
 25  1  1  0
 18 13  1  0
 25 20  2  0
  1 26  1  0
  3 27  1  0
  4 28  1  0
  4 29  1  0
  5 30  1  0
  5 31  1  0
  6 32  1  0
  6 33  1  0
  7 34  1  0
  8 35  1  0
  8 36  1  0
  8 37  1  0
  9 38  1  0
  9 39  1  0
  9 40  1  0
 14 41  1  0
 15 42  1  0
 16 43  1  0
 17 44  1  0
 19 45  1  0
 19 46  1  0
 19 47  1  0
 21 48  1  0
 24 49  1  0
 24 50  1  0
 24 51  1  0
M  CHG  1   7   1
M  END
>  <ScrubInfo>  (5) 
{"isomerGroup": 0, "isomerId": 4, "confId": 0, "nr_conformers:": 1, "nr_isomers:": 9}

$$$$
_i5
     RDKit          3D

 51 53  0  0  0  0  0  0  0  0999 V2000
   -2.0405    1.1399   -2.5507 N   0  0  0  0  0  0  0  0  0  0  0  0
   -2.7547    0.8535   -1.3939 C   0  0  0  0  0  0  0  0  0  0  0  0
   -1.9727    0.6222   -0.3293 C   0  0  0  0  0  0  0  0  0  0  0  0
   -2.1070    0.3155    1.0883 C   0  0  0  0  0  0  0  0  0  0  0  0
   -3.1521    0.0991    1.8129 N   0  0  0  0  0  0  0  0  0  0  0  0
   -4.4321    0.1419    1.2485 C   0  0  0  0  0  0  0  0  0  0  0  0
   -5.1332    1.3542    1.2449 C   0  0  0  0  0  0  0  0  0  0  0  0
   -6.4122    1.4361    0.6947 C   0  0  0  0  0  0  0  0  0  0  0  0
   -7.0071    0.2993    0.1548 C   0  0  0  0  0  0  0  0  0  0  0  0
   -6.3305   -0.9211    0.1781 C   0  0  0  0  0  0  0  0  0  0  0  0
   -5.0465   -1.0157    0.7372 C   0  0  0  0  0  0  0  0  0  0  0  0
   -4.3424   -2.3424    0.7740 C   0  0  0  0  0  0  0  0  0  0  0  0
   -0.9102    0.2511    1.7519 N   0  0  0  0  0  0  0  0  0  0  0  0
    0.2400    0.3920    1.1685 C   0  0  0  0  0  0  0  0  0  0  0  0
    1.3286    0.2975    1.9854 N   0  0  0  0  0  0  0  0  0  0  0  0
    2.6643    0.6892    1.6261 C   0  0  0  0  0  0  0  0  0  0  0  0
    3.3534   -0.4667    0.8999 C   0  0  0  0  0  0  0  0  0  0  0  0
    4.7518   -0.0707    0.4525 C   0  0  0  0  0  0  0  0  0  0  0  0
    5.3804   -1.1697   -0.3861 N   0  0  0  0  0  4  0  0  0  0  0  0
    5.7342   -2.4041    0.4013 C   0  0  0  0  0  0  0  0  0  0  0  0
    6.5725   -0.6614   -1.1535 C   0  0  0  0  0  0  0  0  0  0  0  0
    0.4394    0.6203   -0.1683 N   0  0  0  0  0  0  0  0  0  0  0  0
   -0.6157    0.7273   -0.9028 C   0  0  0  0  0  0  0  0  0  0  0  0
   -0.6921    0.9537   -2.2804 N   0  0  0  0  0  0  0  0  0  0  0  0
    0.2614    1.8227   -2.9450 C   0  0  0  0  0  0  0  0  0  0  0  0
   -2.4151    0.6810   -3.3852 H   0  0  0  0  0  0  0  0  0  0  0  0
   -3.8341    0.8402   -1.4474 H   0  0  0  0  0  0  0  0  0  0  0  0
   -4.6763    2.2387    1.6812 H   0  0  0  0  0  0  0  0  0  0  0  0
   -6.9464    2.3826    0.6986 H   0  0  0  0  0  0  0  0  0  0  0  0
   -8.0073    0.3578   -0.2679 H   0  0  0  0  0  0  0  0  0  0  0  0
   -6.8198   -1.8037   -0.2284 H   0  0  0  0  0  0  0  0  0  0  0  0
   -3.4973   -2.3417    0.0785 H   0  0  0  0  0  0  0  0  0  0  0  0
   -3.9817   -2.5586    1.7848 H   0  0  0  0  0  0  0  0  0  0  0  0
   -5.0136   -3.1591    0.4876 H   0  0  0  0  0  0  0  0  0  0  0  0
    1.0688    0.3308    2.9668 H   0  0  0  0  0  0  0  0  0  0  0  0
    3.2224    0.9308    2.5380 H   0  0  0  0  0  0  0  0  0  0  0  0
    2.6539    1.5960    1.0102 H   0  0  0  0  0  0  0  0  0  0  0  0
    3.3920   -1.3313    1.5726 H   0  0  0  0  0  0  0  0  0  0  0  0
    2.7626   -0.7750    0.0289 H   0  0  0  0  0  0  0  0  0  0  0  0
    4.7036    0.8214   -0.1819 H   0  0  0  0  0  0  0  0  0  0  0  0
    5.4200    0.1257    1.2981 H   0  0  0  0  0  0  0  0  0  0  0  0
    4.6826   -1.4538   -1.0885 H   0  0  0  0  0  0  0  0  0  0  0  0
    6.4249   -2.1220    1.2001 H   0  0  0  0  0  0  0  0  0  0  0  0
    6.1994   -3.1207   -0.2812 H   0  0  0  0  0  0  0  0  0  0  0  0
    4.8164   -2.8359    0.8046 H   0  0  0  0  0  0  0  0  0  0  0  0
    6.2436    0.1722   -1.7795 H   0  0  0  0  0  0  0  0  0  0  0  0
    6.9424   -1.4731   -1.7855 H   0  0  0  0  0  0  0  0  0  0  0  0
    7.3347   -0.3401   -0.4387 H   0  0  0  0  0  0  0  0  0  0  0  0
    1.2849    1.4772   -2.7668 H   0  0  0  0  0  0  0  0  0  0  0  0
    0.0913    1.8187   -4.0265 H   0  0  0  0  0  0  0  0  0  0  0  0
    0.1711    2.8518   -2.5815 H   0  0  0  0  0  0  0  0  0  0  0  0
  1  2  1  0
  2  3  2  0
  3  4  1  0
  4  5  2  3
  5  6  1  0
  6  7  2  0
  7  8  1  0
  8  9  2  0
  9 10  1  0
 10 11  2  0
 11 12  1  0
  4 13  1  0
 13 14  2  0
 14 15  1  0
 15 16  1  0
 16 17  1  0
 17 18  1  0
 18 19  1  0
 19 20  1  0
 19 21  1  0
 14 22  1  0
 22 23  2  0
 23 24  1  0
 24 25  1  0
 24  1  1  0
 23  3  1  0
 11  6  1  0
  1 26  1  0
  2 27  1  0
  7 28  1  0
  8 29  1  0
  9 30  1  0
 10 31  1  0
 12 32  1  0
 12 33  1  0
 12 34  1  0
 15 35  1  0
 16 36  1  0
 16 37  1  0
 17 38  1  0
 17 39  1  0
 18 40  1  0
 18 41  1  0
 19 42  1  0
 20 43  1  0
 20 44  1  0
 20 45  1  0
 21 46  1  0
 21 47  1  0
 21 48  1  0
 25 49  1  0
 25 50  1  0
 25 51  1  0
M  CHG  1  19   1
M  END
>  <ScrubInfo>  (6) 
{"isomerGroup": 0, "isomerId": 5, "confId": 0, "nr_conformers:": 1, "nr_isomers:": 9}

$$$$
_i6
     RDKit          3D

 51 53  0  0  0  0  0  0  0  0999 V2000
   -1.7850   -3.9273    2.9324 N   0  0  0  0  0  0  0  0  0  0  0  0
   -2.5114   -3.0156    2.1757 C   0  0  0  0  0  0  0  0  0  0  0  0
   -1.7332   -2.1205    1.5515 C   0  0  0  0  0  0  0  0  0  0  0  0
   -1.8870   -0.9809    0.6404 C   0  0  0  0  0  0  0  0  0  0  0  0
   -3.1556   -0.6051    0.2402 N   0  0  0  0  0  0  0  0  0  0  0  0
   -3.5806    0.5482   -0.4564 C   0  0  0  0  0  0  0  0  0  0  0  0
   -2.7664    1.6810   -0.6061 C   0  0  0  0  0  0  0  0  0  0  0  0
   -3.1973    2.8051   -1.3168 C   0  0  0  0  0  0  0  0  0  0  0  0
   -4.4534    2.8152   -1.9071 C   0  0  0  0  0  0  0  0  0  0  0  0
   -5.2762    1.6989   -1.7915 C   0  0  0  0  0  0  0  0  0  0  0  0
   -4.8520    0.5601   -1.0819 C   0  0  0  0  0  0  0  0  0  0  0  0
   -5.7866   -0.6197   -1.0120 C   0  0  0  0  0  0  0  0  0  0  0  0
   -0.7912   -0.3982    0.2413 N   0  0  0  0  0  0  0  0  0  0  0  0
    0.4288   -0.8632    0.6643 C   0  0  0  0  0  0  0  0  0  0  0  0
    1.4240   -0.2441    0.1286 N   0  0  0  0  0  0  0  0  0  0  0  0
    2.7686   -0.6568    0.5050 C   0  0  0  0  0  0  0  0  0  0  0  0
    3.7461    0.1081   -0.3877 C   0  0  0  0  0  0  0  0  0  0  0  0
    3.5905    1.6143   -0.1975 C   0  0  0  0  0  0  0  0  0  0  0  0
    4.4593    2.4200   -1.1467 N   0  0  0  0  0  4  0  0  0  0  0  0
    4.0312    2.3068   -2.5835 C   0  0  0  0  0  0  0  0  0  0  0  0
    5.9315    2.2084   -0.9652 C   0  0  0  0  0  0  0  0  0  0  0  0
    0.6700   -1.8669    1.5698 N   0  0  0  0  0  0  0  0  0  0  0  0
   -0.3732   -2.4789    2.0137 C   0  0  0  0  0  0  0  0  0  0  0  0
   -0.4554   -3.5232    2.9342 N   0  0  0  0  0  0  0  0  0  0  0  0
    0.5852   -4.5299    3.0295 C   0  0  0  0  0  0  0  0  0  0  0  0
   -2.1986   -4.1370    3.8450 H   0  0  0  0  0  0  0  0  0  0  0  0
   -3.5883   -3.0992    2.1582 H   0  0  0  0  0  0  0  0  0  0  0  0
   -3.9218   -1.1933    0.5370 H   0  0  0  0  0  0  0  0  0  0  0  0
   -1.7828    1.7244   -0.1487 H   0  0  0  0  0  0  0  0  0  0  0  0
   -2.5488    3.6724   -1.4031 H   0  0  0  0  0  0  0  0  0  0  0  0
   -4.7928    3.6880   -2.4587 H   0  0  0  0  0  0  0  0  0  0  0  0
   -6.2555    1.7194   -2.2661 H   0  0  0  0  0  0  0  0  0  0  0  0
   -6.1258   -0.7717    0.0177 H   0  0  0  0  0  0  0  0  0  0  0  0
   -5.2866   -1.5247   -1.3719 H   0  0  0  0  0  0  0  0  0  0  0  0
   -6.6742   -0.4706   -1.6361 H   0  0  0  0  0  0  0  0  0  0  0  0
    2.9195   -1.7308    0.3429 H   0  0  0  0  0  0  0  0  0  0  0  0
    2.9693   -0.4238    1.5575 H   0  0  0  0  0  0  0  0  0  0  0  0
    3.5614   -0.1707   -1.4309 H   0  0  0  0  0  0  0  0  0  0  0  0
    4.7658   -0.2064   -0.1405 H   0  0  0  0  0  0  0  0  0  0  0  0
    3.8788    1.9138    0.8166 H   0  0  0  0  0  0  0  0  0  0  0  0
    2.5648    1.9572   -0.3692 H   0  0  0  0  0  0  0  0  0  0  0  0
    4.2792    3.3983   -0.8866 H   0  0  0  0  0  0  0  0  0  0  0  0
    4.2900    1.3136   -2.9574 H   0  0  0  0  0  0  0  0  0  0  0  0
    4.5619    3.0770   -3.1499 H   0  0  0  0  0  0  0  0  0  0  0  0
    2.9540    2.4834   -2.6372 H   0  0  0  0  0  0  0  0  0  0  0  0
    6.1656    2.3223    0.0963 H   0  0  0  0  0  0  0  0  0  0  0  0
    6.4540    2.9739   -1.5453 H   0  0  0  0  0  0  0  0  0  0  0  0
    6.1961    1.2107   -1.3235 H   0  0  0  0  0  0  0  0  0  0  0  0
    0.6355   -5.1250    2.1117 H   0  0  0  0  0  0  0  0  0  0  0  0
    1.5600   -4.0608    3.1970 H   0  0  0  0  0  0  0  0  0  0  0  0
    0.3886   -5.2025    3.8707 H   0  0  0  0  0  0  0  0  0  0  0  0
  1  2  1  0
  2  3  2  0
  3  4  1  0
  4  5  1  0
  5  6  1  0
  6  7  2  0
  7  8  1  0
  8  9  2  0
  9 10  1  0
 10 11  2  0
 11 12  1  0
  4 13  2  0
 13 14  1  0
 14 15  2  3
 15 16  1  0
 16 17  1  0
 17 18  1  0
 18 19  1  0
 19 20  1  0
 19 21  1  0
 14 22  1  0
 22 23  2  0
 23 24  1  0
 24 25  1  0
 24  1  1  0
 23  3  1  0
 11  6  1  0
  1 26  1  0
  2 27  1  0
  5 28  1  0
  7 29  1  0
  8 30  1  0
  9 31  1  0
 10 32  1  0
 12 33  1  0
 12 34  1  0
 12 35  1  0
 16 36  1  0
 16 37  1  0
 17 38  1  0
 17 39  1  0
 18 40  1  0
 18 41  1  0
 19 42  1  0
 20 43  1  0
 20 44  1  0
 20 45  1  0
 21 46  1  0
 21 47  1  0
 21 48  1  0
 25 49  1  0
 25 50  1  0
 25 51  1  0
M  CHG  1  19   1
M  END
>  <ScrubInfo>  (7) 
{"isomerGroup": 0, "isomerId": 6, "confId": 0, "nr_conformers:": 1, "nr_isomers:": 9}

$$$$
_i7
     RDKit          3D

 51 53  0  0  0  0  0  0  0  0999 V2000
   -2.7924    0.2528   -3.0912 N   0  0  0  0  0  0  0  0  0  0  0  0
   -3.1449    0.3378   -1.7502 C   0  0  0  0  0  0  0  0  0  0  0  0
   -2.0985    0.2430   -0.9182 C   0  0  0  0  0  0  0  0  0  0  0  0
   -1.7974    0.2176    0.5235 C   0  0  0  0  0  0  0  0  0  0  0  0
   -2.5940    0.3456    1.5424 N   0  0  0  0  0  0  0  0  0  0  0  0
   -3.9669    0.5522    1.3511 C   0  0  0  0  0  0  0  0  0  0  0  0
   -4.4492    1.8627    1.2443 C   0  0  0  0  0  0  0  0  0  0  0  0
   -5.8099    2.1082    1.0616 C   0  0  0  0  0  0  0  0  0  0  0  0
   -6.7026    1.0422    0.9968 C   0  0  0  0  0  0  0  0  0  0  0  0
   -6.2375   -0.2670    1.1276 C   0  0  0  0  0  0  0  0  0  0  0  0
   -4.8713   -0.5245    1.3209 C   0  0  0  0  0  0  0  0  0  0  0  0
   -4.3931   -1.9410    1.4696 C   0  0  0  0  0  0  0  0  0  0  0  0
   -0.4651    0.0234    0.7813 N   0  0  0  0  0  0  0  0  0  0  0  0
    0.5409   -0.1268   -0.1362 C   0  0  0  0  0  0  0  0  0  0  0  0
    1.7870   -0.3297    0.1164 N   0  0  0  0  0  0  0  0  0  0  0  0
    2.2447   -0.4231    1.4905 C   0  0  0  0  0  0  0  0  0  0  0  0
    3.7177   -0.8336    1.4549 C   0  0  0  0  0  0  0  0  0  0  0  0
    4.5452    0.1544    0.6350 C   0  0  0  0  0  0  0  0  0  0  0  0
    6.0181   -0.2229    0.6596 N   0  0  0  0  0  4  0  0  0  0  0  0
    6.3222   -1.4406   -0.1725 C   0  0  0  0  0  0  0  0  0  0  0  0
    6.8782    0.9393    0.2402 C   0  0  0  0  0  0  0  0  0  0  0  0
    0.2889   -0.0552   -1.4885 N   0  0  0  0  0  0  0  0  0  0  0  0
   -0.9376    0.1301   -1.8692 C   0  0  0  0  0  0  0  0  0  0  0  0
   -1.4084    0.2480   -3.1789 N   0  0  0  0  0  0  0  0  0  0  0  0
   -0.7781   -0.4664   -4.2729 C   0  0  0  0  0  0  0  0  0  0  0  0
   -3.2890    0.9177   -3.6898 H   0  0  0  0  0  0  0  0  0  0  0  0
   -4.1892    0.4643   -1.5028 H   0  0  0  0  0  0  0  0  0  0  0  0
   -3.7569    2.6978    1.3072 H   0  0  0  0  0  0  0  0  0  0  0  0
   -6.1733    3.1293    0.9789 H   0  0  0  0  0  0  0  0  0  0  0  0
   -7.7650    1.2295    0.8588 H   0  0  0  0  0  0  0  0  0  0  0  0
   -6.9520   -1.0869    1.0894 H   0  0  0  0  0  0  0  0  0  0  0  0
   -3.8318   -2.2456    0.5808 H   0  0  0  0  0  0  0  0  0  0  0  0
   -3.7558   -2.0412    2.3542 H   0  0  0  0  0  0  0  0  0  0  0  0
   -5.2313   -2.6348    1.5942 H   0  0  0  0  0  0  0  0  0  0  0  0
   -0.2450   -0.0196    1.7626 H   0  0  0  0  0  0  0  0  0  0  0  0
    2.1403    0.5421    1.9995 H   0  0  0  0  0  0  0  0  0  0  0  0
    1.6820   -1.1795    2.0496 H   0  0  0  0  0  0  0  0  0  0  0  0
    4.1007   -0.8897    2.4805 H   0  0  0  0  0  0  0  0  0  0  0  0
    3.7894   -1.8391    1.0257 H   0  0  0  0  0  0  0  0  0  0  0  0
    4.2444    0.2022   -0.4169 H   0  0  0  0  0  0  0  0  0  0  0  0
    4.4660    1.1551    1.0748 H   0  0  0  0  0  0  0  0  0  0  0  0
    6.2689   -0.4422    1.6318 H   0  0  0  0  0  0  0  0  0  0  0  0
    5.7909   -2.2952    0.2504 H   0  0  0  0  0  0  0  0  0  0  0  0
    7.3988   -1.6254   -0.1209 H   0  0  0  0  0  0  0  0  0  0  0  0
    6.0099   -1.2492   -1.2025 H   0  0  0  0  0  0  0  0  0  0  0  0
    6.6849    1.7698    0.9243 H   0  0  0  0  0  0  0  0  0  0  0  0
    6.6238    1.2090   -0.7884 H   0  0  0  0  0  0  0  0  0  0  0  0
    7.9249    0.6338    0.3191 H   0  0  0  0  0  0  0  0  0  0  0  0
    0.2898   -0.2308   -4.3227 H   0  0  0  0  0  0  0  0  0  0  0  0
   -0.8933   -1.5482   -4.1484 H   0  0  0  0  0  0  0  0  0  0  0  0
   -1.2286   -0.1759   -5.2276 H   0  0  0  0  0  0  0  0  0  0  0  0
  1  2  1  0
  2  3  2  0
  3  4  1  0
  4  5  2  3
  5  6  1  0
  6  7  2  0
  7  8  1  0
  8  9  2  0
  9 10  1  0
 10 11  2  0
 11 12  1  0
  4 13  1  0
 13 14  1  0
 14 15  2  3
 15 16  1  0
 16 17  1  0
 17 18  1  0
 18 19  1  0
 19 20  1  0
 19 21  1  0
 14 22  1  0
 22 23  2  0
 23 24  1  0
 24 25  1  0
 24  1  1  0
 23  3  1  0
 11  6  1  0
  1 26  1  0
  2 27  1  0
  7 28  1  0
  8 29  1  0
  9 30  1  0
 10 31  1  0
 12 32  1  0
 12 33  1  0
 12 34  1  0
 13 35  1  0
 16 36  1  0
 16 37  1  0
 17 38  1  0
 17 39  1  0
 18 40  1  0
 18 41  1  0
 19 42  1  0
 20 43  1  0
 20 44  1  0
 20 45  1  0
 21 46  1  0
 21 47  1  0
 21 48  1  0
 25 49  1  0
 25 50  1  0
 25 51  1  0
M  CHG  1  19   1
M  END
>  <ScrubInfo>  (8) 
{"isomerGroup": 0, "isomerId": 7, "confId": 0, "nr_conformers:": 1, "nr_isomers:": 9}

$$$$
_i8
     RDKit          3D

 51 53  0  0  0  0  0  0  0  0999 V2000
   -0.0773   -1.1042   -1.4417 N   0  0  0  0  0  0  0  0  0  0  0  0
    0.5038   -0.2207   -0.5469 C   0  0  0  0  0  0  0  0  0  0  0  0
    1.7420    0.1481   -0.4821 N   0  0  0  0  0  0  0  0  0  0  0  0
    2.6830   -0.3969   -1.4500 C   0  0  0  0  0  0  0  0  0  0  0  0
    4.0234    0.3127   -1.2521 C   0  0  0  0  0  0  0  0  0  0  0  0
    4.5518    0.1131    0.1664 C   0  0  0  0  0  0  0  0  0  0  0  0
    5.9273    0.7406    0.3261 N   0  0  0  0  0  4  0  0  0  0  0  0
    6.6245    0.2092    1.5512 C   0  0  0  0  0  0  0  0  0  0  0  0
    5.8903    2.2461    0.3439 C   0  0  0  0  0  0  0  0  0  0  0  0
   -0.3872    0.2945    0.3677 N   0  0  0  0  0  0  0  0  0  0  0  0
   -1.7385    0.0922    0.5512 C   0  0  0  0  0  0  0  0  0  0  0  0
   -2.3734    0.7028    1.5052 N   0  0  0  0  0  0  0  0  0  0  0  0
   -3.7432    0.5187    1.7236 C   0  0  0  0  0  0  0  0  0  0  0  0
   -4.1626   -0.4927    2.5971 C   0  0  0  0  0  0  0  0  0  0  0  0
   -5.5185   -0.6953    2.8534 C   0  0  0  0  0  0  0  0  0  0  0  0
   -6.4670    0.1237    2.2478 C   0  0  0  0  0  0  0  0  0  0  0  0
   -6.0604    1.1526    1.3973 C   0  0  0  0  0  0  0  0  0  0  0  0
   -4.6979    1.3708    1.1395 C   0  0  0  0  0  0  0  0  0  0  0  0
   -4.2820    2.4886    0.2262 C   0  0  0  0  0  0  0  0  0  0  0  0
   -2.2588   -0.8405   -0.4313 C   0  0  0  0  0  0  0  0  0  0  0  0
   -3.5042   -1.4094   -0.7546 C   0  0  0  0  0  0  0  0  0  0  0  0
   -3.4363   -2.2413   -1.8038 N   0  0  0  0  0  0  0  0  0  0  0  0
   -2.1361   -2.2130   -2.1597 N   0  0  0  0  0  0  0  0  0  0  0  0
   -1.7046   -3.0049   -3.2844 C   0  0  0  0  0  0  0  0  0  0  0  0
   -1.4015   -1.3838   -1.3663 C   0  0  0  0  0  0  0  0  0  0  0  0
    0.5099   -1.5127   -2.1553 H   0  0  0  0  0  0  0  0  0  0  0  0
    2.3418   -0.2187   -2.4764 H   0  0  0  0  0  0  0  0  0  0  0  0
    2.8081   -1.4759   -1.3024 H   0  0  0  0  0  0  0  0  0  0  0  0
    4.7446   -0.0754   -1.9809 H   0  0  0  0  0  0  0  0  0  0  0  0
    3.8897    1.3795   -1.4629 H   0  0  0  0  0  0  0  0  0  0  0  0
    3.9048    0.5558    0.9311 H   0  0  0  0  0  0  0  0  0  0  0  0
    4.6662   -0.9574    0.3710 H   0  0  0  0  0  0  0  0  0  0  0  0
    6.4966    0.4573   -0.4817 H   0  0  0  0  0  0  0  0  0  0  0  0
    6.7050   -0.8766    1.4523 H   0  0  0  0  0  0  0  0  0  0  0  0
    7.6240    0.6502    1.5920 H   0  0  0  0  0  0  0  0  0  0  0  0
    6.0376    0.4820    2.4324 H   0  0  0  0  0  0  0  0  0  0  0  0
    5.5182    2.5978   -0.6201 H   0  0  0  0  0  0  0  0  0  0  0  0
    5.2425    2.5713    1.1622 H   0  0  0  0  0  0  0  0  0  0  0  0
    6.9119    2.6084    0.4889 H   0  0  0  0  0  0  0  0  0  0  0  0
    0.0060    0.9502    1.0260 H   0  0  0  0  0  0  0  0  0  0  0  0
   -3.4248   -1.1281    3.0791 H   0  0  0  0  0  0  0  0  0  0  0  0
   -5.8333   -1.4880    3.5271 H   0  0  0  0  0  0  0  0  0  0  0  0
   -7.5252   -0.0314    2.4448 H   0  0  0  0  0  0  0  0  0  0  0  0
   -6.8156    1.7898    0.9418 H   0  0  0  0  0  0  0  0  0  0  0  0
   -3.5027    3.0987    0.6943 H   0  0  0  0  0  0  0  0  0  0  0  0
   -5.1220    3.1542    0.0009 H   0  0  0  0  0  0  0  0  0  0  0  0
   -3.9080    2.0845   -0.7197 H   0  0  0  0  0  0  0  0  0  0  0  0
   -4.4689   -1.2648   -0.2866 H   0  0  0  0  0  0  0  0  0  0  0  0
   -1.9089   -2.4392   -4.1965 H   0  0  0  0  0  0  0  0  0  0  0  0
   -0.6361   -3.2133   -3.1972 H   0  0  0  0  0  0  0  0  0  0  0  0
   -2.2578   -3.9479   -3.2881 H   0  0  0  0  0  0  0  0  0  0  0  0
  1  2  1  0
  2  3  2  3
  3  4  1  0
  4  5  1  0
  5  6  1  0
  6  7  1  0
  7  8  1  0
  7  9  1  0
  2 10  1  0
 10 11  1  0
 11 12  2  3
 12 13  1  0
 13 14  2  0
 14 15  1  0
 15 16  2  0
 16 17  1  0
 17 18  2  0
 18 19  1  0
 11 20  1  0
 20 21  1  0
 21 22  2  0
 22 23  1  0
 23 24  1  0
 23 25  1  0
 25  1  1  0
 18 13  1  0
 25 20  2  0
  1 26  1  0
  4 27  1  0
  4 28  1  0
  5 29  1  0
  5 30  1  0
  6 31  1  0
  6 32  1  0
  7 33  1  0
  8 34  1  0
  8 35  1  0
  8 36  1  0
  9 37  1  0
  9 38  1  0
  9 39  1  0
 10 40  1  0
 14 41  1  0
 15 42  1  0
 16 43  1  0
 17 44  1  0
 19 45  1  0
 19 46  1  0
 19 47  1  0
 21 48  1  0
 24 49  1  0
 24 50  1  0
 24 51  1  0
M  CHG  1   7   1
M  END
>  <ScrubInfo>  (9) 
{"isomerGroup": 0, "isomerId": 8, "confId": 0, "nr_conformers:": 1, "nr_isomers:": 9}

$$$$
