_i0
     RDKit          3D

 49 51  0  0  0  0  0  0  0  0999 V2000
   -2.6395    0.3917    2.2491 C   0  0  0  0  0  0  0  0  0  0  0  0
   -3.8366    0.2782    1.3456 C   0  0  0  0  0  0  0  0  0  0  0  0
   -5.0275   -0.2515    1.8704 C   0  0  0  0  0  0  0  0  0  0  0  0
   -6.1620   -0.3672    1.0743 C   0  0  0  0  0  0  0  0  0  0  0  0
   -7.2876   -0.8828    1.6446 O   0  0  0  0  0  0  0  0  0  0  0  0
   -6.1429    0.0361   -0.2532 C   0  0  0  0  0  0  0  0  0  0  0  0
   -4.9622    0.5504   -0.7895 C   0  0  0  0  0  0  0  0  0  0  0  0
   -3.7970    0.6525   -0.0121 C   0  0  0  0  0  0  0  0  0  0  0  0
   -2.6478    1.1938   -0.6295 N   0  0  0  0  0  0  0  0  0  0  0  0
   -1.4149    0.5258   -0.7595 C   0  0  0  0  0  0  0  0  0  0  0  0
   -0.2946    1.2831   -0.6429 N   0  0  0  0  0  0  0  0  0  0  0  0
    0.9213    0.7151   -0.7518 C   0  0  0  0  0  0  0  0  0  0  0  0
    1.9800    1.5999   -0.5930 N   0  0  0  0  0  0  0  0  0  0  0  0
    3.1723    1.3307   -1.3780 C   0  0  0  0  0  0  0  0  0  0  0  0
    4.1740    0.4515   -0.6202 C   0  0  0  0  0  0  0  0  0  0  0  0
    4.6340    1.0062    0.7435 C   0  0  0  0  0  0  0  0  0  0  0  0
    5.5710    0.0013    1.4195 C   0  0  0  0  0  0  0  0  0  0  0  0
    5.3335    2.3603    0.6189 C   0  0  0  0  0  0  0  0  0  0  0  0
    1.1586   -0.5810   -0.9893 N   0  0  0  0  0  0  0  0  0  0  0  0
    0.0370   -1.3058   -1.1076 C   0  0  0  0  0  0  0  0  0  0  0  0
   -1.2580   -0.8386   -1.0104 C   0  0  0  0  0  0  0  0  0  0  0  0
   -2.0589   -1.9812   -1.2131 C   0  0  0  0  0  0  0  0  0  0  0  0
   -1.3397   -3.0909   -1.4236 N   0  0  0  0  0  0  0  0  0  0  0  0
   -0.0631   -2.6489   -1.3457 N   0  0  0  0  0  0  0  0  0  0  0  0
    1.0219   -3.5823   -1.5130 C   0  0  0  0  0  0  0  0  0  0  0  0
   -2.9361    0.3628    3.3034 H   0  0  0  0  0  0  0  0  0  0  0  0
   -2.1207    1.3432    2.0957 H   0  0  0  0  0  0  0  0  0  0  0  0
   -1.9482   -0.4368    2.0688 H   0  0  0  0  0  0  0  0  0  0  0  0
   -5.0789   -0.5714    2.9087 H   0  0  0  0  0  0  0  0  0  0  0  0
   -7.9893   -0.9148    0.9740 H   0  0  0  0  0  0  0  0  0  0  0  0
   -7.0237   -0.0408   -0.8818 H   0  0  0  0  0  0  0  0  0  0  0  0
   -4.9416    0.8654   -1.8307 H   0  0  0  0  0  0  0  0  0  0  0  0
   -2.4187    2.1044   -0.2343 H   0  0  0  0  0  0  0  0  0  0  0  0
    1.5816    2.5241   -0.7211 H   0  0  0  0  0  0  0  0  0  0  0  0
    2.9261    0.8740   -2.3456 H   0  0  0  0  0  0  0  0  0  0  0  0
    3.6461    2.2883   -1.6218 H   0  0  0  0  0  0  0  0  0  0  0  0
    5.0508    0.3023   -1.2637 H   0  0  0  0  0  0  0  0  0  0  0  0
    3.7394   -0.5434   -0.4648 H   0  0  0  0  0  0  0  0  0  0  0  0
    3.7597    1.1301    1.3943 H   0  0  0  0  0  0  0  0  0  0  0  0
    5.8775    0.3589    2.4083 H   0  0  0  0  0  0  0  0  0  0  0  0
    5.0731   -0.9647    1.5552 H   0  0  0  0  0  0  0  0  0  0  0  0
    6.4750   -0.1632    0.8233 H   0  0  0  0  0  0  0  0  0  0  0  0
    5.7131    2.6921    1.5914 H   0  0  0  0  0  0  0  0  0  0  0  0
    4.6461    3.1325    0.2606 H   0  0  0  0  0  0  0  0  0  0  0  0
    6.1803    2.3075   -0.0737 H   0  0  0  0  0  0  0  0  0  0  0  0
   -3.1391   -2.0513   -1.2155 H   0  0  0  0  0  0  0  0  0  0  0  0
    0.9491   -4.0180   -2.5127 H   0  0  0  0  0  0  0  0  0  0  0  0
    0.9282   -4.3591   -0.7498 H   0  0  0  0  0  0  0  0  0  0  0  0
    1.9793   -3.0685   -1.4015 H   0  0  0  0  0  0  0  0  0  0  0  0
  1  2  1  0
  2  3  2  0
  3  4  1  0
  4  5  1  0
  4  6  2  0
  6  7  1  0
  7  8  2  0
  8  9  1  0
  9 10  1  0
 10 11  2  0
 11 12  1  0
 12 13  1  0
 13 14  1  0
 14 15  1  0
 15 16  1  0
 16 17  1  0
 16 18  1  0
 12 19  2  0
 19 20  1  0
 20 21  2  0
 21 22  1  0
 22 23  2  0
 23 24  1  0
 24 25  1  0
  8  2  1  0
 21 10  1  0
 24 20  1  0
  1 26  1  0
  1 27  1  0
  1 28  1  0
  3 29  1  0
  5 30  1  0
  6 31  1  0
  7 32  1  0
  9 33  1  0
 13 34  1  0
 14 35  1  0
 14 36  1  0
 15 37  1  0
 15 38  1  0
 16 39  1  0
 17 40  1  0
 17 41  1  0
 17 42  1  0
 18 43  1  0
 18 44  1  0
 18 45  1  0
 22 46  1  0
 25 47  1  0
 25 48  1  0
 25 49  1  0
M  END
>  <ScrubInfo>  (1) 
{"isomerGroup": 0, "isomerId": 0, "confId": 0, "nr_conformers:": 1, "nr_isomers:": 9}

$$$$
_i1
     RDKit          3D

 49 51  0  0  0  0  0  0  0  0999 V2000
   -1.0282    0.1949   -0.1914 N   0  0  0  0  0  0  0  0  0  0  0  0
    0.2907    0.3540   -0.5615 C   0  0  0  0  0  0  0  0  0  0  0  0
    1.1582    0.0769    0.4633 N   0  0  0  0  0  0  0  0  0  0  0  0
    2.5924    0.2820    0.2893 C   0  0  0  0  0  0  0  0  0  0  0  0
    3.3338   -0.2533    1.5170 C   0  0  0  0  0  0  0  0  0  0  0  0
    4.8674   -0.1189    1.4710 C   0  0  0  0  0  0  0  0  0  0  0  0
    5.3218    1.3390    1.4026 C   0  0  0  0  0  0  0  0  0  0  0  0
    5.4889   -0.9263    0.3314 C   0  0  0  0  0  0  0  0  0  0  0  0
    0.6774    0.7182   -1.7582 N   0  0  0  0  0  0  0  0  0  0  0  0
   -0.3829    0.9318   -2.5869 C   0  0  0  0  0  0  0  0  0  0  0  0
   -1.7269    0.7922   -2.3033 C   0  0  0  0  0  0  0  0  0  0  0  0
   -2.3938    1.1271   -3.4891 C   0  0  0  0  0  0  0  0  0  0  0  0
   -1.5449    1.4646   -4.4694 N   0  0  0  0  0  0  0  0  0  0  0  0
   -0.3236    1.3321   -3.8928 N   0  0  0  0  0  0  0  0  0  0  0  0
    0.8578    1.6101   -4.6693 C   0  0  0  0  0  0  0  0  0  0  0  0
   -2.1388    0.3656   -0.9917 C   0  0  0  0  0  0  0  0  0  0  0  0
   -3.3977    0.1988   -0.7568 N   0  0  0  0  0  0  0  0  0  0  0  0
   -3.7704   -0.2204    0.5285 C   0  0  0  0  0  0  0  0  0  0  0  0
   -4.0957    0.7484    1.4869 C   0  0  0  0  0  0  0  0  0  0  0  0
   -4.4502    0.3791    2.7850 C   0  0  0  0  0  0  0  0  0  0  0  0
   -4.4821   -0.9685    3.1200 C   0  0  0  0  0  0  0  0  0  0  0  0
   -4.8140   -1.3797    4.3764 O   0  0  0  0  0  0  0  0  0  0  0  0
   -4.1788   -1.9467    2.1783 C   0  0  0  0  0  0  0  0  0  0  0  0
   -3.8372   -1.5841    0.8668 C   0  0  0  0  0  0  0  0  0  0  0  0
   -3.5233   -2.6504   -0.1446 C   0  0  0  0  0  0  0  0  0  0  0  0
   -1.1990   -0.2402    0.6999 H   0  0  0  0  0  0  0  0  0  0  0  0
    0.8295    0.3746    1.3741 H   0  0  0  0  0  0  0  0  0  0  0  0
    2.7873    1.3515    0.1586 H   0  0  0  0  0  0  0  0  0  0  0  0
    2.9292   -0.2437   -0.6101 H   0  0  0  0  0  0  0  0  0  0  0  0
    3.0763   -1.3119    1.6562 H   0  0  0  0  0  0  0  0  0  0  0  0
    2.9633    0.2633    2.4127 H   0  0  0  0  0  0  0  0  0  0  0  0
    5.2498   -0.5361    2.4121 H   0  0  0  0  0  0  0  0  0  0  0  0
    4.8694    1.9267    2.2081 H   0  0  0  0  0  0  0  0  0  0  0  0
    5.0564    1.8042    0.4480 H   0  0  0  0  0  0  0  0  0  0  0  0
    6.4097    1.4067    1.5115 H   0  0  0  0  0  0  0  0  0  0  0  0
    5.2298   -0.5141   -0.6490 H   0  0  0  0  0  0  0  0  0  0  0  0
    5.1550   -1.9686    0.3645 H   0  0  0  0  0  0  0  0  0  0  0  0
    6.5814   -0.9238    0.4117 H   0  0  0  0  0  0  0  0  0  0  0  0
   -3.4588    1.1398   -3.6815 H   0  0  0  0  0  0  0  0  0  0  0  0
    0.8129    2.6499   -5.0030 H   0  0  0  0  0  0  0  0  0  0  0  0
    0.8717    0.9338   -5.5279 H   0  0  0  0  0  0  0  0  0  0  0  0
    1.7523    1.4550   -4.0622 H   0  0  0  0  0  0  0  0  0  0  0  0
   -4.0733    1.8000    1.2110 H   0  0  0  0  0  0  0  0  0  0  0  0
   -4.6965    1.1492    3.5087 H   0  0  0  0  0  0  0  0  0  0  0  0
   -5.0856   -0.6059    4.8971 H   0  0  0  0  0  0  0  0  0  0  0  0
   -4.2239   -2.9936    2.4689 H   0  0  0  0  0  0  0  0  0  0  0  0
   -4.0528   -2.4604   -1.0839 H   0  0  0  0  0  0  0  0  0  0  0  0
   -2.4462   -2.6845   -0.3351 H   0  0  0  0  0  0  0  0  0  0  0  0
   -3.8378   -3.6384    0.2082 H   0  0  0  0  0  0  0  0  0  0  0  0
  1  2  1  0
  2  3  1  0
  3  4  1  0
  4  5  1  0
  5  6  1  0
  6  7  1  0
  6  8  1  0
  2  9  2  0
  9 10  1  0
 10 11  2  0
 11 12  1  0
 12 13  2  0
 13 14  1  0
 14 15  1  0
 11 16  1  0
 16 17  2  3
 17 18  1  0
 18 19  2  0
 19 20  1  0
 20 21  2  0
 21 22  1  0
 21 23  1  0
 23 24  2  0
 24 25  1  0
 16  1  1  0
 24 18  1  0
 14 10  1  0
  1 26  1  0
  3 27  1  0
  4 28  1  0
  4 29  1  0
  5 30  1  0
  5 31  1  0
  6 32  1  0
  7 33  1  0
  7 34  1  0
  7 35  1  0
  8 36  1  0
  8 37  1  0
  8 38  1  0
 12 39  1  0
 15 40  1  0
 15 41  1  0
 15 42  1  0
 19 43  1  0
 20 44  1  0
 22 45  1  0
 23 46  1  0
 25 47  1  0
 25 48  1  0
 25 49  1  0
M  END
>  <ScrubInfo>  (2) 
{"isomerGroup": 0, "isomerId": 1, "confId": 0, "nr_conformers:": 1, "nr_isomers:": 9}

$$$$
_i2
     RDKit          3D

 49 51  0  0  0  0  0  0  0  0999 V2000
   -0.3775   -0.2995   -0.0114 N   0  0  0  0  0  0  0  0  0  0  0  0
   -1.4467   -0.9641   -0.5799 C   0  0  0  0  0  0  0  0  0  0  0  0
   -2.5710   -0.3098   -1.0497 N   0  0  0  0  0  0  0  0  0  0  0  0
   -3.1516    0.8912   -0.5836 C   0  0  0  0  0  0  0  0  0  0  0  0
   -2.9060    1.3849    0.7081 C   0  0  0  0  0  0  0  0  0  0  0  0
   -3.4660    2.5881    1.1416 C   0  0  0  0  0  0  0  0  0  0  0  0
   -4.2747    3.3161    0.2846 C   0  0  0  0  0  0  0  0  0  0  0  0
   -4.8027    4.4838    0.7474 O   0  0  0  0  0  0  0  0  0  0  0  0
   -4.5334    2.8608   -1.0031 C   0  0  0  0  0  0  0  0  0  0  0  0
   -3.9704    1.6517   -1.4511 C   0  0  0  0  0  0  0  0  0  0  0  0
   -4.2536    1.1995   -2.8594 C   0  0  0  0  0  0  0  0  0  0  0  0
   -1.2878   -2.2897   -0.6819 C   0  0  0  0  0  0  0  0  0  0  0  0
   -2.0587   -3.4460   -1.1516 C   0  0  0  0  0  0  0  0  0  0  0  0
   -1.4368   -4.5846   -0.9792 N   0  0  0  0  0  0  0  0  0  0  0  0
   -0.1907   -4.2478   -0.4264 N   0  0  0  0  0  0  0  0  0  0  0  0
    0.6219   -5.2872    0.1571 C   0  0  0  0  0  0  0  0  0  0  0  0
   -0.0353   -2.8942   -0.1735 C   0  0  0  0  0  0  0  0  0  0  0  0
    0.9413   -2.2548    0.3747 N   0  0  0  0  0  0  0  0  0  0  0  0
    0.7741   -0.8886    0.4390 C   0  0  0  0  0  0  0  0  0  0  0  0
    1.7075   -0.1355    0.9195 N   0  0  0  0  0  0  0  0  0  0  0  0
    2.9275   -0.7976    1.3812 C   0  0  0  0  0  0  0  0  0  0  0  0
    3.9253    0.2590    1.8655 C   0  0  0  0  0  0  0  0  0  0  0  0
    4.7494    0.9274    0.7459 C   0  0  0  0  0  0  0  0  0  0  0  0
    5.7983    1.8558    1.3656 C   0  0  0  0  0  0  0  0  0  0  0  0
    3.8942    1.7127   -0.2482 C   0  0  0  0  0  0  0  0  0  0  0  0
   -0.3960    0.7100   -0.0198 H   0  0  0  0  0  0  0  0  0  0  0  0
   -3.2196   -0.8726   -1.5890 H   0  0  0  0  0  0  0  0  0  0  0  0
   -2.3026    0.8224    1.4161 H   0  0  0  0  0  0  0  0  0  0  0  0
   -3.2736    2.9491    2.1481 H   0  0  0  0  0  0  0  0  0  0  0  0
   -5.3286    4.8921    0.0405 H   0  0  0  0  0  0  0  0  0  0  0  0
   -5.1653    3.4406   -1.6698 H   0  0  0  0  0  0  0  0  0  0  0  0
   -4.8135    1.9549   -3.4208 H   0  0  0  0  0  0  0  0  0  0  0  0
   -4.8505    0.2820   -2.8482 H   0  0  0  0  0  0  0  0  0  0  0  0
   -3.3178    1.0210   -3.3991 H   0  0  0  0  0  0  0  0  0  0  0  0
   -3.0633   -3.3253   -1.5758 H   0  0  0  0  0  0  0  0  0  0  0  0
    0.5212   -6.2207   -0.4060 H   0  0  0  0  0  0  0  0  0  0  0  0
    0.3174   -5.4724    1.1919 H   0  0  0  0  0  0  0  0  0  0  0  0
    1.6799   -5.0061    0.1500 H   0  0  0  0  0  0  0  0  0  0  0  0
    3.3845   -1.4042    0.5902 H   0  0  0  0  0  0  0  0  0  0  0  0
    2.6872   -1.4516    2.2287 H   0  0  0  0  0  0  0  0  0  0  0  0
    4.6276   -0.2401    2.5462 H   0  0  0  0  0  0  0  0  0  0  0  0
    3.4055    1.0234    2.4573 H   0  0  0  0  0  0  0  0  0  0  0  0
    5.2836    0.1452    0.1916 H   0  0  0  0  0  0  0  0  0  0  0  0
    6.4532    1.3038    2.0481 H   0  0  0  0  0  0  0  0  0  0  0  0
    5.3265    2.6677    1.9296 H   0  0  0  0  0  0  0  0  0  0  0  0
    6.4294    2.3034    0.5904 H   0  0  0  0  0  0  0  0  0  0  0  0
    4.5254    2.2573   -0.9590 H   0  0  0  0  0  0  0  0  0  0  0  0
    3.2559    1.0466   -0.8360 H   0  0  0  0  0  0  0  0  0  0  0  0
    3.2569    2.4417    0.2635 H   0  0  0  0  0  0  0  0  0  0  0  0
  1  2  1  0
  2  3  1  0
  3  4  1  0
  4  5  2  0
  5  6  1  0
  6  7  2  0
  7  8  1  0
  7  9  1  0
  9 10  2  0
 10 11  1  0
  2 12  2  0
 12 13  1  0
 13 14  2  0
 14 15  1  0
 15 16  1  0
 15 17  1  0
 17 18  2  0
 18 19  1  0
 19 20  2  3
 20 21  1  0
 21 22  1  0
 22 23  1  0
 23 24  1  0
 23 25  1  0
 19  1  1  0
 10  4  1  0
 17 12  1  0
  1 26  1  0
  3 27  1  0
  5 28  1  0
  6 29  1  0
  8 30  1  0
  9 31  1  0
 11 32  1  0
 11 33  1  0
 11 34  1  0
 13 35  1  0
 16 36  1  0
 16 37  1  0
 16 38  1  0
 21 39  1  0
 21 40  1  0
 22 41  1  0
 22 42  1  0
 23 43  1  0
 24 44  1  0
 24 45  1  0
 24 46  1  0
 25 47  1  0
 25 48  1  0
 25 49  1  0
M  END
>  <ScrubInfo>  (3) 
{"isomerGroup": 0, "isomerId": 2, "confId": 0, "nr_conformers:": 1, "nr_isomers:": 9}

$$$$
_i3
     RDKit          3D

 49 51  0  0  0  0  0  0  0  0999 V2000
    1.0049   -2.9492   -0.9863 N   0  0  0  0  0  0  0  0  0  0  0  0
    1.1679   -1.6275   -0.6384 C   0  0  0  0  0  0  0  0  0  0  0  0
    2.3708   -1.1512   -0.6047 N   0  0  0  0  0  0  0  0  0  0  0  0
    2.5086    0.2592   -0.2278 C   0  0  0  0  0  0  0  0  0  0  0  0
    3.9995    0.6063   -0.2358 C   0  0  0  0  0  0  0  0  0  0  0  0
    4.3385    2.0615    0.1378 C   0  0  0  0  0  0  0  0  0  0  0  0
    3.9215    2.4077    1.5672 C   0  0  0  0  0  0  0  0  0  0  0  0
    3.7477    3.0688   -0.8488 C   0  0  0  0  0  0  0  0  0  0  0  0
    0.0870   -0.8190   -0.3310 N   0  0  0  0  0  0  0  0  0  0  0  0
   -1.1239   -1.2963   -0.3700 C   0  0  0  0  0  0  0  0  0  0  0  0
   -2.2981   -0.6414   -0.0826 N   0  0  0  0  0  0  0  0  0  0  0  0
   -2.5094    0.7306    0.1797 C   0  0  0  0  0  0  0  0  0  0  0  0
   -1.5375    1.7063   -0.0920 C   0  0  0  0  0  0  0  0  0  0  0  0
   -1.7522    3.0559    0.2000 C   0  0  0  0  0  0  0  0  0  0  0  0
   -2.9445    3.4509    0.7799 C   0  0  0  0  0  0  0  0  0  0  0  0
   -3.1158    4.7759    1.0474 O   0  0  0  0  0  0  0  0  0  0  0  0
   -3.9273    2.5154    1.0771 C   0  0  0  0  0  0  0  0  0  0  0  0
   -3.7187    1.1520    0.7902 C   0  0  0  0  0  0  0  0  0  0  0  0
   -4.8090    0.1762    1.1502 C   0  0  0  0  0  0  0  0  0  0  0  0
   -1.3320   -2.6883   -0.7360 C   0  0  0  0  0  0  0  0  0  0  0  0
   -2.4107   -3.5735   -0.9033 C   0  0  0  0  0  0  0  0  0  0  0  0
   -2.0163   -4.8032   -1.2673 N   0  0  0  0  0  0  0  0  0  0  0  0
   -0.6657   -4.7024   -1.3396 N   0  0  0  0  0  0  0  0  0  0  0  0
    0.1074   -5.8586   -1.7154 C   0  0  0  0  0  0  0  0  0  0  0  0
   -0.2354   -3.4532   -1.0290 C   0  0  0  0  0  0  0  0  0  0  0  0
    1.8646   -3.4408   -1.1896 H   0  0  0  0  0  0  0  0  0  0  0  0
    1.9787    0.8929   -0.9473 H   0  0  0  0  0  0  0  0  0  0  0  0
    2.0958    0.4246    0.7734 H   0  0  0  0  0  0  0  0  0  0  0  0
    4.4092    0.3923   -1.2320 H   0  0  0  0  0  0  0  0  0  0  0  0
    4.5256   -0.0679    0.4533 H   0  0  0  0  0  0  0  0  0  0  0  0
    5.4314    2.1553    0.0849 H   0  0  0  0  0  0  0  0  0  0  0  0
    4.3005    3.3964    1.8479 H   0  0  0  0  0  0  0  0  0  0  0  0
    4.3274    1.6812    2.2788 H   0  0  0  0  0  0  0  0  0  0  0  0
    2.8329    2.4278    1.6808 H   0  0  0  0  0  0  0  0  0  0  0  0
    4.0276    2.8179   -1.8771 H   0  0  0  0  0  0  0  0  0  0  0  0
    2.6552    3.1049   -0.7896 H   0  0  0  0  0  0  0  0  0  0  0  0
    4.1225    4.0764   -0.6379 H   0  0  0  0  0  0  0  0  0  0  0  0
   -3.1466   -1.1847   -0.0865 H   0  0  0  0  0  0  0  0  0  0  0  0
   -0.5932    1.4432   -0.5590 H   0  0  0  0  0  0  0  0  0  0  0  0
   -0.9850    3.7902   -0.0285 H   0  0  0  0  0  0  0  0  0  0  0  0
   -3.9837    4.9012    1.4638 H   0  0  0  0  0  0  0  0  0  0  0  0
   -4.8582    2.8330    1.5381 H   0  0  0  0  0  0  0  0  0  0  0  0
   -5.2254   -0.2758    0.2443 H   0  0  0  0  0  0  0  0  0  0  0  0
   -5.6306    0.6655    1.6842 H   0  0  0  0  0  0  0  0  0  0  0  0
   -4.4175   -0.6080    1.8063 H   0  0  0  0  0  0  0  0  0  0  0  0
   -3.4703   -3.3943   -0.7814 H   0  0  0  0  0  0  0  0  0  0  0  0
   -0.0884   -6.6539   -0.9918 H   0  0  0  0  0  0  0  0  0  0  0  0
    1.1712   -5.6122   -1.7153 H   0  0  0  0  0  0  0  0  0  0  0  0
   -0.2013   -6.1682   -2.7171 H   0  0  0  0  0  0  0  0  0  0  0  0
  1  2  1  0
  2  3  2  3
  3  4  1  0
  4  5  1  0
  5  6  1  0
  6  7  1  0
  6  8  1  0
  2  9  1  0
  9 10  2  0
 10 11  1  0
 11 12  1  0
 12 13  2  0
 13 14  1  0
 14 15  2  0
 15 16  1  0
 15 17  1  0
 17 18  2  0
 18 19  1  0
 10 20  1  0
 20 21  1  0
 21 22  2  0
 22 23  1  0
 23 24  1  0
 23 25  1  0
 25  1  1  0
 18 12  1  0
 25 20  2  0
  1 26  1  0
  4 27  1  0
  4 28  1  0
  5 29  1  0
  5 30  1  0
  6 31  1  0
  7 32  1  0
  7 33  1  0
  7 34  1  0
  8 35  1  0
  8 36  1  0
  8 37  1  0
 11 38  1  0
 13 39  1  0
 14 40  1  0
 16 41  1  0
 17 42  1  0
 19 43  1  0
 19 44  1  0
 19 45  1  0
 21 46  1  0
 24 47  1  0
 24 48  1  0
 24 49  1  0
M  END
>  <ScrubInfo>  (4) 
{"isomerGroup": 0, "isomerId": 3, "confId": 0, "nr_conformers:": 1, "nr_isomers:": 9}

$$$$
_i4
     RDKit          3D

 49 51  0  0  0  0  0  0  0  0999 V2000
    0.5878   -1.6869   -0.5661 N   0  0  0  0  0  0  0  0  0  0  0  0
    1.0222   -0.6627    0.2360 C   0  0  0  0  0  0  0  0  0  0  0  0
    2.3786   -0.5612    0.3641 N   0  0  0  0  0  0  0  0  0  0  0  0
    3.2348   -0.4053   -0.8057 C   0  0  0  0  0  0  0  0  0  0  0  0
    4.7134   -0.4339   -0.4084 C   0  0  0  0  0  0  0  0  0  0  0  0
    5.1860    0.7176    0.5020 C   0  0  0  0  0  0  0  0  0  0  0  0
    6.6728    0.5412    0.8248 C   0  0  0  0  0  0  0  0  0  0  0  0
    4.9533    2.0935   -0.1227 C   0  0  0  0  0  0  0  0  0  0  0  0
    0.2587    0.1750    0.8763 N   0  0  0  0  0  0  0  0  0  0  0  0
   -1.1238    0.0789    0.7607 C   0  0  0  0  0  0  0  0  0  0  0  0
   -1.8065    0.9875    1.3818 N   0  0  0  0  0  0  0  0  0  0  0  0
   -3.2023    1.0252    1.3601 C   0  0  0  0  0  0  0  0  0  0  0  0
   -3.9146    0.3691    2.3722 C   0  0  0  0  0  0  0  0  0  0  0  0
   -5.3084    0.4000    2.3949 C   0  0  0  0  0  0  0  0  0  0  0  0
   -5.9918    1.1033    1.4127 C   0  0  0  0  0  0  0  0  0  0  0  0
   -7.3541    1.1052    1.4660 O   0  0  0  0  0  0  0  0  0  0  0  0
   -5.3044    1.7872    0.4130 C   0  0  0  0  0  0  0  0  0  0  0  0
   -3.9001    1.7678    0.3882 C   0  0  0  0  0  0  0  0  0  0  0  0
   -3.1599    2.5170   -0.6840 C   0  0  0  0  0  0  0  0  0  0  0  0
   -1.6339   -1.0222   -0.0415 C   0  0  0  0  0  0  0  0  0  0  0  0
   -2.8835   -1.5572   -0.4045 C   0  0  0  0  0  0  0  0  0  0  0  0
   -2.7789   -2.6419   -1.1898 N   0  0  0  0  0  0  0  0  0  0  0  0
   -1.4449   -2.8101   -1.3285 N   0  0  0  0  0  0  0  0  0  0  0  0
   -0.9567   -3.9075   -2.1237 C   0  0  0  0  0  0  0  0  0  0  0  0
   -0.7410   -1.8572   -0.6656 C   0  0  0  0  0  0  0  0  0  0  0  0
    1.2696   -2.3896   -0.8173 H   0  0  0  0  0  0  0  0  0  0  0  0
    2.5516    0.1898    1.0317 H   0  0  0  0  0  0  0  0  0  0  0  0
    3.0604   -1.2289   -1.5075 H   0  0  0  0  0  0  0  0  0  0  0  0
    2.9852    0.5212   -1.3333 H   0  0  0  0  0  0  0  0  0  0  0  0
    4.9231   -1.3882    0.0928 H   0  0  0  0  0  0  0  0  0  0  0  0
    5.3118   -0.4294   -1.3289 H   0  0  0  0  0  0  0  0  0  0  0  0
    4.6393    0.6751    1.4515 H   0  0  0  0  0  0  0  0  0  0  0  0
    7.0185    1.3248    1.5074 H   0  0  0  0  0  0  0  0  0  0  0  0
    6.8541   -0.4246    1.3082 H   0  0  0  0  0  0  0  0  0  0  0  0
    7.2853    0.5877   -0.0822 H   0  0  0  0  0  0  0  0  0  0  0  0
    5.4226    2.1661   -1.1096 H   0  0  0  0  0  0  0  0  0  0  0  0
    3.8854    2.3041   -0.2347 H   0  0  0  0  0  0  0  0  0  0  0  0
    5.3730    2.8833    0.5097 H   0  0  0  0  0  0  0  0  0  0  0  0
   -3.3742   -0.1694    3.1463 H   0  0  0  0  0  0  0  0  0  0  0  0
   -5.8550   -0.1176    3.1774 H   0  0  0  0  0  0  0  0  0  0  0  0
   -7.6928    1.6473    0.7350 H   0  0  0  0  0  0  0  0  0  0  0  0
   -5.8472    2.3438   -0.3452 H   0  0  0  0  0  0  0  0  0  0  0  0
   -2.3790    3.1468   -0.2453 H   0  0  0  0  0  0  0  0  0  0  0  0
   -3.8301    3.1771   -1.2448 H   0  0  0  0  0  0  0  0  0  0  0  0
   -2.7069    1.8157   -1.3917 H   0  0  0  0  0  0  0  0  0  0  0  0
   -3.8767   -1.2221   -0.1384 H   0  0  0  0  0  0  0  0  0  0  0  0
   -1.1994   -4.8392   -1.6068 H   0  0  0  0  0  0  0  0  0  0  0  0
    0.1244   -3.8227   -2.2526 H   0  0  0  0  0  0  0  0  0  0  0  0
   -1.4458   -3.8736   -3.1006 H   0  0  0  0  0  0  0  0  0  0  0  0
  1  2  1  0
  2  3  1  0
  3  4  1  0
  4  5  1  0
  5  6  1  0
  6  7  1  0
  6  8  1  0
  2  9  2  0
  9 10  1  0
 10 11  2  3
 11 12  1  0
 12 13  2  0
 13 14  1  0
 14 15  2  0
 15 16  1  0
 15 17  1  0
 17 18  2  0
 18 19  1  0
 10 20  1  0
 20 21  1  0
 21 22  2  0
 22 23  1  0
 23 24  1  0
 23 25  1  0
 25  1  1  0
 18 12  1  0
 25 20  2  0
  1 26  1  0
  3 27  1  0
  4 28  1  0
  4 29  1  0
  5 30  1  0
  5 31  1  0
  6 32  1  0
  7 33  1  0
  7 34  1  0
  7 35  1  0
  8 36  1  0
  8 37  1  0
  8 38  1  0
 13 39  1  0
 14 40  1  0
 16 41  1  0
 17 42  1  0
 19 43  1  0
 19 44  1  0
 19 45  1  0
 21 46  1  0
 24 47  1  0
 24 48  1  0
 24 49  1  0
M  END
>  <ScrubInfo>  (5) 
{"isomerGroup": 0, "isomerId": 4, "confId": 0, "nr_conformers:": 1, "nr_isomers:": 9}

$$$$
_i5
     RDKit          3D

 49 51  0  0  0  0  0  0  0  0999 V2000
    1.0118    4.4633   -1.6253 N   0  0  0  0  0  0  0  0  0  0  0  0
    1.7899    3.3098   -1.6296 C   0  0  0  0  0  0  0  0  0  0  0  0
    1.2338    2.3060   -0.9395 C   0  0  0  0  0  0  0  0  0  0  0  0
    1.5658    0.9458   -0.5860 C   0  0  0  0  0  0  0  0  0  0  0  0
    2.6416    0.3633   -1.0161 N   0  0  0  0  0  0  0  0  0  0  0  0
    2.8845   -0.9641   -0.6253 C   0  0  0  0  0  0  0  0  0  0  0  0
    2.3714   -2.0101   -1.4032 C   0  0  0  0  0  0  0  0  0  0  0  0
    2.6090   -3.3395   -1.0555 C   0  0  0  0  0  0  0  0  0  0  0  0
    3.3711   -3.6247    0.0686 C   0  0  0  0  0  0  0  0  0  0  0  0
    3.5783   -4.9365    0.3794 O   0  0  0  0  0  0  0  0  0  0  0  0
    3.9065   -2.6023    0.8482 C   0  0  0  0  0  0  0  0  0  0  0  0
    3.6775   -1.2608    0.4996 C   0  0  0  0  0  0  0  0  0  0  0  0
    4.2501   -0.1585    1.3446 C   0  0  0  0  0  0  0  0  0  0  0  0
    0.6554    0.3389    0.2371 N   0  0  0  0  0  0  0  0  0  0  0  0
   -0.4400    0.9277    0.6236 C   0  0  0  0  0  0  0  0  0  0  0  0
   -1.2456    0.1950    1.4452 N   0  0  0  0  0  0  0  0  0  0  0  0
   -2.6681    0.4125    1.5833 C   0  0  0  0  0  0  0  0  0  0  0  0
   -3.4410   -0.0326    0.3381 C   0  0  0  0  0  0  0  0  0  0  0  0
   -3.2760   -1.5166   -0.0474 C   0  0  0  0  0  0  0  0  0  0  0  0
   -3.7398   -2.4635    1.0598 C   0  0  0  0  0  0  0  0  0  0  0  0
   -4.0543   -1.8047   -1.3342 C   0  0  0  0  0  0  0  0  0  0  0  0
   -0.8365    2.1919    0.2675 N   0  0  0  0  0  0  0  0  0  0  0  0
   -0.0469    2.8662   -0.4933 C   0  0  0  0  0  0  0  0  0  0  0  0
   -0.2004    4.1547   -1.0097 N   0  0  0  0  0  0  0  0  0  0  0  0
   -0.8829    5.1826   -0.2475 C   0  0  0  0  0  0  0  0  0  0  0  0
    0.9483    4.9086   -2.5438 H   0  0  0  0  0  0  0  0  0  0  0  0
    2.7312    3.2976   -2.1610 H   0  0  0  0  0  0  0  0  0  0  0  0
    1.7770   -1.7806   -2.2827 H   0  0  0  0  0  0  0  0  0  0  0  0
    2.2016   -4.1444   -1.6591 H   0  0  0  0  0  0  0  0  0  0  0  0
    4.1309   -4.9793    1.1766 H   0  0  0  0  0  0  0  0  0  0  0  0
    4.5034   -2.8337    1.7250 H   0  0  0  0  0  0  0  0  0  0  0  0
    3.4514    0.3516    1.8921 H   0  0  0  0  0  0  0  0  0  0  0  0
    4.7849    0.5662    0.7220 H   0  0  0  0  0  0  0  0  0  0  0  0
    4.9664   -0.5470    2.0763 H   0  0  0  0  0  0  0  0  0  0  0  0
   -0.9379   -0.7686    1.5051 H   0  0  0  0  0  0  0  0  0  0  0  0
   -2.8721    1.4715    1.7809 H   0  0  0  0  0  0  0  0  0  0  0  0
   -3.0243   -0.1294    2.4655 H   0  0  0  0  0  0  0  0  0  0  0  0
   -3.1322    0.5877   -0.5133 H   0  0  0  0  0  0  0  0  0  0  0  0
   -4.5050    0.1817    0.5026 H   0  0  0  0  0  0  0  0  0  0  0  0
   -2.2178   -1.7200   -0.2522 H   0  0  0  0  0  0  0  0  0  0  0  0
   -3.1130   -2.3706    1.9518 H   0  0  0  0  0  0  0  0  0  0  0  0
   -4.7769   -2.2605    1.3473 H   0  0  0  0  0  0  0  0  0  0  0  0
   -3.6790   -3.5062    0.7295 H   0  0  0  0  0  0  0  0  0  0  0  0
   -3.7074   -1.1625   -2.1507 H   0  0  0  0  0  0  0  0  0  0  0  0
   -5.1272   -1.6314   -1.1978 H   0  0  0  0  0  0  0  0  0  0  0  0
   -3.9163   -2.8449   -1.6480 H   0  0  0  0  0  0  0  0  0  0  0  0
   -1.8890    4.8521    0.0300 H   0  0  0  0  0  0  0  0  0  0  0  0
   -0.3285    5.4233    0.6655 H   0  0  0  0  0  0  0  0  0  0  0  0
   -0.9837    6.0949   -0.8443 H   0  0  0  0  0  0  0  0  0  0  0  0
  1  2  1  0
  2  3  2  0
  3  4  1  0
  4  5  2  3
  5  6  1  0
  6  7  2  0
  7  8  1  0
  8  9  2  0
  9 10  1  0
  9 11  1  0
 11 12  2  0
 12 13  1  0
  4 14  1  0
 14 15  2  0
 15 16  1  0
 16 17  1  0
 17 18  1  0
 18 19  1  0
 19 20  1  0
 19 21  1  0
 15 22  1  0
 22 23  2  0
 23 24  1  0
 24 25  1  0
 24  1  1  0
 23  3  1  0
 12  6  1  0
  1 26  1  0
  2 27  1  0
  7 28  1  0
  8 29  1  0
 10 30  1  0
 11 31  1  0
 13 32  1  0
 13 33  1  0
 13 34  1  0
 16 35  1  0
 17 36  1  0
 17 37  1  0
 18 38  1  0
 18 39  1  0
 19 40  1  0
 20 41  1  0
 20 42  1  0
 20 43  1  0
 21 44  1  0
 21 45  1  0
 21 46  1  0
 25 47  1  0
 25 48  1  0
 25 49  1  0
M  END
>  <ScrubInfo>  (6) 
{"isomerGroup": 0, "isomerId": 5, "confId": 0, "nr_conformers:": 1, "nr_isomers:": 9}

$$$$
_i6
     RDKit          3D

 49 51  0  0  0  0  0  0  0  0999 V2000
    2.8530    3.2561    0.9099 N   0  0  0  0  0  0  0  0  0  0  0  0
    2.7870    1.8756    1.0652 C   0  0  0  0  0  0  0  0  0  0  0  0
    1.5846    1.3716    0.7567 C   0  0  0  0  0  0  0  0  0  0  0  0
    0.9014    0.0796    0.7332 C   0  0  0  0  0  0  0  0  0  0  0  0
    1.5093   -1.1195    1.0468 N   0  0  0  0  0  0  0  0  0  0  0  0
    2.8055   -1.4564    0.5913 C   0  0  0  0  0  0  0  0  0  0  0  0
    3.7359   -1.8807    1.5531 C   0  0  0  0  0  0  0  0  0  0  0  0
    5.0256   -2.2586    1.1836 C   0  0  0  0  0  0  0  0  0  0  0  0
    5.3846   -2.2384   -0.1551 C   0  0  0  0  0  0  0  0  0  0  0  0
    6.6565   -2.6074   -0.4762 O   0  0  0  0  0  0  0  0  0  0  0  0
    4.4681   -1.8628   -1.1329 C   0  0  0  0  0  0  0  0  0  0  0  0
    3.1591   -1.4926   -0.7740 C   0  0  0  0  0  0  0  0  0  0  0  0
    2.1915   -1.1274   -1.8680 C   0  0  0  0  0  0  0  0  0  0  0  0
   -0.3642    0.0534    0.4137 N   0  0  0  0  0  0  0  0  0  0  0  0
   -0.9984    1.2398    0.0998 C   0  0  0  0  0  0  0  0  0  0  0  0
   -2.2593    1.2328   -0.1550 N   0  0  0  0  0  0  0  0  0  0  0  0
   -2.9617   -0.0467   -0.0895 C   0  0  0  0  0  0  0  0  0  0  0  0
   -4.4357    0.2063   -0.4163 C   0  0  0  0  0  0  0  0  0  0  0  0
   -5.3258   -1.0381   -0.2478 C   0  0  0  0  0  0  0  0  0  0  0  0
   -4.9417   -2.1652   -1.2074 C   0  0  0  0  0  0  0  0  0  0  0  0
   -6.7937   -0.6585   -0.4578 C   0  0  0  0  0  0  0  0  0  0  0  0
   -0.4221    2.4843    0.0111 N   0  0  0  0  0  0  0  0  0  0  0  0
    0.8251    2.5612    0.3188 C   0  0  0  0  0  0  0  0  0  0  0  0
    1.6634    3.6768    0.3237 N   0  0  0  0  0  0  0  0  0  0  0  0
    1.1436    4.9931    0.6430 C   0  0  0  0  0  0  0  0  0  0  0  0
    3.7141    3.5743    0.4596 H   0  0  0  0  0  0  0  0  0  0  0  0
    3.6651    1.3421    1.3999 H   0  0  0  0  0  0  0  0  0  0  0  0
    0.8683   -1.8909    0.8738 H   0  0  0  0  0  0  0  0  0  0  0  0
    3.4585   -1.8999    2.6049 H   0  0  0  0  0  0  0  0  0  0  0  0
    5.7439   -2.5685    1.9371 H   0  0  0  0  0  0  0  0  0  0  0  0
    6.7588   -2.5747   -1.4416 H   0  0  0  0  0  0  0  0  0  0  0  0
    4.7564   -1.8665   -2.1807 H   0  0  0  0  0  0  0  0  0  0  0  0
    1.2070   -1.5684   -1.6831 H   0  0  0  0  0  0  0  0  0  0  0  0
    2.1001   -0.0403   -1.9477 H   0  0  0  0  0  0  0  0  0  0  0  0
    2.5283   -1.5104   -2.8376 H   0  0  0  0  0  0  0  0  0  0  0  0
   -2.8843   -0.4788    0.9155 H   0  0  0  0  0  0  0  0  0  0  0  0
   -2.5372   -0.7479   -0.8164 H   0  0  0  0  0  0  0  0  0  0  0  0
   -4.5195    0.5921   -1.4409 H   0  0  0  0  0  0  0  0  0  0  0  0
   -4.8090    1.0032    0.2408 H   0  0  0  0  0  0  0  0  0  0  0  0
   -5.2191   -1.4104    0.7790 H   0  0  0  0  0  0  0  0  0  0  0  0
   -5.6336   -3.0091   -1.1117 H   0  0  0  0  0  0  0  0  0  0  0  0
   -3.9380   -2.5452   -0.9944 H   0  0  0  0  0  0  0  0  0  0  0  0
   -4.9653   -1.8257   -2.2484 H   0  0  0  0  0  0  0  0  0  0  0  0
   -7.1001    0.1190    0.2501 H   0  0  0  0  0  0  0  0  0  0  0  0
   -6.9657   -0.2814   -1.4717 H   0  0  0  0  0  0  0  0  0  0  0  0
   -7.4459   -1.5245   -0.3029 H   0  0  0  0  0  0  0  0  0  0  0  0
    0.7922    5.0319    1.6794 H   0  0  0  0  0  0  0  0  0  0  0  0
    1.9220    5.7516    0.5110 H   0  0  0  0  0  0  0  0  0  0  0  0
    0.3112    5.2501   -0.0198 H   0  0  0  0  0  0  0  0  0  0  0  0
  1  2  1  0
  2  3  2  0
  3  4  1  0
  4  5  1  0
  5  6  1  0
  6  7  2  0
  7  8  1  0
  8  9  2  0
  9 10  1  0
  9 11  1  0
 11 12  2  0
 12 13  1  0
  4 14  2  0
 14 15  1  0
 15 16  2  3
 16 17  1  0
 17 18  1  0
 18 19  1  0
 19 20  1  0
 19 21  1  0
 15 22  1  0
 22 23  2  0
 23 24  1  0
 24 25  1  0
 24  1  1  0
 23  3  1  0
 12  6  1  0
  1 26  1  0
  2 27  1  0
  5 28  1  0
  7 29  1  0
  8 30  1  0
 10 31  1  0
 11 32  1  0
 13 33  1  0
 13 34  1  0
 13 35  1  0
 17 36  1  0
 17 37  1  0
 18 38  1  0
 18 39  1  0
 19 40  1  0
 20 41  1  0
 20 42  1  0
 20 43  1  0
 21 44  1  0
 21 45  1  0
 21 46  1  0
 25 47  1  0
 25 48  1  0
 25 49  1  0
M  END
>  <ScrubInfo>  (7) 
{"isomerGroup": 0, "isomerId": 6, "confId": 0, "nr_conformers:": 1, "nr_isomers:": 9}

$$$$
_i7
     RDKit          3D

 49 51  0  0  0  0  0  0  0  0999 V2000
    0.8242   -1.3465    0.1310 N   0  0  0  0  0  0  0  0  0  0  0  0
    0.3417   -0.0457    0.1651 C   0  0  0  0  0  0  0  0  0  0  0  0
    0.9750    1.0302    0.4892 N   0  0  0  0  0  0  0  0  0  0  0  0
    2.3724    0.9585    0.9113 C   0  0  0  0  0  0  0  0  0  0  0  0
    3.2860    1.0239   -0.3142 C   0  0  0  0  0  0  0  0  0  0  0  0
    4.7929    0.9144   -0.0174 C   0  0  0  0  0  0  0  0  0  0  0  0
    5.1694   -0.4484    0.5649 C   0  0  0  0  0  0  0  0  0  0  0  0
    5.2938    2.0402    0.8866 C   0  0  0  0  0  0  0  0  0  0  0  0
   -0.9836    0.0636   -0.2090 N   0  0  0  0  0  0  0  0  0  0  0  0
   -1.8983   -0.8934   -0.6022 C   0  0  0  0  0  0  0  0  0  0  0  0
   -3.1395   -0.7970   -0.9479 N   0  0  0  0  0  0  0  0  0  0  0  0
   -3.7222    0.4787   -0.9457 C   0  0  0  0  0  0  0  0  0  0  0  0
   -3.6910    1.2398   -2.1216 C   0  0  0  0  0  0  0  0  0  0  0  0
   -4.2451    2.5199   -2.1595 C   0  0  0  0  0  0  0  0  0  0  0  0
   -4.8388    3.0346   -1.0141 C   0  0  0  0  0  0  0  0  0  0  0  0
   -5.3884    4.2820   -0.9985 O   0  0  0  0  0  0  0  0  0  0  0  0
   -4.8953    2.2881    0.1586 C   0  0  0  0  0  0  0  0  0  0  0  0
   -4.3511    0.9956    0.2012 C   0  0  0  0  0  0  0  0  0  0  0  0
   -4.4225    0.1971    1.4718 C   0  0  0  0  0  0  0  0  0  0  0  0
   -1.2970   -2.2053   -0.6041 C   0  0  0  0  0  0  0  0  0  0  0  0
   -1.7410   -3.5009   -0.9055 C   0  0  0  0  0  0  0  0  0  0  0  0
   -0.7744   -4.4187   -0.7495 N   0  0  0  0  0  0  0  0  0  0  0  0
    0.2988   -3.6953   -0.3471 N   0  0  0  0  0  0  0  0  0  0  0  0
    1.5382   -4.3797   -0.0789 C   0  0  0  0  0  0  0  0  0  0  0  0
    0.0186   -2.3663   -0.2446 C   0  0  0  0  0  0  0  0  0  0  0  0
    1.7950   -1.4853    0.3730 H   0  0  0  0  0  0  0  0  0  0  0  0
    2.5614    1.8196    1.5614 H   0  0  0  0  0  0  0  0  0  0  0  0
    2.5642    0.0725    1.5246 H   0  0  0  0  0  0  0  0  0  0  0  0
    3.0969    1.9673   -0.8435 H   0  0  0  0  0  0  0  0  0  0  0  0
    3.0116    0.2295   -1.0201 H   0  0  0  0  0  0  0  0  0  0  0  0
    5.3129    1.0117   -0.9798 H   0  0  0  0  0  0  0  0  0  0  0  0
    6.2583   -0.5487    0.6311 H   0  0  0  0  0  0  0  0  0  0  0  0
    4.7982   -1.2600   -0.0697 H   0  0  0  0  0  0  0  0  0  0  0  0
    4.7639   -0.5885    1.5717 H   0  0  0  0  0  0  0  0  0  0  0  0
    5.0146    3.0186    0.4818 H   0  0  0  0  0  0  0  0  0  0  0  0
    4.8879    1.9597    1.9000 H   0  0  0  0  0  0  0  0  0  0  0  0
    6.3860    2.0114    0.9652 H   0  0  0  0  0  0  0  0  0  0  0  0
   -1.3250    1.0135   -0.1740 H   0  0  0  0  0  0  0  0  0  0  0  0
   -3.2293    0.8247   -3.0141 H   0  0  0  0  0  0  0  0  0  0  0  0
   -4.2046    3.0898   -3.0819 H   0  0  0  0  0  0  0  0  0  0  0  0
   -5.3067    4.6696   -1.8853 H   0  0  0  0  0  0  0  0  0  0  0  0
   -5.3737    2.7163    1.0361 H   0  0  0  0  0  0  0  0  0  0  0  0
   -4.7876   -0.8155    1.2715 H   0  0  0  0  0  0  0  0  0  0  0  0
   -5.1120    0.6524    2.1906 H   0  0  0  0  0  0  0  0  0  0  0  0
   -3.4341    0.1414    1.9385 H   0  0  0  0  0  0  0  0  0  0  0  0
   -2.7246   -3.8153   -1.2306 H   0  0  0  0  0  0  0  0  0  0  0  0
    1.4217   -4.9458    0.8484 H   0  0  0  0  0  0  0  0  0  0  0  0
    2.3494   -3.6558    0.0226 H   0  0  0  0  0  0  0  0  0  0  0  0
    1.7529   -5.0527   -0.9132 H   0  0  0  0  0  0  0  0  0  0  0  0
  1  2  1  0
  2  3  2  3
  3  4  1  0
  4  5  1  0
  5  6  1  0
  6  7  1  0
  6  8  1  0
  2  9  1  0
  9 10  1  0
 10 11  2  3
 11 12  1  0
 12 13  2  0
 13 14  1  0
 14 15  2  0
 15 16  1  0
 15 17  1  0
 17 18  2  0
 18 19  1  0
 10 20  1  0
 20 21  1  0
 21 22  2  0
 22 23  1  0
 23 24  1  0
 23 25  1  0
 25  1  1  0
 18 12  1  0
 25 20  2  0
  1 26  1  0
  4 27  1  0
  4 28  1  0
  5 29  1  0
  5 30  1  0
  6 31  1  0
  7 32  1  0
  7 33  1  0
  7 34  1  0
  8 35  1  0
  8 36  1  0
  8 37  1  0
  9 38  1  0
 13 39  1  0
 14 40  1  0
 16 41  1  0
 17 42  1  0
 19 43  1  0
 19 44  1  0
 19 45  1  0
 21 46  1  0
 24 47  1  0
 24 48  1  0
 24 49  1  0
M  END
>  <ScrubInfo>  (8) 
{"isomerGroup": 0, "isomerId": 7, "confId": 0, "nr_conformers:": 1, "nr_isomers:": 9}

$$$$
_i8
     RDKit          3D

 49 51  0  0  0  0  0  0  0  0999 V2000
    1.6205    5.2436    0.0251 N   0  0  0  0  0  0  0  0  0  0  0  0
    2.2163    3.9959    0.1742 C   0  0  0  0  0  0  0  0  0  0  0  0
    1.3731    2.9853   -0.0663 C   0  0  0  0  0  0  0  0  0  0  0  0
    1.4071    1.5243   -0.1078 C   0  0  0  0  0  0  0  0  0  0  0  0
    2.4947    0.8904    0.2207 N   0  0  0  0  0  0  0  0  0  0  0  0
    2.4812   -0.5134    0.1797 C   0  0  0  0  0  0  0  0  0  0  0  0
    2.9391   -1.1572   -0.9770 C   0  0  0  0  0  0  0  0  0  0  0  0
    2.8952   -2.5476   -1.0862 C   0  0  0  0  0  0  0  0  0  0  0  0
    2.3932   -3.2943   -0.0281 C   0  0  0  0  0  0  0  0  0  0  0  0
    2.3161   -4.6534   -0.0914 O   0  0  0  0  0  0  0  0  0  0  0  0
    1.9518   -2.6756    1.1370 C   0  0  0  0  0  0  0  0  0  0  0  0
    2.0090   -1.2794    1.2619 C   0  0  0  0  0  0  0  0  0  0  0  0
    1.5247   -0.6275    2.5261 C   0  0  0  0  0  0  0  0  0  0  0  0
    0.2092    0.9838   -0.5064 N   0  0  0  0  0  0  0  0  0  0  0  0
   -0.9504    1.6675   -0.7872 C   0  0  0  0  0  0  0  0  0  0  0  0
   -2.0747    1.1426   -1.1274 N   0  0  0  0  0  0  0  0  0  0  0  0
   -2.2041   -0.3031   -1.2842 C   0  0  0  0  0  0  0  0  0  0  0  0
   -2.4404   -0.9677    0.0743 C   0  0  0  0  0  0  0  0  0  0  0  0
   -2.3283   -2.5019    0.0245 C   0  0  0  0  0  0  0  0  0  0  0  0
   -2.4137   -3.0771    1.4399 C   0  0  0  0  0  0  0  0  0  0  0  0
   -3.4035   -3.1338   -0.8598 C   0  0  0  0  0  0  0  0  0  0  0  0
   -1.0000    3.0459   -0.7054 N   0  0  0  0  0  0  0  0  0  0  0  0
    0.0776    3.6738   -0.3546 C   0  0  0  0  0  0  0  0  0  0  0  0
    0.2569    5.0496   -0.1878 N   0  0  0  0  0  0  0  0  0  0  0  0
   -0.4757    5.9998   -1.0025 C   0  0  0  0  0  0  0  0  0  0  0  0
    1.8684    5.9010    0.7680 H   0  0  0  0  0  0  0  0  0  0  0  0
    3.2571    3.9286    0.4579 H   0  0  0  0  0  0  0  0  0  0  0  0
    3.3272   -0.5625   -1.8004 H   0  0  0  0  0  0  0  0  0  0  0  0
    3.2511   -3.0213   -1.9954 H   0  0  0  0  0  0  0  0  0  0  0  0
    2.7089   -4.9510   -0.9286 H   0  0  0  0  0  0  0  0  0  0  0  0
    1.5711   -3.2888    1.9505 H   0  0  0  0  0  0  0  0  0  0  0  0
    0.5259   -0.2069    2.3748 H   0  0  0  0  0  0  0  0  0  0  0  0
    2.2090    0.1667    2.8415 H   0  0  0  0  0  0  0  0  0  0  0  0
    1.4712   -1.3491    3.3483 H   0  0  0  0  0  0  0  0  0  0  0  0
    0.1619   -0.0203   -0.5392 H   0  0  0  0  0  0  0  0  0  0  0  0
   -3.0627   -0.4889   -1.9390 H   0  0  0  0  0  0  0  0  0  0  0  0
   -1.3370   -0.7326   -1.7996 H   0  0  0  0  0  0  0  0  0  0  0  0
   -3.4267   -0.6715    0.4545 H   0  0  0  0  0  0  0  0  0  0  0  0
   -1.7122   -0.5886    0.8020 H   0  0  0  0  0  0  0  0  0  0  0  0
   -1.3457   -2.7691   -0.3851 H   0  0  0  0  0  0  0  0  0  0  0  0
   -1.6202   -2.6682    2.0747 H   0  0  0  0  0  0  0  0  0  0  0  0
   -3.3766   -2.8434    1.9068 H   0  0  0  0  0  0  0  0  0  0  0  0
   -2.2988   -4.1661    1.4252 H   0  0  0  0  0  0  0  0  0  0  0  0
   -3.3324   -4.2266   -0.8361 H   0  0  0  0  0  0  0  0  0  0  0  0
   -4.4080   -2.8535   -0.5250 H   0  0  0  0  0  0  0  0  0  0  0  0
   -3.2930   -2.8241   -1.9034 H   0  0  0  0  0  0  0  0  0  0  0  0
   -1.5537    5.8272   -0.9219 H   0  0  0  0  0  0  0  0  0  0  0  0
   -0.2756    7.0226   -0.6669 H   0  0  0  0  0  0  0  0  0  0  0  0
   -0.1843    5.9158   -2.0546 H   0  0  0  0  0  0  0  0  0  0  0  0
  1  2  1  0
  2  3  2  0
  3  4  1  0
  4  5  2  3
  5  6  1  0
  6  7  2  0
  7  8  1  0
  8  9  2  0
  9 10  1  0
  9 11  1  0
 11 12  2  0
 12 13  1  0
  4 14  1  0
 14 15  1  0
 15 16  2  3
 16 17  1  0
 17 18  1  0
 18 19  1  0
 19 20  1  0
 19 21  1  0
 15 22  1  0
 22 23  2  0
 23 24  1  0
 24 25  1  0
 24  1  1  0
 23  3  1  0
 12  6  1  0
  1 26  1  0
  2 27  1  0
  7 28  1  0
  8 29  1  0
 10 30  1  0
 11 31  1  0
 13 32  1  0
 13 33  1  0
 13 34  1  0
 14 35  1  0
 17 36  1  0
 17 37  1  0
 18 38  1  0
 18 39  1  0
 19 40  1  0
 20 41  1  0
 20 42  1  0
 20 43  1  0
 21 44  1  0
 21 45  1  0
 21 46  1  0
 25 47  1  0
 25 48  1  0
 25 49  1  0
M  END
>  <ScrubInfo>  (9) 
{"isomerGroup": 0, "isomerId": 8, "confId": 0, "nr_conformers:": 1, "nr_isomers:": 9}

$$$$
