REMARK SMILES Cc1cc(O)ccc1Nc1nc(NCCC(C)C)nc2c1cnn2C
REMARK SMILES IDX 10 1 11 2 12 3 19 4 20 5 21 6 22 7 23 8 24 9 25 10 9 11 8 13
REMARK SMILES IDX 2 14 3 15 4 16 7 17 6 18 1 19 5 20 13 22 14 24 15 25 16 26
REMARK SMILES IDX 17 27 18 28
REMARK H PARENT 9 12 5 21 13 23
ROOT
ATOM      1  C   UNL     1      -1.415   0.526  -0.759  1.00  0.00     0.147 A 
ATOM      2  N   UNL     1      -0.295   1.283  -0.643  1.00  0.00    -0.195 NA
ATOM      3  C   UNL     1       0.921   0.715  -0.752  1.00  0.00     0.226 A 
ATOM      4  N   UNL     1       1.159  -0.581  -0.989  1.00  0.00    -0.193 NA
ATOM      5  C   UNL     1       0.037  -1.306  -1.108  1.00  0.00     0.165 A 
ATOM      6  C   UNL     1      -1.258  -0.839  -1.010  1.00  0.00     0.082 A 
ATOM      7  C   UNL     1      -2.059  -1.981  -1.213  1.00  0.00     0.149 A 
ATOM      8  N   UNL     1      -1.340  -3.091  -1.424  1.00  0.00    -0.179 NA
ATOM      9  N   UNL     1      -0.063  -2.649  -1.346  1.00  0.00    -0.250 N 
ATOM     10  C   UNL     1       1.022  -3.582  -1.513  1.00  0.00     0.176 C 
ENDROOT
BRANCH   1  11
ATOM     11  N   UNL     1      -2.648   1.194  -0.629  1.00  0.00    -0.339 N 
ATOM     12  H   UNL     1      -2.419   2.104  -0.234  1.00  0.00     0.168 HD
BRANCH  11  13
ATOM     13  C   UNL     1      -3.797   0.652  -0.012  1.00  0.00     0.043 A 
ATOM     14  C   UNL     1      -3.837   0.278   1.346  1.00  0.00    -0.024 A 
ATOM     15  C   UNL     1      -5.027  -0.252   1.870  1.00  0.00     0.051 A 
ATOM     16  C   UNL     1      -6.162  -0.367   1.074  1.00  0.00     0.115 A 
ATOM     17  C   UNL     1      -4.962   0.550  -0.789  1.00  0.00     0.030 A 
ATOM     18  C   UNL     1      -6.143   0.036  -0.253  1.00  0.00     0.048 A 
ATOM     19  C   UNL     1      -2.639   0.392   2.249  1.00  0.00     0.047 C 
BRANCH  16  20
ATOM     20  O   UNL     1      -7.288  -0.883   1.645  1.00  0.00    -0.508 OA
ATOM     21  H   UNL     1      -7.989  -0.915   0.974  1.00  0.00     0.293 HD
ENDBRANCH  16  20
ENDBRANCH  11  13
ENDBRANCH   1  11
BRANCH   3  22
ATOM     22  N   UNL     1       1.980   1.600  -0.593  1.00  0.00    -0.354 N 
ATOM     23  H   UNL     1       1.582   2.524  -0.721  1.00  0.00     0.163 HD
BRANCH  22  24
ATOM     24  C   UNL     1       3.172   1.331  -1.378  1.00  0.00     0.116 C 
BRANCH  24  25
ATOM     25  C   UNL     1       4.174   0.452  -0.620  1.00  0.00     0.024 C 
BRANCH  25  26
ATOM     26  C   UNL     1       4.634   1.006   0.744  1.00  0.00    -0.016 C 
ATOM     27  C   UNL     1       5.571   0.001   1.419  1.00  0.00     0.007 C 
ATOM     28  C   UNL     1       5.333   2.360   0.619  1.00  0.00     0.007 C 
ENDBRANCH  25  26
ENDBRANCH  24  25
ENDBRANCH  22  24
ENDBRANCH   3  22
TORSDOF 7
