_i0
     RDKit          3D

 49 51  0  0  0  0  0  0  0  0999 V2000
   -7.6956    1.2717   -1.3405 C   0  0  0  0  0  0  0  0  0  0  0  0
   -6.2759    0.7889   -1.3451 C   0  0  0  0  0  0  0  0  0  0  0  0
   -5.8142   -0.0501   -2.3629 C   0  0  0  0  0  0  0  0  0  0  0  0
   -4.4819   -0.4735   -2.3801 C   0  0  0  0  0  0  0  0  0  0  0  0
   -3.5823   -0.0700   -1.3855 C   0  0  0  0  0  0  0  0  0  0  0  0
   -2.2511   -0.5244   -1.4640 N   0  0  0  0  0  0  0  0  0  0  0  0
   -1.2624   -0.5257   -0.4703 C   0  0  0  0  0  0  0  0  0  0  0  0
   -0.0160   -0.1395   -0.8432 N   0  0  0  0  0  0  0  0  0  0  0  0
    0.9879   -0.1334    0.0532 C   0  0  0  0  0  0  0  0  0  0  0  0
    2.2078    0.2869   -0.4482 N   0  0  0  0  0  0  0  0  0  0  0  0
    3.0745    0.9822    0.4896 C   0  0  0  0  0  0  0  0  0  0  0  0
    4.1972    1.7302   -0.2492 C   0  0  0  0  0  0  0  0  0  0  0  0
    4.9252    0.9525   -1.2016 O   0  0  0  0  0  0  0  0  0  0  0  0
    5.6125   -0.1934   -0.6943 C   0  0  0  0  0  0  0  0  0  0  0  0
    6.1348   -0.9605   -1.9055 C   0  0  0  0  0  0  0  0  0  0  0  0
    6.7712    0.2019    0.2158 C   0  0  0  0  0  0  0  0  0  0  0  0
    0.8899   -0.4881    1.3427 N   0  0  0  0  0  0  0  0  0  0  0  0
   -0.3421   -0.9006    1.6760 C   0  0  0  0  0  0  0  0  0  0  0  0
   -1.4447   -0.9516    0.8469 C   0  0  0  0  0  0  0  0  0  0  0  0
   -2.4701   -1.4798    1.6584 C   0  0  0  0  0  0  0  0  0  0  0  0
   -2.0696   -1.7187    2.9133 N   0  0  0  0  0  0  0  0  0  0  0  0
   -0.7639   -1.3637    2.8922 N   0  0  0  0  0  0  0  0  0  0  0  0
    0.0288   -1.5095    4.0866 C   0  0  0  0  0  0  0  0  0  0  0  0
   -4.0435    0.7932   -0.3865 C   0  0  0  0  0  0  0  0  0  0  0  0
   -5.3760    1.2197   -0.3657 C   0  0  0  0  0  0  0  0  0  0  0  0
   -8.3636    0.5250   -1.7825 H   0  0  0  0  0  0  0  0  0  0  0  0
   -8.0431    1.4528   -0.3179 H   0  0  0  0  0  0  0  0  0  0  0  0
   -7.7767    2.2015   -1.9118 H   0  0  0  0  0  0  0  0  0  0  0  0
   -6.4875   -0.3840   -3.1491 H   0  0  0  0  0  0  0  0  0  0  0  0
   -4.1497   -1.1376   -3.1749 H   0  0  0  0  0  0  0  0  0  0  0  0
   -1.8118   -0.2299   -2.3331 H   0  0  0  0  0  0  0  0  0  0  0  0
    2.0428    0.7492   -1.3352 H   0  0  0  0  0  0  0  0  0  0  0  0
    3.5096    0.2603    1.1899 H   0  0  0  0  0  0  0  0  0  0  0  0
    2.5106    1.7182    1.0770 H   0  0  0  0  0  0  0  0  0  0  0  0
    4.8880    2.1872    0.4669 H   0  0  0  0  0  0  0  0  0  0  0  0
    3.7509    2.5559   -0.8158 H   0  0  0  0  0  0  0  0  0  0  0  0
    4.9176   -0.8471   -0.1577 H   0  0  0  0  0  0  0  0  0  0  0  0
    5.3064   -1.2384   -2.5664 H   0  0  0  0  0  0  0  0  0  0  0  0
    6.8168   -0.3413   -2.4989 H   0  0  0  0  0  0  0  0  0  0  0  0
    6.6599   -1.8723   -1.6047 H   0  0  0  0  0  0  0  0  0  0  0  0
    6.4061    0.6561    1.1421 H   0  0  0  0  0  0  0  0  0  0  0  0
    7.4169    0.9414   -0.2701 H   0  0  0  0  0  0  0  0  0  0  0  0
    7.3753   -0.6690    0.4894 H   0  0  0  0  0  0  0  0  0  0  0  0
   -3.4947   -1.6977    1.3842 H   0  0  0  0  0  0  0  0  0  0  0  0
   -0.4374   -0.9237    4.8829 H   0  0  0  0  0  0  0  0  0  0  0  0
    0.0531   -2.5685    4.3555 H   0  0  0  0  0  0  0  0  0  0  0  0
    1.0443   -1.1483    3.9092 H   0  0  0  0  0  0  0  0  0  0  0  0
   -3.3717    1.1693    0.3801 H   0  0  0  0  0  0  0  0  0  0  0  0
   -5.7030    1.8962    0.4210 H   0  0  0  0  0  0  0  0  0  0  0  0
  1  2  1  0
  2  3  2  0
  3  4  1  0
  4  5  2  0
  5  6  1  0
  6  7  1  0
  7  8  2  0
  8  9  1  0
  9 10  1  0
 10 11  1  0
 11 12  1  0
 12 13  1  0
 13 14  1  0
 14 15  1  0
 14 16  1  0
  9 17  2  0
 17 18  1  0
 18 19  2  0
 19 20  1  0
 20 21  2  0
 21 22  1  0
 22 23  1  0
  5 24  1  0
 24 25  2  0
 25  2  1  0
 19  7  1  0
 22 18  1  0
  1 26  1  0
  1 27  1  0
  1 28  1  0
  3 29  1  0
  4 30  1  0
  6 31  1  0
 10 32  1  0
 11 33  1  0
 11 34  1  0
 12 35  1  0
 12 36  1  0
 14 37  1  0
 15 38  1  0
 15 39  1  0
 15 40  1  0
 16 41  1  0
 16 42  1  0
 16 43  1  0
 20 44  1  0
 23 45  1  0
 23 46  1  0
 23 47  1  0
 24 48  1  0
 25 49  1  0
M  END
>  <ScrubInfo>  (1) 
{"isomerGroup": 0, "isomerId": 0, "confId": 0, "nr_conformers:": 1, "nr_isomers:": 9}

$$$$
_i1
     RDKit          3D

 49 51  0  0  0  0  0  0  0  0999 V2000
    0.1536    0.1258   -1.0629 N   0  0  0  0  0  0  0  0  0  0  0  0
    0.9362   -0.9017   -0.5941 C   0  0  0  0  0  0  0  0  0  0  0  0
    2.2185   -0.8493   -1.0748 N   0  0  0  0  0  0  0  0  0  0  0  0
    3.2488   -1.7434   -0.5452 C   0  0  0  0  0  0  0  0  0  0  0  0
    3.8397   -1.1644    0.7465 C   0  0  0  0  0  0  0  0  0  0  0  0
    4.3975    0.1353    0.4970 O   0  0  0  0  0  0  0  0  0  0  0  0
    5.7670    0.1148    0.0832 C   0  0  0  0  0  0  0  0  0  0  0  0
    6.0112    1.3833   -0.7249 C   0  0  0  0  0  0  0  0  0  0  0  0
    6.6768    0.0791    1.3067 C   0  0  0  0  0  0  0  0  0  0  0  0
    0.5010   -1.8356    0.2118 N   0  0  0  0  0  0  0  0  0  0  0  0
   -0.8094   -1.6504    0.5384 C   0  0  0  0  0  0  0  0  0  0  0  0
   -1.6729   -0.6508    0.1157 C   0  0  0  0  0  0  0  0  0  0  0  0
   -2.8865   -0.9437    0.7627 C   0  0  0  0  0  0  0  0  0  0  0  0
   -2.8131   -2.0365    1.5340 N   0  0  0  0  0  0  0  0  0  0  0  0
   -1.5354   -2.4496    1.3758 N   0  0  0  0  0  0  0  0  0  0  0  0
   -1.0852   -3.6294    2.0699 C   0  0  0  0  0  0  0  0  0  0  0  0
   -1.1773    0.3565   -0.8017 C   0  0  0  0  0  0  0  0  0  0  0  0
   -1.8145    1.3469   -1.3485 N   0  0  0  0  0  0  0  0  0  0  0  0
   -3.1666    1.5844   -1.0966 C   0  0  0  0  0  0  0  0  0  0  0  0
   -3.5500    2.4560   -0.0754 C   0  0  0  0  0  0  0  0  0  0  0  0
   -4.9019    2.7166    0.1628 C   0  0  0  0  0  0  0  0  0  0  0  0
   -5.8886    2.1114   -0.6246 C   0  0  0  0  0  0  0  0  0  0  0  0
   -7.3390    2.4148   -0.3909 C   0  0  0  0  0  0  0  0  0  0  0  0
   -5.5005    1.2700   -1.6740 C   0  0  0  0  0  0  0  0  0  0  0  0
   -4.1475    1.0121   -1.9091 C   0  0  0  0  0  0  0  0  0  0  0  0
    0.5425    0.7259   -1.7710 H   0  0  0  0  0  0  0  0  0  0  0  0
    2.5867    0.0974   -1.1332 H   0  0  0  0  0  0  0  0  0  0  0  0
    4.0307   -1.8260   -1.3071 H   0  0  0  0  0  0  0  0  0  0  0  0
    2.8550   -2.7512   -0.3752 H   0  0  0  0  0  0  0  0  0  0  0  0
    4.5878   -1.8425    1.1701 H   0  0  0  0  0  0  0  0  0  0  0  0
    3.0507   -1.0326    1.4943 H   0  0  0  0  0  0  0  0  0  0  0  0
    5.9632   -0.7525   -0.5577 H   0  0  0  0  0  0  0  0  0  0  0  0
    7.0450    1.4374   -1.0794 H   0  0  0  0  0  0  0  0  0  0  0  0
    5.3431    1.4151   -1.5926 H   0  0  0  0  0  0  0  0  0  0  0  0
    5.7958    2.2778   -0.1298 H   0  0  0  0  0  0  0  0  0  0  0  0
    7.7312    0.1244    1.0170 H   0  0  0  0  0  0  0  0  0  0  0  0
    6.4608    0.9169    1.9790 H   0  0  0  0  0  0  0  0  0  0  0  0
    6.5214   -0.8356    1.8871 H   0  0  0  0  0  0  0  0  0  0  0  0
   -3.8315   -0.4201    0.7184 H   0  0  0  0  0  0  0  0  0  0  0  0
   -1.7048   -4.4722    1.7529 H   0  0  0  0  0  0  0  0  0  0  0  0
   -0.0385   -3.8310    1.8321 H   0  0  0  0  0  0  0  0  0  0  0  0
   -1.1939   -3.4585    3.1440 H   0  0  0  0  0  0  0  0  0  0  0  0
   -2.7909    2.9342    0.5374 H   0  0  0  0  0  0  0  0  0  0  0  0
   -5.1779    3.3973    0.9649 H   0  0  0  0  0  0  0  0  0  0  0  0
   -7.6386    3.2868   -0.9802 H   0  0  0  0  0  0  0  0  0  0  0  0
   -7.9665    1.5631   -0.6739 H   0  0  0  0  0  0  0  0  0  0  0  0
   -7.5292    2.6202    0.6678 H   0  0  0  0  0  0  0  0  0  0  0  0
   -6.2477    0.8117   -2.3178 H   0  0  0  0  0  0  0  0  0  0  0  0
   -3.8557    0.3617   -2.7289 H   0  0  0  0  0  0  0  0  0  0  0  0
  1  2  1  0
  2  3  1  0
  3  4  1  0
  4  5  1  0
  5  6  1  0
  6  7  1  0
  7  8  1  0
  7  9  1  0
  2 10  2  0
 10 11  1  0
 11 12  2  0
 12 13  1  0
 13 14  2  0
 14 15  1  0
 15 16  1  0
 12 17  1  0
 17 18  2  3
 18 19  1  0
 19 20  2  0
 20 21  1  0
 21 22  2  0
 22 23  1  0
 22 24  1  0
 24 25  2  0
 17  1  1  0
 25 19  1  0
 15 11  1  0
  1 26  1  0
  3 27  1  0
  4 28  1  0
  4 29  1  0
  5 30  1  0
  5 31  1  0
  7 32  1  0
  8 33  1  0
  8 34  1  0
  8 35  1  0
  9 36  1  0
  9 37  1  0
  9 38  1  0
 13 39  1  0
 16 40  1  0
 16 41  1  0
 16 42  1  0
 20 43  1  0
 21 44  1  0
 23 45  1  0
 23 46  1  0
 23 47  1  0
 24 48  1  0
 25 49  1  0
M  END
>  <ScrubInfo>  (2) 
{"isomerGroup": 0, "isomerId": 1, "confId": 0, "nr_conformers:": 1, "nr_isomers:": 9}

$$$$
_i2
     RDKit          3D

 49 51  0  0  0  0  0  0  0  0999 V2000
   -0.7339   -0.2984   -0.0708 N   0  0  0  0  0  0  0  0  0  0  0  0
   -1.2300    0.7773    0.6412 C   0  0  0  0  0  0  0  0  0  0  0  0
   -2.1388    1.6740    0.1099 N   0  0  0  0  0  0  0  0  0  0  0  0
   -3.1294    1.4568   -0.8676 C   0  0  0  0  0  0  0  0  0  0  0  0
   -3.6459    2.5669   -1.5512 C   0  0  0  0  0  0  0  0  0  0  0  0
   -4.5969    2.4160   -2.5659 C   0  0  0  0  0  0  0  0  0  0  0  0
   -5.0423    1.1442   -2.9337 C   0  0  0  0  0  0  0  0  0  0  0  0
   -6.0859    0.9787   -3.9978 C   0  0  0  0  0  0  0  0  0  0  0  0
   -4.5392    0.0322   -2.2533 C   0  0  0  0  0  0  0  0  0  0  0  0
   -3.5864    0.1882   -1.2398 C   0  0  0  0  0  0  0  0  0  0  0  0
   -0.7240    0.9112    1.8737 C   0  0  0  0  0  0  0  0  0  0  0  0
   -0.8899    1.7989    3.0302 C   0  0  0  0  0  0  0  0  0  0  0  0
   -0.1611    1.4481    4.0594 N   0  0  0  0  0  0  0  0  0  0  0  0
    0.5663    0.3277    3.6306 N   0  0  0  0  0  0  0  0  0  0  0  0
    1.3090   -0.4498    4.5905 C   0  0  0  0  0  0  0  0  0  0  0  0
    0.2634   -0.0859    2.3442 C   0  0  0  0  0  0  0  0  0  0  0  0
    0.6979   -1.0917    1.6662 N   0  0  0  0  0  0  0  0  0  0  0  0
    0.2206   -1.1744    0.3787 C   0  0  0  0  0  0  0  0  0  0  0  0
    0.6609   -2.0700   -0.4411 N   0  0  0  0  0  0  0  0  0  0  0  0
    1.7126   -2.9899    0.0105 C   0  0  0  0  0  0  0  0  0  0  0  0
    3.0654   -2.5561   -0.5614 C   0  0  0  0  0  0  0  0  0  0  0  0
    3.5688   -1.4307    0.1631 O   0  0  0  0  0  0  0  0  0  0  0  0
    4.7745   -0.8945   -0.3814 C   0  0  0  0  0  0  0  0  0  0  0  0
    4.4592    0.0605   -1.5283 C   0  0  0  0  0  0  0  0  0  0  0  0
    5.4807   -0.1498    0.7458 C   0  0  0  0  0  0  0  0  0  0  0  0
   -0.9456   -0.3362   -1.0569 H   0  0  0  0  0  0  0  0  0  0  0  0
   -2.2845    2.5277    0.6378 H   0  0  0  0  0  0  0  0  0  0  0  0
   -3.3011    3.5688   -1.3073 H   0  0  0  0  0  0  0  0  0  0  0  0
   -4.9800    3.2998   -3.0711 H   0  0  0  0  0  0  0  0  0  0  0  0
   -6.0082    1.7726   -4.7480 H   0  0  0  0  0  0  0  0  0  0  0  0
   -5.9623    0.0247   -4.5211 H   0  0  0  0  0  0  0  0  0  0  0  0
   -7.0843    1.0106   -3.5509 H   0  0  0  0  0  0  0  0  0  0  0  0
   -4.8862   -0.9683   -2.5032 H   0  0  0  0  0  0  0  0  0  0  0  0
   -3.2420   -0.7036   -0.7228 H   0  0  0  0  0  0  0  0  0  0  0  0
   -1.5848    2.6475    3.0000 H   0  0  0  0  0  0  0  0  0  0  0  0
    1.6916    0.1870    5.3948 H   0  0  0  0  0  0  0  0  0  0  0  0
    2.1660   -0.9400    4.1174 H   0  0  0  0  0  0  0  0  0  0  0  0
    0.6687   -1.2189    5.0335 H   0  0  0  0  0  0  0  0  0  0  0  0
    1.7682   -3.0981    1.0989 H   0  0  0  0  0  0  0  0  0  0  0  0
    1.4647   -3.9805   -0.3875 H   0  0  0  0  0  0  0  0  0  0  0  0
    2.9634   -2.3153   -1.6247 H   0  0  0  0  0  0  0  0  0  0  0  0
    3.7798   -3.3801   -0.4542 H   0  0  0  0  0  0  0  0  0  0  0  0
    5.4266   -1.7050   -0.7290 H   0  0  0  0  0  0  0  0  0  0  0  0
    5.3665    0.5487   -1.8976 H   0  0  0  0  0  0  0  0  0  0  0  0
    3.9951   -0.4675   -2.3668 H   0  0  0  0  0  0  0  0  0  0  0  0
    3.7485    0.8315   -1.2106 H   0  0  0  0  0  0  0  0  0  0  0  0
    4.8474    0.6490    1.1476 H   0  0  0  0  0  0  0  0  0  0  0  0
    5.6922   -0.8308    1.5774 H   0  0  0  0  0  0  0  0  0  0  0  0
    6.4245    0.2871    0.4054 H   0  0  0  0  0  0  0  0  0  0  0  0
  1  2  1  0
  2  3  1  0
  3  4  1  0
  4  5  2  0
  5  6  1  0
  6  7  2  0
  7  8  1  0
  7  9  1  0
  9 10  2  0
  2 11  2  0
 11 12  1  0
 12 13  2  0
 13 14  1  0
 14 15  1  0
 14 16  1  0
 16 17  2  0
 17 18  1  0
 18 19  2  3
 19 20  1  0
 20 21  1  0
 21 22  1  0
 22 23  1  0
 23 24  1  0
 23 25  1  0
 18  1  1  0
 10  4  1  0
 16 11  1  0
  1 26  1  0
  3 27  1  0
  5 28  1  0
  6 29  1  0
  8 30  1  0
  8 31  1  0
  8 32  1  0
  9 33  1  0
 10 34  1  0
 12 35  1  0
 15 36  1  0
 15 37  1  0
 15 38  1  0
 20 39  1  0
 20 40  1  0
 21 41  1  0
 21 42  1  0
 23 43  1  0
 24 44  1  0
 24 45  1  0
 24 46  1  0
 25 47  1  0
 25 48  1  0
 25 49  1  0
M  END
>  <ScrubInfo>  (3) 
{"isomerGroup": 0, "isomerId": 2, "confId": 0, "nr_conformers:": 1, "nr_isomers:": 9}

$$$$
_i3
     RDKit          3D

 49 51  0  0  0  0  0  0  0  0999 V2000
    0.7267    2.0476    0.9917 N   0  0  0  0  0  0  0  0  0  0  0  0
    1.0585    0.7156    1.1109 C   0  0  0  0  0  0  0  0  0  0  0  0
    2.0972    0.4150    1.8168 N   0  0  0  0  0  0  0  0  0  0  0  0
    2.4728   -0.9994    1.9512 C   0  0  0  0  0  0  0  0  0  0  0  0
    3.2913   -1.4751    0.7473 C   0  0  0  0  0  0  0  0  0  0  0  0
    4.6010   -0.8984    0.7922 O   0  0  0  0  0  0  0  0  0  0  0  0
    5.3963   -1.2091   -0.3531 C   0  0  0  0  0  0  0  0  0  0  0  0
    6.8559   -1.0657    0.0624 C   0  0  0  0  0  0  0  0  0  0  0  0
    5.0764   -0.2517   -1.4969 C   0  0  0  0  0  0  0  0  0  0  0  0
    0.3148   -0.2823    0.4949 N   0  0  0  0  0  0  0  0  0  0  0  0
   -0.7374    0.0525   -0.2016 C   0  0  0  0  0  0  0  0  0  0  0  0
   -1.5171   -0.8669   -0.8570 N   0  0  0  0  0  0  0  0  0  0  0  0
   -2.9023   -1.0559   -0.6094 C   0  0  0  0  0  0  0  0  0  0  0  0
   -3.6404   -1.8128   -1.5285 C   0  0  0  0  0  0  0  0  0  0  0  0
   -5.0013   -2.0589   -1.3269 C   0  0  0  0  0  0  0  0  0  0  0  0
   -5.6515   -1.5535   -0.1974 C   0  0  0  0  0  0  0  0  0  0  0  0
   -7.1045   -1.8418    0.0382 C   0  0  0  0  0  0  0  0  0  0  0  0
   -4.9116   -0.8260    0.7401 C   0  0  0  0  0  0  0  0  0  0  0  0
   -3.5497   -0.5808    0.5368 C   0  0  0  0  0  0  0  0  0  0  0  0
   -1.0983    1.4415   -0.3805 C   0  0  0  0  0  0  0  0  0  0  0  0
   -2.0654    2.1864   -1.0724 C   0  0  0  0  0  0  0  0  0  0  0  0
   -1.9224    3.5086   -0.8834 N   0  0  0  0  0  0  0  0  0  0  0  0
   -0.8421    3.6051   -0.0684 N   0  0  0  0  0  0  0  0  0  0  0  0
   -0.3849    4.9080    0.3420 C   0  0  0  0  0  0  0  0  0  0  0  0
   -0.3312    2.3865    0.2418 C   0  0  0  0  0  0  0  0  0  0  0  0
    1.3600    2.6816    1.4609 H   0  0  0  0  0  0  0  0  0  0  0  0
    3.0765   -1.0910    2.8614 H   0  0  0  0  0  0  0  0  0  0  0  0
    1.5930   -1.6373    2.0963 H   0  0  0  0  0  0  0  0  0  0  0  0
    3.3970   -2.5647    0.7981 H   0  0  0  0  0  0  0  0  0  0  0  0
    2.7919   -1.2161   -0.1908 H   0  0  0  0  0  0  0  0  0  0  0  0
    5.2215   -2.2460   -0.6650 H   0  0  0  0  0  0  0  0  0  0  0  0
    7.0674   -0.0499    0.4148 H   0  0  0  0  0  0  0  0  0  0  0  0
    7.0823   -1.7404    0.8953 H   0  0  0  0  0  0  0  0  0  0  0  0
    7.5314   -1.2979   -0.7666 H   0  0  0  0  0  0  0  0  0  0  0  0
    5.1769    0.7904   -1.1739 H   0  0  0  0  0  0  0  0  0  0  0  0
    5.7392   -0.4207   -2.3514 H   0  0  0  0  0  0  0  0  0  0  0  0
    4.0450   -0.3754   -1.8406 H   0  0  0  0  0  0  0  0  0  0  0  0
   -1.0744   -1.7814   -0.7953 H   0  0  0  0  0  0  0  0  0  0  0  0
   -3.1598   -2.2077   -2.4207 H   0  0  0  0  0  0  0  0  0  0  0  0
   -5.5499   -2.6461   -2.0601 H   0  0  0  0  0  0  0  0  0  0  0  0
   -7.6428   -1.9363   -0.9107 H   0  0  0  0  0  0  0  0  0  0  0  0
   -7.2146   -2.7732    0.6020 H   0  0  0  0  0  0  0  0  0  0  0  0
   -7.5776   -1.0294    0.6000 H   0  0  0  0  0  0  0  0  0  0  0  0
   -5.3893   -0.4454    1.6407 H   0  0  0  0  0  0  0  0  0  0  0  0
   -3.0085   -0.0237    1.2976 H   0  0  0  0  0  0  0  0  0  0  0  0
   -2.8692    1.8323   -1.7052 H   0  0  0  0  0  0  0  0  0  0  0  0
   -0.0749    5.4598   -0.5490 H   0  0  0  0  0  0  0  0  0  0  0  0
   -1.2098    5.4216    0.8424 H   0  0  0  0  0  0  0  0  0  0  0  0
    0.4580    4.8079    1.0289 H   0  0  0  0  0  0  0  0  0  0  0  0
  1  2  1  0
  2  3  2  3
  3  4  1  0
  4  5  1  0
  5  6  1  0
  6  7  1  0
  7  8  1  0
  7  9  1  0
  2 10  1  0
 10 11  2  0
 11 12  1  0
 12 13  1  0
 13 14  2  0
 14 15  1  0
 15 16  2  0
 16 17  1  0
 16 18  1  0
 18 19  2  0
 11 20  1  0
 20 21  1  0
 21 22  2  0
 22 23  1  0
 23 24  1  0
 23 25  1  0
 25  1  1  0
 19 13  1  0
 25 20  2  0
  1 26  1  0
  4 27  1  0
  4 28  1  0
  5 29  1  0
  5 30  1  0
  7 31  1  0
  8 32  1  0
  8 33  1  0
  8 34  1  0
  9 35  1  0
  9 36  1  0
  9 37  1  0
 12 38  1  0
 14 39  1  0
 15 40  1  0
 17 41  1  0
 17 42  1  0
 17 43  1  0
 18 44  1  0
 19 45  1  0
 21 46  1  0
 24 47  1  0
 24 48  1  0
 24 49  1  0
M  END
>  <ScrubInfo>  (4) 
{"isomerGroup": 0, "isomerId": 3, "confId": 0, "nr_conformers:": 1, "nr_isomers:": 9}

$$$$
_i4
     RDKit          3D

 49 51  0  0  0  0  0  0  0  0999 V2000
    0.6486   -0.5298   -2.5568 N   0  0  0  0  0  0  0  0  0  0  0  0
    0.2239   -0.4610   -1.2465 C   0  0  0  0  0  0  0  0  0  0  0  0
    1.2502   -0.6698   -0.3677 N   0  0  0  0  0  0  0  0  0  0  0  0
    1.0453   -0.4518    1.0644 C   0  0  0  0  0  0  0  0  0  0  0  0
    2.3247   -0.8142    1.8233 C   0  0  0  0  0  0  0  0  0  0  0  0
    3.4027   -0.0092    1.3236 O   0  0  0  0  0  0  0  0  0  0  0  0
    4.6568   -0.2883    1.9540 C   0  0  0  0  0  0  0  0  0  0  0  0
    5.7472    0.2234    1.0194 C   0  0  0  0  0  0  0  0  0  0  0  0
    4.7482    0.4117    3.3060 C   0  0  0  0  0  0  0  0  0  0  0  0
   -1.0028   -0.2403   -0.8633 N   0  0  0  0  0  0  0  0  0  0  0  0
   -1.9915   -0.0428   -1.8164 C   0  0  0  0  0  0  0  0  0  0  0  0
   -3.2318    0.2102   -1.5432 N   0  0  0  0  0  0  0  0  0  0  0  0
   -3.6050    0.2950   -0.1950 C   0  0  0  0  0  0  0  0  0  0  0  0
   -4.0531   -0.8377    0.4878 C   0  0  0  0  0  0  0  0  0  0  0  0
   -4.4567   -0.7490    1.8230 C   0  0  0  0  0  0  0  0  0  0  0  0
   -4.4181    0.4791    2.4940 C   0  0  0  0  0  0  0  0  0  0  0  0
   -4.8854    0.5836    3.9151 C   0  0  0  0  0  0  0  0  0  0  0  0
   -3.9973    1.6196    1.7998 C   0  0  0  0  0  0  0  0  0  0  0  0
   -3.5947    1.5257    0.4646 C   0  0  0  0  0  0  0  0  0  0  0  0
   -1.5953   -0.1331   -3.1982 C   0  0  0  0  0  0  0  0  0  0  0  0
   -2.2394   -0.0413   -4.4388 C   0  0  0  0  0  0  0  0  0  0  0  0
   -1.3925   -0.2250   -5.4661 N   0  0  0  0  0  0  0  0  0  0  0  0
   -0.1945   -0.4345   -4.8639 N   0  0  0  0  0  0  0  0  0  0  0  0
    0.9684   -0.6668   -5.6812 C   0  0  0  0  0  0  0  0  0  0  0  0
   -0.2872   -0.3788   -3.5100 C   0  0  0  0  0  0  0  0  0  0  0  0
    1.5787   -0.8850   -2.7290 H   0  0  0  0  0  0  0  0  0  0  0  0
    2.1365   -0.2610   -0.6522 H   0  0  0  0  0  0  0  0  0  0  0  0
    0.2157   -1.0653    1.4319 H   0  0  0  0  0  0  0  0  0  0  0  0
    0.8078    0.6051    1.2322 H   0  0  0  0  0  0  0  0  0  0  0  0
    2.5651   -1.8726    1.6697 H   0  0  0  0  0  0  0  0  0  0  0  0
    2.1768   -0.6285    2.8913 H   0  0  0  0  0  0  0  0  0  0  0  0
    4.7825   -1.3708    2.0770 H   0  0  0  0  0  0  0  0  0  0  0  0
    6.7444    0.0333    1.4279 H   0  0  0  0  0  0  0  0  0  0  0  0
    5.6718   -0.2667    0.0426 H   0  0  0  0  0  0  0  0  0  0  0  0
    5.6394    1.2991    0.8402 H   0  0  0  0  0  0  0  0  0  0  0  0
    4.0149    0.0079    4.0105 H   0  0  0  0  0  0  0  0  0  0  0  0
    5.7417    0.2890    3.7487 H   0  0  0  0  0  0  0  0  0  0  0  0
    4.5357    1.4819    3.2076 H   0  0  0  0  0  0  0  0  0  0  0  0
   -4.0869   -1.7935   -0.0268 H   0  0  0  0  0  0  0  0  0  0  0  0
   -4.8039   -1.6450    2.3315 H   0  0  0  0  0  0  0  0  0  0  0  0
   -4.6916   -0.3467    4.4593 H   0  0  0  0  0  0  0  0  0  0  0  0
   -4.3558    1.3841    4.4424 H   0  0  0  0  0  0  0  0  0  0  0  0
   -5.9593    0.7923    3.9417 H   0  0  0  0  0  0  0  0  0  0  0  0
   -3.9827    2.5898    2.2900 H   0  0  0  0  0  0  0  0  0  0  0  0
   -3.2713    2.4150   -0.0682 H   0  0  0  0  0  0  0  0  0  0  0  0
   -3.2864    0.1459   -4.6405 H   0  0  0  0  0  0  0  0  0  0  0  0
    1.8566   -0.7467   -5.0511 H   0  0  0  0  0  0  0  0  0  0  0  0
    1.0802    0.1737   -6.3709 H   0  0  0  0  0  0  0  0  0  0  0  0
    0.8194   -1.5978   -6.2338 H   0  0  0  0  0  0  0  0  0  0  0  0
  1  2  1  0
  2  3  1  0
  3  4  1  0
  4  5  1  0
  5  6  1  0
  6  7  1  0
  7  8  1  0
  7  9  1  0
  2 10  2  0
 10 11  1  0
 11 12  2  3
 12 13  1  0
 13 14  2  0
 14 15  1  0
 15 16  2  0
 16 17  1  0
 16 18  1  0
 18 19  2  0
 11 20  1  0
 20 21  1  0
 21 22  2  0
 22 23  1  0
 23 24  1  0
 23 25  1  0
 25  1  1  0
 19 13  1  0
 25 20  2  0
  1 26  1  0
  3 27  1  0
  4 28  1  0
  4 29  1  0
  5 30  1  0
  5 31  1  0
  7 32  1  0
  8 33  1  0
  8 34  1  0
  8 35  1  0
  9 36  1  0
  9 37  1  0
  9 38  1  0
 14 39  1  0
 15 40  1  0
 17 41  1  0
 17 42  1  0
 17 43  1  0
 18 44  1  0
 19 45  1  0
 21 46  1  0
 24 47  1  0
 24 48  1  0
 24 49  1  0
M  END
>  <ScrubInfo>  (5) 
{"isomerGroup": 0, "isomerId": 4, "confId": 0, "nr_conformers:": 1, "nr_isomers:": 9}

$$$$
_i5
     RDKit          3D

 49 51  0  0  0  0  0  0  0  0999 V2000
   -2.0634   -3.3321    1.1900 N   0  0  0  0  0  0  0  0  0  0  0  0
   -2.4904   -2.0504    0.8518 C   0  0  0  0  0  0  0  0  0  0  0  0
   -1.4940   -1.2307    0.4791 C   0  0  0  0  0  0  0  0  0  0  0  0
   -1.3114    0.1344    0.0016 C   0  0  0  0  0  0  0  0  0  0  0  0
   -2.1540    1.1074   -0.1074 N   0  0  0  0  0  0  0  0  0  0  0  0
   -3.4869    0.9415    0.2733 C   0  0  0  0  0  0  0  0  0  0  0  0
   -4.4536    0.6227   -0.6823 C   0  0  0  0  0  0  0  0  0  0  0  0
   -5.7922    0.4681   -0.3124 C   0  0  0  0  0  0  0  0  0  0  0  0
   -6.1812    0.6363    1.0219 C   0  0  0  0  0  0  0  0  0  0  0  0
   -7.6235    0.5107    1.4146 C   0  0  0  0  0  0  0  0  0  0  0  0
   -5.2170    0.9955    1.9715 C   0  0  0  0  0  0  0  0  0  0  0  0
   -3.8798    1.1501    1.5969 C   0  0  0  0  0  0  0  0  0  0  0  0
   -0.0302    0.4170   -0.3925 N   0  0  0  0  0  0  0  0  0  0  0  0
    0.9422   -0.4438   -0.3369 C   0  0  0  0  0  0  0  0  0  0  0  0
    2.1599   -0.0080   -0.7693 N   0  0  0  0  0  0  0  0  0  0  0  0
    3.4047   -0.5644   -0.2690 C   0  0  0  0  0  0  0  0  0  0  0  0
    4.5896    0.1064   -0.9705 C   0  0  0  0  0  0  0  0  0  0  0  0
    4.5992    1.4997   -0.6373 O   0  0  0  0  0  0  0  0  0  0  0  0
    5.5726    2.2567   -1.3620 C   0  0  0  0  0  0  0  0  0  0  0  0
    5.1848    3.7248   -1.2241 C   0  0  0  0  0  0  0  0  0  0  0  0
    6.9727    2.0251   -0.8031 C   0  0  0  0  0  0  0  0  0  0  0  0
    0.8376   -1.7325    0.1151 N   0  0  0  0  0  0  0  0  0  0  0  0
   -0.3194   -2.1217    0.5207 C   0  0  0  0  0  0  0  0  0  0  0  0
   -0.6928   -3.3697    1.0068 N   0  0  0  0  0  0  0  0  0  0  0  0
   -0.0037   -4.5935    0.6714 C   0  0  0  0  0  0  0  0  0  0  0  0
   -2.6205   -4.0642    0.7445 H   0  0  0  0  0  0  0  0  0  0  0  0
   -3.5495   -1.8404    0.8855 H   0  0  0  0  0  0  0  0  0  0  0  0
   -4.1596    0.5039   -1.7218 H   0  0  0  0  0  0  0  0  0  0  0  0
   -6.5288    0.2267   -1.0752 H   0  0  0  0  0  0  0  0  0  0  0  0
   -8.1385   -0.2184    0.7803 H   0  0  0  0  0  0  0  0  0  0  0  0
   -8.1234    1.4794    1.3185 H   0  0  0  0  0  0  0  0  0  0  0  0
   -7.7175    0.1643    2.4492 H   0  0  0  0  0  0  0  0  0  0  0  0
   -5.5002    1.1671    3.0075 H   0  0  0  0  0  0  0  0  0  0  0  0
   -3.1391    1.4407    2.3372 H   0  0  0  0  0  0  0  0  0  0  0  0
    2.1795    1.0060   -0.8480 H   0  0  0  0  0  0  0  0  0  0  0  0
    3.4423   -1.6432   -0.4545 H   0  0  0  0  0  0  0  0  0  0  0  0
    3.4675   -0.3887    0.8109 H   0  0  0  0  0  0  0  0  0  0  0  0
    5.5191   -0.3597   -0.6298 H   0  0  0  0  0  0  0  0  0  0  0  0
    4.5010   -0.0138   -2.0565 H   0  0  0  0  0  0  0  0  0  0  0  0
    5.5390    1.9867   -2.4243 H   0  0  0  0  0  0  0  0  0  0  0  0
    4.1736    3.8894   -1.6119 H   0  0  0  0  0  0  0  0  0  0  0  0
    5.8766    4.3733   -1.7704 H   0  0  0  0  0  0  0  0  0  0  0  0
    5.1716    4.0312   -0.1721 H   0  0  0  0  0  0  0  0  0  0  0  0
    7.7036    2.6861   -1.2793 H   0  0  0  0  0  0  0  0  0  0  0  0
    6.9953    2.1950    0.2789 H   0  0  0  0  0  0  0  0  0  0  0  0
    7.2975    0.9933   -0.9685 H   0  0  0  0  0  0  0  0  0  0  0  0
   -0.1743   -4.8572   -0.3773 H   0  0  0  0  0  0  0  0  0  0  0  0
    1.0737   -4.4896    0.8348 H   0  0  0  0  0  0  0  0  0  0  0  0
   -0.3586   -5.4178    1.2985 H   0  0  0  0  0  0  0  0  0  0  0  0
  1  2  1  0
  2  3  2  0
  3  4  1  0
  4  5  2  3
  5  6  1  0
  6  7  2  0
  7  8  1  0
  8  9  2  0
  9 10  1  0
  9 11  1  0
 11 12  2  0
  4 13  1  0
 13 14  2  0
 14 15  1  0
 15 16  1  0
 16 17  1  0
 17 18  1  0
 18 19  1  0
 19 20  1  0
 19 21  1  0
 14 22  1  0
 22 23  2  0
 23 24  1  0
 24 25  1  0
 24  1  1  0
 23  3  1  0
 12  6  1  0
  1 26  1  0
  2 27  1  0
  7 28  1  0
  8 29  1  0
 10 30  1  0
 10 31  1  0
 10 32  1  0
 11 33  1  0
 12 34  1  0
 15 35  1  0
 16 36  1  0
 16 37  1  0
 17 38  1  0
 17 39  1  0
 19 40  1  0
 20 41  1  0
 20 42  1  0
 20 43  1  0
 21 44  1  0
 21 45  1  0
 21 46  1  0
 25 47  1  0
 25 48  1  0
 25 49  1  0
M  END
>  <ScrubInfo>  (6) 
{"isomerGroup": 0, "isomerId": 5, "confId": 0, "nr_conformers:": 1, "nr_isomers:": 9}

$$$$
_i6
     RDKit          3D

 49 51  0  0  0  0  0  0  0  0999 V2000
   -2.3060   -3.8340   -0.1613 N   0  0  0  0  0  0  0  0  0  0  0  0
   -2.2762   -2.4692   -0.4268 C   0  0  0  0  0  0  0  0  0  0  0  0
   -1.1862   -1.8657    0.0653 C   0  0  0  0  0  0  0  0  0  0  0  0
   -0.5826   -0.5355    0.0935 C   0  0  0  0  0  0  0  0  0  0  0  0
   -1.1677    0.5846   -0.4577 N   0  0  0  0  0  0  0  0  0  0  0  0
   -2.5064    0.9759   -0.2249 C   0  0  0  0  0  0  0  0  0  0  0  0
   -3.1287    1.8097   -1.1613 C   0  0  0  0  0  0  0  0  0  0  0  0
   -4.4348    2.2650   -0.9606 C   0  0  0  0  0  0  0  0  0  0  0  0
   -5.1332    1.9207    0.2005 C   0  0  0  0  0  0  0  0  0  0  0  0
   -6.5454    2.3831    0.4053 C   0  0  0  0  0  0  0  0  0  0  0  0
   -4.5101    1.1015    1.1472 C   0  0  0  0  0  0  0  0  0  0  0  0
   -3.2035    0.6464    0.9430 C   0  0  0  0  0  0  0  0  0  0  0  0
    0.5978   -0.4051    0.6346 N   0  0  0  0  0  0  0  0  0  0  0  0
    1.2101   -1.5133    1.1835 C   0  0  0  0  0  0  0  0  0  0  0  0
    2.3942   -1.4050    1.6722 N   0  0  0  0  0  0  0  0  0  0  0  0
    3.0521   -0.0984    1.6532 C   0  0  0  0  0  0  0  0  0  0  0  0
    3.8008    0.1145    0.3384 C   0  0  0  0  0  0  0  0  0  0  0  0
    4.4402    1.3938    0.3667 O   0  0  0  0  0  0  0  0  0  0  0  0
    5.2489    1.6503   -0.7842 C   0  0  0  0  0  0  0  0  0  0  0  0
    4.3864    2.0605   -1.9737 C   0  0  0  0  0  0  0  0  0  0  0  0
    6.2052    2.7784   -0.4130 C   0  0  0  0  0  0  0  0  0  0  0  0
    0.6901   -2.7826    1.2716 N   0  0  0  0  0  0  0  0  0  0  0  0
   -0.4698   -2.9647    0.7445 C   0  0  0  0  0  0  0  0  0  0  0  0
   -1.2372   -4.1284    0.6804 N   0  0  0  0  0  0  0  0  0  0  0  0
   -0.6049   -5.4311    0.5932 C   0  0  0  0  0  0  0  0  0  0  0  0
   -3.2230   -4.1704    0.1411 H   0  0  0  0  0  0  0  0  0  0  0  0
   -3.0904   -2.0196   -0.9777 H   0  0  0  0  0  0  0  0  0  0  0  0
   -0.5579    1.3926   -0.3435 H   0  0  0  0  0  0  0  0  0  0  0  0
   -2.6016    2.0978   -2.0683 H   0  0  0  0  0  0  0  0  0  0  0  0
   -4.8997    2.8951   -1.7158 H   0  0  0  0  0  0  0  0  0  0  0  0
   -6.7122    3.3536   -0.0739 H   0  0  0  0  0  0  0  0  0  0  0  0
   -7.2427    1.6543   -0.0190 H   0  0  0  0  0  0  0  0  0  0  0  0
   -6.7658    2.5055    1.4710 H   0  0  0  0  0  0  0  0  0  0  0  0
   -5.0325    0.8216    2.0597 H   0  0  0  0  0  0  0  0  0  0  0  0
   -2.7387    0.0451    1.7206 H   0  0  0  0  0  0  0  0  0  0  0  0
    3.7717   -0.0653    2.4805 H   0  0  0  0  0  0  0  0  0  0  0  0
    2.3660    0.7338    1.8551 H   0  0  0  0  0  0  0  0  0  0  0  0
    4.5537   -0.6723    0.2112 H   0  0  0  0  0  0  0  0  0  0  0  0
    3.1045    0.0663   -0.5044 H   0  0  0  0  0  0  0  0  0  0  0  0
    5.8402    0.7609   -1.0331 H   0  0  0  0  0  0  0  0  0  0  0  0
    3.7480    1.2349   -2.3025 H   0  0  0  0  0  0  0  0  0  0  0  0
    5.0042    2.3649   -2.8245 H   0  0  0  0  0  0  0  0  0  0  0  0
    3.7204    2.8885   -1.7071 H   0  0  0  0  0  0  0  0  0  0  0  0
    6.8733    3.0249   -1.2439 H   0  0  0  0  0  0  0  0  0  0  0  0
    6.8152    2.4916    0.4506 H   0  0  0  0  0  0  0  0  0  0  0  0
    5.6557    3.6811   -0.1236 H   0  0  0  0  0  0  0  0  0  0  0  0
   -0.0533   -5.5339   -0.3471 H   0  0  0  0  0  0  0  0  0  0  0  0
    0.0903   -5.5786    1.4259 H   0  0  0  0  0  0  0  0  0  0  0  0
   -1.3585   -6.2237    0.6429 H   0  0  0  0  0  0  0  0  0  0  0  0
  1  2  1  0
  2  3  2  0
  3  4  1  0
  4  5  1  0
  5  6  1  0
  6  7  2  0
  7  8  1  0
  8  9  2  0
  9 10  1  0
  9 11  1  0
 11 12  2  0
  4 13  2  0
 13 14  1  0
 14 15  2  3
 15 16  1  0
 16 17  1  0
 17 18  1  0
 18 19  1  0
 19 20  1  0
 19 21  1  0
 14 22  1  0
 22 23  2  0
 23 24  1  0
 24 25  1  0
 24  1  1  0
 23  3  1  0
 12  6  1  0
  1 26  1  0
  2 27  1  0
  5 28  1  0
  7 29  1  0
  8 30  1  0
 10 31  1  0
 10 32  1  0
 10 33  1  0
 11 34  1  0
 12 35  1  0
 16 36  1  0
 16 37  1  0
 17 38  1  0
 17 39  1  0
 19 40  1  0
 20 41  1  0
 20 42  1  0
 20 43  1  0
 21 44  1  0
 21 45  1  0
 21 46  1  0
 25 47  1  0
 25 48  1  0
 25 49  1  0
M  END
>  <ScrubInfo>  (7) 
{"isomerGroup": 0, "isomerId": 6, "confId": 0, "nr_conformers:": 1, "nr_isomers:": 9}

$$$$
_i7
     RDKit          3D

 49 51  0  0  0  0  0  0  0  0999 V2000
    0.7746    2.2612   -0.2252 N   0  0  0  0  0  0  0  0  0  0  0  0
    1.2183    1.4136    0.7689 C   0  0  0  0  0  0  0  0  0  0  0  0
    2.4128    1.5864    1.2181 N   0  0  0  0  0  0  0  0  0  0  0  0
    2.9459    0.7103    2.2661 C   0  0  0  0  0  0  0  0  0  0  0  0
    3.5439   -0.5680    1.6690 C   0  0  0  0  0  0  0  0  0  0  0  0
    4.7612   -0.2610    0.9864 O   0  0  0  0  0  0  0  0  0  0  0  0
    5.3405   -1.3843    0.3200 C   0  0  0  0  0  0  0  0  0  0  0  0
    6.8261   -1.0874    0.1505 C   0  0  0  0  0  0  0  0  0  0  0  0
    4.6846   -1.5912   -1.0416 C   0  0  0  0  0  0  0  0  0  0  0  0
    0.2796    0.4697    1.1380 N   0  0  0  0  0  0  0  0  0  0  0  0
   -1.0024    0.2349    0.6795 C   0  0  0  0  0  0  0  0  0  0  0  0
   -1.7131   -0.7304    1.1819 N   0  0  0  0  0  0  0  0  0  0  0  0
   -3.0118   -0.9995    0.7469 C   0  0  0  0  0  0  0  0  0  0  0  0
   -3.2350   -1.9188   -0.2802 C   0  0  0  0  0  0  0  0  0  0  0  0
   -4.5356   -2.2088   -0.7004 C   0  0  0  0  0  0  0  0  0  0  0  0
   -5.6325   -1.6019   -0.0772 C   0  0  0  0  0  0  0  0  0  0  0  0
   -7.0277   -1.8853   -0.5500 C   0  0  0  0  0  0  0  0  0  0  0  0
   -5.4071   -0.6901    0.9609 C   0  0  0  0  0  0  0  0  0  0  0  0
   -4.1050   -0.4026    1.3782 C   0  0  0  0  0  0  0  0  0  0  0  0
   -1.3692    1.1741   -0.3663 C   0  0  0  0  0  0  0  0  0  0  0  0
   -2.4816    1.4267   -1.1908 C   0  0  0  0  0  0  0  0  0  0  0  0
   -2.2868    2.4566   -2.0289 N   0  0  0  0  0  0  0  0  0  0  0  0
   -1.0368    2.8784   -1.7358 N   0  0  0  0  0  0  0  0  0  0  0  0
   -0.4804    3.9924   -2.4613 C   0  0  0  0  0  0  0  0  0  0  0  0
   -0.4594    2.1332   -0.7552 C   0  0  0  0  0  0  0  0  0  0  0  0
    1.4593    2.9505   -0.5144 H   0  0  0  0  0  0  0  0  0  0  0  0
    3.7282    1.2677    2.7938 H   0  0  0  0  0  0  0  0  0  0  0  0
    2.1800    0.4660    3.0103 H   0  0  0  0  0  0  0  0  0  0  0  0
    3.7719   -1.2672    2.4814 H   0  0  0  0  0  0  0  0  0  0  0  0
    2.8303   -1.0417    0.9880 H   0  0  0  0  0  0  0  0  0  0  0  0
    5.2316   -2.2857    0.9353 H   0  0  0  0  0  0  0  0  0  0  0  0
    6.9811   -0.1721   -0.4316 H   0  0  0  0  0  0  0  0  0  0  0  0
    7.2946   -0.9217    1.1268 H   0  0  0  0  0  0  0  0  0  0  0  0
    7.3435   -1.9129   -0.3478 H   0  0  0  0  0  0  0  0  0  0  0  0
    4.7202   -0.6717   -1.6363 H   0  0  0  0  0  0  0  0  0  0  0  0
    5.1787   -2.3916   -1.6013 H   0  0  0  0  0  0  0  0  0  0  0  0
    3.6282   -1.8562   -0.9364 H   0  0  0  0  0  0  0  0  0  0  0  0
    0.5407   -0.1734    1.8667 H   0  0  0  0  0  0  0  0  0  0  0  0
   -2.3911   -2.4073   -0.7592 H   0  0  0  0  0  0  0  0  0  0  0  0
   -4.6858   -2.9154   -1.5135 H   0  0  0  0  0  0  0  0  0  0  0  0
   -7.1082   -2.9050   -0.9410 H   0  0  0  0  0  0  0  0  0  0  0  0
   -7.7448   -1.7958    0.2728 H   0  0  0  0  0  0  0  0  0  0  0  0
   -7.3052   -1.1804   -1.3397 H   0  0  0  0  0  0  0  0  0  0  0  0
   -6.2433   -0.2011    1.4556 H   0  0  0  0  0  0  0  0  0  0  0  0
   -3.9412    0.2938    2.1958 H   0  0  0  0  0  0  0  0  0  0  0  0
   -3.4333    0.9150   -1.2344 H   0  0  0  0  0  0  0  0  0  0  0  0
   -0.0626    3.6138   -3.3971 H   0  0  0  0  0  0  0  0  0  0  0  0
   -1.2743    4.7162   -2.6636 H   0  0  0  0  0  0  0  0  0  0  0  0
    0.2985    4.4685   -1.8618 H   0  0  0  0  0  0  0  0  0  0  0  0
  1  2  1  0
  2  3  2  3
  3  4  1  0
  4  5  1  0
  5  6  1  0
  6  7  1  0
  7  8  1  0
  7  9  1  0
  2 10  1  0
 10 11  1  0
 11 12  2  3
 12 13  1  0
 13 14  2  0
 14 15  1  0
 15 16  2  0
 16 17  1  0
 16 18  1  0
 18 19  2  0
 11 20  1  0
 20 21  1  0
 21 22  2  0
 22 23  1  0
 23 24  1  0
 23 25  1  0
 25  1  1  0
 19 13  1  0
 25 20  2  0
  1 26  1  0
  4 27  1  0
  4 28  1  0
  5 29  1  0
  5 30  1  0
  7 31  1  0
  8 32  1  0
  8 33  1  0
  8 34  1  0
  9 35  1  0
  9 36  1  0
  9 37  1  0
 10 38  1  0
 14 39  1  0
 15 40  1  0
 17 41  1  0
 17 42  1  0
 17 43  1  0
 18 44  1  0
 19 45  1  0
 21 46  1  0
 24 47  1  0
 24 48  1  0
 24 49  1  0
M  END
>  <ScrubInfo>  (8) 
{"isomerGroup": 0, "isomerId": 7, "confId": 0, "nr_conformers:": 1, "nr_isomers:": 9}

$$$$
_i8
     RDKit          3D

 49 51  0  0  0  0  0  0  0  0999 V2000
   -0.5270   -4.1148    2.8659 N   0  0  0  0  0  0  0  0  0  0  0  0
   -1.6321   -3.3102    2.6105 C   0  0  0  0  0  0  0  0  0  0  0  0
   -1.3684   -2.3225    1.7471 C   0  0  0  0  0  0  0  0  0  0  0  0
   -2.0708   -1.1879    1.1436 C   0  0  0  0  0  0  0  0  0  0  0  0
   -3.3274   -0.9969    1.4159 N   0  0  0  0  0  0  0  0  0  0  0  0
   -3.9777    0.0958    0.8287 C   0  0  0  0  0  0  0  0  0  0  0  0
   -4.6028   -0.0379   -0.4121 C   0  0  0  0  0  0  0  0  0  0  0  0
   -5.2406    1.0548   -1.0046 C   0  0  0  0  0  0  0  0  0  0  0  0
   -5.2788    2.2919   -0.3503 C   0  0  0  0  0  0  0  0  0  0  0  0
   -5.9362    3.4743   -0.9986 C   0  0  0  0  0  0  0  0  0  0  0  0
   -4.6542    2.4224    0.8958 C   0  0  0  0  0  0  0  0  0  0  0  0
   -4.0174    1.3272    1.4846 C   0  0  0  0  0  0  0  0  0  0  0  0
   -1.2502   -0.4441    0.3333 N   0  0  0  0  0  0  0  0  0  0  0  0
    0.0724   -0.6820    0.0692 C   0  0  0  0  0  0  0  0  0  0  0  0
    0.6984    0.1452   -0.7039 N   0  0  0  0  0  0  0  0  0  0  0  0
    2.1107   -0.1409   -0.9757 C   0  0  0  0  0  0  0  0  0  0  0  0
    2.6632    0.9299   -1.9208 C   0  0  0  0  0  0  0  0  0  0  0  0
    4.0372    0.6879   -2.2349 O   0  0  0  0  0  0  0  0  0  0  0  0
    4.9573    1.2221   -1.2795 C   0  0  0  0  0  0  0  0  0  0  0  0
    5.2614    2.6792   -1.6126 C   0  0  0  0  0  0  0  0  0  0  0  0
    6.2272    0.3833   -1.3597 C   0  0  0  0  0  0  0  0  0  0  0  0
    0.7374   -1.7696    0.6003 N   0  0  0  0  0  0  0  0  0  0  0  0
    0.0623   -2.5581    1.3775 C   0  0  0  0  0  0  0  0  0  0  0  0
    0.5015   -3.7240    2.0105 N   0  0  0  0  0  0  0  0  0  0  0  0
    1.8764   -3.8649    2.4491 C   0  0  0  0  0  0  0  0  0  0  0  0
   -0.7489   -5.1130    2.8751 H   0  0  0  0  0  0  0  0  0  0  0  0
   -2.5746   -3.5222    3.0956 H   0  0  0  0  0  0  0  0  0  0  0  0
   -4.5915   -0.9984   -0.9202 H   0  0  0  0  0  0  0  0  0  0  0  0
   -5.7129    0.9311   -1.9766 H   0  0  0  0  0  0  0  0  0  0  0  0
   -6.7710    3.1581   -1.6330 H   0  0  0  0  0  0  0  0  0  0  0  0
   -5.2101    4.0157   -1.6127 H   0  0  0  0  0  0  0  0  0  0  0  0
   -6.3421    4.1574   -0.2451 H   0  0  0  0  0  0  0  0  0  0  0  0
   -4.6652    3.3754    1.4200 H   0  0  0  0  0  0  0  0  0  0  0  0
   -3.5487    1.4333    2.4592 H   0  0  0  0  0  0  0  0  0  0  0  0
   -1.6286    0.3726   -0.1228 H   0  0  0  0  0  0  0  0  0  0  0  0
    2.2336   -1.1230   -1.4494 H   0  0  0  0  0  0  0  0  0  0  0  0
    2.6915   -0.1453   -0.0461 H   0  0  0  0  0  0  0  0  0  0  0  0
    2.1085    0.8938   -2.8652 H   0  0  0  0  0  0  0  0  0  0  0  0
    2.5212    1.9355   -1.5088 H   0  0  0  0  0  0  0  0  0  0  0  0
    4.5520    1.1469   -0.2642 H   0  0  0  0  0  0  0  0  0  0  0  0
    5.6256    2.7774   -2.6413 H   0  0  0  0  0  0  0  0  0  0  0  0
    6.0136    3.0917   -0.9330 H   0  0  0  0  0  0  0  0  0  0  0  0
    4.3608    3.2967   -1.5393 H   0  0  0  0  0  0  0  0  0  0  0  0
    6.0040   -0.6658   -1.1370 H   0  0  0  0  0  0  0  0  0  0  0  0
    6.6524    0.4067   -2.3693 H   0  0  0  0  0  0  0  0  0  0  0  0
    6.9833    0.7360   -0.6516 H   0  0  0  0  0  0  0  0  0  0  0  0
    2.5662   -3.6995    1.6153 H   0  0  0  0  0  0  0  0  0  0  0  0
    2.1068   -3.1466    3.2428 H   0  0  0  0  0  0  0  0  0  0  0  0
    2.0523   -4.8752    2.8324 H   0  0  0  0  0  0  0  0  0  0  0  0
  1  2  1  0
  2  3  2  0
  3  4  1  0
  4  5  2  3
  5  6  1  0
  6  7  2  0
  7  8  1  0
  8  9  2  0
  9 10  1  0
  9 11  1  0
 11 12  2  0
  4 13  1  0
 13 14  1  0
 14 15  2  3
 15 16  1  0
 16 17  1  0
 17 18  1  0
 18 19  1  0
 19 20  1  0
 19 21  1  0
 14 22  1  0
 22 23  2  0
 23 24  1  0
 24 25  1  0
 24  1  1  0
 23  3  1  0
 12  6  1  0
  1 26  1  0
  2 27  1  0
  7 28  1  0
  8 29  1  0
 10 30  1  0
 10 31  1  0
 10 32  1  0
 11 33  1  0
 12 34  1  0
 13 35  1  0
 16 36  1  0
 16 37  1  0
 17 38  1  0
 17 39  1  0
 19 40  1  0
 20 41  1  0
 20 42  1  0
 20 43  1  0
 21 44  1  0
 21 45  1  0
 21 46  1  0
 25 47  1  0
 25 48  1  0
 25 49  1  0
M  END
>  <ScrubInfo>  (9) 
{"isomerGroup": 0, "isomerId": 8, "confId": 0, "nr_conformers:": 1, "nr_isomers:": 9}

$$$$
