REMARK SMILES Cc1ccc(Nc2nc(NCCOC(C)C)nc3c2cnn3C)cc1
REMARK SMILES IDX 10 1 9 3 7 4 8 5 19 6 18 7 20 8 17 9 22 10 21 11 23 12 6 13
REMARK SMILES IDX 5 15 2 16 3 17 25 18 4 19 24 20 1 21 11 22 12 23 13 24 14 25
REMARK SMILES IDX 15 26 16 27
REMARK H PARENT 10 2 6 14
ROOT
ATOM      1  N   UNL     1       2.208   0.287  -0.448  1.00  0.00    -0.352 N 
ATOM      2  H   UNL     1       2.043   0.749  -1.335  1.00  0.00     0.163 HD
ENDROOT
BRANCH   1   3
ATOM      3  C   UNL     1       0.988  -0.133   0.053  1.00  0.00     0.226 A 
ATOM      4  C   UNL     1      -1.262  -0.526  -0.470  1.00  0.00     0.147 A 
ATOM      5  N   UNL     1      -0.016  -0.140  -0.843  1.00  0.00    -0.195 NA
ATOM      6  C   UNL     1      -1.445  -0.952   0.847  1.00  0.00     0.082 A 
ATOM      7  C   UNL     1      -0.342  -0.901   1.676  1.00  0.00     0.165 A 
ATOM      8  C   UNL     1      -2.470  -1.480   1.658  1.00  0.00     0.149 A 
ATOM      9  N   UNL     1       0.890  -0.488   1.343  1.00  0.00    -0.193 NA
ATOM     10  N   UNL     1      -0.764  -1.364   2.892  1.00  0.00    -0.250 N 
ATOM     11  N   UNL     1      -2.070  -1.719   2.913  1.00  0.00    -0.179 NA
ATOM     12  C   UNL     1       0.029  -1.510   4.087  1.00  0.00     0.176 C 
BRANCH   4  13
ATOM     13  N   UNL     1      -2.251  -0.524  -1.464  1.00  0.00    -0.339 N 
ATOM     14  H   UNL     1      -1.812  -0.230  -2.333  1.00  0.00     0.168 HD
BRANCH  13  15
ATOM     15  C   UNL     1      -3.582  -0.070  -1.385  1.00  0.00     0.040 A 
ATOM     16  C   UNL     1      -6.276   0.789  -1.345  1.00  0.00    -0.051 A 
ATOM     17  C   UNL     1      -5.814  -0.050  -2.363  1.00  0.00     0.005 A 
ATOM     18  C   UNL     1      -5.376   1.220  -0.366  1.00  0.00     0.005 A 
ATOM     19  C   UNL     1      -4.482  -0.473  -2.380  1.00  0.00     0.026 A 
ATOM     20  C   UNL     1      -4.043   0.793  -0.387  1.00  0.00     0.026 A 
ATOM     21  C   UNL     1      -7.696   1.272  -1.341  1.00  0.00     0.044 C 
ENDBRANCH  13  15
ENDBRANCH   4  13
ENDBRANCH   1   3
BRANCH   1  22
ATOM     22  C   UNL     1       3.075   0.982   0.490  1.00  0.00     0.144 C 
BRANCH  22  23
ATOM     23  C   UNL     1       4.197   1.730  -0.249  1.00  0.00     0.181 C 
BRANCH  23  24
ATOM     24  O   UNL     1       4.925   0.953  -1.202  1.00  0.00    -0.377 OA
BRANCH  24  25
ATOM     25  C   UNL     1       5.612  -0.193  -0.694  1.00  0.00     0.112 C 
ATOM     26  C   UNL     1       6.135  -0.961  -1.905  1.00  0.00     0.038 C 
ATOM     27  C   UNL     1       6.771   0.202   0.216  1.00  0.00     0.038 C 
ENDBRANCH  24  25
ENDBRANCH  23  24
ENDBRANCH  22  23
ENDBRANCH   1  22
TORSDOF 7
