_i0
     RDKit          3D

 53 56  0  0  0  0  0  0  0  0999 V2000
    6.6292    2.9491   -0.8006 C   0  0  0  0  0  0  0  0  0  0  0  0
    5.8798    2.3669    0.2580 O   0  0  0  0  0  0  0  0  0  0  0  0
    5.2693    1.1709   -0.0015 C   0  0  0  0  0  0  0  0  0  0  0  0
    5.3228    0.4649   -1.2030 C   0  0  0  0  0  0  0  0  0  0  0  0
    4.6475   -0.7544   -1.3342 C   0  0  0  0  0  0  0  0  0  0  0  0
    3.9158   -1.2873   -0.2634 C   0  0  0  0  0  0  0  0  0  0  0  0
    3.1692   -2.5933   -0.4146 C   0  0  0  0  0  0  0  0  0  0  0  0
    1.8710   -2.3889   -1.0272 N   0  0  0  0  0  0  0  0  0  0  0  0
    0.8607   -1.9592   -0.1776 C   0  0  0  0  0  0  0  0  0  0  0  0
    0.0036   -1.0812   -0.7327 N   0  0  0  0  0  0  0  0  0  0  0  0
   -1.0396   -0.5992   -0.0120 C   0  0  0  0  0  0  0  0  0  0  0  0
   -1.8829    0.3274   -0.6469 N   0  0  0  0  0  0  0  0  0  0  0  0
   -3.2970    0.3770   -0.5828 C   0  0  0  0  0  0  0  0  0  0  0  0
   -4.0519   -0.7991   -0.4544 C   0  0  0  0  0  0  0  0  0  0  0  0
   -5.4432   -0.7588   -0.4410 C   0  0  0  0  0  0  0  0  0  0  0  0
   -6.1021    0.4590   -0.5697 C   0  0  0  0  0  0  0  0  0  0  0  0
   -5.3798    1.6511   -0.7272 C   0  0  0  0  0  0  0  0  0  0  0  0
   -6.1421    2.9420   -0.8662 C   0  0  0  0  0  0  0  0  0  0  0  0
   -3.9652    1.6099   -0.7735 C   0  0  0  0  0  0  0  0  0  0  0  0
   -3.1716    2.8854   -0.9302 C   0  0  0  0  0  0  0  0  0  0  0  0
   -1.1693   -1.0220    1.3119 C   0  0  0  0  0  0  0  0  0  0  0  0
   -2.0100   -0.7920    2.4201 C   0  0  0  0  0  0  0  0  0  0  0  0
   -1.6567   -1.5047    3.4972 N   0  0  0  0  0  0  0  0  0  0  0  0
   -0.5710   -2.1903    3.0697 N   0  0  0  0  0  0  0  0  0  0  0  0
    0.1034   -3.0851    3.9758 C   0  0  0  0  0  0  0  0  0  0  0  0
   -0.2339   -1.9269    1.7704 C   0  0  0  0  0  0  0  0  0  0  0  0
    0.7939   -2.4347    1.0744 N   0  0  0  0  0  0  0  0  0  0  0  0
    3.8598   -0.5690    0.9369 C   0  0  0  0  0  0  0  0  0  0  0  0
    4.5339    0.6476    1.0640 C   0  0  0  0  0  0  0  0  0  0  0  0
    7.4677    2.3070   -1.0902 H   0  0  0  0  0  0  0  0  0  0  0  0
    5.9891    3.1761   -1.6595 H   0  0  0  0  0  0  0  0  0  0  0  0
    7.0443    3.8938   -0.4362 H   0  0  0  0  0  0  0  0  0  0  0  0
    5.8780    0.8342   -2.0586 H   0  0  0  0  0  0  0  0  0  0  0  0
    4.6972   -1.2871   -2.2817 H   0  0  0  0  0  0  0  0  0  0  0  0
    3.7544   -3.2493   -1.0716 H   0  0  0  0  0  0  0  0  0  0  0  0
    3.1175   -3.1297    0.5415 H   0  0  0  0  0  0  0  0  0  0  0  0
    1.8744   -1.7316   -1.7995 H   0  0  0  0  0  0  0  0  0  0  0  0
   -1.5735    0.3789   -1.6158 H   0  0  0  0  0  0  0  0  0  0  0  0
   -3.5618   -1.7662   -0.3717 H   0  0  0  0  0  0  0  0  0  0  0  0
   -6.0126   -1.6780   -0.3321 H   0  0  0  0  0  0  0  0  0  0  0  0
   -7.1900    0.4727   -0.5498 H   0  0  0  0  0  0  0  0  0  0  0  0
   -7.2048    2.8072   -0.6376 H   0  0  0  0  0  0  0  0  0  0  0  0
   -5.7578    3.6932   -0.1688 H   0  0  0  0  0  0  0  0  0  0  0  0
   -6.0645    3.3174   -1.8913 H   0  0  0  0  0  0  0  0  0  0  0  0
   -3.0128    3.3455    0.0501 H   0  0  0  0  0  0  0  0  0  0  0  0
   -2.1983    2.7095   -1.3983 H   0  0  0  0  0  0  0  0  0  0  0  0
   -3.6863    3.5996   -1.5803 H   0  0  0  0  0  0  0  0  0  0  0  0
   -2.8677   -0.1339    2.4835 H   0  0  0  0  0  0  0  0  0  0  0  0
   -0.6089   -3.8485    4.2989 H   0  0  0  0  0  0  0  0  0  0  0  0
    0.4568   -2.5051    4.8321 H   0  0  0  0  0  0  0  0  0  0  0  0
    0.9505   -3.5582    3.4743 H   0  0  0  0  0  0  0  0  0  0  0  0
    3.2844   -0.9482    1.7790 H   0  0  0  0  0  0  0  0  0  0  0  0
    4.4811    1.1958    2.0016 H   0  0  0  0  0  0  0  0  0  0  0  0
  1  2  1  0
  2  3  1  0
  3  4  2  0
  4  5  1  0
  5  6  2  0
  6  7  1  0
  7  8  1  0
  8  9  1  0
  9 10  2  0
 10 11  1  0
 11 12  1  0
 12 13  1  0
 13 14  2  0
 14 15  1  0
 15 16  2  0
 16 17  1  0
 17 18  1  0
 17 19  2  0
 19 20  1  0
 11 21  2  0
 21 22  1  0
 22 23  2  0
 23 24  1  0
 24 25  1  0
 24 26  1  0
 26 27  2  0
  6 28  1  0
 28 29  2  0
 29  3  1  0
 27  9  1  0
 19 13  1  0
 26 21  1  0
  1 30  1  0
  1 31  1  0
  1 32  1  0
  4 33  1  0
  5 34  1  0
  7 35  1  0
  7 36  1  0
  8 37  1  0
 12 38  1  0
 14 39  1  0
 15 40  1  0
 16 41  1  0
 18 42  1  0
 18 43  1  0
 18 44  1  0
 20 45  1  0
 20 46  1  0
 20 47  1  0
 22 48  1  0
 25 49  1  0
 25 50  1  0
 25 51  1  0
 28 52  1  0
 29 53  1  0
M  END
>  <ScrubInfo>  (1) 
{"isomerGroup": 0, "isomerId": 0, "confId": 0, "nr_conformers:": 1, "nr_isomers:": 9}

$$$$
_i1
     RDKit          3D

 53 56  0  0  0  0  0  0  0  0999 V2000
   -0.2141    0.1285    0.9855 N   0  0  0  0  0  0  0  0  0  0  0  0
   -1.5681   -0.1337    1.0603 C   0  0  0  0  0  0  0  0  0  0  0  0
   -2.4093    0.7649    1.7036 N   0  0  0  0  0  0  0  0  0  0  0  0
   -3.7639    0.9846    1.3483 C   0  0  0  0  0  0  0  0  0  0  0  0
   -4.7228    0.7726    2.3497 C   0  0  0  0  0  0  0  0  0  0  0  0
   -6.0745    0.9779    2.0976 C   0  0  0  0  0  0  0  0  0  0  0  0
   -6.4830    1.4096    0.8403 C   0  0  0  0  0  0  0  0  0  0  0  0
   -5.5450    1.6617   -0.1738 C   0  0  0  0  0  0  0  0  0  0  0  0
   -6.0483    2.1410   -1.5102 C   0  0  0  0  0  0  0  0  0  0  0  0
   -4.1637    1.4942    0.0906 C   0  0  0  0  0  0  0  0  0  0  0  0
   -3.1461    1.8131   -0.9774 C   0  0  0  0  0  0  0  0  0  0  0  0
   -1.9533   -1.2853    0.4908 C   0  0  0  0  0  0  0  0  0  0  0  0
   -3.1908   -2.0448    0.2630 C   0  0  0  0  0  0  0  0  0  0  0  0
   -3.0010   -3.1496   -0.4161 N   0  0  0  0  0  0  0  0  0  0  0  0
   -1.6190   -3.2192   -0.6364 N   0  0  0  0  0  0  0  0  0  0  0  0
   -1.1082   -4.1719   -1.5908 C   0  0  0  0  0  0  0  0  0  0  0  0
   -0.9186   -2.1237   -0.1609 C   0  0  0  0  0  0  0  0  0  0  0  0
    0.3387   -1.8449   -0.2445 N   0  0  0  0  0  0  0  0  0  0  0  0
    0.7117   -0.6722    0.3700 C   0  0  0  0  0  0  0  0  0  0  0  0
    1.9478   -0.2995    0.3833 N   0  0  0  0  0  0  0  0  0  0  0  0
    2.9069   -1.1838   -0.2766 C   0  0  0  0  0  0  0  0  0  0  0  0
    4.3041   -0.6153   -0.1798 C   0  0  0  0  0  0  0  0  0  0  0  0
    4.7600    0.3158   -1.1220 C   0  0  0  0  0  0  0  0  0  0  0  0
    6.0472    0.8575   -1.0283 C   0  0  0  0  0  0  0  0  0  0  0  0
    6.8919    0.4814    0.0161 C   0  0  0  0  0  0  0  0  0  0  0  0
    8.1669    0.9324    0.2233 O   0  0  0  0  0  0  0  0  0  0  0  0
    8.6765    1.8672   -0.7187 C   0  0  0  0  0  0  0  0  0  0  0  0
    6.4346   -0.4346    0.9661 C   0  0  0  0  0  0  0  0  0  0  0  0
    5.1500   -0.9762    0.8748 C   0  0  0  0  0  0  0  0  0  0  0  0
    0.1583    0.9383    1.4561 H   0  0  0  0  0  0  0  0  0  0  0  0
   -1.9530    1.6614    1.8551 H   0  0  0  0  0  0  0  0  0  0  0  0
   -4.4110    0.4246    3.3321 H   0  0  0  0  0  0  0  0  0  0  0  0
   -6.8088    0.7956    2.8777 H   0  0  0  0  0  0  0  0  0  0  0  0
   -7.5456    1.5555    0.6550 H   0  0  0  0  0  0  0  0  0  0  0  0
   -5.8213    3.2038   -1.6398 H   0  0  0  0  0  0  0  0  0  0  0  0
   -5.5936    1.5652   -2.3227 H   0  0  0  0  0  0  0  0  0  0  0  0
   -7.1328    2.0144   -1.5988 H   0  0  0  0  0  0  0  0  0  0  0  0
   -2.1985    2.1484   -0.5449 H   0  0  0  0  0  0  0  0  0  0  0  0
   -3.4785    2.6358   -1.6178 H   0  0  0  0  0  0  0  0  0  0  0  0
   -2.9668    0.9319   -1.6007 H   0  0  0  0  0  0  0  0  0  0  0  0
   -4.1618   -1.6864    0.6236 H   0  0  0  0  0  0  0  0  0  0  0  0
   -0.0720   -4.4390   -1.3601 H   0  0  0  0  0  0  0  0  0  0  0  0
   -1.1433   -3.7537   -2.6016 H   0  0  0  0  0  0  0  0  0  0  0  0
   -1.7007   -5.0925   -1.5763 H   0  0  0  0  0  0  0  0  0  0  0  0
    2.6579   -1.3117   -1.3384 H   0  0  0  0  0  0  0  0  0  0  0  0
    2.9010   -2.1809    0.1832 H   0  0  0  0  0  0  0  0  0  0  0  0
    4.1066    0.6282   -1.9335 H   0  0  0  0  0  0  0  0  0  0  0  0
    6.3534    1.5724   -1.7839 H   0  0  0  0  0  0  0  0  0  0  0  0
    9.6967    2.1232   -0.4170 H   0  0  0  0  0  0  0  0  0  0  0  0
    8.7261    1.4305   -1.7217 H   0  0  0  0  0  0  0  0  0  0  0  0
    8.0878    2.7905   -0.7171 H   0  0  0  0  0  0  0  0  0  0  0  0
    7.0828   -0.7259    1.7885 H   0  0  0  0  0  0  0  0  0  0  0  0
    4.8105   -1.6772    1.6334 H   0  0  0  0  0  0  0  0  0  0  0  0
  1  2  1  0
  2  3  1  0
  3  4  1  0
  4  5  2  0
  5  6  1  0
  6  7  2  0
  7  8  1  0
  8  9  1  0
  8 10  2  0
 10 11  1  0
  2 12  2  0
 12 13  1  0
 13 14  2  0
 14 15  1  0
 15 16  1  0
 15 17  1  0
 17 18  2  0
 18 19  1  0
 19 20  2  3
 20 21  1  0
 21 22  1  0
 22 23  2  0
 23 24  1  0
 24 25  2  0
 25 26  1  0
 26 27  1  0
 25 28  1  0
 28 29  2  0
 19  1  1  0
 29 22  1  0
 10  4  1  0
 17 12  1  0
  1 30  1  0
  3 31  1  0
  5 32  1  0
  6 33  1  0
  7 34  1  0
  9 35  1  0
  9 36  1  0
  9 37  1  0
 11 38  1  0
 11 39  1  0
 11 40  1  0
 13 41  1  0
 16 42  1  0
 16 43  1  0
 16 44  1  0
 21 45  1  0
 21 46  1  0
 23 47  1  0
 24 48  1  0
 27 49  1  0
 27 50  1  0
 27 51  1  0
 28 52  1  0
 29 53  1  0
M  END
>  <ScrubInfo>  (2) 
{"isomerGroup": 0, "isomerId": 1, "confId": 0, "nr_conformers:": 1, "nr_isomers:": 9}

$$$$
_i2
     RDKit          3D

 53 56  0  0  0  0  0  0  0  0999 V2000
   -0.1732    0.1082   -0.6886 N   0  0  0  0  0  0  0  0  0  0  0  0
    0.7136   -0.7319   -0.0591 C   0  0  0  0  0  0  0  0  0  0  0  0
    2.0130   -0.3294   -0.1918 N   0  0  0  0  0  0  0  0  0  0  0  0
    3.0950   -1.1652    0.2972 C   0  0  0  0  0  0  0  0  0  0  0  0
    4.4099   -0.4717    0.0365 C   0  0  0  0  0  0  0  0  0  0  0  0
    4.8190    0.5994    0.8435 C   0  0  0  0  0  0  0  0  0  0  0  0
    6.0256    1.2634    0.5951 C   0  0  0  0  0  0  0  0  0  0  0  0
    6.8366    0.8682   -0.4681 C   0  0  0  0  0  0  0  0  0  0  0  0
    8.0330    1.4290   -0.8206 O   0  0  0  0  0  0  0  0  0  0  0  0
    8.5032    2.5008   -0.0130 C   0  0  0  0  0  0  0  0  0  0  0  0
    6.4281   -0.1927   -1.2795 C   0  0  0  0  0  0  0  0  0  0  0  0
    5.2242   -0.8580   -1.0346 C   0  0  0  0  0  0  0  0  0  0  0  0
    0.3546   -1.7976    0.6087 N   0  0  0  0  0  0  0  0  0  0  0  0
   -0.9964   -1.9772    0.5858 C   0  0  0  0  0  0  0  0  0  0  0  0
   -1.9632   -1.1863   -0.0166 C   0  0  0  0  0  0  0  0  0  0  0  0
   -3.1748   -1.8399    0.2698 C   0  0  0  0  0  0  0  0  0  0  0  0
   -3.0048   -2.9537    0.9942 N   0  0  0  0  0  0  0  0  0  0  0  0
   -1.6662   -3.0116    1.1762 N   0  0  0  0  0  0  0  0  0  0  0  0
   -1.1039   -4.1022    1.9320 C   0  0  0  0  0  0  0  0  0  0  0  0
   -1.5453    0.0082   -0.7233 C   0  0  0  0  0  0  0  0  0  0  0  0
   -2.2743    0.9059   -1.3137 N   0  0  0  0  0  0  0  0  0  0  0  0
   -3.6711    0.8197   -1.3460 C   0  0  0  0  0  0  0  0  0  0  0  0
   -4.2720    0.1961   -2.4455 C   0  0  0  0  0  0  0  0  0  0  0  0
   -5.6564    0.0882   -2.5319 C   0  0  0  0  0  0  0  0  0  0  0  0
   -6.4543    0.6091   -1.5169 C   0  0  0  0  0  0  0  0  0  0  0  0
   -5.8801    1.2553   -0.4104 C   0  0  0  0  0  0  0  0  0  0  0  0
   -6.7869    1.8065    0.6569 C   0  0  0  0  0  0  0  0  0  0  0  0
   -4.4743    1.3961   -0.3383 C   0  0  0  0  0  0  0  0  0  0  0  0
   -3.8295    2.0945    0.8319 C   0  0  0  0  0  0  0  0  0  0  0  0
    0.1805    0.9729   -1.0631 H   0  0  0  0  0  0  0  0  0  0  0  0
    2.2392    0.1152   -1.0732 H   0  0  0  0  0  0  0  0  0  0  0  0
    3.0780   -2.1408   -0.2036 H   0  0  0  0  0  0  0  0  0  0  0  0
    2.9898   -1.3484    1.3736 H   0  0  0  0  0  0  0  0  0  0  0  0
    4.1924    0.9254    1.6721 H   0  0  0  0  0  0  0  0  0  0  0  0
    6.2984    2.0849    1.2490 H   0  0  0  0  0  0  0  0  0  0  0  0
    9.4664    2.8265   -0.4175 H   0  0  0  0  0  0  0  0  0  0  0  0
    7.8191    3.3549   -0.0538 H   0  0  0  0  0  0  0  0  0  0  0  0
    8.6687    2.1748    1.0192 H   0  0  0  0  0  0  0  0  0  0  0  0
    7.0555   -0.5038   -2.1116 H   0  0  0  0  0  0  0  0  0  0  0  0
    4.9322   -1.6790   -1.6858 H   0  0  0  0  0  0  0  0  0  0  0  0
   -4.1835   -1.5683   -0.0091 H   0  0  0  0  0  0  0  0  0  0  0  0
   -1.5542   -4.0989    2.9279 H   0  0  0  0  0  0  0  0  0  0  0  0
   -1.3352   -5.0352    1.4117 H   0  0  0  0  0  0  0  0  0  0  0  0
   -0.0216   -3.9840    2.0168 H   0  0  0  0  0  0  0  0  0  0  0  0
   -3.6494   -0.2120   -3.2372 H   0  0  0  0  0  0  0  0  0  0  0  0
   -6.1119   -0.4036   -3.3869 H   0  0  0  0  0  0  0  0  0  0  0  0
   -7.5353    0.5099   -1.5953 H   0  0  0  0  0  0  0  0  0  0  0  0
   -6.8030    2.8998    0.6105 H   0  0  0  0  0  0  0  0  0  0  0  0
   -6.4535    1.4856    1.6490 H   0  0  0  0  0  0  0  0  0  0  0  0
   -7.8148    1.4487    0.5334 H   0  0  0  0  0  0  0  0  0  0  0  0
   -2.8460    2.5001    0.5745 H   0  0  0  0  0  0  0  0  0  0  0  0
   -4.4275    2.9492    1.1631 H   0  0  0  0  0  0  0  0  0  0  0  0
   -3.7134    1.3947    1.6652 H   0  0  0  0  0  0  0  0  0  0  0  0
  1  2  1  0
  2  3  1  0
  3  4  1  0
  4  5  1  0
  5  6  2  0
  6  7  1  0
  7  8  2  0
  8  9  1  0
  9 10  1  0
  8 11  1  0
 11 12  2  0
  2 13  2  0
 13 14  1  0
 14 15  2  0
 15 16  1  0
 16 17  2  0
 17 18  1  0
 18 19  1  0
 15 20  1  0
 20 21  2  3
 21 22  1  0
 22 23  2  0
 23 24  1  0
 24 25  2  0
 25 26  1  0
 26 27  1  0
 26 28  2  0
 28 29  1  0
 20  1  1  0
 28 22  1  0
 12  5  1  0
 18 14  1  0
  1 30  1  0
  3 31  1  0
  4 32  1  0
  4 33  1  0
  6 34  1  0
  7 35  1  0
 10 36  1  0
 10 37  1  0
 10 38  1  0
 11 39  1  0
 12 40  1  0
 16 41  1  0
 19 42  1  0
 19 43  1  0
 19 44  1  0
 23 45  1  0
 24 46  1  0
 25 47  1  0
 27 48  1  0
 27 49  1  0
 27 50  1  0
 29 51  1  0
 29 52  1  0
 29 53  1  0
M  END
>  <ScrubInfo>  (3) 
{"isomerGroup": 0, "isomerId": 2, "confId": 0, "nr_conformers:": 1, "nr_isomers:": 9}

$$$$
_i3
     RDKit          3D

 53 56  0  0  0  0  0  0  0  0999 V2000
    0.8152   -0.4231    0.6858 N   0  0  0  0  0  0  0  0  0  0  0  0
    0.6783    0.9279    0.9607 C   0  0  0  0  0  0  0  0  0  0  0  0
    1.4430    1.6404    1.7092 N   0  0  0  0  0  0  0  0  0  0  0  0
    2.5639    1.0298    2.4177 C   0  0  0  0  0  0  0  0  0  0  0  0
    3.6924    0.5385    1.5390 C   0  0  0  0  0  0  0  0  0  0  0  0
    4.0629    1.2320    0.3796 C   0  0  0  0  0  0  0  0  0  0  0  0
    5.1055    0.7696   -0.4309 C   0  0  0  0  0  0  0  0  0  0  0  0
    5.8024   -0.3869   -0.0840 C   0  0  0  0  0  0  0  0  0  0  0  0
    6.8334   -0.9478   -0.7858 O   0  0  0  0  0  0  0  0  0  0  0  0
    7.2485   -0.2704   -1.9655 C   0  0  0  0  0  0  0  0  0  0  0  0
    5.4516   -1.0693    1.0829 C   0  0  0  0  0  0  0  0  0  0  0  0
    4.4108   -0.6100    1.8935 C   0  0  0  0  0  0  0  0  0  0  0  0
   -0.3624    1.6662    0.4140 N   0  0  0  0  0  0  0  0  0  0  0  0
   -1.2219    1.0911   -0.3811 C   0  0  0  0  0  0  0  0  0  0  0  0
   -2.2606    1.7852   -0.9511 N   0  0  0  0  0  0  0  0  0  0  0  0
   -3.6084    1.3378   -0.9598 C   0  0  0  0  0  0  0  0  0  0  0  0
   -4.2985    1.4672   -2.1759 C   0  0  0  0  0  0  0  0  0  0  0  0
   -5.6283    1.0785   -2.2901 C   0  0  0  0  0  0  0  0  0  0  0  0
   -6.2926    0.5676   -1.1812 C   0  0  0  0  0  0  0  0  0  0  0  0
   -5.6450    0.4634    0.0604 C   0  0  0  0  0  0  0  0  0  0  0  0
   -6.4265   -0.0818    1.2272 C   0  0  0  0  0  0  0  0  0  0  0  0
   -4.3030    0.8994    0.1924 C   0  0  0  0  0  0  0  0  0  0  0  0
   -3.6263    0.8629    1.5413 C   0  0  0  0  0  0  0  0  0  0  0  0
   -1.0785   -0.3024   -0.7356 C   0  0  0  0  0  0  0  0  0  0  0  0
   -1.7078   -1.2425   -1.5662 C   0  0  0  0  0  0  0  0  0  0  0  0
   -1.1078   -2.4437   -1.5267 N   0  0  0  0  0  0  0  0  0  0  0  0
   -0.0787   -2.2629   -0.6638 N   0  0  0  0  0  0  0  0  0  0  0  0
    0.8114   -3.3628   -0.3930 C   0  0  0  0  0  0  0  0  0  0  0  0
   -0.0442   -0.9971   -0.1727 C   0  0  0  0  0  0  0  0  0  0  0  0
    1.6542   -0.8782    1.0148 H   0  0  0  0  0  0  0  0  0  0  0  0
    2.1918    0.2159    3.0535 H   0  0  0  0  0  0  0  0  0  0  0  0
    2.9811    1.7790    3.1014 H   0  0  0  0  0  0  0  0  0  0  0  0
    3.5307    2.1399    0.0972 H   0  0  0  0  0  0  0  0  0  0  0  0
    5.3450    1.3393   -1.3225 H   0  0  0  0  0  0  0  0  0  0  0  0
    7.6125    0.7365   -1.7358 H   0  0  0  0  0  0  0  0  0  0  0  0
    6.4438   -0.2413   -2.7075 H   0  0  0  0  0  0  0  0  0  0  0  0
    8.0804   -0.8339   -2.3990 H   0  0  0  0  0  0  0  0  0  0  0  0
    6.0020   -1.9633    1.3665 H   0  0  0  0  0  0  0  0  0  0  0  0
    4.1717   -1.1544    2.8044 H   0  0  0  0  0  0  0  0  0  0  0  0
   -2.2426    2.7409   -0.6008 H   0  0  0  0  0  0  0  0  0  0  0  0
   -3.7823    1.8543   -3.0521 H   0  0  0  0  0  0  0  0  0  0  0  0
   -6.1429    1.1661   -3.2430 H   0  0  0  0  0  0  0  0  0  0  0  0
   -7.3297    0.2553   -1.2883 H   0  0  0  0  0  0  0  0  0  0  0  0
   -5.8497   -0.8502    1.7521 H   0  0  0  0  0  0  0  0  0  0  0  0
   -7.3592   -0.5537    0.8995 H   0  0  0  0  0  0  0  0  0  0  0  0
   -6.6831    0.7255    1.9201 H   0  0  0  0  0  0  0  0  0  0  0  0
   -2.9499    1.7136    1.6675 H   0  0  0  0  0  0  0  0  0  0  0  0
   -3.0702   -0.0716    1.6606 H   0  0  0  0  0  0  0  0  0  0  0  0
   -4.3444    0.9457    2.3624 H   0  0  0  0  0  0  0  0  0  0  0  0
   -2.5720   -1.1158   -2.2049 H   0  0  0  0  0  0  0  0  0  0  0  0
    1.5168   -3.0870    0.3936 H   0  0  0  0  0  0  0  0  0  0  0  0
    1.3524   -3.6002   -1.3124 H   0  0  0  0  0  0  0  0  0  0  0  0
    0.2150   -4.2191   -0.0679 H   0  0  0  0  0  0  0  0  0  0  0  0
  1  2  1  0
  2  3  2  3
  3  4  1  0
  4  5  1  0
  5  6  2  0
  6  7  1  0
  7  8  2  0
  8  9  1  0
  9 10  1  0
  8 11  1  0
 11 12  2  0
  2 13  1  0
 13 14  2  0
 14 15  1  0
 15 16  1  0
 16 17  2  0
 17 18  1  0
 18 19  2  0
 19 20  1  0
 20 21  1  0
 20 22  2  0
 22 23  1  0
 14 24  1  0
 24 25  1  0
 25 26  2  0
 26 27  1  0
 27 28  1  0
 27 29  1  0
 29  1  1  0
 12  5  1  0
 22 16  1  0
 29 24  2  0
  1 30  1  0
  4 31  1  0
  4 32  1  0
  6 33  1  0
  7 34  1  0
 10 35  1  0
 10 36  1  0
 10 37  1  0
 11 38  1  0
 12 39  1  0
 15 40  1  0
 17 41  1  0
 18 42  1  0
 19 43  1  0
 21 44  1  0
 21 45  1  0
 21 46  1  0
 23 47  1  0
 23 48  1  0
 23 49  1  0
 25 50  1  0
 28 51  1  0
 28 52  1  0
 28 53  1  0
M  END
>  <ScrubInfo>  (4) 
{"isomerGroup": 0, "isomerId": 3, "confId": 0, "nr_conformers:": 1, "nr_isomers:": 9}

$$$$
_i4
     RDKit          3D

 53 56  0  0  0  0  0  0  0  0999 V2000
   -2.5657   -5.2035    0.2731 N   0  0  0  0  0  0  0  0  0  0  0  0
   -3.1843   -3.9873    0.0002 C   0  0  0  0  0  0  0  0  0  0  0  0
   -2.3219   -2.9638   -0.0390 C   0  0  0  0  0  0  0  0  0  0  0  0
   -2.3662   -1.5447   -0.3012 C   0  0  0  0  0  0  0  0  0  0  0  0
   -3.4756   -0.9179   -0.5418 N   0  0  0  0  0  0  0  0  0  0  0  0
   -3.4176    0.4646   -0.7954 C   0  0  0  0  0  0  0  0  0  0  0  0
   -3.3479    0.8915   -2.1266 C   0  0  0  0  0  0  0  0  0  0  0  0
   -3.2919    2.2465   -2.4383 C   0  0  0  0  0  0  0  0  0  0  0  0
   -3.3046    3.1913   -1.4160 C   0  0  0  0  0  0  0  0  0  0  0  0
   -3.3824    2.7943   -0.0713 C   0  0  0  0  0  0  0  0  0  0  0  0
   -3.3930    3.8536    0.9971 C   0  0  0  0  0  0  0  0  0  0  0  0
   -3.4736    1.4179    0.2446 C   0  0  0  0  0  0  0  0  0  0  0  0
   -3.5597    0.9584    1.6773 C   0  0  0  0  0  0  0  0  0  0  0  0
   -1.1431   -0.9314   -0.2785 N   0  0  0  0  0  0  0  0  0  0  0  0
   -0.0417   -1.5663   -0.0107 C   0  0  0  0  0  0  0  0  0  0  0  0
    1.1460   -0.8997    0.0003 N   0  0  0  0  0  0  0  0  0  0  0  0
    1.3092    0.3845   -0.6379 C   0  0  0  0  0  0  0  0  0  0  0  0
    2.7322    0.8553   -0.4571 C   0  0  0  0  0  0  0  0  0  0  0  0
    3.1582    1.3656    0.7773 C   0  0  0  0  0  0  0  0  0  0  0  0
    4.4799    1.7871    0.9609 C   0  0  0  0  0  0  0  0  0  0  0  0
    5.3953    1.6986   -0.0874 C   0  0  0  0  0  0  0  0  0  0  0  0
    6.7101    2.0726   -0.0427 O   0  0  0  0  0  0  0  0  0  0  0  0
    7.1823    2.6116    1.1855 C   0  0  0  0  0  0  0  0  0  0  0  0
    4.9768    1.1825   -1.3161 C   0  0  0  0  0  0  0  0  0  0  0  0
    3.6581    0.7602   -1.5025 C   0  0  0  0  0  0  0  0  0  0  0  0
    0.0569   -2.9040    0.2760 N   0  0  0  0  0  0  0  0  0  0  0  0
   -1.0343   -3.5880    0.2880 C   0  0  0  0  0  0  0  0  0  0  0  0
   -1.2290   -4.9418    0.5692 N   0  0  0  0  0  0  0  0  0  0  0  0
   -0.2245   -5.9283    0.2234 C   0  0  0  0  0  0  0  0  0  0  0  0
   -3.0747   -5.7681    0.9573 H   0  0  0  0  0  0  0  0  0  0  0  0
   -4.2539   -3.9499   -0.1522 H   0  0  0  0  0  0  0  0  0  0  0  0
   -3.3317    0.1525   -2.9225 H   0  0  0  0  0  0  0  0  0  0  0  0
   -3.2346    2.5636   -3.4755 H   0  0  0  0  0  0  0  0  0  0  0  0
   -3.2528    4.2467   -1.6751 H   0  0  0  0  0  0  0  0  0  0  0  0
   -3.1377    4.8375    0.5888 H   0  0  0  0  0  0  0  0  0  0  0  0
   -2.6532    3.6269    1.7716 H   0  0  0  0  0  0  0  0  0  0  0  0
   -4.3875    3.9246    1.4483 H   0  0  0  0  0  0  0  0  0  0  0  0
   -4.1503    1.6517    2.2839 H   0  0  0  0  0  0  0  0  0  0  0  0
   -2.5548    0.8781    2.1033 H   0  0  0  0  0  0  0  0  0  0  0  0
   -4.0579   -0.0124    1.7646 H   0  0  0  0  0  0  0  0  0  0  0  0
    1.9484   -1.5148   -0.0292 H   0  0  0  0  0  0  0  0  0  0  0  0
    1.0709    0.3111   -1.7059 H   0  0  0  0  0  0  0  0  0  0  0  0
    0.6283    1.1277   -0.2050 H   0  0  0  0  0  0  0  0  0  0  0  0
    2.4568    1.4309    1.6075 H   0  0  0  0  0  0  0  0  0  0  0  0
    4.7592    2.1748    1.9346 H   0  0  0  0  0  0  0  0  0  0  0  0
    7.1125    1.8749    1.9926 H   0  0  0  0  0  0  0  0  0  0  0  0
    6.6502    3.5333    1.4431 H   0  0  0  0  0  0  0  0  0  0  0  0
    8.2394    2.8631    1.0556 H   0  0  0  0  0  0  0  0  0  0  0  0
    5.6868    1.1074   -2.1363 H   0  0  0  0  0  0  0  0  0  0  0  0
    3.3624    0.3582   -2.4689 H   0  0  0  0  0  0  0  0  0  0  0  0
    0.7410   -5.6675    0.6687 H   0  0  0  0  0  0  0  0  0  0  0  0
   -0.1028   -5.9958   -0.8628 H   0  0  0  0  0  0  0  0  0  0  0  0
   -0.5122   -6.9140    0.6032 H   0  0  0  0  0  0  0  0  0  0  0  0
  1  2  1  0
  2  3  2  0
  3  4  1  0
  4  5  2  3
  5  6  1  0
  6  7  2  0
  7  8  1  0
  8  9  2  0
  9 10  1  0
 10 11  1  0
 10 12  2  0
 12 13  1  0
  4 14  1  0
 14 15  2  0
 15 16  1  0
 16 17  1  0
 17 18  1  0
 18 19  2  0
 19 20  1  0
 20 21  2  0
 21 22  1  0
 22 23  1  0
 21 24  1  0
 24 25  2  0
 15 26  1  0
 26 27  2  0
 27 28  1  0
 28 29  1  0
 28  1  1  0
 27  3  1  0
 12  6  1  0
 25 18  1  0
  1 30  1  0
  2 31  1  0
  7 32  1  0
  8 33  1  0
  9 34  1  0
 11 35  1  0
 11 36  1  0
 11 37  1  0
 13 38  1  0
 13 39  1  0
 13 40  1  0
 16 41  1  0
 17 42  1  0
 17 43  1  0
 19 44  1  0
 20 45  1  0
 23 46  1  0
 23 47  1  0
 23 48  1  0
 24 49  1  0
 25 50  1  0
 29 51  1  0
 29 52  1  0
 29 53  1  0
M  END
>  <ScrubInfo>  (5) 
{"isomerGroup": 0, "isomerId": 4, "confId": 0, "nr_conformers:": 1, "nr_isomers:": 9}

$$$$
_i5
     RDKit          3D

 53 56  0  0  0  0  0  0  0  0999 V2000
    0.3068   -2.6220    0.6020 N   0  0  0  0  0  0  0  0  0  0  0  0
    0.0281   -1.2994    0.3393 C   0  0  0  0  0  0  0  0  0  0  0  0
    1.1196   -0.4846    0.2607 N   0  0  0  0  0  0  0  0  0  0  0  0
    2.0489   -0.3810    1.3749 C   0  0  0  0  0  0  0  0  0  0  0  0
    3.0750    0.6860    1.0834 C   0  0  0  0  0  0  0  0  0  0  0  0
    4.0050    0.5166    0.0473 C   0  0  0  0  0  0  0  0  0  0  0  0
    4.9578    1.5036   -0.2301 C   0  0  0  0  0  0  0  0  0  0  0  0
    4.9926    2.6754    0.5246 C   0  0  0  0  0  0  0  0  0  0  0  0
    5.8669    3.7139    0.3607 O   0  0  0  0  0  0  0  0  0  0  0  0
    6.8119    3.5982   -0.6955 C   0  0  0  0  0  0  0  0  0  0  0  0
    4.0661    2.8497    1.5548 C   0  0  0  0  0  0  0  0  0  0  0  0
    3.1124    1.8672    1.8335 C   0  0  0  0  0  0  0  0  0  0  0  0
   -1.1590   -0.7924    0.1540 N   0  0  0  0  0  0  0  0  0  0  0  0
   -2.2692   -1.6241    0.2278 C   0  0  0  0  0  0  0  0  0  0  0  0
   -3.4940   -1.2276    0.0905 N   0  0  0  0  0  0  0  0  0  0  0  0
   -3.7248    0.1384   -0.1459 C   0  0  0  0  0  0  0  0  0  0  0  0
   -3.9698    0.9709    0.9523 C   0  0  0  0  0  0  0  0  0  0  0  0
   -4.2164    2.3290    0.7754 C   0  0  0  0  0  0  0  0  0  0  0  0
   -4.2199    2.8689   -0.5079 C   0  0  0  0  0  0  0  0  0  0  0  0
   -3.9863    2.0574   -1.6297 C   0  0  0  0  0  0  0  0  0  0  0  0
   -4.0022    2.6882   -2.9957 C   0  0  0  0  0  0  0  0  0  0  0  0
   -3.7692    0.6703   -1.4530 C   0  0  0  0  0  0  0  0  0  0  0  0
   -3.5201   -0.2299   -2.6359 C   0  0  0  0  0  0  0  0  0  0  0  0
   -2.0229   -3.0234    0.4672 C   0  0  0  0  0  0  0  0  0  0  0  0
   -2.8072   -4.1795    0.5707 C   0  0  0  0  0  0  0  0  0  0  0  0
   -2.0651   -5.2794    0.7843 N   0  0  0  0  0  0  0  0  0  0  0  0
   -0.7924   -4.8105    0.8155 N   0  0  0  0  0  0  0  0  0  0  0  0
    0.2893   -5.7361    1.0334 C   0  0  0  0  0  0  0  0  0  0  0  0
   -0.7401   -3.4647    0.6381 C   0  0  0  0  0  0  0  0  0  0  0  0
    1.2666   -2.9214    0.4973 H   0  0  0  0  0  0  0  0  0  0  0  0
    0.7943    0.4471    0.0026 H   0  0  0  0  0  0  0  0  0  0  0  0
    1.5012   -0.1428    2.2948 H   0  0  0  0  0  0  0  0  0  0  0  0
    2.5681   -1.3319    1.5427 H   0  0  0  0  0  0  0  0  0  0  0  0
    3.9849   -0.3867   -0.5596 H   0  0  0  0  0  0  0  0  0  0  0  0
    5.6533    1.3261   -1.0434 H   0  0  0  0  0  0  0  0  0  0  0  0
    7.4222    4.5064   -0.6990 H   0  0  0  0  0  0  0  0  0  0  0  0
    7.4820    2.7475   -0.5337 H   0  0  0  0  0  0  0  0  0  0  0  0
    6.3119    3.5293   -1.6673 H   0  0  0  0  0  0  0  0  0  0  0  0
    4.0854    3.7633    2.1446 H   0  0  0  0  0  0  0  0  0  0  0  0
    2.4011    2.0378    2.6388 H   0  0  0  0  0  0  0  0  0  0  0  0
   -3.9629    0.5489    1.9531 H   0  0  0  0  0  0  0  0  0  0  0  0
   -4.4019    2.9643    1.6365 H   0  0  0  0  0  0  0  0  0  0  0  0
   -4.4073    3.9336   -0.6295 H   0  0  0  0  0  0  0  0  0  0  0  0
   -3.1110    2.4013   -3.5630 H   0  0  0  0  0  0  0  0  0  0  0  0
   -4.8999    2.3823   -3.5421 H   0  0  0  0  0  0  0  0  0  0  0  0
   -4.0030    3.7817   -2.9323 H   0  0  0  0  0  0  0  0  0  0  0  0
   -3.8154   -1.2638   -2.4306 H   0  0  0  0  0  0  0  0  0  0  0  0
   -4.1082    0.0806   -3.5049 H   0  0  0  0  0  0  0  0  0  0  0  0
   -2.4579   -0.2128   -2.8991 H   0  0  0  0  0  0  0  0  0  0  0  0
   -3.8833   -4.2712    0.4943 H   0  0  0  0  0  0  0  0  0  0  0  0
    0.3237   -6.4288    0.1889 H   0  0  0  0  0  0  0  0  0  0  0  0
    0.1004   -6.2766    1.9644 H   0  0  0  0  0  0  0  0  0  0  0  0
    1.2340   -5.1934    1.1081 H   0  0  0  0  0  0  0  0  0  0  0  0
  1  2  1  0
  2  3  1  0
  3  4  1  0
  4  5  1  0
  5  6  2  0
  6  7  1  0
  7  8  2  0
  8  9  1  0
  9 10  1  0
  8 11  1  0
 11 12  2  0
  2 13  2  0
 13 14  1  0
 14 15  2  3
 15 16  1  0
 16 17  2  0
 17 18  1  0
 18 19  2  0
 19 20  1  0
 20 21  1  0
 20 22  2  0
 22 23  1  0
 14 24  1  0
 24 25  1  0
 25 26  2  0
 26 27  1  0
 27 28  1  0
 27 29  1  0
 29  1  1  0
 12  5  1  0
 22 16  1  0
 29 24  2  0
  1 30  1  0
  3 31  1  0
  4 32  1  0
  4 33  1  0
  6 34  1  0
  7 35  1  0
 10 36  1  0
 10 37  1  0
 10 38  1  0
 11 39  1  0
 12 40  1  0
 17 41  1  0
 18 42  1  0
 19 43  1  0
 21 44  1  0
 21 45  1  0
 21 46  1  0
 23 47  1  0
 23 48  1  0
 23 49  1  0
 25 50  1  0
 28 51  1  0
 28 52  1  0
 28 53  1  0
M  END
>  <ScrubInfo>  (6) 
{"isomerGroup": 0, "isomerId": 5, "confId": 0, "nr_conformers:": 1, "nr_isomers:": 9}

$$$$
_i6
     RDKit          3D

 53 56  0  0  0  0  0  0  0  0999 V2000
   -2.8145    3.6026    0.1596 N   0  0  0  0  0  0  0  0  0  0  0  0
   -3.0045    2.3516   -0.4182 C   0  0  0  0  0  0  0  0  0  0  0  0
   -1.8648    1.6617   -0.5624 C   0  0  0  0  0  0  0  0  0  0  0  0
   -1.4126    0.3589   -1.0500 C   0  0  0  0  0  0  0  0  0  0  0  0
   -2.2430   -0.5940   -1.6048 N   0  0  0  0  0  0  0  0  0  0  0  0
   -3.5455   -0.8604   -1.1204 C   0  0  0  0  0  0  0  0  0  0  0  0
   -4.5887   -0.8235   -2.0575 C   0  0  0  0  0  0  0  0  0  0  0  0
   -5.8998   -1.0882   -1.6777 C   0  0  0  0  0  0  0  0  0  0  0  0
   -6.1823   -1.4062   -0.3538 C   0  0  0  0  0  0  0  0  0  0  0  0
   -5.1562   -1.4865    0.6013 C   0  0  0  0  0  0  0  0  0  0  0  0
   -5.5231   -1.8538    2.0154 C   0  0  0  0  0  0  0  0  0  0  0  0
   -3.8140   -1.2598    0.2098 C   0  0  0  0  0  0  0  0  0  0  0  0
   -2.6976   -1.4065    1.2157 C   0  0  0  0  0  0  0  0  0  0  0  0
   -0.1391    0.0773   -0.9731 N   0  0  0  0  0  0  0  0  0  0  0  0
    0.7180    1.0022   -0.4102 C   0  0  0  0  0  0  0  0  0  0  0  0
    1.9539    0.6950   -0.2354 N   0  0  0  0  0  0  0  0  0  0  0  0
    2.3805   -0.6380   -0.6577 C   0  0  0  0  0  0  0  0  0  0  0  0
    3.8521   -0.8903   -0.3982 C   0  0  0  0  0  0  0  0  0  0  0  0
    4.3096   -2.1955   -0.1760 C   0  0  0  0  0  0  0  0  0  0  0  0
    5.6699   -2.4463    0.0243 C   0  0  0  0  0  0  0  0  0  0  0  0
    6.5990   -1.4045   -0.0024 C   0  0  0  0  0  0  0  0  0  0  0  0
    7.8955   -1.7873    0.2085 O   0  0  0  0  0  0  0  0  0  0  0  0
    8.8729   -0.7548    0.2148 C   0  0  0  0  0  0  0  0  0  0  0  0
    6.1543   -0.1043   -0.2375 C   0  0  0  0  0  0  0  0  0  0  0  0
    4.7921    0.1481   -0.4395 C   0  0  0  0  0  0  0  0  0  0  0  0
    0.4002    2.2721    0.0071 N   0  0  0  0  0  0  0  0  0  0  0  0
   -0.8398    2.6074   -0.0715 C   0  0  0  0  0  0  0  0  0  0  0  0
   -1.4451    3.8178    0.2674 N   0  0  0  0  0  0  0  0  0  0  0  0
   -0.9369    4.6232    1.3614 C   0  0  0  0  0  0  0  0  0  0  0  0
   -3.3514    4.3451   -0.2945 H   0  0  0  0  0  0  0  0  0  0  0  0
   -4.0046    2.0485   -0.6934 H   0  0  0  0  0  0  0  0  0  0  0  0
   -1.7383   -1.4633   -1.7602 H   0  0  0  0  0  0  0  0  0  0  0  0
   -4.3770   -0.5668   -3.0934 H   0  0  0  0  0  0  0  0  0  0  0  0
   -6.7004   -1.0428   -2.4111 H   0  0  0  0  0  0  0  0  0  0  0  0
   -7.2145   -1.6023   -0.0693 H   0  0  0  0  0  0  0  0  0  0  0  0
   -5.0497   -1.1695    2.7269 H   0  0  0  0  0  0  0  0  0  0  0  0
   -5.2142   -2.8814    2.2306 H   0  0  0  0  0  0  0  0  0  0  0  0
   -6.6040   -1.7848    2.1794 H   0  0  0  0  0  0  0  0  0  0  0  0
   -2.9321   -2.1602    1.9735 H   0  0  0  0  0  0  0  0  0  0  0  0
   -1.7738   -1.7522    0.7419 H   0  0  0  0  0  0  0  0  0  0  0  0
   -2.5136   -0.4511    1.7161 H   0  0  0  0  0  0  0  0  0  0  0  0
    2.2150   -0.7727   -1.7343 H   0  0  0  0  0  0  0  0  0  0  0  0
    1.8038   -1.3967   -0.1127 H   0  0  0  0  0  0  0  0  0  0  0  0
    3.6097   -3.0272   -0.1554 H   0  0  0  0  0  0  0  0  0  0  0  0
    6.0086   -3.4637    0.2019 H   0  0  0  0  0  0  0  0  0  0  0  0
    8.6826   -0.0346    1.0176 H   0  0  0  0  0  0  0  0  0  0  0  0
    8.9280   -0.2573   -0.7592 H   0  0  0  0  0  0  0  0  0  0  0  0
    9.8459   -1.2171    0.4071 H   0  0  0  0  0  0  0  0  0  0  0  0
    6.8349    0.7390   -0.2723 H   0  0  0  0  0  0  0  0  0  0  0  0
    4.4618    1.1690   -0.6240 H   0  0  0  0  0  0  0  0  0  0  0  0
   -1.0519    4.0995    2.3161 H   0  0  0  0  0  0  0  0  0  0  0  0
   -1.4786    5.5730    1.4181 H   0  0  0  0  0  0  0  0  0  0  0  0
    0.1232    4.8518    1.2120 H   0  0  0  0  0  0  0  0  0  0  0  0
  1  2  1  0
  2  3  2  0
  3  4  1  0
  4  5  1  0
  5  6  1  0
  6  7  2  0
  7  8  1  0
  8  9  2  0
  9 10  1  0
 10 11  1  0
 10 12  2  0
 12 13  1  0
  4 14  2  0
 14 15  1  0
 15 16  2  3
 16 17  1  0
 17 18  1  0
 18 19  2  0
 19 20  1  0
 20 21  2  0
 21 22  1  0
 22 23  1  0
 21 24  1  0
 24 25  2  0
 15 26  1  0
 26 27  2  0
 27 28  1  0
 28 29  1  0
 28  1  1  0
 27  3  1  0
 12  6  1  0
 25 18  1  0
  1 30  1  0
  2 31  1  0
  5 32  1  0
  7 33  1  0
  8 34  1  0
  9 35  1  0
 11 36  1  0
 11 37  1  0
 11 38  1  0
 13 39  1  0
 13 40  1  0
 13 41  1  0
 17 42  1  0
 17 43  1  0
 19 44  1  0
 20 45  1  0
 23 46  1  0
 23 47  1  0
 23 48  1  0
 24 49  1  0
 25 50  1  0
 29 51  1  0
 29 52  1  0
 29 53  1  0
M  END
>  <ScrubInfo>  (7) 
{"isomerGroup": 0, "isomerId": 6, "confId": 0, "nr_conformers:": 1, "nr_isomers:": 9}

$$$$
_i7
     RDKit          3D

 53 56  0  0  0  0  0  0  0  0999 V2000
   -2.5834   -4.9369    1.4399 N   0  0  0  0  0  0  0  0  0  0  0  0
   -3.1848   -3.8356    0.8409 C   0  0  0  0  0  0  0  0  0  0  0  0
   -2.3197   -2.8482    0.5818 C   0  0  0  0  0  0  0  0  0  0  0  0
   -2.3330   -1.5238   -0.0374 C   0  0  0  0  0  0  0  0  0  0  0  0
   -3.4560   -1.0257   -0.4648 N   0  0  0  0  0  0  0  0  0  0  0  0
   -3.4364    0.2480   -1.0572 C   0  0  0  0  0  0  0  0  0  0  0  0
   -3.2894    0.3307   -2.4459 C   0  0  0  0  0  0  0  0  0  0  0  0
   -3.2119    1.5671   -3.0784 C   0  0  0  0  0  0  0  0  0  0  0  0
   -3.2789    2.7347   -2.3230 C   0  0  0  0  0  0  0  0  0  0  0  0
   -3.4376    2.6818   -0.9289 C   0  0  0  0  0  0  0  0  0  0  0  0
   -3.5176    3.9736   -0.1601 C   0  0  0  0  0  0  0  0  0  0  0  0
   -3.5520    1.4260   -0.2888 C   0  0  0  0  0  0  0  0  0  0  0  0
   -3.7372    1.3345    1.2049 C   0  0  0  0  0  0  0  0  0  0  0  0
   -1.0834   -0.9524   -0.0875 N   0  0  0  0  0  0  0  0  0  0  0  0
    0.0883   -1.5006    0.3832 C   0  0  0  0  0  0  0  0  0  0  0  0
    1.2591   -0.9740    0.3152 N   0  0  0  0  0  0  0  0  0  0  0  0
    1.4203    0.3333   -0.3129 C   0  0  0  0  0  0  0  0  0  0  0  0
    2.8499    0.8282   -0.3062 C   0  0  0  0  0  0  0  0  0  0  0  0
    3.7772    0.3934    0.6499 C   0  0  0  0  0  0  0  0  0  0  0  0
    5.0858    0.8912    0.6636 C   0  0  0  0  0  0  0  0  0  0  0  0
    5.4843    1.8421   -0.2744 C   0  0  0  0  0  0  0  0  0  0  0  0
    6.7255    2.4090   -0.3708 O   0  0  0  0  0  0  0  0  0  0  0  0
    7.7070    1.9585    0.5543 C   0  0  0  0  0  0  0  0  0  0  0  0
    4.5616    2.2910   -1.2210 C   0  0  0  0  0  0  0  0  0  0  0  0
    3.2553    1.7940   -1.2368 C   0  0  0  0  0  0  0  0  0  0  0  0
    0.0958   -2.7320    1.0104 N   0  0  0  0  0  0  0  0  0  0  0  0
   -1.0276   -3.3670    1.1227 C   0  0  0  0  0  0  0  0  0  0  0  0
   -1.2607   -4.6051    1.7277 N   0  0  0  0  0  0  0  0  0  0  0  0
   -0.2497   -5.6450    1.7055 C   0  0  0  0  0  0  0  0  0  0  0  0
   -3.1275   -5.3237    2.2143 H   0  0  0  0  0  0  0  0  0  0  0  0
   -4.2462   -3.8483    0.6365 H   0  0  0  0  0  0  0  0  0  0  0  0
   -3.2339   -0.5816   -3.0346 H   0  0  0  0  0  0  0  0  0  0  0  0
   -3.1005    1.6206   -4.1582 H   0  0  0  0  0  0  0  0  0  0  0  0
   -3.2145    3.6945   -2.8327 H   0  0  0  0  0  0  0  0  0  0  0  0
   -3.2235    4.8274   -0.7799 H   0  0  0  0  0  0  0  0  0  0  0  0
   -2.8391    3.9534    0.6989 H   0  0  0  0  0  0  0  0  0  0  0  0
   -4.5421    4.1442    0.1849 H   0  0  0  0  0  0  0  0  0  0  0  0
   -4.3759    2.1415    1.5770 H   0  0  0  0  0  0  0  0  0  0  0  0
   -2.7648    1.3884    1.7042 H   0  0  0  0  0  0  0  0  0  0  0  0
   -4.2319    0.4028    1.4973 H   0  0  0  0  0  0  0  0  0  0  0  0
   -1.0286   -0.0444   -0.5179 H   0  0  0  0  0  0  0  0  0  0  0  0
    1.0833    0.2762   -1.3559 H   0  0  0  0  0  0  0  0  0  0  0  0
    0.8145    1.0826    0.2122 H   0  0  0  0  0  0  0  0  0  0  0  0
    3.4847   -0.3480    1.3920 H   0  0  0  0  0  0  0  0  0  0  0  0
    5.7625    0.5126    1.4217 H   0  0  0  0  0  0  0  0  0  0  0  0
    7.9006    0.8873    0.4355 H   0  0  0  0  0  0  0  0  0  0  0  0
    7.4185    2.1976    1.5832 H   0  0  0  0  0  0  0  0  0  0  0  0
    8.6386    2.4905    0.3383 H   0  0  0  0  0  0  0  0  0  0  0  0
    4.8631    3.0355   -1.9534 H   0  0  0  0  0  0  0  0  0  0  0  0
    2.5588    2.1667   -1.9838 H   0  0  0  0  0  0  0  0  0  0  0  0
    0.6904   -5.2785    2.1299 H   0  0  0  0  0  0  0  0  0  0  0  0
   -0.0638   -5.9848    0.6813 H   0  0  0  0  0  0  0  0  0  0  0  0
   -0.5735   -6.5032    2.3033 H   0  0  0  0  0  0  0  0  0  0  0  0
  1  2  1  0
  2  3  2  0
  3  4  1  0
  4  5  2  3
  5  6  1  0
  6  7  2  0
  7  8  1  0
  8  9  2  0
  9 10  1  0
 10 11  1  0
 10 12  2  0
 12 13  1  0
  4 14  1  0
 14 15  1  0
 15 16  2  3
 16 17  1  0
 17 18  1  0
 18 19  2  0
 19 20  1  0
 20 21  2  0
 21 22  1  0
 22 23  1  0
 21 24  1  0
 24 25  2  0
 15 26  1  0
 26 27  2  0
 27 28  1  0
 28 29  1  0
 28  1  1  0
 27  3  1  0
 12  6  1  0
 25 18  1  0
  1 30  1  0
  2 31  1  0
  7 32  1  0
  8 33  1  0
  9 34  1  0
 11 35  1  0
 11 36  1  0
 11 37  1  0
 13 38  1  0
 13 39  1  0
 13 40  1  0
 14 41  1  0
 17 42  1  0
 17 43  1  0
 19 44  1  0
 20 45  1  0
 23 46  1  0
 23 47  1  0
 23 48  1  0
 24 49  1  0
 25 50  1  0
 29 51  1  0
 29 52  1  0
 29 53  1  0
M  END
>  <ScrubInfo>  (8) 
{"isomerGroup": 0, "isomerId": 7, "confId": 0, "nr_conformers:": 1, "nr_isomers:": 9}

$$$$
_i8
     RDKit          3D

 53 56  0  0  0  0  0  0  0  0999 V2000
   -0.7966   -1.1896    0.4634 N   0  0  0  0  0  0  0  0  0  0  0  0
   -0.6192   -0.6736    1.7361 C   0  0  0  0  0  0  0  0  0  0  0  0
   -1.3673   -0.8339    2.7749 N   0  0  0  0  0  0  0  0  0  0  0  0
   -2.5472   -1.6980    2.6915 C   0  0  0  0  0  0  0  0  0  0  0  0
   -3.6557   -1.1942    1.7953 C   0  0  0  0  0  0  0  0  0  0  0  0
   -3.9612    0.1706    1.7156 C   0  0  0  0  0  0  0  0  0  0  0  0
   -4.9865    0.6290    0.8807 C   0  0  0  0  0  0  0  0  0  0  0  0
   -5.7310   -0.2749    0.1244 C   0  0  0  0  0  0  0  0  0  0  0  0
   -6.7518    0.0377   -0.7302 O   0  0  0  0  0  0  0  0  0  0  0  0
   -7.0972    1.4130   -0.8406 C   0  0  0  0  0  0  0  0  0  0  0  0
   -5.4457   -1.6386    0.2179 C   0  0  0  0  0  0  0  0  0  0  0  0
   -4.4223   -2.0987    1.0500 C   0  0  0  0  0  0  0  0  0  0  0  0
    0.5121    0.1057    1.8519 N   0  0  0  0  0  0  0  0  0  0  0  0
    1.4824    0.4620    0.9395 C   0  0  0  0  0  0  0  0  0  0  0  0
    2.4872    1.2085    1.2883 N   0  0  0  0  0  0  0  0  0  0  0  0
    3.4859    1.5841    0.3828 C   0  0  0  0  0  0  0  0  0  0  0  0
    3.3395    2.7958   -0.3022 C   0  0  0  0  0  0  0  0  0  0  0  0
    4.3057    3.2201   -1.2090 C   0  0  0  0  0  0  0  0  0  0  0  0
    5.4328    2.4348   -1.4352 C   0  0  0  0  0  0  0  0  0  0  0  0
    5.6152    1.2235   -0.7489 C   0  0  0  0  0  0  0  0  0  0  0  0
    6.8551    0.4157   -1.0230 C   0  0  0  0  0  0  0  0  0  0  0  0
    4.6504    0.8079    0.1986 C   0  0  0  0  0  0  0  0  0  0  0  0
    4.8244   -0.4810    0.9611 C   0  0  0  0  0  0  0  0  0  0  0  0
    1.1934   -0.1022   -0.3683 C   0  0  0  0  0  0  0  0  0  0  0  0
    1.7670   -0.0878   -1.6538 C   0  0  0  0  0  0  0  0  0  0  0  0
    1.0612   -0.7966   -2.5487 N   0  0  0  0  0  0  0  0  0  0  0  0
    0.0133   -1.2619   -1.8353 N   0  0  0  0  0  0  0  0  0  0  0  0
   -0.9882   -2.0689   -2.4860 C   0  0  0  0  0  0  0  0  0  0  0  0
    0.0708   -0.8856   -0.5288 C   0  0  0  0  0  0  0  0  0  0  0  0
   -1.6507   -1.7037    0.2909 H   0  0  0  0  0  0  0  0  0  0  0  0
   -2.2351   -2.7053    2.3863 H   0  0  0  0  0  0  0  0  0  0  0  0
   -2.9608   -1.8028    3.7018 H   0  0  0  0  0  0  0  0  0  0  0  0
   -3.3919    0.8895    2.3029 H   0  0  0  0  0  0  0  0  0  0  0  0
   -5.1753    1.6967    0.8487 H   0  0  0  0  0  0  0  0  0  0  0  0
   -7.4390    1.8128    0.1198 H   0  0  0  0  0  0  0  0  0  0  0  0
   -6.2623    1.9987   -1.2392 H   0  0  0  0  0  0  0  0  0  0  0  0
   -7.9276    1.4930   -1.5487 H   0  0  0  0  0  0  0  0  0  0  0  0
   -6.0334   -2.3496   -0.3581 H   0  0  0  0  0  0  0  0  0  0  0  0
   -4.2345   -3.1682    1.1128 H   0  0  0  0  0  0  0  0  0  0  0  0
    0.6599    0.4815    2.7772 H   0  0  0  0  0  0  0  0  0  0  0  0
    2.4597    3.4086   -0.1254 H   0  0  0  0  0  0  0  0  0  0  0  0
    4.1791    4.1600   -1.7392 H   0  0  0  0  0  0  0  0  0  0  0  0
    6.1763    2.7774   -2.1523 H   0  0  0  0  0  0  0  0  0  0  0  0
    6.5980   -0.6301   -1.2195 H   0  0  0  0  0  0  0  0  0  0  0  0
    7.3872    0.7857   -1.9061 H   0  0  0  0  0  0  0  0  0  0  0  0
    7.5382    0.4720   -0.1698 H   0  0  0  0  0  0  0  0  0  0  0  0
    4.2827   -0.4695    1.9122 H   0  0  0  0  0  0  0  0  0  0  0  0
    4.4613   -1.3206    0.3604 H   0  0  0  0  0  0  0  0  0  0  0  0
    5.8744   -0.6523    1.2178 H   0  0  0  0  0  0  0  0  0  0  0  0
    2.6672    0.4034   -1.9970 H   0  0  0  0  0  0  0  0  0  0  0  0
   -1.9687   -1.8312   -2.0662 H   0  0  0  0  0  0  0  0  0  0  0  0
   -0.9893   -1.8494   -3.5569 H   0  0  0  0  0  0  0  0  0  0  0  0
   -0.7421   -3.1195   -2.3146 H   0  0  0  0  0  0  0  0  0  0  0  0
  1  2  1  0
  2  3  2  3
  3  4  1  0
  4  5  1  0
  5  6  2  0
  6  7  1  0
  7  8  2  0
  8  9  1  0
  9 10  1  0
  8 11  1  0
 11 12  2  0
  2 13  1  0
 13 14  1  0
 14 15  2  3
 15 16  1  0
 16 17  2  0
 17 18  1  0
 18 19  2  0
 19 20  1  0
 20 21  1  0
 20 22  2  0
 22 23  1  0
 14 24  1  0
 24 25  1  0
 25 26  2  0
 26 27  1  0
 27 28  1  0
 27 29  1  0
 29  1  1  0
 12  5  1  0
 22 16  1  0
 29 24  2  0
  1 30  1  0
  4 31  1  0
  4 32  1  0
  6 33  1  0
  7 34  1  0
 10 35  1  0
 10 36  1  0
 10 37  1  0
 11 38  1  0
 12 39  1  0
 13 40  1  0
 17 41  1  0
 18 42  1  0
 19 43  1  0
 21 44  1  0
 21 45  1  0
 21 46  1  0
 23 47  1  0
 23 48  1  0
 23 49  1  0
 25 50  1  0
 28 51  1  0
 28 52  1  0
 28 53  1  0
M  END
>  <ScrubInfo>  (9) 
{"isomerGroup": 0, "isomerId": 8, "confId": 0, "nr_conformers:": 1, "nr_isomers:": 9}

$$$$
