_i0
     RDKit          3D

 47 50  0  0  0  0  0  0  0  0999 V2000
    8.4645    0.1261    0.1673 C   0  0  0  0  0  0  0  0  0  0  0  0
    7.5293    0.4664   -0.8480 O   0  0  0  0  0  0  0  0  0  0  0  0
    6.2098    0.4943   -0.4895 C   0  0  0  0  0  0  0  0  0  0  0  0
    5.3318    0.8357   -1.5201 C   0  0  0  0  0  0  0  0  0  0  0  0
    3.9556    0.9023   -1.2916 C   0  0  0  0  0  0  0  0  0  0  0  0
    3.4339    0.6312   -0.0203 C   0  0  0  0  0  0  0  0  0  0  0  0
    1.9429    0.6929    0.2224 C   0  0  0  0  0  0  0  0  0  0  0  0
    1.3125   -0.4407   -0.4197 N   0  0  0  0  0  0  0  0  0  0  0  0
   -0.0271   -0.6084   -0.1019 C   0  0  0  0  0  0  0  0  0  0  0  0
   -0.7966    0.4742    0.1182 N   0  0  0  0  0  0  0  0  0  0  0  0
   -2.1143    0.3368    0.4157 C   0  0  0  0  0  0  0  0  0  0  0  0
   -2.8185    1.5455    0.6165 N   0  0  0  0  0  0  0  0  0  0  0  0
   -4.1879    1.7449    0.3126 C   0  0  0  0  0  0  0  0  0  0  0  0
   -5.1274    1.5779    1.3414 C   0  0  0  0  0  0  0  0  0  0  0  0
   -6.4920    1.7174    1.0917 C   0  0  0  0  0  0  0  0  0  0  0  0
   -6.9342    2.0210   -0.1944 C   0  0  0  0  0  0  0  0  0  0  0  0
   -6.0139    2.1896   -1.2339 C   0  0  0  0  0  0  0  0  0  0  0  0
   -6.6451    2.5689   -2.7988 Cl  0  0  0  0  0  0  0  0  0  0  0  0
   -4.6400    2.0513   -0.9881 C   0  0  0  0  0  0  0  0  0  0  0  0
   -3.4757    2.2715   -2.2568 Cl  0  0  0  0  0  0  0  0  0  0  0  0
   -2.6299   -0.9602    0.4924 C   0  0  0  0  0  0  0  0  0  0  0  0
   -3.8524   -1.6139    0.7524 C   0  0  0  0  0  0  0  0  0  0  0  0
   -3.7599   -2.9475    0.6898 N   0  0  0  0  0  0  0  0  0  0  0  0
   -2.4612   -3.1504    0.3737 N   0  0  0  0  0  0  0  0  0  0  0  0
   -1.9756   -4.4962    0.2007 C   0  0  0  0  0  0  0  0  0  0  0  0
   -1.7422   -1.9930    0.2532 C   0  0  0  0  0  0  0  0  0  0  0  0
   -0.4388   -1.8787   -0.0411 N   0  0  0  0  0  0  0  0  0  0  0  0
    4.3173    0.2806    1.0096 C   0  0  0  0  0  0  0  0  0  0  0  0
    5.6966    0.2152    0.7772 C   0  0  0  0  0  0  0  0  0  0  0  0
    8.2913   -0.8891    0.5393 H   0  0  0  0  0  0  0  0  0  0  0  0
    8.4445    0.8559    0.9834 H   0  0  0  0  0  0  0  0  0  0  0  0
    9.4642    0.1514   -0.2770 H   0  0  0  0  0  0  0  0  0  0  0  0
    5.7224    1.0485   -2.5122 H   0  0  0  0  0  0  0  0  0  0  0  0
    3.2883    1.1592   -2.1121 H   0  0  0  0  0  0  0  0  0  0  0  0
    1.5627    1.6406   -0.1803 H   0  0  0  0  0  0  0  0  0  0  0  0
    1.7491    0.6939    1.3033 H   0  0  0  0  0  0  0  0  0  0  0  0
    1.7696   -1.3309   -0.2605 H   0  0  0  0  0  0  0  0  0  0  0  0
   -2.2372    2.2293    0.1255 H   0  0  0  0  0  0  0  0  0  0  0  0
   -4.7886    1.3417    2.3488 H   0  0  0  0  0  0  0  0  0  0  0  0
   -7.2094    1.5888    1.8992 H   0  0  0  0  0  0  0  0  0  0  0  0
   -8.0005    2.1275   -0.3820 H   0  0  0  0  0  0  0  0  0  0  0  0
   -4.8150   -1.1822    0.9866 H   0  0  0  0  0  0  0  0  0  0  0  0
   -2.5499   -4.9687   -0.6003 H   0  0  0  0  0  0  0  0  0  0  0  0
   -2.1162   -5.0355    1.1409 H   0  0  0  0  0  0  0  0  0  0  0  0
   -0.9159   -4.4819   -0.0632 H   0  0  0  0  0  0  0  0  0  0  0  0
    3.9393    0.0548    2.0045 H   0  0  0  0  0  0  0  0  0  0  0  0
    6.3401   -0.0579    1.6066 H   0  0  0  0  0  0  0  0  0  0  0  0
  1  2  1  0
  2  3  1  0
  3  4  2  0
  4  5  1  0
  5  6  2  0
  6  7  1  0
  7  8  1  0
  8  9  1  0
  9 10  2  0
 10 11  1  0
 11 12  1  0
 12 13  1  0
 13 14  2  0
 14 15  1  0
 15 16  2  0
 16 17  1  0
 17 18  1  0
 17 19  2  0
 19 20  1  0
 11 21  2  0
 21 22  1  0
 22 23  2  0
 23 24  1  0
 24 25  1  0
 24 26  1  0
 26 27  2  0
  6 28  1  0
 28 29  2  0
 29  3  1  0
 27  9  1  0
 19 13  1  0
 26 21  1  0
  1 30  1  0
  1 31  1  0
  1 32  1  0
  4 33  1  0
  5 34  1  0
  7 35  1  0
  7 36  1  0
  8 37  1  0
 12 38  1  0
 14 39  1  0
 15 40  1  0
 16 41  1  0
 22 42  1  0
 25 43  1  0
 25 44  1  0
 25 45  1  0
 28 46  1  0
 29 47  1  0
M  END
>  <ScrubInfo>  (1) 
{"isomerGroup": 0, "isomerId": 0, "confId": 0, "nr_conformers:": 1, "nr_isomers:": 9}

$$$$
_i1
     RDKit          3D

 47 50  0  0  0  0  0  0  0  0999 V2000
    0.8207    0.5237   -0.3400 N   0  0  0  0  0  0  0  0  0  0  0  0
    2.1776    0.5406   -0.6068 C   0  0  0  0  0  0  0  0  0  0  0  0
    2.9454    1.6427   -0.2929 N   0  0  0  0  0  0  0  0  0  0  0  0
    4.0689    1.7024    0.5773 C   0  0  0  0  0  0  0  0  0  0  0  0
    4.5904    0.5628    1.2102 C   0  0  0  0  0  0  0  0  0  0  0  0
    5.7348    0.6394    2.0082 C   0  0  0  0  0  0  0  0  0  0  0  0
    6.3867    1.8572    2.1818 C   0  0  0  0  0  0  0  0  0  0  0  0
    5.8958    3.0062    1.5602 C   0  0  0  0  0  0  0  0  0  0  0  0
    6.7553    4.4831    1.8241 Cl  0  0  0  0  0  0  0  0  0  0  0  0
    4.7464    2.9338    0.7584 C   0  0  0  0  0  0  0  0  0  0  0  0
    4.1107    4.3565   -0.0171 Cl  0  0  0  0  0  0  0  0  0  0  0  0
    2.6519   -0.5337   -1.2477 C   0  0  0  0  0  0  0  0  0  0  0  0
    3.9211   -0.9808   -1.8313 C   0  0  0  0  0  0  0  0  0  0  0  0
    3.8392   -2.1632   -2.3876 N   0  0  0  0  0  0  0  0  0  0  0  0
    2.5165   -2.5871   -2.1704 N   0  0  0  0  0  0  0  0  0  0  0  0
    2.0042   -3.6970   -2.9380 C   0  0  0  0  0  0  0  0  0  0  0  0
    1.7210   -1.6383   -1.5481 C   0  0  0  0  0  0  0  0  0  0  0  0
    0.4622   -1.6485   -1.2758 N   0  0  0  0  0  0  0  0  0  0  0  0
   -0.0219   -0.5290   -0.6343 C   0  0  0  0  0  0  0  0  0  0  0  0
   -1.2759   -0.6059   -0.3686 N   0  0  0  0  0  0  0  0  0  0  0  0
   -1.9339    0.5083    0.3030 C   0  0  0  0  0  0  0  0  0  0  0  0
   -3.4176    0.2921    0.5054 C   0  0  0  0  0  0  0  0  0  0  0  0
   -4.1610   -0.5487   -0.3336 C   0  0  0  0  0  0  0  0  0  0  0  0
   -5.5406   -0.7081   -0.1562 C   0  0  0  0  0  0  0  0  0  0  0  0
   -6.2012   -0.0183    0.8591 C   0  0  0  0  0  0  0  0  0  0  0  0
   -7.5386   -0.0820    1.1392 O   0  0  0  0  0  0  0  0  0  0  0  0
   -8.3179   -0.9612    0.3382 C   0  0  0  0  0  0  0  0  0  0  0  0
   -5.4698    0.8325    1.6898 C   0  0  0  0  0  0  0  0  0  0  0  0
   -4.0922    0.9915    1.5148 C   0  0  0  0  0  0  0  0  0  0  0  0
    0.4589    1.2976    0.1911 H   0  0  0  0  0  0  0  0  0  0  0  0
    2.4306    2.5221   -0.2820 H   0  0  0  0  0  0  0  0  0  0  0  0
    4.1061   -0.4062    1.1177 H   0  0  0  0  0  0  0  0  0  0  0  0
    6.1164   -0.2555    2.4962 H   0  0  0  0  0  0  0  0  0  0  0  0
    7.2771    1.9046    2.8051 H   0  0  0  0  0  0  0  0  0  0  0  0
    4.8161   -0.3463   -1.8022 H   0  0  0  0  0  0  0  0  0  0  0  0
    1.6608   -3.3553   -3.9194 H   0  0  0  0  0  0  0  0  0  0  0  0
    1.1655   -4.1746   -2.4215 H   0  0  0  0  0  0  0  0  0  0  0  0
    2.7796   -4.4554   -3.0867 H   0  0  0  0  0  0  0  0  0  0  0  0
   -1.8164    1.4285   -0.2832 H   0  0  0  0  0  0  0  0  0  0  0  0
   -1.4724    0.6578    1.2874 H   0  0  0  0  0  0  0  0  0  0  0  0
   -3.6631   -1.0956   -1.1330 H   0  0  0  0  0  0  0  0  0  0  0  0
   -6.0628   -1.3781   -0.8302 H   0  0  0  0  0  0  0  0  0  0  0  0
   -9.3513   -0.9102    0.6946 H   0  0  0  0  0  0  0  0  0  0  0  0
   -7.9803   -1.9975    0.4447 H   0  0  0  0  0  0  0  0  0  0  0  0
   -8.3124   -0.6483   -0.7111 H   0  0  0  0  0  0  0  0  0  0  0  0
   -5.9785    1.3770    2.4813 H   0  0  0  0  0  0  0  0  0  0  0  0
   -3.5521    1.6644    2.1759 H   0  0  0  0  0  0  0  0  0  0  0  0
  1  2  1  0
  2  3  1  0
  3  4  1  0
  4  5  2  0
  5  6  1  0
  6  7  2  0
  7  8  1  0
  8  9  1  0
  8 10  2  0
 10 11  1  0
  2 12  2  0
 12 13  1  0
 13 14  2  0
 14 15  1  0
 15 16  1  0
 15 17  1  0
 17 18  2  0
 18 19  1  0
 19 20  2  3
 20 21  1  0
 21 22  1  0
 22 23  2  0
 23 24  1  0
 24 25  2  0
 25 26  1  0
 26 27  1  0
 25 28  1  0
 28 29  2  0
 19  1  1  0
 29 22  1  0
 10  4  1  0
 17 12  1  0
  1 30  1  0
  3 31  1  0
  5 32  1  0
  6 33  1  0
  7 34  1  0
 13 35  1  0
 16 36  1  0
 16 37  1  0
 16 38  1  0
 21 39  1  0
 21 40  1  0
 23 41  1  0
 24 42  1  0
 27 43  1  0
 27 44  1  0
 27 45  1  0
 28 46  1  0
 29 47  1  0
M  END
>  <ScrubInfo>  (2) 
{"isomerGroup": 0, "isomerId": 1, "confId": 0, "nr_conformers:": 1, "nr_isomers:": 9}

$$$$
_i2
     RDKit          3D

 47 50  0  0  0  0  0  0  0  0999 V2000
   -1.6565   -0.4759   -0.1464 N   0  0  0  0  0  0  0  0  0  0  0  0
   -0.5432   -1.2849   -0.0462 C   0  0  0  0  0  0  0  0  0  0  0  0
    0.5952   -0.5761    0.2195 N   0  0  0  0  0  0  0  0  0  0  0  0
    1.8814   -1.2486    0.2841 C   0  0  0  0  0  0  0  0  0  0  0  0
    2.9563   -0.2288    0.5729 C   0  0  0  0  0  0  0  0  0  0  0  0
    3.8244    0.2063   -0.4376 C   0  0  0  0  0  0  0  0  0  0  0  0
    4.8066    1.1678   -0.1711 C   0  0  0  0  0  0  0  0  0  0  0  0
    4.9293    1.7107    1.1078 C   0  0  0  0  0  0  0  0  0  0  0  0
    5.8393    2.6535    1.4986 O   0  0  0  0  0  0  0  0  0  0  0  0
    6.7741    3.0907    0.5205 C   0  0  0  0  0  0  0  0  0  0  0  0
    4.0604    1.2856    2.1148 C   0  0  0  0  0  0  0  0  0  0  0  0
    3.0805    0.3255    1.8532 C   0  0  0  0  0  0  0  0  0  0  0  0
   -0.5654   -2.5868   -0.1798 N   0  0  0  0  0  0  0  0  0  0  0  0
   -1.8226   -3.0437   -0.4375 C   0  0  0  0  0  0  0  0  0  0  0  0
   -2.9882   -2.3120   -0.5468 C   0  0  0  0  0  0  0  0  0  0  0  0
   -3.9929   -3.2521   -0.8129 C   0  0  0  0  0  0  0  0  0  0  0  0
   -3.5126   -4.5010   -0.8813 N   0  0  0  0  0  0  0  0  0  0  0  0
   -2.1870   -4.3464   -0.6375 N   0  0  0  0  0  0  0  0  0  0  0  0
   -1.3337   -5.5072   -0.6142 C   0  0  0  0  0  0  0  0  0  0  0  0
   -2.9551   -0.8824   -0.3748 C   0  0  0  0  0  0  0  0  0  0  0  0
   -4.0653   -0.2277   -0.4492 N   0  0  0  0  0  0  0  0  0  0  0  0
   -4.0422    1.1694   -0.2870 C   0  0  0  0  0  0  0  0  0  0  0  0
   -4.0955    1.9567   -1.4450 C   0  0  0  0  0  0  0  0  0  0  0  0
   -4.1013    3.3485   -1.3660 C   0  0  0  0  0  0  0  0  0  0  0  0
   -4.0635    3.9701   -0.1201 C   0  0  0  0  0  0  0  0  0  0  0  0
   -4.0253    3.2019    1.0481 C   0  0  0  0  0  0  0  0  0  0  0  0
   -3.9748    4.0534    2.5530 Cl  0  0  0  0  0  0  0  0  0  0  0  0
   -4.0199    1.8010    0.9732 C   0  0  0  0  0  0  0  0  0  0  0  0
   -3.9629    0.8318    2.4121 Cl  0  0  0  0  0  0  0  0  0  0  0  0
   -1.5379    0.4753    0.1568 H   0  0  0  0  0  0  0  0  0  0  0  0
    0.6585    0.3278   -0.2322 H   0  0  0  0  0  0  0  0  0  0  0  0
    1.8826   -2.0097    1.0738 H   0  0  0  0  0  0  0  0  0  0  0  0
    2.0917   -1.7585   -0.6637 H   0  0  0  0  0  0  0  0  0  0  0  0
    3.7462   -0.2020   -1.4434 H   0  0  0  0  0  0  0  0  0  0  0  0
    5.4578    1.4702   -0.9845 H   0  0  0  0  0  0  0  0  0  0  0  0
    7.3939    2.2602    0.1667 H   0  0  0  0  0  0  0  0  0  0  0  0
    6.2683    3.5901   -0.3124 H   0  0  0  0  0  0  0  0  0  0  0  0
    7.4363    3.8219    0.9941 H   0  0  0  0  0  0  0  0  0  0  0  0
    4.1478    1.7065    3.1138 H   0  0  0  0  0  0  0  0  0  0  0  0
    2.4115    0.0139    2.6532 H   0  0  0  0  0  0  0  0  0  0  0  0
   -5.0515   -3.0823   -0.9607 H   0  0  0  0  0  0  0  0  0  0  0  0
   -0.3052   -5.2136   -0.3930 H   0  0  0  0  0  0  0  0  0  0  0  0
   -1.6987   -6.1868    0.1602 H   0  0  0  0  0  0  0  0  0  0  0  0
   -1.3791   -5.9866   -1.5953 H   0  0  0  0  0  0  0  0  0  0  0  0
   -4.1437    1.4721   -2.4185 H   0  0  0  0  0  0  0  0  0  0  0  0
   -4.1460    3.9454   -2.2743 H   0  0  0  0  0  0  0  0  0  0  0  0
   -4.0723    5.0567   -0.0638 H   0  0  0  0  0  0  0  0  0  0  0  0
  1  2  1  0
  2  3  1  0
  3  4  1  0
  4  5  1  0
  5  6  2  0
  6  7  1  0
  7  8  2  0
  8  9  1  0
  9 10  1  0
  8 11  1  0
 11 12  2  0
  2 13  2  0
 13 14  1  0
 14 15  2  0
 15 16  1  0
 16 17  2  0
 17 18  1  0
 18 19  1  0
 15 20  1  0
 20 21  2  3
 21 22  1  0
 22 23  2  0
 23 24  1  0
 24 25  2  0
 25 26  1  0
 26 27  1  0
 26 28  2  0
 28 29  1  0
 20  1  1  0
 28 22  1  0
 12  5  1  0
 18 14  1  0
  1 30  1  0
  3 31  1  0
  4 32  1  0
  4 33  1  0
  6 34  1  0
  7 35  1  0
 10 36  1  0
 10 37  1  0
 10 38  1  0
 11 39  1  0
 12 40  1  0
 16 41  1  0
 19 42  1  0
 19 43  1  0
 19 44  1  0
 23 45  1  0
 24 46  1  0
 25 47  1  0
M  END
>  <ScrubInfo>  (3) 
{"isomerGroup": 0, "isomerId": 2, "confId": 0, "nr_conformers:": 1, "nr_isomers:": 9}

$$$$
_i3
     RDKit          3D

 47 50  0  0  0  0  0  0  0  0999 V2000
    0.1226    0.7002    0.1177 N   0  0  0  0  0  0  0  0  0  0  0  0
    0.0271    0.0029    1.3131 C   0  0  0  0  0  0  0  0  0  0  0  0
    0.8114    0.1067    2.3258 N   0  0  0  0  0  0  0  0  0  0  0  0
    1.9073    1.0707    2.3228 C   0  0  0  0  0  0  0  0  0  0  0  0
    3.0293    0.7795    1.3512 C   0  0  0  0  0  0  0  0  0  0  0  0
    3.4030   -0.5335    1.0435 C   0  0  0  0  0  0  0  0  0  0  0  0
    4.4433   -0.7811    0.1451 C   0  0  0  0  0  0  0  0  0  0  0  0
    5.1416    0.2731   -0.4463 C   0  0  0  0  0  0  0  0  0  0  0  0
    6.1343   -0.1084   -1.3057 O   0  0  0  0  0  0  0  0  0  0  0  0
    6.9249    0.9258   -1.8770 C   0  0  0  0  0  0  0  0  0  0  0  0
    4.7900    1.5844   -0.1280 C   0  0  0  0  0  0  0  0  0  0  0  0
    3.7446    1.8353    0.7686 C   0  0  0  0  0  0  0  0  0  0  0  0
   -0.9876   -0.9230    1.5221 N   0  0  0  0  0  0  0  0  0  0  0  0
   -1.8593   -1.1509    0.5832 C   0  0  0  0  0  0  0  0  0  0  0  0
   -2.8725   -2.0643    0.6988 N   0  0  0  0  0  0  0  0  0  0  0  0
   -4.2555   -1.7309    0.8448 C   0  0  0  0  0  0  0  0  0  0  0  0
   -4.7344   -0.4216    0.6745 C   0  0  0  0  0  0  0  0  0  0  0  0
   -6.0987   -0.1353    0.7645 C   0  0  0  0  0  0  0  0  0  0  0  0
   -7.0123   -1.1549    1.0171 C   0  0  0  0  0  0  0  0  0  0  0  0
   -6.5660   -2.4671    1.1823 C   0  0  0  0  0  0  0  0  0  0  0  0
   -7.7600   -3.6792    1.4922 Cl  0  0  0  0  0  0  0  0  0  0  0  0
   -5.1964   -2.7601    1.0934 C   0  0  0  0  0  0  0  0  0  0  0  0
   -4.6207   -4.3885    1.3018 Cl  0  0  0  0  0  0  0  0  0  0  0  0
   -1.7475   -0.5008   -0.6998 C   0  0  0  0  0  0  0  0  0  0  0  0
   -2.3892   -0.5442   -1.9460 C   0  0  0  0  0  0  0  0  0  0  0  0
   -1.8369    0.3008   -2.8312 N   0  0  0  0  0  0  0  0  0  0  0  0
   -0.8086    0.8623   -2.1471 N   0  0  0  0  0  0  0  0  0  0  0  0
    0.0471    1.8082   -2.8168 C   0  0  0  0  0  0  0  0  0  0  0  0
   -0.7425    0.4089   -0.8684 C   0  0  0  0  0  0  0  0  0  0  0  0
    0.9529    1.2575   -0.0225 H   0  0  0  0  0  0  0  0  0  0  0  0
    2.3417    1.0911    3.3297 H   0  0  0  0  0  0  0  0  0  0  0  0
    1.5041    2.0766    2.1473 H   0  0  0  0  0  0  0  0  0  0  0  0
    2.8815   -1.3733    1.5004 H   0  0  0  0  0  0  0  0  0  0  0  0
    4.7157   -1.8076   -0.0892 H   0  0  0  0  0  0  0  0  0  0  0  0
    7.6841    0.4558   -2.5095 H   0  0  0  0  0  0  0  0  0  0  0  0
    6.3188    1.5786   -2.5137 H   0  0  0  0  0  0  0  0  0  0  0  0
    7.4451    1.4999   -1.1030 H   0  0  0  0  0  0  0  0  0  0  0  0
    5.3129    2.4344   -0.5535 H   0  0  0  0  0  0  0  0  0  0  0  0
    3.4985    2.8665    1.0146 H   0  0  0  0  0  0  0  0  0  0  0  0
   -2.6505   -2.7411    1.4300 H   0  0  0  0  0  0  0  0  0  0  0  0
   -4.0572    0.4082    0.4864 H   0  0  0  0  0  0  0  0  0  0  0  0
   -6.4471    0.8877    0.6366 H   0  0  0  0  0  0  0  0  0  0  0  0
   -8.0723   -0.9203    1.0846 H   0  0  0  0  0  0  0  0  0  0  0  0
   -3.2318   -1.1498   -2.2543 H   0  0  0  0  0  0  0  0  0  0  0  0
    0.5714    1.2867   -3.6214 H   0  0  0  0  0  0  0  0  0  0  0  0
   -0.5747    2.6105   -3.2223 H   0  0  0  0  0  0  0  0  0  0  0  0
    0.7687    2.2235   -2.1103 H   0  0  0  0  0  0  0  0  0  0  0  0
  1  2  1  0
  2  3  2  3
  3  4  1  0
  4  5  1  0
  5  6  2  0
  6  7  1  0
  7  8  2  0
  8  9  1  0
  9 10  1  0
  8 11  1  0
 11 12  2  0
  2 13  1  0
 13 14  2  0
 14 15  1  0
 15 16  1  0
 16 17  2  0
 17 18  1  0
 18 19  2  0
 19 20  1  0
 20 21  1  0
 20 22  2  0
 22 23  1  0
 14 24  1  0
 24 25  1  0
 25 26  2  0
 26 27  1  0
 27 28  1  0
 27 29  1  0
 29  1  1  0
 12  5  1  0
 22 16  1  0
 29 24  2  0
  1 30  1  0
  4 31  1  0
  4 32  1  0
  6 33  1  0
  7 34  1  0
 10 35  1  0
 10 36  1  0
 10 37  1  0
 11 38  1  0
 12 39  1  0
 15 40  1  0
 17 41  1  0
 18 42  1  0
 19 43  1  0
 25 44  1  0
 28 45  1  0
 28 46  1  0
 28 47  1  0
M  END
>  <ScrubInfo>  (4) 
{"isomerGroup": 0, "isomerId": 3, "confId": 0, "nr_conformers:": 1, "nr_isomers:": 9}

$$$$
_i4
     RDKit          3D

 47 50  0  0  0  0  0  0  0  0999 V2000
   -3.5210   -4.2469   -1.3539 N   0  0  0  0  0  0  0  0  0  0  0  0
   -4.0113   -3.1128   -0.7144 C   0  0  0  0  0  0  0  0  0  0  0  0
   -3.0498   -2.2304   -0.4145 C   0  0  0  0  0  0  0  0  0  0  0  0
   -2.9580   -0.9197    0.1834 C   0  0  0  0  0  0  0  0  0  0  0  0
   -3.9933   -0.2972    0.6558 N   0  0  0  0  0  0  0  0  0  0  0  0
   -3.8025    0.9940    1.1877 C   0  0  0  0  0  0  0  0  0  0  0  0
   -3.6697    1.1192    2.5778 C   0  0  0  0  0  0  0  0  0  0  0  0
   -3.4917    2.3681    3.1709 C   0  0  0  0  0  0  0  0  0  0  0  0
   -3.4543    3.5111    2.3758 C   0  0  0  0  0  0  0  0  0  0  0  0
   -3.6014    3.4078    0.9881 C   0  0  0  0  0  0  0  0  0  0  0  0
   -3.5520    4.8789    0.0771 Cl  0  0  0  0  0  0  0  0  0  0  0  0
   -3.7829    2.1537    0.3869 C   0  0  0  0  0  0  0  0  0  0  0  0
   -3.9928    2.0112   -1.3326 Cl  0  0  0  0  0  0  0  0  0  0  0  0
   -1.6935   -0.3929    0.2051 N   0  0  0  0  0  0  0  0  0  0  0  0
   -0.6611   -1.0374   -0.2589 C   0  0  0  0  0  0  0  0  0  0  0  0
    0.5332   -0.3872   -0.1828 N   0  0  0  0  0  0  0  0  0  0  0  0
    1.6436   -0.7084   -1.0444 C   0  0  0  0  0  0  0  0  0  0  0  0
    2.7985    0.2139   -0.7381 C   0  0  0  0  0  0  0  0  0  0  0  0
    3.5977   -0.0017    0.3935 C   0  0  0  0  0  0  0  0  0  0  0  0
    4.6582    0.8597    0.6964 C   0  0  0  0  0  0  0  0  0  0  0  0
    4.9295    1.9529   -0.1256 C   0  0  0  0  0  0  0  0  0  0  0  0
    5.9299    2.8679    0.0546 O   0  0  0  0  0  0  0  0  0  0  0  0
    6.7685    2.6874    1.1886 C   0  0  0  0  0  0  0  0  0  0  0  0
    4.1289    2.1770   -1.2480 C   0  0  0  0  0  0  0  0  0  0  0  0
    3.0689    1.3195   -1.5531 C   0  0  0  0  0  0  0  0  0  0  0  0
   -0.6840   -2.2957   -0.8064 N   0  0  0  0  0  0  0  0  0  0  0  0
   -1.8228   -2.8930   -0.8709 C   0  0  0  0  0  0  0  0  0  0  0  0
   -2.1296   -4.1674   -1.3521 N   0  0  0  0  0  0  0  0  0  0  0  0
   -1.3920   -4.7434   -2.4598 C   0  0  0  0  0  0  0  0  0  0  0  0
   -3.9234   -5.1169   -0.9976 H   0  0  0  0  0  0  0  0  0  0  0  0
   -5.0701   -3.0229   -0.5160 H   0  0  0  0  0  0  0  0  0  0  0  0
   -3.6993    0.2261    3.1976 H   0  0  0  0  0  0  0  0  0  0  0  0
   -3.3820    2.4473    4.2496 H   0  0  0  0  0  0  0  0  0  0  0  0
   -3.3138    4.4832    2.8427 H   0  0  0  0  0  0  0  0  0  0  0  0
    0.4218    0.5962    0.0324 H   0  0  0  0  0  0  0  0  0  0  0  0
    1.3514   -0.6057   -2.0965 H   0  0  0  0  0  0  0  0  0  0  0  0
    1.9661   -1.7466   -0.8991 H   0  0  0  0  0  0  0  0  0  0  0  0
    3.3904   -0.8439    1.0516 H   0  0  0  0  0  0  0  0  0  0  0  0
    5.2473    0.6491    1.5825 H   0  0  0  0  0  0  0  0  0  0  0  0
    6.1958    2.7609    2.1190 H   0  0  0  0  0  0  0  0  0  0  0  0
    7.5083    3.4937    1.1889 H   0  0  0  0  0  0  0  0  0  0  0  0
    7.3111    1.7380    1.1313 H   0  0  0  0  0  0  0  0  0  0  0  0
    4.3316    3.0312   -1.8899 H   0  0  0  0  0  0  0  0  0  0  0  0
    2.4581    1.5244   -2.4296 H   0  0  0  0  0  0  0  0  0  0  0  0
   -1.5551   -4.1683   -3.3772 H   0  0  0  0  0  0  0  0  0  0  0  0
   -0.3193   -4.7584   -2.2416 H   0  0  0  0  0  0  0  0  0  0  0  0
   -1.7119   -5.7757   -2.6344 H   0  0  0  0  0  0  0  0  0  0  0  0
  1  2  1  0
  2  3  2  0
  3  4  1  0
  4  5  2  3
  5  6  1  0
  6  7  2  0
  7  8  1  0
  8  9  2  0
  9 10  1  0
 10 11  1  0
 10 12  2  0
 12 13  1  0
  4 14  1  0
 14 15  2  0
 15 16  1  0
 16 17  1  0
 17 18  1  0
 18 19  2  0
 19 20  1  0
 20 21  2  0
 21 22  1  0
 22 23  1  0
 21 24  1  0
 24 25  2  0
 15 26  1  0
 26 27  2  0
 27 28  1  0
 28 29  1  0
 28  1  1  0
 27  3  1  0
 12  6  1  0
 25 18  1  0
  1 30  1  0
  2 31  1  0
  7 32  1  0
  8 33  1  0
  9 34  1  0
 16 35  1  0
 17 36  1  0
 17 37  1  0
 19 38  1  0
 20 39  1  0
 23 40  1  0
 23 41  1  0
 23 42  1  0
 24 43  1  0
 25 44  1  0
 29 45  1  0
 29 46  1  0
 29 47  1  0
M  END
>  <ScrubInfo>  (5) 
{"isomerGroup": 0, "isomerId": 4, "confId": 0, "nr_conformers:": 1, "nr_isomers:": 9}

$$$$
_i5
     RDKit          3D

 47 50  0  0  0  0  0  0  0  0999 V2000
   -0.4535    1.6204    0.3526 N   0  0  0  0  0  0  0  0  0  0  0  0
   -0.0462    0.3085    0.2795 C   0  0  0  0  0  0  0  0  0  0  0  0
    1.3153    0.1978    0.3130 N   0  0  0  0  0  0  0  0  0  0  0  0
    1.9444   -1.1021    0.1428 C   0  0  0  0  0  0  0  0  0  0  0  0
    3.4441   -0.9315    0.1860 C   0  0  0  0  0  0  0  0  0  0  0  0
    4.2054   -0.9723   -0.9898 C   0  0  0  0  0  0  0  0  0  0  0  0
    5.5932   -0.7922   -0.9494 C   0  0  0  0  0  0  0  0  0  0  0  0
    6.2366   -0.5633    0.2669 C   0  0  0  0  0  0  0  0  0  0  0  0
    7.5787   -0.3699    0.4442 O   0  0  0  0  0  0  0  0  0  0  0  0
    8.3997   -0.4593   -0.7134 C   0  0  0  0  0  0  0  0  0  0  0  0
    5.4798   -0.5134    1.4394 C   0  0  0  0  0  0  0  0  0  0  0  0
    4.0954   -0.6940    1.4030 C   0  0  0  0  0  0  0  0  0  0  0  0
   -0.8417   -0.7185    0.2028 N   0  0  0  0  0  0  0  0  0  0  0  0
   -2.2168   -0.5344    0.1536 C   0  0  0  0  0  0  0  0  0  0  0  0
   -2.9242   -1.6042   -0.0284 N   0  0  0  0  0  0  0  0  0  0  0  0
   -4.3199   -1.5810   -0.1452 C   0  0  0  0  0  0  0  0  0  0  0  0
   -5.0769   -1.8954    0.9921 C   0  0  0  0  0  0  0  0  0  0  0  0
   -6.4693   -1.9301    0.9380 C   0  0  0  0  0  0  0  0  0  0  0  0
   -7.1208   -1.6658   -0.2647 C   0  0  0  0  0  0  0  0  0  0  0  0
   -6.3820   -1.3749   -1.4167 C   0  0  0  0  0  0  0  0  0  0  0  0
   -7.2705   -1.0673   -2.8690 Cl  0  0  0  0  0  0  0  0  0  0  0  0
   -4.9807   -1.3380   -1.3670 C   0  0  0  0  0  0  0  0  0  0  0  0
   -4.0468   -0.9828   -2.7873 Cl  0  0  0  0  0  0  0  0  0  0  0  0
   -2.6955    0.8276    0.3173 C   0  0  0  0  0  0  0  0  0  0  0  0
   -3.9276    1.4925    0.4500 C   0  0  0  0  0  0  0  0  0  0  0  0
   -3.7913    2.8186    0.6080 N   0  0  0  0  0  0  0  0  0  0  0  0
   -2.4535    3.0105    0.5696 N   0  0  0  0  0  0  0  0  0  0  0  0
   -1.9325    4.3472    0.7013 C   0  0  0  0  0  0  0  0  0  0  0  0
   -1.7779    1.8439    0.4063 C   0  0  0  0  0  0  0  0  0  0  0  0
    0.2387    2.3041    0.6279 H   0  0  0  0  0  0  0  0  0  0  0  0
    1.8046    0.9227   -0.1970 H   0  0  0  0  0  0  0  0  0  0  0  0
    1.6348   -1.7906    0.9385 H   0  0  0  0  0  0  0  0  0  0  0  0
    1.6447   -1.5485   -0.8132 H   0  0  0  0  0  0  0  0  0  0  0  0
    3.7239   -1.1484   -1.9499 H   0  0  0  0  0  0  0  0  0  0  0  0
    6.1398   -0.8364   -1.8855 H   0  0  0  0  0  0  0  0  0  0  0  0
    8.1498    0.3254   -1.4351 H   0  0  0  0  0  0  0  0  0  0  0  0
    8.3337   -1.4526   -1.1696 H   0  0  0  0  0  0  0  0  0  0  0  0
    9.4368   -0.3052   -0.4003 H   0  0  0  0  0  0  0  0  0  0  0  0
    5.9738   -0.3328    2.3911 H   0  0  0  0  0  0  0  0  0  0  0  0
    3.5254   -0.6464    2.3288 H   0  0  0  0  0  0  0  0  0  0  0  0
   -4.5669   -2.1203    1.9269 H   0  0  0  0  0  0  0  0  0  0  0  0
   -7.0430   -2.1710    1.8299 H   0  0  0  0  0  0  0  0  0  0  0  0
   -8.2076   -1.6965   -0.3022 H   0  0  0  0  0  0  0  0  0  0  0  0
   -4.9301    1.0891    0.4534 H   0  0  0  0  0  0  0  0  0  0  0  0
   -2.0762    4.6694    1.7355 H   0  0  0  0  0  0  0  0  0  0  0  0
   -2.4771    5.0030    0.0172 H   0  0  0  0  0  0  0  0  0  0  0  0
   -0.8700    4.3582    0.4488 H   0  0  0  0  0  0  0  0  0  0  0  0
  1  2  1  0
  2  3  1  0
  3  4  1  0
  4  5  1  0
  5  6  2  0
  6  7  1  0
  7  8  2  0
  8  9  1  0
  9 10  1  0
  8 11  1  0
 11 12  2  0
  2 13  2  0
 13 14  1  0
 14 15  2  3
 15 16  1  0
 16 17  2  0
 17 18  1  0
 18 19  2  0
 19 20  1  0
 20 21  1  0
 20 22  2  0
 22 23  1  0
 14 24  1  0
 24 25  1  0
 25 26  2  0
 26 27  1  0
 27 28  1  0
 27 29  1  0
 29  1  1  0
 12  5  1  0
 22 16  1  0
 29 24  2  0
  1 30  1  0
  3 31  1  0
  4 32  1  0
  4 33  1  0
  6 34  1  0
  7 35  1  0
 10 36  1  0
 10 37  1  0
 10 38  1  0
 11 39  1  0
 12 40  1  0
 17 41  1  0
 18 42  1  0
 19 43  1  0
 25 44  1  0
 28 45  1  0
 28 46  1  0
 28 47  1  0
M  END
>  <ScrubInfo>  (6) 
{"isomerGroup": 0, "isomerId": 5, "confId": 0, "nr_conformers:": 1, "nr_isomers:": 9}

$$$$
_i6
     RDKit          3D

 47 50  0  0  0  0  0  0  0  0999 V2000
   -2.4337   -1.4954    2.1130 N   0  0  0  0  0  0  0  0  0  0  0  0
   -2.7290   -0.2804    1.5038 C   0  0  0  0  0  0  0  0  0  0  0  0
   -1.8924    0.0210    0.5015 C   0  0  0  0  0  0  0  0  0  0  0  0
   -1.6967    1.0648   -0.5028 C   0  0  0  0  0  0  0  0  0  0  0  0
   -2.4920    2.1861   -0.6340 N   0  0  0  0  0  0  0  0  0  0  0  0
   -3.8992    2.1765   -0.4618 C   0  0  0  0  0  0  0  0  0  0  0  0
   -4.4337    3.1567    0.3918 C   0  0  0  0  0  0  0  0  0  0  0  0
   -5.8085    3.2622    0.5961 C   0  0  0  0  0  0  0  0  0  0  0  0
   -6.6744    2.4022   -0.0730 C   0  0  0  0  0  0  0  0  0  0  0  0
   -6.1692    1.4478   -0.9612 C   0  0  0  0  0  0  0  0  0  0  0  0
   -7.3201    0.4397   -1.7702 Cl  0  0  0  0  0  0  0  0  0  0  0  0
   -4.7847    1.3386   -1.1749 C   0  0  0  0  0  0  0  0  0  0  0  0
   -4.1678    0.2050   -2.3362 Cl  0  0  0  0  0  0  0  0  0  0  0  0
   -0.6941    0.9479   -1.3292 N   0  0  0  0  0  0  0  0  0  0  0  0
    0.1280   -0.1554   -1.2409 C   0  0  0  0  0  0  0  0  0  0  0  0
    1.0671   -0.1592   -2.1178 N   0  0  0  0  0  0  0  0  0  0  0  0
    2.0170   -1.2666   -2.1219 C   0  0  0  0  0  0  0  0  0  0  0  0
    3.2114   -1.0141   -1.2317 C   0  0  0  0  0  0  0  0  0  0  0  0
    3.4504   -1.8115   -0.1076 C   0  0  0  0  0  0  0  0  0  0  0  0
    4.5580   -1.5669    0.7082 C   0  0  0  0  0  0  0  0  0  0  0  0
    5.4401   -0.5230    0.4200 C   0  0  0  0  0  0  0  0  0  0  0  0
    6.4811   -0.3942    1.2988 O   0  0  0  0  0  0  0  0  0  0  0  0
    7.4044    0.6568    1.0456 C   0  0  0  0  0  0  0  0  0  0  0  0
    5.2021    0.2810   -0.6946 C   0  0  0  0  0  0  0  0  0  0  0  0
    4.0935    0.0372   -1.5130 C   0  0  0  0  0  0  0  0  0  0  0  0
    0.0269   -1.1860   -0.3342 N   0  0  0  0  0  0  0  0  0  0  0  0
   -0.9253   -1.0974    0.5276 C   0  0  0  0  0  0  0  0  0  0  0  0
   -1.2370   -1.9597    1.5791 N   0  0  0  0  0  0  0  0  0  0  0  0
   -1.0202   -3.3888    1.4623 C   0  0  0  0  0  0  0  0  0  0  0  0
   -2.4854   -1.4631    3.1339 H   0  0  0  0  0  0  0  0  0  0  0  0
   -3.5692    0.2929    1.8669 H   0  0  0  0  0  0  0  0  0  0  0  0
   -2.2384    2.6728   -1.4933 H   0  0  0  0  0  0  0  0  0  0  0  0
   -3.7653    3.8392    0.9155 H   0  0  0  0  0  0  0  0  0  0  0  0
   -6.2030    4.0174    1.2725 H   0  0  0  0  0  0  0  0  0  0  0  0
   -7.7468    2.4892    0.0893 H   0  0  0  0  0  0  0  0  0  0  0  0
    1.5469   -2.2314   -1.8917 H   0  0  0  0  0  0  0  0  0  0  0  0
    2.3869   -1.3876   -3.1485 H   0  0  0  0  0  0  0  0  0  0  0  0
    2.7698   -2.6209    0.1440 H   0  0  0  0  0  0  0  0  0  0  0  0
    4.7321   -2.1932    1.5791 H   0  0  0  0  0  0  0  0  0  0  0  0
    8.1696    0.6248    1.8273 H   0  0  0  0  0  0  0  0  0  0  0  0
    6.9146    1.6347    1.1000 H   0  0  0  0  0  0  0  0  0  0  0  0
    7.9070    0.5182    0.0827 H   0  0  0  0  0  0  0  0  0  0  0  0
    5.8522    1.1084   -0.9558 H   0  0  0  0  0  0  0  0  0  0  0  0
    3.9081    0.6782   -2.3728 H   0  0  0  0  0  0  0  0  0  0  0  0
   -1.6700   -3.8191    0.6931 H   0  0  0  0  0  0  0  0  0  0  0  0
   -1.2322   -3.8852    2.4148 H   0  0  0  0  0  0  0  0  0  0  0  0
    0.0214   -3.6003    1.1999 H   0  0  0  0  0  0  0  0  0  0  0  0
  1  2  1  0
  2  3  2  0
  3  4  1  0
  4  5  1  0
  5  6  1  0
  6  7  2  0
  7  8  1  0
  8  9  2  0
  9 10  1  0
 10 11  1  0
 10 12  2  0
 12 13  1  0
  4 14  2  0
 14 15  1  0
 15 16  2  3
 16 17  1  0
 17 18  1  0
 18 19  2  0
 19 20  1  0
 20 21  2  0
 21 22  1  0
 22 23  1  0
 21 24  1  0
 24 25  2  0
 15 26  1  0
 26 27  2  0
 27 28  1  0
 28 29  1  0
 28  1  1  0
 27  3  1  0
 12  6  1  0
 25 18  1  0
  1 30  1  0
  2 31  1  0
  5 32  1  0
  7 33  1  0
  8 34  1  0
  9 35  1  0
 17 36  1  0
 17 37  1  0
 19 38  1  0
 20 39  1  0
 23 40  1  0
 23 41  1  0
 23 42  1  0
 24 43  1  0
 25 44  1  0
 29 45  1  0
 29 46  1  0
 29 47  1  0
M  END
>  <ScrubInfo>  (7) 
{"isomerGroup": 0, "isomerId": 6, "confId": 0, "nr_conformers:": 1, "nr_isomers:": 9}

$$$$
_i7
     RDKit          3D

 47 50  0  0  0  0  0  0  0  0999 V2000
   -2.9008   -2.0969    0.8606 N   0  0  0  0  0  0  0  0  0  0  0  0
   -3.1608   -0.7460    0.6619 C   0  0  0  0  0  0  0  0  0  0  0  0
   -2.2101   -0.1148   -0.0420 C   0  0  0  0  0  0  0  0  0  0  0  0
   -1.9039    1.2170   -0.6009 C   0  0  0  0  0  0  0  0  0  0  0  0
   -2.5829    2.3231   -0.5154 N   0  0  0  0  0  0  0  0  0  0  0  0
   -3.8094    2.3744    0.1663 C   0  0  0  0  0  0  0  0  0  0  0  0
   -3.7999    2.7922    1.5042 C   0  0  0  0  0  0  0  0  0  0  0  0
   -4.9862    2.8996    2.2284 C   0  0  0  0  0  0  0  0  0  0  0  0
   -6.2004    2.6016    1.6139 C   0  0  0  0  0  0  0  0  0  0  0  0
   -6.2319    2.2028    0.2732 C   0  0  0  0  0  0  0  0  0  0  0  0
   -7.7814    1.8522   -0.4113 Cl  0  0  0  0  0  0  0  0  0  0  0  0
   -5.0411    2.0940   -0.4597 C   0  0  0  0  0  0  0  0  0  0  0  0
   -5.0578    1.5992   -2.1238 Cl  0  0  0  0  0  0  0  0  0  0  0  0
   -0.7266    1.2263   -1.2974 N   0  0  0  0  0  0  0  0  0  0  0  0
    0.1344    0.1839   -1.4952 C   0  0  0  0  0  0  0  0  0  0  0  0
    1.1985    0.3974   -2.1949 N   0  0  0  0  0  0  0  0  0  0  0  0
    2.1390   -0.7040   -2.3938 C   0  0  0  0  0  0  0  0  0  0  0  0
    3.2529   -0.6907   -1.3743 C   0  0  0  0  0  0  0  0  0  0  0  0
    3.2478   -1.5845   -0.2982 C   0  0  0  0  0  0  0  0  0  0  0  0
    4.2747   -1.5554    0.6484 C   0  0  0  0  0  0  0  0  0  0  0  0
    5.3165   -0.6313    0.5426 C   0  0  0  0  0  0  0  0  0  0  0  0
    6.2553   -0.7111    1.5347 O   0  0  0  0  0  0  0  0  0  0  0  0
    7.3372    0.2088    1.4672 C   0  0  0  0  0  0  0  0  0  0  0  0
    5.3197    0.2718   -0.5205 C   0  0  0  0  0  0  0  0  0  0  0  0
    4.2917    0.2441   -1.4698 C   0  0  0  0  0  0  0  0  0  0  0  0
   -0.1140   -1.0617   -0.9601 N   0  0  0  0  0  0  0  0  0  0  0  0
   -1.1970   -1.2082   -0.2626 C   0  0  0  0  0  0  0  0  0  0  0  0
   -1.6246   -2.3663    0.3908 N   0  0  0  0  0  0  0  0  0  0  0  0
   -1.3344   -3.6803   -0.1514 C   0  0  0  0  0  0  0  0  0  0  0  0
   -3.1121   -2.4215    1.8070 H   0  0  0  0  0  0  0  0  0  0  0  0
   -4.0726   -0.3419    1.0739 H   0  0  0  0  0  0  0  0  0  0  0  0
   -2.8535    3.0431    1.9790 H   0  0  0  0  0  0  0  0  0  0  0  0
   -4.9633    3.2251    3.2660 H   0  0  0  0  0  0  0  0  0  0  0  0
   -7.1238    2.6909    2.1824 H   0  0  0  0  0  0  0  0  0  0  0  0
   -0.4522    2.0990   -1.7228 H   0  0  0  0  0  0  0  0  0  0  0  0
    2.5854   -0.5874   -3.3899 H   0  0  0  0  0  0  0  0  0  0  0  0
    1.6575   -1.6894   -2.4331 H   0  0  0  0  0  0  0  0  0  0  0  0
    2.4383   -2.3021   -0.1877 H   0  0  0  0  0  0  0  0  0  0  0  0
    4.2593   -2.2563    1.4789 H   0  0  0  0  0  0  0  0  0  0  0  0
    6.9831    1.2417    1.5498 H   0  0  0  0  0  0  0  0  0  0  0  0
    7.9240    0.0627    0.5543 H   0  0  0  0  0  0  0  0  0  0  0  0
    7.9950    0.0140    2.3198 H   0  0  0  0  0  0  0  0  0  0  0  0
    6.1010    1.0141   -0.6404 H   0  0  0  0  0  0  0  0  0  0  0  0
    4.2972    0.9628   -2.2867 H   0  0  0  0  0  0  0  0  0  0  0  0
   -1.8419   -3.8258   -1.1108 H   0  0  0  0  0  0  0  0  0  0  0  0
   -1.6683   -4.4602    0.5407 H   0  0  0  0  0  0  0  0  0  0  0  0
   -0.2574   -3.8065   -0.3014 H   0  0  0  0  0  0  0  0  0  0  0  0
  1  2  1  0
  2  3  2  0
  3  4  1  0
  4  5  2  3
  5  6  1  0
  6  7  2  0
  7  8  1  0
  8  9  2  0
  9 10  1  0
 10 11  1  0
 10 12  2  0
 12 13  1  0
  4 14  1  0
 14 15  1  0
 15 16  2  3
 16 17  1  0
 17 18  1  0
 18 19  2  0
 19 20  1  0
 20 21  2  0
 21 22  1  0
 22 23  1  0
 21 24  1  0
 24 25  2  0
 15 26  1  0
 26 27  2  0
 27 28  1  0
 28 29  1  0
 28  1  1  0
 27  3  1  0
 12  6  1  0
 25 18  1  0
  1 30  1  0
  2 31  1  0
  7 32  1  0
  8 33  1  0
  9 34  1  0
 14 35  1  0
 17 36  1  0
 17 37  1  0
 19 38  1  0
 20 39  1  0
 23 40  1  0
 23 41  1  0
 23 42  1  0
 24 43  1  0
 25 44  1  0
 29 45  1  0
 29 46  1  0
 29 47  1  0
M  END
>  <ScrubInfo>  (8) 
{"isomerGroup": 0, "isomerId": 7, "confId": 0, "nr_conformers:": 1, "nr_isomers:": 9}

$$$$
_i8
     RDKit          3D

 47 50  0  0  0  0  0  0  0  0999 V2000
   -0.1379    0.8645   -0.9585 N   0  0  0  0  0  0  0  0  0  0  0  0
   -0.6947    0.7763    0.3086 C   0  0  0  0  0  0  0  0  0  0  0  0
   -0.2678    1.2980    1.4089 N   0  0  0  0  0  0  0  0  0  0  0  0
    0.9220    2.1526    1.3879 C   0  0  0  0  0  0  0  0  0  0  0  0
    2.2232    1.4466    1.0810 C   0  0  0  0  0  0  0  0  0  0  0  0
    2.4648    0.1412    1.5233 C   0  0  0  0  0  0  0  0  0  0  0  0
    3.6763   -0.4911    1.2345 C   0  0  0  0  0  0  0  0  0  0  0  0
    4.6738    0.1713    0.5169 C   0  0  0  0  0  0  0  0  0  0  0  0
    5.8079   -0.5620    0.3036 O   0  0  0  0  0  0  0  0  0  0  0  0
    6.8738    0.0836   -0.3808 C   0  0  0  0  0  0  0  0  0  0  0  0
    4.4495    1.4800    0.0912 C   0  0  0  0  0  0  0  0  0  0  0  0
    3.2346    2.1146    0.3763 C   0  0  0  0  0  0  0  0  0  0  0  0
   -1.8505    0.0189    0.3552 N   0  0  0  0  0  0  0  0  0  0  0  0
   -2.5330   -0.6572   -0.6373 C   0  0  0  0  0  0  0  0  0  0  0  0
   -3.6155   -1.3620   -0.6051 N   0  0  0  0  0  0  0  0  0  0  0  0
   -4.2912   -1.5020    0.6209 C   0  0  0  0  0  0  0  0  0  0  0  0
   -4.0588   -2.6664    1.3651 C   0  0  0  0  0  0  0  0  0  0  0  0
   -4.7079   -2.8807    2.5799 C   0  0  0  0  0  0  0  0  0  0  0  0
   -5.6085   -1.9322    3.0594 C   0  0  0  0  0  0  0  0  0  0  0  0
   -5.8657   -0.7708    2.3233 C   0  0  0  0  0  0  0  0  0  0  0  0
   -6.9980    0.3542    2.9903 Cl  0  0  0  0  0  0  0  0  0  0  0  0
   -5.2143   -0.5507    1.1007 C   0  0  0  0  0  0  0  0  0  0  0  0
   -5.5162    0.8865    0.1745 Cl  0  0  0  0  0  0  0  0  0  0  0  0
   -1.8588   -0.5199   -1.9061 C   0  0  0  0  0  0  0  0  0  0  0  0
   -2.0798   -0.9966   -3.2065 C   0  0  0  0  0  0  0  0  0  0  0  0
   -1.1276   -0.5972   -4.0638 N   0  0  0  0  0  0  0  0  0  0  0  0
   -0.2955    0.1511   -3.2990 N   0  0  0  0  0  0  0  0  0  0  0  0
    0.8714    0.7403   -3.9053 C   0  0  0  0  0  0  0  0  0  0  0  0
   -0.7075    0.2216   -2.0030 C   0  0  0  0  0  0  0  0  0  0  0  0
    0.7549    1.3335   -1.0375 H   0  0  0  0  0  0  0  0  0  0  0  0
    1.0221    2.6139    2.3778 H   0  0  0  0  0  0  0  0  0  0  0  0
    0.7602    2.9793    0.6838 H   0  0  0  0  0  0  0  0  0  0  0  0
    1.7076   -0.3938    2.0931 H   0  0  0  0  0  0  0  0  0  0  0  0
    3.8455   -1.5089    1.5780 H   0  0  0  0  0  0  0  0  0  0  0  0
    7.7034   -0.6262   -0.4532 H   0  0  0  0  0  0  0  0  0  0  0  0
    6.5797    0.3570   -1.3995 H   0  0  0  0  0  0  0  0  0  0  0  0
    7.2301    0.9566    0.1761 H   0  0  0  0  0  0  0  0  0  0  0  0
    5.2006    2.0380   -0.4578 H   0  0  0  0  0  0  0  0  0  0  0  0
    3.0884    3.1418    0.0475 H   0  0  0  0  0  0  0  0  0  0  0  0
   -2.2456   -0.0229    1.2817 H   0  0  0  0  0  0  0  0  0  0  0  0
   -3.3673   -3.4155    0.9840 H   0  0  0  0  0  0  0  0  0  0  0  0
   -4.5171   -3.7893    3.1465 H   0  0  0  0  0  0  0  0  0  0  0  0
   -6.1145   -2.1059    4.0068 H   0  0  0  0  0  0  0  0  0  0  0  0
   -2.8881   -1.6211   -3.5651 H   0  0  0  0  0  0  0  0  0  0  0  0
    0.5862    1.1729   -4.8679 H   0  0  0  0  0  0  0  0  0  0  0  0
    1.2695    1.5249   -3.2585 H   0  0  0  0  0  0  0  0  0  0  0  0
    1.6162   -0.0468   -4.0460 H   0  0  0  0  0  0  0  0  0  0  0  0
  1  2  1  0
  2  3  2  3
  3  4  1  0
  4  5  1  0
  5  6  2  0
  6  7  1  0
  7  8  2  0
  8  9  1  0
  9 10  1  0
  8 11  1  0
 11 12  2  0
  2 13  1  0
 13 14  1  0
 14 15  2  3
 15 16  1  0
 16 17  2  0
 17 18  1  0
 18 19  2  0
 19 20  1  0
 20 21  1  0
 20 22  2  0
 22 23  1  0
 14 24  1  0
 24 25  1  0
 25 26  2  0
 26 27  1  0
 27 28  1  0
 27 29  1  0
 29  1  1  0
 12  5  1  0
 22 16  1  0
 29 24  2  0
  1 30  1  0
  4 31  1  0
  4 32  1  0
  6 33  1  0
  7 34  1  0
 10 35  1  0
 10 36  1  0
 10 37  1  0
 11 38  1  0
 12 39  1  0
 13 40  1  0
 17 41  1  0
 18 42  1  0
 19 43  1  0
 25 44  1  0
 28 45  1  0
 28 46  1  0
 28 47  1  0
M  END
>  <ScrubInfo>  (9) 
{"isomerGroup": 0, "isomerId": 8, "confId": 0, "nr_conformers:": 1, "nr_isomers:": 9}

$$$$
