_i0
     RDKit          3D

 50 53  0  0  0  0  0  0  0  0999 V2000
    8.0055   -2.8878   -0.0311 C   0  0  0  0  0  0  0  0  0  0  0  0
    7.4176   -2.0651   -1.0309 O   0  0  0  0  0  0  0  0  0  0  0  0
    6.2645   -1.4119   -0.6930 C   0  0  0  0  0  0  0  0  0  0  0  0
    5.7225   -0.6213   -1.7090 C   0  0  0  0  0  0  0  0  0  0  0  0
    4.5448    0.1016   -1.5018 C   0  0  0  0  0  0  0  0  0  0  0  0
    3.8917    0.0475   -0.2648 C   0  0  0  0  0  0  0  0  0  0  0  0
    2.6115    0.8159   -0.0285 C   0  0  0  0  0  0  0  0  0  0  0  0
    1.5060   -0.1172    0.0359 N   0  0  0  0  0  0  0  0  0  0  0  0
    0.2556    0.4845    0.0625 C   0  0  0  0  0  0  0  0  0  0  0  0
   -0.7059   -0.1933   -0.5913 N   0  0  0  0  0  0  0  0  0  0  0  0
   -1.9762    0.2828   -0.6230 C   0  0  0  0  0  0  0  0  0  0  0  0
   -2.9229   -0.4924   -1.3215 N   0  0  0  0  0  0  0  0  0  0  0  0
   -4.2787   -0.6373   -0.9471 C   0  0  0  0  0  0  0  0  0  0  0  0
   -5.2417   -0.1621   -1.8529 C   0  0  0  0  0  0  0  0  0  0  0  0
   -6.6005   -0.2414   -1.5632 C   0  0  0  0  0  0  0  0  0  0  0  0
   -7.0121   -0.8014   -0.3594 C   0  0  0  0  0  0  0  0  0  0  0  0
   -6.0674   -1.3002    0.5433 C   0  0  0  0  0  0  0  0  0  0  0  0
   -6.6726   -1.9592    2.0251 Cl  0  0  0  0  0  0  0  0  0  0  0  0
   -4.6883   -1.2558    0.2552 C   0  0  0  0  0  0  0  0  0  0  0  0
   -3.6823   -1.8055    1.2342 C   0  0  0  0  0  0  0  0  0  0  0  0
   -2.2368    1.4916    0.0255 C   0  0  0  0  0  0  0  0  0  0  0  0
   -3.3222    2.3612    0.2577 C   0  0  0  0  0  0  0  0  0  0  0  0
   -2.9841    3.4348    0.9823 N   0  0  0  0  0  0  0  0  0  0  0  0
   -1.6658    3.2440    1.2188 N   0  0  0  0  0  0  0  0  0  0  0  0
   -0.9381    4.2144    1.9970 C   0  0  0  0  0  0  0  0  0  0  0  0
   -1.1703    2.0981    0.6592 C   0  0  0  0  0  0  0  0  0  0  0  0
    0.0912    1.6457    0.7107 N   0  0  0  0  0  0  0  0  0  0  0  0
    4.4356   -0.7527    0.7502 C   0  0  0  0  0  0  0  0  0  0  0  0
    5.6147   -1.4762    0.5390 C   0  0  0  0  0  0  0  0  0  0  0  0
    8.9101   -3.3343   -0.4551 H   0  0  0  0  0  0  0  0  0  0  0  0
    7.3337   -3.7041    0.2539 H   0  0  0  0  0  0  0  0  0  0  0  0
    8.3036   -2.2970    0.8414 H   0  0  0  0  0  0  0  0  0  0  0  0
    6.2228   -0.5701   -2.6731 H   0  0  0  0  0  0  0  0  0  0  0  0
    4.1454    0.7042   -2.3143 H   0  0  0  0  0  0  0  0  0  0  0  0
    2.4669    1.5445   -0.8373 H   0  0  0  0  0  0  0  0  0  0  0  0
    2.7124    1.3796    0.9080 H   0  0  0  0  0  0  0  0  0  0  0  0
    1.4839   -0.7962   -0.7169 H   0  0  0  0  0  0  0  0  0  0  0  0
   -2.4771   -1.3978   -1.4623 H   0  0  0  0  0  0  0  0  0  0  0  0
   -4.9219    0.2895   -2.7903 H   0  0  0  0  0  0  0  0  0  0  0  0
   -7.3333    0.1408   -2.2690 H   0  0  0  0  0  0  0  0  0  0  0  0
   -8.0733   -0.8489   -0.1266 H   0  0  0  0  0  0  0  0  0  0  0  0
   -2.7523   -2.1039    0.7416 H   0  0  0  0  0  0  0  0  0  0  0  0
   -3.4538   -1.0558    1.9979 H   0  0  0  0  0  0  0  0  0  0  0  0
   -4.0504   -2.7138    1.7215 H   0  0  0  0  0  0  0  0  0  0  0  0
   -4.3481    2.2582   -0.0712 H   0  0  0  0  0  0  0  0  0  0  0  0
   -0.9921    5.1774    1.4830 H   0  0  0  0  0  0  0  0  0  0  0  0
    0.1051    3.9071    2.0990 H   0  0  0  0  0  0  0  0  0  0  0  0
   -1.4024    4.2814    2.9842 H   0  0  0  0  0  0  0  0  0  0  0  0
    3.9321   -0.8210    1.7132 H   0  0  0  0  0  0  0  0  0  0  0  0
    5.9933   -2.0808    1.3561 H   0  0  0  0  0  0  0  0  0  0  0  0
  1  2  1  0
  2  3  1  0
  3  4  2  0
  4  5  1  0
  5  6  2  0
  6  7  1  0
  7  8  1  0
  8  9  1  0
  9 10  2  0
 10 11  1  0
 11 12  1  0
 12 13  1  0
 13 14  2  0
 14 15  1  0
 15 16  2  0
 16 17  1  0
 17 18  1  0
 17 19  2  0
 19 20  1  0
 11 21  2  0
 21 22  1  0
 22 23  2  0
 23 24  1  0
 24 25  1  0
 24 26  1  0
 26 27  2  0
  6 28  1  0
 28 29  2  0
 29  3  1  0
 27  9  1  0
 19 13  1  0
 26 21  1  0
  1 30  1  0
  1 31  1  0
  1 32  1  0
  4 33  1  0
  5 34  1  0
  7 35  1  0
  7 36  1  0
  8 37  1  0
 12 38  1  0
 14 39  1  0
 15 40  1  0
 16 41  1  0
 20 42  1  0
 20 43  1  0
 20 44  1  0
 22 45  1  0
 25 46  1  0
 25 47  1  0
 25 48  1  0
 28 49  1  0
 29 50  1  0
M  END
>  <ScrubInfo>  (1) 
{"isomerGroup": 0, "isomerId": 0, "confId": 0, "nr_conformers:": 1, "nr_isomers:": 9}

$$$$
_i1
     RDKit          3D

 50 53  0  0  0  0  0  0  0  0999 V2000
   -0.8647   -0.3462    1.7804 N   0  0  0  0  0  0  0  0  0  0  0  0
   -1.9441   -0.1710    0.9340 C   0  0  0  0  0  0  0  0  0  0  0  0
   -2.9709    0.6597    1.3624 N   0  0  0  0  0  0  0  0  0  0  0  0
   -4.1466    0.9768    0.6478 C   0  0  0  0  0  0  0  0  0  0  0  0
   -5.3402    0.3269    1.0065 C   0  0  0  0  0  0  0  0  0  0  0  0
   -6.5171    0.5459    0.2948 C   0  0  0  0  0  0  0  0  0  0  0  0
   -6.5119    1.4106   -0.7942 C   0  0  0  0  0  0  0  0  0  0  0  0
   -5.3338    2.0644   -1.1657 C   0  0  0  0  0  0  0  0  0  0  0  0
   -5.4084    3.1003   -2.5492 Cl  0  0  0  0  0  0  0  0  0  0  0  0
   -4.1376    1.8714   -0.4466 C   0  0  0  0  0  0  0  0  0  0  0  0
   -2.8789    2.5969   -0.8514 C   0  0  0  0  0  0  0  0  0  0  0  0
   -1.8795   -0.8607   -0.2157 C   0  0  0  0  0  0  0  0  0  0  0  0
   -2.6992   -1.1292   -1.4080 C   0  0  0  0  0  0  0  0  0  0  0  0
   -2.1389   -1.9613   -2.2506 N   0  0  0  0  0  0  0  0  0  0  0  0
   -0.8902   -2.2642   -1.6989 N   0  0  0  0  0  0  0  0  0  0  0  0
   -0.1336   -3.3666   -2.2397 C   0  0  0  0  0  0  0  0  0  0  0  0
   -0.6705   -1.6901   -0.4584 C   0  0  0  0  0  0  0  0  0  0  0  0
    0.3329   -1.8231    0.3411 N   0  0  0  0  0  0  0  0  0  0  0  0
    0.2549   -1.0826    1.4953 C   0  0  0  0  0  0  0  0  0  0  0  0
    1.2336   -1.0515    2.3360 N   0  0  0  0  0  0  0  0  0  0  0  0
    2.4428   -1.8126    2.0260 C   0  0  0  0  0  0  0  0  0  0  0  0
    3.5000   -0.9529    1.3752 C   0  0  0  0  0  0  0  0  0  0  0  0
    4.2727   -0.0726    2.1434 C   0  0  0  0  0  0  0  0  0  0  0  0
    5.2429    0.7385    1.5435 C   0  0  0  0  0  0  0  0  0  0  0  0
    5.4458    0.6855    0.1645 C   0  0  0  0  0  0  0  0  0  0  0  0
    6.3559    1.4208   -0.5447 O   0  0  0  0  0  0  0  0  0  0  0  0
    7.1709    2.3189    0.1970 C   0  0  0  0  0  0  0  0  0  0  0  0
    4.6669   -0.1806   -0.6060 C   0  0  0  0  0  0  0  0  0  0  0  0
    3.6983   -0.9910   -0.0090 C   0  0  0  0  0  0  0  0  0  0  0  0
   -0.7774    0.2778    2.5684 H   0  0  0  0  0  0  0  0  0  0  0  0
   -3.1497    0.5252    2.3550 H   0  0  0  0  0  0  0  0  0  0  0  0
   -5.3547   -0.3722    1.8402 H   0  0  0  0  0  0  0  0  0  0  0  0
   -7.4330    0.0347    0.5811 H   0  0  0  0  0  0  0  0  0  0  0  0
   -7.4295    1.5708   -1.3556 H   0  0  0  0  0  0  0  0  0  0  0  0
   -2.1195    2.5873   -0.0642 H   0  0  0  0  0  0  0  0  0  0  0  0
   -3.0844    3.6542   -1.0490 H   0  0  0  0  0  0  0  0  0  0  0  0
   -2.4519    2.1367   -1.7479 H   0  0  0  0  0  0  0  0  0  0  0  0
   -3.6939   -0.6917   -1.5383 H   0  0  0  0  0  0  0  0  0  0  0  0
    0.9373   -3.2324   -2.0566 H   0  0  0  0  0  0  0  0  0  0  0  0
   -0.4505   -4.3077   -1.7798 H   0  0  0  0  0  0  0  0  0  0  0  0
   -0.2791   -3.4439   -3.3221 H   0  0  0  0  0  0  0  0  0  0  0  0
    2.2556   -2.7148    1.4300 H   0  0  0  0  0  0  0  0  0  0  0  0
    2.8469   -2.1986    2.9709 H   0  0  0  0  0  0  0  0  0  0  0  0
    4.1139   -0.0118    3.2178 H   0  0  0  0  0  0  0  0  0  0  0  0
    5.8159    1.4013    2.1822 H   0  0  0  0  0  0  0  0  0  0  0  0
    6.5655    3.0872    0.6892 H   0  0  0  0  0  0  0  0  0  0  0  0
    7.7940    1.7820    0.9200 H   0  0  0  0  0  0  0  0  0  0  0  0
    7.8392    2.8233   -0.5076 H   0  0  0  0  0  0  0  0  0  0  0  0
    4.8113   -0.2211   -1.6825 H   0  0  0  0  0  0  0  0  0  0  0  0
    3.0926   -1.6469   -0.6301 H   0  0  0  0  0  0  0  0  0  0  0  0
  1  2  1  0
  2  3  1  0
  3  4  1  0
  4  5  2  0
  5  6  1  0
  6  7  2  0
  7  8  1  0
  8  9  1  0
  8 10  2  0
 10 11  1  0
  2 12  2  0
 12 13  1  0
 13 14  2  0
 14 15  1  0
 15 16  1  0
 15 17  1  0
 17 18  2  0
 18 19  1  0
 19 20  2  3
 20 21  1  0
 21 22  1  0
 22 23  2  0
 23 24  1  0
 24 25  2  0
 25 26  1  0
 26 27  1  0
 25 28  1  0
 28 29  2  0
 19  1  1  0
 29 22  1  0
 10  4  1  0
 17 12  1  0
  1 30  1  0
  3 31  1  0
  5 32  1  0
  6 33  1  0
  7 34  1  0
 11 35  1  0
 11 36  1  0
 11 37  1  0
 13 38  1  0
 16 39  1  0
 16 40  1  0
 16 41  1  0
 21 42  1  0
 21 43  1  0
 23 44  1  0
 24 45  1  0
 27 46  1  0
 27 47  1  0
 27 48  1  0
 28 49  1  0
 29 50  1  0
M  END
>  <ScrubInfo>  (2) 
{"isomerGroup": 0, "isomerId": 1, "confId": 0, "nr_conformers:": 1, "nr_isomers:": 9}

$$$$
_i2
     RDKit          3D

 50 53  0  0  0  0  0  0  0  0999 V2000
   -0.6918    0.5462    0.3543 N   0  0  0  0  0  0  0  0  0  0  0  0
    0.3415    0.5824   -0.5474 C   0  0  0  0  0  0  0  0  0  0  0  0
    1.5949    0.7086   -0.0230 N   0  0  0  0  0  0  0  0  0  0  0  0
    2.0746   -0.1721    1.0283 C   0  0  0  0  0  0  0  0  0  0  0  0
    3.5450    0.0715    1.2594 C   0  0  0  0  0  0  0  0  0  0  0  0
    4.5043   -0.8418    0.8015 C   0  0  0  0  0  0  0  0  0  0  0  0
    5.8695   -0.6078    1.0060 C   0  0  0  0  0  0  0  0  0  0  0  0
    6.2935    0.5454    1.6658 C   0  0  0  0  0  0  0  0  0  0  0  0
    7.5895    0.8929    1.9290 O   0  0  0  0  0  0  0  0  0  0  0  0
    8.5993   -0.0047    1.4858 C   0  0  0  0  0  0  0  0  0  0  0  0
    5.3409    1.4619    2.1152 C   0  0  0  0  0  0  0  0  0  0  0  0
    3.9781    1.2320    1.9131 C   0  0  0  0  0  0  0  0  0  0  0  0
    0.1846    0.5159   -1.8450 N   0  0  0  0  0  0  0  0  0  0  0  0
   -1.1296    0.3847   -2.1837 C   0  0  0  0  0  0  0  0  0  0  0  0
   -2.2371    0.3412   -1.3493 C   0  0  0  0  0  0  0  0  0  0  0  0
   -3.3252    0.1841   -2.2254 C   0  0  0  0  0  0  0  0  0  0  0  0
   -2.9537    0.1342   -3.5109 N   0  0  0  0  0  0  0  0  0  0  0  0
   -1.6089    0.2654   -3.4579 N   0  0  0  0  0  0  0  0  0  0  0  0
   -0.8504    0.2599   -4.6833 C   0  0  0  0  0  0  0  0  0  0  0  0
   -2.0374    0.4575    0.0820 C   0  0  0  0  0  0  0  0  0  0  0  0
   -2.9246    0.4916    1.0297 N   0  0  0  0  0  0  0  0  0  0  0  0
   -4.2972    0.4173    0.7679 C   0  0  0  0  0  0  0  0  0  0  0  0
   -4.9959    1.6129    0.5456 C   0  0  0  0  0  0  0  0  0  0  0  0
   -6.3662    1.6053    0.2987 C   0  0  0  0  0  0  0  0  0  0  0  0
   -7.0533    0.3960    0.2844 C   0  0  0  0  0  0  0  0  0  0  0  0
   -6.3731   -0.8007    0.5309 C   0  0  0  0  0  0  0  0  0  0  0  0
   -7.2982   -2.2621    0.4886 Cl  0  0  0  0  0  0  0  0  0  0  0  0
   -4.9908   -0.8092    0.7950 C   0  0  0  0  0  0  0  0  0  0  0  0
   -4.2657   -2.1013    1.0617 C   0  0  0  0  0  0  0  0  0  0  0  0
   -0.4821    0.7713    1.3126 H   0  0  0  0  0  0  0  0  0  0  0  0
    2.2670    0.7500   -0.7874 H   0  0  0  0  0  0  0  0  0  0  0  0
    1.9037   -1.2189    0.7489 H   0  0  0  0  0  0  0  0  0  0  0  0
    1.5326    0.0045    1.9647 H   0  0  0  0  0  0  0  0  0  0  0  0
    4.1988   -1.7463    0.2790 H   0  0  0  0  0  0  0  0  0  0  0  0
    6.5740   -1.3452    0.6357 H   0  0  0  0  0  0  0  0  0  0  0  0
    8.5873   -0.1053    0.3954 H   0  0  0  0  0  0  0  0  0  0  0  0
    9.5686    0.4156    1.7705 H   0  0  0  0  0  0  0  0  0  0  0  0
    8.5028   -0.9799    1.9745 H   0  0  0  0  0  0  0  0  0  0  0  0
    5.6642    2.3669    2.6244 H   0  0  0  0  0  0  0  0  0  0  0  0
    3.2574    1.9684    2.2625 H   0  0  0  0  0  0  0  0  0  0  0  0
   -4.3798    0.1010   -2.0038 H   0  0  0  0  0  0  0  0  0  0  0  0
   -1.2443    1.0431   -5.3362 H   0  0  0  0  0  0  0  0  0  0  0  0
   -0.9642   -0.7208   -5.1520 H   0  0  0  0  0  0  0  0  0  0  0  0
    0.2042    0.4519   -4.4747 H   0  0  0  0  0  0  0  0  0  0  0  0
   -4.4584    2.5583    0.5618 H   0  0  0  0  0  0  0  0  0  0  0  0
   -6.8938    2.5381    0.1178 H   0  0  0  0  0  0  0  0  0  0  0  0
   -8.1223    0.3895    0.0848 H   0  0  0  0  0  0  0  0  0  0  0  0
   -3.2502   -1.9449    1.4370 H   0  0  0  0  0  0  0  0  0  0  0  0
   -4.1957   -2.6881    0.1402 H   0  0  0  0  0  0  0  0  0  0  0  0
   -4.7864   -2.6855    1.8276 H   0  0  0  0  0  0  0  0  0  0  0  0
  1  2  1  0
  2  3  1  0
  3  4  1  0
  4  5  1  0
  5  6  2  0
  6  7  1  0
  7  8  2  0
  8  9  1  0
  9 10  1  0
  8 11  1  0
 11 12  2  0
  2 13  2  0
 13 14  1  0
 14 15  2  0
 15 16  1  0
 16 17  2  0
 17 18  1  0
 18 19  1  0
 15 20  1  0
 20 21  2  3
 21 22  1  0
 22 23  2  0
 23 24  1  0
 24 25  2  0
 25 26  1  0
 26 27  1  0
 26 28  2  0
 28 29  1  0
 20  1  1  0
 28 22  1  0
 12  5  1  0
 18 14  1  0
  1 30  1  0
  3 31  1  0
  4 32  1  0
  4 33  1  0
  6 34  1  0
  7 35  1  0
 10 36  1  0
 10 37  1  0
 10 38  1  0
 11 39  1  0
 12 40  1  0
 16 41  1  0
 19 42  1  0
 19 43  1  0
 19 44  1  0
 23 45  1  0
 24 46  1  0
 25 47  1  0
 29 48  1  0
 29 49  1  0
 29 50  1  0
M  END
>  <ScrubInfo>  (3) 
{"isomerGroup": 0, "isomerId": 2, "confId": 0, "nr_conformers:": 1, "nr_isomers:": 9}

$$$$
_i3
     RDKit          3D

 50 53  0  0  0  0  0  0  0  0999 V2000
    0.4431   -1.4403   -0.6355 N   0  0  0  0  0  0  0  0  0  0  0  0
    0.0872   -0.2278   -1.2008 C   0  0  0  0  0  0  0  0  0  0  0  0
    0.7800    0.4635   -2.0342 N   0  0  0  0  0  0  0  0  0  0  0  0
    2.0610   -0.0337   -2.5265 C   0  0  0  0  0  0  0  0  0  0  0  0
    3.1636   -0.1066   -1.4939 C   0  0  0  0  0  0  0  0  0  0  0  0
    4.1099   -1.1373   -1.5465 C   0  0  0  0  0  0  0  0  0  0  0  0
    5.1275   -1.2100   -0.5922 C   0  0  0  0  0  0  0  0  0  0  0  0
    5.2279   -0.2521    0.4191 C   0  0  0  0  0  0  0  0  0  0  0  0
    6.2656   -0.4458    1.2885 O   0  0  0  0  0  0  0  0  0  0  0  0
    6.4369    0.5299    2.3090 C   0  0  0  0  0  0  0  0  0  0  0  0
    4.3018    0.7890    0.4640 C   0  0  0  0  0  0  0  0  0  0  0  0
    3.2817    0.8641   -0.4907 C   0  0  0  0  0  0  0  0  0  0  0  0
   -1.1198    0.3751   -0.8858 N   0  0  0  0  0  0  0  0  0  0  0  0
   -1.9289   -0.1540   -0.0159 C   0  0  0  0  0  0  0  0  0  0  0  0
   -3.1556    0.3146    0.3933 N   0  0  0  0  0  0  0  0  0  0  0  0
   -3.7793    1.5530    0.1059 C   0  0  0  0  0  0  0  0  0  0  0  0
   -3.0726    2.6216   -0.4709 C   0  0  0  0  0  0  0  0  0  0  0  0
   -3.6871    3.8418   -0.7532 C   0  0  0  0  0  0  0  0  0  0  0  0
   -5.0320    4.0199   -0.4647 C   0  0  0  0  0  0  0  0  0  0  0  0
   -5.7692    2.9707    0.0851 C   0  0  0  0  0  0  0  0  0  0  0  0
   -7.4344    3.2930    0.4344 Cl  0  0  0  0  0  0  0  0  0  0  0  0
   -5.1719    1.7179    0.3473 C   0  0  0  0  0  0  0  0  0  0  0  0
   -5.9915    0.5833    0.9144 C   0  0  0  0  0  0  0  0  0  0  0  0
   -1.5602   -1.4013    0.6299 C   0  0  0  0  0  0  0  0  0  0  0  0
   -2.0879   -2.2705    1.5999 C   0  0  0  0  0  0  0  0  0  0  0  0
   -1.2850   -3.3171    1.8440 N   0  0  0  0  0  0  0  0  0  0  0  0
   -0.2267   -3.1127    1.0217 N   0  0  0  0  0  0  0  0  0  0  0  0
    0.8640   -4.0542    1.0320 C   0  0  0  0  0  0  0  0  0  0  0  0
   -0.3732   -1.9839    0.2807 C   0  0  0  0  0  0  0  0  0  0  0  0
    1.3751   -1.7803   -0.8220 H   0  0  0  0  0  0  0  0  0  0  0  0
    1.9134   -1.0135   -2.9989 H   0  0  0  0  0  0  0  0  0  0  0  0
    2.4011    0.6371   -3.3247 H   0  0  0  0  0  0  0  0  0  0  0  0
    4.0681   -1.8888   -2.3318 H   0  0  0  0  0  0  0  0  0  0  0  0
    5.8565   -2.0155   -0.6413 H   0  0  0  0  0  0  0  0  0  0  0  0
    5.5721    0.5543    2.9803 H   0  0  0  0  0  0  0  0  0  0  0  0
    6.6351    1.5185    1.8818 H   0  0  0  0  0  0  0  0  0  0  0  0
    7.3103    0.2428    2.9024 H   0  0  0  0  0  0  0  0  0  0  0  0
    4.3419    1.5614    1.2246 H   0  0  0  0  0  0  0  0  0  0  0  0
    2.5682    1.6863   -0.4452 H   0  0  0  0  0  0  0  0  0  0  0  0
   -3.6557   -0.2347    1.0746 H   0  0  0  0  0  0  0  0  0  0  0  0
   -2.0119    2.5382   -0.6954 H   0  0  0  0  0  0  0  0  0  0  0  0
   -3.1069    4.6504   -1.1905 H   0  0  0  0  0  0  0  0  0  0  0  0
   -5.5021    4.9777   -0.6727 H   0  0  0  0  0  0  0  0  0  0  0  0
   -5.6881   -0.3763    0.4824 H   0  0  0  0  0  0  0  0  0  0  0  0
   -7.0561    0.6721    0.6825 H   0  0  0  0  0  0  0  0  0  0  0  0
   -5.8708    0.5440    2.0014 H   0  0  0  0  0  0  0  0  0  0  0  0
   -3.0152   -2.2009    2.1524 H   0  0  0  0  0  0  0  0  0  0  0  0
    1.5967   -3.7855    0.2683 H   0  0  0  0  0  0  0  0  0  0  0  0
    1.3301   -4.0281    2.0202 H   0  0  0  0  0  0  0  0  0  0  0  0
    0.4632   -5.0496    0.8241 H   0  0  0  0  0  0  0  0  0  0  0  0
  1  2  1  0
  2  3  2  3
  3  4  1  0
  4  5  1  0
  5  6  2  0
  6  7  1  0
  7  8  2  0
  8  9  1  0
  9 10  1  0
  8 11  1  0
 11 12  2  0
  2 13  1  0
 13 14  2  0
 14 15  1  0
 15 16  1  0
 16 17  2  0
 17 18  1  0
 18 19  2  0
 19 20  1  0
 20 21  1  0
 20 22  2  0
 22 23  1  0
 14 24  1  0
 24 25  1  0
 25 26  2  0
 26 27  1  0
 27 28  1  0
 27 29  1  0
 29  1  1  0
 12  5  1  0
 22 16  1  0
 29 24  2  0
  1 30  1  0
  4 31  1  0
  4 32  1  0
  6 33  1  0
  7 34  1  0
 10 35  1  0
 10 36  1  0
 10 37  1  0
 11 38  1  0
 12 39  1  0
 15 40  1  0
 17 41  1  0
 18 42  1  0
 19 43  1  0
 23 44  1  0
 23 45  1  0
 23 46  1  0
 25 47  1  0
 28 48  1  0
 28 49  1  0
 28 50  1  0
M  END
>  <ScrubInfo>  (4) 
{"isomerGroup": 0, "isomerId": 3, "confId": 0, "nr_conformers:": 1, "nr_isomers:": 9}

$$$$
_i4
     RDKit          3D

 50 53  0  0  0  0  0  0  0  0999 V2000
   -3.5399   -2.6375    0.9797 N   0  0  0  0  0  0  0  0  0  0  0  0
   -3.6309   -1.2915    0.6412 C   0  0  0  0  0  0  0  0  0  0  0  0
   -2.4383   -0.7039    0.4586 C   0  0  0  0  0  0  0  0  0  0  0  0
   -1.8881    0.6046    0.1294 C   0  0  0  0  0  0  0  0  0  0  0  0
   -2.4752    1.7074   -0.1993 N   0  0  0  0  0  0  0  0  0  0  0  0
   -3.8701    1.7790   -0.2858 C   0  0  0  0  0  0  0  0  0  0  0  0
   -4.5801    2.2040    0.8462 C   0  0  0  0  0  0  0  0  0  0  0  0
   -5.9691    2.2966    0.8267 C   0  0  0  0  0  0  0  0  0  0  0  0
   -6.6609    1.9690   -0.3348 C   0  0  0  0  0  0  0  0  0  0  0  0
   -5.9627    1.5689   -1.4788 C   0  0  0  0  0  0  0  0  0  0  0  0
   -6.8981    1.1610   -2.8757 Cl  0  0  0  0  0  0  0  0  0  0  0  0
   -4.5579    1.4904   -1.4816 C   0  0  0  0  0  0  0  0  0  0  0  0
   -3.8083    1.0733   -2.7191 C   0  0  0  0  0  0  0  0  0  0  0  0
   -0.5209    0.6583    0.1770 N   0  0  0  0  0  0  0  0  0  0  0  0
    0.2278   -0.3730    0.4211 C   0  0  0  0  0  0  0  0  0  0  0  0
    1.5835   -0.2495    0.4617 N   0  0  0  0  0  0  0  0  0  0  0  0
    2.2700    0.8757   -0.1248 C   0  0  0  0  0  0  0  0  0  0  0  0
    3.7602    0.6913    0.0338 C   0  0  0  0  0  0  0  0  0  0  0  0
    4.3753    0.9253    1.2700 C   0  0  0  0  0  0  0  0  0  0  0  0
    5.7508    0.7358    1.4216 C   0  0  0  0  0  0  0  0  0  0  0  0
    6.5340    0.3057    0.3485 C   0  0  0  0  0  0  0  0  0  0  0  0
    7.8638    0.1609    0.6331 O   0  0  0  0  0  0  0  0  0  0  0  0
    8.7071   -0.2577   -0.4322 C   0  0  0  0  0  0  0  0  0  0  0  0
    5.9260    0.0613   -0.8829 C   0  0  0  0  0  0  0  0  0  0  0  0
    4.5474    0.2496   -1.0382 C   0  0  0  0  0  0  0  0  0  0  0  0
   -0.2256   -1.6442    0.6458 N   0  0  0  0  0  0  0  0  0  0  0  0
   -1.5001   -1.8232    0.6648 C   0  0  0  0  0  0  0  0  0  0  0  0
   -2.2069   -3.0081    0.8765 N   0  0  0  0  0  0  0  0  0  0  0  0
   -1.6908   -4.0340    1.7630 C   0  0  0  0  0  0  0  0  0  0  0  0
   -4.2121   -3.2271    0.4830 H   0  0  0  0  0  0  0  0  0  0  0  0
   -4.6141   -0.8540    0.5526 H   0  0  0  0  0  0  0  0  0  0  0  0
   -4.0338    2.4659    1.7500 H   0  0  0  0  0  0  0  0  0  0  0  0
   -6.5065    2.6248    1.7124 H   0  0  0  0  0  0  0  0  0  0  0  0
   -7.7462    2.0352   -0.3482 H   0  0  0  0  0  0  0  0  0  0  0  0
   -2.7377    1.2883   -2.6532 H   0  0  0  0  0  0  0  0  0  0  0  0
   -4.1716    1.6193   -3.5959 H   0  0  0  0  0  0  0  0  0  0  0  0
   -3.9286   -0.0021   -2.8844 H   0  0  0  0  0  0  0  0  0  0  0  0
    2.0639   -1.1380    0.4071 H   0  0  0  0  0  0  0  0  0  0  0  0
    1.9696    1.8130    0.3593 H   0  0  0  0  0  0  0  0  0  0  0  0
    2.0160    0.9653   -1.1881 H   0  0  0  0  0  0  0  0  0  0  0  0
    3.7832    1.2521    2.1226 H   0  0  0  0  0  0  0  0  0  0  0  0
    6.2158    0.9231    2.3865 H   0  0  0  0  0  0  0  0  0  0  0  0
    8.4294   -1.2559   -0.7864 H   0  0  0  0  0  0  0  0  0  0  0  0
    9.7297   -0.3143   -0.0467 H   0  0  0  0  0  0  0  0  0  0  0  0
    8.7001    0.4693   -1.2511 H   0  0  0  0  0  0  0  0  0  0  0  0
    6.4933   -0.2783   -1.7428 H   0  0  0  0  0  0  0  0  0  0  0  0
    4.0925    0.0484   -2.0061 H   0  0  0  0  0  0  0  0  0  0  0  0
   -1.6423   -3.6690    2.7943 H   0  0  0  0  0  0  0  0  0  0  0  0
   -2.3351   -4.9188    1.7370 H   0  0  0  0  0  0  0  0  0  0  0  0
   -0.6875   -4.3425    1.4525 H   0  0  0  0  0  0  0  0  0  0  0  0
  1  2  1  0
  2  3  2  0
  3  4  1  0
  4  5  2  3
  5  6  1  0
  6  7  2  0
  7  8  1  0
  8  9  2  0
  9 10  1  0
 10 11  1  0
 10 12  2  0
 12 13  1  0
  4 14  1  0
 14 15  2  0
 15 16  1  0
 16 17  1  0
 17 18  1  0
 18 19  2  0
 19 20  1  0
 20 21  2  0
 21 22  1  0
 22 23  1  0
 21 24  1  0
 24 25  2  0
 15 26  1  0
 26 27  2  0
 27 28  1  0
 28 29  1  0
 28  1  1  0
 27  3  1  0
 12  6  1  0
 25 18  1  0
  1 30  1  0
  2 31  1  0
  7 32  1  0
  8 33  1  0
  9 34  1  0
 13 35  1  0
 13 36  1  0
 13 37  1  0
 16 38  1  0
 17 39  1  0
 17 40  1  0
 19 41  1  0
 20 42  1  0
 23 43  1  0
 23 44  1  0
 23 45  1  0
 24 46  1  0
 25 47  1  0
 29 48  1  0
 29 49  1  0
 29 50  1  0
M  END
>  <ScrubInfo>  (5) 
{"isomerGroup": 0, "isomerId": 4, "confId": 0, "nr_conformers:": 1, "nr_isomers:": 9}

$$$$
_i5
     RDKit          3D

 50 53  0  0  0  0  0  0  0  0999 V2000
   -0.3200   -2.4483   -0.3280 N   0  0  0  0  0  0  0  0  0  0  0  0
   -0.3740   -1.1113   -0.0027 C   0  0  0  0  0  0  0  0  0  0  0  0
    0.7814   -0.4176   -0.2146 N   0  0  0  0  0  0  0  0  0  0  0  0
    2.0328   -0.8456    0.3902 C   0  0  0  0  0  0  0  0  0  0  0  0
    3.1081    0.1763    0.1148 C   0  0  0  0  0  0  0  0  0  0  0  0
    3.5386    0.4231   -1.1971 C   0  0  0  0  0  0  0  0  0  0  0  0
    4.5354    1.3699   -1.4592 C   0  0  0  0  0  0  0  0  0  0  0  0
    5.1162    2.0838   -0.4119 C   0  0  0  0  0  0  0  0  0  0  0  0
    6.0951    3.0315   -0.5277 O   0  0  0  0  0  0  0  0  0  0  0  0
    6.5374    3.3414   -1.8431 C   0  0  0  0  0  0  0  0  0  0  0  0
    4.6898    1.8421    0.8958 C   0  0  0  0  0  0  0  0  0  0  0  0
    3.6935    0.8989    1.1610 C   0  0  0  0  0  0  0  0  0  0  0  0
   -1.4172   -0.4820    0.4642 N   0  0  0  0  0  0  0  0  0  0  0  0
   -2.5955   -1.1881    0.6715 C   0  0  0  0  0  0  0  0  0  0  0  0
   -3.6821   -0.6710    1.1503 N   0  0  0  0  0  0  0  0  0  0  0  0
   -3.6714    0.6925    1.4888 C   0  0  0  0  0  0  0  0  0  0  0  0
   -3.3708    1.0417    2.8136 C   0  0  0  0  0  0  0  0  0  0  0  0
   -3.3488    2.3744    3.2164 C   0  0  0  0  0  0  0  0  0  0  0  0
   -3.6328    3.3735    2.2916 C   0  0  0  0  0  0  0  0  0  0  0  0
   -3.9520    3.0381    0.9717 C   0  0  0  0  0  0  0  0  0  0  0  0
   -4.2764    4.3423   -0.1193 Cl  0  0  0  0  0  0  0  0  0  0  0  0
   -3.9996    1.6954    0.5542 C   0  0  0  0  0  0  0  0  0  0  0  0
   -4.3420    1.3380   -0.8671 C   0  0  0  0  0  0  0  0  0  0  0  0
   -2.5945   -2.5838    0.3165 C   0  0  0  0  0  0  0  0  0  0  0  0
   -3.5330   -3.6239    0.3197 C   0  0  0  0  0  0  0  0  0  0  0  0
   -3.0183   -4.7735   -0.1485 N   0  0  0  0  0  0  0  0  0  0  0  0
   -1.7358   -4.4541   -0.4543 N   0  0  0  0  0  0  0  0  0  0  0  0
   -0.8704   -5.4717   -0.9928 C   0  0  0  0  0  0  0  0  0  0  0  0
   -1.4541   -3.1545   -0.1766 C   0  0  0  0  0  0  0  0  0  0  0  0
    0.4618   -2.7564   -0.8900 H   0  0  0  0  0  0  0  0  0  0  0  0
    0.6085    0.5617    0.0112 H   0  0  0  0  0  0  0  0  0  0  0  0
    2.3549   -1.8117   -0.0157 H   0  0  0  0  0  0  0  0  0  0  0  0
    1.8964   -0.9747    1.4707 H   0  0  0  0  0  0  0  0  0  0  0  0
    3.0890   -0.1173   -2.0282 H   0  0  0  0  0  0  0  0  0  0  0  0
    4.8309    1.5263   -2.4912 H   0  0  0  0  0  0  0  0  0  0  0  0
    7.3022    4.1200   -1.7639 H   0  0  0  0  0  0  0  0  0  0  0  0
    6.9980    2.4697   -2.3198 H   0  0  0  0  0  0  0  0  0  0  0  0
    5.7189    3.7394   -2.4520 H   0  0  0  0  0  0  0  0  0  0  0  0
    5.1371    2.3979    1.7167 H   0  0  0  0  0  0  0  0  0  0  0  0
    3.3812    0.7398    2.1908 H   0  0  0  0  0  0  0  0  0  0  0  0
   -3.1457    0.2574    3.5320 H   0  0  0  0  0  0  0  0  0  0  0  0
   -3.1073    2.6298    4.2442 H   0  0  0  0  0  0  0  0  0  0  0  0
   -3.6059    4.4148    2.6026 H   0  0  0  0  0  0  0  0  0  0  0  0
   -4.5926    0.2793   -0.9835 H   0  0  0  0  0  0  0  0  0  0  0  0
   -3.4949    1.5613   -1.5234 H   0  0  0  0  0  0  0  0  0  0  0  0
   -5.2222    1.8930   -1.2079 H   0  0  0  0  0  0  0  0  0  0  0  0
   -4.5681   -3.5954    0.6355 H   0  0  0  0  0  0  0  0  0  0  0  0
    0.1409   -5.0763   -1.1098 H   0  0  0  0  0  0  0  0  0  0  0  0
   -0.8575   -6.3173   -0.3005 H   0  0  0  0  0  0  0  0  0  0  0  0
   -1.2648   -5.7787   -1.9647 H   0  0  0  0  0  0  0  0  0  0  0  0
  1  2  1  0
  2  3  1  0
  3  4  1  0
  4  5  1  0
  5  6  2  0
  6  7  1  0
  7  8  2  0
  8  9  1  0
  9 10  1  0
  8 11  1  0
 11 12  2  0
  2 13  2  0
 13 14  1  0
 14 15  2  3
 15 16  1  0
 16 17  2  0
 17 18  1  0
 18 19  2  0
 19 20  1  0
 20 21  1  0
 20 22  2  0
 22 23  1  0
 14 24  1  0
 24 25  1  0
 25 26  2  0
 26 27  1  0
 27 28  1  0
 27 29  1  0
 29  1  1  0
 12  5  1  0
 22 16  1  0
 29 24  2  0
  1 30  1  0
  3 31  1  0
  4 32  1  0
  4 33  1  0
  6 34  1  0
  7 35  1  0
 10 36  1  0
 10 37  1  0
 10 38  1  0
 11 39  1  0
 12 40  1  0
 17 41  1  0
 18 42  1  0
 19 43  1  0
 23 44  1  0
 23 45  1  0
 23 46  1  0
 25 47  1  0
 28 48  1  0
 28 49  1  0
 28 50  1  0
M  END
>  <ScrubInfo>  (6) 
{"isomerGroup": 0, "isomerId": 5, "confId": 0, "nr_conformers:": 1, "nr_isomers:": 9}

$$$$
_i6
     RDKit          3D

 50 53  0  0  0  0  0  0  0  0999 V2000
   -3.6761   -2.4029    1.6191 N   0  0  0  0  0  0  0  0  0  0  0  0
   -3.6439   -1.5656    0.5090 C   0  0  0  0  0  0  0  0  0  0  0  0
   -2.4160   -1.1034    0.2367 C   0  0  0  0  0  0  0  0  0  0  0  0
   -1.7460   -0.2523   -0.7457 C   0  0  0  0  0  0  0  0  0  0  0  0
   -2.3934    0.4153   -1.7662 N   0  0  0  0  0  0  0  0  0  0  0  0
   -3.6643    1.0185   -1.6156 C   0  0  0  0  0  0  0  0  0  0  0  0
   -4.6480    0.6581   -2.5524 C   0  0  0  0  0  0  0  0  0  0  0  0
   -5.9281    1.2011   -2.4960 C   0  0  0  0  0  0  0  0  0  0  0  0
   -6.2360    2.1259   -1.5055 C   0  0  0  0  0  0  0  0  0  0  0  0
   -5.2565    2.5304   -0.5932 C   0  0  0  0  0  0  0  0  0  0  0  0
   -5.7362    3.6759    0.6120 Cl  0  0  0  0  0  0  0  0  0  0  0  0
   -3.9444    2.0180   -0.6564 C   0  0  0  0  0  0  0  0  0  0  0  0
   -2.8872    2.5009    0.3045 C   0  0  0  0  0  0  0  0  0  0  0  0
   -0.4486   -0.1218   -0.6695 N   0  0  0  0  0  0  0  0  0  0  0  0
    0.2326   -0.7820    0.3346 C   0  0  0  0  0  0  0  0  0  0  0  0
    1.5159   -0.7213    0.3745 N   0  0  0  0  0  0  0  0  0  0  0  0
    2.1846    0.0541   -0.6688 C   0  0  0  0  0  0  0  0  0  0  0  0
    3.6918    0.0672   -0.5124 C   0  0  0  0  0  0  0  0  0  0  0  0
    4.2986   -0.0037    0.7487 C   0  0  0  0  0  0  0  0  0  0  0  0
    5.6912    0.0504    0.8826 C   0  0  0  0  0  0  0  0  0  0  0  0
    6.4991    0.1886   -0.2451 C   0  0  0  0  0  0  0  0  0  0  0  0
    7.8656    0.2555   -0.2545 O   0  0  0  0  0  0  0  0  0  0  0  0
    8.5190    0.1399    1.0029 C   0  0  0  0  0  0  0  0  0  0  0  0
    5.9007    0.2757   -1.5035 C   0  0  0  0  0  0  0  0  0  0  0  0
    4.5106    0.2205   -1.6387 C   0  0  0  0  0  0  0  0  0  0  0  0
   -0.3176   -1.5237    1.3519 N   0  0  0  0  0  0  0  0  0  0  0  0
   -1.5941   -1.6826    1.3205 C   0  0  0  0  0  0  0  0  0  0  0  0
   -2.4153   -2.3811    2.2058 N   0  0  0  0  0  0  0  0  0  0  0  0
   -1.9317   -3.5653    2.8906 C   0  0  0  0  0  0  0  0  0  0  0  0
   -4.4651   -2.2215    2.2440 H   0  0  0  0  0  0  0  0  0  0  0  0
   -4.5650   -1.3593   -0.0165 H   0  0  0  0  0  0  0  0  0  0  0  0
   -1.7517    1.0386   -2.2510 H   0  0  0  0  0  0  0  0  0  0  0  0
   -4.4164   -0.0749   -3.3237 H   0  0  0  0  0  0  0  0  0  0  0  0
   -6.6833    0.8981   -3.2167 H   0  0  0  0  0  0  0  0  0  0  0  0
   -7.2410    2.5382   -1.4520 H   0  0  0  0  0  0  0  0  0  0  0  0
   -3.0063    3.5641    0.5353 H   0  0  0  0  0  0  0  0  0  0  0  0
   -2.9322    1.9263    1.2345 H   0  0  0  0  0  0  0  0  0  0  0  0
   -1.8832    2.4155   -0.1215 H   0  0  0  0  0  0  0  0  0  0  0  0
    1.9470   -0.3744   -1.6512 H   0  0  0  0  0  0  0  0  0  0  0  0
    1.8501    1.0993   -0.6479 H   0  0  0  0  0  0  0  0  0  0  0  0
    3.6823   -0.1102    1.6399 H   0  0  0  0  0  0  0  0  0  0  0  0
    6.1056   -0.0177    1.8822 H   0  0  0  0  0  0  0  0  0  0  0  0
    8.2476    0.9677    1.6663 H   0  0  0  0  0  0  0  0  0  0  0  0
    8.3094   -0.8279    1.4705 H   0  0  0  0  0  0  0  0  0  0  0  0
    9.5973    0.1964    0.8254 H   0  0  0  0  0  0  0  0  0  0  0  0
    6.5228    0.3881   -2.3876 H   0  0  0  0  0  0  0  0  0  0  0  0
    4.0723    0.2957   -2.6307 H   0  0  0  0  0  0  0  0  0  0  0  0
   -1.7210   -4.3687    2.1771 H   0  0  0  0  0  0  0  0  0  0  0  0
   -2.6792   -3.9226    3.6062 H   0  0  0  0  0  0  0  0  0  0  0  0
   -1.0163   -3.3415    3.4477 H   0  0  0  0  0  0  0  0  0  0  0  0
  1  2  1  0
  2  3  2  0
  3  4  1  0
  4  5  1  0
  5  6  1  0
  6  7  2  0
  7  8  1  0
  8  9  2  0
  9 10  1  0
 10 11  1  0
 10 12  2  0
 12 13  1  0
  4 14  2  0
 14 15  1  0
 15 16  2  3
 16 17  1  0
 17 18  1  0
 18 19  2  0
 19 20  1  0
 20 21  2  0
 21 22  1  0
 22 23  1  0
 21 24  1  0
 24 25  2  0
 15 26  1  0
 26 27  2  0
 27 28  1  0
 28 29  1  0
 28  1  1  0
 27  3  1  0
 12  6  1  0
 25 18  1  0
  1 30  1  0
  2 31  1  0
  5 32  1  0
  7 33  1  0
  8 34  1  0
  9 35  1  0
 13 36  1  0
 13 37  1  0
 13 38  1  0
 17 39  1  0
 17 40  1  0
 19 41  1  0
 20 42  1  0
 23 43  1  0
 23 44  1  0
 23 45  1  0
 24 46  1  0
 25 47  1  0
 29 48  1  0
 29 49  1  0
 29 50  1  0
M  END
>  <ScrubInfo>  (7) 
{"isomerGroup": 0, "isomerId": 6, "confId": 0, "nr_conformers:": 1, "nr_isomers:": 9}

$$$$
_i7
     RDKit          3D

 50 53  0  0  0  0  0  0  0  0999 V2000
   -2.7842   -3.2677    0.3134 N   0  0  0  0  0  0  0  0  0  0  0  0
   -3.2244   -1.9625    0.1259 C   0  0  0  0  0  0  0  0  0  0  0  0
   -2.2288   -1.0715    0.0151 C   0  0  0  0  0  0  0  0  0  0  0  0
   -2.0171    0.3710   -0.2171 C   0  0  0  0  0  0  0  0  0  0  0  0
   -2.8951    1.3203   -0.3580 N   0  0  0  0  0  0  0  0  0  0  0  0
   -4.2676    1.0471   -0.2979 C   0  0  0  0  0  0  0  0  0  0  0  0
   -4.9395    0.7732   -1.4978 C   0  0  0  0  0  0  0  0  0  0  0  0
   -6.3043    0.4980   -1.5067 C   0  0  0  0  0  0  0  0  0  0  0  0
   -7.0117    0.5019   -0.3090 C   0  0  0  0  0  0  0  0  0  0  0  0
   -6.3580    0.7983    0.8914 C   0  0  0  0  0  0  0  0  0  0  0  0
   -7.3049    0.7643    2.3388 Cl  0  0  0  0  0  0  0  0  0  0  0  0
   -4.9833    1.0978    0.9150 C   0  0  0  0  0  0  0  0  0  0  0  0
   -4.2864    1.4271    2.2083 C   0  0  0  0  0  0  0  0  0  0  0  0
   -0.6890    0.6927   -0.2848 N   0  0  0  0  0  0  0  0  0  0  0  0
    0.3790   -0.1488   -0.1543 C   0  0  0  0  0  0  0  0  0  0  0  0
    1.5672    0.3433   -0.2767 N   0  0  0  0  0  0  0  0  0  0  0  0
    2.6870   -0.5899   -0.1321 C   0  0  0  0  0  0  0  0  0  0  0  0
    4.0153    0.1170   -0.2918 C   0  0  0  0  0  0  0  0  0  0  0  0
    4.3249    1.2346    0.4956 C   0  0  0  0  0  0  0  0  0  0  0  0
    5.5599    1.8813    0.3719 C   0  0  0  0  0  0  0  0  0  0  0  0
    6.5062    1.4149   -0.5398 C   0  0  0  0  0  0  0  0  0  0  0  0
    7.7461    1.9500   -0.7593 O   0  0  0  0  0  0  0  0  0  0  0  0
    8.0886    3.1027   -0.0008 C   0  0  0  0  0  0  0  0  0  0  0  0
    6.2048    0.2983   -1.3226 C   0  0  0  0  0  0  0  0  0  0  0  0
    4.9717   -0.3483   -1.2013 C   0  0  0  0  0  0  0  0  0  0  0  0
    0.2099   -1.4917    0.1086 N   0  0  0  0  0  0  0  0  0  0  0  0
   -1.0065   -1.9315    0.2057 C   0  0  0  0  0  0  0  0  0  0  0  0
   -1.4083   -3.2397    0.4853 N   0  0  0  0  0  0  0  0  0  0  0  0
   -0.6184   -4.3760    0.0505 C   0  0  0  0  0  0  0  0  0  0  0  0
   -3.3177   -3.7794    1.0204 H   0  0  0  0  0  0  0  0  0  0  0  0
   -4.2890   -1.7866    0.0859 H   0  0  0  0  0  0  0  0  0  0  0  0
   -4.3846    0.7765   -2.4334 H   0  0  0  0  0  0  0  0  0  0  0  0
   -6.8121    0.2837   -2.4434 H   0  0  0  0  0  0  0  0  0  0  0  0
   -8.0764    0.2809   -0.3151 H   0  0  0  0  0  0  0  0  0  0  0  0
   -3.2928    1.8574    2.0518 H   0  0  0  0  0  0  0  0  0  0  0  0
   -4.1713    0.5214    2.8123 H   0  0  0  0  0  0  0  0  0  0  0  0
   -4.8526    2.1735    2.7751 H   0  0  0  0  0  0  0  0  0  0  0  0
   -0.4597    1.6588   -0.4656 H   0  0  0  0  0  0  0  0  0  0  0  0
    2.6812   -1.0594    0.8602 H   0  0  0  0  0  0  0  0  0  0  0  0
    2.6113   -1.3836   -0.8864 H   0  0  0  0  0  0  0  0  0  0  0  0
    3.5929    1.6099    1.2079 H   0  0  0  0  0  0  0  0  0  0  0  0
    5.7460    2.7440    1.0018 H   0  0  0  0  0  0  0  0  0  0  0  0
    7.4096    3.9344   -0.2166 H   0  0  0  0  0  0  0  0  0  0  0  0
    8.1118    2.8778    1.0706 H   0  0  0  0  0  0  0  0  0  0  0  0
    9.0959    3.4107   -0.2975 H   0  0  0  0  0  0  0  0  0  0  0  0
    6.9373   -0.0715   -2.0356 H   0  0  0  0  0  0  0  0  0  0  0  0
    4.7647   -1.2146   -1.8245 H   0  0  0  0  0  0  0  0  0  0  0  0
   -1.0428   -5.3067    0.4410 H   0  0  0  0  0  0  0  0  0  0  0  0
    0.4086   -4.2966    0.4211 H   0  0  0  0  0  0  0  0  0  0  0  0
   -0.5934   -4.4366   -1.0425 H   0  0  0  0  0  0  0  0  0  0  0  0
  1  2  1  0
  2  3  2  0
  3  4  1  0
  4  5  2  3
  5  6  1  0
  6  7  2  0
  7  8  1  0
  8  9  2  0
  9 10  1  0
 10 11  1  0
 10 12  2  0
 12 13  1  0
  4 14  1  0
 14 15  1  0
 15 16  2  3
 16 17  1  0
 17 18  1  0
 18 19  2  0
 19 20  1  0
 20 21  2  0
 21 22  1  0
 22 23  1  0
 21 24  1  0
 24 25  2  0
 15 26  1  0
 26 27  2  0
 27 28  1  0
 28 29  1  0
 28  1  1  0
 27  3  1  0
 12  6  1  0
 25 18  1  0
  1 30  1  0
  2 31  1  0
  7 32  1  0
  8 33  1  0
  9 34  1  0
 13 35  1  0
 13 36  1  0
 13 37  1  0
 14 38  1  0
 17 39  1  0
 17 40  1  0
 19 41  1  0
 20 42  1  0
 23 43  1  0
 23 44  1  0
 23 45  1  0
 24 46  1  0
 25 47  1  0
 29 48  1  0
 29 49  1  0
 29 50  1  0
M  END
>  <ScrubInfo>  (8) 
{"isomerGroup": 0, "isomerId": 7, "confId": 0, "nr_conformers:": 1, "nr_isomers:": 9}

$$$$
_i8
     RDKit          3D

 50 53  0  0  0  0  0  0  0  0999 V2000
   -0.3308   -2.5057   -0.2934 N   0  0  0  0  0  0  0  0  0  0  0  0
   -0.1920   -1.1251   -0.2482 C   0  0  0  0  0  0  0  0  0  0  0  0
    0.8834   -0.4364   -0.0687 N   0  0  0  0  0  0  0  0  0  0  0  0
    2.1455   -1.1500    0.1115 C   0  0  0  0  0  0  0  0  0  0  0  0
    3.2981   -0.2037    0.3531 C   0  0  0  0  0  0  0  0  0  0  0  0
    4.5075   -0.3588   -0.3343 C   0  0  0  0  0  0  0  0  0  0  0  0
    5.5804    0.5003   -0.0802 C   0  0  0  0  0  0  0  0  0  0  0  0
    5.4693    1.5226    0.8644 C   0  0  0  0  0  0  0  0  0  0  0  0
    6.5928    2.2883    1.0136 O   0  0  0  0  0  0  0  0  0  0  0  0
    6.5177    3.3613    1.9437 C   0  0  0  0  0  0  0  0  0  0  0  0
    4.2707    1.6783    1.5591 C   0  0  0  0  0  0  0  0  0  0  0  0
    3.1954    0.8185    1.3069 C   0  0  0  0  0  0  0  0  0  0  0  0
   -1.3799   -0.4413   -0.4213 N   0  0  0  0  0  0  0  0  0  0  0  0
   -2.6674   -0.8949   -0.6272 C   0  0  0  0  0  0  0  0  0  0  0  0
   -3.7814   -0.2597   -0.7856 N   0  0  0  0  0  0  0  0  0  0  0  0
   -3.7493    1.1431   -0.7543 C   0  0  0  0  0  0  0  0  0  0  0  0
   -3.5439    1.8289   -1.9596 C   0  0  0  0  0  0  0  0  0  0  0  0
   -3.4815    3.2194   -1.9891 C   0  0  0  0  0  0  0  0  0  0  0  0
   -3.6294    3.9372   -0.8067 C   0  0  0  0  0  0  0  0  0  0  0  0
   -3.8547    3.2655    0.3990 C   0  0  0  0  0  0  0  0  0  0  0  0
   -4.0111    4.2300    1.8266 Cl  0  0  0  0  0  0  0  0  0  0  0  0
   -3.9378    1.8616    0.4429 C   0  0  0  0  0  0  0  0  0  0  0  0
   -4.1847    1.1419    1.7424 C   0  0  0  0  0  0  0  0  0  0  0  0
   -2.7023   -2.3373   -0.6559 C   0  0  0  0  0  0  0  0  0  0  0  0
   -3.7062   -3.3022   -0.8212 C   0  0  0  0  0  0  0  0  0  0  0  0
   -3.2229   -4.5526   -0.7649 N   0  0  0  0  0  0  0  0  0  0  0  0
   -1.8938   -4.3796   -0.5654 N   0  0  0  0  0  0  0  0  0  0  0  0
   -1.0515   -5.5433   -0.4517 C   0  0  0  0  0  0  0  0  0  0  0  0
   -1.5481   -3.0638   -0.4911 C   0  0  0  0  0  0  0  0  0  0  0  0
    0.5029   -3.0632   -0.1695 H   0  0  0  0  0  0  0  0  0  0  0  0
    2.0883   -1.8279    0.9725 H   0  0  0  0  0  0  0  0  0  0  0  0
    2.3538   -1.7515   -0.7821 H   0  0  0  0  0  0  0  0  0  0  0  0
    4.6266   -1.1443   -1.0762 H   0  0  0  0  0  0  0  0  0  0  0  0
    6.5125    0.3724   -0.6251 H   0  0  0  0  0  0  0  0  0  0  0  0
    6.3478    2.9911    2.9601 H   0  0  0  0  0  0  0  0  0  0  0  0
    5.7493    4.0848    1.6518 H   0  0  0  0  0  0  0  0  0  0  0  0
    7.4819    3.8788    1.9353 H   0  0  0  0  0  0  0  0  0  0  0  0
    4.1352    2.4560    2.3026 H   0  0  0  0  0  0  0  0  0  0  0  0
    2.2651    0.9539    1.8554 H   0  0  0  0  0  0  0  0  0  0  0  0
   -1.2618    0.5611   -0.3902 H   0  0  0  0  0  0  0  0  0  0  0  0
   -3.4318    1.2654   -2.8835 H   0  0  0  0  0  0  0  0  0  0  0  0
   -3.3183    3.7392   -2.9295 H   0  0  0  0  0  0  0  0  0  0  0  0
   -3.5735    5.0230   -0.8289 H   0  0  0  0  0  0  0  0  0  0  0  0
   -4.4562    0.0924    1.5952 H   0  0  0  0  0  0  0  0  0  0  0  0
   -5.0200    1.5961    2.2855 H   0  0  0  0  0  0  0  0  0  0  0  0
   -3.2846    1.1746    2.3646 H   0  0  0  0  0  0  0  0  0  0  0  0
   -4.7664   -3.1492   -0.9783 H   0  0  0  0  0  0  0  0  0  0  0  0
   -0.0011   -5.2491   -0.4981 H   0  0  0  0  0  0  0  0  0  0  0  0
   -1.2642   -6.0265    0.5050 H   0  0  0  0  0  0  0  0  0  0  0  0
   -1.2775   -6.2197   -1.2802 H   0  0  0  0  0  0  0  0  0  0  0  0
  1  2  1  0
  2  3  2  3
  3  4  1  0
  4  5  1  0
  5  6  2  0
  6  7  1  0
  7  8  2  0
  8  9  1  0
  9 10  1  0
  8 11  1  0
 11 12  2  0
  2 13  1  0
 13 14  1  0
 14 15  2  3
 15 16  1  0
 16 17  2  0
 17 18  1  0
 18 19  2  0
 19 20  1  0
 20 21  1  0
 20 22  2  0
 22 23  1  0
 14 24  1  0
 24 25  1  0
 25 26  2  0
 26 27  1  0
 27 28  1  0
 27 29  1  0
 29  1  1  0
 12  5  1  0
 22 16  1  0
 29 24  2  0
  1 30  1  0
  4 31  1  0
  4 32  1  0
  6 33  1  0
  7 34  1  0
 10 35  1  0
 10 36  1  0
 10 37  1  0
 11 38  1  0
 12 39  1  0
 13 40  1  0
 17 41  1  0
 18 42  1  0
 19 43  1  0
 23 44  1  0
 23 45  1  0
 23 46  1  0
 25 47  1  0
 28 48  1  0
 28 49  1  0
 28 50  1  0
M  END
>  <ScrubInfo>  (9) 
{"isomerGroup": 0, "isomerId": 8, "confId": 0, "nr_conformers:": 1, "nr_isomers:": 9}

$$$$
