REMARK SMILES COc1ccc(CNc2nc(Nc3cccc(Cl)c3C)c3cnn(C)c3n2)cc1
REMARK SMILES IDX 8 1 7 3 6 4 3 5 4 6 29 7 5 8 28 9 2 10 1 11 9 12 10 13 27 14
REMARK SMILES IDX 11 15 26 16 21 17 24 18 22 19 23 20 25 21 12 22 13 24 14 25
REMARK SMILES IDX 19 26 15 27 17 28 16 29 20 30 18 31
REMARK H PARENT 8 2 12 23
ROOT
ATOM      1  N   UNL     1       1.506  -0.117   0.036  1.00  0.00    -0.350 N 
ATOM      2  H   UNL     1       1.484  -0.796  -0.717  1.00  0.00     0.164 HD
ENDROOT
BRANCH   1   3
ATOM      3  C   UNL     1       2.611   0.816  -0.029  1.00  0.00     0.152 C 
BRANCH   3   4
ATOM      4  C   UNL     1       3.892   0.048  -0.265  1.00  0.00    -0.029 A 
ATOM      5  C   UNL     1       6.264  -1.412  -0.693  1.00  0.00     0.118 A 
ATOM      6  C   UNL     1       5.723  -0.621  -1.709  1.00  0.00     0.047 A 
ATOM      7  C   UNL     1       5.615  -1.476   0.539  1.00  0.00     0.047 A 
ATOM      8  C   UNL     1       4.545   0.102  -1.502  1.00  0.00     0.009 A 
ATOM      9  C   UNL     1       4.436  -0.753   0.750  1.00  0.00     0.009 A 
BRANCH   5  10
ATOM     10  O   UNL     1       7.418  -2.065  -1.031  1.00  0.00    -0.497 OA
ATOM     11  C   UNL     1       8.005  -2.888  -0.031  1.00  0.00     0.278 C 
ENDBRANCH   5  10
ENDBRANCH   3   4
ENDBRANCH   1   3
BRANCH   1  12
ATOM     12  C   UNL     1       0.256   0.484   0.062  1.00  0.00     0.227 A 
ATOM     13  N   UNL     1      -0.706  -0.193  -0.591  1.00  0.00    -0.195 NA
ATOM     14  N   UNL     1       0.091   1.646   0.711  1.00  0.00    -0.193 NA
ATOM     15  C   UNL     1      -1.976   0.283  -0.623  1.00  0.00     0.147 A 
ATOM     16  C   UNL     1      -1.170   2.098   0.659  1.00  0.00     0.165 A 
ATOM     17  C   UNL     1      -2.237   1.492   0.025  1.00  0.00     0.082 A 
ATOM     18  N   UNL     1      -1.666   3.244   1.219  1.00  0.00    -0.250 N 
ATOM     19  C   UNL     1      -3.322   2.361   0.258  1.00  0.00     0.149 A 
ATOM     20  N   UNL     1      -2.984   3.435   0.982  1.00  0.00    -0.179 NA
ATOM     21  C   UNL     1      -0.938   4.214   1.997  1.00  0.00     0.176 C 
BRANCH  15  22
ATOM     22  N   UNL     1      -2.923  -0.492  -1.321  1.00  0.00    -0.339 N 
ATOM     23  H   UNL     1      -2.477  -1.398  -1.462  1.00  0.00     0.168 HD
BRANCH  22  24
ATOM     24  C   UNL     1      -4.279  -0.637  -0.947  1.00  0.00     0.044 A 
ATOM     25  C   UNL     1      -5.242  -0.162  -1.853  1.00  0.00     0.026 A 
ATOM     26  C   UNL     1      -4.688  -1.256   0.255  1.00  0.00    -0.009 A 
ATOM     27  C   UNL     1      -6.601  -0.241  -1.563  1.00  0.00     0.004 A 
ATOM     28  C   UNL     1      -6.067  -1.300   0.543  1.00  0.00     0.046 A 
ATOM     29  C   UNL     1      -7.012  -0.801  -0.359  1.00  0.00     0.021 A 
ATOM     30  C   UNL     1      -3.682  -1.806   1.234  1.00  0.00     0.048 C 
ATOM     31  Cl  UNL     1      -6.673  -1.959   2.025  1.00  0.00    -0.084 Cl
ENDBRANCH  22  24
ENDBRANCH  15  22
ENDBRANCH   1  12
TORSDOF 6
