_i0
     RDKit          3D

 54 56  0  0  0  0  0  0  0  0999 V2000
    7.3125   -1.9520    2.0514 C   0  0  0  0  0  0  0  0  0  0  0  0
    6.4279   -0.7976    1.6056 C   0  0  0  0  0  0  0  0  0  0  0  0
    6.0046   -0.9524    0.1444 C   0  0  0  0  0  0  0  0  0  0  0  0
    5.2060    0.2409   -0.3879 C   0  0  0  0  0  0  0  0  0  0  0  0
    3.8433    0.4109    0.2874 C   0  0  0  0  0  0  0  0  0  0  0  0
    3.0426    1.5425   -0.3624 C   0  0  0  0  0  0  0  0  0  0  0  0
    1.7739    1.7331    0.3205 N   0  0  0  0  0  0  0  0  0  0  0  0
    0.6859    1.0504   -0.2104 C   0  0  0  0  0  0  0  0  0  0  0  0
   -0.4856    1.7049   -0.1006 N   0  0  0  0  0  0  0  0  0  0  0  0
   -1.6289    1.1405   -0.5656 C   0  0  0  0  0  0  0  0  0  0  0  0
   -2.8135    1.8852   -0.4064 N   0  0  0  0  0  0  0  0  0  0  0  0
   -4.0776    1.3313   -0.1066 C   0  0  0  0  0  0  0  0  0  0  0  0
   -5.1176    1.5568   -1.0236 C   0  0  0  0  0  0  0  0  0  0  0  0
   -6.4114    1.0536   -0.8148 C   0  0  0  0  0  0  0  0  0  0  0  0
   -7.4752    1.3153   -1.8430 C   0  0  0  0  0  0  0  0  0  0  0  0
   -6.6548    0.3190    0.3514 C   0  0  0  0  0  0  0  0  0  0  0  0
   -8.3616   -0.4210    0.7354 Br  0  0  0  0  0  0  0  0  0  0  0  0
   -5.6343    0.1089    1.2854 C   0  0  0  0  0  0  0  0  0  0  0  0
   -4.3449    0.6268    1.0799 C   0  0  0  0  0  0  0  0  0  0  0  0
   -3.2904    0.3746    2.1229 C   0  0  0  0  0  0  0  0  0  0  0  0
   -1.5396   -0.1157   -1.1682 C   0  0  0  0  0  0  0  0  0  0  0  0
   -2.3845   -1.0617   -1.7842 C   0  0  0  0  0  0  0  0  0  0  0  0
   -1.7285   -2.1516   -2.2020 N   0  0  0  0  0  0  0  0  0  0  0  0
   -0.4487   -1.8963   -1.8443 N   0  0  0  0  0  0  0  0  0  0  0  0
    0.5751   -2.8694   -2.1298 C   0  0  0  0  0  0  0  0  0  0  0  0
   -0.2845   -0.6865   -1.2278 C   0  0  0  0  0  0  0  0  0  0  0  0
    0.8574   -0.1544   -0.7696 N   0  0  0  0  0  0  0  0  0  0  0  0
    7.6014   -1.8251    3.0995 H   0  0  0  0  0  0  0  0  0  0  0  0
    8.2265   -2.0011    1.4511 H   0  0  0  0  0  0  0  0  0  0  0  0
    6.7870   -2.9077    1.9570 H   0  0  0  0  0  0  0  0  0  0  0  0
    6.9724    0.1443    1.7385 H   0  0  0  0  0  0  0  0  0  0  0  0
    5.5474   -0.7609    2.2558 H   0  0  0  0  0  0  0  0  0  0  0  0
    6.9010   -1.0677   -0.4776 H   0  0  0  0  0  0  0  0  0  0  0  0
    5.4174   -1.8710    0.0238 H   0  0  0  0  0  0  0  0  0  0  0  0
    5.7948    1.1589   -0.2714 H   0  0  0  0  0  0  0  0  0  0  0  0
    5.0553    0.0967   -1.4651 H   0  0  0  0  0  0  0  0  0  0  0  0
    3.9747    0.6340    1.3527 H   0  0  0  0  0  0  0  0  0  0  0  0
    3.2883   -0.5324    0.2299 H   0  0  0  0  0  0  0  0  0  0  0  0
    3.6161    2.4728   -0.2663 H   0  0  0  0  0  0  0  0  0  0  0  0
    2.9115    1.3752   -1.4393 H   0  0  0  0  0  0  0  0  0  0  0  0
    1.4719    2.6983    0.4024 H   0  0  0  0  0  0  0  0  0  0  0  0
   -2.5763    2.6280    0.2493 H   0  0  0  0  0  0  0  0  0  0  0  0
   -4.9001    2.1284   -1.9251 H   0  0  0  0  0  0  0  0  0  0  0  0
   -8.3070    1.8729   -1.4008 H   0  0  0  0  0  0  0  0  0  0  0  0
   -7.8428    0.3732   -2.2620 H   0  0  0  0  0  0  0  0  0  0  0  0
   -7.0898    1.9136   -2.6757 H   0  0  0  0  0  0  0  0  0  0  0  0
   -5.8447   -0.4605    2.1890 H   0  0  0  0  0  0  0  0  0  0  0  0
   -2.6892    1.2722    2.2987 H   0  0  0  0  0  0  0  0  0  0  0  0
   -3.7418    0.1068    3.0846 H   0  0  0  0  0  0  0  0  0  0  0  0
   -2.6397   -0.4484    1.8130 H   0  0  0  0  0  0  0  0  0  0  0  0
   -3.4531   -1.0025   -1.9456 H   0  0  0  0  0  0  0  0  0  0  0  0
    0.6160   -3.0178   -3.2118 H   0  0  0  0  0  0  0  0  0  0  0  0
    1.5424   -2.5133   -1.7680 H   0  0  0  0  0  0  0  0  0  0  0  0
    0.3125   -3.8029   -1.6256 H   0  0  0  0  0  0  0  0  0  0  0  0
  1  2  1  0
  2  3  1  0
  3  4  1  0
  4  5  1  0
  5  6  1  0
  6  7  1  0
  7  8  1  0
  8  9  2  0
  9 10  1  0
 10 11  1  0
 11 12  1  0
 12 13  2  0
 13 14  1  0
 14 15  1  0
 14 16  2  0
 16 17  1  0
 16 18  1  0
 18 19  2  0
 19 20  1  0
 10 21  2  0
 21 22  1  0
 22 23  2  0
 23 24  1  0
 24 25  1  0
 24 26  1  0
 26 27  2  0
 27  8  1  0
 19 12  1  0
 26 21  1  0
  1 28  1  0
  1 29  1  0
  1 30  1  0
  2 31  1  0
  2 32  1  0
  3 33  1  0
  3 34  1  0
  4 35  1  0
  4 36  1  0
  5 37  1  0
  5 38  1  0
  6 39  1  0
  6 40  1  0
  7 41  1  0
 11 42  1  0
 13 43  1  0
 15 44  1  0
 15 45  1  0
 15 46  1  0
 18 47  1  0
 20 48  1  0
 20 49  1  0
 20 50  1  0
 22 51  1  0
 25 52  1  0
 25 53  1  0
 25 54  1  0
M  END
>  <ScrubInfo>  (1) 
{"isomerGroup": 0, "isomerId": 0, "confId": 0, "nr_conformers:": 1, "nr_isomers:": 9}

$$$$
_i1
     RDKit          3D

 54 56  0  0  0  0  0  0  0  0999 V2000
   -0.2455    0.3682    0.3441 N   0  0  0  0  0  0  0  0  0  0  0  0
   -1.5784    0.4223   -0.0131 C   0  0  0  0  0  0  0  0  0  0  0  0
   -2.4495    1.2526    0.6798 N   0  0  0  0  0  0  0  0  0  0  0  0
   -3.8163    0.9608    0.9100 C   0  0  0  0  0  0  0  0  0  0  0  0
   -4.7543    1.9288    0.5119 C   0  0  0  0  0  0  0  0  0  0  0  0
   -6.1315    1.7594    0.7253 C   0  0  0  0  0  0  0  0  0  0  0  0
   -7.0842    2.8195    0.2495 C   0  0  0  0  0  0  0  0  0  0  0  0
   -6.5614    0.5977    1.3760 C   0  0  0  0  0  0  0  0  0  0  0  0
   -8.3993    0.2529    1.7086 Br  0  0  0  0  0  0  0  0  0  0  0  0
   -5.6351   -0.3534    1.8171 C   0  0  0  0  0  0  0  0  0  0  0  0
   -4.2560   -0.1723    1.6171 C   0  0  0  0  0  0  0  0  0  0  0  0
   -3.3125   -1.2189    2.1444 C   0  0  0  0  0  0  0  0  0  0  0  0
   -1.9140   -0.3414   -1.0629 C   0  0  0  0  0  0  0  0  0  0  0  0
   -3.1012   -0.6325   -1.8771 C   0  0  0  0  0  0  0  0  0  0  0  0
   -2.8693   -1.4927   -2.8378 N   0  0  0  0  0  0  0  0  0  0  0  0
   -1.5234   -1.8619   -2.6929 N   0  0  0  0  0  0  0  0  0  0  0  0
   -0.8686   -2.5444   -3.7827 C   0  0  0  0  0  0  0  0  0  0  0  0
   -0.8600   -1.1721   -1.6910 C   0  0  0  0  0  0  0  0  0  0  0  0
    0.3836   -1.1988   -1.3489 N   0  0  0  0  0  0  0  0  0  0  0  0
    0.7112   -0.3752   -0.2968 C   0  0  0  0  0  0  0  0  0  0  0  0
    1.9338   -0.2807    0.1118 N   0  0  0  0  0  0  0  0  0  0  0  0
    2.9319   -1.0852   -0.5952 C   0  0  0  0  0  0  0  0  0  0  0  0
    4.3095   -0.8216    0.0174 C   0  0  0  0  0  0  0  0  0  0  0  0
    4.8106    0.5992   -0.2627 C   0  0  0  0  0  0  0  0  0  0  0  0
    6.1529    0.9126    0.4055 C   0  0  0  0  0  0  0  0  0  0  0  0
    7.3170    0.0923   -0.1516 C   0  0  0  0  0  0  0  0  0  0  0  0
    8.6414    0.5234    0.4602 C   0  0  0  0  0  0  0  0  0  0  0  0
    0.1002    0.9905    1.0572 H   0  0  0  0  0  0  0  0  0  0  0  0
   -2.0305    1.5910    1.5433 H   0  0  0  0  0  0  0  0  0  0  0  0
   -4.3952    2.8247    0.0062 H   0  0  0  0  0  0  0  0  0  0  0  0
   -6.5536    3.6509   -0.2273 H   0  0  0  0  0  0  0  0  0  0  0  0
   -7.6476    3.2344    1.0913 H   0  0  0  0  0  0  0  0  0  0  0  0
   -7.7763    2.4076   -0.4919 H   0  0  0  0  0  0  0  0  0  0  0  0
   -5.9887   -1.2438    2.3347 H   0  0  0  0  0  0  0  0  0  0  0  0
   -3.0156   -1.9016    1.3430 H   0  0  0  0  0  0  0  0  0  0  0  0
   -2.4225   -0.7597    2.5861 H   0  0  0  0  0  0  0  0  0  0  0  0
   -3.7833   -1.8108    2.9372 H   0  0  0  0  0  0  0  0  0  0  0  0
   -4.0630   -0.1418   -1.6873 H   0  0  0  0  0  0  0  0  0  0  0  0
   -0.0090   -3.1190   -3.4231 H   0  0  0  0  0  0  0  0  0  0  0  0
   -1.5555   -3.2430   -4.2712 H   0  0  0  0  0  0  0  0  0  0  0  0
   -0.5189   -1.8237   -4.5285 H   0  0  0  0  0  0  0  0  0  0  0  0
    2.7039   -2.1521   -0.4826 H   0  0  0  0  0  0  0  0  0  0  0  0
    2.9551   -0.8404   -1.6641 H   0  0  0  0  0  0  0  0  0  0  0  0
    5.0122   -1.5490   -0.4037 H   0  0  0  0  0  0  0  0  0  0  0  0
    4.2719   -0.9934    1.1001 H   0  0  0  0  0  0  0  0  0  0  0  0
    4.8939    0.7551   -1.3452 H   0  0  0  0  0  0  0  0  0  0  0  0
    4.0748    1.3249    0.1042 H   0  0  0  0  0  0  0  0  0  0  0  0
    6.0711    0.7534    1.4876 H   0  0  0  0  0  0  0  0  0  0  0  0
    6.3654    1.9791    0.2593 H   0  0  0  0  0  0  0  0  0  0  0  0
    7.3691    0.2099   -1.2401 H   0  0  0  0  0  0  0  0  0  0  0  0
    7.1669   -0.9725    0.0555 H   0  0  0  0  0  0  0  0  0  0  0  0
    9.4605   -0.0771    0.0522 H   0  0  0  0  0  0  0  0  0  0  0  0
    8.8508    1.5755    0.2422 H   0  0  0  0  0  0  0  0  0  0  0  0
    8.6323    0.3923    1.5470 H   0  0  0  0  0  0  0  0  0  0  0  0
  1  2  1  0
  2  3  1  0
  3  4  1  0
  4  5  2  0
  5  6  1  0
  6  7  1  0
  6  8  2  0
  8  9  1  0
  8 10  1  0
 10 11  2  0
 11 12  1  0
  2 13  2  0
 13 14  1  0
 14 15  2  0
 15 16  1  0
 16 17  1  0
 16 18  1  0
 18 19  2  0
 19 20  1  0
 20 21  2  3
 21 22  1  0
 22 23  1  0
 23 24  1  0
 24 25  1  0
 25 26  1  0
 26 27  1  0
 20  1  1  0
 11  4  1  0
 18 13  1  0
  1 28  1  0
  3 29  1  0
  5 30  1  0
  7 31  1  0
  7 32  1  0
  7 33  1  0
 10 34  1  0
 12 35  1  0
 12 36  1  0
 12 37  1  0
 14 38  1  0
 17 39  1  0
 17 40  1  0
 17 41  1  0
 22 42  1  0
 22 43  1  0
 23 44  1  0
 23 45  1  0
 24 46  1  0
 24 47  1  0
 25 48  1  0
 25 49  1  0
 26 50  1  0
 26 51  1  0
 27 52  1  0
 27 53  1  0
 27 54  1  0
M  END
>  <ScrubInfo>  (2) 
{"isomerGroup": 0, "isomerId": 1, "confId": 0, "nr_conformers:": 1, "nr_isomers:": 9}

$$$$
_i2
     RDKit          3D

 54 56  0  0  0  0  0  0  0  0999 V2000
    0.0277    0.3481    1.3070 N   0  0  0  0  0  0  0  0  0  0  0  0
    0.9506   -0.6466    1.1099 C   0  0  0  0  0  0  0  0  0  0  0  0
    2.1922   -0.4489    1.6427 N   0  0  0  0  0  0  0  0  0  0  0  0
    2.9234    0.8067    1.5903 C   0  0  0  0  0  0  0  0  0  0  0  0
    3.2508    1.2297    0.1566 C   0  0  0  0  0  0  0  0  0  0  0  0
    4.0845    0.2306   -0.6561 C   0  0  0  0  0  0  0  0  0  0  0  0
    5.4659   -0.0418   -0.0558 C   0  0  0  0  0  0  0  0  0  0  0  0
    6.3007   -1.0246   -0.8814 C   0  0  0  0  0  0  0  0  0  0  0  0
    6.7082   -0.4843   -2.2435 C   0  0  0  0  0  0  0  0  0  0  0  0
    0.7031   -1.7557    0.4587 N   0  0  0  0  0  0  0  0  0  0  0  0
   -0.5753   -1.7843   -0.0138 C   0  0  0  0  0  0  0  0  0  0  0  0
   -1.5729   -0.8319    0.1341 C   0  0  0  0  0  0  0  0  0  0  0  0
   -2.6743   -1.3740   -0.5513 C   0  0  0  0  0  0  0  0  0  0  0  0
   -2.4104   -2.5689   -1.0954 N   0  0  0  0  0  0  0  0  0  0  0  0
   -1.1234   -2.7974   -0.7490 N   0  0  0  0  0  0  0  0  0  0  0  0
   -0.4868   -4.0207   -1.1675 C   0  0  0  0  0  0  0  0  0  0  0  0
   -1.2822    0.3717    0.8886 C   0  0  0  0  0  0  0  0  0  0  0  0
   -2.0707    1.3604    1.1834 N   0  0  0  0  0  0  0  0  0  0  0  0
   -3.4057    1.3943    0.7699 C   0  0  0  0  0  0  0  0  0  0  0  0
   -3.7232    2.0101   -0.4488 C   0  0  0  0  0  0  0  0  0  0  0  0
   -5.0479    2.0946   -0.9074 C   0  0  0  0  0  0  0  0  0  0  0  0
   -5.3247    2.7515   -2.2298 C   0  0  0  0  0  0  0  0  0  0  0  0
   -6.0631    1.5581   -0.1044 C   0  0  0  0  0  0  0  0  0  0  0  0
   -7.8888    1.6089   -0.6266 Br  0  0  0  0  0  0  0  0  0  0  0  0
   -5.7599    0.9641    1.1261 C   0  0  0  0  0  0  0  0  0  0  0  0
   -4.4348    0.8913    1.5812 C   0  0  0  0  0  0  0  0  0  0  0  0
   -4.1334    0.2514    2.9067 C   0  0  0  0  0  0  0  0  0  0  0  0
    0.2686    1.0923    1.9389 H   0  0  0  0  0  0  0  0  0  0  0  0
    2.7834   -1.2464    1.4179 H   0  0  0  0  0  0  0  0  0  0  0  0
    3.8426    0.7009    2.1758 H   0  0  0  0  0  0  0  0  0  0  0  0
    2.3488    1.5998    2.0815 H   0  0  0  0  0  0  0  0  0  0  0  0
    3.7825    2.1888    0.1912 H   0  0  0  0  0  0  0  0  0  0  0  0
    2.3169    1.4165   -0.3881 H   0  0  0  0  0  0  0  0  0  0  0  0
    3.5370   -0.7123   -0.7685 H   0  0  0  0  0  0  0  0  0  0  0  0
    4.1983    0.6442   -1.6646 H   0  0  0  0  0  0  0  0  0  0  0  0
    5.3520   -0.4676    0.9474 H   0  0  0  0  0  0  0  0  0  0  0  0
    6.0138    0.9012    0.0585 H   0  0  0  0  0  0  0  0  0  0  0  0
    5.7519   -1.9647   -1.0102 H   0  0  0  0  0  0  0  0  0  0  0  0
    7.2105   -1.2637   -0.3178 H   0  0  0  0  0  0  0  0  0  0  0  0
    7.2270    0.4747   -2.1471 H   0  0  0  0  0  0  0  0  0  0  0  0
    7.3861   -1.1875   -2.7381 H   0  0  0  0  0  0  0  0  0  0  0  0
    5.8423   -0.3463   -2.8972 H   0  0  0  0  0  0  0  0  0  0  0  0
   -3.6659   -0.9664   -0.6892 H   0  0  0  0  0  0  0  0  0  0  0  0
   -0.4920   -4.0541   -2.2600 H   0  0  0  0  0  0  0  0  0  0  0  0
    0.5416   -4.0552   -0.8018 H   0  0  0  0  0  0  0  0  0  0  0  0
   -1.0532   -4.8606   -0.7572 H   0  0  0  0  0  0  0  0  0  0  0  0
   -2.9130    2.4246   -1.0456 H   0  0  0  0  0  0  0  0  0  0  0  0
   -5.7896    2.0408   -2.9206 H   0  0  0  0  0  0  0  0  0  0  0  0
   -4.4025    3.1076   -2.7017 H   0  0  0  0  0  0  0  0  0  0  0  0
   -5.9780    3.6198   -2.0973 H   0  0  0  0  0  0  0  0  0  0  0  0
   -6.5612    0.5581    1.7404 H   0  0  0  0  0  0  0  0  0  0  0  0
   -3.4813    0.8946    3.5065 H   0  0  0  0  0  0  0  0  0  0  0  0
   -5.0472    0.0872    3.4877 H   0  0  0  0  0  0  0  0  0  0  0  0
   -3.6490   -0.7185    2.7567 H   0  0  0  0  0  0  0  0  0  0  0  0
  1  2  1  0
  2  3  1  0
  3  4  1  0
  4  5  1  0
  5  6  1  0
  6  7  1  0
  7  8  1  0
  8  9  1  0
  2 10  2  0
 10 11  1  0
 11 12  2  0
 12 13  1  0
 13 14  2  0
 14 15  1  0
 15 16  1  0
 12 17  1  0
 17 18  2  3
 18 19  1  0
 19 20  2  0
 20 21  1  0
 21 22  1  0
 21 23  2  0
 23 24  1  0
 23 25  1  0
 25 26  2  0
 26 27  1  0
 17  1  1  0
 26 19  1  0
 15 11  1  0
  1 28  1  0
  3 29  1  0
  4 30  1  0
  4 31  1  0
  5 32  1  0
  5 33  1  0
  6 34  1  0
  6 35  1  0
  7 36  1  0
  7 37  1  0
  8 38  1  0
  8 39  1  0
  9 40  1  0
  9 41  1  0
  9 42  1  0
 13 43  1  0
 16 44  1  0
 16 45  1  0
 16 46  1  0
 20 47  1  0
 22 48  1  0
 22 49  1  0
 22 50  1  0
 25 51  1  0
 27 52  1  0
 27 53  1  0
 27 54  1  0
M  END
>  <ScrubInfo>  (3) 
{"isomerGroup": 0, "isomerId": 2, "confId": 0, "nr_conformers:": 1, "nr_isomers:": 9}

$$$$
_i3
     RDKit          3D

 54 56  0  0  0  0  0  0  0  0999 V2000
    0.3152   -0.2887   -3.0281 N   0  0  0  0  0  0  0  0  0  0  0  0
    0.9674   -0.1439   -1.8233 C   0  0  0  0  0  0  0  0  0  0  0  0
    2.1885   -0.5627   -1.7395 N   0  0  0  0  0  0  0  0  0  0  0  0
    2.8604   -0.3993   -0.4489 C   0  0  0  0  0  0  0  0  0  0  0  0
    4.2789   -0.9550   -0.5817 C   0  0  0  0  0  0  0  0  0  0  0  0
    5.1393   -0.7348    0.6659 C   0  0  0  0  0  0  0  0  0  0  0  0
    4.6276   -1.4919    1.8942 C   0  0  0  0  0  0  0  0  0  0  0  0
    5.5977   -1.4464    3.0776 C   0  0  0  0  0  0  0  0  0  0  0  0
    5.7973   -0.0492    3.6443 C   0  0  0  0  0  0  0  0  0  0  0  0
    0.3483    0.4282   -0.7210 N   0  0  0  0  0  0  0  0  0  0  0  0
   -0.8918    0.8242   -0.8238 C   0  0  0  0  0  0  0  0  0  0  0  0
   -1.5614    1.4059    0.2244 N   0  0  0  0  0  0  0  0  0  0  0  0
   -2.8341    0.9766    0.6839 C   0  0  0  0  0  0  0  0  0  0  0  0
   -3.7580    1.9847    1.0162 C   0  0  0  0  0  0  0  0  0  0  0  0
   -5.0344    1.6888    1.5202 C   0  0  0  0  0  0  0  0  0  0  0  0
   -5.9838    2.8134    1.8228 C   0  0  0  0  0  0  0  0  0  0  0  0
   -5.3709    0.3458    1.7172 C   0  0  0  0  0  0  0  0  0  0  0  0
   -7.0708   -0.1784    2.3828 Br  0  0  0  0  0  0  0  0  0  0  0  0
   -4.4455   -0.6654    1.4382 C   0  0  0  0  0  0  0  0  0  0  0  0
   -3.1621   -0.3652    0.9485 C   0  0  0  0  0  0  0  0  0  0  0  0
   -2.2055   -1.5036    0.7177 C   0  0  0  0  0  0  0  0  0  0  0  0
   -1.6057    0.7104   -2.0771 C   0  0  0  0  0  0  0  0  0  0  0  0
   -2.8665    1.0411   -2.5972 C   0  0  0  0  0  0  0  0  0  0  0  0
   -2.9940    0.6959   -3.8890 N   0  0  0  0  0  0  0  0  0  0  0  0
   -1.7948    0.1435   -4.1970 N   0  0  0  0  0  0  0  0  0  0  0  0
   -1.5685   -0.3439   -5.5335 C   0  0  0  0  0  0  0  0  0  0  0  0
   -0.9488    0.1450   -3.1355 C   0  0  0  0  0  0  0  0  0  0  0  0
    0.8708   -0.7065   -3.7624 H   0  0  0  0  0  0  0  0  0  0  0  0
    2.3203   -0.9483    0.3306 H   0  0  0  0  0  0  0  0  0  0  0  0
    2.9119    0.6608   -0.1728 H   0  0  0  0  0  0  0  0  0  0  0  0
    4.2360   -2.0252   -0.8199 H   0  0  0  0  0  0  0  0  0  0  0  0
    4.7748   -0.4713   -1.4332 H   0  0  0  0  0  0  0  0  0  0  0  0
    5.1926    0.3389    0.8792 H   0  0  0  0  0  0  0  0  0  0  0  0
    6.1605   -1.0653    0.4396 H   0  0  0  0  0  0  0  0  0  0  0  0
    4.4629   -2.5427    1.6263 H   0  0  0  0  0  0  0  0  0  0  0  0
    3.6590   -1.0882    2.2103 H   0  0  0  0  0  0  0  0  0  0  0  0
    5.2062   -2.0924    3.8725 H   0  0  0  0  0  0  0  0  0  0  0  0
    6.5679   -1.8620    2.7815 H   0  0  0  0  0  0  0  0  0  0  0  0
    4.8399    0.4029    3.9218 H   0  0  0  0  0  0  0  0  0  0  0  0
    6.2956    0.6078    2.9254 H   0  0  0  0  0  0  0  0  0  0  0  0
    6.4234   -0.0938    4.5412 H   0  0  0  0  0  0  0  0  0  0  0  0
   -0.9355    1.4437    1.0266 H   0  0  0  0  0  0  0  0  0  0  0  0
   -3.4753    3.0245    0.8528 H   0  0  0  0  0  0  0  0  0  0  0  0
   -5.5322    3.7883    1.6088 H   0  0  0  0  0  0  0  0  0  0  0  0
   -6.2583    2.8088    2.8825 H   0  0  0  0  0  0  0  0  0  0  0  0
   -6.8849    2.7302    1.2068 H   0  0  0  0  0  0  0  0  0  0  0  0
   -4.7211   -1.7038    1.6159 H   0  0  0  0  0  0  0  0  0  0  0  0
   -2.5343   -2.4098    1.2385 H   0  0  0  0  0  0  0  0  0  0  0  0
   -1.2125   -1.2637    1.1104 H   0  0  0  0  0  0  0  0  0  0  0  0
   -2.1388   -1.7373   -0.3486 H   0  0  0  0  0  0  0  0  0  0  0  0
   -3.7031    1.5174   -2.1034 H   0  0  0  0  0  0  0  0  0  0  0  0
   -0.5742   -0.7896   -5.6044 H   0  0  0  0  0  0  0  0  0  0  0  0
   -2.3277   -1.0970   -5.7594 H   0  0  0  0  0  0  0  0  0  0  0  0
   -1.6480    0.4988   -6.2249 H   0  0  0  0  0  0  0  0  0  0  0  0
  1  2  1  0
  2  3  2  3
  3  4  1  0
  4  5  1  0
  5  6  1  0
  6  7  1  0
  7  8  1  0
  8  9  1  0
  2 10  1  0
 10 11  2  0
 11 12  1  0
 12 13  1  0
 13 14  2  0
 14 15  1  0
 15 16  1  0
 15 17  2  0
 17 18  1  0
 17 19  1  0
 19 20  2  0
 20 21  1  0
 11 22  1  0
 22 23  1  0
 23 24  2  0
 24 25  1  0
 25 26  1  0
 25 27  1  0
 27  1  1  0
 20 13  1  0
 27 22  2  0
  1 28  1  0
  4 29  1  0
  4 30  1  0
  5 31  1  0
  5 32  1  0
  6 33  1  0
  6 34  1  0
  7 35  1  0
  7 36  1  0
  8 37  1  0
  8 38  1  0
  9 39  1  0
  9 40  1  0
  9 41  1  0
 12 42  1  0
 14 43  1  0
 16 44  1  0
 16 45  1  0
 16 46  1  0
 19 47  1  0
 21 48  1  0
 21 49  1  0
 21 50  1  0
 23 51  1  0
 26 52  1  0
 26 53  1  0
 26 54  1  0
M  END
>  <ScrubInfo>  (4) 
{"isomerGroup": 0, "isomerId": 3, "confId": 0, "nr_conformers:": 1, "nr_isomers:": 9}

$$$$
_i4
     RDKit          3D

 54 56  0  0  0  0  0  0  0  0999 V2000
   -0.6131   -4.0897   -2.2879 N   0  0  0  0  0  0  0  0  0  0  0  0
   -1.7263   -3.4244   -1.7838 C   0  0  0  0  0  0  0  0  0  0  0  0
   -1.4349   -2.2020   -1.3213 C   0  0  0  0  0  0  0  0  0  0  0  0
   -2.1441   -1.0887   -0.7357 C   0  0  0  0  0  0  0  0  0  0  0  0
   -3.4132   -1.1403   -0.4730 N   0  0  0  0  0  0  0  0  0  0  0  0
   -4.0254   -0.0108    0.0941 C   0  0  0  0  0  0  0  0  0  0  0  0
   -4.0701    0.1115    1.4901 C   0  0  0  0  0  0  0  0  0  0  0  0
   -4.6847    1.2088    2.1149 C   0  0  0  0  0  0  0  0  0  0  0  0
   -4.6899    1.2887    3.6146 C   0  0  0  0  0  0  0  0  0  0  0  0
   -5.2700    2.1901    1.3041 C   0  0  0  0  0  0  0  0  0  0  0  0
   -6.1211    3.7222    2.0384 Br  0  0  0  0  0  0  0  0  0  0  0  0
   -5.2481    2.0700   -0.0901 C   0  0  0  0  0  0  0  0  0  0  0  0
   -4.6397    0.9657   -0.7055 C   0  0  0  0  0  0  0  0  0  0  0  0
   -4.6203    0.8584   -2.2035 C   0  0  0  0  0  0  0  0  0  0  0  0
   -1.3662    0.0118   -0.4922 N   0  0  0  0  0  0  0  0  0  0  0  0
   -0.0866    0.0310   -0.7346 C   0  0  0  0  0  0  0  0  0  0  0  0
    0.5536    1.2020   -0.4513 N   0  0  0  0  0  0  0  0  0  0  0  0
    1.9758    1.3060   -0.2083 C   0  0  0  0  0  0  0  0  0  0  0  0
    2.3204    0.7856    1.1875 C   0  0  0  0  0  0  0  0  0  0  0  0
    3.7916    0.9859    1.5633 C   0  0  0  0  0  0  0  0  0  0  0  0
    4.7508    0.1621    0.6998 C   0  0  0  0  0  0  0  0  0  0  0  0
    6.1944    0.1896    1.2087 C   0  0  0  0  0  0  0  0  0  0  0  0
    6.8339    1.5679    1.1430 C   0  0  0  0  0  0  0  0  0  0  0  0
    0.6480   -1.0158   -1.2318 N   0  0  0  0  0  0  0  0  0  0  0  0
    0.0167   -2.1025   -1.5095 C   0  0  0  0  0  0  0  0  0  0  0  0
    0.5085   -3.3093   -2.0114 N   0  0  0  0  0  0  0  0  0  0  0  0
    1.6231   -3.3273   -2.9392 C   0  0  0  0  0  0  0  0  0  0  0  0
   -0.5627   -5.0685   -1.9961 H   0  0  0  0  0  0  0  0  0  0  0  0
   -2.6926   -3.9089   -1.7936 H   0  0  0  0  0  0  0  0  0  0  0  0
   -3.6066   -0.6691    2.0892 H   0  0  0  0  0  0  0  0  0  0  0  0
   -5.7165    1.3009    3.9944 H   0  0  0  0  0  0  0  0  0  0  0  0
   -4.1875    0.4253    4.0642 H   0  0  0  0  0  0  0  0  0  0  0  0
   -4.1601    2.1851    3.9524 H   0  0  0  0  0  0  0  0  0  0  0  0
   -5.7093    2.8392   -0.7055 H   0  0  0  0  0  0  0  0  0  0  0  0
   -5.2857    1.5955   -2.6653 H   0  0  0  0  0  0  0  0  0  0  0  0
   -3.6081    1.0329   -2.5816 H   0  0  0  0  0  0  0  0  0  0  0  0
   -4.9628   -0.1309   -2.5240 H   0  0  0  0  0  0  0  0  0  0  0  0
   -0.0354    1.8378    0.0732 H   0  0  0  0  0  0  0  0  0  0  0  0
    2.5345    0.7714   -0.9835 H   0  0  0  0  0  0  0  0  0  0  0  0
    2.2605    2.3613   -0.2868 H   0  0  0  0  0  0  0  0  0  0  0  0
    1.7010    1.3080    1.9280 H   0  0  0  0  0  0  0  0  0  0  0  0
    2.0629   -0.2776    1.2690 H   0  0  0  0  0  0  0  0  0  0  0  0
    3.9180    0.6987    2.6144 H   0  0  0  0  0  0  0  0  0  0  0  0
    4.0387    2.0513    1.4927 H   0  0  0  0  0  0  0  0  0  0  0  0
    4.7298    0.5204   -0.3356 H   0  0  0  0  0  0  0  0  0  0  0  0
    4.4134   -0.8815    0.6825 H   0  0  0  0  0  0  0  0  0  0  0  0
    6.7903   -0.5007    0.5998 H   0  0  0  0  0  0  0  0  0  0  0  0
    6.2343   -0.1823    2.2391 H   0  0  0  0  0  0  0  0  0  0  0  0
    6.7820    1.9775    0.1293 H   0  0  0  0  0  0  0  0  0  0  0  0
    7.8887    1.5064    1.4298 H   0  0  0  0  0  0  0  0  0  0  0  0
    6.3459    2.2695    1.8258 H   0  0  0  0  0  0  0  0  0  0  0  0
    1.3528   -2.8410   -3.8823 H   0  0  0  0  0  0  0  0  0  0  0  0
    2.4877   -2.8088   -2.5125 H   0  0  0  0  0  0  0  0  0  0  0  0
    1.9237   -4.3582   -3.1528 H   0  0  0  0  0  0  0  0  0  0  0  0
  1  2  1  0
  2  3  2  0
  3  4  1  0
  4  5  2  3
  5  6  1  0
  6  7  2  0
  7  8  1  0
  8  9  1  0
  8 10  2  0
 10 11  1  0
 10 12  1  0
 12 13  2  0
 13 14  1  0
  4 15  1  0
 15 16  2  0
 16 17  1  0
 17 18  1  0
 18 19  1  0
 19 20  1  0
 20 21  1  0
 21 22  1  0
 22 23  1  0
 16 24  1  0
 24 25  2  0
 25 26  1  0
 26 27  1  0
 26  1  1  0
 25  3  1  0
 13  6  1  0
  1 28  1  0
  2 29  1  0
  7 30  1  0
  9 31  1  0
  9 32  1  0
  9 33  1  0
 12 34  1  0
 14 35  1  0
 14 36  1  0
 14 37  1  0
 17 38  1  0
 18 39  1  0
 18 40  1  0
 19 41  1  0
 19 42  1  0
 20 43  1  0
 20 44  1  0
 21 45  1  0
 21 46  1  0
 22 47  1  0
 22 48  1  0
 23 49  1  0
 23 50  1  0
 23 51  1  0
 27 52  1  0
 27 53  1  0
 27 54  1  0
M  END
>  <ScrubInfo>  (5) 
{"isomerGroup": 0, "isomerId": 4, "confId": 0, "nr_conformers:": 1, "nr_isomers:": 9}

$$$$
_i5
     RDKit          3D

 54 56  0  0  0  0  0  0  0  0999 V2000
    0.6250   -2.1004    0.3303 N   0  0  0  0  0  0  0  0  0  0  0  0
    0.8685   -0.9681    1.0656 C   0  0  0  0  0  0  0  0  0  0  0  0
    2.1143   -0.8787    1.6163 N   0  0  0  0  0  0  0  0  0  0  0  0
    3.3432   -1.1142    0.8726 C   0  0  0  0  0  0  0  0  0  0  0  0
    3.5377   -0.1104   -0.2662 C   0  0  0  0  0  0  0  0  0  0  0  0
    3.6223    1.3599    0.1610 C   0  0  0  0  0  0  0  0  0  0  0  0
    4.7208    1.6954    1.1746 C   0  0  0  0  0  0  0  0  0  0  0  0
    6.1449    1.3275    0.7519 C   0  0  0  0  0  0  0  0  0  0  0  0
    6.6029    2.0331   -0.5150 C   0  0  0  0  0  0  0  0  0  0  0  0
    0.0150   -0.0073    1.2790 N   0  0  0  0  0  0  0  0  0  0  0  0
   -1.2577   -0.0738    0.7244 C   0  0  0  0  0  0  0  0  0  0  0  0
   -2.0217    0.9498    0.9390 N   0  0  0  0  0  0  0  0  0  0  0  0
   -3.3232    1.0349    0.4410 C   0  0  0  0  0  0  0  0  0  0  0  0
   -3.5323    1.5872   -0.8305 C   0  0  0  0  0  0  0  0  0  0  0  0
   -4.8208    1.7166   -1.3736 C   0  0  0  0  0  0  0  0  0  0  0  0
   -4.9807    2.3029   -2.7474 C   0  0  0  0  0  0  0  0  0  0  0  0
   -5.9113    1.2938   -0.6017 C   0  0  0  0  0  0  0  0  0  0  0  0
   -7.6977    1.4149   -1.2368 Br  0  0  0  0  0  0  0  0  0  0  0  0
   -5.7164    0.7675    0.6805 C   0  0  0  0  0  0  0  0  0  0  0  0
   -4.4262    0.6477    1.2180 C   0  0  0  0  0  0  0  0  0  0  0  0
   -4.2372    0.0921    2.6013 C   0  0  0  0  0  0  0  0  0  0  0  0
   -1.5781   -1.2787   -0.0239 C   0  0  0  0  0  0  0  0  0  0  0  0
   -2.6882   -1.8282   -0.6908 C   0  0  0  0  0  0  0  0  0  0  0  0
   -2.4350   -3.0374   -1.2175 N   0  0  0  0  0  0  0  0  0  0  0  0
   -1.1455   -3.2687   -0.8845 N   0  0  0  0  0  0  0  0  0  0  0  0
   -0.5259   -4.5018   -1.2975 C   0  0  0  0  0  0  0  0  0  0  0  0
   -0.6103   -2.2392   -0.1794 C   0  0  0  0  0  0  0  0  0  0  0  0
    1.2825   -2.8613    0.4266 H   0  0  0  0  0  0  0  0  0  0  0  0
    2.1642   -0.0138    2.1529 H   0  0  0  0  0  0  0  0  0  0  0  0
    4.1864   -1.0689    1.5697 H   0  0  0  0  0  0  0  0  0  0  0  0
    3.3470   -2.1309    0.4641 H   0  0  0  0  0  0  0  0  0  0  0  0
    2.7125   -0.2091   -0.9827 H   0  0  0  0  0  0  0  0  0  0  0  0
    4.4461   -0.3807   -0.8174 H   0  0  0  0  0  0  0  0  0  0  0  0
    3.7592    1.9734   -0.7377 H   0  0  0  0  0  0  0  0  0  0  0  0
    2.6585    1.6705    0.5824 H   0  0  0  0  0  0  0  0  0  0  0  0
    4.6807    2.7730    1.3788 H   0  0  0  0  0  0  0  0  0  0  0  0
    4.4998    1.2023    2.1285 H   0  0  0  0  0  0  0  0  0  0  0  0
    6.2381    0.2440    0.6212 H   0  0  0  0  0  0  0  0  0  0  0  0
    6.8265    1.5999    1.5669 H   0  0  0  0  0  0  0  0  0  0  0  0
    7.6556    1.8060   -0.7116 H   0  0  0  0  0  0  0  0  0  0  0  0
    6.5033    3.1188   -0.4179 H   0  0  0  0  0  0  0  0  0  0  0  0
    6.0261    1.7087   -1.3860 H   0  0  0  0  0  0  0  0  0  0  0  0
   -2.6648    1.9194   -1.3979 H   0  0  0  0  0  0  0  0  0  0  0  0
   -5.5819    3.2168   -2.7065 H   0  0  0  0  0  0  0  0  0  0  0  0
   -5.4525    1.5797   -3.4202 H   0  0  0  0  0  0  0  0  0  0  0  0
   -4.0124    2.5697   -3.1849 H   0  0  0  0  0  0  0  0  0  0  0  0
   -6.5748    0.4545    1.2713 H   0  0  0  0  0  0  0  0  0  0  0  0
   -5.1949   -0.0254    3.1193 H   0  0  0  0  0  0  0  0  0  0  0  0
   -3.6220    0.7667    3.2057 H   0  0  0  0  0  0  0  0  0  0  0  0
   -3.7586   -0.8910    2.5521 H   0  0  0  0  0  0  0  0  0  0  0  0
   -3.6811   -1.4205   -0.8216 H   0  0  0  0  0  0  0  0  0  0  0  0
   -0.6961   -4.6353   -2.3690 H   0  0  0  0  0  0  0  0  0  0  0  0
   -0.9816   -5.3192   -0.7333 H   0  0  0  0  0  0  0  0  0  0  0  0
    0.5475   -4.4637   -1.1000 H   0  0  0  0  0  0  0  0  0  0  0  0
  1  2  1  0
  2  3  1  0
  3  4  1  0
  4  5  1  0
  5  6  1  0
  6  7  1  0
  7  8  1  0
  8  9  1  0
  2 10  2  0
 10 11  1  0
 11 12  2  3
 12 13  1  0
 13 14  2  0
 14 15  1  0
 15 16  1  0
 15 17  2  0
 17 18  1  0
 17 19  1  0
 19 20  2  0
 20 21  1  0
 11 22  1  0
 22 23  1  0
 23 24  2  0
 24 25  1  0
 25 26  1  0
 25 27  1  0
 27  1  1  0
 20 13  1  0
 27 22  2  0
  1 28  1  0
  3 29  1  0
  4 30  1  0
  4 31  1  0
  5 32  1  0
  5 33  1  0
  6 34  1  0
  6 35  1  0
  7 36  1  0
  7 37  1  0
  8 38  1  0
  8 39  1  0
  9 40  1  0
  9 41  1  0
  9 42  1  0
 14 43  1  0
 16 44  1  0
 16 45  1  0
 16 46  1  0
 19 47  1  0
 21 48  1  0
 21 49  1  0
 21 50  1  0
 23 51  1  0
 26 52  1  0
 26 53  1  0
 26 54  1  0
M  END
>  <ScrubInfo>  (6) 
{"isomerGroup": 0, "isomerId": 5, "confId": 0, "nr_conformers:": 1, "nr_isomers:": 9}

$$$$
_i6
     RDKit          3D

 54 56  0  0  0  0  0  0  0  0999 V2000
    1.8176   -4.1394   -2.7674 N   0  0  0  0  0  0  0  0  0  0  0  0
    2.5060   -3.2669   -1.9314 C   0  0  0  0  0  0  0  0  0  0  0  0
    1.6926   -2.5107   -1.1807 C   0  0  0  0  0  0  0  0  0  0  0  0
    1.8002   -1.4438   -0.1796 C   0  0  0  0  0  0  0  0  0  0  0  0
    3.0556   -1.0319    0.2327 N   0  0  0  0  0  0  0  0  0  0  0  0
    3.4317    0.0564    1.0525 C   0  0  0  0  0  0  0  0  0  0  0  0
    2.5347    1.0717    1.4253 C   0  0  0  0  0  0  0  0  0  0  0  0
    2.9020    2.1399    2.2666 C   0  0  0  0  0  0  0  0  0  0  0  0
    1.8764    3.1850    2.6076 C   0  0  0  0  0  0  0  0  0  0  0  0
    4.2097    2.1836    2.7536 C   0  0  0  0  0  0  0  0  0  0  0  0
    4.8188    3.5775    3.8902 Br  0  0  0  0  0  0  0  0  0  0  0  0
    5.1197    1.1816    2.4129 C   0  0  0  0  0  0  0  0  0  0  0  0
    4.7441    0.1135    1.5776 C   0  0  0  0  0  0  0  0  0  0  0  0
    5.7740   -0.9423    1.2713 C   0  0  0  0  0  0  0  0  0  0  0  0
    0.6831   -0.9564    0.2755 N   0  0  0  0  0  0  0  0  0  0  0  0
   -0.5235   -1.4167   -0.1973 C   0  0  0  0  0  0  0  0  0  0  0  0
   -1.5371   -0.7718    0.2621 N   0  0  0  0  0  0  0  0  0  0  0  0
   -2.8649   -1.1846   -0.1822 C   0  0  0  0  0  0  0  0  0  0  0  0
   -3.9107   -0.2742    0.4644 C   0  0  0  0  0  0  0  0  0  0  0  0
   -3.8270    1.1689   -0.0447 C   0  0  0  0  0  0  0  0  0  0  0  0
   -4.9148    2.0411    0.5869 C   0  0  0  0  0  0  0  0  0  0  0  0
   -4.8109    3.5170    0.1966 C   0  0  0  0  0  0  0  0  0  0  0  0
   -5.0556    3.7730   -1.2824 C   0  0  0  0  0  0  0  0  0  0  0  0
   -0.7201   -2.4567   -1.0770 N   0  0  0  0  0  0  0  0  0  0  0  0
    0.3463   -2.9991   -1.5501 C   0  0  0  0  0  0  0  0  0  0  0  0
    0.4670   -4.0619   -2.4459 N   0  0  0  0  0  0  0  0  0  0  0  0
   -0.5227   -4.2776   -3.4846 C   0  0  0  0  0  0  0  0  0  0  0  0
    2.2162   -5.0809   -2.8009 H   0  0  0  0  0  0  0  0  0  0  0  0
    3.5856   -3.2714   -1.9556 H   0  0  0  0  0  0  0  0  0  0  0  0
    3.8424   -1.5221   -0.1659 H   0  0  0  0  0  0  0  0  0  0  0  0
    1.5149    1.0602    1.0473 H   0  0  0  0  0  0  0  0  0  0  0  0
    0.9118    2.9738    2.1334 H   0  0  0  0  0  0  0  0  0  0  0  0
    2.2021    4.1694    2.2567 H   0  0  0  0  0  0  0  0  0  0  0  0
    1.7063    3.2156    3.6886 H   0  0  0  0  0  0  0  0  0  0  0  0
    6.1329    1.2258    2.8078 H   0  0  0  0  0  0  0  0  0  0  0  0
    6.7006   -0.7800    1.8323 H   0  0  0  0  0  0  0  0  0  0  0  0
    5.3984   -1.9331    1.5470 H   0  0  0  0  0  0  0  0  0  0  0  0
    6.0249   -0.9273    0.2059 H   0  0  0  0  0  0  0  0  0  0  0  0
   -2.9560   -1.1254   -1.2736 H   0  0  0  0  0  0  0  0  0  0  0  0
   -3.0661   -2.2161    0.1317 H   0  0  0  0  0  0  0  0  0  0  0  0
   -4.9075   -0.6758    0.2450 H   0  0  0  0  0  0  0  0  0  0  0  0
   -3.7890   -0.2880    1.5545 H   0  0  0  0  0  0  0  0  0  0  0  0
   -2.8423    1.5909    0.1881 H   0  0  0  0  0  0  0  0  0  0  0  0
   -3.9321    1.1698   -1.1354 H   0  0  0  0  0  0  0  0  0  0  0  0
   -5.9043    1.6567    0.3110 H   0  0  0  0  0  0  0  0  0  0  0  0
   -4.8416    1.9702    1.6793 H   0  0  0  0  0  0  0  0  0  0  0  0
   -5.5523    4.0816    0.7747 H   0  0  0  0  0  0  0  0  0  0  0  0
   -3.8261    3.9088    0.4766 H   0  0  0  0  0  0  0  0  0  0  0  0
   -5.0649    4.8497   -1.4803 H   0  0  0  0  0  0  0  0  0  0  0  0
   -6.0197    3.3623   -1.5984 H   0  0  0  0  0  0  0  0  0  0  0  0
   -4.2702    3.3301   -1.9017 H   0  0  0  0  0  0  0  0  0  0  0  0
   -0.5211   -3.4496   -4.2012 H   0  0  0  0  0  0  0  0  0  0  0  0
   -1.5240   -4.3643   -3.0508 H   0  0  0  0  0  0  0  0  0  0  0  0
   -0.3110   -5.2060   -4.0250 H   0  0  0  0  0  0  0  0  0  0  0  0
  1  2  1  0
  2  3  2  0
  3  4  1  0
  4  5  1  0
  5  6  1  0
  6  7  2  0
  7  8  1  0
  8  9  1  0
  8 10  2  0
 10 11  1  0
 10 12  1  0
 12 13  2  0
 13 14  1  0
  4 15  2  0
 15 16  1  0
 16 17  2  3
 17 18  1  0
 18 19  1  0
 19 20  1  0
 20 21  1  0
 21 22  1  0
 22 23  1  0
 16 24  1  0
 24 25  2  0
 25 26  1  0
 26 27  1  0
 26  1  1  0
 25  3  1  0
 13  6  1  0
  1 28  1  0
  2 29  1  0
  5 30  1  0
  7 31  1  0
  9 32  1  0
  9 33  1  0
  9 34  1  0
 12 35  1  0
 14 36  1  0
 14 37  1  0
 14 38  1  0
 18 39  1  0
 18 40  1  0
 19 41  1  0
 19 42  1  0
 20 43  1  0
 20 44  1  0
 21 45  1  0
 21 46  1  0
 22 47  1  0
 22 48  1  0
 23 49  1  0
 23 50  1  0
 23 51  1  0
 27 52  1  0
 27 53  1  0
 27 54  1  0
M  END
>  <ScrubInfo>  (7) 
{"isomerGroup": 0, "isomerId": 6, "confId": 0, "nr_conformers:": 1, "nr_isomers:": 9}

$$$$
_i7
     RDKit          3D

 54 56  0  0  0  0  0  0  0  0999 V2000
   -0.6684   -4.3267   -0.4291 N   0  0  0  0  0  0  0  0  0  0  0  0
   -1.7966   -3.5316   -0.2595 C   0  0  0  0  0  0  0  0  0  0  0  0
   -1.5172   -2.2230   -0.2681 C   0  0  0  0  0  0  0  0  0  0  0  0
   -2.2323   -0.9551   -0.1064 C   0  0  0  0  0  0  0  0  0  0  0  0
   -3.5214   -0.9672    0.0612 N   0  0  0  0  0  0  0  0  0  0  0  0
   -4.1887    0.2567    0.2180 C   0  0  0  0  0  0  0  0  0  0  0  0
   -4.3481    0.7835    1.5068 C   0  0  0  0  0  0  0  0  0  0  0  0
   -4.9968    2.0096    1.7250 C   0  0  0  0  0  0  0  0  0  0  0  0
   -5.1321    2.5271    3.1290 C   0  0  0  0  0  0  0  0  0  0  0  0
   -5.4971    2.7020    0.6143 C   0  0  0  0  0  0  0  0  0  0  0  0
   -6.3859    4.3718    0.7889 Br  0  0  0  0  0  0  0  0  0  0  0  0
   -5.3588    2.1760   -0.6753 C   0  0  0  0  0  0  0  0  0  0  0  0
   -4.7173    0.9461   -0.8837 C   0  0  0  0  0  0  0  0  0  0  0  0
   -4.5815    0.3984   -2.2763 C   0  0  0  0  0  0  0  0  0  0  0  0
   -1.3874    0.1246   -0.1553 N   0  0  0  0  0  0  0  0  0  0  0  0
   -0.0302    0.0943   -0.3373 C   0  0  0  0  0  0  0  0  0  0  0  0
    0.6097    1.2173   -0.3154 N   0  0  0  0  0  0  0  0  0  0  0  0
    2.0604    1.2010   -0.5210 C   0  0  0  0  0  0  0  0  0  0  0  0
    2.7694    1.0282    0.8222 C   0  0  0  0  0  0  0  0  0  0  0  0
    4.2956    1.0922    0.7158 C   0  0  0  0  0  0  0  0  0  0  0  0
    4.8932   -0.0883   -0.0552 C   0  0  0  0  0  0  0  0  0  0  0  0
    6.4209   -0.1481    0.0236 C   0  0  0  0  0  0  0  0  0  0  0  0
    7.1087    1.0316   -0.6458 C   0  0  0  0  0  0  0  0  0  0  0  0
    0.6501   -1.0906   -0.5360 N   0  0  0  0  0  0  0  0  0  0  0  0
   -0.0430   -2.1859   -0.5194 C   0  0  0  0  0  0  0  0  0  0  0  0
    0.4127   -3.4931   -0.7102 N   0  0  0  0  0  0  0  0  0  0  0  0
    1.7395   -3.8893   -0.2781 C   0  0  0  0  0  0  0  0  0  0  0  0
   -0.8162   -5.1051   -1.0756 H   0  0  0  0  0  0  0  0  0  0  0  0
   -2.7663   -3.9940   -0.1388 H   0  0  0  0  0  0  0  0  0  0  0  0
   -3.9553    0.2169    2.3492 H   0  0  0  0  0  0  0  0  0  0  0  0
   -6.1878    2.6327    3.3984 H   0  0  0  0  0  0  0  0  0  0  0  0
   -4.6782    1.8429    3.8542 H   0  0  0  0  0  0  0  0  0  0  0  0
   -4.6258    3.4921    3.2322 H   0  0  0  0  0  0  0  0  0  0  0  0
   -5.7592    2.7236   -1.5262 H   0  0  0  0  0  0  0  0  0  0  0  0
   -5.2014    0.9556   -2.9868 H   0  0  0  0  0  0  0  0  0  0  0  0
   -3.5410    0.4667   -2.6088 H   0  0  0  0  0  0  0  0  0  0  0  0
   -4.9074   -0.6462   -2.3133 H   0  0  0  0  0  0  0  0  0  0  0  0
   -1.7688    1.0505   -0.0329 H   0  0  0  0  0  0  0  0  0  0  0  0
    2.3676    0.4440   -1.2506 H   0  0  0  0  0  0  0  0  0  0  0  0
    2.3437    2.1657   -0.9583 H   0  0  0  0  0  0  0  0  0  0  0  0
    2.4352    1.8211    1.5036 H   0  0  0  0  0  0  0  0  0  0  0  0
    2.4739    0.0810    1.2893 H   0  0  0  0  0  0  0  0  0  0  0  0
    4.7087    1.1022    1.7319 H   0  0  0  0  0  0  0  0  0  0  0  0
    4.5849    2.0386    0.2449 H   0  0  0  0  0  0  0  0  0  0  0  0
    4.5912   -0.0450   -1.1077 H   0  0  0  0  0  0  0  0  0  0  0  0
    4.4922   -1.0246    0.3523 H   0  0  0  0  0  0  0  0  0  0  0  0
    6.7578   -1.0708   -0.4638 H   0  0  0  0  0  0  0  0  0  0  0  0
    6.7387   -0.2095    1.0710 H   0  0  0  0  0  0  0  0  0  0  0  0
    6.7872    1.1350   -1.6870 H   0  0  0  0  0  0  0  0  0  0  0  0
    8.1938    0.8866   -0.6392 H   0  0  0  0  0  0  0  0  0  0  0  0
    6.8970    1.9688   -0.1229 H   0  0  0  0  0  0  0  0  0  0  0  0
    1.9519   -4.9159   -0.5936 H   0  0  0  0  0  0  0  0  0  0  0  0
    1.8258   -3.8351    0.8121 H   0  0  0  0  0  0  0  0  0  0  0  0
    2.5002   -3.2392   -0.7225 H   0  0  0  0  0  0  0  0  0  0  0  0
  1  2  1  0
  2  3  2  0
  3  4  1  0
  4  5  2  3
  5  6  1  0
  6  7  2  0
  7  8  1  0
  8  9  1  0
  8 10  2  0
 10 11  1  0
 10 12  1  0
 12 13  2  0
 13 14  1  0
  4 15  1  0
 15 16  1  0
 16 17  2  3
 17 18  1  0
 18 19  1  0
 19 20  1  0
 20 21  1  0
 21 22  1  0
 22 23  1  0
 16 24  1  0
 24 25  2  0
 25 26  1  0
 26 27  1  0
 26  1  1  0
 25  3  1  0
 13  6  1  0
  1 28  1  0
  2 29  1  0
  7 30  1  0
  9 31  1  0
  9 32  1  0
  9 33  1  0
 12 34  1  0
 14 35  1  0
 14 36  1  0
 14 37  1  0
 15 38  1  0
 18 39  1  0
 18 40  1  0
 19 41  1  0
 19 42  1  0
 20 43  1  0
 20 44  1  0
 21 45  1  0
 21 46  1  0
 22 47  1  0
 22 48  1  0
 23 49  1  0
 23 50  1  0
 23 51  1  0
 27 52  1  0
 27 53  1  0
 27 54  1  0
M  END
>  <ScrubInfo>  (8) 
{"isomerGroup": 0, "isomerId": 7, "confId": 0, "nr_conformers:": 1, "nr_isomers:": 9}

$$$$
_i8
     RDKit          3D

 54 56  0  0  0  0  0  0  0  0999 V2000
    0.6548    0.1950   -1.5753 N   0  0  0  0  0  0  0  0  0  0  0  0
    0.0574    0.2826   -0.3260 C   0  0  0  0  0  0  0  0  0  0  0  0
    0.6281    0.3895    0.8253 N   0  0  0  0  0  0  0  0  0  0  0  0
    2.0834    0.4613    0.9216 C   0  0  0  0  0  0  0  0  0  0  0  0
    2.6672   -0.9480    1.0074 C   0  0  0  0  0  0  0  0  0  0  0  0
    4.1984   -0.9717    1.0136 C   0  0  0  0  0  0  0  0  0  0  0  0
    4.8087   -0.3059    2.2497 C   0  0  0  0  0  0  0  0  0  0  0  0
    6.3210   -0.5153    2.3622 C   0  0  0  0  0  0  0  0  0  0  0  0
    7.1093    0.1445    1.2413 C   0  0  0  0  0  0  0  0  0  0  0  0
   -1.3227    0.2376   -0.3672 N   0  0  0  0  0  0  0  0  0  0  0  0
   -2.1964    0.1196   -1.4298 C   0  0  0  0  0  0  0  0  0  0  0  0
   -3.4869    0.0741   -1.4731 N   0  0  0  0  0  0  0  0  0  0  0  0
   -4.1872    0.1561   -0.2610 C   0  0  0  0  0  0  0  0  0  0  0  0
   -4.5578    1.4165    0.2267 C   0  0  0  0  0  0  0  0  0  0  0  0
   -5.2494    1.5611    1.4402 C   0  0  0  0  0  0  0  0  0  0  0  0
   -5.6155    2.9388    1.9150 C   0  0  0  0  0  0  0  0  0  0  0  0
   -5.5746    0.4038    2.1602 C   0  0  0  0  0  0  0  0  0  0  0  0
   -6.5016    0.4791    3.8167 Br  0  0  0  0  0  0  0  0  0  0  0  0
   -5.2251   -0.8608    1.6729 C   0  0  0  0  0  0  0  0  0  0  0  0
   -4.5422   -0.9971    0.4553 C   0  0  0  0  0  0  0  0  0  0  0  0
   -4.1797   -2.3643   -0.0520 C   0  0  0  0  0  0  0  0  0  0  0  0
   -1.4756    0.0324   -2.6770 C   0  0  0  0  0  0  0  0  0  0  0  0
   -1.8367   -0.1037   -4.0251 C   0  0  0  0  0  0  0  0  0  0  0  0
   -0.7681   -0.1467   -4.8357 N   0  0  0  0  0  0  0  0  0  0  0  0
    0.2856   -0.0311   -3.9911 N   0  0  0  0  0  0  0  0  0  0  0  0
    1.6191   -0.0413   -4.5371 C   0  0  0  0  0  0  0  0  0  0  0  0
   -0.1029    0.0742   -2.6898 C   0  0  0  0  0  0  0  0  0  0  0  0
    1.6646    0.1929   -1.6051 H   0  0  0  0  0  0  0  0  0  0  0  0
    2.3231    1.0201    1.8327 H   0  0  0  0  0  0  0  0  0  0  0  0
    2.5263    1.0299    0.0961 H   0  0  0  0  0  0  0  0  0  0  0  0
    2.2839   -1.4518    1.9036 H   0  0  0  0  0  0  0  0  0  0  0  0
    2.3202   -1.5414    0.1525 H   0  0  0  0  0  0  0  0  0  0  0  0
    4.5671   -0.4869    0.1024 H   0  0  0  0  0  0  0  0  0  0  0  0
    4.5244   -2.0183    0.9713 H   0  0  0  0  0  0  0  0  0  0  0  0
    4.3376   -0.7187    3.1502 H   0  0  0  0  0  0  0  0  0  0  0  0
    4.5959    0.7692    2.2433 H   0  0  0  0  0  0  0  0  0  0  0  0
    6.5489   -1.5873    2.3863 H   0  0  0  0  0  0  0  0  0  0  0  0
    6.6590   -0.0984    3.3184 H   0  0  0  0  0  0  0  0  0  0  0  0
    8.1834    0.0409    1.4264 H   0  0  0  0  0  0  0  0  0  0  0  0
    6.8943   -0.3180    0.2736 H   0  0  0  0  0  0  0  0  0  0  0  0
    6.8787    1.2124    1.1744 H   0  0  0  0  0  0  0  0  0  0  0  0
   -1.7441    0.2979    0.5484 H   0  0  0  0  0  0  0  0  0  0  0  0
   -4.2982    2.2953   -0.3610 H   0  0  0  0  0  0  0  0  0  0  0  0
   -5.1459    3.1484    2.8813 H   0  0  0  0  0  0  0  0  0  0  0  0
   -6.7021    3.0377    2.0026 H   0  0  0  0  0  0  0  0  0  0  0  0
   -5.2742    3.7084    1.2141 H   0  0  0  0  0  0  0  0  0  0  0  0
   -5.4923   -1.7498    2.2408 H   0  0  0  0  0  0  0  0  0  0  0  0
   -4.6825   -3.1497    0.5223 H   0  0  0  0  0  0  0  0  0  0  0  0
   -3.1000   -2.5234    0.0306 H   0  0  0  0  0  0  0  0  0  0  0  0
   -4.4859   -2.4816   -1.0967 H   0  0  0  0  0  0  0  0  0  0  0  0
   -2.8295   -0.1756   -4.4509 H   0  0  0  0  0  0  0  0  0  0  0  0
    2.3358    0.2732   -3.7758 H   0  0  0  0  0  0  0  0  0  0  0  0
    1.8444   -1.0580   -4.8682 H   0  0  0  0  0  0  0  0  0  0  0  0
    1.6561    0.6525   -5.3811 H   0  0  0  0  0  0  0  0  0  0  0  0
  1  2  1  0
  2  3  2  3
  3  4  1  0
  4  5  1  0
  5  6  1  0
  6  7  1  0
  7  8  1  0
  8  9  1  0
  2 10  1  0
 10 11  1  0
 11 12  2  3
 12 13  1  0
 13 14  2  0
 14 15  1  0
 15 16  1  0
 15 17  2  0
 17 18  1  0
 17 19  1  0
 19 20  2  0
 20 21  1  0
 11 22  1  0
 22 23  1  0
 23 24  2  0
 24 25  1  0
 25 26  1  0
 25 27  1  0
 27  1  1  0
 20 13  1  0
 27 22  2  0
  1 28  1  0
  4 29  1  0
  4 30  1  0
  5 31  1  0
  5 32  1  0
  6 33  1  0
  6 34  1  0
  7 35  1  0
  7 36  1  0
  8 37  1  0
  8 38  1  0
  9 39  1  0
  9 40  1  0
  9 41  1  0
 10 42  1  0
 14 43  1  0
 16 44  1  0
 16 45  1  0
 16 46  1  0
 19 47  1  0
 21 48  1  0
 21 49  1  0
 21 50  1  0
 23 51  1  0
 26 52  1  0
 26 53  1  0
 26 54  1  0
M  END
>  <ScrubInfo>  (9) 
{"isomerGroup": 0, "isomerId": 8, "confId": 0, "nr_conformers:": 1, "nr_isomers:": 9}

$$$$
