_i0
     RDKit          3D

 43 45  0  0  0  0  0  0  0  0999 V2000
    6.0731    2.4904    1.0430 C   0  0  0  0  0  0  0  0  0  0  0  0
    5.2701    1.2225    1.1500 C   0  0  0  0  0  0  0  0  0  0  0  0
    4.7687    0.8526    2.2063 O   0  0  0  0  0  0  0  0  0  0  0  0
    5.1340    0.5354   -0.0329 N   0  0  0  0  0  0  0  0  0  0  0  0
    4.3497   -0.6838   -0.1118 C   0  0  0  0  0  0  0  0  0  0  0  0
    2.8342   -0.4275   -0.1135 C   0  0  0  0  0  0  0  0  0  0  0  0
    2.1199   -1.6900   -0.2575 N   0  0  0  0  0  0  0  0  0  0  0  0
    0.7346   -1.5502   -0.2888 C   0  0  0  0  0  0  0  0  0  0  0  0
    0.1864   -0.5107   -0.9449 N   0  0  0  0  0  0  0  0  0  0  0  0
   -1.1619   -0.3587   -0.9875 C   0  0  0  0  0  0  0  0  0  0  0  0
   -1.6290    0.7704   -1.6972 N   0  0  0  0  0  0  0  0  0  0  0  0
   -2.7570    1.5350   -1.3182 C   0  0  0  0  0  0  0  0  0  0  0  0
   -3.9705    1.3086   -1.9833 C   0  0  0  0  0  0  0  0  0  0  0  0
   -5.1259    2.0033   -1.6202 C   0  0  0  0  0  0  0  0  0  0  0  0
   -5.0832    2.9319   -0.5827 C   0  0  0  0  0  0  0  0  0  0  0  0
   -3.8851    3.1700    0.0908 C   0  0  0  0  0  0  0  0  0  0  0  0
   -2.7279    2.4751   -0.2735 C   0  0  0  0  0  0  0  0  0  0  0  0
   -1.1246    2.8609    0.6699 Br  0  0  0  0  0  0  0  0  0  0  0  0
   -1.9448   -1.3136   -0.3338 C   0  0  0  0  0  0  0  0  0  0  0  0
   -3.3051   -1.5971   -0.0923 C   0  0  0  0  0  0  0  0  0  0  0  0
   -3.4893   -2.7067    0.6336 N   0  0  0  0  0  0  0  0  0  0  0  0
   -2.2278   -3.1373    0.8607 N   0  0  0  0  0  0  0  0  0  0  0  0
   -2.0169   -4.3378    1.6295 C   0  0  0  0  0  0  0  0  0  0  0  0
   -1.2686   -2.3370    0.3033 C   0  0  0  0  0  0  0  0  0  0  0  0
    0.0610   -2.5061    0.3603 N   0  0  0  0  0  0  0  0  0  0  0  0
    6.7969    2.5252    1.8620 H   0  0  0  0  0  0  0  0  0  0  0  0
    5.3982    3.3477    1.1094 H   0  0  0  0  0  0  0  0  0  0  0  0
    6.6224    2.5420    0.0989 H   0  0  0  0  0  0  0  0  0  0  0  0
    5.4666    0.9498   -0.8940 H   0  0  0  0  0  0  0  0  0  0  0  0
    4.6200   -1.3277    0.7336 H   0  0  0  0  0  0  0  0  0  0  0  0
    4.6497   -1.1999   -1.0306 H   0  0  0  0  0  0  0  0  0  0  0  0
    2.6045    0.2501   -0.9459 H   0  0  0  0  0  0  0  0  0  0  0  0
    2.5373    0.0743    0.8159 H   0  0  0  0  0  0  0  0  0  0  0  0
    2.2951   -2.3538    0.4919 H   0  0  0  0  0  0  0  0  0  0  0  0
   -0.7992    1.3639   -1.7476 H   0  0  0  0  0  0  0  0  0  0  0  0
   -4.0141    0.5846   -2.7945 H   0  0  0  0  0  0  0  0  0  0  0  0
   -6.0587    1.8176   -2.1473 H   0  0  0  0  0  0  0  0  0  0  0  0
   -5.9832    3.4722   -0.2986 H   0  0  0  0  0  0  0  0  0  0  0  0
   -3.8631    3.8986    0.8975 H   0  0  0  0  0  0  0  0  0  0  0  0
   -4.1771   -1.0439   -0.4121 H   0  0  0  0  0  0  0  0  0  0  0  0
   -2.4488   -4.1902    2.6226 H   0  0  0  0  0  0  0  0  0  0  0  0
   -0.9480   -4.5440    1.7179 H   0  0  0  0  0  0  0  0  0  0  0  0
   -2.5124   -5.1660    1.1165 H   0  0  0  0  0  0  0  0  0  0  0  0
  1  2  1  0
  2  3  2  0
  2  4  1  0
  4  5  1  0
  5  6  1  0
  6  7  1  0
  7  8  1  0
  8  9  2  0
  9 10  1  0
 10 11  1  0
 11 12  1  0
 12 13  2  0
 13 14  1  0
 14 15  2  0
 15 16  1  0
 16 17  2  0
 17 18  1  0
 10 19  2  0
 19 20  1  0
 20 21  2  0
 21 22  1  0
 22 23  1  0
 22 24  1  0
 24 25  2  0
 25  8  1  0
 17 12  1  0
 24 19  1  0
  1 26  1  0
  1 27  1  0
  1 28  1  0
  4 29  1  0
  5 30  1  0
  5 31  1  0
  6 32  1  0
  6 33  1  0
  7 34  1  0
 11 35  1  0
 13 36  1  0
 14 37  1  0
 15 38  1  0
 16 39  1  0
 20 40  1  0
 23 41  1  0
 23 42  1  0
 23 43  1  0
M  END
>  <ScrubInfo>  (1) 
{"isomerGroup": 0, "isomerId": 0, "confId": 0, "nr_conformers:": 1, "nr_isomers:": 9}

$$$$
_i1
     RDKit          3D

 43 45  0  0  0  0  0  0  0  0999 V2000
    0.1729    0.2840    0.8908 N   0  0  0  0  0  0  0  0  0  0  0  0
   -1.1558    0.0281    1.1610 C   0  0  0  0  0  0  0  0  0  0  0  0
   -1.9461    0.9714    1.7825 N   0  0  0  0  0  0  0  0  0  0  0  0
   -3.1781    1.5119    1.3350 C   0  0  0  0  0  0  0  0  0  0  0  0
   -3.7620    1.1544    0.1102 C   0  0  0  0  0  0  0  0  0  0  0  0
   -5.0079    1.6620   -0.2739 C   0  0  0  0  0  0  0  0  0  0  0  0
   -5.7002    2.5316    0.5636 C   0  0  0  0  0  0  0  0  0  0  0  0
   -5.1475    2.8988    1.7874 C   0  0  0  0  0  0  0  0  0  0  0  0
   -3.9016    2.3907    2.1692 C   0  0  0  0  0  0  0  0  0  0  0  0
   -3.2057    2.9349    3.8553 Br  0  0  0  0  0  0  0  0  0  0  0  0
   -1.5687   -1.2078    0.8533 C   0  0  0  0  0  0  0  0  0  0  0  0
   -2.7826   -2.0176    1.0026 C   0  0  0  0  0  0  0  0  0  0  0  0
   -2.6463   -3.2334    0.5347 N   0  0  0  0  0  0  0  0  0  0  0  0
   -1.3434   -3.2906    0.0101 N   0  0  0  0  0  0  0  0  0  0  0  0
   -0.7666   -4.5827   -0.2747 C   0  0  0  0  0  0  0  0  0  0  0  0
   -0.6072   -2.1354    0.2195 C   0  0  0  0  0  0  0  0  0  0  0  0
    0.6287   -1.8721   -0.0414 N   0  0  0  0  0  0  0  0  0  0  0  0
    1.0372   -0.6024    0.3002 C   0  0  0  0  0  0  0  0  0  0  0  0
    2.2496   -0.2175    0.0635 N   0  0  0  0  0  0  0  0  0  0  0  0
    3.1391   -1.2136   -0.5600 C   0  0  0  0  0  0  0  0  0  0  0  0
    4.5375   -0.6090   -0.7025 C   0  0  0  0  0  0  0  0  0  0  0  0
    4.5020    0.6256   -1.4650 N   0  0  0  0  0  0  0  0  0  0  0  0
    5.6564    1.2182   -1.9140 C   0  0  0  0  0  0  0  0  0  0  0  0
    5.4494    2.5757   -2.5296 C   0  0  0  0  0  0  0  0  0  0  0  0
    6.7677    0.7062   -1.8263 O   0  0  0  0  0  0  0  0  0  0  0  0
    0.5363    1.2062    1.0722 H   0  0  0  0  0  0  0  0  0  0  0  0
   -1.4274    1.6547    2.3300 H   0  0  0  0  0  0  0  0  0  0  0  0
   -3.2506    0.4954   -0.5862 H   0  0  0  0  0  0  0  0  0  0  0  0
   -5.4356    1.3769   -1.2328 H   0  0  0  0  0  0  0  0  0  0  0  0
   -6.6687    2.9238    0.2625 H   0  0  0  0  0  0  0  0  0  0  0  0
   -5.6938    3.5775    2.4376 H   0  0  0  0  0  0  0  0  0  0  0  0
   -3.6816   -1.6140    1.4858 H   0  0  0  0  0  0  0  0  0  0  0  0
   -0.3545   -5.0255    0.6374 H   0  0  0  0  0  0  0  0  0  0  0  0
    0.0358   -4.4971   -1.0144 H   0  0  0  0  0  0  0  0  0  0  0  0
   -1.5224   -5.2633   -0.6798 H   0  0  0  0  0  0  0  0  0  0  0  0
    2.7629   -1.4825   -1.5548 H   0  0  0  0  0  0  0  0  0  0  0  0
    3.2102   -2.1174    0.0564 H   0  0  0  0  0  0  0  0  0  0  0  0
    5.2141   -1.3158   -1.1948 H   0  0  0  0  0  0  0  0  0  0  0  0
    4.9548   -0.3694    0.2823 H   0  0  0  0  0  0  0  0  0  0  0  0
    3.6870    1.2036   -1.2985 H   0  0  0  0  0  0  0  0  0  0  0  0
    5.8377    3.3394   -1.8508 H   0  0  0  0  0  0  0  0  0  0  0  0
    5.9839    2.6214   -3.4825 H   0  0  0  0  0  0  0  0  0  0  0  0
    4.3912    2.7746   -2.7213 H   0  0  0  0  0  0  0  0  0  0  0  0
  1  2  1  0
  2  3  1  0
  3  4  1  0
  4  5  2  0
  5  6  1  0
  6  7  2  0
  7  8  1  0
  8  9  2  0
  9 10  1  0
  2 11  2  0
 11 12  1  0
 12 13  2  0
 13 14  1  0
 14 15  1  0
 14 16  1  0
 16 17  2  0
 17 18  1  0
 18 19  2  3
 19 20  1  0
 20 21  1  0
 21 22  1  0
 22 23  1  0
 23 24  1  0
 23 25  2  0
 18  1  1  0
  9  4  1  0
 16 11  1  0
  1 26  1  0
  3 27  1  0
  5 28  1  0
  6 29  1  0
  7 30  1  0
  8 31  1  0
 12 32  1  0
 15 33  1  0
 15 34  1  0
 15 35  1  0
 20 36  1  0
 20 37  1  0
 21 38  1  0
 21 39  1  0
 22 40  1  0
 24 41  1  0
 24 42  1  0
 24 43  1  0
M  END
>  <ScrubInfo>  (2) 
{"isomerGroup": 0, "isomerId": 1, "confId": 0, "nr_conformers:": 1, "nr_isomers:": 9}

$$$$
_i2
     RDKit          3D

 43 45  0  0  0  0  0  0  0  0999 V2000
   -0.4711    1.2333   -0.0598 N   0  0  0  0  0  0  0  0  0  0  0  0
    0.6329    0.4223    0.0544 C   0  0  0  0  0  0  0  0  0  0  0  0
    1.8086    1.1264    0.0433 N   0  0  0  0  0  0  0  0  0  0  0  0
    3.0895    0.4244    0.0023 C   0  0  0  0  0  0  0  0  0  0  0  0
    4.2251    1.3698    0.4184 C   0  0  0  0  0  0  0  0  0  0  0  0
    5.5324    0.7417    0.3798 N   0  0  0  0  0  0  0  0  0  0  0  0
    6.1845    0.5306   -0.8124 C   0  0  0  0  0  0  0  0  0  0  0  0
    7.5054   -0.1778   -0.6831 C   0  0  0  0  0  0  0  0  0  0  0  0
    5.7269    0.8728   -1.8977 O   0  0  0  0  0  0  0  0  0  0  0  0
    0.5672   -0.8778    0.1766 N   0  0  0  0  0  0  0  0  0  0  0  0
   -0.7203   -1.3240    0.1576 C   0  0  0  0  0  0  0  0  0  0  0  0
   -1.8894   -0.5857    0.0542 C   0  0  0  0  0  0  0  0  0  0  0  0
   -2.9117   -1.5507    0.0734 C   0  0  0  0  0  0  0  0  0  0  0  0
   -2.4441   -2.8011    0.1798 N   0  0  0  0  0  0  0  0  0  0  0  0
   -1.1033   -2.6333    0.2358 N   0  0  0  0  0  0  0  0  0  0  0  0
   -0.2514   -3.7894    0.3554 C   0  0  0  0  0  0  0  0  0  0  0  0
   -1.7947    0.8574   -0.0418 C   0  0  0  0  0  0  0  0  0  0  0  0
   -2.7486    1.7366   -0.0977 N   0  0  0  0  0  0  0  0  0  0  0  0
   -4.1003    1.3706   -0.0449 C   0  0  0  0  0  0  0  0  0  0  0  0
   -4.7922    1.1870   -1.2488 C   0  0  0  0  0  0  0  0  0  0  0  0
   -6.1474    0.8497   -1.2507 C   0  0  0  0  0  0  0  0  0  0  0  0
   -6.8316    0.7082   -0.0451 C   0  0  0  0  0  0  0  0  0  0  0  0
   -6.1645    0.9123    1.1631 C   0  0  0  0  0  0  0  0  0  0  0  0
   -4.8075    1.2503    1.1635 C   0  0  0  0  0  0  0  0  0  0  0  0
   -3.9580    1.5301    2.8393 Br  0  0  0  0  0  0  0  0  0  0  0  0
   -0.3324    2.2281    0.0039 H   0  0  0  0  0  0  0  0  0  0  0  0
    1.7981    1.9215   -0.5868 H   0  0  0  0  0  0  0  0  0  0  0  0
    3.2577    0.0359   -1.0084 H   0  0  0  0  0  0  0  0  0  0  0  0
    3.0829   -0.4325    0.6871 H   0  0  0  0  0  0  0  0  0  0  0  0
    4.0670    1.7260    1.4424 H   0  0  0  0  0  0  0  0  0  0  0  0
    4.2422    2.2482   -0.2378 H   0  0  0  0  0  0  0  0  0  0  0  0
    5.8968    0.3290    1.2293 H   0  0  0  0  0  0  0  0  0  0  0  0
    8.2550    0.3525   -1.2769 H   0  0  0  0  0  0  0  0  0  0  0  0
    7.8484   -0.2060    0.3549 H   0  0  0  0  0  0  0  0  0  0  0  0
    7.3993   -1.2018   -1.0505 H   0  0  0  0  0  0  0  0  0  0  0  0
   -3.9826   -1.4190    0.0124 H   0  0  0  0  0  0  0  0  0  0  0  0
   -0.3571   -4.3878   -0.5530 H   0  0  0  0  0  0  0  0  0  0  0  0
    0.7888   -3.4803    0.4782 H   0  0  0  0  0  0  0  0  0  0  0  0
   -0.5693   -4.3635    1.2296 H   0  0  0  0  0  0  0  0  0  0  0  0
   -4.2666    1.3072   -2.1930 H   0  0  0  0  0  0  0  0  0  0  0  0
   -6.6682    0.7024   -2.1938 H   0  0  0  0  0  0  0  0  0  0  0  0
   -7.8871    0.4466   -0.0457 H   0  0  0  0  0  0  0  0  0  0  0  0
   -6.7095    0.8098    2.0980 H   0  0  0  0  0  0  0  0  0  0  0  0
  1  2  1  0
  2  3  1  0
  3  4  1  0
  4  5  1  0
  5  6  1  0
  6  7  1  0
  7  8  1  0
  7  9  2  0
  2 10  2  0
 10 11  1  0
 11 12  2  0
 12 13  1  0
 13 14  2  0
 14 15  1  0
 15 16  1  0
 12 17  1  0
 17 18  2  3
 18 19  1  0
 19 20  2  0
 20 21  1  0
 21 22  2  0
 22 23  1  0
 23 24  2  0
 24 25  1  0
 17  1  1  0
 24 19  1  0
 15 11  1  0
  1 26  1  0
  3 27  1  0
  4 28  1  0
  4 29  1  0
  5 30  1  0
  5 31  1  0
  6 32  1  0
  8 33  1  0
  8 34  1  0
  8 35  1  0
 13 36  1  0
 16 37  1  0
 16 38  1  0
 16 39  1  0
 20 40  1  0
 21 41  1  0
 22 42  1  0
 23 43  1  0
M  END
>  <ScrubInfo>  (3) 
{"isomerGroup": 0, "isomerId": 2, "confId": 0, "nr_conformers:": 1, "nr_isomers:": 9}

$$$$
_i3
     RDKit          3D

 43 45  0  0  0  0  0  0  0  0999 V2000
    0.6392   -1.8454   -0.6407 N   0  0  0  0  0  0  0  0  0  0  0  0
    0.9425   -0.7439   -1.4236 C   0  0  0  0  0  0  0  0  0  0  0  0
    2.0878   -0.4478   -1.9249 N   0  0  0  0  0  0  0  0  0  0  0  0
    3.2564   -1.2973   -1.6952 C   0  0  0  0  0  0  0  0  0  0  0  0
    3.9161   -0.9399   -0.3616 C   0  0  0  0  0  0  0  0  0  0  0  0
    4.1200    0.4892   -0.2434 N   0  0  0  0  0  0  0  0  0  0  0  0
    4.7701    1.0229    0.8413 C   0  0  0  0  0  0  0  0  0  0  0  0
    4.7403    2.5259    0.8995 C   0  0  0  0  0  0  0  0  0  0  0  0
    5.3228    0.3444    1.7016 O   0  0  0  0  0  0  0  0  0  0  0  0
   -0.0225    0.2012   -1.7362 N   0  0  0  0  0  0  0  0  0  0  0  0
   -1.2300    0.0803   -1.2587 C   0  0  0  0  0  0  0  0  0  0  0  0
   -2.2134    0.9979   -1.5349 N   0  0  0  0  0  0  0  0  0  0  0  0
   -3.0582    1.5815   -0.5540 C   0  0  0  0  0  0  0  0  0  0  0  0
   -4.4216    1.6825   -0.8819 C   0  0  0  0  0  0  0  0  0  0  0  0
   -5.3335    2.2802   -0.0102 C   0  0  0  0  0  0  0  0  0  0  0  0
   -4.8915    2.8162    1.1946 C   0  0  0  0  0  0  0  0  0  0  0  0
   -3.5361    2.7709    1.5182 C   0  0  0  0  0  0  0  0  0  0  0  0
   -2.6182    2.1734    0.6446 C   0  0  0  0  0  0  0  0  0  0  0  0
   -0.7866    2.2656    1.1457 Br  0  0  0  0  0  0  0  0  0  0  0  0
   -1.5919   -1.0628   -0.4526 C   0  0  0  0  0  0  0  0  0  0  0  0
   -2.7347   -1.5810    0.1755 C   0  0  0  0  0  0  0  0  0  0  0  0
   -2.4878   -2.7354    0.8149 N   0  0  0  0  0  0  0  0  0  0  0  0
   -1.1702   -2.9558    0.5893 N   0  0  0  0  0  0  0  0  0  0  0  0
   -0.5526   -4.1320    1.1467 C   0  0  0  0  0  0  0  0  0  0  0  0
   -0.6158   -1.9806   -0.1775 C   0  0  0  0  0  0  0  0  0  0  0  0
    1.3754   -2.5052   -0.4458 H   0  0  0  0  0  0  0  0  0  0  0  0
    3.0197   -2.3655   -1.7472 H   0  0  0  0  0  0  0  0  0  0  0  0
    3.9657   -1.1032   -2.5085 H   0  0  0  0  0  0  0  0  0  0  0  0
    4.8805   -1.4486   -0.2573 H   0  0  0  0  0  0  0  0  0  0  0  0
    3.2836   -1.2486    0.4783 H   0  0  0  0  0  0  0  0  0  0  0  0
    3.4508    1.0643   -0.7481 H   0  0  0  0  0  0  0  0  0  0  0  0
    5.7456    2.8954    1.1201 H   0  0  0  0  0  0  0  0  0  0  0  0
    4.4176    2.9592   -0.0514 H   0  0  0  0  0  0  0  0  0  0  0  0
    4.0497    2.8399    1.6865 H   0  0  0  0  0  0  0  0  0  0  0  0
   -1.7978    1.7475   -2.0856 H   0  0  0  0  0  0  0  0  0  0  0  0
   -4.7828    1.2712   -1.8230 H   0  0  0  0  0  0  0  0  0  0  0  0
   -6.3872    2.3285   -0.2748 H   0  0  0  0  0  0  0  0  0  0  0  0
   -5.5985    3.2833    1.8762 H   0  0  0  0  0  0  0  0  0  0  0  0
   -3.2009    3.2180    2.4515 H   0  0  0  0  0  0  0  0  0  0  0  0
   -3.7394   -1.1807    0.2015 H   0  0  0  0  0  0  0  0  0  0  0  0
   -0.7372   -4.1425    2.2239 H   0  0  0  0  0  0  0  0  0  0  0  0
    0.5229   -4.1128    0.9587 H   0  0  0  0  0  0  0  0  0  0  0  0
   -0.9984   -5.0104    0.6734 H   0  0  0  0  0  0  0  0  0  0  0  0
  1  2  1  0
  2  3  2  3
  3  4  1  0
  4  5  1  0
  5  6  1  0
  6  7  1  0
  7  8  1  0
  7  9  2  0
  2 10  1  0
 10 11  2  0
 11 12  1  0
 12 13  1  0
 13 14  2  0
 14 15  1  0
 15 16  2  0
 16 17  1  0
 17 18  2  0
 18 19  1  0
 11 20  1  0
 20 21  1  0
 21 22  2  0
 22 23  1  0
 23 24  1  0
 23 25  1  0
 25  1  1  0
 18 13  1  0
 25 20  2  0
  1 26  1  0
  4 27  1  0
  4 28  1  0
  5 29  1  0
  5 30  1  0
  6 31  1  0
  8 32  1  0
  8 33  1  0
  8 34  1  0
 12 35  1  0
 14 36  1  0
 15 37  1  0
 16 38  1  0
 17 39  1  0
 21 40  1  0
 24 41  1  0
 24 42  1  0
 24 43  1  0
M  END
>  <ScrubInfo>  (4) 
{"isomerGroup": 0, "isomerId": 3, "confId": 0, "nr_conformers:": 1, "nr_isomers:": 9}

$$$$
_i4
     RDKit          3D

 43 45  0  0  0  0  0  0  0  0999 V2000
   -2.0371    4.2951    0.6665 N   0  0  0  0  0  0  0  0  0  0  0  0
   -2.8326    3.1537    0.6769 C   0  0  0  0  0  0  0  0  0  0  0  0
   -2.1410    2.0369    0.4175 C   0  0  0  0  0  0  0  0  0  0  0  0
   -2.4144    0.6270    0.2702 C   0  0  0  0  0  0  0  0  0  0  0  0
   -3.5966    0.1284    0.4584 N   0  0  0  0  0  0  0  0  0  0  0  0
   -3.7719   -1.2551    0.2677 C   0  0  0  0  0  0  0  0  0  0  0  0
   -3.6741   -2.1035    1.3782 C   0  0  0  0  0  0  0  0  0  0  0  0
   -3.8611   -3.4815    1.2471 C   0  0  0  0  0  0  0  0  0  0  0  0
   -4.1602   -4.0279    0.0008 C   0  0  0  0  0  0  0  0  0  0  0  0
   -4.2776   -3.1966   -1.1135 C   0  0  0  0  0  0  0  0  0  0  0  0
   -4.0897   -1.8165   -0.9801 C   0  0  0  0  0  0  0  0  0  0  0  0
   -4.2876   -0.7373   -2.5321 Br  0  0  0  0  0  0  0  0  0  0  0  0
   -1.3259   -0.1266   -0.0819 N   0  0  0  0  0  0  0  0  0  0  0  0
   -0.1399    0.3895   -0.2352 C   0  0  0  0  0  0  0  0  0  0  0  0
    0.8422   -0.4851   -0.6009 N   0  0  0  0  0  0  0  0  0  0  0  0
    2.2404   -0.2590   -0.2854 C   0  0  0  0  0  0  0  0  0  0  0  0
    3.1237   -1.2465   -1.0605 C   0  0  0  0  0  0  0  0  0  0  0  0
    4.5442   -1.0222   -0.8611 N   0  0  0  0  0  0  0  0  0  0  0  0
    5.1712   -1.3955    0.3038 C   0  0  0  0  0  0  0  0  0  0  0  0
    6.6353   -1.0527    0.3590 C   0  0  0  0  0  0  0  0  0  0  0  0
    4.5925   -1.9457    1.2345 O   0  0  0  0  0  0  0  0  0  0  0  0
    0.1883    1.7091   -0.0542 N   0  0  0  0  0  0  0  0  0  0  0  0
   -0.7614    2.5148    0.2721 C   0  0  0  0  0  0  0  0  0  0  0  0
   -0.7113    3.8872    0.5265 N   0  0  0  0  0  0  0  0  0  0  0  0
    0.2123    4.7419   -0.1944 C   0  0  0  0  0  0  0  0  0  0  0  0
   -2.2330    4.9290    1.4447 H   0  0  0  0  0  0  0  0  0  0  0  0
   -3.8905    3.2368    0.8832 H   0  0  0  0  0  0  0  0  0  0  0  0
   -3.4449   -1.6806    2.3526 H   0  0  0  0  0  0  0  0  0  0  0  0
   -3.7743   -4.1247    2.1189 H   0  0  0  0  0  0  0  0  0  0  0  0
   -4.3069   -5.1000   -0.1026 H   0  0  0  0  0  0  0  0  0  0  0  0
   -4.5189   -3.6299   -2.0803 H   0  0  0  0  0  0  0  0  0  0  0  0
    0.5247   -1.4411   -0.4788 H   0  0  0  0  0  0  0  0  0  0  0  0
    2.3960   -0.3685    0.7936 H   0  0  0  0  0  0  0  0  0  0  0  0
    2.5367    0.7613   -0.5569 H   0  0  0  0  0  0  0  0  0  0  0  0
    2.9345   -1.1634   -2.1366 H   0  0  0  0  0  0  0  0  0  0  0  0
    2.8883   -2.2748   -0.7614 H   0  0  0  0  0  0  0  0  0  0  0  0
    5.0464   -0.4738   -1.5474 H   0  0  0  0  0  0  0  0  0  0  0  0
    7.1931   -1.9237    0.7138 H   0  0  0  0  0  0  0  0  0  0  0  0
    6.7807   -0.2153    1.0464 H   0  0  0  0  0  0  0  0  0  0  0  0
    7.0227   -0.7763   -0.6255 H   0  0  0  0  0  0  0  0  0  0  0  0
   -0.0332    4.7685   -1.2612 H   0  0  0  0  0  0  0  0  0  0  0  0
    1.2397    4.3815   -0.0800 H   0  0  0  0  0  0  0  0  0  0  0  0
    0.1709    5.7632    0.1979 H   0  0  0  0  0  0  0  0  0  0  0  0
  1  2  1  0
  2  3  2  0
  3  4  1  0
  4  5  2  3
  5  6  1  0
  6  7  2  0
  7  8  1  0
  8  9  2  0
  9 10  1  0
 10 11  2  0
 11 12  1  0
  4 13  1  0
 13 14  2  0
 14 15  1  0
 15 16  1  0
 16 17  1  0
 17 18  1  0
 18 19  1  0
 19 20  1  0
 19 21  2  0
 14 22  1  0
 22 23  2  0
 23 24  1  0
 24 25  1  0
 24  1  1  0
 23  3  1  0
 11  6  1  0
  1 26  1  0
  2 27  1  0
  7 28  1  0
  8 29  1  0
  9 30  1  0
 10 31  1  0
 15 32  1  0
 16 33  1  0
 16 34  1  0
 17 35  1  0
 17 36  1  0
 18 37  1  0
 20 38  1  0
 20 39  1  0
 20 40  1  0
 25 41  1  0
 25 42  1  0
 25 43  1  0
M  END
>  <ScrubInfo>  (5) 
{"isomerGroup": 0, "isomerId": 4, "confId": 0, "nr_conformers:": 1, "nr_isomers:": 9}

$$$$
_i5
     RDKit          3D

 43 45  0  0  0  0  0  0  0  0999 V2000
    0.5085    0.3911   -0.8083 N   0  0  0  0  0  0  0  0  0  0  0  0
    0.4134   -0.9151   -0.4013 C   0  0  0  0  0  0  0  0  0  0  0  0
    1.5713   -1.6350   -0.4671 N   0  0  0  0  0  0  0  0  0  0  0  0
    2.8008   -1.1629    0.1662 C   0  0  0  0  0  0  0  0  0  0  0  0
    3.9973   -1.9983   -0.3119 C   0  0  0  0  0  0  0  0  0  0  0  0
    5.2511   -1.6303    0.3224 N   0  0  0  0  0  0  0  0  0  0  0  0
    5.8672   -0.4317    0.0438 C   0  0  0  0  0  0  0  0  0  0  0  0
    7.2134   -0.2580    0.6937 C   0  0  0  0  0  0  0  0  0  0  0  0
    5.3710    0.4306   -0.6741 O   0  0  0  0  0  0  0  0  0  0  0  0
   -0.6747   -1.5046    0.0048 N   0  0  0  0  0  0  0  0  0  0  0  0
   -1.8621   -0.7850    0.0825 C   0  0  0  0  0  0  0  0  0  0  0  0
   -2.8764   -1.4230    0.5743 N   0  0  0  0  0  0  0  0  0  0  0  0
   -4.1309   -0.8266    0.7435 C   0  0  0  0  0  0  0  0  0  0  0  0
   -5.1003   -1.0214   -0.2488 C   0  0  0  0  0  0  0  0  0  0  0  0
   -6.3785   -0.4739   -0.1191 C   0  0  0  0  0  0  0  0  0  0  0  0
   -6.7080    0.2628    1.0166 C   0  0  0  0  0  0  0  0  0  0  0  0
   -5.7637    0.4447    2.0274 C   0  0  0  0  0  0  0  0  0  0  0  0
   -4.4840   -0.1047    1.8964 C   0  0  0  0  0  0  0  0  0  0  0  0
   -3.2488    0.1686    3.3135 Br  0  0  0  0  0  0  0  0  0  0  0  0
   -1.8244    0.5875   -0.3979 C   0  0  0  0  0  0  0  0  0  0  0  0
   -2.7252    1.6488   -0.6009 C   0  0  0  0  0  0  0  0  0  0  0  0
   -2.1377    2.7441   -1.1099 N   0  0  0  0  0  0  0  0  0  0  0  0
   -0.8397    2.3840   -1.2313 N   0  0  0  0  0  0  0  0  0  0  0  0
    0.1092    3.3360   -1.7500 C   0  0  0  0  0  0  0  0  0  0  0  0
   -0.6271    1.1076   -0.8210 C   0  0  0  0  0  0  0  0  0  0  0  0
    1.3604    0.6710   -1.2774 H   0  0  0  0  0  0  0  0  0  0  0  0
    1.3541   -2.5866   -0.1736 H   0  0  0  0  0  0  0  0  0  0  0  0
    2.7011   -1.2454    1.2551 H   0  0  0  0  0  0  0  0  0  0  0  0
    2.9727   -0.1061   -0.0590 H   0  0  0  0  0  0  0  0  0  0  0  0
    3.8280   -3.0590   -0.0955 H   0  0  0  0  0  0  0  0  0  0  0  0
    4.1191   -1.8965   -1.3969 H   0  0  0  0  0  0  0  0  0  0  0  0
    5.7793   -2.3547    0.7928 H   0  0  0  0  0  0  0  0  0  0  0  0
    7.2456    0.7141    1.1933 H   0  0  0  0  0  0  0  0  0  0  0  0
    7.4056   -1.0333    1.4405 H   0  0  0  0  0  0  0  0  0  0  0  0
    7.9897   -0.3050   -0.0744 H   0  0  0  0  0  0  0  0  0  0  0  0
   -4.8520   -1.6093   -1.1294 H   0  0  0  0  0  0  0  0  0  0  0  0
   -7.1167   -0.6302   -0.9018 H   0  0  0  0  0  0  0  0  0  0  0  0
   -7.7038    0.6870    1.1203 H   0  0  0  0  0  0  0  0  0  0  0  0
   -6.0342    1.0104    2.9153 H   0  0  0  0  0  0  0  0  0  0  0  0
   -3.7893    1.6911   -0.4150 H   0  0  0  0  0  0  0  0  0  0  0  0
   -0.0264    4.2852   -1.2251 H   0  0  0  0  0  0  0  0  0  0  0  0
   -0.0811    3.4598   -2.8189 H   0  0  0  0  0  0  0  0  0  0  0  0
    1.1263    2.9725   -1.5891 H   0  0  0  0  0  0  0  0  0  0  0  0
  1  2  1  0
  2  3  1  0
  3  4  1  0
  4  5  1  0
  5  6  1  0
  6  7  1  0
  7  8  1  0
  7  9  2  0
  2 10  2  0
 10 11  1  0
 11 12  2  3
 12 13  1  0
 13 14  2  0
 14 15  1  0
 15 16  2  0
 16 17  1  0
 17 18  2  0
 18 19  1  0
 11 20  1  0
 20 21  1  0
 21 22  2  0
 22 23  1  0
 23 24  1  0
 23 25  1  0
 25  1  1  0
 18 13  1  0
 25 20  2  0
  1 26  1  0
  3 27  1  0
  4 28  1  0
  4 29  1  0
  5 30  1  0
  5 31  1  0
  6 32  1  0
  8 33  1  0
  8 34  1  0
  8 35  1  0
 14 36  1  0
 15 37  1  0
 16 38  1  0
 17 39  1  0
 21 40  1  0
 24 41  1  0
 24 42  1  0
 24 43  1  0
M  END
>  <ScrubInfo>  (6) 
{"isomerGroup": 0, "isomerId": 5, "confId": 0, "nr_conformers:": 1, "nr_isomers:": 9}

$$$$
_i6
     RDKit          3D

 43 45  0  0  0  0  0  0  0  0999 V2000
   -1.3813   -3.8538    0.6052 N   0  0  0  0  0  0  0  0  0  0  0  0
   -2.2618   -2.8031    0.3727 C   0  0  0  0  0  0  0  0  0  0  0  0
   -1.6436   -1.6193    0.2599 C   0  0  0  0  0  0  0  0  0  0  0  0
   -2.0006   -0.2128    0.0495 C   0  0  0  0  0  0  0  0  0  0  0  0
   -3.3278    0.1207   -0.1330 N   0  0  0  0  0  0  0  0  0  0  0  0
   -3.9461    1.3737   -0.3432 C   0  0  0  0  0  0  0  0  0  0  0  0
   -3.2478    2.5856   -0.4009 C   0  0  0  0  0  0  0  0  0  0  0  0
   -3.9111    3.8007   -0.6155 C   0  0  0  0  0  0  0  0  0  0  0  0
   -5.2921    3.8310   -0.7787 C   0  0  0  0  0  0  0  0  0  0  0  0
   -6.0156    2.6442   -0.7278 C   0  0  0  0  0  0  0  0  0  0  0  0
   -5.3483    1.4333   -0.5131 C   0  0  0  0  0  0  0  0  0  0  0  0
   -6.4041   -0.1532   -0.4563 Br  0  0  0  0  0  0  0  0  0  0  0  0
   -1.0214    0.6432    0.0490 N   0  0  0  0  0  0  0  0  0  0  0  0
    0.2723    0.2251    0.2520 C   0  0  0  0  0  0  0  0  0  0  0  0
    1.1220    1.1882    0.2984 N   0  0  0  0  0  0  0  0  0  0  0  0
    2.5363    0.8813    0.5148 C   0  0  0  0  0  0  0  0  0  0  0  0
    3.2330    0.5878   -0.8174 C   0  0  0  0  0  0  0  0  0  0  0  0
    4.5816    0.0772   -0.6400 N   0  0  0  0  0  0  0  0  0  0  0  0
    5.6419    0.9067   -0.3626 C   0  0  0  0  0  0  0  0  0  0  0  0
    6.9416    0.1834   -0.1312 C   0  0  0  0  0  0  0  0  0  0  0  0
    5.5585    2.1276   -0.2905 O   0  0  0  0  0  0  0  0  0  0  0  0
    0.7066   -1.0743    0.3853 N   0  0  0  0  0  0  0  0  0  0  0  0
   -0.2134   -1.9746    0.3827 C   0  0  0  0  0  0  0  0  0  0  0  0
   -0.0855   -3.3599    0.4954 N   0  0  0  0  0  0  0  0  0  0  0  0
    0.9614   -3.9462    1.3114 C   0  0  0  0  0  0  0  0  0  0  0  0
   -1.5899   -4.6951    0.0616 H   0  0  0  0  0  0  0  0  0  0  0  0
   -3.3184   -3.0172    0.3045 H   0  0  0  0  0  0  0  0  0  0  0  0
   -4.0049   -0.6330   -0.1070 H   0  0  0  0  0  0  0  0  0  0  0  0
   -2.1689    2.6253   -0.2798 H   0  0  0  0  0  0  0  0  0  0  0  0
   -3.3363    4.7237   -0.6536 H   0  0  0  0  0  0  0  0  0  0  0  0
   -5.8006    4.7771   -0.9448 H   0  0  0  0  0  0  0  0  0  0  0  0
   -7.0944    2.6710   -0.8559 H   0  0  0  0  0  0  0  0  0  0  0  0
    2.6806    0.0589    1.2270 H   0  0  0  0  0  0  0  0  0  0  0  0
    3.0051    1.7528    0.9869 H   0  0  0  0  0  0  0  0  0  0  0  0
    2.6861   -0.1686   -1.3898 H   0  0  0  0  0  0  0  0  0  0  0  0
    3.2731    1.4981   -1.4268 H   0  0  0  0  0  0  0  0  0  0  0  0
    4.6911   -0.9215   -0.5318 H   0  0  0  0  0  0  0  0  0  0  0  0
    6.8950   -0.8522   -0.4795 H   0  0  0  0  0  0  0  0  0  0  0  0
    7.7373    0.6928   -0.6818 H   0  0  0  0  0  0  0  0  0  0  0  0
    7.1693    0.1903    0.9379 H   0  0  0  0  0  0  0  0  0  0  0  0
    0.8166   -3.6975    2.3680 H   0  0  0  0  0  0  0  0  0  0  0  0
    1.9445   -3.5813    0.9968 H   0  0  0  0  0  0  0  0  0  0  0  0
    0.9602   -5.0360    1.2067 H   0  0  0  0  0  0  0  0  0  0  0  0
  1  2  1  0
  2  3  2  0
  3  4  1  0
  4  5  1  0
  5  6  1  0
  6  7  2  0
  7  8  1  0
  8  9  2  0
  9 10  1  0
 10 11  2  0
 11 12  1  0
  4 13  2  0
 13 14  1  0
 14 15  2  3
 15 16  1  0
 16 17  1  0
 17 18  1  0
 18 19  1  0
 19 20  1  0
 19 21  2  0
 14 22  1  0
 22 23  2  0
 23 24  1  0
 24 25  1  0
 24  1  1  0
 23  3  1  0
 11  6  1  0
  1 26  1  0
  2 27  1  0
  5 28  1  0
  7 29  1  0
  8 30  1  0
  9 31  1  0
 10 32  1  0
 16 33  1  0
 16 34  1  0
 17 35  1  0
 17 36  1  0
 18 37  1  0
 20 38  1  0
 20 39  1  0
 20 40  1  0
 25 41  1  0
 25 42  1  0
 25 43  1  0
M  END
>  <ScrubInfo>  (7) 
{"isomerGroup": 0, "isomerId": 6, "confId": 0, "nr_conformers:": 1, "nr_isomers:": 9}

$$$$
_i7
     RDKit          3D

 43 45  0  0  0  0  0  0  0  0999 V2000
   -1.7004    4.0337    1.2227 N   0  0  0  0  0  0  0  0  0  0  0  0
   -2.5947    2.9880    1.0217 C   0  0  0  0  0  0  0  0  0  0  0  0
   -1.9897    1.8438    0.6822 C   0  0  0  0  0  0  0  0  0  0  0  0
   -2.3716    0.4767    0.3213 C   0  0  0  0  0  0  0  0  0  0  0  0
   -3.6274    0.1418    0.3380 N   0  0  0  0  0  0  0  0  0  0  0  0
   -3.9814   -1.1693   -0.0264 C   0  0  0  0  0  0  0  0  0  0  0  0
   -4.1062   -2.1327    0.9818 C   0  0  0  0  0  0  0  0  0  0  0  0
   -4.4557   -3.4492    0.6740 C   0  0  0  0  0  0  0  0  0  0  0  0
   -4.6957   -3.8147   -0.6490 C   0  0  0  0  0  0  0  0  0  0  0  0
   -4.5925   -2.8638   -1.6644 C   0  0  0  0  0  0  0  0  0  0  0  0
   -4.2423   -1.5459   -1.3544 C   0  0  0  0  0  0  0  0  0  0  0  0
   -4.1188   -0.2968   -2.7800 Br  0  0  0  0  0  0  0  0  0  0  0  0
   -1.2841   -0.2945   -0.0031 N   0  0  0  0  0  0  0  0  0  0  0  0
    0.0277    0.0997    0.0005 C   0  0  0  0  0  0  0  0  0  0  0  0
    0.9220   -0.7644   -0.3570 N   0  0  0  0  0  0  0  0  0  0  0  0
    2.3205   -0.3210   -0.3249 C   0  0  0  0  0  0  0  0  0  0  0  0
    3.2150   -1.4824   -0.7708 C   0  0  0  0  0  0  0  0  0  0  0  0
    4.6021   -1.0876   -0.9402 N   0  0  0  0  0  0  0  0  0  0  0  0
    5.4543   -0.9615    0.1313 C   0  0  0  0  0  0  0  0  0  0  0  0
    6.8289   -0.4674   -0.2323 C   0  0  0  0  0  0  0  0  0  0  0  0
    5.1399   -1.2099    1.2901 O   0  0  0  0  0  0  0  0  0  0  0  0
    0.4058    1.3741    0.3733 N   0  0  0  0  0  0  0  0  0  0  0  0
   -0.5362    2.1975    0.7144 C   0  0  0  0  0  0  0  0  0  0  0  0
   -0.4075    3.5193    1.1490 N   0  0  0  0  0  0  0  0  0  0  0  0
    0.6632    4.3669    0.6618 C   0  0  0  0  0  0  0  0  0  0  0  0
   -1.9147    4.5938    2.0510 H   0  0  0  0  0  0  0  0  0  0  0  0
   -3.6553    3.1570    1.1447 H   0  0  0  0  0  0  0  0  0  0  0  0
   -3.9313   -1.8503    2.0173 H   0  0  0  0  0  0  0  0  0  0  0  0
   -4.5465   -4.1860    1.4685 H   0  0  0  0  0  0  0  0  0  0  0  0
   -4.9718   -4.8389   -0.8890 H   0  0  0  0  0  0  0  0  0  0  0  0
   -4.7912   -3.1567   -2.6923 H   0  0  0  0  0  0  0  0  0  0  0  0
   -1.4271   -1.2527   -0.2817 H   0  0  0  0  0  0  0  0  0  0  0  0
    2.6097   -0.0073    0.6856 H   0  0  0  0  0  0  0  0  0  0  0  0
    2.4693    0.5252   -1.0076 H   0  0  0  0  0  0  0  0  0  0  0  0
    2.8765   -1.8756   -1.7358 H   0  0  0  0  0  0  0  0  0  0  0  0
    3.1621   -2.2992   -0.0417 H   0  0  0  0  0  0  0  0  0  0  0  0
    4.8835   -0.7299   -1.8428 H   0  0  0  0  0  0  0  0  0  0  0  0
    7.5760   -1.0783    0.2820 H   0  0  0  0  0  0  0  0  0  0  0  0
    6.9275    0.5760    0.0783 H   0  0  0  0  0  0  0  0  0  0  0  0
    7.0121   -0.5383   -1.3080 H   0  0  0  0  0  0  0  0  0  0  0  0
    0.5528    4.5544   -0.4114 H   0  0  0  0  0  0  0  0  0  0  0  0
    1.6367    3.8981    0.8375 H   0  0  0  0  0  0  0  0  0  0  0  0
    0.6563    5.3283    1.1855 H   0  0  0  0  0  0  0  0  0  0  0  0
  1  2  1  0
  2  3  2  0
  3  4  1  0
  4  5  2  3
  5  6  1  0
  6  7  2  0
  7  8  1  0
  8  9  2  0
  9 10  1  0
 10 11  2  0
 11 12  1  0
  4 13  1  0
 13 14  1  0
 14 15  2  3
 15 16  1  0
 16 17  1  0
 17 18  1  0
 18 19  1  0
 19 20  1  0
 19 21  2  0
 14 22  1  0
 22 23  2  0
 23 24  1  0
 24 25  1  0
 24  1  1  0
 23  3  1  0
 11  6  1  0
  1 26  1  0
  2 27  1  0
  7 28  1  0
  8 29  1  0
  9 30  1  0
 10 31  1  0
 13 32  1  0
 16 33  1  0
 16 34  1  0
 17 35  1  0
 17 36  1  0
 18 37  1  0
 20 38  1  0
 20 39  1  0
 20 40  1  0
 25 41  1  0
 25 42  1  0
 25 43  1  0
M  END
>  <ScrubInfo>  (8) 
{"isomerGroup": 0, "isomerId": 7, "confId": 0, "nr_conformers:": 1, "nr_isomers:": 9}

$$$$
_i8
     RDKit          3D

 43 45  0  0  0  0  0  0  0  0999 V2000
    0.5589   -1.4932   -0.5288 N   0  0  0  0  0  0  0  0  0  0  0  0
    0.9503   -0.3707   -1.2393 C   0  0  0  0  0  0  0  0  0  0  0  0
    2.0715   -0.1522   -1.8385 N   0  0  0  0  0  0  0  0  0  0  0  0
    3.1150   -1.1841   -1.8383 C   0  0  0  0  0  0  0  0  0  0  0  0
    3.9787   -1.0777   -0.5805 C   0  0  0  0  0  0  0  0  0  0  0  0
    4.5066    0.2605   -0.4108 N   0  0  0  0  0  0  0  0  0  0  0  0
    5.4261    0.5349    0.5721 C   0  0  0  0  0  0  0  0  0  0  0  0
    5.7502    1.9963    0.7237 C   0  0  0  0  0  0  0  0  0  0  0  0
    5.9405   -0.3267    1.2782 O   0  0  0  0  0  0  0  0  0  0  0  0
   -0.0132    0.6133   -1.2745 N   0  0  0  0  0  0  0  0  0  0  0  0
   -1.2763    0.6861   -0.7285 C   0  0  0  0  0  0  0  0  0  0  0  0
   -2.0133    1.7440   -0.8884 N   0  0  0  0  0  0  0  0  0  0  0  0
   -3.2883    1.8622   -0.3199 C   0  0  0  0  0  0  0  0  0  0  0  0
   -4.4020    1.5144   -1.0946 C   0  0  0  0  0  0  0  0  0  0  0  0
   -5.6960    1.6428   -0.5850 C   0  0  0  0  0  0  0  0  0  0  0  0
   -5.8915    2.1379    0.7028 C   0  0  0  0  0  0  0  0  0  0  0  0
   -4.7949    2.5133    1.4793 C   0  0  0  0  0  0  0  0  0  0  0  0
   -3.4998    2.3843    0.9676 C   0  0  0  0  0  0  0  0  0  0  0  0
   -2.0479    2.9232    2.0677 Br  0  0  0  0  0  0  0  0  0  0  0  0
   -1.5976   -0.5337   -0.0075 C   0  0  0  0  0  0  0  0  0  0  0  0
   -2.6889   -1.0531    0.7133 C   0  0  0  0  0  0  0  0  0  0  0  0
   -2.4597   -2.2854    1.1906 N   0  0  0  0  0  0  0  0  0  0  0  0
   -1.2012   -2.5592    0.7860 N   0  0  0  0  0  0  0  0  0  0  0  0
   -0.6088   -3.8261    1.1351 C   0  0  0  0  0  0  0  0  0  0  0  0
   -0.6623   -1.5455    0.0537 C   0  0  0  0  0  0  0  0  0  0  0  0
    1.2176   -2.2555   -0.4559 H   0  0  0  0  0  0  0  0  0  0  0  0
    2.7036   -2.1934   -1.9483 H   0  0  0  0  0  0  0  0  0  0  0  0
    3.7422   -1.0141   -2.7214 H   0  0  0  0  0  0  0  0  0  0  0  0
    4.8133   -1.7856   -0.6285 H   0  0  0  0  0  0  0  0  0  0  0  0
    3.3926   -1.3122    0.3152 H   0  0  0  0  0  0  0  0  0  0  0  0
    3.9193    1.0117   -0.7571 H   0  0  0  0  0  0  0  0  0  0  0  0
    6.8359    2.1189    0.7691 H   0  0  0  0  0  0  0  0  0  0  0  0
    5.3747    2.5818   -0.1202 H   0  0  0  0  0  0  0  0  0  0  0  0
    5.2969    2.3694    1.6457 H   0  0  0  0  0  0  0  0  0  0  0  0
    0.2575    1.4387   -1.7894 H   0  0  0  0  0  0  0  0  0  0  0  0
   -4.2565    1.1407   -2.1052 H   0  0  0  0  0  0  0  0  0  0  0  0
   -6.5500    1.3623   -1.1968 H   0  0  0  0  0  0  0  0  0  0  0  0
   -6.8989    2.2406    1.0993 H   0  0  0  0  0  0  0  0  0  0  0  0
   -4.9584    2.9091    2.4784 H   0  0  0  0  0  0  0  0  0  0  0  0
   -3.6516   -0.6067    0.9194 H   0  0  0  0  0  0  0  0  0  0  0  0
   -1.0188   -4.1620    2.0913 H   0  0  0  0  0  0  0  0  0  0  0  0
    0.4732   -3.7069    1.2278 H   0  0  0  0  0  0  0  0  0  0  0  0
   -0.8486   -4.5422    0.3457 H   0  0  0  0  0  0  0  0  0  0  0  0
  1  2  1  0
  2  3  2  3
  3  4  1  0
  4  5  1  0
  5  6  1  0
  6  7  1  0
  7  8  1  0
  7  9  2  0
  2 10  1  0
 10 11  1  0
 11 12  2  3
 12 13  1  0
 13 14  2  0
 14 15  1  0
 15 16  2  0
 16 17  1  0
 17 18  2  0
 18 19  1  0
 11 20  1  0
 20 21  1  0
 21 22  2  0
 22 23  1  0
 23 24  1  0
 23 25  1  0
 25  1  1  0
 18 13  1  0
 25 20  2  0
  1 26  1  0
  4 27  1  0
  4 28  1  0
  5 29  1  0
  5 30  1  0
  6 31  1  0
  8 32  1  0
  8 33  1  0
  8 34  1  0
 10 35  1  0
 14 36  1  0
 15 37  1  0
 16 38  1  0
 17 39  1  0
 21 40  1  0
 24 41  1  0
 24 42  1  0
 24 43  1  0
M  END
>  <ScrubInfo>  (9) 
{"isomerGroup": 0, "isomerId": 8, "confId": 0, "nr_conformers:": 1, "nr_isomers:": 9}

$$$$
