REMARK SMILES Cc1c(Cl)cccc1Nc1nc(NCCOC(C)C)nc2c1cnn2C
REMARK SMILES IDX 13 1 12 3 10 4 11 5 22 6 21 7 23 8 20 9 25 10 24 11 26 12
REMARK SMILES IDX 9 13 8 15 2 16 3 17 5 18 7 19 6 20 1 21 4 22 14 23 15 24
REMARK SMILES IDX 16 25 17 26 18 27 19 28
REMARK H PARENT 13 2 9 14
ROOT
ATOM      1  N   UNL     1      -1.447  -0.277  -1.303  1.00  0.00    -0.352 N 
ATOM      2  H   UNL     1      -1.370   0.505  -0.656  1.00  0.00     0.163 HD
ENDROOT
BRANCH   1   3
ATOM      3  C   UNL     1      -0.257  -0.983  -1.180  1.00  0.00     0.226 A 
ATOM      4  C   UNL     1       1.955  -0.878  -0.382  1.00  0.00     0.147 A 
ATOM      5  N   UNL     1       0.733  -0.312  -0.564  1.00  0.00    -0.195 NA
ATOM      6  C   UNL     1       2.129  -2.175  -0.881  1.00  0.00     0.082 A 
ATOM      7  C   UNL     1       1.042  -2.769  -1.494  1.00  0.00     0.165 A 
ATOM      8  C   UNL     1       3.147  -3.149  -0.958  1.00  0.00     0.149 A 
ATOM      9  N   UNL     1      -0.172  -2.229  -1.666  1.00  0.00    -0.193 NA
ATOM     10  N   UNL     1       1.462  -4.009  -1.889  1.00  0.00    -0.250 N 
ATOM     11  N   UNL     1       2.751  -4.271  -1.568  1.00  0.00    -0.179 NA
ATOM     12  C   UNL     1       0.687  -5.006  -2.584  1.00  0.00     0.176 C 
BRANCH   4  13
ATOM     13  N   UNL     1       3.006  -0.185   0.240  1.00  0.00    -0.339 N 
ATOM     14  H   UNL     1       3.872  -0.703   0.259  1.00  0.00     0.168 HD
BRANCH  13  15
ATOM     15  C   UNL     1       3.036   1.017   0.982  1.00  0.00     0.044 A 
ATOM     16  C   UNL     1       4.267   1.698   1.183  1.00  0.00    -0.009 A 
ATOM     17  C   UNL     1       4.276   2.881   1.953  1.00  0.00     0.046 A 
ATOM     18  C   UNL     1       3.093   3.421   2.460  1.00  0.00     0.021 A 
ATOM     19  C   UNL     1       1.861   1.599   1.484  1.00  0.00     0.026 A 
ATOM     20  C   UNL     1       1.883   2.786   2.216  1.00  0.00     0.004 A 
ATOM     21  C   UNL     1       5.553   1.143   0.618  1.00  0.00     0.048 C 
ATOM     22  Cl  UNL     1       5.739   3.727   2.330  1.00  0.00    -0.084 Cl
ENDBRANCH  13  15
ENDBRANCH   4  13
ENDBRANCH   1   3
BRANCH   1  23
ATOM     23  C   UNL     1      -2.640  -1.082  -1.068  1.00  0.00     0.144 C 
BRANCH  23  24
ATOM     24  C   UNL     1      -3.864  -0.161  -0.981  1.00  0.00     0.181 C 
BRANCH  24  25
ATOM     25  O   UNL     1      -3.726   0.684   0.169  1.00  0.00    -0.377 OA
BRANCH  25  26
ATOM     26  C   UNL     1      -4.725   1.704   0.254  1.00  0.00     0.112 C 
ATOM     27  C   UNL     1      -4.217   2.739   1.251  1.00  0.00     0.038 C 
ATOM     28  C   UNL     1      -6.057   1.127   0.723  1.00  0.00     0.038 C 
ENDBRANCH  25  26
ENDBRANCH  24  25
ENDBRANCH  23  24
ENDBRANCH   1  23
TORSDOF 7
