_i0
     RDKit          3D

 49 51  0  0  0  0  0  0  0  0999 V2000
    5.5525    1.1432    0.6184 C   0  0  0  0  0  0  0  0  0  0  0  0
    4.2670    1.6981    1.1827 C   0  0  0  0  0  0  0  0  0  0  0  0
    4.2758    2.8811    1.9533 C   0  0  0  0  0  0  0  0  0  0  0  0
    5.7393    3.7268    2.3298 Cl  0  0  0  0  0  0  0  0  0  0  0  0
    3.0926    3.4211    2.4597 C   0  0  0  0  0  0  0  0  0  0  0  0
    1.8834    2.7861    2.2157 C   0  0  0  0  0  0  0  0  0  0  0  0
    1.8606    1.5992    1.4838 C   0  0  0  0  0  0  0  0  0  0  0  0
    3.0363    1.0170    0.9817 C   0  0  0  0  0  0  0  0  0  0  0  0
    3.0055   -0.1849    0.2404 N   0  0  0  0  0  0  0  0  0  0  0  0
    1.9550   -0.8780   -0.3820 C   0  0  0  0  0  0  0  0  0  0  0  0
    0.7326   -0.3125   -0.5637 N   0  0  0  0  0  0  0  0  0  0  0  0
   -0.2566   -0.9830   -1.1803 C   0  0  0  0  0  0  0  0  0  0  0  0
   -1.4472   -0.2774   -1.3033 N   0  0  0  0  0  0  0  0  0  0  0  0
   -2.6405   -1.0816   -1.0680 C   0  0  0  0  0  0  0  0  0  0  0  0
   -3.8639   -0.1606   -0.9813 C   0  0  0  0  0  0  0  0  0  0  0  0
   -3.7256    0.6840    0.1689 O   0  0  0  0  0  0  0  0  0  0  0  0
   -4.7251    1.7035    0.2541 C   0  0  0  0  0  0  0  0  0  0  0  0
   -4.2171    2.7391    1.2511 C   0  0  0  0  0  0  0  0  0  0  0  0
   -6.0568    1.1266    0.7232 C   0  0  0  0  0  0  0  0  0  0  0  0
   -0.1722   -2.2290   -1.6658 N   0  0  0  0  0  0  0  0  0  0  0  0
    1.0425   -2.7686   -1.4938 C   0  0  0  0  0  0  0  0  0  0  0  0
    2.1286   -2.1752   -0.8811 C   0  0  0  0  0  0  0  0  0  0  0  0
    3.1468   -3.1488   -0.9577 C   0  0  0  0  0  0  0  0  0  0  0  0
    2.7511   -4.2713   -1.5681 N   0  0  0  0  0  0  0  0  0  0  0  0
    1.4621   -4.0093   -1.8889 N   0  0  0  0  0  0  0  0  0  0  0  0
    0.6871   -5.0060   -2.5838 C   0  0  0  0  0  0  0  0  0  0  0  0
    6.2970    1.9217    0.4301 H   0  0  0  0  0  0  0  0  0  0  0  0
    5.9757    0.4077    1.3094 H   0  0  0  0  0  0  0  0  0  0  0  0
    5.3889    0.6690   -0.3549 H   0  0  0  0  0  0  0  0  0  0  0  0
    3.1085    4.3374    3.0440 H   0  0  0  0  0  0  0  0  0  0  0  0
    0.9566    3.2028    2.6010 H   0  0  0  0  0  0  0  0  0  0  0  0
    0.8977    1.1176    1.3377 H   0  0  0  0  0  0  0  0  0  0  0  0
    3.8718   -0.7027    0.2594 H   0  0  0  0  0  0  0  0  0  0  0  0
   -1.3696    0.5046   -0.6557 H   0  0  0  0  0  0  0  0  0  0  0  0
   -2.5441   -1.6342   -0.1247 H   0  0  0  0  0  0  0  0  0  0  0  0
   -2.7885   -1.7948   -1.8870 H   0  0  0  0  0  0  0  0  0  0  0  0
   -3.9391    0.4530   -1.8866 H   0  0  0  0  0  0  0  0  0  0  0  0
   -4.7665   -0.7710   -0.8810 H   0  0  0  0  0  0  0  0  0  0  0  0
   -4.8451    2.1900   -0.7213 H   0  0  0  0  0  0  0  0  0  0  0  0
   -4.0495    2.2883    2.2357 H   0  0  0  0  0  0  0  0  0  0  0  0
   -4.9227    3.5684    1.3598 H   0  0  0  0  0  0  0  0  0  0  0  0
   -3.2531    3.1429    0.9226 H   0  0  0  0  0  0  0  0  0  0  0  0
   -5.9307    0.5516    1.6470 H   0  0  0  0  0  0  0  0  0  0  0  0
   -6.4740    0.4421   -0.0217 H   0  0  0  0  0  0  0  0  0  0  0  0
   -6.7919    1.9186    0.8982 H   0  0  0  0  0  0  0  0  0  0  0  0
    4.1638   -3.0910   -0.5932 H   0  0  0  0  0  0  0  0  0  0  0  0
   -0.3264   -4.6384   -2.7589 H   0  0  0  0  0  0  0  0  0  0  0  0
    1.1751   -5.2164   -3.5388 H   0  0  0  0  0  0  0  0  0  0  0  0
    0.6524   -5.9068   -1.9657 H   0  0  0  0  0  0  0  0  0  0  0  0
  1  2  1  0
  2  3  2  0
  3  4  1  0
  3  5  1  0
  5  6  2  0
  6  7  1  0
  7  8  2  0
  8  9  1  0
  9 10  1  0
 10 11  2  0
 11 12  1  0
 12 13  1  0
 13 14  1  0
 14 15  1  0
 15 16  1  0
 16 17  1  0
 17 18  1  0
 17 19  1  0
 12 20  2  0
 20 21  1  0
 21 22  2  0
 22 23  1  0
 23 24  2  0
 24 25  1  0
 25 26  1  0
  8  2  1  0
 22 10  1  0
 25 21  1  0
  1 27  1  0
  1 28  1  0
  1 29  1  0
  5 30  1  0
  6 31  1  0
  7 32  1  0
  9 33  1  0
 13 34  1  0
 14 35  1  0
 14 36  1  0
 15 37  1  0
 15 38  1  0
 17 39  1  0
 18 40  1  0
 18 41  1  0
 18 42  1  0
 19 43  1  0
 19 44  1  0
 19 45  1  0
 23 46  1  0
 26 47  1  0
 26 48  1  0
 26 49  1  0
M  END
>  <ScrubInfo>  (1) 
{"isomerGroup": 0, "isomerId": 0, "confId": 0, "nr_conformers:": 1, "nr_isomers:": 9}

$$$$
_i1
     RDKit          3D

 49 51  0  0  0  0  0  0  0  0999 V2000
   -1.0866   -0.6795    0.2446 N   0  0  0  0  0  0  0  0  0  0  0  0
    0.2008   -1.1632    0.2844 C   0  0  0  0  0  0  0  0  0  0  0  0
    1.0166   -0.5801    1.2114 N   0  0  0  0  0  0  0  0  0  0  0  0
    1.1925    0.8709    1.2689 C   0  0  0  0  0  0  0  0  0  0  0  0
    2.4248    1.2101    2.1188 C   0  0  0  0  0  0  0  0  0  0  0  0
    3.5858    0.5274    1.6308 O   0  0  0  0  0  0  0  0  0  0  0  0
    4.2467    1.1805    0.5431 C   0  0  0  0  0  0  0  0  0  0  0  0
    5.2362    2.2076    1.0827 C   0  0  0  0  0  0  0  0  0  0  0  0
    4.9750    0.1034   -0.2515 C   0  0  0  0  0  0  0  0  0  0  0  0
    0.6580   -2.1179   -0.4866 N   0  0  0  0  0  0  0  0  0  0  0  0
   -0.3003   -2.5616   -1.3488 C   0  0  0  0  0  0  0  0  0  0  0  0
   -1.6094   -2.1346   -1.4609 C   0  0  0  0  0  0  0  0  0  0  0  0
   -2.1637   -2.9036   -2.4926 C   0  0  0  0  0  0  0  0  0  0  0  0
   -1.2790   -3.7641   -3.0142 N   0  0  0  0  0  0  0  0  0  0  0  0
   -0.1513   -3.5386   -2.2936 N   0  0  0  0  0  0  0  0  0  0  0  0
    1.0338   -4.3076   -2.5771 C   0  0  0  0  0  0  0  0  0  0  0  0
   -2.1016   -1.1008   -0.5872 C   0  0  0  0  0  0  0  0  0  0  0  0
   -3.3364   -0.7340   -0.6852 N   0  0  0  0  0  0  0  0  0  0  0  0
   -3.7876    0.2761    0.1783 C   0  0  0  0  0  0  0  0  0  0  0  0
   -4.3860   -0.1077    1.3862 C   0  0  0  0  0  0  0  0  0  0  0  0
   -4.8256    0.8458    2.3004 C   0  0  0  0  0  0  0  0  0  0  0  0
   -4.6684    2.1972    2.0101 C   0  0  0  0  0  0  0  0  0  0  0  0
   -4.0900    2.5928    0.7998 C   0  0  0  0  0  0  0  0  0  0  0  0
   -3.9032    4.2909    0.5283 Cl  0  0  0  0  0  0  0  0  0  0  0  0
   -3.6624    1.6420   -0.1449 C   0  0  0  0  0  0  0  0  0  0  0  0
   -3.0484    2.0686   -1.4522 C   0  0  0  0  0  0  0  0  0  0  0  0
   -1.3528   -0.0643    0.9942 H   0  0  0  0  0  0  0  0  0  0  0  0
    1.9379   -1.0251    1.1640 H   0  0  0  0  0  0  0  0  0  0  0  0
    0.3059    1.3433    1.7045 H   0  0  0  0  0  0  0  0  0  0  0  0
    1.3217    1.2559    0.2517 H   0  0  0  0  0  0  0  0  0  0  0  0
    2.2633    0.8598    3.1442 H   0  0  0  0  0  0  0  0  0  0  0  0
    2.5883    2.2919    2.1600 H   0  0  0  0  0  0  0  0  0  0  0  0
    3.5209    1.6702   -0.1154 H   0  0  0  0  0  0  0  0  0  0  0  0
    4.7202    2.9955    1.6402 H   0  0  0  0  0  0  0  0  0  0  0  0
    5.8009    2.6773    0.2714 H   0  0  0  0  0  0  0  0  0  0  0  0
    5.9425    1.7421    1.7790 H   0  0  0  0  0  0  0  0  0  0  0  0
    5.5080    0.5305   -1.1065 H   0  0  0  0  0  0  0  0  0  0  0  0
    4.2624   -0.6418   -0.6220 H   0  0  0  0  0  0  0  0  0  0  0  0
    5.6928   -0.4340    0.3781 H   0  0  0  0  0  0  0  0  0  0  0  0
   -3.1713   -2.8749   -2.8867 H   0  0  0  0  0  0  0  0  0  0  0  0
    1.8450   -4.0085   -1.9099 H   0  0  0  0  0  0  0  0  0  0  0  0
    1.3220   -4.1242   -3.6153 H   0  0  0  0  0  0  0  0  0  0  0  0
    0.8017   -5.3649   -2.4263 H   0  0  0  0  0  0  0  0  0  0  0  0
   -4.5086   -1.1657    1.6095 H   0  0  0  0  0  0  0  0  0  0  0  0
   -5.2885    0.5350    3.2335 H   0  0  0  0  0  0  0  0  0  0  0  0
   -5.0051    2.9415    2.7280 H   0  0  0  0  0  0  0  0  0  0  0  0
   -3.0236    1.2567   -2.1854 H   0  0  0  0  0  0  0  0  0  0  0  0
   -3.6318    2.8714   -1.9146 H   0  0  0  0  0  0  0  0  0  0  0  0
   -2.0222    2.4124   -1.2883 H   0  0  0  0  0  0  0  0  0  0  0  0
  1  2  1  0
  2  3  1  0
  3  4  1  0
  4  5  1  0
  5  6  1  0
  6  7  1  0
  7  8  1  0
  7  9  1  0
  2 10  2  0
 10 11  1  0
 11 12  2  0
 12 13  1  0
 13 14  2  0
 14 15  1  0
 15 16  1  0
 12 17  1  0
 17 18  2  3
 18 19  1  0
 19 20  2  0
 20 21  1  0
 21 22  2  0
 22 23  1  0
 23 24  1  0
 23 25  2  0
 25 26  1  0
 17  1  1  0
 25 19  1  0
 15 11  1  0
  1 27  1  0
  3 28  1  0
  4 29  1  0
  4 30  1  0
  5 31  1  0
  5 32  1  0
  7 33  1  0
  8 34  1  0
  8 35  1  0
  8 36  1  0
  9 37  1  0
  9 38  1  0
  9 39  1  0
 13 40  1  0
 16 41  1  0
 16 42  1  0
 16 43  1  0
 20 44  1  0
 21 45  1  0
 22 46  1  0
 26 47  1  0
 26 48  1  0
 26 49  1  0
M  END
>  <ScrubInfo>  (2) 
{"isomerGroup": 0, "isomerId": 1, "confId": 0, "nr_conformers:": 1, "nr_isomers:": 9}

$$$$
_i2
     RDKit          3D

 49 51  0  0  0  0  0  0  0  0999 V2000
   -0.5475    0.4289   -0.4879 N   0  0  0  0  0  0  0  0  0  0  0  0
   -1.8129    0.7998   -0.0756 C   0  0  0  0  0  0  0  0  0  0  0  0
   -2.8995   -0.0536   -0.1501 N   0  0  0  0  0  0  0  0  0  0  0  0
   -2.9149   -1.4635   -0.0205 C   0  0  0  0  0  0  0  0  0  0  0  0
   -1.8933   -2.1427    0.6679 C   0  0  0  0  0  0  0  0  0  0  0  0
   -1.9062   -3.5300    0.8041 C   0  0  0  0  0  0  0  0  0  0  0  0
   -2.9490   -4.2659    0.2569 C   0  0  0  0  0  0  0  0  0  0  0  0
   -3.9724   -3.6160   -0.4355 C   0  0  0  0  0  0  0  0  0  0  0  0
   -5.2491   -4.6033   -1.0614 Cl  0  0  0  0  0  0  0  0  0  0  0  0
   -3.9632   -2.2154   -0.6054 C   0  0  0  0  0  0  0  0  0  0  0  0
   -5.0729   -1.5431   -1.3762 C   0  0  0  0  0  0  0  0  0  0  0  0
   -1.9104    2.0621    0.3603 C   0  0  0  0  0  0  0  0  0  0  0  0
   -2.9407    2.9487    0.9124 C   0  0  0  0  0  0  0  0  0  0  0  0
   -2.4828    4.1309    1.2367 N   0  0  0  0  0  0  0  0  0  0  0  0
   -1.1268    4.1180    0.8730 N   0  0  0  0  0  0  0  0  0  0  0  0
   -0.2596    5.1622    1.3624 C   0  0  0  0  0  0  0  0  0  0  0  0
   -0.6888    2.8995    0.3801 C   0  0  0  0  0  0  0  0  0  0  0  0
    0.4889    2.5218    0.0144 N   0  0  0  0  0  0  0  0  0  0  0  0
    0.5620    1.2310   -0.4598 C   0  0  0  0  0  0  0  0  0  0  0  0
    1.6815    0.7543   -0.8950 N   0  0  0  0  0  0  0  0  0  0  0  0
    2.8481    1.6489   -0.8411 C   0  0  0  0  0  0  0  0  0  0  0  0
    4.0899    0.9067   -1.3511 C   0  0  0  0  0  0  0  0  0  0  0  0
    4.7995    0.1894   -0.3359 O   0  0  0  0  0  0  0  0  0  0  0  0
    4.1127   -0.9175    0.2518 C   0  0  0  0  0  0  0  0  0  0  0  0
    3.8973   -2.0522   -0.7451 C   0  0  0  0  0  0  0  0  0  0  0  0
    4.9837   -1.4012    1.4087 C   0  0  0  0  0  0  0  0  0  0  0  0
   -0.4471   -0.4720   -0.9322 H   0  0  0  0  0  0  0  0  0  0  0  0
   -3.8009    0.3603    0.0672 H   0  0  0  0  0  0  0  0  0  0  0  0
   -1.0852   -1.5935    1.1467 H   0  0  0  0  0  0  0  0  0  0  0  0
   -1.1110   -4.0316    1.3502 H   0  0  0  0  0  0  0  0  0  0  0  0
   -2.9638   -5.3465    0.3766 H   0  0  0  0  0  0  0  0  0  0  0  0
   -5.3068   -2.0957   -2.2920 H   0  0  0  0  0  0  0  0  0  0  0  0
   -5.9704   -1.4736   -0.7537 H   0  0  0  0  0  0  0  0  0  0  0  0
   -4.8041   -0.5351   -1.7055 H   0  0  0  0  0  0  0  0  0  0  0  0
   -3.9743    2.6057    1.0459 H   0  0  0  0  0  0  0  0  0  0  0  0
    0.6041    5.2937    0.7028 H   0  0  0  0  0  0  0  0  0  0  0  0
   -0.7916    6.1179    1.4098 H   0  0  0  0  0  0  0  0  0  0  0  0
    0.1023    4.9172    2.3658 H   0  0  0  0  0  0  0  0  0  0  0  0
    3.0261    1.9994    0.1824 H   0  0  0  0  0  0  0  0  0  0  0  0
    2.6689    2.5078   -1.4989 H   0  0  0  0  0  0  0  0  0  0  0  0
    4.8001    1.6557   -1.7193 H   0  0  0  0  0  0  0  0  0  0  0  0
    3.8619    0.2516   -2.1981 H   0  0  0  0  0  0  0  0  0  0  0  0
    3.1573   -0.5916    0.6735 H   0  0  0  0  0  0  0  0  0  0  0  0
    3.1837   -1.7663   -1.5236 H   0  0  0  0  0  0  0  0  0  0  0  0
    3.5037   -2.9454   -0.2493 H   0  0  0  0  0  0  0  0  0  0  0  0
    4.8336   -2.3126   -1.2504 H   0  0  0  0  0  0  0  0  0  0  0  0
    5.9715   -1.7149    1.0527 H   0  0  0  0  0  0  0  0  0  0  0  0
    5.1507   -0.5894    2.1252 H   0  0  0  0  0  0  0  0  0  0  0  0
    4.5178   -2.2393    1.9361 H   0  0  0  0  0  0  0  0  0  0  0  0
  1  2  1  0
  2  3  1  0
  3  4  1  0
  4  5  2  0
  5  6  1  0
  6  7  2  0
  7  8  1  0
  8  9  1  0
  8 10  2  0
 10 11  1  0
  2 12  2  0
 12 13  1  0
 13 14  2  0
 14 15  1  0
 15 16  1  0
 15 17  1  0
 17 18  2  0
 18 19  1  0
 19 20  2  3
 20 21  1  0
 21 22  1  0
 22 23  1  0
 23 24  1  0
 24 25  1  0
 24 26  1  0
 19  1  1  0
 10  4  1  0
 17 12  1  0
  1 27  1  0
  3 28  1  0
  5 29  1  0
  6 30  1  0
  7 31  1  0
 11 32  1  0
 11 33  1  0
 11 34  1  0
 13 35  1  0
 16 36  1  0
 16 37  1  0
 16 38  1  0
 21 39  1  0
 21 40  1  0
 22 41  1  0
 22 42  1  0
 24 43  1  0
 25 44  1  0
 25 45  1  0
 25 46  1  0
 26 47  1  0
 26 48  1  0
 26 49  1  0
M  END
>  <ScrubInfo>  (3) 
{"isomerGroup": 0, "isomerId": 2, "confId": 0, "nr_conformers:": 1, "nr_isomers:": 9}

$$$$
_i3
     RDKit          3D

 49 51  0  0  0  0  0  0  0  0999 V2000
   -0.0162   -1.6477   -1.8436 N   0  0  0  0  0  0  0  0  0  0  0  0
    0.5674   -0.9150   -0.8334 C   0  0  0  0  0  0  0  0  0  0  0  0
    1.8075   -0.5713   -0.9685 N   0  0  0  0  0  0  0  0  0  0  0  0
    2.3970    0.2096    0.1236 C   0  0  0  0  0  0  0  0  0  0  0  0
    3.8553    0.5194   -0.2136 C   0  0  0  0  0  0  0  0  0  0  0  0
    4.4261    1.2910    0.8458 O   0  0  0  0  0  0  0  0  0  0  0  0
    5.7756    1.6914    0.5943 C   0  0  0  0  0  0  0  0  0  0  0  0
    6.7420    0.5432    0.8678 C   0  0  0  0  0  0  0  0  0  0  0  0
    6.0726    2.8629    1.5239 C   0  0  0  0  0  0  0  0  0  0  0  0
   -0.1392   -0.5448    0.3007 N   0  0  0  0  0  0  0  0  0  0  0  0
   -1.3943   -0.8882    0.4110 C   0  0  0  0  0  0  0  0  0  0  0  0
   -2.1431   -0.5529    1.5129 N   0  0  0  0  0  0  0  0  0  0  0  0
   -3.4361    0.0326    1.4493 C   0  0  0  0  0  0  0  0  0  0  0  0
   -4.4043   -0.5079    2.3150 C   0  0  0  0  0  0  0  0  0  0  0  0
   -5.7026   -0.0085    2.3454 C   0  0  0  0  0  0  0  0  0  0  0  0
   -6.0452    1.0544    1.5192 C   0  0  0  0  0  0  0  0  0  0  0  0
   -5.0828    1.6388    0.6897 C   0  0  0  0  0  0  0  0  0  0  0  0
   -5.6096    2.9547   -0.3044 Cl  0  0  0  0  0  0  0  0  0  0  0  0
   -3.7523    1.1702    0.6710 C   0  0  0  0  0  0  0  0  0  0  0  0
   -2.7130    1.8486   -0.1850 C   0  0  0  0  0  0  0  0  0  0  0  0
   -2.0375   -1.6814   -0.6143 C   0  0  0  0  0  0  0  0  0  0  0  0
   -3.2858   -2.2787   -0.8487 C   0  0  0  0  0  0  0  0  0  0  0  0
   -3.3282   -2.9359   -2.0191 N   0  0  0  0  0  0  0  0  0  0  0  0
   -2.0871   -2.7601   -2.5348 N   0  0  0  0  0  0  0  0  0  0  0  0
   -1.7673   -3.3469   -3.8109 C   0  0  0  0  0  0  0  0  0  0  0  0
   -1.2969   -2.0230   -1.7131 C   0  0  0  0  0  0  0  0  0  0  0  0
    0.5969   -1.8712   -2.6157 H   0  0  0  0  0  0  0  0  0  0  0  0
    1.8595    1.1551    0.2695 H   0  0  0  0  0  0  0  0  0  0  0  0
    2.3634   -0.3442    1.0703 H   0  0  0  0  0  0  0  0  0  0  0  0
    3.9072    1.0853   -1.1513 H   0  0  0  0  0  0  0  0  0  0  0  0
    4.4094   -0.4164   -0.3407 H   0  0  0  0  0  0  0  0  0  0  0  0
    5.8782    2.0349   -0.4421 H   0  0  0  0  0  0  0  0  0  0  0  0
    6.5847    0.1297    1.8700 H   0  0  0  0  0  0  0  0  0  0  0  0
    7.7823    0.8725    0.7817 H   0  0  0  0  0  0  0  0  0  0  0  0
    6.5911   -0.2775    0.1601 H   0  0  0  0  0  0  0  0  0  0  0  0
    5.3699    3.6828    1.3393 H   0  0  0  0  0  0  0  0  0  0  0  0
    5.9493    2.5737    2.5736 H   0  0  0  0  0  0  0  0  0  0  0  0
    7.0904    3.2384    1.3800 H   0  0  0  0  0  0  0  0  0  0  0  0
   -1.5671    0.0024    2.1430 H   0  0  0  0  0  0  0  0  0  0  0  0
   -4.1468   -1.3510    2.9542 H   0  0  0  0  0  0  0  0  0  0  0  0
   -6.4454   -0.4538    3.0022 H   0  0  0  0  0  0  0  0  0  0  0  0
   -7.0649    1.4326    1.5292 H   0  0  0  0  0  0  0  0  0  0  0  0
   -1.7245    1.8061    0.2818 H   0  0  0  0  0  0  0  0  0  0  0  0
   -2.9153    2.9163   -0.3105 H   0  0  0  0  0  0  0  0  0  0  0  0
   -2.6712    1.3801   -1.1727 H   0  0  0  0  0  0  0  0  0  0  0  0
   -4.1717   -2.2730   -0.2277 H   0  0  0  0  0  0  0  0  0  0  0  0
   -1.8420   -4.4333   -3.7179 H   0  0  0  0  0  0  0  0  0  0  0  0
   -0.7537   -3.0680   -4.1060 H   0  0  0  0  0  0  0  0  0  0  0  0
   -2.4818   -2.9762   -4.5503 H   0  0  0  0  0  0  0  0  0  0  0  0
  1  2  1  0
  2  3  2  3
  3  4  1  0
  4  5  1  0
  5  6  1  0
  6  7  1  0
  7  8  1  0
  7  9  1  0
  2 10  1  0
 10 11  2  0
 11 12  1  0
 12 13  1  0
 13 14  2  0
 14 15  1  0
 15 16  2  0
 16 17  1  0
 17 18  1  0
 17 19  2  0
 19 20  1  0
 11 21  1  0
 21 22  1  0
 22 23  2  0
 23 24  1  0
 24 25  1  0
 24 26  1  0
 26  1  1  0
 19 13  1  0
 26 21  2  0
  1 27  1  0
  4 28  1  0
  4 29  1  0
  5 30  1  0
  5 31  1  0
  7 32  1  0
  8 33  1  0
  8 34  1  0
  8 35  1  0
  9 36  1  0
  9 37  1  0
  9 38  1  0
 12 39  1  0
 14 40  1  0
 15 41  1  0
 16 42  1  0
 20 43  1  0
 20 44  1  0
 20 45  1  0
 22 46  1  0
 25 47  1  0
 25 48  1  0
 25 49  1  0
M  END
>  <ScrubInfo>  (4) 
{"isomerGroup": 0, "isomerId": 3, "confId": 0, "nr_conformers:": 1, "nr_isomers:": 9}

$$$$
_i4
     RDKit          3D

 49 51  0  0  0  0  0  0  0  0999 V2000
    0.3775   -1.7931   -0.5863 N   0  0  0  0  0  0  0  0  0  0  0  0
    0.7777   -0.8182    0.2964 C   0  0  0  0  0  0  0  0  0  0  0  0
    2.1181   -0.9009    0.5668 N   0  0  0  0  0  0  0  0  0  0  0  0
    2.7767    0.1452    1.3535 C   0  0  0  0  0  0  0  0  0  0  0  0
    3.1403    1.3340    0.4547 C   0  0  0  0  0  0  0  0  0  0  0  0
    4.0152    0.9033   -0.6013 O   0  0  0  0  0  0  0  0  0  0  0  0
    5.4052    0.9670   -0.2679 C   0  0  0  0  0  0  0  0  0  0  0  0
    5.9397    2.3688   -0.5423 C   0  0  0  0  0  0  0  0  0  0  0  0
    6.1234   -0.0563   -1.1392 C   0  0  0  0  0  0  0  0  0  0  0  0
   -0.0052    0.0751    0.8283 N   0  0  0  0  0  0  0  0  0  0  0  0
   -1.3560    0.1018    0.5077 C   0  0  0  0  0  0  0  0  0  0  0  0
   -2.0456    1.0553    1.0500 N   0  0  0  0  0  0  0  0  0  0  0  0
   -3.4143    1.2203    0.8224 C   0  0  0  0  0  0  0  0  0  0  0  0
   -3.8158    2.0262   -0.2530 C   0  0  0  0  0  0  0  0  0  0  0  0
   -5.1650    2.2425   -0.5204 C   0  0  0  0  0  0  0  0  0  0  0  0
   -6.1274    1.6605    0.2982 C   0  0  0  0  0  0  0  0  0  0  0  0
   -5.7399    0.8782    1.3909 C   0  0  0  0  0  0  0  0  0  0  0  0
   -6.9979    0.1838    2.3546 Cl  0  0  0  0  0  0  0  0  0  0  0  0
   -4.3806    0.6621    1.6832 C   0  0  0  0  0  0  0  0  0  0  0  0
   -3.9686   -0.1748    2.8652 C   0  0  0  0  0  0  0  0  0  0  0  0
   -1.8321   -0.9380   -0.3891 C   0  0  0  0  0  0  0  0  0  0  0  0
   -3.0533   -1.3565   -0.9476 C   0  0  0  0  0  0  0  0  0  0  0  0
   -2.9249   -2.4374   -1.7341 N   0  0  0  0  0  0  0  0  0  0  0  0
   -1.6035   -2.7179   -1.6803 N   0  0  0  0  0  0  0  0  0  0  0  0
   -1.0952   -3.8409   -2.4257 C   0  0  0  0  0  0  0  0  0  0  0  0
   -0.9300   -1.8416   -0.8916 C   0  0  0  0  0  0  0  0  0  0  0  0
    1.0301   -2.5406   -0.7781 H   0  0  0  0  0  0  0  0  0  0  0  0
    2.6740   -1.0978   -0.2619 H   0  0  0  0  0  0  0  0  0  0  0  0
    3.6866   -0.2919    1.7773 H   0  0  0  0  0  0  0  0  0  0  0  0
    2.1513    0.4677    2.1930 H   0  0  0  0  0  0  0  0  0  0  0  0
    2.2407    1.7360   -0.0228 H   0  0  0  0  0  0  0  0  0  0  0  0
    3.5931    2.1403    1.0411 H   0  0  0  0  0  0  0  0  0  0  0  0
    5.5617    0.7029    0.7844 H   0  0  0  0  0  0  0  0  0  0  0  0
    7.0159    2.4260   -0.3520 H   0  0  0  0  0  0  0  0  0  0  0  0
    5.7503    2.6630   -1.5806 H   0  0  0  0  0  0  0  0  0  0  0  0
    5.4416    3.1114    0.0887 H   0  0  0  0  0  0  0  0  0  0  0  0
    5.7243   -1.0596   -0.9536 H   0  0  0  0  0  0  0  0  0  0  0  0
    7.1989   -0.0667   -0.9377 H   0  0  0  0  0  0  0  0  0  0  0  0
    5.9665    0.1521   -2.2034 H   0  0  0  0  0  0  0  0  0  0  0  0
   -3.0603    2.4871   -0.8856 H   0  0  0  0  0  0  0  0  0  0  0  0
   -5.4622    2.8627   -1.3617 H   0  0  0  0  0  0  0  0  0  0  0  0
   -7.1812    1.8242    0.0859 H   0  0  0  0  0  0  0  0  0  0  0  0
   -2.9012   -0.0908    3.0894 H   0  0  0  0  0  0  0  0  0  0  0  0
   -4.1892   -1.2294    2.6716 H   0  0  0  0  0  0  0  0  0  0  0  0
   -4.4950    0.1478    3.7695 H   0  0  0  0  0  0  0  0  0  0  0  0
   -4.0431   -0.9394   -0.8253 H   0  0  0  0  0  0  0  0  0  0  0  0
   -1.4748   -4.7567   -1.9659 H   0  0  0  0  0  0  0  0  0  0  0  0
   -1.4432   -3.7591   -3.4587 H   0  0  0  0  0  0  0  0  0  0  0  0
   -0.0034   -3.8376   -2.4064 H   0  0  0  0  0  0  0  0  0  0  0  0
  1  2  1  0
  2  3  1  0
  3  4  1  0
  4  5  1  0
  5  6  1  0
  6  7  1  0
  7  8  1  0
  7  9  1  0
  2 10  2  0
 10 11  1  0
 11 12  2  3
 12 13  1  0
 13 14  2  0
 14 15  1  0
 15 16  2  0
 16 17  1  0
 17 18  1  0
 17 19  2  0
 19 20  1  0
 11 21  1  0
 21 22  1  0
 22 23  2  0
 23 24  1  0
 24 25  1  0
 24 26  1  0
 26  1  1  0
 19 13  1  0
 26 21  2  0
  1 27  1  0
  3 28  1  0
  4 29  1  0
  4 30  1  0
  5 31  1  0
  5 32  1  0
  7 33  1  0
  8 34  1  0
  8 35  1  0
  8 36  1  0
  9 37  1  0
  9 38  1  0
  9 39  1  0
 14 40  1  0
 15 41  1  0
 16 42  1  0
 20 43  1  0
 20 44  1  0
 20 45  1  0
 22 46  1  0
 25 47  1  0
 25 48  1  0
 25 49  1  0
M  END
>  <ScrubInfo>  (5) 
{"isomerGroup": 0, "isomerId": 4, "confId": 0, "nr_conformers:": 1, "nr_isomers:": 9}

$$$$
_i5
     RDKit          3D

 49 51  0  0  0  0  0  0  0  0999 V2000
    3.0027   -2.4549    0.9584 N   0  0  0  0  0  0  0  0  0  0  0  0
    3.2848   -1.1209    0.6824 C   0  0  0  0  0  0  0  0  0  0  0  0
    2.1997   -0.3988    0.3627 C   0  0  0  0  0  0  0  0  0  0  0  0
    1.8456    0.9732    0.0211 C   0  0  0  0  0  0  0  0  0  0  0  0
    2.5875    2.0167   -0.1524 N   0  0  0  0  0  0  0  0  0  0  0  0
    3.9786    1.9377   -0.0228 C   0  0  0  0  0  0  0  0  0  0  0  0
    4.5430    2.2345    1.2261 C   0  0  0  0  0  0  0  0  0  0  0  0
    5.9202    2.1745    1.4214 C   0  0  0  0  0  0  0  0  0  0  0  0
    6.7475    1.8218    0.3602 C   0  0  0  0  0  0  0  0  0  0  0  0
    6.1991    1.5491   -0.8973 C   0  0  0  0  0  0  0  0  0  0  0  0
    7.2946    1.0999   -2.1586 Cl  0  0  0  0  0  0  0  0  0  0  0  0
    4.8115    1.6255   -1.1161 C   0  0  0  0  0  0  0  0  0  0  0  0
    4.2251    1.3448   -2.4744 C   0  0  0  0  0  0  0  0  0  0  0  0
    0.5002    1.1772   -0.1363 N   0  0  0  0  0  0  0  0  0  0  0  0
   -0.3809    0.2255   -0.0451 C   0  0  0  0  0  0  0  0  0  0  0  0
   -1.6799    0.5990   -0.2314 N   0  0  0  0  0  0  0  0  0  0  0  0
   -2.7927   -0.1443    0.3271 C   0  0  0  0  0  0  0  0  0  0  0  0
   -4.1228    0.3808   -0.2185 C   0  0  0  0  0  0  0  0  0  0  0  0
   -5.1978   -0.3192    0.4110 O   0  0  0  0  0  0  0  0  0  0  0  0
   -6.4912    0.1193   -0.0153 C   0  0  0  0  0  0  0  0  0  0  0  0
   -6.8569   -0.5039   -1.3587 C   0  0  0  0  0  0  0  0  0  0  0  0
   -7.4845   -0.3165    1.0561 C   0  0  0  0  0  0  0  0  0  0  0  0
   -0.1063   -1.0881    0.2188 N   0  0  0  0  0  0  0  0  0  0  0  0
    1.1261   -1.4097    0.4005 C   0  0  0  0  0  0  0  0  0  0  0  0
    1.6642   -2.6696    0.6652 N   0  0  0  0  0  0  0  0  0  0  0  0
    0.9212   -3.6550    1.4264 C   0  0  0  0  0  0  0  0  0  0  0  0
    3.6666   -3.1051    0.5308 H   0  0  0  0  0  0  0  0  0  0  0  0
    4.3122   -0.7949    0.7458 H   0  0  0  0  0  0  0  0  0  0  0  0
    3.8923    2.5167    2.0510 H   0  0  0  0  0  0  0  0  0  0  0  0
    6.3438    2.4041    2.3955 H   0  0  0  0  0  0  0  0  0  0  0  0
    7.8227    1.7688    0.5142 H   0  0  0  0  0  0  0  0  0  0  0  0
    4.7752    1.8824   -3.2537 H   0  0  0  0  0  0  0  0  0  0  0  0
    4.2581    0.2703   -2.6810 H   0  0  0  0  0  0  0  0  0  0  0  0
    3.1853    1.6744   -2.5584 H   0  0  0  0  0  0  0  0  0  0  0  0
   -1.7661    1.6086   -0.2049 H   0  0  0  0  0  0  0  0  0  0  0  0
   -2.7134   -1.2118    0.0888 H   0  0  0  0  0  0  0  0  0  0  0  0
   -2.7847   -0.0642    1.4207 H   0  0  0  0  0  0  0  0  0  0  0  0
   -4.2156    1.4529   -0.0079 H   0  0  0  0  0  0  0  0  0  0  0  0
   -4.1570    0.2358   -1.3034 H   0  0  0  0  0  0  0  0  0  0  0  0
   -6.5122    1.2135   -0.0860 H   0  0  0  0  0  0  0  0  0  0  0  0
   -6.7523   -1.5939   -1.3257 H   0  0  0  0  0  0  0  0  0  0  0  0
   -7.8848   -0.2570   -1.6427 H   0  0  0  0  0  0  0  0  0  0  0  0
   -6.1948   -0.1472   -2.1534 H   0  0  0  0  0  0  0  0  0  0  0  0
   -7.4725   -1.4045    1.1851 H   0  0  0  0  0  0  0  0  0  0  0  0
   -8.5030   -0.0033    0.8070 H   0  0  0  0  0  0  0  0  0  0  0  0
   -7.2141    0.1177    2.0249 H   0  0  0  0  0  0  0  0  0  0  0  0
    0.7661   -3.3156    2.4558 H   0  0  0  0  0  0  0  0  0  0  0  0
    1.4643   -4.6054    1.4515 H   0  0  0  0  0  0  0  0  0  0  0  0
   -0.0552   -3.8407    0.9675 H   0  0  0  0  0  0  0  0  0  0  0  0
  1  2  1  0
  2  3  2  0
  3  4  1  0
  4  5  2  3
  5  6  1  0
  6  7  2  0
  7  8  1  0
  8  9  2  0
  9 10  1  0
 10 11  1  0
 10 12  2  0
 12 13  1  0
  4 14  1  0
 14 15  2  0
 15 16  1  0
 16 17  1  0
 17 18  1  0
 18 19  1  0
 19 20  1  0
 20 21  1  0
 20 22  1  0
 15 23  1  0
 23 24  2  0
 24 25  1  0
 25 26  1  0
 25  1  1  0
 24  3  1  0
 12  6  1  0
  1 27  1  0
  2 28  1  0
  7 29  1  0
  8 30  1  0
  9 31  1  0
 13 32  1  0
 13 33  1  0
 13 34  1  0
 16 35  1  0
 17 36  1  0
 17 37  1  0
 18 38  1  0
 18 39  1  0
 20 40  1  0
 21 41  1  0
 21 42  1  0
 21 43  1  0
 22 44  1  0
 22 45  1  0
 22 46  1  0
 26 47  1  0
 26 48  1  0
 26 49  1  0
M  END
>  <ScrubInfo>  (6) 
{"isomerGroup": 0, "isomerId": 5, "confId": 0, "nr_conformers:": 1, "nr_isomers:": 9}

$$$$
_i6
     RDKit          3D

 49 51  0  0  0  0  0  0  0  0999 V2000
    1.5823    3.4152    2.2768 N   0  0  0  0  0  0  0  0  0  0  0  0
    2.3902    2.3732    1.8339 C   0  0  0  0  0  0  0  0  0  0  0  0
    1.7562    1.5398    0.9969 C   0  0  0  0  0  0  0  0  0  0  0  0
    2.0339    0.3041    0.2571 C   0  0  0  0  0  0  0  0  0  0  0  0
    3.2920   -0.2659    0.3441 N   0  0  0  0  0  0  0  0  0  0  0  0
    3.8607   -1.3192   -0.4116 C   0  0  0  0  0  0  0  0  0  0  0  0
    3.2926   -1.7540   -1.6206 C   0  0  0  0  0  0  0  0  0  0  0  0
    3.8553   -2.7904   -2.3660 C   0  0  0  0  0  0  0  0  0  0  0  0
    5.0058   -3.4195   -1.9139 C   0  0  0  0  0  0  0  0  0  0  0  0
    5.5807   -3.0288   -0.7043 C   0  0  0  0  0  0  0  0  0  0  0  0
    7.0297   -3.8503   -0.2309 Cl  0  0  0  0  0  0  0  0  0  0  0  0
    5.0054   -2.0049    0.0804 C   0  0  0  0  0  0  0  0  0  0  0  0
    5.6246   -1.6194    1.4025 C   0  0  0  0  0  0  0  0  0  0  0  0
    1.0500   -0.2029   -0.4285 N   0  0  0  0  0  0  0  0  0  0  0  0
   -0.1773    0.4174   -0.4481 C   0  0  0  0  0  0  0  0  0  0  0  0
   -1.0670   -0.2204   -1.1226 N   0  0  0  0  0  0  0  0  0  0  0  0
   -2.4126    0.3441   -1.2276 C   0  0  0  0  0  0  0  0  0  0  0  0
   -3.2789   -0.0889   -0.0418 C   0  0  0  0  0  0  0  0  0  0  0  0
   -4.6106    0.4225   -0.1565 O   0  0  0  0  0  0  0  0  0  0  0  0
   -5.4811   -0.3934   -0.9452 C   0  0  0  0  0  0  0  0  0  0  0  0
   -6.1017   -1.4805   -0.0735 C   0  0  0  0  0  0  0  0  0  0  0  0
   -6.5652    0.5184   -1.5077 C   0  0  0  0  0  0  0  0  0  0  0  0
   -0.5098    1.6003    0.1672 N   0  0  0  0  0  0  0  0  0  0  0  0
    0.4208    2.1587    0.8575 C   0  0  0  0  0  0  0  0  0  0  0  0
    0.3838    3.3539    1.5749 N   0  0  0  0  0  0  0  0  0  0  0  0
   -0.8394    3.8019    2.2144 C   0  0  0  0  0  0  0  0  0  0  0  0
    2.0489    4.3256    2.2866 H   0  0  0  0  0  0  0  0  0  0  0  0
    3.4098    2.3245    2.1859 H   0  0  0  0  0  0  0  0  0  0  0  0
    3.9572    0.1971    0.9466 H   0  0  0  0  0  0  0  0  0  0  0  0
    2.4049   -1.2755   -2.0274 H   0  0  0  0  0  0  0  0  0  0  0  0
    3.3940   -3.0944   -3.3023 H   0  0  0  0  0  0  0  0  0  0  0  0
    5.4488   -4.2160   -2.5062 H   0  0  0  0  0  0  0  0  0  0  0  0
    6.3245   -0.7907    1.2584 H   0  0  0  0  0  0  0  0  0  0  0  0
    6.1532   -2.4516    1.8757 H   0  0  0  0  0  0  0  0  0  0  0  0
    4.8609   -1.3227    2.1289 H   0  0  0  0  0  0  0  0  0  0  0  0
   -2.4177    1.4361   -1.3361 H   0  0  0  0  0  0  0  0  0  0  0  0
   -2.8550   -0.0221   -2.1609 H   0  0  0  0  0  0  0  0  0  0  0  0
   -2.8644    0.3200    0.8857 H   0  0  0  0  0  0  0  0  0  0  0  0
   -3.2819   -1.1792    0.0688 H   0  0  0  0  0  0  0  0  0  0  0  0
   -4.9381   -0.8483   -1.7813 H   0  0  0  0  0  0  0  0  0  0  0  0
   -6.8223   -2.0785   -0.6400 H   0  0  0  0  0  0  0  0  0  0  0  0
   -6.6111   -1.0439    0.7927 H   0  0  0  0  0  0  0  0  0  0  0  0
   -5.3353   -2.1546    0.3214 H   0  0  0  0  0  0  0  0  0  0  0  0
   -6.1167    1.3089   -2.1193 H   0  0  0  0  0  0  0  0  0  0  0  0
   -7.2743   -0.0400   -2.1264 H   0  0  0  0  0  0  0  0  0  0  0  0
   -7.1169    1.0180   -0.7037 H   0  0  0  0  0  0  0  0  0  0  0  0
   -0.7002    4.7986    2.6456 H   0  0  0  0  0  0  0  0  0  0  0  0
   -1.6547    3.8633    1.4864 H   0  0  0  0  0  0  0  0  0  0  0  0
   -1.1341    3.1145    3.0142 H   0  0  0  0  0  0  0  0  0  0  0  0
  1  2  1  0
  2  3  2  0
  3  4  1  0
  4  5  1  0
  5  6  1  0
  6  7  2  0
  7  8  1  0
  8  9  2  0
  9 10  1  0
 10 11  1  0
 10 12  2  0
 12 13  1  0
  4 14  2  0
 14 15  1  0
 15 16  2  3
 16 17  1  0
 17 18  1  0
 18 19  1  0
 19 20  1  0
 20 21  1  0
 20 22  1  0
 15 23  1  0
 23 24  2  0
 24 25  1  0
 25 26  1  0
 25  1  1  0
 24  3  1  0
 12  6  1  0
  1 27  1  0
  2 28  1  0
  5 29  1  0
  7 30  1  0
  8 31  1  0
  9 32  1  0
 13 33  1  0
 13 34  1  0
 13 35  1  0
 17 36  1  0
 17 37  1  0
 18 38  1  0
 18 39  1  0
 20 40  1  0
 21 41  1  0
 21 42  1  0
 21 43  1  0
 22 44  1  0
 22 45  1  0
 22 46  1  0
 26 47  1  0
 26 48  1  0
 26 49  1  0
M  END
>  <ScrubInfo>  (7) 
{"isomerGroup": 0, "isomerId": 6, "confId": 0, "nr_conformers:": 1, "nr_isomers:": 9}

$$$$
_i7
     RDKit          3D

 49 51  0  0  0  0  0  0  0  0999 V2000
    0.5563   -2.3428    0.9181 N   0  0  0  0  0  0  0  0  0  0  0  0
    0.4686   -0.9672    0.8113 C   0  0  0  0  0  0  0  0  0  0  0  0
    1.4828   -0.2662    1.1868 N   0  0  0  0  0  0  0  0  0  0  0  0
    1.4489    1.1945    1.0963 C   0  0  0  0  0  0  0  0  0  0  0  0
    1.7758    1.6932   -0.3187 C   0  0  0  0  0  0  0  0  0  0  0  0
    2.9682    1.1624   -0.8954 O   0  0  0  0  0  0  0  0  0  0  0  0
    4.1853    1.4066   -0.1887 C   0  0  0  0  0  0  0  0  0  0  0  0
    5.2702    0.6018   -0.8986 C   0  0  0  0  0  0  0  0  0  0  0  0
    4.5500    2.8878   -0.1842 C   0  0  0  0  0  0  0  0  0  0  0  0
   -0.7415   -0.5280    0.2994 N   0  0  0  0  0  0  0  0  0  0  0  0
   -1.8510   -1.2417   -0.1216 C   0  0  0  0  0  0  0  0  0  0  0  0
   -2.9784   -0.8372   -0.6091 N   0  0  0  0  0  0  0  0  0  0  0  0
   -3.1674    0.5437   -0.7725 C   0  0  0  0  0  0  0  0  0  0  0  0
   -2.7805    1.1256   -1.9879 C   0  0  0  0  0  0  0  0  0  0  0  0
   -2.9111    2.4955   -2.1979 C   0  0  0  0  0  0  0  0  0  0  0  0
   -3.4353    3.2963   -1.1885 C   0  0  0  0  0  0  0  0  0  0  0  0
   -3.8429    2.7249    0.0212 C   0  0  0  0  0  0  0  0  0  0  0  0
   -4.4616    3.7924    1.2333 Cl  0  0  0  0  0  0  0  0  0  0  0  0
   -3.7349    1.3396    0.2420 C   0  0  0  0  0  0  0  0  0  0  0  0
   -4.1785    0.7257    1.5437 C   0  0  0  0  0  0  0  0  0  0  0  0
   -1.6500   -2.6611    0.0374 C   0  0  0  0  0  0  0  0  0  0  0  0
   -2.4139   -3.8099   -0.2133 C   0  0  0  0  0  0  0  0  0  0  0  0
   -1.7602   -4.9363    0.1110 N   0  0  0  0  0  0  0  0  0  0  0  0
   -0.5624   -4.4961    0.5708 N   0  0  0  0  0  0  0  0  0  0  0  0
    0.4127   -5.4616    1.0102 C   0  0  0  0  0  0  0  0  0  0  0  0
   -0.4667   -3.1386    0.5430 C   0  0  0  0  0  0  0  0  0  0  0  0
    1.4440   -2.6759    1.2754 H   0  0  0  0  0  0  0  0  0  0  0  0
    0.4856    1.5988    1.4289 H   0  0  0  0  0  0  0  0  0  0  0  0
    2.1879    1.5837    1.8048 H   0  0  0  0  0  0  0  0  0  0  0  0
    0.9630    1.4098   -0.9961 H   0  0  0  0  0  0  0  0  0  0  0  0
    1.8139    2.7875   -0.3334 H   0  0  0  0  0  0  0  0  0  0  0  0
    4.1098    1.0328    0.8374 H   0  0  0  0  0  0  0  0  0  0  0  0
    5.3707    0.9141   -1.9441 H   0  0  0  0  0  0  0  0  0  0  0  0
    5.0081   -0.4619   -0.9118 H   0  0  0  0  0  0  0  0  0  0  0  0
    6.2396    0.7146   -0.4035 H   0  0  0  0  0  0  0  0  0  0  0  0
    4.5230    3.3014   -1.1981 H   0  0  0  0  0  0  0  0  0  0  0  0
    3.8400    3.4657    0.4156 H   0  0  0  0  0  0  0  0  0  0  0  0
    5.5475    3.0492    0.2366 H   0  0  0  0  0  0  0  0  0  0  0  0
   -0.8383    0.4679    0.2032 H   0  0  0  0  0  0  0  0  0  0  0  0
   -2.3739    0.4961   -2.7771 H   0  0  0  0  0  0  0  0  0  0  0  0
   -2.6077    2.9343   -3.1450 H   0  0  0  0  0  0  0  0  0  0  0  0
   -3.5326    4.3674   -1.3508 H   0  0  0  0  0  0  0  0  0  0  0  0
   -4.2660   -0.3633    1.4841 H   0  0  0  0  0  0  0  0  0  0  0  0
   -5.1700    1.0924    1.8289 H   0  0  0  0  0  0  0  0  0  0  0  0
   -3.4600    0.9657    2.3339 H   0  0  0  0  0  0  0  0  0  0  0  0
   -3.4159   -3.8763   -0.6176 H   0  0  0  0  0  0  0  0  0  0  0  0
   -0.0230   -6.0442    1.8259 H   0  0  0  0  0  0  0  0  0  0  0  0
    0.6588   -6.1106    0.1659 H   0  0  0  0  0  0  0  0  0  0  0  0
    1.3130   -4.9527    1.3600 H   0  0  0  0  0  0  0  0  0  0  0  0
  1  2  1  0
  2  3  2  3
  3  4  1  0
  4  5  1  0
  5  6  1  0
  6  7  1  0
  7  8  1  0
  7  9  1  0
  2 10  1  0
 10 11  1  0
 11 12  2  3
 12 13  1  0
 13 14  2  0
 14 15  1  0
 15 16  2  0
 16 17  1  0
 17 18  1  0
 17 19  2  0
 19 20  1  0
 11 21  1  0
 21 22  1  0
 22 23  2  0
 23 24  1  0
 24 25  1  0
 24 26  1  0
 26  1  1  0
 19 13  1  0
 26 21  2  0
  1 27  1  0
  4 28  1  0
  4 29  1  0
  5 30  1  0
  5 31  1  0
  7 32  1  0
  8 33  1  0
  8 34  1  0
  8 35  1  0
  9 36  1  0
  9 37  1  0
  9 38  1  0
 10 39  1  0
 14 40  1  0
 15 41  1  0
 16 42  1  0
 20 43  1  0
 20 44  1  0
 20 45  1  0
 22 46  1  0
 25 47  1  0
 25 48  1  0
 25 49  1  0
M  END
>  <ScrubInfo>  (8) 
{"isomerGroup": 0, "isomerId": 7, "confId": 0, "nr_conformers:": 1, "nr_isomers:": 9}

$$$$
_i8
     RDKit          3D

 49 51  0  0  0  0  0  0  0  0999 V2000
    2.7602   -2.9462   -0.0910 N   0  0  0  0  0  0  0  0  0  0  0  0
    2.9565   -1.6128    0.2497 C   0  0  0  0  0  0  0  0  0  0  0  0
    1.8971   -0.8326   -0.0078 C   0  0  0  0  0  0  0  0  0  0  0  0
    1.4573    0.5674    0.1320 C   0  0  0  0  0  0  0  0  0  0  0  0
    2.1137    1.5983    0.5792 N   0  0  0  0  0  0  0  0  0  0  0  0
    3.4375    1.4715    1.0198 C   0  0  0  0  0  0  0  0  0  0  0  0
    3.6590    1.2197    2.3813 C   0  0  0  0  0  0  0  0  0  0  0  0
    4.9509    1.0881    2.8835 C   0  0  0  0  0  0  0  0  0  0  0  0
    6.0365    1.2154    2.0232 C   0  0  0  0  0  0  0  0  0  0  0  0
    5.8295    1.4909    0.6678 C   0  0  0  0  0  0  0  0  0  0  0  0
    7.2312    1.6167   -0.3383 Cl  0  0  0  0  0  0  0  0  0  0  0  0
    4.5310    1.6457    0.1481 C   0  0  0  0  0  0  0  0  0  0  0  0
    4.3141    1.9513   -1.3101 C   0  0  0  0  0  0  0  0  0  0  0  0
    0.1653    0.7579   -0.2822 N   0  0  0  0  0  0  0  0  0  0  0  0
   -0.6938   -0.1851   -0.7882 C   0  0  0  0  0  0  0  0  0  0  0  0
   -1.9156    0.0015   -1.1393 N   0  0  0  0  0  0  0  0  0  0  0  0
   -2.5211    1.3254   -0.9960 C   0  0  0  0  0  0  0  0  0  0  0  0
   -4.0401    1.2026   -1.1483 C   0  0  0  0  0  0  0  0  0  0  0  0
   -4.6071    0.7896    0.0998 O   0  0  0  0  0  0  0  0  0  0  0  0
   -5.9968    0.4694    0.0087 C   0  0  0  0  0  0  0  0  0  0  0  0
   -6.1778   -0.9697   -0.4635 C   0  0  0  0  0  0  0  0  0  0  0  0
   -6.5903    0.6467    1.4015 C   0  0  0  0  0  0  0  0  0  0  0  0
   -0.2767   -1.4854   -0.9828 N   0  0  0  0  0  0  0  0  0  0  0  0
    0.9304   -1.7989   -0.6341 C   0  0  0  0  0  0  0  0  0  0  0  0
    1.5465   -3.0467   -0.7554 N   0  0  0  0  0  0  0  0  0  0  0  0
    0.7750   -4.2702   -0.6432 C   0  0  0  0  0  0  0  0  0  0  0  0
    3.5649   -3.3701   -0.5583 H   0  0  0  0  0  0  0  0  0  0  0  0
    3.9080   -1.3326    0.6760 H   0  0  0  0  0  0  0  0  0  0  0  0
    2.8082    1.1252    3.0526 H   0  0  0  0  0  0  0  0  0  0  0  0
    5.1082    0.8884    3.9402 H   0  0  0  0  0  0  0  0  0  0  0  0
    7.0453    1.1062    2.4143 H   0  0  0  0  0  0  0  0  0  0  0  0
    4.9572    2.7763   -1.6334 H   0  0  0  0  0  0  0  0  0  0  0  0
    4.5285    1.0639   -1.9141 H   0  0  0  0  0  0  0  0  0  0  0  0
    3.2886    2.2663   -1.5247 H   0  0  0  0  0  0  0  0  0  0  0  0
   -0.1734    1.6997   -0.1783 H   0  0  0  0  0  0  0  0  0  0  0  0
   -2.1352    1.9770   -1.7877 H   0  0  0  0  0  0  0  0  0  0  0  0
   -2.2945    1.7653   -0.0181 H   0  0  0  0  0  0  0  0  0  0  0  0
   -4.4577    2.1848   -1.3964 H   0  0  0  0  0  0  0  0  0  0  0  0
   -4.2916    0.4982   -1.9481 H   0  0  0  0  0  0  0  0  0  0  0  0
   -6.5002    1.1615   -0.6774 H   0  0  0  0  0  0  0  0  0  0  0  0
   -5.6230   -1.6639    0.1773 H   0  0  0  0  0  0  0  0  0  0  0  0
   -7.2340   -1.2569   -0.4612 H   0  0  0  0  0  0  0  0  0  0  0  0
   -5.7929   -1.1050   -1.4788 H   0  0  0  0  0  0  0  0  0  0  0  0
   -6.0908   -0.0034    2.1285 H   0  0  0  0  0  0  0  0  0  0  0  0
   -7.6619    0.4250    1.4096 H   0  0  0  0  0  0  0  0  0  0  0  0
   -6.4451    1.6755    1.7486 H   0  0  0  0  0  0  0  0  0  0  0  0
    0.3587   -4.3765    0.3640 H   0  0  0  0  0  0  0  0  0  0  0  0
    1.4076   -5.1393   -0.8514 H   0  0  0  0  0  0  0  0  0  0  0  0
   -0.0474   -4.2760   -1.3657 H   0  0  0  0  0  0  0  0  0  0  0  0
  1  2  1  0
  2  3  2  0
  3  4  1  0
  4  5  2  3
  5  6  1  0
  6  7  2  0
  7  8  1  0
  8  9  2  0
  9 10  1  0
 10 11  1  0
 10 12  2  0
 12 13  1  0
  4 14  1  0
 14 15  1  0
 15 16  2  3
 16 17  1  0
 17 18  1  0
 18 19  1  0
 19 20  1  0
 20 21  1  0
 20 22  1  0
 15 23  1  0
 23 24  2  0
 24 25  1  0
 25 26  1  0
 25  1  1  0
 24  3  1  0
 12  6  1  0
  1 27  1  0
  2 28  1  0
  7 29  1  0
  8 30  1  0
  9 31  1  0
 13 32  1  0
 13 33  1  0
 13 34  1  0
 14 35  1  0
 17 36  1  0
 17 37  1  0
 18 38  1  0
 18 39  1  0
 20 40  1  0
 21 41  1  0
 21 42  1  0
 21 43  1  0
 22 44  1  0
 22 45  1  0
 22 46  1  0
 26 47  1  0
 26 48  1  0
 26 49  1  0
M  END
>  <ScrubInfo>  (9) 
{"isomerGroup": 0, "isomerId": 8, "confId": 0, "nr_conformers:": 1, "nr_isomers:": 9}

$$$$
