_i0
     RDKit          3D

 45 47  0  0  0  0  0  0  0  0999 V2000
    3.7784    1.4844   -0.4663 C   0  0  0  0  0  0  0  0  0  0  0  0
    3.1782    2.5435    0.4577 C   0  0  0  0  0  0  0  0  0  0  0  0
    4.2882    3.4680    0.9671 C   0  0  0  0  0  0  0  0  0  0  0  0
    2.4131    1.9456    1.6568 C   0  0  0  0  0  0  0  0  0  0  0  0
    1.1843    1.1094    1.2803 C   0  0  0  0  0  0  0  0  0  0  0  0
    1.5792   -0.2433    0.9280 N   0  0  0  0  0  0  0  0  0  0  0  0
    0.5206   -1.0960    0.6335 C   0  0  0  0  0  0  0  0  0  0  0  0
   -0.5519   -0.6211   -0.0281 N   0  0  0  0  0  0  0  0  0  0  0  0
   -1.5970   -1.4310   -0.3388 C   0  0  0  0  0  0  0  0  0  0  0  0
   -2.7232   -0.9517   -1.0200 N   0  0  0  0  0  0  0  0  0  0  0  0
   -3.0210    0.2924   -1.6079 C   0  0  0  0  0  0  0  0  0  0  0  0
   -2.0982    1.3367   -1.7480 C   0  0  0  0  0  0  0  0  0  0  0  0
   -2.4713    2.5562   -2.3278 C   0  0  0  0  0  0  0  0  0  0  0  0
   -3.7756    2.7411   -2.7709 C   0  0  0  0  0  0  0  0  0  0  0  0
   -4.1221    3.9114   -3.3236 F   0  0  0  0  0  0  0  0  0  0  0  0
   -4.7080    1.7245   -2.6446 C   0  0  0  0  0  0  0  0  0  0  0  0
   -5.9655    1.9032   -3.0738 F   0  0  0  0  0  0  0  0  0  0  0  0
   -4.3316    0.5168   -2.0695 C   0  0  0  0  0  0  0  0  0  0  0  0
   -5.2384   -0.4683   -1.9490 F   0  0  0  0  0  0  0  0  0  0  0  0
   -1.5052   -2.7656    0.0746 C   0  0  0  0  0  0  0  0  0  0  0  0
   -2.2763   -3.9454    0.0105 C   0  0  0  0  0  0  0  0  0  0  0  0
   -1.6797   -4.9902    0.5948 N   0  0  0  0  0  0  0  0  0  0  0  0
   -0.5075   -4.4726    1.0310 N   0  0  0  0  0  0  0  0  0  0  0  0
    0.4309   -5.3232    1.7187 C   0  0  0  0  0  0  0  0  0  0  0  0
   -0.3597   -3.1421    0.7478 C   0  0  0  0  0  0  0  0  0  0  0  0
    0.6812   -2.3555    1.0556 N   0  0  0  0  0  0  0  0  0  0  0  0
    2.9973    0.9219   -0.9860 H   0  0  0  0  0  0  0  0  0  0  0  0
    4.4017    1.9495   -1.2379 H   0  0  0  0  0  0  0  0  0  0  0  0
    4.4031    0.7779    0.0905 H   0  0  0  0  0  0  0  0  0  0  0  0
    2.4817    3.1538   -0.1313 H   0  0  0  0  0  0  0  0  0  0  0  0
    5.0249    2.9149    1.5598 H   0  0  0  0  0  0  0  0  0  0  0  0
    3.8751    4.2641    1.5956 H   0  0  0  0  0  0  0  0  0  0  0  0
    4.8131    3.9439    0.1320 H   0  0  0  0  0  0  0  0  0  0  0  0
    2.0617    2.7806    2.2776 H   0  0  0  0  0  0  0  0  0  0  0  0
    3.0960    1.3583    2.2841 H   0  0  0  0  0  0  0  0  0  0  0  0
    0.6476    1.6010    0.4603 H   0  0  0  0  0  0  0  0  0  0  0  0
    0.5138    1.0750    2.1487 H   0  0  0  0  0  0  0  0  0  0  0  0
    2.1318   -0.7263    1.6286 H   0  0  0  0  0  0  0  0  0  0  0  0
   -3.4809   -1.6214   -1.1013 H   0  0  0  0  0  0  0  0  0  0  0  0
   -1.0678    1.2197   -1.4244 H   0  0  0  0  0  0  0  0  0  0  0  0
   -1.7466    3.3580   -2.4360 H   0  0  0  0  0  0  0  0  0  0  0  0
   -3.2503   -4.0913   -0.4380 H   0  0  0  0  0  0  0  0  0  0  0  0
   -0.0524   -5.7101    2.6193 H   0  0  0  0  0  0  0  0  0  0  0  0
    1.3222   -4.7541    1.9921 H   0  0  0  0  0  0  0  0  0  0  0  0
    0.7059   -6.1429    1.0502 H   0  0  0  0  0  0  0  0  0  0  0  0
  1  2  1  0
  2  3  1  0
  2  4  1  0
  4  5  1  0
  5  6  1  0
  6  7  1  0
  7  8  2  0
  8  9  1  0
  9 10  1  0
 10 11  1  0
 11 12  2  0
 12 13  1  0
 13 14  2  0
 14 15  1  0
 14 16  1  0
 16 17  1  0
 16 18  2  0
 18 19  1  0
  9 20  2  0
 20 21  1  0
 21 22  2  0
 22 23  1  0
 23 24  1  0
 23 25  1  0
 25 26  2  0
 26  7  1  0
 18 11  1  0
 25 20  1  0
  1 27  1  0
  1 28  1  0
  1 29  1  0
  2 30  1  0
  3 31  1  0
  3 32  1  0
  3 33  1  0
  4 34  1  0
  4 35  1  0
  5 36  1  0
  5 37  1  0
  6 38  1  0
 10 39  1  0
 12 40  1  0
 13 41  1  0
 21 42  1  0
 24 43  1  0
 24 44  1  0
 24 45  1  0
M  END
>  <ScrubInfo>  (1) 
{"isomerGroup": 0, "isomerId": 0, "confId": 0, "nr_conformers:": 1, "nr_isomers:": 9}

$$$$
_i1
     RDKit          3D

 45 47  0  0  0  0  0  0  0  0999 V2000
   -0.1580   -0.1790   -1.0075 N   0  0  0  0  0  0  0  0  0  0  0  0
    1.2238   -0.2137   -0.9363 C   0  0  0  0  0  0  0  0  0  0  0  0
    1.9504    0.9590   -0.8329 N   0  0  0  0  0  0  0  0  0  0  0  0
    2.9112    1.2926    0.1540 C   0  0  0  0  0  0  0  0  0  0  0  0
    3.6800    2.4527   -0.0603 C   0  0  0  0  0  0  0  0  0  0  0  0
    4.6795    2.8347    0.8402 C   0  0  0  0  0  0  0  0  0  0  0  0
    4.9260    2.0545    1.9631 C   0  0  0  0  0  0  0  0  0  0  0  0
    5.8845    2.4264    2.8217 F   0  0  0  0  0  0  0  0  0  0  0  0
    4.1896    0.9027    2.1925 C   0  0  0  0  0  0  0  0  0  0  0  0
    4.4324    0.1572    3.2801 F   0  0  0  0  0  0  0  0  0  0  0  0
    3.1955    0.5219    1.2955 C   0  0  0  0  0  0  0  0  0  0  0  0
    2.4881   -0.5853    1.5657 F   0  0  0  0  0  0  0  0  0  0  0  0
    1.7750   -1.4265   -1.0670 C   0  0  0  0  0  0  0  0  0  0  0  0
    3.1175   -2.0108   -1.1577 C   0  0  0  0  0  0  0  0  0  0  0  0
    3.1027   -3.3076   -1.3395 N   0  0  0  0  0  0  0  0  0  0  0  0
    1.7451   -3.6674   -1.3283 N   0  0  0  0  0  0  0  0  0  0  0  0
    1.3619   -4.9804   -1.7857 C   0  0  0  0  0  0  0  0  0  0  0  0
    0.8801   -2.5900   -1.2257 C   0  0  0  0  0  0  0  0  0  0  0  0
   -0.4065   -2.5439   -1.2695 N   0  0  0  0  0  0  0  0  0  0  0  0
   -0.9637   -1.2926   -1.1274 C   0  0  0  0  0  0  0  0  0  0  0  0
   -2.2476   -1.3105   -1.1164 N   0  0  0  0  0  0  0  0  0  0  0  0
   -3.0225   -0.0825   -1.0016 C   0  0  0  0  0  0  0  0  0  0  0  0
   -3.2635    0.2412    0.4736 C   0  0  0  0  0  0  0  0  0  0  0  0
   -3.9752    1.5876    0.6968 C   0  0  0  0  0  0  0  0  0  0  0  0
   -5.3812    1.6115    0.0958 C   0  0  0  0  0  0  0  0  0  0  0  0
   -4.0480    1.8944    2.1946 C   0  0  0  0  0  0  0  0  0  0  0  0
   -0.5993    0.6899   -0.7611 H   0  0  0  0  0  0  0  0  0  0  0  0
    1.4250    1.7762   -1.1317 H   0  0  0  0  0  0  0  0  0  0  0  0
    3.5135    3.0643   -0.9457 H   0  0  0  0  0  0  0  0  0  0  0  0
    5.2699    3.7304    0.6686 H   0  0  0  0  0  0  0  0  0  0  0  0
    4.0160   -1.3837   -1.1035 H   0  0  0  0  0  0  0  0  0  0  0  0
    0.4086   -5.2858   -1.3426 H   0  0  0  0  0  0  0  0  0  0  0  0
    1.2587   -4.9890   -2.8752 H   0  0  0  0  0  0  0  0  0  0  0  0
    2.1140   -5.7243   -1.5034 H   0  0  0  0  0  0  0  0  0  0  0  0
   -2.5506    0.7574   -1.5239 H   0  0  0  0  0  0  0  0  0  0  0  0
   -3.9792   -0.2510   -1.5075 H   0  0  0  0  0  0  0  0  0  0  0  0
   -3.8431   -0.5705    0.9324 H   0  0  0  0  0  0  0  0  0  0  0  0
   -2.3001    0.2601    0.9994 H   0  0  0  0  0  0  0  0  0  0  0  0
   -3.3846    2.3804    0.2204 H   0  0  0  0  0  0  0  0  0  0  0  0
   -5.9956    0.7952    0.4905 H   0  0  0  0  0  0  0  0  0  0  0  0
   -5.3503    1.5198   -0.9940 H   0  0  0  0  0  0  0  0  0  0  0  0
   -5.8860    2.5559    0.3266 H   0  0  0  0  0  0  0  0  0  0  0  0
   -3.0458    1.9245    2.6351 H   0  0  0  0  0  0  0  0  0  0  0  0
   -4.5174    2.8682    2.3703 H   0  0  0  0  0  0  0  0  0  0  0  0
   -4.6307    1.1357    2.7281 H   0  0  0  0  0  0  0  0  0  0  0  0
  1  2  1  0
  2  3  1  0
  3  4  1  0
  4  5  2  0
  5  6  1  0
  6  7  2  0
  7  8  1  0
  7  9  1  0
  9 10  1  0
  9 11  2  0
 11 12  1  0
  2 13  2  0
 13 14  1  0
 14 15  2  0
 15 16  1  0
 16 17  1  0
 16 18  1  0
 18 19  2  0
 19 20  1  0
 20 21  2  3
 21 22  1  0
 22 23  1  0
 23 24  1  0
 24 25  1  0
 24 26  1  0
 20  1  1  0
 11  4  1  0
 18 13  1  0
  1 27  1  0
  3 28  1  0
  5 29  1  0
  6 30  1  0
 14 31  1  0
 17 32  1  0
 17 33  1  0
 17 34  1  0
 22 35  1  0
 22 36  1  0
 23 37  1  0
 23 38  1  0
 24 39  1  0
 25 40  1  0
 25 41  1  0
 25 42  1  0
 26 43  1  0
 26 44  1  0
 26 45  1  0
M  END
>  <ScrubInfo>  (2) 
{"isomerGroup": 0, "isomerId": 1, "confId": 0, "nr_conformers:": 1, "nr_isomers:": 9}

$$$$
_i2
     RDKit          3D

 45 47  0  0  0  0  0  0  0  0999 V2000
   -0.8898   -0.7646    0.2295 N   0  0  0  0  0  0  0  0  0  0  0  0
    0.2546   -1.5280    0.2211 C   0  0  0  0  0  0  0  0  0  0  0  0
    1.4021   -0.8772    0.5818 N   0  0  0  0  0  0  0  0  0  0  0  0
    1.8234    0.3475   -0.0938 C   0  0  0  0  0  0  0  0  0  0  0  0
    3.1435    0.8322    0.5092 C   0  0  0  0  0  0  0  0  0  0  0  0
    3.5983    2.1999   -0.0315 C   0  0  0  0  0  0  0  0  0  0  0  0
    3.8836    2.1679   -1.5336 C   0  0  0  0  0  0  0  0  0  0  0  0
    4.8460    2.6674    0.7219 C   0  0  0  0  0  0  0  0  0  0  0  0
    0.2969   -2.8005   -0.0858 N   0  0  0  0  0  0  0  0  0  0  0  0
   -0.9366   -3.2652   -0.4336 C   0  0  0  0  0  0  0  0  0  0  0  0
   -2.1291   -2.5685   -0.4738 C   0  0  0  0  0  0  0  0  0  0  0  0
   -3.0871   -3.4992   -0.8989 C   0  0  0  0  0  0  0  0  0  0  0  0
   -2.5563   -4.7097   -1.1172 N   0  0  0  0  0  0  0  0  0  0  0  0
   -1.2422   -4.5391   -0.8255 N   0  0  0  0  0  0  0  0  0  0  0  0
   -0.3407   -5.6561   -0.9508 C   0  0  0  0  0  0  0  0  0  0  0  0
   -2.1618   -1.1745   -0.1032 C   0  0  0  0  0  0  0  0  0  0  0  0
   -3.3009   -0.5683   -0.1174 N   0  0  0  0  0  0  0  0  0  0  0  0
   -3.4004    0.7857    0.2405 C   0  0  0  0  0  0  0  0  0  0  0  0
   -4.3322    1.1307    1.2289 C   0  0  0  0  0  0  0  0  0  0  0  0
   -4.5177    2.4641    1.6054 C   0  0  0  0  0  0  0  0  0  0  0  0
   -3.7743    3.4610    0.9831 C   0  0  0  0  0  0  0  0  0  0  0  0
   -3.9489    4.7367    1.3524 F   0  0  0  0  0  0  0  0  0  0  0  0
   -2.8565    3.1404   -0.0071 C   0  0  0  0  0  0  0  0  0  0  0  0
   -2.1336    4.1058   -0.5929 F   0  0  0  0  0  0  0  0  0  0  0  0
   -2.6765    1.8140   -0.3817 C   0  0  0  0  0  0  0  0  0  0  0  0
   -1.7723    1.5216   -1.3302 F   0  0  0  0  0  0  0  0  0  0  0  0
   -0.7927    0.1619    0.6034 H   0  0  0  0  0  0  0  0  0  0  0  0
    2.1573   -1.5622    0.5776 H   0  0  0  0  0  0  0  0  0  0  0  0
    1.0629    1.1271    0.0224 H   0  0  0  0  0  0  0  0  0  0  0  0
    1.9405    0.1416   -1.1630 H   0  0  0  0  0  0  0  0  0  0  0  0
    3.9246    0.0814    0.3309 H   0  0  0  0  0  0  0  0  0  0  0  0
    3.0288    0.9009    1.5993 H   0  0  0  0  0  0  0  0  0  0  0  0
    2.8020    2.9327    0.1510 H   0  0  0  0  0  0  0  0  0  0  0  0
    4.2678    3.1347   -1.8764 H   0  0  0  0  0  0  0  0  0  0  0  0
    2.9754    1.9595   -2.1072 H   0  0  0  0  0  0  0  0  0  0  0  0
    4.6271    1.4025   -1.7803 H   0  0  0  0  0  0  0  0  0  0  0  0
    5.6821    1.9752    0.5746 H   0  0  0  0  0  0  0  0  0  0  0  0
    4.6485    2.7374    1.7968 H   0  0  0  0  0  0  0  0  0  0  0  0
    5.1610    3.6579    0.3768 H   0  0  0  0  0  0  0  0  0  0  0  0
   -4.1470   -3.3494   -1.0578 H   0  0  0  0  0  0  0  0  0  0  0  0
    0.6706   -5.3570   -0.6672 H   0  0  0  0  0  0  0  0  0  0  0  0
   -0.6887   -6.4546   -0.2905 H   0  0  0  0  0  0  0  0  0  0  0  0
   -0.3501   -5.9899   -1.9915 H   0  0  0  0  0  0  0  0  0  0  0  0
   -4.9224    0.3483    1.7031 H   0  0  0  0  0  0  0  0  0  0  0  0
   -5.2392    2.7278    2.3734 H   0  0  0  0  0  0  0  0  0  0  0  0
  1  2  1  0
  2  3  1  0
  3  4  1  0
  4  5  1  0
  5  6  1  0
  6  7  1  0
  6  8  1  0
  2  9  2  0
  9 10  1  0
 10 11  2  0
 11 12  1  0
 12 13  2  0
 13 14  1  0
 14 15  1  0
 11 16  1  0
 16 17  2  3
 17 18  1  0
 18 19  2  0
 19 20  1  0
 20 21  2  0
 21 22  1  0
 21 23  1  0
 23 24  1  0
 23 25  2  0
 25 26  1  0
 16  1  1  0
 25 18  1  0
 14 10  1  0
  1 27  1  0
  3 28  1  0
  4 29  1  0
  4 30  1  0
  5 31  1  0
  5 32  1  0
  6 33  1  0
  7 34  1  0
  7 35  1  0
  7 36  1  0
  8 37  1  0
  8 38  1  0
  8 39  1  0
 12 40  1  0
 15 41  1  0
 15 42  1  0
 15 43  1  0
 19 44  1  0
 20 45  1  0
M  END
>  <ScrubInfo>  (3) 
{"isomerGroup": 0, "isomerId": 2, "confId": 0, "nr_conformers:": 1, "nr_isomers:": 9}

$$$$
_i3
     RDKit          3D

 45 47  0  0  0  0  0  0  0  0999 V2000
    0.5362    0.0153    0.5606 N   0  0  0  0  0  0  0  0  0  0  0  0
    0.5391    0.3043   -0.7957 C   0  0  0  0  0  0  0  0  0  0  0  0
    1.5073    0.8198   -1.4652 N   0  0  0  0  0  0  0  0  0  0  0  0
    2.7553    1.1997   -0.8161 C   0  0  0  0  0  0  0  0  0  0  0  0
    3.7000   -0.0019   -0.7639 C   0  0  0  0  0  0  0  0  0  0  0  0
    5.0981    0.3405   -0.2190 C   0  0  0  0  0  0  0  0  0  0  0  0
    6.0217   -0.8718   -0.3615 C   0  0  0  0  0  0  0  0  0  0  0  0
    5.0579    0.7881    1.2431 C   0  0  0  0  0  0  0  0  0  0  0  0
   -0.5692    0.0346   -1.5877 N   0  0  0  0  0  0  0  0  0  0  0  0
   -1.6370   -0.4804   -1.0491 C   0  0  0  0  0  0  0  0  0  0  0  0
   -2.7598   -0.7800   -1.7813 N   0  0  0  0  0  0  0  0  0  0  0  0
   -4.0407   -0.2153   -1.5236 C   0  0  0  0  0  0  0  0  0  0  0  0
   -5.1579   -0.8558   -2.0875 C   0  0  0  0  0  0  0  0  0  0  0  0
   -6.4438   -0.3359   -1.9142 C   0  0  0  0  0  0  0  0  0  0  0  0
   -6.6182    0.8399   -1.1922 C   0  0  0  0  0  0  0  0  0  0  0  0
   -7.8537    1.3326   -1.0330 F   0  0  0  0  0  0  0  0  0  0  0  0
   -5.5264    1.5029   -0.6512 C   0  0  0  0  0  0  0  0  0  0  0  0
   -5.7040    2.6460    0.0267 F   0  0  0  0  0  0  0  0  0  0  0  0
   -4.2464    0.9861   -0.8228 C   0  0  0  0  0  0  0  0  0  0  0  0
   -3.2055    1.6672   -0.3210 F   0  0  0  0  0  0  0  0  0  0  0  0
   -1.6627   -0.8400    0.3480 C   0  0  0  0  0  0  0  0  0  0  0  0
   -2.5388   -1.4633    1.2480 C   0  0  0  0  0  0  0  0  0  0  0  0
   -2.0216   -1.5532    2.4836 N   0  0  0  0  0  0  0  0  0  0  0  0
   -0.7979   -0.9800    2.3652 N   0  0  0  0  0  0  0  0  0  0  0  0
    0.0531   -0.8993    3.5247 C   0  0  0  0  0  0  0  0  0  0  0  0
   -0.5534   -0.5613    1.0962 C   0  0  0  0  0  0  0  0  0  0  0  0
    1.3814    0.2014    1.0771 H   0  0  0  0  0  0  0  0  0  0  0  0
    2.5818    1.6334    0.1739 H   0  0  0  0  0  0  0  0  0  0  0  0
    3.2144    1.9957   -1.4140 H   0  0  0  0  0  0  0  0  0  0  0  0
    3.8012   -0.4091   -1.7788 H   0  0  0  0  0  0  0  0  0  0  0  0
    3.2533   -0.8019   -0.1600 H   0  0  0  0  0  0  0  0  0  0  0  0
    5.5207    1.1570   -0.8179 H   0  0  0  0  0  0  0  0  0  0  0  0
    5.6527   -1.7236    0.2200 H   0  0  0  0  0  0  0  0  0  0  0  0
    6.0972   -1.1830   -1.4088 H   0  0  0  0  0  0  0  0  0  0  0  0
    7.0322   -0.6348   -0.0119 H   0  0  0  0  0  0  0  0  0  0  0  0
    4.5094    1.7277    1.3580 H   0  0  0  0  0  0  0  0  0  0  0  0
    4.5790    0.0336    1.8763 H   0  0  0  0  0  0  0  0  0  0  0  0
    6.0705    0.9564    1.6254 H   0  0  0  0  0  0  0  0  0  0  0  0
   -2.5374   -0.5993   -2.7605 H   0  0  0  0  0  0  0  0  0  0  0  0
   -5.0297   -1.7767   -2.6545 H   0  0  0  0  0  0  0  0  0  0  0  0
   -7.3081   -0.8387   -2.3389 H   0  0  0  0  0  0  0  0  0  0  0  0
   -3.5282   -1.8621    1.0680 H   0  0  0  0  0  0  0  0  0  0  0  0
   -0.4967   -0.3941    4.3231 H   0  0  0  0  0  0  0  0  0  0  0  0
    0.9559   -0.3335    3.2855 H   0  0  0  0  0  0  0  0  0  0  0  0
    0.3187   -1.9154    3.8267 H   0  0  0  0  0  0  0  0  0  0  0  0
  1  2  1  0
  2  3  2  3
  3  4  1  0
  4  5  1  0
  5  6  1  0
  6  7  1  0
  6  8  1  0
  2  9  1  0
  9 10  2  0
 10 11  1  0
 11 12  1  0
 12 13  2  0
 13 14  1  0
 14 15  2  0
 15 16  1  0
 15 17  1  0
 17 18  1  0
 17 19  2  0
 19 20  1  0
 10 21  1  0
 21 22  1  0
 22 23  2  0
 23 24  1  0
 24 25  1  0
 24 26  1  0
 26  1  1  0
 19 12  1  0
 26 21  2  0
  1 27  1  0
  4 28  1  0
  4 29  1  0
  5 30  1  0
  5 31  1  0
  6 32  1  0
  7 33  1  0
  7 34  1  0
  7 35  1  0
  8 36  1  0
  8 37  1  0
  8 38  1  0
 11 39  1  0
 13 40  1  0
 14 41  1  0
 22 42  1  0
 25 43  1  0
 25 44  1  0
 25 45  1  0
M  END
>  <ScrubInfo>  (4) 
{"isomerGroup": 0, "isomerId": 3, "confId": 0, "nr_conformers:": 1, "nr_isomers:": 9}

$$$$
_i4
     RDKit          3D

 45 47  0  0  0  0  0  0  0  0999 V2000
   -2.5232   -2.7359   -3.3145 N   0  0  0  0  0  0  0  0  0  0  0  0
   -3.1705   -1.9848   -2.3362 C   0  0  0  0  0  0  0  0  0  0  0  0
   -2.3427   -1.1647   -1.6745 C   0  0  0  0  0  0  0  0  0  0  0  0
   -2.4285   -0.2354   -0.5727 C   0  0  0  0  0  0  0  0  0  0  0  0
   -3.5577    0.0825   -0.0191 N   0  0  0  0  0  0  0  0  0  0  0  0
   -3.5328    0.9681    1.0712 C   0  0  0  0  0  0  0  0  0  0  0  0
   -3.9073    2.3039    0.8744 C   0  0  0  0  0  0  0  0  0  0  0  0
   -3.9084    3.2041    1.9426 C   0  0  0  0  0  0  0  0  0  0  0  0
   -3.5436    2.7621    3.2109 C   0  0  0  0  0  0  0  0  0  0  0  0
   -3.5464    3.6311    4.2311 F   0  0  0  0  0  0  0  0  0  0  0  0
   -3.1856    1.4373    3.4239 C   0  0  0  0  0  0  0  0  0  0  0  0
   -2.8458    1.0239    4.6538 F   0  0  0  0  0  0  0  0  0  0  0  0
   -3.1854    0.5427    2.3618 C   0  0  0  0  0  0  0  0  0  0  0  0
   -2.8514   -0.7398    2.5803 F   0  0  0  0  0  0  0  0  0  0  0  0
   -1.2257    0.2848   -0.1715 N   0  0  0  0  0  0  0  0  0  0  0  0
   -0.0978   -0.0615   -0.7254 C   0  0  0  0  0  0  0  0  0  0  0  0
    1.0222    0.5241   -0.2121 N   0  0  0  0  0  0  0  0  0  0  0  0
    2.2634    0.6313   -0.9458 C   0  0  0  0  0  0  0  0  0  0  0  0
    3.3665    1.2143   -0.0586 C   0  0  0  0  0  0  0  0  0  0  0  0
    3.7157    0.3735    1.1862 C   0  0  0  0  0  0  0  0  0  0  0  0
    4.2144   -1.0264    0.8257 C   0  0  0  0  0  0  0  0  0  0  0  0
    4.7747    1.1007    2.0194 C   0  0  0  0  0  0  0  0  0  0  0  0
    0.0443   -0.9447   -1.7655 N   0  0  0  0  0  0  0  0  0  0  0  0
   -1.0263   -1.4745   -2.2435 C   0  0  0  0  0  0  0  0  0  0  0  0
   -1.1755   -2.3967   -3.2739 N   0  0  0  0  0  0  0  0  0  0  0  0
   -0.1467   -3.3394   -3.6477 C   0  0  0  0  0  0  0  0  0  0  0  0
   -2.7596   -3.7296   -3.2691 H   0  0  0  0  0  0  0  0  0  0  0  0
   -4.2259   -2.1349   -2.1567 H   0  0  0  0  0  0  0  0  0  0  0  0
   -4.1938    2.6382   -0.1197 H   0  0  0  0  0  0  0  0  0  0  0  0
   -4.1918    4.2413    1.7932 H   0  0  0  0  0  0  0  0  0  0  0  0
    0.7962    1.2972    0.4015 H   0  0  0  0  0  0  0  0  0  0  0  0
    2.1152    1.2955   -1.8054 H   0  0  0  0  0  0  0  0  0  0  0  0
    2.5718   -0.3425   -1.3401 H   0  0  0  0  0  0  0  0  0  0  0  0
    3.0620    2.2179    0.2667 H   0  0  0  0  0  0  0  0  0  0  0  0
    4.2675    1.3471   -0.6713 H   0  0  0  0  0  0  0  0  0  0  0  0
    2.8202    0.2674    1.8109 H   0  0  0  0  0  0  0  0  0  0  0  0
    5.0711   -0.9798    0.1450 H   0  0  0  0  0  0  0  0  0  0  0  0
    3.4285   -1.6182    0.3467 H   0  0  0  0  0  0  0  0  0  0  0  0
    4.5261   -1.5708    1.7237 H   0  0  0  0  0  0  0  0  0  0  0  0
    5.7045    1.2310    1.4552 H   0  0  0  0  0  0  0  0  0  0  0  0
    4.4192    2.0914    2.3218 H   0  0  0  0  0  0  0  0  0  0  0  0
    5.0069    0.5387    2.9303 H   0  0  0  0  0  0  0  0  0  0  0  0
    0.8092   -2.8288   -3.8020 H   0  0  0  0  0  0  0  0  0  0  0  0
   -0.4110   -3.8443   -4.5824 H   0  0  0  0  0  0  0  0  0  0  0  0
   -0.0164   -4.0972   -2.8685 H   0  0  0  0  0  0  0  0  0  0  0  0
  1  2  1  0
  2  3  2  0
  3  4  1  0
  4  5  2  3
  5  6  1  0
  6  7  2  0
  7  8  1  0
  8  9  2  0
  9 10  1  0
  9 11  1  0
 11 12  1  0
 11 13  2  0
 13 14  1  0
  4 15  1  0
 15 16  2  0
 16 17  1  0
 17 18  1  0
 18 19  1  0
 19 20  1  0
 20 21  1  0
 20 22  1  0
 16 23  1  0
 23 24  2  0
 24 25  1  0
 25 26  1  0
 25  1  1  0
 24  3  1  0
 13  6  1  0
  1 27  1  0
  2 28  1  0
  7 29  1  0
  8 30  1  0
 17 31  1  0
 18 32  1  0
 18 33  1  0
 19 34  1  0
 19 35  1  0
 20 36  1  0
 21 37  1  0
 21 38  1  0
 21 39  1  0
 22 40  1  0
 22 41  1  0
 22 42  1  0
 26 43  1  0
 26 44  1  0
 26 45  1  0
M  END
>  <ScrubInfo>  (5) 
{"isomerGroup": 0, "isomerId": 4, "confId": 0, "nr_conformers:": 1, "nr_isomers:": 9}

$$$$
_i5
     RDKit          3D

 45 47  0  0  0  0  0  0  0  0999 V2000
    0.2332    1.7353   -0.5409 N   0  0  0  0  0  0  0  0  0  0  0  0
   -0.0694    0.4207   -0.2679 C   0  0  0  0  0  0  0  0  0  0  0  0
    1.0084   -0.3826   -0.0278 N   0  0  0  0  0  0  0  0  0  0  0  0
    2.1187   -0.4799   -0.9659 C   0  0  0  0  0  0  0  0  0  0  0  0
    3.2242   -1.3807   -0.4081 C   0  0  0  0  0  0  0  0  0  0  0  0
    4.1889   -0.6831    0.5732 C   0  0  0  0  0  0  0  0  0  0  0  0
    5.3239   -1.6420    0.9454 C   0  0  0  0  0  0  0  0  0  0  0  0
    3.5028   -0.1844    1.8447 C   0  0  0  0  0  0  0  0  0  0  0  0
   -1.2696   -0.0894   -0.2064 N   0  0  0  0  0  0  0  0  0  0  0  0
   -2.3637    0.7383   -0.4309 C   0  0  0  0  0  0  0  0  0  0  0  0
   -3.5935    0.3314   -0.4254 N   0  0  0  0  0  0  0  0  0  0  0  0
   -3.8350   -1.0211   -0.1347 C   0  0  0  0  0  0  0  0  0  0  0  0
   -4.2136   -1.8815   -1.1740 C   0  0  0  0  0  0  0  0  0  0  0  0
   -4.4786   -3.2290   -0.9181 C   0  0  0  0  0  0  0  0  0  0  0  0
   -4.3740   -3.7123    0.3827 C   0  0  0  0  0  0  0  0  0  0  0  0
   -4.6275   -5.0066    0.6209 F   0  0  0  0  0  0  0  0  0  0  0  0
   -4.0163   -2.8680    1.4256 C   0  0  0  0  0  0  0  0  0  0  0  0
   -3.9275   -3.3467    2.6753 F   0  0  0  0  0  0  0  0  0  0  0  0
   -3.7545   -1.5282    1.1708 C   0  0  0  0  0  0  0  0  0  0  0  0
   -3.4231   -0.7171    2.1886 F   0  0  0  0  0  0  0  0  0  0  0  0
   -2.0957    2.1280   -0.6957 C   0  0  0  0  0  0  0  0  0  0  0  0
   -2.8639    3.2750   -0.9344 C   0  0  0  0  0  0  0  0  0  0  0  0
   -2.1031    4.3692   -1.1063 N   0  0  0  0  0  0  0  0  0  0  0  0
   -0.8350    3.9080   -0.9638 N   0  0  0  0  0  0  0  0  0  0  0  0
    0.2638    4.8316   -1.0822 C   0  0  0  0  0  0  0  0  0  0  0  0
   -0.8027    2.5701   -0.7318 C   0  0  0  0  0  0  0  0  0  0  0  0
    1.1731    2.0429   -0.3313 H   0  0  0  0  0  0  0  0  0  0  0  0
    0.6608   -1.3088    0.2170 H   0  0  0  0  0  0  0  0  0  0  0  0
    2.5278    0.5068   -1.2081 H   0  0  0  0  0  0  0  0  0  0  0  0
    1.7424   -0.9174   -1.8982 H   0  0  0  0  0  0  0  0  0  0  0  0
    3.8163   -1.7374   -1.2614 H   0  0  0  0  0  0  0  0  0  0  0  0
    2.7892   -2.2720    0.0621 H   0  0  0  0  0  0  0  0  0  0  0  0
    4.6368    0.1815    0.0668 H   0  0  0  0  0  0  0  0  0  0  0  0
    4.9415   -2.5276    1.4644 H   0  0  0  0  0  0  0  0  0  0  0  0
    6.0496   -1.1508    1.6023 H   0  0  0  0  0  0  0  0  0  0  0  0
    5.8602   -1.9773    0.0513 H   0  0  0  0  0  0  0  0  0  0  0  0
    2.9458   -0.9878    2.3381 H   0  0  0  0  0  0  0  0  0  0  0  0
    4.2391    0.2022    2.5579 H   0  0  0  0  0  0  0  0  0  0  0  0
    2.8111    0.6348    1.6278 H   0  0  0  0  0  0  0  0  0  0  0  0
   -4.2972   -1.4932   -2.1863 H   0  0  0  0  0  0  0  0  0  0  0  0
   -4.7666   -3.8998   -1.7217 H   0  0  0  0  0  0  0  0  0  0  0  0
   -3.9414    3.3651   -0.9858 H   0  0  0  0  0  0  0  0  0  0  0  0
    0.1889    5.5601   -0.2711 H   0  0  0  0  0  0  0  0  0  0  0  0
    1.2115    4.2934   -1.0123 H   0  0  0  0  0  0  0  0  0  0  0  0
    0.1938    5.3303   -2.0523 H   0  0  0  0  0  0  0  0  0  0  0  0
  1  2  1  0
  2  3  1  0
  3  4  1  0
  4  5  1  0
  5  6  1  0
  6  7  1  0
  6  8  1  0
  2  9  2  0
  9 10  1  0
 10 11  2  3
 11 12  1  0
 12 13  2  0
 13 14  1  0
 14 15  2  0
 15 16  1  0
 15 17  1  0
 17 18  1  0
 17 19  2  0
 19 20  1  0
 10 21  1  0
 21 22  1  0
 22 23  2  0
 23 24  1  0
 24 25  1  0
 24 26  1  0
 26  1  1  0
 19 12  1  0
 26 21  2  0
  1 27  1  0
  3 28  1  0
  4 29  1  0
  4 30  1  0
  5 31  1  0
  5 32  1  0
  6 33  1  0
  7 34  1  0
  7 35  1  0
  7 36  1  0
  8 37  1  0
  8 38  1  0
  8 39  1  0
 13 40  1  0
 14 41  1  0
 22 42  1  0
 25 43  1  0
 25 44  1  0
 25 45  1  0
M  END
>  <ScrubInfo>  (6) 
{"isomerGroup": 0, "isomerId": 5, "confId": 0, "nr_conformers:": 1, "nr_isomers:": 9}

$$$$
_i6
     RDKit          3D

 45 47  0  0  0  0  0  0  0  0999 V2000
    2.4861    2.0557   -2.1694 N   0  0  0  0  0  0  0  0  0  0  0  0
    2.9367    1.4360   -1.0081 C   0  0  0  0  0  0  0  0  0  0  0  0
    1.9528    0.8545   -0.3093 C   0  0  0  0  0  0  0  0  0  0  0  0
    1.7722    0.1170    0.9386 C   0  0  0  0  0  0  0  0  0  0  0  0
    2.7946   -0.2282    1.7971 N   0  0  0  0  0  0  0  0  0  0  0  0
    3.9871   -0.8938    1.4221 C   0  0  0  0  0  0  0  0  0  0  0  0
    5.0697   -0.8408    2.3182 C   0  0  0  0  0  0  0  0  0  0  0  0
    6.2726   -1.4934    2.0319 C   0  0  0  0  0  0  0  0  0  0  0  0
    6.3966   -2.2167    0.8514 C   0  0  0  0  0  0  0  0  0  0  0  0
    7.5531   -2.8363    0.5811 F   0  0  0  0  0  0  0  0  0  0  0  0
    5.3345   -2.3009   -0.0364 C   0  0  0  0  0  0  0  0  0  0  0  0
    5.4602   -3.0086   -1.1682 F   0  0  0  0  0  0  0  0  0  0  0  0
    4.1370   -1.6529    0.2496 C   0  0  0  0  0  0  0  0  0  0  0  0
    3.1166   -1.7836   -0.6113 F   0  0  0  0  0  0  0  0  0  0  0  0
    0.5585   -0.1899    1.3049 N   0  0  0  0  0  0  0  0  0  0  0  0
   -0.4965    0.1553    0.4873 C   0  0  0  0  0  0  0  0  0  0  0  0
   -1.6452   -0.1605    0.9731 N   0  0  0  0  0  0  0  0  0  0  0  0
   -2.8282    0.1612    0.1769 C   0  0  0  0  0  0  0  0  0  0  0  0
   -4.0622   -0.2974    0.9582 C   0  0  0  0  0  0  0  0  0  0  0  0
   -5.3932    0.1067    0.2992 C   0  0  0  0  0  0  0  0  0  0  0  0
   -6.5607   -0.2679    1.2153 C   0  0  0  0  0  0  0  0  0  0  0  0
   -5.5856   -0.5404   -1.0730 C   0  0  0  0  0  0  0  0  0  0  0  0
   -0.4228    0.7781   -0.7388 N   0  0  0  0  0  0  0  0  0  0  0  0
    0.7556    1.1112   -1.1376 C   0  0  0  0  0  0  0  0  0  0  0  0
    1.1358    1.7515   -2.3175 N   0  0  0  0  0  0  0  0  0  0  0  0
    0.2608    2.7115   -2.9623 C   0  0  0  0  0  0  0  0  0  0  0  0
    3.0759    1.8658   -2.9835 H   0  0  0  0  0  0  0  0  0  0  0  0
    3.9904    1.4671   -0.7730 H   0  0  0  0  0  0  0  0  0  0  0  0
    2.3971   -0.6730    2.6243 H   0  0  0  0  0  0  0  0  0  0  0  0
    4.9826   -0.2742    3.2443 H   0  0  0  0  0  0  0  0  0  0  0  0
    7.1103   -1.4416    2.7217 H   0  0  0  0  0  0  0  0  0  0  0  0
   -2.7872   -0.3581   -0.7870 H   0  0  0  0  0  0  0  0  0  0  0  0
   -2.8937    1.2418    0.0017 H   0  0  0  0  0  0  0  0  0  0  0  0
   -4.0240   -1.3867    1.0907 H   0  0  0  0  0  0  0  0  0  0  0  0
   -4.0188    0.1340    1.9673 H   0  0  0  0  0  0  0  0  0  0  0  0
   -5.4049    1.1963    0.1693 H   0  0  0  0  0  0  0  0  0  0  0  0
   -7.5146    0.0480    0.7797 H   0  0  0  0  0  0  0  0  0  0  0  0
   -6.4629    0.2208    2.1905 H   0  0  0  0  0  0  0  0  0  0  0  0
   -6.6052   -1.3498    1.3807 H   0  0  0  0  0  0  0  0  0  0  0  0
   -4.8358   -0.1889   -1.7881 H   0  0  0  0  0  0  0  0  0  0  0  0
   -5.5142   -1.6316   -1.0110 H   0  0  0  0  0  0  0  0  0  0  0  0
   -6.5686   -0.2894   -1.4862 H   0  0  0  0  0  0  0  0  0  0  0  0
   -0.7175    2.2647   -3.1667 H   0  0  0  0  0  0  0  0  0  0  0  0
    0.1181    3.5939   -2.3298 H   0  0  0  0  0  0  0  0  0  0  0  0
    0.6873    3.0335   -3.9178 H   0  0  0  0  0  0  0  0  0  0  0  0
  1  2  1  0
  2  3  2  0
  3  4  1  0
  4  5  1  0
  5  6  1  0
  6  7  2  0
  7  8  1  0
  8  9  2  0
  9 10  1  0
  9 11  1  0
 11 12  1  0
 11 13  2  0
 13 14  1  0
  4 15  2  0
 15 16  1  0
 16 17  2  3
 17 18  1  0
 18 19  1  0
 19 20  1  0
 20 21  1  0
 20 22  1  0
 16 23  1  0
 23 24  2  0
 24 25  1  0
 25 26  1  0
 25  1  1  0
 24  3  1  0
 13  6  1  0
  1 27  1  0
  2 28  1  0
  5 29  1  0
  7 30  1  0
  8 31  1  0
 18 32  1  0
 18 33  1  0
 19 34  1  0
 19 35  1  0
 20 36  1  0
 21 37  1  0
 21 38  1  0
 21 39  1  0
 22 40  1  0
 22 41  1  0
 22 42  1  0
 26 43  1  0
 26 44  1  0
 26 45  1  0
M  END
>  <ScrubInfo>  (7) 
{"isomerGroup": 0, "isomerId": 6, "confId": 0, "nr_conformers:": 1, "nr_isomers:": 9}

$$$$
_i7
     RDKit          3D

 45 47  0  0  0  0  0  0  0  0999 V2000
   -2.9927   -3.7243   -1.4350 N   0  0  0  0  0  0  0  0  0  0  0  0
   -3.3039   -2.5169   -0.8200 C   0  0  0  0  0  0  0  0  0  0  0  0
   -2.2920   -1.6414   -0.8509 C   0  0  0  0  0  0  0  0  0  0  0  0
   -2.0075   -0.2886   -0.3676 C   0  0  0  0  0  0  0  0  0  0  0  0
   -2.9479    0.3659    0.2470 N   0  0  0  0  0  0  0  0  0  0  0  0
   -2.7265    1.6617    0.7397 C   0  0  0  0  0  0  0  0  0  0  0  0
   -3.5098    2.7060    0.2320 C   0  0  0  0  0  0  0  0  0  0  0  0
   -3.3654    4.0081    0.7193 C   0  0  0  0  0  0  0  0  0  0  0  0
   -2.4407    4.2648    1.7264 C   0  0  0  0  0  0  0  0  0  0  0  0
   -2.3020    5.5159    2.1848 F   0  0  0  0  0  0  0  0  0  0  0  0
   -1.6653    3.2396    2.2497 C   0  0  0  0  0  0  0  0  0  0  0  0
   -0.7673    3.4984    3.2109 F   0  0  0  0  0  0  0  0  0  0  0  0
   -1.8122    1.9458    1.7650 C   0  0  0  0  0  0  0  0  0  0  0  0
   -1.0418    0.9661    2.2633 F   0  0  0  0  0  0  0  0  0  0  0  0
   -0.7239    0.1094   -0.6547 N   0  0  0  0  0  0  0  0  0  0  0  0
    0.2399   -0.6324   -1.3004 C   0  0  0  0  0  0  0  0  0  0  0  0
    1.4588   -0.2829   -1.5045 N   0  0  0  0  0  0  0  0  0  0  0  0
    1.9747    1.0052   -1.0642 C   0  0  0  0  0  0  0  0  0  0  0  0
    2.4113    0.9563    0.4018 C   0  0  0  0  0  0  0  0  0  0  0  0
    3.4798   -0.1056    0.7294 C   0  0  0  0  0  0  0  0  0  0  0  0
    4.7811    0.1174   -0.0418 C   0  0  0  0  0  0  0  0  0  0  0  0
    3.7636   -0.1043    2.2340 C   0  0  0  0  0  0  0  0  0  0  0  0
   -0.0453   -1.8844   -1.8086 N   0  0  0  0  0  0  0  0  0  0  0  0
   -1.2317   -2.3649   -1.6141 C   0  0  0  0  0  0  0  0  0  0  0  0
   -1.7441   -3.5936   -2.0392 N   0  0  0  0  0  0  0  0  0  0  0  0
   -0.8851   -4.7578   -2.1465 C   0  0  0  0  0  0  0  0  0  0  0  0
   -3.7433   -4.0845   -2.0282 H   0  0  0  0  0  0  0  0  0  0  0  0
   -4.2827   -2.3745   -0.3843 H   0  0  0  0  0  0  0  0  0  0  0  0
   -4.2431    2.4970   -0.5445 H   0  0  0  0  0  0  0  0  0  0  0  0
   -3.9716    4.8183    0.3243 H   0  0  0  0  0  0  0  0  0  0  0  0
   -0.4246    0.9941   -0.2885 H   0  0  0  0  0  0  0  0  0  0  0  0
    1.2440    1.8087   -1.2142 H   0  0  0  0  0  0  0  0  0  0  0  0
    2.8239    1.2733   -1.7019 H   0  0  0  0  0  0  0  0  0  0  0  0
    1.5312    0.7722    1.0303 H   0  0  0  0  0  0  0  0  0  0  0  0
    2.7868    1.9488    0.6822 H   0  0  0  0  0  0  0  0  0  0  0  0
    3.0918   -1.0978    0.4680 H   0  0  0  0  0  0  0  0  0  0  0  0
    5.5434   -0.6069    0.2654 H   0  0  0  0  0  0  0  0  0  0  0  0
    4.6326   -0.0077   -1.1185 H   0  0  0  0  0  0  0  0  0  0  0  0
    5.1800    1.1221    0.1344 H   0  0  0  0  0  0  0  0  0  0  0  0
    4.1647    0.8607    2.5624 H   0  0  0  0  0  0  0  0  0  0  0  0
    2.8491   -0.3033    2.8027 H   0  0  0  0  0  0  0  0  0  0  0  0
    4.4919   -0.8800    2.4935 H   0  0  0  0  0  0  0  0  0  0  0  0
   -0.0323   -4.5493   -2.8004 H   0  0  0  0  0  0  0  0  0  0  0  0
   -1.4374   -5.5996   -2.5766 H   0  0  0  0  0  0  0  0  0  0  0  0
   -0.5086   -5.0553   -1.1622 H   0  0  0  0  0  0  0  0  0  0  0  0
  1  2  1  0
  2  3  2  0
  3  4  1  0
  4  5  2  3
  5  6  1  0
  6  7  2  0
  7  8  1  0
  8  9  2  0
  9 10  1  0
  9 11  1  0
 11 12  1  0
 11 13  2  0
 13 14  1  0
  4 15  1  0
 15 16  1  0
 16 17  2  3
 17 18  1  0
 18 19  1  0
 19 20  1  0
 20 21  1  0
 20 22  1  0
 16 23  1  0
 23 24  2  0
 24 25  1  0
 25 26  1  0
 25  1  1  0
 24  3  1  0
 13  6  1  0
  1 27  1  0
  2 28  1  0
  7 29  1  0
  8 30  1  0
 15 31  1  0
 18 32  1  0
 18 33  1  0
 19 34  1  0
 19 35  1  0
 20 36  1  0
 21 37  1  0
 21 38  1  0
 21 39  1  0
 22 40  1  0
 22 41  1  0
 22 42  1  0
 26 43  1  0
 26 44  1  0
 26 45  1  0
M  END
>  <ScrubInfo>  (8) 
{"isomerGroup": 0, "isomerId": 7, "confId": 0, "nr_conformers:": 1, "nr_isomers:": 9}

$$$$
_i8
     RDKit          3D

 45 47  0  0  0  0  0  0  0  0999 V2000
    0.3049    1.2619   -0.7496 N   0  0  0  0  0  0  0  0  0  0  0  0
    0.7970   -0.0195   -0.5681 C   0  0  0  0  0  0  0  0  0  0  0  0
    2.0245   -0.4122   -0.6192 N   0  0  0  0  0  0  0  0  0  0  0  0
    3.0630    0.5752   -0.8914 C   0  0  0  0  0  0  0  0  0  0  0  0
    4.4300   -0.1133   -0.8743 C   0  0  0  0  0  0  0  0  0  0  0  0
    4.8152   -0.7626    0.4702 C   0  0  0  0  0  0  0  0  0  0  0  0
    6.1603   -1.4805    0.3297 C   0  0  0  0  0  0  0  0  0  0  0  0
    4.8893    0.2534    1.6107 C   0  0  0  0  0  0  0  0  0  0  0  0
   -0.1850   -0.9487   -0.3052 N   0  0  0  0  0  0  0  0  0  0  0  0
   -1.5513   -0.8305   -0.1732 C   0  0  0  0  0  0  0  0  0  0  0  0
   -2.2907   -1.8628    0.1027 N   0  0  0  0  0  0  0  0  0  0  0  0
   -3.6729   -1.7757    0.2942 C   0  0  0  0  0  0  0  0  0  0  0  0
   -4.5348   -2.1050   -0.7601 C   0  0  0  0  0  0  0  0  0  0  0  0
   -5.9196   -2.0807   -0.5755 C   0  0  0  0  0  0  0  0  0  0  0  0
   -6.4405   -1.7428    0.6705 C   0  0  0  0  0  0  0  0  0  0  0  0
   -7.7695   -1.7226    0.8393 F   0  0  0  0  0  0  0  0  0  0  0  0
   -5.5976   -1.4331    1.7296 C   0  0  0  0  0  0  0  0  0  0  0  0
   -6.1116   -1.1121    2.9256 F   0  0  0  0  0  0  0  0  0  0  0  0
   -4.2211   -1.4554    1.5449 C   0  0  0  0  0  0  0  0  0  0  0  0
   -3.4118   -1.1542    2.5727 F   0  0  0  0  0  0  0  0  0  0  0  0
   -1.9742    0.5429   -0.3931 C   0  0  0  0  0  0  0  0  0  0  0  0
   -3.1830    1.2619   -0.4275 C   0  0  0  0  0  0  0  0  0  0  0  0
   -3.0096    2.5646   -0.6926 N   0  0  0  0  0  0  0  0  0  0  0  0
   -1.6726    2.6897   -0.8340 N   0  0  0  0  0  0  0  0  0  0  0  0
   -1.1115    3.9865   -1.1188 C   0  0  0  0  0  0  0  0  0  0  0  0
   -1.0238    1.5044   -0.6678 C   0  0  0  0  0  0  0  0  0  0  0  0
    0.9795    1.9886   -0.9454 H   0  0  0  0  0  0  0  0  0  0  0  0
    2.9116    1.0121   -1.8860 H   0  0  0  0  0  0  0  0  0  0  0  0
    3.0397    1.3888   -0.1585 H   0  0  0  0  0  0  0  0  0  0  0  0
    4.4407   -0.8855   -1.6549 H   0  0  0  0  0  0  0  0  0  0  0  0
    5.1929    0.6243   -1.1543 H   0  0  0  0  0  0  0  0  0  0  0  0
    4.0638   -1.5175    0.7327 H   0  0  0  0  0  0  0  0  0  0  0  0
    6.1151   -2.2415   -0.4566 H   0  0  0  0  0  0  0  0  0  0  0  0
    6.9618   -0.7780    0.0770 H   0  0  0  0  0  0  0  0  0  0  0  0
    6.4326   -1.9835    1.2637 H   0  0  0  0  0  0  0  0  0  0  0  0
    3.9068    0.6849    1.8242 H   0  0  0  0  0  0  0  0  0  0  0  0
    5.5778    1.0706    1.3706 H   0  0  0  0  0  0  0  0  0  0  0  0
    5.2395   -0.2230    2.5329 H   0  0  0  0  0  0  0  0  0  0  0  0
    0.1695   -1.8823   -0.1537 H   0  0  0  0  0  0  0  0  0  0  0  0
   -4.1209   -2.3873   -1.7256 H   0  0  0  0  0  0  0  0  0  0  0  0
   -6.5925   -2.3307   -1.3907 H   0  0  0  0  0  0  0  0  0  0  0  0
   -4.1952    0.9153   -0.2777 H   0  0  0  0  0  0  0  0  0  0  0  0
   -0.8879    4.4758   -0.1679 H   0  0  0  0  0  0  0  0  0  0  0  0
   -0.2010    3.8660   -1.7103 H   0  0  0  0  0  0  0  0  0  0  0  0
   -1.8371    4.5741   -1.6875 H   0  0  0  0  0  0  0  0  0  0  0  0
  1  2  1  0
  2  3  2  3
  3  4  1  0
  4  5  1  0
  5  6  1  0
  6  7  1  0
  6  8  1  0
  2  9  1  0
  9 10  1  0
 10 11  2  3
 11 12  1  0
 12 13  2  0
 13 14  1  0
 14 15  2  0
 15 16  1  0
 15 17  1  0
 17 18  1  0
 17 19  2  0
 19 20  1  0
 10 21  1  0
 21 22  1  0
 22 23  2  0
 23 24  1  0
 24 25  1  0
 24 26  1  0
 26  1  1  0
 19 12  1  0
 26 21  2  0
  1 27  1  0
  4 28  1  0
  4 29  1  0
  5 30  1  0
  5 31  1  0
  6 32  1  0
  7 33  1  0
  7 34  1  0
  7 35  1  0
  8 36  1  0
  8 37  1  0
  8 38  1  0
  9 39  1  0
 13 40  1  0
 14 41  1  0
 22 42  1  0
 25 43  1  0
 25 44  1  0
 25 45  1  0
M  END
>  <ScrubInfo>  (9) 
{"isomerGroup": 0, "isomerId": 8, "confId": 0, "nr_conformers:": 1, "nr_isomers:": 9}

$$$$
