REMARK SMILES OCCOCCNc1nc(-c2ccncc2)cc2cnccc12
REMARK SMILES IDX 4 1 3 2 2 3 1 4 5 6 6 7 7 8 8 10 9 11 23 12 10 13 22 14
REMARK SMILES IDX 18 15 17 16 21 17 19 18 20 19 11 20 12 21 16 22 13 23 15 24
REMARK SMILES IDX 14 25
REMARK H PARENT 1 5 7 9
ROOT
ATOM      1  O   UNL     1       2.963  -0.393   1.177  1.00  0.00    -0.377 OA
ENDROOT
BRANCH   1   2
ATOM      2  C   UNL     1       4.273  -0.559   0.624  1.00  0.00     0.188 C 
BRANCH   2   3
ATOM      3  C   UNL     1       5.198   0.637   0.854  1.00  0.00     0.184 C 
BRANCH   3   4
ATOM      4  O   UNL     1       4.978   1.635  -0.143  1.00  0.00    -0.394 OA
ATOM      5  H   UNL     1       5.580   2.372   0.060  1.00  0.00     0.210 HD
ENDBRANCH   3   4
ENDBRANCH   2   3
ENDBRANCH   1   2
BRANCH   1   6
ATOM      6  C   UNL     1       2.174   0.672   0.623  1.00  0.00     0.181 C 
BRANCH   6   7
ATOM      7  C   UNL     1       1.781   0.436  -0.845  1.00  0.00     0.143 C 
BRANCH   7   8
ATOM      8  N   UNL     1       1.109  -0.861  -1.014  1.00  0.00    -0.367 N 
ATOM      9  H   UNL     1       1.580  -1.553  -0.430  1.00  0.00     0.162 HD
BRANCH   8  10
ATOM     10  C   UNL     1      -0.264  -0.889  -0.687  1.00  0.00     0.134 A 
ATOM     11  N   UNL     1      -0.876   0.266  -0.344  1.00  0.00    -0.230 NA
ATOM     12  C   UNL     1      -0.963  -2.117  -0.755  1.00  0.00     0.027 A 
ATOM     13  C   UNL     1      -2.189   0.260  -0.010  1.00  0.00     0.073 A 
ATOM     14  C   UNL     1      -0.393  -3.344  -1.155  1.00  0.00     0.032 A 
ATOM     15  C   UNL     1      -2.325  -2.107  -0.411  1.00  0.00     0.006 A 
ATOM     16  C   UNL     1      -2.940  -0.908  -0.032  1.00  0.00     0.039 A 
ATOM     17  C   UNL     1      -1.180  -4.483  -1.178  1.00  0.00     0.112 A 
ATOM     18  C   UNL     1      -3.023  -3.316  -0.469  1.00  0.00     0.119 A 
ATOM     19  N   UNL     1      -2.483  -4.499  -0.839  1.00  0.00    -0.264 NA
BRANCH  13  20
ATOM     20  C   UNL     1      -2.751   1.572   0.363  1.00  0.00     0.003 A 
ATOM     21  C   UNL     1      -2.278   2.748  -0.238  1.00  0.00     0.030 A 
ATOM     22  C   UNL     1      -3.759   1.710   1.328  1.00  0.00     0.030 A 
ATOM     23  C   UNL     1      -2.822   3.969   0.128  1.00  0.00     0.111 A 
ATOM     24  C   UNL     1      -4.240   2.976   1.630  1.00  0.00     0.111 A 
ATOM     25  N   UNL     1      -3.798   4.108   1.047  1.00  0.00    -0.265 NA
ENDBRANCH  13  20
ENDBRANCH   8  10
ENDBRANCH   7   8
ENDBRANCH   6   7
ENDBRANCH   1   6
TORSDOF 8
