_i0
     RDKit          3D

 41 43  0  0  0  0  0  0  0  0999 V2000
    4.9778    1.6346   -0.1427 O   0  0  0  0  0  0  0  0  0  0  0  0
    5.1980    0.6371    0.8544 C   0  0  0  0  0  0  0  0  0  0  0  0
    4.2728   -0.5587    0.6242 C   0  0  0  0  0  0  0  0  0  0  0  0
    2.9626   -0.3928    1.1772 O   0  0  0  0  0  0  0  0  0  0  0  0
    2.1739    0.6724    0.6228 C   0  0  0  0  0  0  0  0  0  0  0  0
    1.7814    0.4363   -0.8447 C   0  0  0  0  0  0  0  0  0  0  0  0
    1.1093   -0.8612   -1.0140 N   0  0  0  0  0  0  0  0  0  0  0  0
   -0.2640   -0.8891   -0.6872 C   0  0  0  0  0  0  0  0  0  0  0  0
   -0.8763    0.2661   -0.3437 N   0  0  0  0  0  0  0  0  0  0  0  0
   -2.1892    0.2597   -0.0103 C   0  0  0  0  0  0  0  0  0  0  0  0
   -2.7513    1.5721    0.3629 C   0  0  0  0  0  0  0  0  0  0  0  0
   -2.2776    2.7477   -0.2376 C   0  0  0  0  0  0  0  0  0  0  0  0
   -2.8221    3.9685    0.1278 C   0  0  0  0  0  0  0  0  0  0  0  0
   -3.7980    4.1078    1.0473 N   0  0  0  0  0  0  0  0  0  0  0  0
   -4.2404    2.9761    1.6300 C   0  0  0  0  0  0  0  0  0  0  0  0
   -3.7587    1.7103    1.3278 C   0  0  0  0  0  0  0  0  0  0  0  0
   -2.9399   -0.9079   -0.0323 C   0  0  0  0  0  0  0  0  0  0  0  0
   -2.3251   -2.1065   -0.4108 C   0  0  0  0  0  0  0  0  0  0  0  0
   -3.0229   -3.3157   -0.4694 C   0  0  0  0  0  0  0  0  0  0  0  0
   -2.4828   -4.4988   -0.8385 N   0  0  0  0  0  0  0  0  0  0  0  0
   -1.1798   -4.4833   -1.1783 C   0  0  0  0  0  0  0  0  0  0  0  0
   -0.3931   -3.3437   -1.1546 C   0  0  0  0  0  0  0  0  0  0  0  0
   -0.9634   -2.1166   -0.7553 C   0  0  0  0  0  0  0  0  0  0  0  0
    5.5800    2.3719    0.0604 H   0  0  0  0  0  0  0  0  0  0  0  0
    6.2422    0.3208    0.7722 H   0  0  0  0  0  0  0  0  0  0  0  0
    5.0258    1.0855    1.8376 H   0  0  0  0  0  0  0  0  0  0  0  0
    4.2013   -0.8164   -0.4368 H   0  0  0  0  0  0  0  0  0  0  0  0
    4.6978   -1.4260    1.1407 H   0  0  0  0  0  0  0  0  0  0  0  0
    2.6846    1.6315    0.7452 H   0  0  0  0  0  0  0  0  0  0  0  0
    1.2723    0.7305    1.2418 H   0  0  0  0  0  0  0  0  0  0  0  0
    1.1816    1.2688   -1.2311 H   0  0  0  0  0  0  0  0  0  0  0  0
    2.6831    0.4090   -1.4649 H   0  0  0  0  0  0  0  0  0  0  0  0
    1.5800   -1.5531   -0.4302 H   0  0  0  0  0  0  0  0  0  0  0  0
   -1.4925    2.7120   -0.9876 H   0  0  0  0  0  0  0  0  0  0  0  0
   -2.4746    4.8924   -0.3254 H   0  0  0  0  0  0  0  0  0  0  0  0
   -5.0172    3.1145    2.3768 H   0  0  0  0  0  0  0  0  0  0  0  0
   -4.1593    0.8552    1.8615 H   0  0  0  0  0  0  0  0  0  0  0  0
   -3.9965   -0.8913    0.2146 H   0  0  0  0  0  0  0  0  0  0  0  0
   -4.0784   -3.3704   -0.2137 H   0  0  0  0  0  0  0  0  0  0  0  0
   -0.7677   -5.4407   -1.4844 H   0  0  0  0  0  0  0  0  0  0  0  0
    0.6463   -3.4085   -1.4587 H   0  0  0  0  0  0  0  0  0  0  0  0
  1  2  1  0
  2  3  1  0
  3  4  1  0
  4  5  1  0
  5  6  1  0
  6  7  1  0
  7  8  1  0
  8  9  2  0
  9 10  1  0
 10 11  1  0
 11 12  2  0
 12 13  1  0
 13 14  2  0
 14 15  1  0
 15 16  2  0
 10 17  2  0
 17 18  1  0
 18 19  2  0
 19 20  1  0
 20 21  2  0
 21 22  1  0
 22 23  2  0
 23  8  1  0
 16 11  1  0
 23 18  1  0
  1 24  1  0
  2 25  1  0
  2 26  1  0
  3 27  1  0
  3 28  1  0
  5 29  1  0
  5 30  1  0
  6 31  1  0
  6 32  1  0
  7 33  1  0
 12 34  1  0
 13 35  1  0
 15 36  1  0
 16 37  1  0
 17 38  1  0
 19 39  1  0
 21 40  1  0
 22 41  1  0
M  END
>  <ScrubInfo>  (1) 
{"isomerGroup": 0, "isomerId": 0, "confId": 0, "nr_conformers:": 1, "nr_isomers:": 2}

$$$$
_i1
     RDKit          3D

 41 43  0  0  0  0  0  0  0  0999 V2000
   -1.3306    0.1439    0.6532 N   0  0  0  0  0  0  0  0  0  0  0  0
   -2.5651    0.0127    0.0647 C   0  0  0  0  0  0  0  0  0  0  0  0
   -3.4732    1.1671    0.1054 C   0  0  0  0  0  0  0  0  0  0  0  0
   -3.1352    2.3503   -0.5548 C   0  0  0  0  0  0  0  0  0  0  0  0
   -4.0182    3.4148   -0.4902 C   0  0  0  0  0  0  0  0  0  0  0  0
   -5.1897    3.3779    0.1796 N   0  0  0  0  0  0  0  0  0  0  0  0
   -5.4933    2.2250    0.8129 C   0  0  0  0  0  0  0  0  0  0  0  0
   -4.6793    1.1047    0.8051 C   0  0  0  0  0  0  0  0  0  0  0  0
   -2.9213   -1.1165   -0.5673 C   0  0  0  0  0  0  0  0  0  0  0  0
   -1.9662   -2.2338   -0.5732 C   0  0  0  0  0  0  0  0  0  0  0  0
   -2.3349   -3.4686   -1.0938 C   0  0  0  0  0  0  0  0  0  0  0  0
   -1.5435   -4.5636   -1.0819 N   0  0  0  0  0  0  0  0  0  0  0  0
   -0.3311   -4.4260   -0.5092 C   0  0  0  0  0  0  0  0  0  0  0  0
    0.1412   -3.2415    0.0344 C   0  0  0  0  0  0  0  0  0  0  0  0
   -0.6706   -2.1110   -0.0267 C   0  0  0  0  0  0  0  0  0  0  0  0
   -0.2948   -0.7544    0.5191 C   0  0  0  0  0  0  0  0  0  0  0  0
    0.8641   -0.2945    0.8575 N   0  0  0  0  0  0  0  0  0  0  0  0
    2.1381   -0.9691    0.6692 C   0  0  0  0  0  0  0  0  0  0  0  0
    3.2670    0.0691    0.7305 C   0  0  0  0  0  0  0  0  0  0  0  0
    3.3512    0.7569   -0.5197 O   0  0  0  0  0  0  0  0  0  0  0  0
    4.1230    1.9595   -0.4687 C   0  0  0  0  0  0  0  0  0  0  0  0
    5.6148    1.7362   -0.2057 C   0  0  0  0  0  0  0  0  0  0  0  0
    6.2151    1.0221   -1.2824 O   0  0  0  0  0  0  0  0  0  0  0  0
   -1.0595    1.0657    0.9736 H   0  0  0  0  0  0  0  0  0  0  0  0
   -2.2107    2.4418   -1.1158 H   0  0  0  0  0  0  0  0  0  0  0  0
   -3.8005    4.3537   -0.9915 H   0  0  0  0  0  0  0  0  0  0  0  0
   -6.4395    2.2257    1.3466 H   0  0  0  0  0  0  0  0  0  0  0  0
   -4.9780    0.2107    1.3418 H   0  0  0  0  0  0  0  0  0  0  0  0
   -3.8810   -1.2354   -1.0578 H   0  0  0  0  0  0  0  0  0  0  0  0
   -3.3135   -3.6279   -1.5391 H   0  0  0  0  0  0  0  0  0  0  0  0
    0.2744   -5.3285   -0.4890 H   0  0  0  0  0  0  0  0  0  0  0  0
    1.1109   -3.2483    0.5063 H   0  0  0  0  0  0  0  0  0  0  0  0
    2.1845   -1.4730   -0.3014 H   0  0  0  0  0  0  0  0  0  0  0  0
    2.2901   -1.6837    1.4842 H   0  0  0  0  0  0  0  0  0  0  0  0
    3.0946    0.7770    1.5497 H   0  0  0  0  0  0  0  0  0  0  0  0
    4.2140   -0.4536    0.8994 H   0  0  0  0  0  0  0  0  0  0  0  0
    4.0006    2.4413   -1.4446 H   0  0  0  0  0  0  0  0  0  0  0  0
    3.6962    2.6282    0.2873 H   0  0  0  0  0  0  0  0  0  0  0  0
    5.7817    1.1689    0.7137 H   0  0  0  0  0  0  0  0  0  0  0  0
    6.1222    2.7020   -0.1187 H   0  0  0  0  0  0  0  0  0  0  0  0
    7.1461    0.8740   -1.0470 H   0  0  0  0  0  0  0  0  0  0  0  0
  1  2  1  0
  2  3  1  0
  3  4  2  0
  4  5  1  0
  5  6  2  0
  6  7  1  0
  7  8  2  0
  2  9  2  0
  9 10  1  0
 10 11  2  0
 11 12  1  0
 12 13  2  0
 13 14  1  0
 14 15  2  0
 15 16  1  0
 16 17  2  3
 17 18  1  0
 18 19  1  0
 19 20  1  0
 20 21  1  0
 21 22  1  0
 22 23  1  0
 16  1  1  0
  8  3  1  0
 15 10  1  0
  1 24  1  0
  4 25  1  0
  5 26  1  0
  7 27  1  0
  8 28  1  0
  9 29  1  0
 11 30  1  0
 13 31  1  0
 14 32  1  0
 18 33  1  0
 18 34  1  0
 19 35  1  0
 19 36  1  0
 21 37  1  0
 21 38  1  0
 22 39  1  0
 22 40  1  0
 23 41  1  0
M  END
>  <ScrubInfo>  (2) 
{"isomerGroup": 0, "isomerId": 1, "confId": 0, "nr_conformers:": 1, "nr_isomers:": 2}

$$$$
