REMARK SMILES COCCNc1nc(Nc2ccc(OC)cc2)c2nccnc2n1
REMARK SMILES IDX 6 1 7 2 8 3 18 4 19 5 20 6 21 7 22 8 23 9 24 10 5 11 4 13
REMARK SMILES IDX 3 14 2 15 1 16 9 17 10 19 11 20 17 21 12 22 16 23 13 24
REMARK SMILES IDX 14 25 15 26
REMARK H PARENT 5 12 9 18
ROOT
ATOM      1  C   UNL     1      -1.573  -0.137   0.500  1.00  0.00     0.226 A 
ATOM      2  N   UNL     1      -0.265  -0.264   0.298  1.00  0.00    -0.193 NA
ATOM      3  C   UNL     1       0.317  -1.426   0.650  1.00  0.00     0.164 A 
ATOM      4  C   UNL     1      -0.397  -2.485   1.206  1.00  0.00     0.150 A 
ATOM      5  N   UNL     1       0.183  -3.679   1.548  1.00  0.00    -0.247 NA
ATOM      6  C   UNL     1      -0.640  -4.606   2.071  1.00  0.00     0.132 A 
ATOM      7  C   UNL     1      -1.984  -4.361   2.236  1.00  0.00     0.133 A 
ATOM      8  N   UNL     1      -2.553  -3.185   1.885  1.00  0.00    -0.233 NA
ATOM      9  C   UNL     1      -1.765  -2.233   1.367  1.00  0.00     0.185 A 
ATOM     10  N   UNL     1      -2.340  -1.089   1.021  1.00  0.00    -0.191 NA
ENDROOT
BRANCH   1  11
ATOM     11  N   UNL     1      -2.116   1.086   0.128  1.00  0.00    -0.352 N 
ATOM     12  H   UNL     1      -1.438   1.506  -0.501  1.00  0.00     0.163 HD
BRANCH  11  13
ATOM     13  C   UNL     1      -3.477   1.012  -0.386  1.00  0.00     0.144 C 
BRANCH  13  14
ATOM     14  C   UNL     1      -3.975   2.412  -0.773  1.00  0.00     0.181 C 
BRANCH  14  15
ATOM     15  O   UNL     1      -5.230   2.377  -1.455  1.00  0.00    -0.383 OA
ATOM     16  C   UNL     1      -6.333   2.173  -0.582  1.00  0.00     0.194 C 
ENDBRANCH  14  15
ENDBRANCH  13  14
ENDBRANCH  11  13
ENDBRANCH   1  11
BRANCH   3  17
ATOM     17  N   UNL     1       1.721  -1.612   0.499  1.00  0.00    -0.338 N 
ATOM     18  H   UNL     1       1.937  -2.606   0.472  1.00  0.00     0.168 HD
BRANCH  17  19
ATOM     19  C   UNL     1       2.734  -0.774   0.011  1.00  0.00     0.040 A 
ATOM     20  C   UNL     1       2.608   0.613  -0.104  1.00  0.00     0.030 A 
ATOM     21  C   UNL     1       3.970  -1.341  -0.331  1.00  0.00     0.030 A 
ATOM     22  C   UNL     1       3.664   1.409  -0.574  1.00  0.00     0.048 A 
ATOM     23  C   UNL     1       5.026  -0.552  -0.801  1.00  0.00     0.048 A 
ATOM     24  C   UNL     1       4.878   0.827  -0.929  1.00  0.00     0.119 A 
BRANCH  24  25
ATOM     25  O   UNL     1       5.982   1.483  -1.398  1.00  0.00    -0.497 OA
ATOM     26  C   UNL     1       5.874   2.893  -1.548  1.00  0.00     0.278 C 
ENDBRANCH  24  25
ENDBRANCH  17  19
ENDBRANCH   3  17
TORSDOF 7
