_i0
     RDKit          3D

 42 44  0  0  0  0  0  0  0  0999 V2000
   -6.3334    2.1732   -0.5821 C   0  0  0  0  0  0  0  0  0  0  0  0
   -5.2301    2.3774   -1.4554 O   0  0  0  0  0  0  0  0  0  0  0  0
   -3.9746    2.4118   -0.7727 C   0  0  0  0  0  0  0  0  0  0  0  0
   -3.4768    1.0124   -0.3856 C   0  0  0  0  0  0  0  0  0  0  0  0
   -2.1157    1.0856    0.1282 N   0  0  0  0  0  0  0  0  0  0  0  0
   -1.5734   -0.1368    0.4996 C   0  0  0  0  0  0  0  0  0  0  0  0
   -0.2647   -0.2637    0.2982 N   0  0  0  0  0  0  0  0  0  0  0  0
    0.3168   -1.4262    0.6500 C   0  0  0  0  0  0  0  0  0  0  0  0
    1.7207   -1.6119    0.4988 N   0  0  0  0  0  0  0  0  0  0  0  0
    2.7343   -0.7736    0.0106 C   0  0  0  0  0  0  0  0  0  0  0  0
    2.6083    0.6134   -0.1043 C   0  0  0  0  0  0  0  0  0  0  0  0
    3.6645    1.4090   -0.5743 C   0  0  0  0  0  0  0  0  0  0  0  0
    4.8785    0.8274   -0.9289 C   0  0  0  0  0  0  0  0  0  0  0  0
    5.9821    1.4829   -1.3983 O   0  0  0  0  0  0  0  0  0  0  0  0
    5.8743    2.8929   -1.5478 C   0  0  0  0  0  0  0  0  0  0  0  0
    5.0261   -0.5522   -0.8006 C   0  0  0  0  0  0  0  0  0  0  0  0
    3.9704   -1.3411   -0.3305 C   0  0  0  0  0  0  0  0  0  0  0  0
   -0.3974   -2.4846    1.2060 C   0  0  0  0  0  0  0  0  0  0  0  0
    0.1832   -3.6789    1.5475 N   0  0  0  0  0  0  0  0  0  0  0  0
   -0.6402   -4.6062    2.0705 C   0  0  0  0  0  0  0  0  0  0  0  0
   -1.9841   -4.3610    2.2356 C   0  0  0  0  0  0  0  0  0  0  0  0
   -2.5525   -3.1854    1.8846 N   0  0  0  0  0  0  0  0  0  0  0  0
   -1.7654   -2.2333    1.3670 C   0  0  0  0  0  0  0  0  0  0  0  0
   -2.3403   -1.0893    1.0209 N   0  0  0  0  0  0  0  0  0  0  0  0
   -7.2517    2.2408   -1.1720 H   0  0  0  0  0  0  0  0  0  0  0  0
   -6.3617    2.9454    0.1925 H   0  0  0  0  0  0  0  0  0  0  0  0
   -6.2927    1.1804   -0.1266 H   0  0  0  0  0  0  0  0  0  0  0  0
   -3.2578    2.8692   -1.4645 H   0  0  0  0  0  0  0  0  0  0  0  0
   -4.0316    3.0712    0.1020 H   0  0  0  0  0  0  0  0  0  0  0  0
   -3.5256    0.3573   -1.2650 H   0  0  0  0  0  0  0  0  0  0  0  0
   -4.1535    0.5933    0.3682 H   0  0  0  0  0  0  0  0  0  0  0  0
   -1.4383    1.5064   -0.5010 H   0  0  0  0  0  0  0  0  0  0  0  0
    1.9371   -2.6060    0.4725 H   0  0  0  0  0  0  0  0  0  0  0  0
    1.6884    1.1122    0.1850 H   0  0  0  0  0  0  0  0  0  0  0  0
    3.4993    2.4789   -0.6411 H   0  0  0  0  0  0  0  0  0  0  0  0
    5.6955    3.3795   -0.5832 H   0  0  0  0  0  0  0  0  0  0  0  0
    5.0975    3.1551   -2.2738 H   0  0  0  0  0  0  0  0  0  0  0  0
    6.8291    3.2620   -1.9344 H   0  0  0  0  0  0  0  0  0  0  0  0
    5.9710   -1.0199   -1.0650 H   0  0  0  0  0  0  0  0  0  0  0  0
    4.1281   -2.4126   -0.2376 H   0  0  0  0  0  0  0  0  0  0  0  0
   -0.1905   -5.5512    2.3527 H   0  0  0  0  0  0  0  0  0  0  0  0
   -2.6530   -5.1038    2.6559 H   0  0  0  0  0  0  0  0  0  0  0  0
  1  2  1  0
  2  3  1  0
  3  4  1  0
  4  5  1  0
  5  6  1  0
  6  7  2  0
  7  8  1  0
  8  9  1  0
  9 10  1  0
 10 11  2  0
 11 12  1  0
 12 13  2  0
 13 14  1  0
 14 15  1  0
 13 16  1  0
 16 17  2  0
  8 18  2  0
 18 19  1  0
 19 20  2  0
 20 21  1  0
 21 22  2  0
 22 23  1  0
 23 24  2  0
 24  6  1  0
 17 10  1  0
 23 18  1  0
  1 25  1  0
  1 26  1  0
  1 27  1  0
  3 28  1  0
  3 29  1  0
  4 30  1  0
  4 31  1  0
  5 32  1  0
  9 33  1  0
 11 34  1  0
 12 35  1  0
 15 36  1  0
 15 37  1  0
 15 38  1  0
 16 39  1  0
 17 40  1  0
 20 41  1  0
 21 42  1  0
M  END
>  <ScrubInfo>  (1) 
{"isomerGroup": 0, "isomerId": 0, "confId": 0, "nr_conformers:": 1, "nr_isomers:": 9}

$$$$
_i1
     RDKit          3D

 42 44  0  0  0  0  0  0  0  0999 V2000
    0.3248    0.0835   -0.2879 N   0  0  0  0  0  0  0  0  0  0  0  0
   -0.2624   -1.1535   -0.1733 C   0  0  0  0  0  0  0  0  0  0  0  0
   -1.5668   -1.3974   -0.5844 N   0  0  0  0  0  0  0  0  0  0  0  0
   -2.6925   -0.5562   -0.5050 C   0  0  0  0  0  0  0  0  0  0  0  0
   -2.7230    0.6443    0.2125 C   0  0  0  0  0  0  0  0  0  0  0  0
   -3.8636    1.4609    0.2168 C   0  0  0  0  0  0  0  0  0  0  0  0
   -4.9947    1.0922   -0.5073 C   0  0  0  0  0  0  0  0  0  0  0  0
   -6.1652    1.7930   -0.5886 O   0  0  0  0  0  0  0  0  0  0  0  0
   -6.2237    3.0289    0.1126 C   0  0  0  0  0  0  0  0  0  0  0  0
   -4.9739   -0.0993   -1.2308 C   0  0  0  0  0  0  0  0  0  0  0  0
   -3.8358   -0.9119   -1.2322 C   0  0  0  0  0  0  0  0  0  0  0  0
    0.4901   -2.1770    0.3020 C   0  0  0  0  0  0  0  0  0  0  0  0
    0.0109   -3.4665    0.4249 N   0  0  0  0  0  0  0  0  0  0  0  0
    0.8489   -4.3112    0.9270 C   0  0  0  0  0  0  0  0  0  0  0  0
    2.2311   -3.9354    1.3449 C   0  0  0  0  0  0  0  0  0  0  0  0
    2.7021   -2.7420    1.2259 N   0  0  0  0  0  0  0  0  0  0  0  0
    1.8942   -1.7662    0.6898 C   0  0  0  0  0  0  0  0  0  0  0  0
    2.4232   -0.5952    0.5699 N   0  0  0  0  0  0  0  0  0  0  0  0
    1.6180    0.3665    0.0249 C   0  0  0  0  0  0  0  0  0  0  0  0
    2.0748    1.5504   -0.2154 N   0  0  0  0  0  0  0  0  0  0  0  0
    3.4687    1.8334    0.1471 C   0  0  0  0  0  0  0  0  0  0  0  0
    4.4272    1.3885   -0.9606 C   0  0  0  0  0  0  0  0  0  0  0  0
    5.7915    1.6801   -0.6422 O   0  0  0  0  0  0  0  0  0  0  0  0
    6.3634    0.7177    0.2348 C   0  0  0  0  0  0  0  0  0  0  0  0
   -0.1873    0.7881   -0.7988 H   0  0  0  0  0  0  0  0  0  0  0  0
   -1.8066   -2.3879   -0.5167 H   0  0  0  0  0  0  0  0  0  0  0  0
   -1.8746    0.9562    0.8154 H   0  0  0  0  0  0  0  0  0  0  0  0
   -3.8308    2.3739    0.8020 H   0  0  0  0  0  0  0  0  0  0  0  0
   -7.2112    3.4664   -0.0631 H   0  0  0  0  0  0  0  0  0  0  0  0
   -5.4753    3.7335   -0.2651 H   0  0  0  0  0  0  0  0  0  0  0  0
   -6.1146    2.8758    1.1913 H   0  0  0  0  0  0  0  0  0  0  0  0
   -5.8480   -0.3966   -1.8048 H   0  0  0  0  0  0  0  0  0  0  0  0
   -3.8461   -1.8252   -1.8221 H   0  0  0  0  0  0  0  0  0  0  0  0
    0.5839   -5.3692    1.0756 H   0  0  0  0  0  0  0  0  0  0  0  0
    2.8331   -4.7543    1.7672 H   0  0  0  0  0  0  0  0  0  0  0  0
    3.5720    2.9165    0.2868 H   0  0  0  0  0  0  0  0  0  0  0  0
    3.7365    1.4072    1.1206 H   0  0  0  0  0  0  0  0  0  0  0  0
    4.3156    0.3253   -1.2030 H   0  0  0  0  0  0  0  0  0  0  0  0
    4.1900    1.9418   -1.8765 H   0  0  0  0  0  0  0  0  0  0  0  0
    7.4142    0.9790    0.3876 H   0  0  0  0  0  0  0  0  0  0  0  0
    5.8649    0.7241    1.2074 H   0  0  0  0  0  0  0  0  0  0  0  0
    6.3173   -0.2824   -0.2071 H   0  0  0  0  0  0  0  0  0  0  0  0
  1  2  1  0
  2  3  1  0
  3  4  1  0
  4  5  2  0
  5  6  1  0
  6  7  2  0
  7  8  1  0
  8  9  1  0
  7 10  1  0
 10 11  2  0
  2 12  2  0
 12 13  1  0
 13 14  2  0
 14 15  1  0
 15 16  2  0
 16 17  1  0
 17 18  2  0
 18 19  1  0
 19 20  2  3
 20 21  1  0
 21 22  1  0
 22 23  1  0
 23 24  1  0
 19  1  1  0
 11  4  1  0
 17 12  1  0
  1 25  1  0
  3 26  1  0
  5 27  1  0
  6 28  1  0
  9 29  1  0
  9 30  1  0
  9 31  1  0
 10 32  1  0
 11 33  1  0
 14 34  1  0
 15 35  1  0
 21 36  1  0
 21 37  1  0
 22 38  1  0
 22 39  1  0
 24 40  1  0
 24 41  1  0
 24 42  1  0
M  END
>  <ScrubInfo>  (2) 
{"isomerGroup": 0, "isomerId": 1, "confId": 0, "nr_conformers:": 1, "nr_isomers:": 9}

$$$$
_i2
     RDKit          3D

 42 44  0  0  0  0  0  0  0  0999 V2000
   -0.1084   -0.6800   -0.2619 N   0  0  0  0  0  0  0  0  0  0  0  0
   -1.4595   -0.6465   -0.0789 C   0  0  0  0  0  0  0  0  0  0  0  0
   -1.9018    0.5572    0.3963 N   0  0  0  0  0  0  0  0  0  0  0  0
   -3.3340    0.7899    0.5810 C   0  0  0  0  0  0  0  0  0  0  0  0
   -3.5839    2.1532    1.2369 C   0  0  0  0  0  0  0  0  0  0  0  0
   -4.9543    2.3695    1.5750 O   0  0  0  0  0  0  0  0  0  0  0  0
   -5.7796    2.6415    0.4504 C   0  0  0  0  0  0  0  0  0  0  0  0
   -2.2356   -1.6578   -0.3223 N   0  0  0  0  0  0  0  0  0  0  0  0
   -1.6102   -2.8241   -0.8129 C   0  0  0  0  0  0  0  0  0  0  0  0
   -2.4560   -3.8478   -1.0803 N   0  0  0  0  0  0  0  0  0  0  0  0
   -1.8765   -4.9781   -1.5526 C   0  0  0  0  0  0  0  0  0  0  0  0
   -0.5082   -5.0972   -1.7585 C   0  0  0  0  0  0  0  0  0  0  0  0
    0.3561   -4.0919   -1.5036 N   0  0  0  0  0  0  0  0  0  0  0  0
   -0.2304   -2.9601   -1.0280 C   0  0  0  0  0  0  0  0  0  0  0  0
    0.6139   -1.7715   -0.7016 C   0  0  0  0  0  0  0  0  0  0  0  0
    1.9081   -1.8399   -0.8369 N   0  0  0  0  0  0  0  0  0  0  0  0
    2.6878   -0.7208   -0.5275 C   0  0  0  0  0  0  0  0  0  0  0  0
    3.2406   -0.5809    0.7465 C   0  0  0  0  0  0  0  0  0  0  0  0
    4.0080    0.5434    1.0718 C   0  0  0  0  0  0  0  0  0  0  0  0
    4.2360    1.5337    0.1157 C   0  0  0  0  0  0  0  0  0  0  0  0
    4.9575    2.6801    0.3014 O   0  0  0  0  0  0  0  0  0  0  0  0
    5.6109    2.8319    1.5556 C   0  0  0  0  0  0  0  0  0  0  0  0
    3.6961    1.3847   -1.1646 C   0  0  0  0  0  0  0  0  0  0  0  0
    2.9329    0.2604   -1.4878 C   0  0  0  0  0  0  0  0  0  0  0  0
    0.4264    0.0970    0.0947 H   0  0  0  0  0  0  0  0  0  0  0  0
   -1.4168    1.3597    0.0113 H   0  0  0  0  0  0  0  0  0  0  0  0
   -3.7711    0.0054    1.2104 H   0  0  0  0  0  0  0  0  0  0  0  0
   -3.8387    0.7419   -0.3901 H   0  0  0  0  0  0  0  0  0  0  0  0
   -3.2197    2.9707    0.6026 H   0  0  0  0  0  0  0  0  0  0  0  0
   -3.0174    2.2084    2.1737 H   0  0  0  0  0  0  0  0  0  0  0  0
   -5.3924    3.4927   -0.1177 H   0  0  0  0  0  0  0  0  0  0  0  0
   -5.8631    1.7621   -0.1935 H   0  0  0  0  0  0  0  0  0  0  0  0
   -6.7795    2.8935    0.8144 H   0  0  0  0  0  0  0  0  0  0  0  0
   -2.5522   -5.7996   -1.7647 H   0  0  0  0  0  0  0  0  0  0  0  0
   -0.0713   -6.0146   -2.1377 H   0  0  0  0  0  0  0  0  0  0  0  0
    3.0748   -1.3578    1.4887 H   0  0  0  0  0  0  0  0  0  0  0  0
    4.4145    0.6089    2.0753 H   0  0  0  0  0  0  0  0  0  0  0  0
    6.3255    2.0208    1.7309 H   0  0  0  0  0  0  0  0  0  0  0  0
    4.8841    2.9026    2.3715 H   0  0  0  0  0  0  0  0  0  0  0  0
    6.1727    3.7705    1.5283 H   0  0  0  0  0  0  0  0  0  0  0  0
    3.8820    2.1442   -1.9201 H   0  0  0  0  0  0  0  0  0  0  0  0
    2.5330    0.1446   -2.4914 H   0  0  0  0  0  0  0  0  0  0  0  0
  1  2  1  0
  2  3  1  0
  3  4  1  0
  4  5  1  0
  5  6  1  0
  6  7  1  0
  2  8  2  0
  8  9  1  0
  9 10  2  0
 10 11  1  0
 11 12  2  0
 12 13  1  0
 13 14  2  0
 14 15  1  0
 15 16  2  3
 16 17  1  0
 17 18  2  0
 18 19  1  0
 19 20  2  0
 20 21  1  0
 21 22  1  0
 20 23  1  0
 23 24  2  0
 15  1  1  0
 24 17  1  0
 14  9  1  0
  1 25  1  0
  3 26  1  0
  4 27  1  0
  4 28  1  0
  5 29  1  0
  5 30  1  0
  7 31  1  0
  7 32  1  0
  7 33  1  0
 11 34  1  0
 12 35  1  0
 18 36  1  0
 19 37  1  0
 22 38  1  0
 22 39  1  0
 22 40  1  0
 23 41  1  0
 24 42  1  0
M  END
>  <ScrubInfo>  (3) 
{"isomerGroup": 0, "isomerId": 2, "confId": 0, "nr_conformers:": 1, "nr_isomers:": 9}

$$$$
_i3
     RDKit          3D

 42 44  0  0  0  0  0  0  0  0999 V2000
    2.1218    1.5340    0.4276 N   0  0  0  0  0  0  0  0  0  0  0  0
    2.2653    0.3206   -0.1736 C   0  0  0  0  0  0  0  0  0  0  0  0
    3.2627   -0.0593   -0.8896 N   0  0  0  0  0  0  0  0  0  0  0  0
    4.3808    0.8621   -1.0986 C   0  0  0  0  0  0  0  0  0  0  0  0
    5.4998    0.1488   -1.8679 C   0  0  0  0  0  0  0  0  0  0  0  0
    6.3938   -0.5751   -1.0152 O   0  0  0  0  0  0  0  0  0  0  0  0
    5.8086   -1.7494   -0.4658 C   0  0  0  0  0  0  0  0  0  0  0  0
    1.2977   -0.6493   -0.0629 N   0  0  0  0  0  0  0  0  0  0  0  0
    0.2186   -0.4188    0.6418 C   0  0  0  0  0  0  0  0  0  0  0  0
   -0.7106   -1.4422    0.7122 N   0  0  0  0  0  0  0  0  0  0  0  0
   -2.0740   -1.2973    0.3545 C   0  0  0  0  0  0  0  0  0  0  0  0
   -2.9860   -2.2535    0.8141 C   0  0  0  0  0  0  0  0  0  0  0  0
   -4.3328   -2.1911    0.4452 C   0  0  0  0  0  0  0  0  0  0  0  0
   -4.7909   -1.1843   -0.4052 C   0  0  0  0  0  0  0  0  0  0  0  0
   -6.1274   -1.2375   -0.6882 O   0  0  0  0  0  0  0  0  0  0  0  0
   -6.6415   -0.2326   -1.5528 C   0  0  0  0  0  0  0  0  0  0  0  0
   -3.8850   -0.2420   -0.8891 C   0  0  0  0  0  0  0  0  0  0  0  0
   -2.5350   -0.3044   -0.5177 C   0  0  0  0  0  0  0  0  0  0  0  0
    0.0185    0.8657    1.3783 C   0  0  0  0  0  0  0  0  0  0  0  0
   -1.0777    1.0467    2.1584 N   0  0  0  0  0  0  0  0  0  0  0  0
   -1.1337    2.2452    2.7763 C   0  0  0  0  0  0  0  0  0  0  0  0
   -0.1448    3.2061    2.6231 C   0  0  0  0  0  0  0  0  0  0  0  0
    0.9513    3.0146    1.8464 N   0  0  0  0  0  0  0  0  0  0  0  0
    1.0246    1.8146    1.2233 C   0  0  0  0  0  0  0  0  0  0  0  0
    2.8252    2.2488    0.3779 H   0  0  0  0  0  0  0  0  0  0  0  0
    4.7723    1.2256   -0.1416 H   0  0  0  0  0  0  0  0  0  0  0  0
    4.0327    1.7115   -1.6976 H   0  0  0  0  0  0  0  0  0  0  0  0
    5.1092   -0.5097   -2.6527 H   0  0  0  0  0  0  0  0  0  0  0  0
    6.1152    0.9099   -2.3597 H   0  0  0  0  0  0  0  0  0  0  0  0
    5.0945   -1.4927    0.3207 H   0  0  0  0  0  0  0  0  0  0  0  0
    5.3292   -2.3537   -1.2419 H   0  0  0  0  0  0  0  0  0  0  0  0
    6.6068   -2.3427   -0.0108 H   0  0  0  0  0  0  0  0  0  0  0  0
   -0.3446   -2.2607    0.2285 H   0  0  0  0  0  0  0  0  0  0  0  0
   -2.6544   -3.0472    1.4790 H   0  0  0  0  0  0  0  0  0  0  0  0
   -5.0288   -2.9350    0.8244 H   0  0  0  0  0  0  0  0  0  0  0  0
   -7.7142   -0.4123   -1.6735 H   0  0  0  0  0  0  0  0  0  0  0  0
   -6.5180    0.7644   -1.1171 H   0  0  0  0  0  0  0  0  0  0  0  0
   -6.1806   -0.2914   -2.5443 H   0  0  0  0  0  0  0  0  0  0  0  0
   -4.1896    0.5514   -1.5630 H   0  0  0  0  0  0  0  0  0  0  0  0
   -1.8508    0.4301   -0.9330 H   0  0  0  0  0  0  0  0  0  0  0  0
   -2.0011    2.4173    3.4045 H   0  0  0  0  0  0  0  0  0  0  0  0
   -0.2068    4.1647    3.1275 H   0  0  0  0  0  0  0  0  0  0  0  0
  1  2  1  0
  2  3  2  3
  3  4  1  0
  4  5  1  0
  5  6  1  0
  6  7  1  0
  2  8  1  0
  8  9  2  0
  9 10  1  0
 10 11  1  0
 11 12  2  0
 12 13  1  0
 13 14  2  0
 14 15  1  0
 15 16  1  0
 14 17  1  0
 17 18  2  0
  9 19  1  0
 19 20  2  0
 20 21  1  0
 21 22  2  0
 22 23  1  0
 23 24  2  0
 24  1  1  0
 18 11  1  0
 24 19  1  0
  1 25  1  0
  4 26  1  0
  4 27  1  0
  5 28  1  0
  5 29  1  0
  7 30  1  0
  7 31  1  0
  7 32  1  0
 10 33  1  0
 12 34  1  0
 13 35  1  0
 16 36  1  0
 16 37  1  0
 16 38  1  0
 17 39  1  0
 18 40  1  0
 21 41  1  0
 22 42  1  0
M  END
>  <ScrubInfo>  (4) 
{"isomerGroup": 0, "isomerId": 3, "confId": 0, "nr_conformers:": 1, "nr_isomers:": 9}

$$$$
_i4
     RDKit          3D

 42 44  0  0  0  0  0  0  0  0999 V2000
   -2.5924   -1.7061    3.0651 N   0  0  0  0  0  0  0  0  0  0  0  0
   -1.9256   -2.6271    3.8261 C   0  0  0  0  0  0  0  0  0  0  0  0
   -0.6159   -2.8612    3.6379 C   0  0  0  0  0  0  0  0  0  0  0  0
    0.1543   -2.2153    2.6879 N   0  0  0  0  0  0  0  0  0  0  0  0
   -0.4611   -1.3277    1.9439 C   0  0  0  0  0  0  0  0  0  0  0  0
    0.3113   -0.5851    0.8848 C   0  0  0  0  0  0  0  0  0  0  0  0
    1.6462   -0.9194    0.7903 N   0  0  0  0  0  0  0  0  0  0  0  0
    2.6455   -0.4330   -0.0651 C   0  0  0  0  0  0  0  0  0  0  0  0
    3.9414   -0.9629    0.0527 C   0  0  0  0  0  0  0  0  0  0  0  0
    4.9933   -0.5293   -0.7668 C   0  0  0  0  0  0  0  0  0  0  0  0
    4.7690    0.4504   -1.7287 C   0  0  0  0  0  0  0  0  0  0  0  0
    5.6967    0.9640   -2.5906 O   0  0  0  0  0  0  0  0  0  0  0  0
    7.0180    0.4482   -2.4954 C   0  0  0  0  0  0  0  0  0  0  0  0
    3.4882    0.9847   -1.8571 C   0  0  0  0  0  0  0  0  0  0  0  0
    2.4397    0.5487   -1.0362 C   0  0  0  0  0  0  0  0  0  0  0  0
   -0.3386    0.2777    0.1772 N   0  0  0  0  0  0  0  0  0  0  0  0
   -1.6704    0.4974    0.3957 C   0  0  0  0  0  0  0  0  0  0  0  0
   -2.1807    1.3777   -0.3875 N   0  0  0  0  0  0  0  0  0  0  0  0
   -3.5970    1.7192   -0.2541 C   0  0  0  0  0  0  0  0  0  0  0  0
   -4.4637    0.7855   -1.1029 C   0  0  0  0  0  0  0  0  0  0  0  0
   -5.8613    1.0472   -0.9412 O   0  0  0  0  0  0  0  0  0  0  0  0
   -6.3014    2.1793   -1.6792 C   0  0  0  0  0  0  0  0  0  0  0  0
   -2.4647   -0.1203    1.3250 N   0  0  0  0  0  0  0  0  0  0  0  0
   -1.9276   -1.0050    2.0919 C   0  0  0  0  0  0  0  0  0  0  0  0
   -3.5802   -1.5407    3.2110 H   0  0  0  0  0  0  0  0  0  0  0  0
   -2.5157   -3.1437    4.5756 H   0  0  0  0  0  0  0  0  0  0  0  0
   -0.0990   -3.5962    4.2504 H   0  0  0  0  0  0  0  0  0  0  0  0
    1.9465   -1.6306    1.4528 H   0  0  0  0  0  0  0  0  0  0  0  0
    4.1525   -1.7307    0.7939 H   0  0  0  0  0  0  0  0  0  0  0  0
    5.9697   -0.9791   -0.6243 H   0  0  0  0  0  0  0  0  0  0  0  0
    7.0407   -0.6234   -2.7195 H   0  0  0  0  0  0  0  0  0  0  0  0
    7.6308    0.9579   -3.2452 H   0  0  0  0  0  0  0  0  0  0  0  0
    7.4533    0.6563   -1.5124 H   0  0  0  0  0  0  0  0  0  0  0  0
    3.2952    1.7514   -2.6039 H   0  0  0  0  0  0  0  0  0  0  0  0
    1.4648    1.0036   -1.1848 H   0  0  0  0  0  0  0  0  0  0  0  0
   -3.9428    1.7348    0.7870 H   0  0  0  0  0  0  0  0  0  0  0  0
   -3.7210    2.7514   -0.5998 H   0  0  0  0  0  0  0  0  0  0  0  0
   -4.1851    0.8376   -2.1625 H   0  0  0  0  0  0  0  0  0  0  0  0
   -4.3039   -0.2515   -0.7889 H   0  0  0  0  0  0  0  0  0  0  0  0
   -5.8445    3.0968   -1.2994 H   0  0  0  0  0  0  0  0  0  0  0  0
   -6.0795    2.0575   -2.7437 H   0  0  0  0  0  0  0  0  0  0  0  0
   -7.3851    2.2631   -1.5597 H   0  0  0  0  0  0  0  0  0  0  0  0
  1  2  1  0
  2  3  2  0
  3  4  1  0
  4  5  2  0
  5  6  1  0
  6  7  1  0
  7  8  1  0
  8  9  2  0
  9 10  1  0
 10 11  2  0
 11 12  1  0
 12 13  1  0
 11 14  1  0
 14 15  2  0
  6 16  2  0
 16 17  1  0
 17 18  2  3
 18 19  1  0
 19 20  1  0
 20 21  1  0
 21 22  1  0
 17 23  1  0
 23 24  2  0
 24  1  1  0
 24  5  1  0
 15  8  1  0
  1 25  1  0
  2 26  1  0
  3 27  1  0
  7 28  1  0
  9 29  1  0
 10 30  1  0
 13 31  1  0
 13 32  1  0
 13 33  1  0
 14 34  1  0
 15 35  1  0
 19 36  1  0
 19 37  1  0
 20 38  1  0
 20 39  1  0
 22 40  1  0
 22 41  1  0
 22 42  1  0
M  END
>  <ScrubInfo>  (5) 
{"isomerGroup": 0, "isomerId": 4, "confId": 0, "nr_conformers:": 1, "nr_isomers:": 9}

$$$$
_i5
     RDKit          3D

 42 44  0  0  0  0  0  0  0  0999 V2000
    1.9648    0.2630   -1.6164 N   0  0  0  0  0  0  0  0  0  0  0  0
    2.1325   -0.4462   -0.4774 C   0  0  0  0  0  0  0  0  0  0  0  0
    3.4166   -0.7964   -0.1844 N   0  0  0  0  0  0  0  0  0  0  0  0
    4.5251    0.1541   -0.2250 C   0  0  0  0  0  0  0  0  0  0  0  0
    5.8042   -0.5203    0.2817 C   0  0  0  0  0  0  0  0  0  0  0  0
    5.6269   -0.8808    1.6554 O   0  0  0  0  0  0  0  0  0  0  0  0
    6.7676   -1.5528    2.1732 C   0  0  0  0  0  0  0  0  0  0  0  0
    1.1824   -0.8185    0.3197 N   0  0  0  0  0  0  0  0  0  0  0  0
   -0.1269   -0.4606    0.0325 C   0  0  0  0  0  0  0  0  0  0  0  0
   -0.9596   -0.7960    0.9746 N   0  0  0  0  0  0  0  0  0  0  0  0
   -2.3265   -0.5243    0.8976 C   0  0  0  0  0  0  0  0  0  0  0  0
   -3.2084   -1.4757    0.3839 C   0  0  0  0  0  0  0  0  0  0  0  0
   -4.5812   -1.2173    0.3469 C   0  0  0  0  0  0  0  0  0  0  0  0
   -5.0918   -0.0147    0.8421 C   0  0  0  0  0  0  0  0  0  0  0  0
   -6.4505    0.1133    0.7453 O   0  0  0  0  0  0  0  0  0  0  0  0
   -7.0221    1.2963    1.2882 C   0  0  0  0  0  0  0  0  0  0  0  0
   -4.2151    0.9275    1.3816 C   0  0  0  0  0  0  0  0  0  0  0  0
   -2.8400    0.6669    1.4154 C   0  0  0  0  0  0  0  0  0  0  0  0
   -0.4195    0.2355   -1.2681 C   0  0  0  0  0  0  0  0  0  0  0  0
   -1.6945    0.5102   -1.6524 N   0  0  0  0  0  0  0  0  0  0  0  0
   -1.8232    1.1081   -2.8547 C   0  0  0  0  0  0  0  0  0  0  0  0
   -0.7305    1.4206   -3.6453 C   0  0  0  0  0  0  0  0  0  0  0  0
    0.5428    1.1519   -3.2694 N   0  0  0  0  0  0  0  0  0  0  0  0
    0.6845    0.5504   -2.0610 C   0  0  0  0  0  0  0  0  0  0  0  0
    2.7018    0.3948   -2.2865 H   0  0  0  0  0  0  0  0  0  0  0  0
    3.4240   -1.2889    0.7132 H   0  0  0  0  0  0  0  0  0  0  0  0
    4.6862    0.5079   -1.2483 H   0  0  0  0  0  0  0  0  0  0  0  0
    4.2828    1.0123    0.4122 H   0  0  0  0  0  0  0  0  0  0  0  0
    6.6455    0.1764    0.1969 H   0  0  0  0  0  0  0  0  0  0  0  0
    6.0190   -1.4190   -0.3085 H   0  0  0  0  0  0  0  0  0  0  0  0
    7.6500   -0.9083    2.1165 H   0  0  0  0  0  0  0  0  0  0  0  0
    6.5779   -1.7950    3.2223 H   0  0  0  0  0  0  0  0  0  0  0  0
    6.9443   -2.4837    1.6259 H   0  0  0  0  0  0  0  0  0  0  0  0
   -2.8218   -2.4187    0.0098 H   0  0  0  0  0  0  0  0  0  0  0  0
   -5.2560   -1.9627   -0.0648 H   0  0  0  0  0  0  0  0  0  0  0  0
   -6.8258    1.3739    2.3627 H   0  0  0  0  0  0  0  0  0  0  0  0
   -6.6686    2.1854    0.7556 H   0  0  0  0  0  0  0  0  0  0  0  0
   -8.1062    1.2366    1.1519 H   0  0  0  0  0  0  0  0  0  0  0  0
   -4.5627    1.8703    1.7881 H   0  0  0  0  0  0  0  0  0  0  0  0
   -2.1606    1.3948    1.8492 H   0  0  0  0  0  0  0  0  0  0  0  0
   -2.8372    1.3295   -3.1692 H   0  0  0  0  0  0  0  0  0  0  0  0
   -0.8504    1.9000   -4.6108 H   0  0  0  0  0  0  0  0  0  0  0  0
  1  2  1  0
  2  3  1  0
  3  4  1  0
  4  5  1  0
  5  6  1  0
  6  7  1  0
  2  8  2  0
  8  9  1  0
  9 10  2  3
 10 11  1  0
 11 12  2  0
 12 13  1  0
 13 14  2  0
 14 15  1  0
 15 16  1  0
 14 17  1  0
 17 18  2  0
  9 19  1  0
 19 20  2  0
 20 21  1  0
 21 22  2  0
 22 23  1  0
 23 24  2  0
 24  1  1  0
 18 11  1  0
 24 19  1  0
  1 25  1  0
  3 26  1  0
  4 27  1  0
  4 28  1  0
  5 29  1  0
  5 30  1  0
  7 31  1  0
  7 32  1  0
  7 33  1  0
 12 34  1  0
 13 35  1  0
 16 36  1  0
 16 37  1  0
 16 38  1  0
 17 39  1  0
 18 40  1  0
 21 41  1  0
 22 42  1  0
M  END
>  <ScrubInfo>  (6) 
{"isomerGroup": 0, "isomerId": 5, "confId": 0, "nr_conformers:": 1, "nr_isomers:": 9}

$$$$
_i6
     RDKit          3D

 42 44  0  0  0  0  0  0  0  0999 V2000
   -0.9934   -2.4791   -0.9461 N   0  0  0  0  0  0  0  0  0  0  0  0
    0.1770   -2.9823   -1.4453 C   0  0  0  0  0  0  0  0  0  0  0  0
    1.3111   -2.2656   -1.3928 C   0  0  0  0  0  0  0  0  0  0  0  0
    1.3987   -1.0084   -0.8308 N   0  0  0  0  0  0  0  0  0  0  0  0
    0.2993   -0.4889   -0.3470 C   0  0  0  0  0  0  0  0  0  0  0  0
    0.2106    0.8453    0.3420 C   0  0  0  0  0  0  0  0  0  0  0  0
    1.1955    1.5299    0.8413 N   0  0  0  0  0  0  0  0  0  0  0  0
    2.5096    1.0598    0.8055 C   0  0  0  0  0  0  0  0  0  0  0  0
    3.3834    1.4921   -0.1942 C   0  0  0  0  0  0  0  0  0  0  0  0
    4.7148    1.0599   -0.2163 C   0  0  0  0  0  0  0  0  0  0  0  0
    5.1877    0.2019    0.7772 C   0  0  0  0  0  0  0  0  0  0  0  0
    6.4587   -0.2945    0.8741 O   0  0  0  0  0  0  0  0  0  0  0  0
    7.3787    0.1001   -0.1356 C   0  0  0  0  0  0  0  0  0  0  0  0
    4.3210   -0.2095    1.7928 C   0  0  0  0  0  0  0  0  0  0  0  0
    2.9924    0.2233    1.8130 C   0  0  0  0  0  0  0  0  0  0  0  0
   -1.0232    1.4183    0.5080 N   0  0  0  0  0  0  0  0  0  0  0  0
   -2.0925    0.7204    0.2822 C   0  0  0  0  0  0  0  0  0  0  0  0
   -3.2758    1.3652    0.4849 N   0  0  0  0  0  0  0  0  0  0  0  0
   -4.5367    0.6908    0.7208 C   0  0  0  0  0  0  0  0  0  0  0  0
   -5.2012    0.2498   -0.5885 C   0  0  0  0  0  0  0  0  0  0  0  0
   -6.4906   -0.3279   -0.3569 O   0  0  0  0  0  0  0  0  0  0  0  0
   -7.5277    0.6421   -0.2897 C   0  0  0  0  0  0  0  0  0  0  0  0
   -2.1207   -0.5820   -0.1304 N   0  0  0  0  0  0  0  0  0  0  0  0
   -1.0330   -1.1954   -0.4606 C   0  0  0  0  0  0  0  0  0  0  0  0
   -1.8628   -2.9687   -1.1122 H   0  0  0  0  0  0  0  0  0  0  0  0
    0.1246   -3.9721   -1.8854 H   0  0  0  0  0  0  0  0  0  0  0  0
    2.2377   -2.6694   -1.7935 H   0  0  0  0  0  0  0  0  0  0  0  0
    3.0213    2.1674   -0.9642 H   0  0  0  0  0  0  0  0  0  0  0  0
    5.3499    1.4151   -1.0198 H   0  0  0  0  0  0  0  0  0  0  0  0
    7.5372    1.1835   -0.1240 H   0  0  0  0  0  0  0  0  0  0  0  0
    7.0523   -0.2422   -1.1232 H   0  0  0  0  0  0  0  0  0  0  0  0
    8.3385   -0.3785    0.0815 H   0  0  0  0  0  0  0  0  0  0  0  0
    4.6835   -0.8679    2.5776 H   0  0  0  0  0  0  0  0  0  0  0  0
    2.3345   -0.0907    2.6173 H   0  0  0  0  0  0  0  0  0  0  0  0
   -3.1441    2.2396    0.9817 H   0  0  0  0  0  0  0  0  0  0  0  0
   -4.4086   -0.1667    1.3926 H   0  0  0  0  0  0  0  0  0  0  0  0
   -5.2008    1.3806    1.2528 H   0  0  0  0  0  0  0  0  0  0  0  0
   -4.5958   -0.5242   -1.0707 H   0  0  0  0  0  0  0  0  0  0  0  0
   -5.2745    1.0812   -1.3005 H   0  0  0  0  0  0  0  0  0  0  0  0
   -7.6004    1.1902   -1.2340 H   0  0  0  0  0  0  0  0  0  0  0  0
   -7.3632    1.3373    0.5378 H   0  0  0  0  0  0  0  0  0  0  0  0
   -8.4732    0.1201   -0.1193 H   0  0  0  0  0  0  0  0  0  0  0  0
  1  2  1  0
  2  3  2  0
  3  4  1  0
  4  5  2  0
  5  6  1  0
  6  7  2  3
  7  8  1  0
  8  9  2  0
  9 10  1  0
 10 11  2  0
 11 12  1  0
 12 13  1  0
 11 14  1  0
 14 15  2  0
  6 16  1  0
 16 17  2  0
 17 18  1  0
 18 19  1  0
 19 20  1  0
 20 21  1  0
 21 22  1  0
 17 23  1  0
 23 24  2  0
 24  1  1  0
 24  5  1  0
 15  8  1  0
  1 25  1  0
  2 26  1  0
  3 27  1  0
  9 28  1  0
 10 29  1  0
 13 30  1  0
 13 31  1  0
 13 32  1  0
 14 33  1  0
 15 34  1  0
 18 35  1  0
 19 36  1  0
 19 37  1  0
 20 38  1  0
 20 39  1  0
 22 40  1  0
 22 41  1  0
 22 42  1  0
M  END
>  <ScrubInfo>  (7) 
{"isomerGroup": 0, "isomerId": 6, "confId": 0, "nr_conformers:": 1, "nr_isomers:": 9}

$$$$
_i7
     RDKit          3D

 42 44  0  0  0  0  0  0  0  0999 V2000
    2.1937    0.4892    0.6203 N   0  0  0  0  0  0  0  0  0  0  0  0
    2.3266   -0.6658   -0.0978 C   0  0  0  0  0  0  0  0  0  0  0  0
    3.4126   -1.2384   -0.4931 N   0  0  0  0  0  0  0  0  0  0  0  0
    4.7019   -0.6428   -0.1426 C   0  0  0  0  0  0  0  0  0  0  0  0
    5.1259    0.3944   -1.1849 C   0  0  0  0  0  0  0  0  0  0  0  0
    6.2433    1.1656   -0.7385 O   0  0  0  0  0  0  0  0  0  0  0  0
    7.4797    0.4761   -0.8709 C   0  0  0  0  0  0  0  0  0  0  0  0
    1.1316   -1.2440   -0.4183 N   0  0  0  0  0  0  0  0  0  0  0  0
   -0.1541   -0.8490   -0.1255 C   0  0  0  0  0  0  0  0  0  0  0  0
   -1.1162   -1.6233   -0.5617 N   0  0  0  0  0  0  0  0  0  0  0  0
   -2.4638   -1.3379   -0.3262 C   0  0  0  0  0  0  0  0  0  0  0  0
   -3.1073   -1.8438    0.8036 C   0  0  0  0  0  0  0  0  0  0  0  0
   -4.4662   -1.5933    1.0120 C   0  0  0  0  0  0  0  0  0  0  0  0
   -5.2027   -0.8512    0.0851 C   0  0  0  0  0  0  0  0  0  0  0  0
   -6.5204   -0.6777    0.4091 O   0  0  0  0  0  0  0  0  0  0  0  0
   -7.3201    0.0392   -0.5226 C   0  0  0  0  0  0  0  0  0  0  0  0
   -4.5676   -0.3656   -1.0584 C   0  0  0  0  0  0  0  0  0  0  0  0
   -3.2057   -0.6168   -1.2642 C   0  0  0  0  0  0  0  0  0  0  0  0
   -0.2524    0.4265    0.6597 C   0  0  0  0  0  0  0  0  0  0  0  0
   -1.4576    0.9409    1.0082 N   0  0  0  0  0  0  0  0  0  0  0  0
   -1.4103    2.0905    1.7124 C   0  0  0  0  0  0  0  0  0  0  0  0
   -0.2151    2.7027    2.0510 C   0  0  0  0  0  0  0  0  0  0  0  0
    0.9920    2.1948    1.7019 N   0  0  0  0  0  0  0  0  0  0  0  0
    0.9665    1.0380    0.9952 C   0  0  0  0  0  0  0  0  0  0  0  0
    2.9886    1.0344    0.9160 H   0  0  0  0  0  0  0  0  0  0  0  0
    5.4447   -1.4478   -0.1057 H   0  0  0  0  0  0  0  0  0  0  0  0
    4.7074   -0.2129    0.8662 H   0  0  0  0  0  0  0  0  0  0  0  0
    5.3381   -0.0743   -2.1534 H   0  0  0  0  0  0  0  0  0  0  0  0
    4.3089    1.1047   -1.3521 H   0  0  0  0  0  0  0  0  0  0  0  0
    7.5085   -0.4027   -0.2212 H   0  0  0  0  0  0  0  0  0  0  0  0
    7.6490    0.1839   -1.9117 H   0  0  0  0  0  0  0  0  0  0  0  0
    8.2821    1.1537   -0.5665 H   0  0  0  0  0  0  0  0  0  0  0  0
    1.2004   -2.1054   -0.9452 H   0  0  0  0  0  0  0  0  0  0  0  0
   -2.5475   -2.4312    1.5246 H   0  0  0  0  0  0  0  0  0  0  0  0
   -4.9538   -1.9842    1.9009 H   0  0  0  0  0  0  0  0  0  0  0  0
   -8.3395    0.0790   -0.1269 H   0  0  0  0  0  0  0  0  0  0  0  0
   -6.9666    1.0694   -0.6353 H   0  0  0  0  0  0  0  0  0  0  0  0
   -7.3582   -0.4746   -1.4889 H   0  0  0  0  0  0  0  0  0  0  0  0
   -5.0973    0.2074   -1.8109 H   0  0  0  0  0  0  0  0  0  0  0  0
   -2.7166   -0.2461   -2.1601 H   0  0  0  0  0  0  0  0  0  0  0  0
   -2.3676    2.5110    2.0007 H   0  0  0  0  0  0  0  0  0  0  0  0
   -0.1950    3.6274    2.6177 H   0  0  0  0  0  0  0  0  0  0  0  0
  1  2  1  0
  2  3  2  3
  3  4  1  0
  4  5  1  0
  5  6  1  0
  6  7  1  0
  2  8  1  0
  8  9  1  0
  9 10  2  3
 10 11  1  0
 11 12  2  0
 12 13  1  0
 13 14  2  0
 14 15  1  0
 15 16  1  0
 14 17  1  0
 17 18  2  0
  9 19  1  0
 19 20  2  0
 20 21  1  0
 21 22  2  0
 22 23  1  0
 23 24  2  0
 24  1  1  0
 18 11  1  0
 24 19  1  0
  1 25  1  0
  4 26  1  0
  4 27  1  0
  5 28  1  0
  5 29  1  0
  7 30  1  0
  7 31  1  0
  7 32  1  0
  8 33  1  0
 12 34  1  0
 13 35  1  0
 16 36  1  0
 16 37  1  0
 16 38  1  0
 17 39  1  0
 18 40  1  0
 21 41  1  0
 22 42  1  0
M  END
>  <ScrubInfo>  (8) 
{"isomerGroup": 0, "isomerId": 7, "confId": 0, "nr_conformers:": 1, "nr_isomers:": 9}

$$$$
_i8
     RDKit          3D

 42 44  0  0  0  0  0  0  0  0999 V2000
   -1.2535   -2.5275   -0.5962 N   0  0  0  0  0  0  0  0  0  0  0  0
   -0.0993   -3.1590   -0.9629 C   0  0  0  0  0  0  0  0  0  0  0  0
    1.0912   -2.5589   -0.8147 C   0  0  0  0  0  0  0  0  0  0  0  0
    1.2553   -1.2928   -0.2958 N   0  0  0  0  0  0  0  0  0  0  0  0
    0.1863   -0.6383    0.0755 C   0  0  0  0  0  0  0  0  0  0  0  0
    0.2458    0.7620    0.6637 C   0  0  0  0  0  0  0  0  0  0  0  0
    1.2984    1.4906    0.9106 N   0  0  0  0  0  0  0  0  0  0  0  0
    2.5902    1.0275    0.6496 C   0  0  0  0  0  0  0  0  0  0  0  0
    3.2077    1.3099   -0.5708 C   0  0  0  0  0  0  0  0  0  0  0  0
    4.5195    0.8901   -0.8221 C   0  0  0  0  0  0  0  0  0  0  0  0
    5.2314    0.1967    0.1572 C   0  0  0  0  0  0  0  0  0  0  0  0
    6.5126   -0.2685    0.0435 O   0  0  0  0  0  0  0  0  0  0  0  0
    7.1726   -0.0331   -1.1936 C   0  0  0  0  0  0  0  0  0  0  0  0
    4.6226   -0.0635    1.3875 C   0  0  0  0  0  0  0  0  0  0  0  0
    3.3132    0.3565    1.6364 C   0  0  0  0  0  0  0  0  0  0  0  0
   -0.9942    1.2518    0.9440 N   0  0  0  0  0  0  0  0  0  0  0  0
   -2.1976    0.6459    0.7816 C   0  0  0  0  0  0  0  0  0  0  0  0
   -3.2622    1.2958    1.1147 N   0  0  0  0  0  0  0  0  0  0  0  0
   -4.5647    0.6378    0.9596 C   0  0  0  0  0  0  0  0  0  0  0  0
   -5.1244    0.8558   -0.4486 C   0  0  0  0  0  0  0  0  0  0  0  0
   -6.3682    0.1783   -0.6490 O   0  0  0  0  0  0  0  0  0  0  0  0
   -7.4725    0.8608   -0.0708 C   0  0  0  0  0  0  0  0  0  0  0  0
   -2.2986   -0.6205    0.2703 N   0  0  0  0  0  0  0  0  0  0  0  0
   -1.2202   -1.2590   -0.0730 C   0  0  0  0  0  0  0  0  0  0  0  0
   -2.1472   -2.9830   -0.7281 H   0  0  0  0  0  0  0  0  0  0  0  0
   -0.2086   -4.1569   -1.3735 H   0  0  0  0  0  0  0  0  0  0  0  0
    2.0049   -3.0697   -1.1085 H   0  0  0  0  0  0  0  0  0  0  0  0
    2.6622    1.8579   -1.3334 H   0  0  0  0  0  0  0  0  0  0  0  0
    4.9513    1.1242   -1.7886 H   0  0  0  0  0  0  0  0  0  0  0  0
    7.2876    1.0395   -1.3818 H   0  0  0  0  0  0  0  0  0  0  0  0
    6.6508   -0.5267   -2.0201 H   0  0  0  0  0  0  0  0  0  0  0  0
    8.1745   -0.4679   -1.1259 H   0  0  0  0  0  0  0  0  0  0  0  0
    5.1722   -0.5949    2.1598 H   0  0  0  0  0  0  0  0  0  0  0  0
    2.8566    0.1567    2.6006 H   0  0  0  0  0  0  0  0  0  0  0  0
   -1.0285    2.1802    1.3399 H   0  0  0  0  0  0  0  0  0  0  0  0
   -4.5405   -0.4299    1.2107 H   0  0  0  0  0  0  0  0  0  0  0  0
   -5.2437    1.0785    1.6979 H   0  0  0  0  0  0  0  0  0  0  0  0
   -4.4266    0.4499   -1.1888 H   0  0  0  0  0  0  0  0  0  0  0  0
   -5.2310    1.9241   -0.6728 H   0  0  0  0  0  0  0  0  0  0  0  0
   -7.5499    1.8775   -0.4680 H   0  0  0  0  0  0  0  0  0  0  0  0
   -7.3915    0.8851    1.0189 H   0  0  0  0  0  0  0  0  0  0  0  0
   -8.3842    0.3171   -0.3332 H   0  0  0  0  0  0  0  0  0  0  0  0
  1  2  1  0
  2  3  2  0
  3  4  1  0
  4  5  2  0
  5  6  1  0
  6  7  2  3
  7  8  1  0
  8  9  2  0
  9 10  1  0
 10 11  2  0
 11 12  1  0
 12 13  1  0
 11 14  1  0
 14 15  2  0
  6 16  1  0
 16 17  1  0
 17 18  2  3
 18 19  1  0
 19 20  1  0
 20 21  1  0
 21 22  1  0
 17 23  1  0
 23 24  2  0
 24  1  1  0
 24  5  1  0
 15  8  1  0
  1 25  1  0
  2 26  1  0
  3 27  1  0
  9 28  1  0
 10 29  1  0
 13 30  1  0
 13 31  1  0
 13 32  1  0
 14 33  1  0
 15 34  1  0
 16 35  1  0
 19 36  1  0
 19 37  1  0
 20 38  1  0
 20 39  1  0
 22 40  1  0
 22 41  1  0
 22 42  1  0
M  END
>  <ScrubInfo>  (9) 
{"isomerGroup": 0, "isomerId": 8, "confId": 0, "nr_conformers:": 1, "nr_isomers:": 9}

$$$$
