REMARK SMILES Cc1cc(Cl)ccc1Nc1nc(NCCCNC=O)nc2c1cnn2C
REMARK SMILES IDX 13 1 12 3 10 4 11 5 22 6 21 7 23 8 20 9 25 10 24 11 26 12
REMARK SMILES IDX 9 13 8 15 2 16 3 17 4 18 7 19 6 20 1 21 5 22 14 23 15 24
REMARK SMILES IDX 16 25 17 26 18 27 19 29
REMARK H PARENT 13 2 9 14 17 28
ROOT
ATOM      1  N   UNL     1      -2.450   0.418   0.384  1.00  0.00    -0.354 N 
ATOM      2  H   UNL     1      -2.352   1.369   0.729  1.00  0.00     0.163 HD
ENDROOT
BRANCH   1   3
ATOM      3  C   UNL     1      -1.232   0.030  -0.146  1.00  0.00     0.226 A 
ATOM      4  C   UNL     1       1.056   0.523  -0.240  1.00  0.00     0.147 A 
ATOM      5  N   UNL     1      -0.195   0.821   0.190  1.00  0.00    -0.195 NA
ATOM      6  C   UNL     1       1.216  -0.593  -1.063  1.00  0.00     0.082 A 
ATOM      7  C   UNL     1       0.081  -1.327  -1.342  1.00  0.00     0.165 A 
ATOM      8  C   UNL     1       2.244  -1.253  -1.765  1.00  0.00     0.149 A 
ATOM      9  N   UNL     1      -1.162  -1.071  -0.909  1.00  0.00    -0.193 NA
ATOM     10  N   UNL     1       0.487  -2.356  -2.146  1.00  0.00    -0.250 N 
ATOM     11  N   UNL     1       1.812  -2.335  -2.424  1.00  0.00    -0.179 NA
ATOM     12  C   UNL     1      -0.337  -3.401  -2.699  1.00  0.00     0.176 C 
BRANCH   4  13
ATOM     13  N   UNL     1       2.086   1.399   0.142  1.00  0.00    -0.339 N 
ATOM     14  H   UNL     1       1.659   2.083   0.765  1.00  0.00     0.168 HD
BRANCH  13  15
ATOM     15  C   UNL     1       3.378   1.054   0.601  1.00  0.00     0.043 A 
ATOM     16  C   UNL     1       4.426   1.991   0.480  1.00  0.00    -0.026 A 
ATOM     17  C   UNL     1       5.700   1.679   0.986  1.00  0.00     0.026 A 
ATOM     18  C   UNL     1       5.926   0.461   1.623  1.00  0.00     0.041 A 
ATOM     19  C   UNL     1       3.623  -0.154   1.274  1.00  0.00     0.028 A 
ATOM     20  C   UNL     1       4.892  -0.455   1.773  1.00  0.00     0.022 A 
ATOM     21  C   UNL     1       4.207   3.314  -0.202  1.00  0.00     0.046 C 
ATOM     22  Cl  UNL     1       7.490   0.095   2.239  1.00  0.00    -0.084 Cl
ENDBRANCH  13  15
ENDBRANCH   4  13
ENDBRANCH   1   3
BRANCH   1  23
ATOM     23  C   UNL     1      -3.632   0.184  -0.425  1.00  0.00     0.118 C 
BRANCH  23  24
ATOM     24  C   UNL     1      -4.402  -1.033   0.085  1.00  0.00     0.042 C 
BRANCH  24  25
ATOM     25  C   UNL     1      -5.000  -0.840   1.479  1.00  0.00     0.117 C 
BRANCH  25  26
ATOM     26  N   UNL     1      -6.204  -0.029   1.467  1.00  0.00    -0.359 N 
ATOM     27  C   UNL     1      -6.193   1.319   1.715  1.00  0.00     0.337 C 
ATOM     28  H   UNL     1      -7.093  -0.483   1.304  1.00  0.00     0.163 HD
ATOM     29  O   UNL     1      -5.204   2.005   1.928  1.00  0.00    -0.279 OA
ENDBRANCH  25  26
ENDBRANCH  24  25
ENDBRANCH  23  24
ENDBRANCH   1  23
TORSDOF 7
