_i0
     RDKit          3D

 46 48  0  0  0  0  0  0  0  0999 V2000
    4.2070    3.3144   -0.2019 C   0  0  0  0  0  0  0  0  0  0  0  0
    4.4265    1.9906    0.4798 C   0  0  0  0  0  0  0  0  0  0  0  0
    5.6999    1.6795    0.9864 C   0  0  0  0  0  0  0  0  0  0  0  0
    5.9264    0.4613    1.6232 C   0  0  0  0  0  0  0  0  0  0  0  0
    7.4903    0.0950    2.2391 Cl  0  0  0  0  0  0  0  0  0  0  0  0
    4.8922   -0.4552    1.7731 C   0  0  0  0  0  0  0  0  0  0  0  0
    3.6226   -0.1542    1.2743 C   0  0  0  0  0  0  0  0  0  0  0  0
    3.3782    1.0538    0.6012 C   0  0  0  0  0  0  0  0  0  0  0  0
    2.0859    1.3985    0.1422 N   0  0  0  0  0  0  0  0  0  0  0  0
    1.0557    0.5235   -0.2402 C   0  0  0  0  0  0  0  0  0  0  0  0
   -0.1953    0.8208    0.1895 N   0  0  0  0  0  0  0  0  0  0  0  0
   -1.2322    0.0302   -0.1458 C   0  0  0  0  0  0  0  0  0  0  0  0
   -2.4502    0.4183    0.3843 N   0  0  0  0  0  0  0  0  0  0  0  0
   -3.6322    0.1844   -0.4255 C   0  0  0  0  0  0  0  0  0  0  0  0
   -4.4021   -1.0334    0.0854 C   0  0  0  0  0  0  0  0  0  0  0  0
   -5.0003   -0.8403    1.4790 C   0  0  0  0  0  0  0  0  0  0  0  0
   -6.2040   -0.0287    1.4671 N   0  0  0  0  0  0  0  0  0  0  0  0
   -6.1931    1.3191    1.7151 C   0  0  0  0  0  0  0  0  0  0  0  0
   -5.2044    2.0045    1.9284 O   0  0  0  0  0  0  0  0  0  0  0  0
   -1.1623   -1.0707   -0.9089 N   0  0  0  0  0  0  0  0  0  0  0  0
    0.0808   -1.3265   -1.3420 C   0  0  0  0  0  0  0  0  0  0  0  0
    1.2156   -0.5926   -1.0627 C   0  0  0  0  0  0  0  0  0  0  0  0
    2.2441   -1.2529   -1.7654 C   0  0  0  0  0  0  0  0  0  0  0  0
    1.8117   -2.3354   -2.4238 N   0  0  0  0  0  0  0  0  0  0  0  0
    0.4871   -2.3558   -2.1461 N   0  0  0  0  0  0  0  0  0  0  0  0
   -0.3367   -3.4008   -2.6989 C   0  0  0  0  0  0  0  0  0  0  0  0
    3.4602    3.9020    0.3417 H   0  0  0  0  0  0  0  0  0  0  0  0
    5.1287    3.9046   -0.2404 H   0  0  0  0  0  0  0  0  0  0  0  0
    3.8713    3.1598   -1.2325 H   0  0  0  0  0  0  0  0  0  0  0  0
    6.5165    2.3906    0.8851 H   0  0  0  0  0  0  0  0  0  0  0  0
    5.0604   -1.3996    2.2836 H   0  0  0  0  0  0  0  0  0  0  0  0
    2.8222   -0.8732    1.4328 H   0  0  0  0  0  0  0  0  0  0  0  0
    1.6587    2.0826    0.7654 H   0  0  0  0  0  0  0  0  0  0  0  0
   -2.3520    1.3686    0.7293 H   0  0  0  0  0  0  0  0  0  0  0  0
   -3.3841    0.0483   -1.4861 H   0  0  0  0  0  0  0  0  0  0  0  0
   -4.2697    1.0739   -0.3902 H   0  0  0  0  0  0  0  0  0  0  0  0
   -5.2015   -1.2739   -0.6262 H   0  0  0  0  0  0  0  0  0  0  0  0
   -3.7287   -1.8989    0.1135 H   0  0  0  0  0  0  0  0  0  0  0  0
   -5.3024   -1.8162    1.8750 H   0  0  0  0  0  0  0  0  0  0  0  0
   -4.2734   -0.4121    2.1771 H   0  0  0  0  0  0  0  0  0  0  0  0
   -7.0935   -0.4827    1.3044 H   0  0  0  0  0  0  0  0  0  0  0  0
   -7.2098    1.7457    1.6897 H   0  0  0  0  0  0  0  0  0  0  0  0
    3.2925   -0.9885   -1.8223 H   0  0  0  0  0  0  0  0  0  0  0  0
    0.0572   -4.3635   -2.3632 H   0  0  0  0  0  0  0  0  0  0  0  0
   -0.2956   -3.3301   -3.7888 H   0  0  0  0  0  0  0  0  0  0  0  0
   -1.3681   -3.2849   -2.3585 H   0  0  0  0  0  0  0  0  0  0  0  0
  1  2  1  0
  2  3  2  0
  3  4  1  0
  4  5  1  0
  4  6  2  0
  6  7  1  0
  7  8  2  0
  8  9  1  0
  9 10  1  0
 10 11  2  0
 11 12  1  0
 12 13  1  0
 13 14  1  0
 14 15  1  0
 15 16  1  0
 16 17  1  0
 17 18  1  0
 18 19  2  0
 12 20  2  0
 20 21  1  0
 21 22  2  0
 22 23  1  0
 23 24  2  0
 24 25  1  0
 25 26  1  0
  8  2  1  0
 22 10  1  0
 25 21  1  0
  1 27  1  0
  1 28  1  0
  1 29  1  0
  3 30  1  0
  6 31  1  0
  7 32  1  0
  9 33  1  0
 13 34  1  0
 14 35  1  0
 14 36  1  0
 15 37  1  0
 15 38  1  0
 16 39  1  0
 16 40  1  0
 17 41  1  0
 18 42  1  0
 23 43  1  0
 26 44  1  0
 26 45  1  0
 26 46  1  0
M  END
>  <ScrubInfo>  (1) 
{"isomerGroup": 0, "isomerId": 0, "confId": 0, "nr_conformers:": 1, "nr_isomers:": 9}

$$$$
_i1
     RDKit          3D

 46 48  0  0  0  0  0  0  0  0999 V2000
    0.1143   -1.6579   -0.1989 N   0  0  0  0  0  0  0  0  0  0  0  0
   -1.0504   -1.2069    0.3751 C   0  0  0  0  0  0  0  0  0  0  0  0
   -2.1274   -2.0087    0.1019 N   0  0  0  0  0  0  0  0  0  0  0  0
   -3.4691   -1.6538    0.5471 C   0  0  0  0  0  0  0  0  0  0  0  0
   -4.0830   -0.5830   -0.3512 C   0  0  0  0  0  0  0  0  0  0  0  0
   -5.5039   -0.2514    0.0944 C   0  0  0  0  0  0  0  0  0  0  0  0
   -6.0987    0.7747   -0.7367 N   0  0  0  0  0  0  0  0  0  0  0  0
   -5.9260    2.1095   -0.4711 C   0  0  0  0  0  0  0  0  0  0  0  0
   -5.3103    2.5756    0.4755 O   0  0  0  0  0  0  0  0  0  0  0  0
   -1.1230   -0.1308    1.1131 N   0  0  0  0  0  0  0  0  0  0  0  0
    0.0796    0.4993    1.2146 C   0  0  0  0  0  0  0  0  0  0  0  0
    1.3012    0.1182    0.6823 C   0  0  0  0  0  0  0  0  0  0  0  0
    2.1879    1.1286    1.0933 C   0  0  0  0  0  0  0  0  0  0  0  0
    1.5902    2.0799    1.8224 N   0  0  0  0  0  0  0  0  0  0  0  0
    0.3001    1.6749    1.8749 N   0  0  0  0  0  0  0  0  0  0  0  0
   -0.6682    2.4783    2.5787 C   0  0  0  0  0  0  0  0  0  0  0  0
    1.3702   -1.1038   -0.0939 C   0  0  0  0  0  0  0  0  0  0  0  0
    2.4063   -1.6679   -0.6369 N   0  0  0  0  0  0  0  0  0  0  0  0
    3.6903   -1.1265   -0.5268 C   0  0  0  0  0  0  0  0  0  0  0  0
    4.4973   -1.5044    0.5544 C   0  0  0  0  0  0  0  0  0  0  0  0
    5.7960   -1.0093    0.6818 C   0  0  0  0  0  0  0  0  0  0  0  0
    6.2979   -0.1426   -0.2841 C   0  0  0  0  0  0  0  0  0  0  0  0
    7.8971    0.4731   -0.1309 Cl  0  0  0  0  0  0  0  0  0  0  0  0
    5.5158    0.2260   -1.3787 C   0  0  0  0  0  0  0  0  0  0  0  0
    4.2106   -0.2740   -1.5183 C   0  0  0  0  0  0  0  0  0  0  0  0
    3.3802    0.1262   -2.7050 C   0  0  0  0  0  0  0  0  0  0  0  0
    0.1078   -2.5702   -0.6229 H   0  0  0  0  0  0  0  0  0  0  0  0
   -2.1114   -2.4559   -0.8060 H   0  0  0  0  0  0  0  0  0  0  0  0
   -3.4525   -1.3263    1.5934 H   0  0  0  0  0  0  0  0  0  0  0  0
   -4.0859   -2.5592    0.5123 H   0  0  0  0  0  0  0  0  0  0  0  0
   -4.0921   -0.9282   -1.3930 H   0  0  0  0  0  0  0  0  0  0  0  0
   -3.4681    0.3251   -0.3372 H   0  0  0  0  0  0  0  0  0  0  0  0
   -5.5086    0.0875    1.1365 H   0  0  0  0  0  0  0  0  0  0  0  0
   -6.1459   -1.1354    0.0202 H   0  0  0  0  0  0  0  0  0  0  0  0
   -6.5824    0.5093   -1.5849 H   0  0  0  0  0  0  0  0  0  0  0  0
   -6.4196    2.7441   -1.2261 H   0  0  0  0  0  0  0  0  0  0  0  0
    3.2463    1.2335    0.9013 H   0  0  0  0  0  0  0  0  0  0  0  0
   -0.6160    3.4995    2.1923 H   0  0  0  0  0  0  0  0  0  0  0  0
   -0.4187    2.4594    3.6425 H   0  0  0  0  0  0  0  0  0  0  0  0
   -1.6729    2.0789    2.4240 H   0  0  0  0  0  0  0  0  0  0  0  0
    4.1063   -2.1887    1.3032 H   0  0  0  0  0  0  0  0  0  0  0  0
    6.4057   -1.3051    1.5309 H   0  0  0  0  0  0  0  0  0  0  0  0
    5.9251    0.8994   -2.1282 H   0  0  0  0  0  0  0  0  0  0  0  0
    2.9621   -0.7576   -3.1976 H   0  0  0  0  0  0  0  0  0  0  0  0
    3.9794    0.6597   -3.4505 H   0  0  0  0  0  0  0  0  0  0  0  0
    2.5661    0.7870   -2.3911 H   0  0  0  0  0  0  0  0  0  0  0  0
  1  2  1  0
  2  3  1  0
  3  4  1  0
  4  5  1  0
  5  6  1  0
  6  7  1  0
  7  8  1  0
  8  9  2  0
  2 10  2  0
 10 11  1  0
 11 12  2  0
 12 13  1  0
 13 14  2  0
 14 15  1  0
 15 16  1  0
 12 17  1  0
 17 18  2  3
 18 19  1  0
 19 20  2  0
 20 21  1  0
 21 22  2  0
 22 23  1  0
 22 24  1  0
 24 25  2  0
 25 26  1  0
 17  1  1  0
 25 19  1  0
 15 11  1  0
  1 27  1  0
  3 28  1  0
  4 29  1  0
  4 30  1  0
  5 31  1  0
  5 32  1  0
  6 33  1  0
  6 34  1  0
  7 35  1  0
  8 36  1  0
 13 37  1  0
 16 38  1  0
 16 39  1  0
 16 40  1  0
 20 41  1  0
 21 42  1  0
 24 43  1  0
 26 44  1  0
 26 45  1  0
 26 46  1  0
M  END
>  <ScrubInfo>  (2) 
{"isomerGroup": 0, "isomerId": 1, "confId": 0, "nr_conformers:": 1, "nr_isomers:": 9}

$$$$
_i2
     RDKit          3D

 46 48  0  0  0  0  0  0  0  0999 V2000
   -0.8261    0.1164   -0.6057 N   0  0  0  0  0  0  0  0  0  0  0  0
   -1.8606   -0.7984   -0.5683 C   0  0  0  0  0  0  0  0  0  0  0  0
   -3.2019   -0.4396   -0.4715 N   0  0  0  0  0  0  0  0  0  0  0  0
   -3.6725    0.8900   -0.5543 C   0  0  0  0  0  0  0  0  0  0  0  0
   -4.2802    1.3173   -1.7465 C   0  0  0  0  0  0  0  0  0  0  0  0
   -4.6927    2.6414   -1.9064 C   0  0  0  0  0  0  0  0  0  0  0  0
   -4.4895    3.5541   -0.8776 C   0  0  0  0  0  0  0  0  0  0  0  0
   -4.9864    5.1890   -1.0749 Cl  0  0  0  0  0  0  0  0  0  0  0  0
   -3.8834    3.1518    0.3110 C   0  0  0  0  0  0  0  0  0  0  0  0
   -3.4790    1.8171    0.4911 C   0  0  0  0  0  0  0  0  0  0  0  0
   -2.8418    1.4301    1.7991 C   0  0  0  0  0  0  0  0  0  0  0  0
   -1.4729   -2.0785   -0.6311 C   0  0  0  0  0  0  0  0  0  0  0  0
   -2.0958   -3.4055   -0.5907 C   0  0  0  0  0  0  0  0  0  0  0  0
   -1.2284   -4.3827   -0.6640 N   0  0  0  0  0  0  0  0  0  0  0  0
    0.0245   -3.7615   -0.8014 N   0  0  0  0  0  0  0  0  0  0  0  0
    1.2165   -4.5432   -0.5749 C   0  0  0  0  0  0  0  0  0  0  0  0
   -0.0270   -2.3779   -0.7338 C   0  0  0  0  0  0  0  0  0  0  0  0
    0.9233   -1.5058   -0.7432 N   0  0  0  0  0  0  0  0  0  0  0  0
    0.5062   -0.1945   -0.6701 C   0  0  0  0  0  0  0  0  0  0  0  0
    1.3658    0.7689   -0.6562 N   0  0  0  0  0  0  0  0  0  0  0  0
    2.7906    0.4428   -0.7300 C   0  0  0  0  0  0  0  0  0  0  0  0
    3.3530    0.2376    0.6757 C   0  0  0  0  0  0  0  0  0  0  0  0
    4.8279   -0.1556    0.6532 C   0  0  0  0  0  0  0  0  0  0  0  0
    5.6873    0.9142    0.1884 N   0  0  0  0  0  0  0  0  0  0  0  0
    6.1592    1.8859    1.0326 C   0  0  0  0  0  0  0  0  0  0  0  0
    5.9727    1.9422    2.2388 O   0  0  0  0  0  0  0  0  0  0  0  0
   -1.0569    1.0979   -0.5617 H   0  0  0  0  0  0  0  0  0  0  0  0
   -3.8206   -1.0972   -0.9393 H   0  0  0  0  0  0  0  0  0  0  0  0
   -4.4198    0.6227   -2.5716 H   0  0  0  0  0  0  0  0  0  0  0  0
   -5.1586    2.9543   -2.8370 H   0  0  0  0  0  0  0  0  0  0  0  0
   -3.7300    3.8782    1.1066 H   0  0  0  0  0  0  0  0  0  0  0  0
   -3.0848    0.3984    2.0724 H   0  0  0  0  0  0  0  0  0  0  0  0
   -1.7554    1.5433    1.7409 H   0  0  0  0  0  0  0  0  0  0  0  0
   -3.2113    2.0637    2.6130 H   0  0  0  0  0  0  0  0  0  0  0  0
   -3.1821   -3.5207   -0.4858 H   0  0  0  0  0  0  0  0  0  0  0  0
    2.0775   -4.0980   -1.0836 H   0  0  0  0  0  0  0  0  0  0  0  0
    1.0914   -5.5606   -0.9593 H   0  0  0  0  0  0  0  0  0  0  0  0
    1.4360   -4.6016    0.4957 H   0  0  0  0  0  0  0  0  0  0  0  0
    2.9925   -0.4230   -1.3721 H   0  0  0  0  0  0  0  0  0  0  0  0
    3.2961    1.2893   -1.2093 H   0  0  0  0  0  0  0  0  0  0  0  0
    2.7904   -0.5553    1.1831 H   0  0  0  0  0  0  0  0  0  0  0  0
    3.2095    1.1504    1.2670 H   0  0  0  0  0  0  0  0  0  0  0  0
    4.9920   -1.0167   -0.0031 H   0  0  0  0  0  0  0  0  0  0  0  0
    5.1422   -0.4395    1.6639 H   0  0  0  0  0  0  0  0  0  0  0  0
    5.8496    1.0171   -0.8048 H   0  0  0  0  0  0  0  0  0  0  0  0
    6.7533    2.6417    0.4922 H   0  0  0  0  0  0  0  0  0  0  0  0
  1  2  1  0
  2  3  1  0
  3  4  1  0
  4  5  2  0
  5  6  1  0
  6  7  2  0
  7  8  1  0
  7  9  1  0
  9 10  2  0
 10 11  1  0
  2 12  2  0
 12 13  1  0
 13 14  2  0
 14 15  1  0
 15 16  1  0
 15 17  1  0
 17 18  2  0
 18 19  1  0
 19 20  2  3
 20 21  1  0
 21 22  1  0
 22 23  1  0
 23 24  1  0
 24 25  1  0
 25 26  2  0
 19  1  1  0
 10  4  1  0
 17 12  1  0
  1 27  1  0
  3 28  1  0
  5 29  1  0
  6 30  1  0
  9 31  1  0
 11 32  1  0
 11 33  1  0
 11 34  1  0
 13 35  1  0
 16 36  1  0
 16 37  1  0
 16 38  1  0
 21 39  1  0
 21 40  1  0
 22 41  1  0
 22 42  1  0
 23 43  1  0
 23 44  1  0
 24 45  1  0
 25 46  1  0
M  END
>  <ScrubInfo>  (3) 
{"isomerGroup": 0, "isomerId": 2, "confId": 0, "nr_conformers:": 1, "nr_isomers:": 9}

$$$$
_i3
     RDKit          3D

 46 48  0  0  0  0  0  0  0  0999 V2000
    1.2126   -0.6106    1.1679 N   0  0  0  0  0  0  0  0  0  0  0  0
    0.5244   -0.0975    0.0791 C   0  0  0  0  0  0  0  0  0  0  0  0
    1.0486    0.3065   -1.0267 N   0  0  0  0  0  0  0  0  0  0  0  0
    2.4987    0.2270   -1.1667 C   0  0  0  0  0  0  0  0  0  0  0  0
    2.8890    0.7346   -2.5519 C   0  0  0  0  0  0  0  0  0  0  0  0
    4.3722    0.5281   -2.8518 C   0  0  0  0  0  0  0  0  0  0  0  0
    5.2384    1.3973   -2.0797 N   0  0  0  0  0  0  0  0  0  0  0  0
    5.7400    1.0489   -0.8531 C   0  0  0  0  0  0  0  0  0  0  0  0
    5.5187    0.0040   -0.2571 O   0  0  0  0  0  0  0  0  0  0  0  0
   -0.8556    0.0256    0.1012 N   0  0  0  0  0  0  0  0  0  0  0  0
   -1.5401   -0.3665    1.1355 C   0  0  0  0  0  0  0  0  0  0  0  0
   -2.9056   -0.3017    1.3148 N   0  0  0  0  0  0  0  0  0  0  0  0
   -3.7885    0.3179    0.4013 C   0  0  0  0  0  0  0  0  0  0  0  0
   -4.5354    1.4230    0.8522 C   0  0  0  0  0  0  0  0  0  0  0  0
   -5.3795    2.1271   -0.0093 C   0  0  0  0  0  0  0  0  0  0  0  0
   -5.4795    1.7396   -1.3393 C   0  0  0  0  0  0  0  0  0  0  0  0
   -6.5098    2.6085   -2.4085 Cl  0  0  0  0  0  0  0  0  0  0  0  0
   -4.7506    0.6499   -1.8090 C   0  0  0  0  0  0  0  0  0  0  0  0
   -3.9096   -0.0794   -0.9463 C   0  0  0  0  0  0  0  0  0  0  0  0
   -3.1712   -1.2583   -1.5220 C   0  0  0  0  0  0  0  0  0  0  0  0
   -0.8538   -0.9380    2.2768 C   0  0  0  0  0  0  0  0  0  0  0  0
   -1.1900   -1.4993    3.5194 C   0  0  0  0  0  0  0  0  0  0  0  0
   -0.1105   -1.8869    4.2155 N   0  0  0  0  0  0  0  0  0  0  0  0
    0.9288   -1.5873    3.3966 N   0  0  0  0  0  0  0  0  0  0  0  0
    2.2717   -1.8913    3.8220 C   0  0  0  0  0  0  0  0  0  0  0  0
    0.5098   -1.0253    2.2333 C   0  0  0  0  0  0  0  0  0  0  0  0
    2.2174   -0.6853    1.0911 H   0  0  0  0  0  0  0  0  0  0  0  0
    2.8350   -0.8107   -1.0535 H   0  0  0  0  0  0  0  0  0  0  0  0
    2.9762    0.8482   -0.4014 H   0  0  0  0  0  0  0  0  0  0  0  0
    2.3031    0.1968   -3.3079 H   0  0  0  0  0  0  0  0  0  0  0  0
    2.6259    1.7955   -2.6459 H   0  0  0  0  0  0  0  0  0  0  0  0
    4.5646    0.7582   -3.9052 H   0  0  0  0  0  0  0  0  0  0  0  0
    4.6600   -0.5151   -2.6793 H   0  0  0  0  0  0  0  0  0  0  0  0
    5.4396    2.3215   -2.4407 H   0  0  0  0  0  0  0  0  0  0  0  0
    6.3772    1.8444   -0.4316 H   0  0  0  0  0  0  0  0  0  0  0  0
   -3.2087   -0.1955    2.2737 H   0  0  0  0  0  0  0  0  0  0  0  0
   -4.4476    1.7626    1.8815 H   0  0  0  0  0  0  0  0  0  0  0  0
   -5.9403    2.9808    0.3604 H   0  0  0  0  0  0  0  0  0  0  0  0
   -4.8348    0.3587   -2.8539 H   0  0  0  0  0  0  0  0  0  0  0  0
   -2.2512   -0.9286   -2.0131 H   0  0  0  0  0  0  0  0  0  0  0  0
   -3.7927   -1.7720   -2.2644 H   0  0  0  0  0  0  0  0  0  0  0  0
   -2.9301   -2.0019   -0.7565 H   0  0  0  0  0  0  0  0  0  0  0  0
   -2.1666   -1.6516    3.9593 H   0  0  0  0  0  0  0  0  0  0  0  0
    2.3852   -2.9780    3.8446 H   0  0  0  0  0  0  0  0  0  0  0  0
    2.9907   -1.4539    3.1260 H   0  0  0  0  0  0  0  0  0  0  0  0
    2.4237   -1.4697    4.8190 H   0  0  0  0  0  0  0  0  0  0  0  0
  1  2  1  0
  2  3  2  3
  3  4  1  0
  4  5  1  0
  5  6  1  0
  6  7  1  0
  7  8  1  0
  8  9  2  0
  2 10  1  0
 10 11  2  0
 11 12  1  0
 12 13  1  0
 13 14  2  0
 14 15  1  0
 15 16  2  0
 16 17  1  0
 16 18  1  0
 18 19  2  0
 19 20  1  0
 11 21  1  0
 21 22  1  0
 22 23  2  0
 23 24  1  0
 24 25  1  0
 24 26  1  0
 26  1  1  0
 19 13  1  0
 26 21  2  0
  1 27  1  0
  4 28  1  0
  4 29  1  0
  5 30  1  0
  5 31  1  0
  6 32  1  0
  6 33  1  0
  7 34  1  0
  8 35  1  0
 12 36  1  0
 14 37  1  0
 15 38  1  0
 18 39  1  0
 20 40  1  0
 20 41  1  0
 20 42  1  0
 22 43  1  0
 25 44  1  0
 25 45  1  0
 25 46  1  0
M  END
>  <ScrubInfo>  (4) 
{"isomerGroup": 0, "isomerId": 3, "confId": 0, "nr_conformers:": 1, "nr_isomers:": 9}

$$$$
_i4
     RDKit          3D

 46 48  0  0  0  0  0  0  0  0999 V2000
    0.8568   -1.9182    1.0813 N   0  0  0  0  0  0  0  0  0  0  0  0
    0.4945   -0.8167    0.3413 C   0  0  0  0  0  0  0  0  0  0  0  0
    1.5063   -0.2001   -0.3388 N   0  0  0  0  0  0  0  0  0  0  0  0
    2.7445    0.1994    0.3208 C   0  0  0  0  0  0  0  0  0  0  0  0
    3.7177    0.8213   -0.6783 C   0  0  0  0  0  0  0  0  0  0  0  0
    3.3155    2.2384   -1.0825 C   0  0  0  0  0  0  0  0  0  0  0  0
    4.2958    2.8462   -1.9585 N   0  0  0  0  0  0  0  0  0  0  0  0
    5.4553    3.3954   -1.4746 C   0  0  0  0  0  0  0  0  0  0  0  0
    5.7854    3.4321   -0.2984 O   0  0  0  0  0  0  0  0  0  0  0  0
   -0.7142   -0.3367    0.2290 N   0  0  0  0  0  0  0  0  0  0  0  0
   -1.7534   -0.9589    0.9102 C   0  0  0  0  0  0  0  0  0  0  0  0
   -2.9835   -0.5552    0.8906 N   0  0  0  0  0  0  0  0  0  0  0  0
   -3.2922    0.5866    0.1358 C   0  0  0  0  0  0  0  0  0  0  0  0
   -3.2133    1.8473    0.7423 C   0  0  0  0  0  0  0  0  0  0  0  0
   -3.5281    3.0041    0.0280 C   0  0  0  0  0  0  0  0  0  0  0  0
   -3.9344    2.9012   -1.2987 C   0  0  0  0  0  0  0  0  0  0  0  0
   -4.3143    4.3248   -2.1881 Cl  0  0  0  0  0  0  0  0  0  0  0  0
   -4.0381    1.6532   -1.9128 C   0  0  0  0  0  0  0  0  0  0  0  0
   -3.7308    0.4841   -1.1977 C   0  0  0  0  0  0  0  0  0  0  0  0
   -3.8430   -0.8555   -1.8685 C   0  0  0  0  0  0  0  0  0  0  0  0
   -1.4248   -2.1333    1.6765 C   0  0  0  0  0  0  0  0  0  0  0  0
   -2.1327   -3.0581    2.4548 C   0  0  0  0  0  0  0  0  0  0  0  0
   -1.3353   -4.0177    2.9538 N   0  0  0  0  0  0  0  0  0  0  0  0
   -0.1042   -3.6929    2.4848 N   0  0  0  0  0  0  0  0  0  0  0  0
    1.0202   -4.5216    2.8364 C   0  0  0  0  0  0  0  0  0  0  0  0
   -0.1292   -2.5676    1.7244 C   0  0  0  0  0  0  0  0  0  0  0  0
    1.7751   -2.3076    0.9193 H   0  0  0  0  0  0  0  0  0  0  0  0
    1.0856    0.5742   -0.8493 H   0  0  0  0  0  0  0  0  0  0  0  0
    2.5274    0.8981    1.1368 H   0  0  0  0  0  0  0  0  0  0  0  0
    3.2275   -0.6807    0.7596 H   0  0  0  0  0  0  0  0  0  0  0  0
    3.8065    0.1901   -1.5714 H   0  0  0  0  0  0  0  0  0  0  0  0
    4.7125    0.8485   -0.2164 H   0  0  0  0  0  0  0  0  0  0  0  0
    3.2049    2.8712   -0.1946 H   0  0  0  0  0  0  0  0  0  0  0  0
    2.3638    2.2388   -1.6228 H   0  0  0  0  0  0  0  0  0  0  0  0
    4.1419    2.8356   -2.9592 H   0  0  0  0  0  0  0  0  0  0  0  0
    6.0836    3.8080   -2.2814 H   0  0  0  0  0  0  0  0  0  0  0  0
   -2.8980    1.9215    1.7796 H   0  0  0  0  0  0  0  0  0  0  0  0
   -3.4544    3.9734    0.5121 H   0  0  0  0  0  0  0  0  0  0  0  0
   -4.3626    1.5886   -2.9484 H   0  0  0  0  0  0  0  0  0  0  0  0
   -2.8474   -1.2768   -2.0399 H   0  0  0  0  0  0  0  0  0  0  0  0
   -4.4296   -1.5462   -1.2540 H   0  0  0  0  0  0  0  0  0  0  0  0
   -4.3475   -0.7759   -2.8373 H   0  0  0  0  0  0  0  0  0  0  0  0
   -3.1922   -3.0803    2.6763 H   0  0  0  0  0  0  0  0  0  0  0  0
    0.8665   -5.5117    2.4001 H   0  0  0  0  0  0  0  0  0  0  0  0
    1.9417   -4.0828    2.4481 H   0  0  0  0  0  0  0  0  0  0  0  0
    1.0743   -4.5878    3.9261 H   0  0  0  0  0  0  0  0  0  0  0  0
  1  2  1  0
  2  3  1  0
  3  4  1  0
  4  5  1  0
  5  6  1  0
  6  7  1  0
  7  8  1  0
  8  9  2  0
  2 10  2  0
 10 11  1  0
 11 12  2  3
 12 13  1  0
 13 14  2  0
 14 15  1  0
 15 16  2  0
 16 17  1  0
 16 18  1  0
 18 19  2  0
 19 20  1  0
 11 21  1  0
 21 22  1  0
 22 23  2  0
 23 24  1  0
 24 25  1  0
 24 26  1  0
 26  1  1  0
 19 13  1  0
 26 21  2  0
  1 27  1  0
  3 28  1  0
  4 29  1  0
  4 30  1  0
  5 31  1  0
  5 32  1  0
  6 33  1  0
  6 34  1  0
  7 35  1  0
  8 36  1  0
 14 37  1  0
 15 38  1  0
 18 39  1  0
 20 40  1  0
 20 41  1  0
 20 42  1  0
 22 43  1  0
 25 44  1  0
 25 45  1  0
 25 46  1  0
M  END
>  <ScrubInfo>  (5) 
{"isomerGroup": 0, "isomerId": 4, "confId": 0, "nr_conformers:": 1, "nr_isomers:": 9}

$$$$
_i5
     RDKit          3D

 46 48  0  0  0  0  0  0  0  0999 V2000
   -2.2232   -3.0998    0.5452 N   0  0  0  0  0  0  0  0  0  0  0  0
   -2.5627   -1.7884    0.2298 C   0  0  0  0  0  0  0  0  0  0  0  0
   -1.5075   -1.0261   -0.0965 C   0  0  0  0  0  0  0  0  0  0  0  0
   -1.2129    0.3523   -0.4671 C   0  0  0  0  0  0  0  0  0  0  0  0
   -1.9990    1.3563   -0.6729 N   0  0  0  0  0  0  0  0  0  0  0  0
   -3.3852    1.2160   -0.5633 C   0  0  0  0  0  0  0  0  0  0  0  0
   -4.1225    0.8399   -1.6937 C   0  0  0  0  0  0  0  0  0  0  0  0
   -5.5096    0.7025   -1.6267 C   0  0  0  0  0  0  0  0  0  0  0  0
   -6.1668    0.9558   -0.4264 C   0  0  0  0  0  0  0  0  0  0  0  0
   -7.8755    0.7769   -0.3349 Cl  0  0  0  0  0  0  0  0  0  0  0  0
   -5.4509    1.3563    0.7018 C   0  0  0  0  0  0  0  0  0  0  0  0
   -4.0557    1.5049    0.6397 C   0  0  0  0  0  0  0  0  0  0  0  0
   -3.2945    1.9531    1.8558 C   0  0  0  0  0  0  0  0  0  0  0  0
    0.1239    0.6145   -0.6106 N   0  0  0  0  0  0  0  0  0  0  0  0
    1.0466   -0.2925   -0.4845 C   0  0  0  0  0  0  0  0  0  0  0  0
    2.3302    0.1383   -0.6609 N   0  0  0  0  0  0  0  0  0  0  0  0
    3.4746   -0.5692   -0.1287 C   0  0  0  0  0  0  0  0  0  0  0  0
    4.7789    0.0348   -0.6447 C   0  0  0  0  0  0  0  0  0  0  0  0
    5.1175    1.3568    0.0349 C   0  0  0  0  0  0  0  0  0  0  0  0
    6.3755    1.8885   -0.4508 N   0  0  0  0  0  0  0  0  0  0  0  0
    7.1419    2.7225    0.3238 C   0  0  0  0  0  0  0  0  0  0  0  0
    6.9275    3.0129    1.4910 O   0  0  0  0  0  0  0  0  0  0  0  0
    0.8302   -1.6113   -0.1914 N   0  0  0  0  0  0  0  0  0  0  0  0
   -0.3890   -1.9848   -0.0176 C   0  0  0  0  0  0  0  0  0  0  0  0
   -0.8727   -3.2611    0.2742 N   0  0  0  0  0  0  0  0  0  0  0  0
   -0.0978   -4.1893    1.0747 C   0  0  0  0  0  0  0  0  0  0  0  0
   -2.8527   -3.7921    0.1320 H   0  0  0  0  0  0  0  0  0  0  0  0
   -3.6043   -1.5071    0.2740 H   0  0  0  0  0  0  0  0  0  0  0  0
   -3.6057    0.6594   -2.6333 H   0  0  0  0  0  0  0  0  0  0  0  0
   -6.0661    0.4072   -2.5118 H   0  0  0  0  0  0  0  0  0  0  0  0
   -5.9804    1.5640    1.6287 H   0  0  0  0  0  0  0  0  0  0  0  0
   -3.9713    2.2757    2.6541 H   0  0  0  0  0  0  0  0  0  0  0  0
   -2.6838    1.1319    2.2438 H   0  0  0  0  0  0  0  0  0  0  0  0
   -2.6494    2.8038    1.6135 H   0  0  0  0  0  0  0  0  0  0  0  0
    2.3669    1.1507   -0.6560 H   0  0  0  0  0  0  0  0  0  0  0  0
    3.4381   -1.6167   -0.4506 H   0  0  0  0  0  0  0  0  0  0  0  0
    3.4505   -0.5584    0.9670 H   0  0  0  0  0  0  0  0  0  0  0  0
    4.7320    0.1716   -1.7325 H   0  0  0  0  0  0  0  0  0  0  0  0
    5.5937   -0.6753   -0.4537 H   0  0  0  0  0  0  0  0  0  0  0  0
    4.3540    2.1145   -0.1698 H   0  0  0  0  0  0  0  0  0  0  0  0
    5.1751    1.2263    1.1214 H   0  0  0  0  0  0  0  0  0  0  0  0
    6.5538    1.8859   -1.4475 H   0  0  0  0  0  0  0  0  0  0  0  0
    8.0072    3.1178   -0.2343 H   0  0  0  0  0  0  0  0  0  0  0  0
    0.8934   -4.3424    0.6360 H   0  0  0  0  0  0  0  0  0  0  0  0
   -0.5971   -5.1626    1.1194 H   0  0  0  0  0  0  0  0  0  0  0  0
    0.0250   -3.8140    2.0961 H   0  0  0  0  0  0  0  0  0  0  0  0
  1  2  1  0
  2  3  2  0
  3  4  1  0
  4  5  2  3
  5  6  1  0
  6  7  2  0
  7  8  1  0
  8  9  2  0
  9 10  1  0
  9 11  1  0
 11 12  2  0
 12 13  1  0
  4 14  1  0
 14 15  2  0
 15 16  1  0
 16 17  1  0
 17 18  1  0
 18 19  1  0
 19 20  1  0
 20 21  1  0
 21 22  2  0
 15 23  1  0
 23 24  2  0
 24 25  1  0
 25 26  1  0
 25  1  1  0
 24  3  1  0
 12  6  1  0
  1 27  1  0
  2 28  1  0
  7 29  1  0
  8 30  1  0
 11 31  1  0
 13 32  1  0
 13 33  1  0
 13 34  1  0
 16 35  1  0
 17 36  1  0
 17 37  1  0
 18 38  1  0
 18 39  1  0
 19 40  1  0
 19 41  1  0
 20 42  1  0
 21 43  1  0
 26 44  1  0
 26 45  1  0
 26 46  1  0
M  END
>  <ScrubInfo>  (6) 
{"isomerGroup": 0, "isomerId": 5, "confId": 0, "nr_conformers:": 1, "nr_isomers:": 9}

$$$$
_i6
     RDKit          3D

 46 48  0  0  0  0  0  0  0  0999 V2000
   -1.7410   -3.1110    1.6791 N   0  0  0  0  0  0  0  0  0  0  0  0
   -2.2628   -2.2191    0.7484 C   0  0  0  0  0  0  0  0  0  0  0  0
   -1.3160   -1.5654    0.0622 C   0  0  0  0  0  0  0  0  0  0  0  0
   -1.2103   -0.5432   -0.9776 C   0  0  0  0  0  0  0  0  0  0  0  0
   -2.2924    0.0420   -1.6034 N   0  0  0  0  0  0  0  0  0  0  0  0
   -3.4486    0.4589   -0.9044 C   0  0  0  0  0  0  0  0  0  0  0  0
   -4.6896    0.0252   -1.3991 C   0  0  0  0  0  0  0  0  0  0  0  0
   -5.8827    0.4154   -0.7901 C   0  0  0  0  0  0  0  0  0  0  0  0
   -5.8443    1.2650    0.3088 C   0  0  0  0  0  0  0  0  0  0  0  0
   -7.3099    1.7418    1.0724 Cl  0  0  0  0  0  0  0  0  0  0  0  0
   -4.6250    1.7418    0.7880 C   0  0  0  0  0  0  0  0  0  0  0  0
   -3.4161    1.3684    0.1725 C   0  0  0  0  0  0  0  0  0  0  0  0
   -2.1325    1.9450    0.7073 C   0  0  0  0  0  0  0  0  0  0  0  0
   -0.0192   -0.1670   -1.3547 N   0  0  0  0  0  0  0  0  0  0  0  0
    1.0832   -0.7160   -0.7376 C   0  0  0  0  0  0  0  0  0  0  0  0
    2.1949   -0.1840   -1.1075 N   0  0  0  0  0  0  0  0  0  0  0  0
    3.4239   -0.6937   -0.5058 C   0  0  0  0  0  0  0  0  0  0  0  0
    4.6025    0.1219   -1.0330 C   0  0  0  0  0  0  0  0  0  0  0  0
    4.5709    1.5622   -0.5318 C   0  0  0  0  0  0  0  0  0  0  0  0
    5.7079    2.3125   -1.0329 N   0  0  0  0  0  0  0  0  0  0  0  0
    6.2235    3.3805   -0.3452 C   0  0  0  0  0  0  0  0  0  0  0  0
    5.8942    3.7478    0.7727 O   0  0  0  0  0  0  0  0  0  0  0  0
    1.0909   -1.7287    0.1941 N   0  0  0  0  0  0  0  0  0  0  0  0
   -0.0619   -2.1543    0.5798 C   0  0  0  0  0  0  0  0  0  0  0  0
   -0.3635   -3.1633    1.4950 N   0  0  0  0  0  0  0  0  0  0  0  0
    0.4929   -3.4147    2.6386 C   0  0  0  0  0  0  0  0  0  0  0  0
   -2.2275   -4.0105    1.6991 H   0  0  0  0  0  0  0  0  0  0  0  0
   -3.3353   -2.1285    0.6532 H   0  0  0  0  0  0  0  0  0  0  0  0
   -1.9675    0.7871   -2.2177 H   0  0  0  0  0  0  0  0  0  0  0  0
   -4.7256   -0.6388   -2.2608 H   0  0  0  0  0  0  0  0  0  0  0  0
   -6.8314    0.0550   -1.1783 H   0  0  0  0  0  0  0  0  0  0  0  0
   -4.6154    2.4209    1.6384 H   0  0  0  0  0  0  0  0  0  0  0  0
   -1.6246    1.2161    1.3454 H   0  0  0  0  0  0  0  0  0  0  0  0
   -2.3218    2.8435    1.3049 H   0  0  0  0  0  0  0  0  0  0  0  0
   -1.4692    2.2471   -0.1092 H   0  0  0  0  0  0  0  0  0  0  0  0
    3.5751   -1.7427   -0.7881 H   0  0  0  0  0  0  0  0  0  0  0  0
    3.3939   -0.6251    0.5885 H   0  0  0  0  0  0  0  0  0  0  0  0
    4.6067    0.1097   -2.1303 H   0  0  0  0  0  0  0  0  0  0  0  0
    5.5373   -0.3522   -0.7090 H   0  0  0  0  0  0  0  0  0  0  0  0
    3.6714    2.0826   -0.8777 H   0  0  0  0  0  0  0  0  0  0  0  0
    4.5731    1.5893    0.5636 H   0  0  0  0  0  0  0  0  0  0  0  0
    5.9263    2.2408   -2.0181 H   0  0  0  0  0  0  0  0  0  0  0  0
    7.0057    3.8973   -0.9261 H   0  0  0  0  0  0  0  0  0  0  0  0
    1.5217   -3.6032    2.3154 H   0  0  0  0  0  0  0  0  0  0  0  0
    0.1474   -4.2977    3.1860 H   0  0  0  0  0  0  0  0  0  0  0  0
    0.4909   -2.5587    3.3215 H   0  0  0  0  0  0  0  0  0  0  0  0
  1  2  1  0
  2  3  2  0
  3  4  1  0
  4  5  1  0
  5  6  1  0
  6  7  2  0
  7  8  1  0
  8  9  2  0
  9 10  1  0
  9 11  1  0
 11 12  2  0
 12 13  1  0
  4 14  2  0
 14 15  1  0
 15 16  2  3
 16 17  1  0
 17 18  1  0
 18 19  1  0
 19 20  1  0
 20 21  1  0
 21 22  2  0
 15 23  1  0
 23 24  2  0
 24 25  1  0
 25 26  1  0
 25  1  1  0
 24  3  1  0
 12  6  1  0
  1 27  1  0
  2 28  1  0
  5 29  1  0
  7 30  1  0
  8 31  1  0
 11 32  1  0
 13 33  1  0
 13 34  1  0
 13 35  1  0
 17 36  1  0
 17 37  1  0
 18 38  1  0
 18 39  1  0
 19 40  1  0
 19 41  1  0
 20 42  1  0
 21 43  1  0
 26 44  1  0
 26 45  1  0
 26 46  1  0
M  END
>  <ScrubInfo>  (7) 
{"isomerGroup": 0, "isomerId": 6, "confId": 0, "nr_conformers:": 1, "nr_isomers:": 9}

$$$$
_i7
     RDKit          3D

 46 48  0  0  0  0  0  0  0  0999 V2000
    0.9374   -1.1576    0.7807 N   0  0  0  0  0  0  0  0  0  0  0  0
    0.4729    0.0140    0.2000 C   0  0  0  0  0  0  0  0  0  0  0  0
    1.1151    1.1079   -0.0308 N   0  0  0  0  0  0  0  0  0  0  0  0
    2.5215    1.2360    0.3437 C   0  0  0  0  0  0  0  0  0  0  0  0
    3.3852    1.0373   -0.9004 C   0  0  0  0  0  0  0  0  0  0  0  0
    4.8753    0.9242   -0.5903 C   0  0  0  0  0  0  0  0  0  0  0  0
    5.4221    2.1182    0.0174 N   0  0  0  0  0  0  0  0  0  0  0  0
    5.5855    2.2372    1.3735 C   0  0  0  0  0  0  0  0  0  0  0  0
    5.3019    1.3825    2.2003 O   0  0  0  0  0  0  0  0  0  0  0  0
   -0.8561   -0.0447   -0.1751 N   0  0  0  0  0  0  0  0  0  0  0  0
   -1.7876   -1.0582   -0.0675 C   0  0  0  0  0  0  0  0  0  0  0  0
   -3.0307   -1.1154   -0.4152 N   0  0  0  0  0  0  0  0  0  0  0  0
   -3.5995    0.0169   -1.0144 C   0  0  0  0  0  0  0  0  0  0  0  0
   -3.5580    0.1402   -2.4088 C   0  0  0  0  0  0  0  0  0  0  0  0
   -4.1079    1.2555   -3.0421 C   0  0  0  0  0  0  0  0  0  0  0  0
   -4.7107    2.2506   -2.2786 C   0  0  0  0  0  0  0  0  0  0  0  0
   -5.3834    3.6315   -3.0534 Cl  0  0  0  0  0  0  0  0  0  0  0  0
   -4.7754    2.1349   -0.8901 C   0  0  0  0  0  0  0  0  0  0  0  0
   -4.2327    1.0110   -0.2461 C   0  0  0  0  0  0  0  0  0  0  0  0
   -4.3141    0.8948    1.2503 C   0  0  0  0  0  0  0  0  0  0  0  0
   -1.2052   -2.2243    0.5511 C   0  0  0  0  0  0  0  0  0  0  0  0
   -1.6683   -3.5018    0.8973 C   0  0  0  0  0  0  0  0  0  0  0  0
   -0.7131   -4.2514    1.4690 N   0  0  0  0  0  0  0  0  0  0  0  0
    0.3684   -3.4346    1.4962 N   0  0  0  0  0  0  0  0  0  0  0  0
    1.5992   -3.9236    2.0645 C   0  0  0  0  0  0  0  0  0  0  0  0
    0.1107   -2.2165    0.9435 C   0  0  0  0  0  0  0  0  0  0  0  0
    1.9015   -1.1799    1.0827 H   0  0  0  0  0  0  0  0  0  0  0  0
    2.8174    0.5565    1.1480 H   0  0  0  0  0  0  0  0  0  0  0  0
    2.6693    2.2477    0.7384 H   0  0  0  0  0  0  0  0  0  0  0  0
    3.0733    0.1236   -1.4217 H   0  0  0  0  0  0  0  0  0  0  0  0
    3.2113    1.8680   -1.5961 H   0  0  0  0  0  0  0  0  0  0  0  0
    5.4295    0.7644   -1.5213 H   0  0  0  0  0  0  0  0  0  0  0  0
    5.0620    0.0614    0.0589 H   0  0  0  0  0  0  0  0  0  0  0  0
    5.6494    2.9095   -0.5718 H   0  0  0  0  0  0  0  0  0  0  0  0
    6.0060    3.2177    1.6529 H   0  0  0  0  0  0  0  0  0  0  0  0
   -1.1820    0.8150   -0.5916 H   0  0  0  0  0  0  0  0  0  0  0  0
   -3.0948   -0.6440   -3.0029 H   0  0  0  0  0  0  0  0  0  0  0  0
   -4.0658    1.3373   -4.1247 H   0  0  0  0  0  0  0  0  0  0  0  0
   -5.2567    2.9175   -0.3080 H   0  0  0  0  0  0  0  0  0  0  0  0
   -4.7021   -0.0871    1.5401 H   0  0  0  0  0  0  0  0  0  0  0  0
   -4.9889    1.6468    1.6728 H   0  0  0  0  0  0  0  0  0  0  0  0
   -3.3244    1.0406    1.6944 H   0  0  0  0  0  0  0  0  0  0  0  0
   -2.6573   -3.9190    0.7570 H   0  0  0  0  0  0  0  0  0  0  0  0
    2.0641   -4.5975    1.3408 H   0  0  0  0  0  0  0  0  0  0  0  0
    2.2652   -3.0862    2.2829 H   0  0  0  0  0  0  0  0  0  0  0  0
    1.3706   -4.4569    2.9910 H   0  0  0  0  0  0  0  0  0  0  0  0
  1  2  1  0
  2  3  2  3
  3  4  1  0
  4  5  1  0
  5  6  1  0
  6  7  1  0
  7  8  1  0
  8  9  2  0
  2 10  1  0
 10 11  1  0
 11 12  2  3
 12 13  1  0
 13 14  2  0
 14 15  1  0
 15 16  2  0
 16 17  1  0
 16 18  1  0
 18 19  2  0
 19 20  1  0
 11 21  1  0
 21 22  1  0
 22 23  2  0
 23 24  1  0
 24 25  1  0
 24 26  1  0
 26  1  1  0
 19 13  1  0
 26 21  2  0
  1 27  1  0
  4 28  1  0
  4 29  1  0
  5 30  1  0
  5 31  1  0
  6 32  1  0
  6 33  1  0
  7 34  1  0
  8 35  1  0
 10 36  1  0
 14 37  1  0
 15 38  1  0
 18 39  1  0
 20 40  1  0
 20 41  1  0
 20 42  1  0
 22 43  1  0
 25 44  1  0
 25 45  1  0
 25 46  1  0
M  END
>  <ScrubInfo>  (8) 
{"isomerGroup": 0, "isomerId": 7, "confId": 0, "nr_conformers:": 1, "nr_isomers:": 9}

$$$$
_i8
     RDKit          3D

 46 48  0  0  0  0  0  0  0  0999 V2000
   -2.0076   -2.9417    0.8673 N   0  0  0  0  0  0  0  0  0  0  0  0
   -2.4319   -1.7029    0.4014 C   0  0  0  0  0  0  0  0  0  0  0  0
   -1.4351   -0.9334   -0.0584 C   0  0  0  0  0  0  0  0  0  0  0  0
   -1.2066    0.4143   -0.6162 C   0  0  0  0  0  0  0  0  0  0  0  0
   -2.0678    1.3487   -0.8926 N   0  0  0  0  0  0  0  0  0  0  0  0
   -3.4363    1.1530   -0.6774 C   0  0  0  0  0  0  0  0  0  0  0  0
   -4.2163    0.6158   -1.7096 C   0  0  0  0  0  0  0  0  0  0  0  0
   -5.5876    0.4207   -1.5390 C   0  0  0  0  0  0  0  0  0  0  0  0
   -6.1866    0.7767   -0.3344 C   0  0  0  0  0  0  0  0  0  0  0  0
   -7.8745    0.5279   -0.1144 Cl  0  0  0  0  0  0  0  0  0  0  0  0
   -5.4288    1.3358    0.6946 C   0  0  0  0  0  0  0  0  0  0  0  0
   -4.0498    1.5435    0.5273 C   0  0  0  0  0  0  0  0  0  0  0  0
   -3.2456    2.1576    1.6385 C   0  0  0  0  0  0  0  0  0  0  0  0
    0.1195    0.6581   -0.8493 N   0  0  0  0  0  0  0  0  0  0  0  0
    1.1706   -0.1864   -0.6321 C   0  0  0  0  0  0  0  0  0  0  0  0
    2.3659    0.2390   -0.8861 N   0  0  0  0  0  0  0  0  0  0  0  0
    3.4691   -0.6917   -0.6415 C   0  0  0  0  0  0  0  0  0  0  0  0
    4.7873    0.0150   -0.9494 C   0  0  0  0  0  0  0  0  0  0  0  0
    5.0867    1.1287    0.0486 C   0  0  0  0  0  0  0  0  0  0  0  0
    6.3549    1.7686   -0.2481 N   0  0  0  0  0  0  0  0  0  0  0  0
    7.0728    2.4174    0.7235 C   0  0  0  0  0  0  0  0  0  0  0  0
    6.8136    2.4411    1.9173 O   0  0  0  0  0  0  0  0  0  0  0  0
    0.9806   -1.4668   -0.1585 N   0  0  0  0  0  0  0  0  0  0  0  0
   -0.2364   -1.8321    0.1010 C   0  0  0  0  0  0  0  0  0  0  0  0
   -0.6593   -3.0777    0.5715 N   0  0  0  0  0  0  0  0  0  0  0  0
    0.1799   -3.8674    1.4531 C   0  0  0  0  0  0  0  0  0  0  0  0
   -2.6141   -3.7147    0.5835 H   0  0  0  0  0  0  0  0  0  0  0  0
   -3.4861   -1.4744    0.4518 H   0  0  0  0  0  0  0  0  0  0  0  0
   -3.7471    0.3516   -2.6541 H   0  0  0  0  0  0  0  0  0  0  0  0
   -6.1780   -0.0005   -2.3479 H   0  0  0  0  0  0  0  0  0  0  0  0
   -5.9139    1.6195    1.6259 H   0  0  0  0  0  0  0  0  0  0  0  0
   -3.8927    2.5486    2.4309 H   0  0  0  0  0  0  0  0  0  0  0  0
   -2.5823    1.4093    2.0834 H   0  0  0  0  0  0  0  0  0  0  0  0
   -2.6493    2.9960    1.2641 H   0  0  0  0  0  0  0  0  0  0  0  0
    0.3599    1.5697   -1.2080 H   0  0  0  0  0  0  0  0  0  0  0  0
    3.3808   -1.5617   -1.3035 H   0  0  0  0  0  0  0  0  0  0  0  0
    3.4752   -1.0396    0.3987 H   0  0  0  0  0  0  0  0  0  0  0  0
    4.7657    0.4236   -1.9676 H   0  0  0  0  0  0  0  0  0  0  0  0
    5.6005   -0.7210   -0.9224 H   0  0  0  0  0  0  0  0  0  0  0  0
    4.3202    1.9104    0.0113 H   0  0  0  0  0  0  0  0  0  0  0  0
    5.1131    0.7346    1.0708 H   0  0  0  0  0  0  0  0  0  0  0  0
    6.5630    1.9944   -1.2120 H   0  0  0  0  0  0  0  0  0  0  0  0
    7.9496    2.9370    0.3018 H   0  0  0  0  0  0  0  0  0  0  0  0
    1.1605   -4.0416    0.9987 H   0  0  0  0  0  0  0  0  0  0  0  0
   -0.2785   -4.8437    1.6415 H   0  0  0  0  0  0  0  0  0  0  0  0
    0.3228   -3.3591    2.4124 H   0  0  0  0  0  0  0  0  0  0  0  0
  1  2  1  0
  2  3  2  0
  3  4  1  0
  4  5  2  3
  5  6  1  0
  6  7  2  0
  7  8  1  0
  8  9  2  0
  9 10  1  0
  9 11  1  0
 11 12  2  0
 12 13  1  0
  4 14  1  0
 14 15  1  0
 15 16  2  3
 16 17  1  0
 17 18  1  0
 18 19  1  0
 19 20  1  0
 20 21  1  0
 21 22  2  0
 15 23  1  0
 23 24  2  0
 24 25  1  0
 25 26  1  0
 25  1  1  0
 24  3  1  0
 12  6  1  0
  1 27  1  0
  2 28  1  0
  7 29  1  0
  8 30  1  0
 11 31  1  0
 13 32  1  0
 13 33  1  0
 13 34  1  0
 14 35  1  0
 17 36  1  0
 17 37  1  0
 18 38  1  0
 18 39  1  0
 19 40  1  0
 19 41  1  0
 20 42  1  0
 21 43  1  0
 26 44  1  0
 26 45  1  0
 26 46  1  0
M  END
>  <ScrubInfo>  (9) 
{"isomerGroup": 0, "isomerId": 8, "confId": 0, "nr_conformers:": 1, "nr_isomers:": 9}

$$$$
