REMARK SMILES C=CCNc1nc(Nc2ccc(C(C)=O)cc2)c2cnn(C)c2n1
REMARK SMILES IDX 5 1 6 2 7 3 18 4 19 5 20 6 21 7 22 8 23 9 24 10 4 11 3 13
REMARK SMILES IDX 2 14 1 15 8 16 9 18 10 19 17 20 11 21 16 22 12 23 13 24
REMARK SMILES IDX 14 25 15 26
REMARK H PARENT 4 12 8 17
ROOT
ATOM      1  C   UNL     1       2.809  -0.340   0.168  1.00  0.00     0.226 A 
ATOM      2  N   UNL     1       1.825   0.566   0.336  1.00  0.00    -0.195 NA
ATOM      3  C   UNL     1       0.679   0.472  -0.383  1.00  0.00     0.147 A 
ATOM      4  C   UNL     1       0.587  -0.550  -1.329  1.00  0.00     0.082 A 
ATOM      5  C   UNL     1      -0.316  -1.007  -2.311  1.00  0.00     0.149 A 
ATOM      6  N   UNL     1       0.124  -2.094  -2.957  1.00  0.00    -0.179 NA
ATOM      7  N   UNL     1       1.334  -2.318  -2.394  1.00  0.00    -0.250 N 
ATOM      8  C   UNL     1       2.134  -3.427  -2.850  1.00  0.00     0.176 C 
ATOM      9  C   UNL     1       1.661  -1.413  -1.421  1.00  0.00     0.165 A 
ATOM     10  N   UNL     1       2.790  -1.361  -0.698  1.00  0.00    -0.193 NA
ENDROOT
BRANCH   1  11
ATOM     11  N   UNL     1       3.963  -0.250   0.935  1.00  0.00    -0.351 N 
ATOM     12  H   UNL     1       4.659  -0.818   0.468  1.00  0.00     0.164 HD
BRANCH  11  13
ATOM     13  C   UNL     1       4.369   1.102   1.242  1.00  0.00     0.143 C 
BRANCH  13  14
ATOM     14  C   UNL     1       5.710   1.021   1.910  1.00  0.00    -0.014 C 
ATOM     15  C   UNL     1       5.934   1.291   3.204  1.00  0.00     0.006 C 
ENDBRANCH  13  14
ENDBRANCH  11  13
ENDBRANCH   1  11
BRANCH   3  16
ATOM     16  N   UNL     1      -0.299   1.451  -0.152  1.00  0.00    -0.339 N 
ATOM     17  H   UNL     1       0.066   2.064   0.575  1.00  0.00     0.168 HD
BRANCH  16  18
ATOM     18  C   UNL     1      -1.689   1.274  -0.006  1.00  0.00     0.040 A 
ATOM     19  C   UNL     1      -2.522   2.389  -0.157  1.00  0.00     0.027 A 
ATOM     20  C   UNL     1      -2.273   0.052   0.347  1.00  0.00     0.027 A 
ATOM     21  C   UNL     1      -3.906   2.279   0.004  1.00  0.00     0.014 A 
ATOM     22  C   UNL     1      -3.660  -0.065   0.509  1.00  0.00     0.014 A 
ATOM     23  C   UNL     1      -4.486   1.049   0.334  1.00  0.00     0.017 A 
BRANCH  23  24
ATOM     24  C   UNL     1      -5.969   0.980   0.495  1.00  0.00     0.159 C 
ATOM     25  C   UNL     1      -6.607  -0.348   0.809  1.00  0.00     0.093 C 
ATOM     26  O   UNL     1      -6.647   1.998   0.373  1.00  0.00    -0.295 OA
ENDBRANCH  23  24
ENDBRANCH  16  18
ENDBRANCH   3  16
TORSDOF 6
