_i0
     RDKit          3D

 42 44  0  0  0  0  0  0  0  0999 V2000
    5.9343    1.2911    3.2038 C   0  0  0  0  0  0  0  0  0  0  0  0
    5.7102    1.0212    1.9103 C   0  0  0  0  0  0  0  0  0  0  0  0
    4.3686    1.1019    1.2420 C   0  0  0  0  0  0  0  0  0  0  0  0
    3.9635   -0.2497    0.9348 N   0  0  0  0  0  0  0  0  0  0  0  0
    2.8089   -0.3398    0.1675 C   0  0  0  0  0  0  0  0  0  0  0  0
    1.8253    0.5664    0.3357 N   0  0  0  0  0  0  0  0  0  0  0  0
    0.6795    0.4719   -0.3832 C   0  0  0  0  0  0  0  0  0  0  0  0
   -0.2989    1.4512   -0.1522 N   0  0  0  0  0  0  0  0  0  0  0  0
   -1.6894    1.2736   -0.0059 C   0  0  0  0  0  0  0  0  0  0  0  0
   -2.5216    2.3889   -0.1571 C   0  0  0  0  0  0  0  0  0  0  0  0
   -3.9064    2.2794    0.0035 C   0  0  0  0  0  0  0  0  0  0  0  0
   -4.4860    1.0492    0.3336 C   0  0  0  0  0  0  0  0  0  0  0  0
   -5.9689    0.9795    0.4952 C   0  0  0  0  0  0  0  0  0  0  0  0
   -6.6074   -0.3482    0.8089 C   0  0  0  0  0  0  0  0  0  0  0  0
   -6.6467    1.9979    0.3730 O   0  0  0  0  0  0  0  0  0  0  0  0
   -3.6605   -0.0654    0.5093 C   0  0  0  0  0  0  0  0  0  0  0  0
   -2.2735    0.0516    0.3471 C   0  0  0  0  0  0  0  0  0  0  0  0
    0.5867   -0.5504   -1.3292 C   0  0  0  0  0  0  0  0  0  0  0  0
   -0.3162   -1.0074   -2.3108 C   0  0  0  0  0  0  0  0  0  0  0  0
    0.1242   -2.0935   -2.9571 N   0  0  0  0  0  0  0  0  0  0  0  0
    1.3344   -2.3180   -2.3937 N   0  0  0  0  0  0  0  0  0  0  0  0
    2.1336   -3.4270   -2.8501 C   0  0  0  0  0  0  0  0  0  0  0  0
    1.6605   -1.4130   -1.4206 C   0  0  0  0  0  0  0  0  0  0  0  0
    2.7897   -1.3615   -0.6984 N   0  0  0  0  0  0  0  0  0  0  0  0
    5.1282    1.5759    3.8733 H   0  0  0  0  0  0  0  0  0  0  0  0
    6.9330    1.2177    3.6230 H   0  0  0  0  0  0  0  0  0  0  0  0
    6.5509    0.7389    1.2816 H   0  0  0  0  0  0  0  0  0  0  0  0
    4.4671    1.7093    0.3336 H   0  0  0  0  0  0  0  0  0  0  0  0
    3.6426    1.5899    1.9040 H   0  0  0  0  0  0  0  0  0  0  0  0
    4.6594   -0.8184    0.4681 H   0  0  0  0  0  0  0  0  0  0  0  0
    0.0656    2.0642    0.5752 H   0  0  0  0  0  0  0  0  0  0  0  0
   -2.0952    3.3554   -0.4181 H   0  0  0  0  0  0  0  0  0  0  0  0
   -4.5293    3.1622   -0.1318 H   0  0  0  0  0  0  0  0  0  0  0  0
   -6.3807   -1.0739    0.0236 H   0  0  0  0  0  0  0  0  0  0  0  0
   -7.6941   -0.2236    0.8488 H   0  0  0  0  0  0  0  0  0  0  0  0
   -6.2702   -0.7088    1.7840 H   0  0  0  0  0  0  0  0  0  0  0  0
   -4.0633   -1.0366    0.7819 H   0  0  0  0  0  0  0  0  0  0  0  0
   -1.6581   -0.8281    0.5216 H   0  0  0  0  0  0  0  0  0  0  0  0
   -1.2795   -0.5927   -2.5795 H   0  0  0  0  0  0  0  0  0  0  0  0
    2.3626   -3.2728   -3.9076 H   0  0  0  0  0  0  0  0  0  0  0  0
    3.0599   -3.4834   -2.2742 H   0  0  0  0  0  0  0  0  0  0  0  0
    1.5573   -4.3456   -2.7137 H   0  0  0  0  0  0  0  0  0  0  0  0
  1  2  2  0
  2  3  1  0
  3  4  1  0
  4  5  1  0
  5  6  2  0
  6  7  1  0
  7  8  1  0
  8  9  1  0
  9 10  2  0
 10 11  1  0
 11 12  2  0
 12 13  1  0
 13 14  1  0
 13 15  2  0
 12 16  1  0
 16 17  2  0
  7 18  2  0
 18 19  1  0
 19 20  2  0
 20 21  1  0
 21 22  1  0
 21 23  1  0
 23 24  2  0
 24  5  1  0
 17  9  1  0
 23 18  1  0
  1 25  1  0
  1 26  1  0
  2 27  1  0
  3 28  1  0
  3 29  1  0
  4 30  1  0
  8 31  1  0
 10 32  1  0
 11 33  1  0
 14 34  1  0
 14 35  1  0
 14 36  1  0
 16 37  1  0
 17 38  1  0
 19 39  1  0
 22 40  1  0
 22 41  1  0
 22 42  1  0
M  END
>  <ScrubInfo>  (1) 
{"isomerGroup": 0, "isomerId": 0, "confId": 0, "nr_conformers:": 1, "nr_isomers:": 16}

$$$$
_i1
     RDKit          3D

 42 44  0  0  0  0  0  0  0  0999 V2000
   -1.8108   -0.4236   -0.6480 N   0  0  0  0  0  0  0  0  0  0  0  0
   -0.6043    0.2409   -0.7822 C   0  0  0  0  0  0  0  0  0  0  0  0
    0.5289   -0.4273   -1.2072 N   0  0  0  0  0  0  0  0  0  0  0  0
    1.7610   -0.5220   -0.5211 C   0  0  0  0  0  0  0  0  0  0  0  0
    2.8571   -1.0728   -1.2021 C   0  0  0  0  0  0  0  0  0  0  0  0
    4.1196   -1.1598   -0.6013 C   0  0  0  0  0  0  0  0  0  0  0  0
    4.3098   -0.6869    0.6994 C   0  0  0  0  0  0  0  0  0  0  0  0
    5.6317   -0.7548    1.3910 C   0  0  0  0  0  0  0  0  0  0  0  0
    6.8161   -1.3166    0.6493 C   0  0  0  0  0  0  0  0  0  0  0  0
    5.7368   -0.3565    2.5491 O   0  0  0  0  0  0  0  0  0  0  0  0
    3.2247   -0.1277    1.3836 C   0  0  0  0  0  0  0  0  0  0  0  0
    1.9660   -0.0413    0.7766 C   0  0  0  0  0  0  0  0  0  0  0  0
   -0.6381    1.5550   -0.5310 C   0  0  0  0  0  0  0  0  0  0  0  0
    0.2887    2.6924   -0.5438 C   0  0  0  0  0  0  0  0  0  0  0  0
   -0.2764    3.8165   -0.1800 N   0  0  0  0  0  0  0  0  0  0  0  0
   -1.6263    3.4988    0.0418 N   0  0  0  0  0  0  0  0  0  0  0  0
   -2.4713    4.4490    0.7226 C   0  0  0  0  0  0  0  0  0  0  0  0
   -1.9191    2.1536   -0.1083 C   0  0  0  0  0  0  0  0  0  0  0  0
   -3.0213    1.5116    0.0697 N   0  0  0  0  0  0  0  0  0  0  0  0
   -2.9754    0.1590   -0.1886 C   0  0  0  0  0  0  0  0  0  0  0  0
   -4.0883   -0.4379    0.0469 N   0  0  0  0  0  0  0  0  0  0  0  0
   -4.1921   -1.8662   -0.1859 C   0  0  0  0  0  0  0  0  0  0  0  0
   -5.5959   -2.2861    0.1198 C   0  0  0  0  0  0  0  0  0  0  0  0
   -6.4118   -2.9127   -0.7383 C   0  0  0  0  0  0  0  0  0  0  0  0
   -1.7803   -1.4258   -0.7259 H   0  0  0  0  0  0  0  0  0  0  0  0
    0.3256   -1.2842   -1.7140 H   0  0  0  0  0  0  0  0  0  0  0  0
    2.7395   -1.4302   -2.2234 H   0  0  0  0  0  0  0  0  0  0  0  0
    4.9326   -1.5957   -1.1745 H   0  0  0  0  0  0  0  0  0  0  0  0
    6.6423   -2.3662    0.3986 H   0  0  0  0  0  0  0  0  0  0  0  0
    7.0156   -0.7275   -0.2495 H   0  0  0  0  0  0  0  0  0  0  0  0
    7.7008   -1.2622    1.2916 H   0  0  0  0  0  0  0  0  0  0  0  0
    3.3506    0.2459    2.3993 H   0  0  0  0  0  0  0  0  0  0  0  0
    1.1518    0.3865    1.3562 H   0  0  0  0  0  0  0  0  0  0  0  0
    1.3431    2.5658   -0.8204 H   0  0  0  0  0  0  0  0  0  0  0  0
   -3.5215    4.3036    0.4500 H   0  0  0  0  0  0  0  0  0  0  0  0
   -2.3737    4.3364    1.8068 H   0  0  0  0  0  0  0  0  0  0  0  0
   -2.1964    5.4744    0.4549 H   0  0  0  0  0  0  0  0  0  0  0  0
   -3.9362   -2.1141   -1.2231 H   0  0  0  0  0  0  0  0  0  0  0  0
   -3.5170   -2.4154    0.4809 H   0  0  0  0  0  0  0  0  0  0  0  0
   -5.9623   -2.0410    1.1145 H   0  0  0  0  0  0  0  0  0  0  0  0
   -6.0992   -3.1626   -1.7466 H   0  0  0  0  0  0  0  0  0  0  0  0
   -7.4245   -3.1727   -0.4460 H   0  0  0  0  0  0  0  0  0  0  0  0
  1  2  1  0
  2  3  1  0
  3  4  1  0
  4  5  2  0
  5  6  1  0
  6  7  2  0
  7  8  1  0
  8  9  1  0
  8 10  2  0
  7 11  1  0
 11 12  2  0
  2 13  2  0
 13 14  1  0
 14 15  2  0
 15 16  1  0
 16 17  1  0
 16 18  1  0
 18 19  2  0
 19 20  1  0
 20 21  2  3
 21 22  1  0
 22 23  1  0
 23 24  2  0
 20  1  1  0
 12  4  1  0
 18 13  1  0
  1 25  1  0
  3 26  1  0
  5 27  1  0
  6 28  1  0
  9 29  1  0
  9 30  1  0
  9 31  1  0
 11 32  1  0
 12 33  1  0
 14 34  1  0
 17 35  1  0
 17 36  1  0
 17 37  1  0
 22 38  1  0
 22 39  1  0
 23 40  1  0
 24 41  1  0
 24 42  1  0
M  END
>  <ScrubInfo>  (2) 
{"isomerGroup": 0, "isomerId": 1, "confId": 0, "nr_conformers:": 1, "nr_isomers:": 16}

$$$$
_i2
     RDKit          3D

 42 44  0  0  0  0  0  0  0  0999 V2000
    1.5805    1.2120   -0.3088 N   0  0  0  0  0  0  0  0  0  0  0  0
    2.7121    0.5517    0.1076 C   0  0  0  0  0  0  0  0  0  0  0  0
    3.8396    1.3212    0.0106 N   0  0  0  0  0  0  0  0  0  0  0  0
    5.1402    0.7453    0.2870 C   0  0  0  0  0  0  0  0  0  0  0  0
    6.1342    1.8649    0.2270 C   0  0  0  0  0  0  0  0  0  0  0  0
    7.0810    1.9976   -0.7120 C   0  0  0  0  0  0  0  0  0  0  0  0
    2.7101   -0.6752    0.5604 N   0  0  0  0  0  0  0  0  0  0  0  0
    1.4602   -1.2180    0.5467 C   0  0  0  0  0  0  0  0  0  0  0  0
    0.2680   -0.6315    0.1496 C   0  0  0  0  0  0  0  0  0  0  0  0
   -0.6923   -1.6424    0.3278 C   0  0  0  0  0  0  0  0  0  0  0  0
   -0.1687   -2.7771    0.8085 N   0  0  0  0  0  0  0  0  0  0  0  0
    1.1471   -2.4906    0.9340 N   0  0  0  0  0  0  0  0  0  0  0  0
    2.0456   -3.5018    1.4311 C   0  0  0  0  0  0  0  0  0  0  0  0
    0.2868    0.7432   -0.3094 C   0  0  0  0  0  0  0  0  0  0  0  0
   -0.7082    1.4957   -0.6696 N   0  0  0  0  0  0  0  0  0  0  0  0
   -2.0262    1.0404   -0.6591 C   0  0  0  0  0  0  0  0  0  0  0  0
   -2.8139    1.1829    0.4864 C   0  0  0  0  0  0  0  0  0  0  0  0
   -4.1490    0.7631    0.4912 C   0  0  0  0  0  0  0  0  0  0  0  0
   -4.7137    0.2098   -0.6640 C   0  0  0  0  0  0  0  0  0  0  0  0
   -6.1333   -0.2518   -0.7155 C   0  0  0  0  0  0  0  0  0  0  0  0
   -6.9703   -0.1795    0.5347 C   0  0  0  0  0  0  0  0  0  0  0  0
   -6.6001   -0.6804   -1.7690 O   0  0  0  0  0  0  0  0  0  0  0  0
   -3.9300    0.0901   -1.8199 C   0  0  0  0  0  0  0  0  0  0  0  0
   -2.5968    0.5105   -1.8174 C   0  0  0  0  0  0  0  0  0  0  0  0
    1.6586    2.1964   -0.5044 H   0  0  0  0  0  0  0  0  0  0  0  0
    3.8614    1.9268   -0.8011 H   0  0  0  0  0  0  0  0  0  0  0  0
    5.1676    0.2962    1.2861 H   0  0  0  0  0  0  0  0  0  0  0  0
    5.3733   -0.0341   -0.4475 H   0  0  0  0  0  0  0  0  0  0  0  0
    6.0731    2.6028    1.0243 H   0  0  0  0  0  0  0  0  0  0  0  0
    7.1896    1.2822   -1.5217 H   0  0  0  0  0  0  0  0  0  0  0  0
    7.7754    2.8323   -0.6852 H   0  0  0  0  0  0  0  0  0  0  0  0
   -1.7553   -1.6222    0.1340 H   0  0  0  0  0  0  0  0  0  0  0  0
    1.6850   -3.8328    2.4085 H   0  0  0  0  0  0  0  0  0  0  0  0
    3.0540   -3.0946    1.5301 H   0  0  0  0  0  0  0  0  0  0  0  0
    2.0491   -4.3347    0.7235 H   0  0  0  0  0  0  0  0  0  0  0  0
   -2.3829    1.6250    1.3815 H   0  0  0  0  0  0  0  0  0  0  0  0
   -4.7222    0.8873    1.4050 H   0  0  0  0  0  0  0  0  0  0  0  0
   -7.9583   -0.6039    0.3304 H   0  0  0  0  0  0  0  0  0  0  0  0
   -6.5112   -0.7668    1.3342 H   0  0  0  0  0  0  0  0  0  0  0  0
   -7.1033    0.8614    0.8407 H   0  0  0  0  0  0  0  0  0  0  0  0
   -4.3547   -0.3268   -2.7317 H   0  0  0  0  0  0  0  0  0  0  0  0
   -2.0022    0.4250   -2.7233 H   0  0  0  0  0  0  0  0  0  0  0  0
  1  2  1  0
  2  3  1  0
  3  4  1  0
  4  5  1  0
  5  6  2  0
  2  7  2  0
  7  8  1  0
  8  9  2  0
  9 10  1  0
 10 11  2  0
 11 12  1  0
 12 13  1  0
  9 14  1  0
 14 15  2  3
 15 16  1  0
 16 17  2  0
 17 18  1  0
 18 19  2  0
 19 20  1  0
 20 21  1  0
 20 22  2  0
 19 23  1  0
 23 24  2  0
 14  1  1  0
 24 16  1  0
 12  8  1  0
  1 25  1  0
  3 26  1  0
  4 27  1  0
  4 28  1  0
  5 29  1  0
  6 30  1  0
  6 31  1  0
 10 32  1  0
 13 33  1  0
 13 34  1  0
 13 35  1  0
 17 36  1  0
 18 37  1  0
 21 38  1  0
 21 39  1  0
 21 40  1  0
 23 41  1  0
 24 42  1  0
M  END
>  <ScrubInfo>  (3) 
{"isomerGroup": 0, "isomerId": 2, "confId": 0, "nr_conformers:": 1, "nr_isomers:": 16}

$$$$
_i3
     RDKit          3D

 42 44  0  0  0  0  0  0  0  0999 V2000
    2.7052   -1.1840   -1.0576 N   0  0  0  0  0  0  0  0  0  0  0  0
    2.8485   -0.3179    0.0056 C   0  0  0  0  0  0  0  0  0  0  0  0
    3.9733    0.3069    0.1302 N   0  0  0  0  0  0  0  0  0  0  0  0
    4.0953    1.2207    1.2600 C   0  0  0  0  0  0  0  0  0  0  0  0
    5.4691    1.8208    1.2091 C   0  0  0  0  0  0  0  0  0  0  0  0
    5.7270    3.1306    1.0967 C   0  0  0  0  0  0  0  0  0  0  0  0
    1.8269   -0.1117    0.9234 N   0  0  0  0  0  0  0  0  0  0  0  0
    0.6959   -0.7426    0.7643 C   0  0  0  0  0  0  0  0  0  0  0  0
   -0.3584   -0.6120    1.6319 N   0  0  0  0  0  0  0  0  0  0  0  0
   -1.6332   -0.1026    1.2730 C   0  0  0  0  0  0  0  0  0  0  0  0
   -2.6738   -0.2127    2.2045 C   0  0  0  0  0  0  0  0  0  0  0  0
   -3.9517    0.2750    1.9139 C   0  0  0  0  0  0  0  0  0  0  0  0
   -4.2134    0.8891    0.6838 C   0  0  0  0  0  0  0  0  0  0  0  0
   -5.5935    1.3938    0.4180 C   0  0  0  0  0  0  0  0  0  0  0  0
   -5.9010    2.0084   -0.9223 C   0  0  0  0  0  0  0  0  0  0  0  0
   -6.4554    1.3046    1.2901 O   0  0  0  0  0  0  0  0  0  0  0  0
   -3.1782    1.0132   -0.2476 C   0  0  0  0  0  0  0  0  0  0  0  0
   -1.8990    0.5235    0.0486 C   0  0  0  0  0  0  0  0  0  0  0  0
    0.5183   -1.6858   -0.3171 C   0  0  0  0  0  0  0  0  0  0  0  0
   -0.4675   -2.5740   -0.7728 C   0  0  0  0  0  0  0  0  0  0  0  0
   -0.0852   -3.2367   -1.8765 N   0  0  0  0  0  0  0  0  0  0  0  0
    1.1709   -2.7809   -2.1112 N   0  0  0  0  0  0  0  0  0  0  0  0
    1.9101   -3.3024   -3.2324 C   0  0  0  0  0  0  0  0  0  0  0  0
    1.5539   -1.8571   -1.1931 C   0  0  0  0  0  0  0  0  0  0  0  0
    3.5216   -1.2652   -1.6494 H   0  0  0  0  0  0  0  0  0  0  0  0
    3.3338    2.0089    1.2123 H   0  0  0  0  0  0  0  0  0  0  0  0
    3.9919    0.6855    2.2115 H   0  0  0  0  0  0  0  0  0  0  0  0
    6.2985    1.1204    1.2676 H   0  0  0  0  0  0  0  0  0  0  0  0
    6.7494    3.4927    1.0617 H   0  0  0  0  0  0  0  0  0  0  0  0
    4.9292    3.8630    1.0281 H   0  0  0  0  0  0  0  0  0  0  0  0
   -0.0504   -0.1100    2.4628 H   0  0  0  0  0  0  0  0  0  0  0  0
   -2.5014   -0.6946    3.1649 H   0  0  0  0  0  0  0  0  0  0  0  0
   -4.7432    0.1693    2.6543 H   0  0  0  0  0  0  0  0  0  0  0  0
   -6.9615    2.2766   -0.9595 H   0  0  0  0  0  0  0  0  0  0  0  0
   -5.3141    2.9195   -1.0638 H   0  0  0  0  0  0  0  0  0  0  0  0
   -5.7076    1.2901   -1.7232 H   0  0  0  0  0  0  0  0  0  0  0  0
   -3.3324    1.4906   -1.2112 H   0  0  0  0  0  0  0  0  0  0  0  0
   -1.1153    0.6559   -0.6944 H   0  0  0  0  0  0  0  0  0  0  0  0
   -1.4479   -2.7704   -0.3581 H   0  0  0  0  0  0  0  0  0  0  0  0
    1.3337   -3.1165   -4.1422 H   0  0  0  0  0  0  0  0  0  0  0  0
    2.8802   -2.8061   -3.3022 H   0  0  0  0  0  0  0  0  0  0  0  0
    2.0516   -4.3755   -3.0816 H   0  0  0  0  0  0  0  0  0  0  0  0
  1  2  1  0
  2  3  2  3
  3  4  1  0
  4  5  1  0
  5  6  2  0
  2  7  1  0
  7  8  2  0
  8  9  1  0
  9 10  1  0
 10 11  2  0
 11 12  1  0
 12 13  2  0
 13 14  1  0
 14 15  1  0
 14 16  2  0
 13 17  1  0
 17 18  2  0
  8 19  1  0
 19 20  1  0
 20 21  2  0
 21 22  1  0
 22 23  1  0
 22 24  1  0
 24  1  1  0
 18 10  1  0
 24 19  2  0
  1 25  1  0
  4 26  1  0
  4 27  1  0
  5 28  1  0
  6 29  1  0
  6 30  1  0
  9 31  1  0
 11 32  1  0
 12 33  1  0
 15 34  1  0
 15 35  1  0
 15 36  1  0
 17 37  1  0
 18 38  1  0
 20 39  1  0
 23 40  1  0
 23 41  1  0
 23 42  1  0
M  END
>  <ScrubInfo>  (4) 
{"isomerGroup": 0, "isomerId": 3, "confId": 0, "nr_conformers:": 1, "nr_isomers:": 16}

$$$$
_i4
     RDKit          3D

 42 44  0  0  0  0  0  0  0  0999 V2000
    4.5114   -4.0091    1.4905 O   0  0  0  0  0  0  0  0  0  0  0  0
    4.9024   -2.9998    0.6381 C   0  0  0  0  0  0  0  0  0  0  0  0
    6.1926   -2.8455    0.3297 C   0  0  0  0  0  0  0  0  0  0  0  0
    3.8452   -2.1229    0.1176 C   0  0  0  0  0  0  0  0  0  0  0  0
    2.9929   -1.4505    0.9981 C   0  0  0  0  0  0  0  0  0  0  0  0
    1.9673   -0.6287    0.5122 C   0  0  0  0  0  0  0  0  0  0  0  0
    1.7692   -0.4495   -0.8594 C   0  0  0  0  0  0  0  0  0  0  0  0
    0.7385    0.3331   -1.4070 N   0  0  0  0  0  0  0  0  0  0  0  0
   -0.3789    0.9552   -0.8293 C   0  0  0  0  0  0  0  0  0  0  0  0
   -0.7433    0.7261    0.4595 N   0  0  0  0  0  0  0  0  0  0  0  0
   -1.8315    1.3137    0.9912 C   0  0  0  0  0  0  0  0  0  0  0  0
   -2.1717    1.0676    2.3105 N   0  0  0  0  0  0  0  0  0  0  0  0
   -1.8984   -0.2530    2.8285 C   0  0  0  0  0  0  0  0  0  0  0  0
   -2.9895   -1.2466    2.5246 C   0  0  0  0  0  0  0  0  0  0  0  0
   -4.1045   -1.0892    1.7957 C   0  0  0  0  0  0  0  0  0  0  0  0
   -2.6483    2.1605    0.3511 N   0  0  0  0  0  0  0  0  0  0  0  0
   -2.2810    2.3750   -0.9199 C   0  0  0  0  0  0  0  0  0  0  0  0
   -1.1934    1.8232   -1.5674 C   0  0  0  0  0  0  0  0  0  0  0  0
   -1.2555    2.3587   -2.8711 C   0  0  0  0  0  0  0  0  0  0  0  0
   -2.2943    3.1824   -3.0484 N   0  0  0  0  0  0  0  0  0  0  0  0
   -2.8999    3.1791   -1.8377 N   0  0  0  0  0  0  0  0  0  0  0  0
   -4.0813    3.9788   -1.6335 C   0  0  0  0  0  0  0  0  0  0  0  0
    2.6256   -1.1370   -1.7348 C   0  0  0  0  0  0  0  0  0  0  0  0
    3.6522   -1.9602   -1.2562 C   0  0  0  0  0  0  0  0  0  0  0  0
    3.5386   -4.0425    1.4816 H   0  0  0  0  0  0  0  0  0  0  0  0
    6.9373   -3.5156    0.7459 H   0  0  0  0  0  0  0  0  0  0  0  0
    6.5385   -2.0524   -0.3238 H   0  0  0  0  0  0  0  0  0  0  0  0
    3.1269   -1.5450    2.0737 H   0  0  0  0  0  0  0  0  0  0  0  0
    1.3424   -0.1146    1.2361 H   0  0  0  0  0  0  0  0  0  0  0  0
    0.8537    0.5337   -2.3902 H   0  0  0  0  0  0  0  0  0  0  0  0
   -3.1122    1.4068    2.4615 H   0  0  0  0  0  0  0  0  0  0  0  0
   -0.9304   -0.6491    2.5011 H   0  0  0  0  0  0  0  0  0  0  0  0
   -1.8322   -0.1687    3.9199 H   0  0  0  0  0  0  0  0  0  0  0  0
   -2.8214   -2.2264    2.9701 H   0  0  0  0  0  0  0  0  0  0  0  0
   -4.3570   -0.1586    1.2993 H   0  0  0  0  0  0  0  0  0  0  0  0
   -4.7969   -1.9158    1.6658 H   0  0  0  0  0  0  0  0  0  0  0  0
   -0.5866    2.1855   -3.7037 H   0  0  0  0  0  0  0  0  0  0  0  0
   -3.8266    5.0239   -1.8270 H   0  0  0  0  0  0  0  0  0  0  0  0
   -4.8515    3.6378   -2.3299 H   0  0  0  0  0  0  0  0  0  0  0  0
   -4.4360    3.8687   -0.6063 H   0  0  0  0  0  0  0  0  0  0  0  0
    2.4980   -1.0466   -2.8108 H   0  0  0  0  0  0  0  0  0  0  0  0
    4.2896   -2.4822   -1.9664 H   0  0  0  0  0  0  0  0  0  0  0  0
  1  2  1  0
  2  3  2  0
  2  4  1  0
  4  5  2  0
  5  6  1  0
  6  7  2  0
  7  8  1  0
  8  9  1  0
  9 10  2  0
 10 11  1  0
 11 12  1  0
 12 13  1  0
 13 14  1  0
 14 15  2  0
 11 16  2  0
 16 17  1  0
 17 18  2  0
 18 19  1  0
 19 20  2  0
 20 21  1  0
 21 22  1  0
  7 23  1  0
 23 24  2  0
 24  4  1  0
 18  9  1  0
 21 17  1  0
  1 25  1  0
  3 26  1  0
  3 27  1  0
  5 28  1  0
  6 29  1  0
  8 30  1  0
 12 31  1  0
 13 32  1  0
 13 33  1  0
 14 34  1  0
 15 35  1  0
 15 36  1  0
 19 37  1  0
 22 38  1  0
 22 39  1  0
 22 40  1  0
 23 41  1  0
 24 42  1  0
M  END
>  <ScrubInfo>  (5) 
{"isomerGroup": 0, "isomerId": 4, "confId": 0, "nr_conformers:": 1, "nr_isomers:": 16}

$$$$
_i5
     RDKit          3D

 42 44  0  0  0  0  0  0  0  0999 V2000
   -0.6660   -2.2608    1.6058 N   0  0  0  0  0  0  0  0  0  0  0  0
    0.1972   -1.4210    0.9094 C   0  0  0  0  0  0  0  0  0  0  0  0
   -0.4336   -0.4649    0.2100 C   0  0  0  0  0  0  0  0  0  0  0  0
   -0.1142    0.6733   -0.6425 C   0  0  0  0  0  0  0  0  0  0  0  0
    1.0232    1.1149   -1.0669 N   0  0  0  0  0  0  0  0  0  0  0  0
    2.2134    0.4711   -0.7306 C   0  0  0  0  0  0  0  0  0  0  0  0
    2.9685    0.9189    0.3563 C   0  0  0  0  0  0  0  0  0  0  0  0
    4.1775    0.2984    0.6895 C   0  0  0  0  0  0  0  0  0  0  0  0
    4.6478   -0.7736   -0.0777 C   0  0  0  0  0  0  0  0  0  0  0  0
    5.9260   -1.4761    0.2380 C   0  0  0  0  0  0  0  0  0  0  0  0
    6.8570   -0.8739    1.2574 C   0  0  0  0  0  0  0  0  0  0  0  0
    6.1953   -2.5356   -0.3243 O   0  0  0  0  0  0  0  0  0  0  0  0
    3.8998   -1.2110   -1.1794 C   0  0  0  0  0  0  0  0  0  0  0  0
    2.6958   -0.5827   -1.5092 C   0  0  0  0  0  0  0  0  0  0  0  0
   -1.2099    1.3894   -1.0453 N   0  0  0  0  0  0  0  0  0  0  0  0
   -2.4307    1.0609   -0.7412 C   0  0  0  0  0  0  0  0  0  0  0  0
   -3.4091    1.8756   -1.2246 N   0  0  0  0  0  0  0  0  0  0  0  0
   -4.7342    1.9223   -0.6711 C   0  0  0  0  0  0  0  0  0  0  0  0
   -5.5104    2.9631   -1.4211 C   0  0  0  0  0  0  0  0  0  0  0  0
   -6.5045    2.7000   -2.2804 C   0  0  0  0  0  0  0  0  0  0  0  0
   -2.7959   -0.0193    0.0169 N   0  0  0  0  0  0  0  0  0  0  0  0
   -1.8536   -0.7726    0.4646 C   0  0  0  0  0  0  0  0  0  0  0  0
   -1.9609   -1.9316    1.2342 N   0  0  0  0  0  0  0  0  0  0  0  0
   -3.0369   -2.1000    2.1911 C   0  0  0  0  0  0  0  0  0  0  0  0
   -0.4143   -3.2497    1.5302 H   0  0  0  0  0  0  0  0  0  0  0  0
    1.2584   -1.6045    0.9878 H   0  0  0  0  0  0  0  0  0  0  0  0
    2.6104    1.7620    0.9426 H   0  0  0  0  0  0  0  0  0  0  0  0
    4.7273    0.6721    1.5481 H   0  0  0  0  0  0  0  0  0  0  0  0
    7.0534    0.1761    1.0249 H   0  0  0  0  0  0  0  0  0  0  0  0
    7.8139   -1.4043    1.2265 H   0  0  0  0  0  0  0  0  0  0  0  0
    6.4337   -0.9783    2.2596 H   0  0  0  0  0  0  0  0  0  0  0  0
    4.2567   -2.0352   -1.7948 H   0  0  0  0  0  0  0  0  0  0  0  0
    2.1328   -0.9119   -2.3791 H   0  0  0  0  0  0  0  0  0  0  0  0
   -3.0400    2.7340   -1.6118 H   0  0  0  0  0  0  0  0  0  0  0  0
   -5.2192    0.9426   -0.7512 H   0  0  0  0  0  0  0  0  0  0  0  0
   -4.7018    2.1964    0.3894 H   0  0  0  0  0  0  0  0  0  0  0  0
   -5.2458    3.9998   -1.2267 H   0  0  0  0  0  0  0  0  0  0  0  0
   -6.8056    1.6815   -2.5074 H   0  0  0  0  0  0  0  0  0  0  0  0
   -7.0305    3.5036   -2.7865 H   0  0  0  0  0  0  0  0  0  0  0  0
   -3.0064   -3.1044    2.6259 H   0  0  0  0  0  0  0  0  0  0  0  0
   -2.9555   -1.3677    3.0011 H   0  0  0  0  0  0  0  0  0  0  0  0
   -4.0093   -1.9768    1.7036 H   0  0  0  0  0  0  0  0  0  0  0  0
  1  2  1  0
  2  3  2  0
  3  4  1  0
  4  5  2  3
  5  6  1  0
  6  7  2  0
  7  8  1  0
  8  9  2  0
  9 10  1  0
 10 11  1  0
 10 12  2  0
  9 13  1  0
 13 14  2  0
  4 15  1  0
 15 16  2  0
 16 17  1  0
 17 18  1  0
 18 19  1  0
 19 20  2  0
 16 21  1  0
 21 22  2  0
 22 23  1  0
 23 24  1  0
 23  1  1  0
 22  3  1  0
 14  6  1  0
  1 25  1  0
  2 26  1  0
  7 27  1  0
  8 28  1  0
 11 29  1  0
 11 30  1  0
 11 31  1  0
 13 32  1  0
 14 33  1  0
 17 34  1  0
 18 35  1  0
 18 36  1  0
 19 37  1  0
 20 38  1  0
 20 39  1  0
 24 40  1  0
 24 41  1  0
 24 42  1  0
M  END
>  <ScrubInfo>  (6) 
{"isomerGroup": 0, "isomerId": 5, "confId": 0, "nr_conformers:": 1, "nr_isomers:": 16}

$$$$
_i6
     RDKit          3D

 42 44  0  0  0  0  0  0  0  0999 V2000
   -2.6927    1.0762    0.3761 N   0  0  0  0  0  0  0  0  0  0  0  0
   -2.8040   -0.2570    0.6840 C   0  0  0  0  0  0  0  0  0  0  0  0
   -4.0695   -0.6959    0.9467 N   0  0  0  0  0  0  0  0  0  0  0  0
   -5.1954   -0.4596    0.0642 C   0  0  0  0  0  0  0  0  0  0  0  0
   -5.1147   -1.4160   -1.0852 C   0  0  0  0  0  0  0  0  0  0  0  0
   -6.0023   -2.3884   -1.3345 C   0  0  0  0  0  0  0  0  0  0  0  0
   -1.8115   -1.0976    0.7632 N   0  0  0  0  0  0  0  0  0  0  0  0
   -0.5154   -0.6703    0.5018 C   0  0  0  0  0  0  0  0  0  0  0  0
    0.4019   -1.5836    0.5498 N   0  0  0  0  0  0  0  0  0  0  0  0
    1.7465   -1.3157    0.3066 C   0  0  0  0  0  0  0  0  0  0  0  0
    2.2634   -1.4016   -0.9874 C   0  0  0  0  0  0  0  0  0  0  0  0
    3.6219   -1.1708   -1.2226 C   0  0  0  0  0  0  0  0  0  0  0  0
    4.4846   -0.8701   -0.1595 C   0  0  0  0  0  0  0  0  0  0  0  0
    5.9286   -0.6338   -0.4594 C   0  0  0  0  0  0  0  0  0  0  0  0
    6.8730   -0.3475    0.6786 C   0  0  0  0  0  0  0  0  0  0  0  0
    6.3277   -0.6726   -1.6216 O   0  0  0  0  0  0  0  0  0  0  0  0
    3.9718   -0.8087    1.1417 C   0  0  0  0  0  0  0  0  0  0  0  0
    2.6104   -1.0396    1.3695 C   0  0  0  0  0  0  0  0  0  0  0  0
   -0.3436    0.7440    0.2128 C   0  0  0  0  0  0  0  0  0  0  0  0
    0.7135    1.6344   -0.0481 C   0  0  0  0  0  0  0  0  0  0  0  0
    0.2991    2.8989   -0.2280 N   0  0  0  0  0  0  0  0  0  0  0  0
   -1.0432    2.8195   -0.0894 N   0  0  0  0  0  0  0  0  0  0  0  0
   -1.8340    4.0152   -0.2319 C   0  0  0  0  0  0  0  0  0  0  0  0
   -1.4528    1.5511    0.1697 C   0  0  0  0  0  0  0  0  0  0  0  0
   -3.4928    1.6622    0.5696 H   0  0  0  0  0  0  0  0  0  0  0  0
   -4.0204   -1.6825    1.1977 H   0  0  0  0  0  0  0  0  0  0  0  0
   -6.1196   -0.6109    0.6330 H   0  0  0  0  0  0  0  0  0  0  0  0
   -5.2173    0.5700   -0.3076 H   0  0  0  0  0  0  0  0  0  0  0  0
   -4.2663   -1.2967   -1.7570 H   0  0  0  0  0  0  0  0  0  0  0  0
   -6.8653   -2.5577   -0.6979 H   0  0  0  0  0  0  0  0  0  0  0  0
   -5.8741   -3.0479   -2.1883 H   0  0  0  0  0  0  0  0  0  0  0  0
    1.6061   -1.6541   -1.8156 H   0  0  0  0  0  0  0  0  0  0  0  0
    4.0041   -1.2365   -2.2400 H   0  0  0  0  0  0  0  0  0  0  0  0
    7.8856   -0.2227    0.2822 H   0  0  0  0  0  0  0  0  0  0  0  0
    6.5890    0.5802    1.1819 H   0  0  0  0  0  0  0  0  0  0  0  0
    6.8867   -1.1853    1.3804 H   0  0  0  0  0  0  0  0  0  0  0  0
    4.6046   -0.5920    1.9969 H   0  0  0  0  0  0  0  0  0  0  0  0
    2.2169   -1.0101    2.3830 H   0  0  0  0  0  0  0  0  0  0  0  0
    1.7750    1.4400   -0.1123 H   0  0  0  0  0  0  0  0  0  0  0  0
   -2.8952    3.7589   -0.2579 H   0  0  0  0  0  0  0  0  0  0  0  0
   -1.5538    4.5086   -1.1662 H   0  0  0  0  0  0  0  0  0  0  0  0
   -1.6267    4.6659    0.6212 H   0  0  0  0  0  0  0  0  0  0  0  0
  1  2  1  0
  2  3  1  0
  3  4  1  0
  4  5  1  0
  5  6  2  0
  2  7  2  0
  7  8  1  0
  8  9  2  3
  9 10  1  0
 10 11  2  0
 11 12  1  0
 12 13  2  0
 13 14  1  0
 14 15  1  0
 14 16  2  0
 13 17  1  0
 17 18  2  0
  8 19  1  0
 19 20  1  0
 20 21  2  0
 21 22  1  0
 22 23  1  0
 22 24  1  0
 24  1  1  0
 18 10  1  0
 24 19  2  0
  1 25  1  0
  3 26  1  0
  4 27  1  0
  4 28  1  0
  5 29  1  0
  6 30  1  0
  6 31  1  0
 11 32  1  0
 12 33  1  0
 15 34  1  0
 15 35  1  0
 15 36  1  0
 17 37  1  0
 18 38  1  0
 20 39  1  0
 23 40  1  0
 23 41  1  0
 23 42  1  0
M  END
>  <ScrubInfo>  (7) 
{"isomerGroup": 0, "isomerId": 6, "confId": 0, "nr_conformers:": 1, "nr_isomers:": 16}

$$$$
_i7
     RDKit          3D

 42 44  0  0  0  0  0  0  0  0999 V2000
   -3.1542   -1.4640    2.8977 N   0  0  0  0  0  0  0  0  0  0  0  0
   -1.8029   -1.1957    2.7075 C   0  0  0  0  0  0  0  0  0  0  0  0
   -1.5021   -0.9007    1.4348 C   0  0  0  0  0  0  0  0  0  0  0  0
   -0.3255   -0.5278    0.6420 C   0  0  0  0  0  0  0  0  0  0  0  0
    0.9104   -0.4637    1.2621 N   0  0  0  0  0  0  0  0  0  0  0  0
    2.1624   -0.0706    0.7497 C   0  0  0  0  0  0  0  0  0  0  0  0
    3.2888   -0.1957    1.5830 C   0  0  0  0  0  0  0  0  0  0  0  0
    4.5737    0.1570    1.1461 C   0  0  0  0  0  0  0  0  0  0  0  0
    4.7633    0.6433   -0.1485 C   0  0  0  0  0  0  0  0  0  0  0  0
    6.1074    1.0352   -0.6683 C   0  0  0  0  0  0  0  0  0  0  0  0
    7.3095    0.8719    0.2248 C   0  0  0  0  0  0  0  0  0  0  0  0
    6.2210    1.4843   -1.8068 O   0  0  0  0  0  0  0  0  0  0  0  0
    3.6549    0.7678   -0.9900 C   0  0  0  0  0  0  0  0  0  0  0  0
    2.3737    0.4116   -0.5447 C   0  0  0  0  0  0  0  0  0  0  0  0
   -0.5256   -0.2847   -0.6200 N   0  0  0  0  0  0  0  0  0  0  0  0
   -1.7927   -0.3536   -1.1542 C   0  0  0  0  0  0  0  0  0  0  0  0
   -1.8518    0.0350   -2.3767 N   0  0  0  0  0  0  0  0  0  0  0  0
   -3.1260    0.0108   -3.0757 C   0  0  0  0  0  0  0  0  0  0  0  0
   -3.7216    1.3867   -3.0563 C   0  0  0  0  0  0  0  0  0  0  0  0
   -4.9094    1.6929   -2.5181 C   0  0  0  0  0  0  0  0  0  0  0  0
   -2.9295   -0.7825   -0.5093 N   0  0  0  0  0  0  0  0  0  0  0  0
   -2.7994   -1.0518    0.7416 C   0  0  0  0  0  0  0  0  0  0  0  0
   -3.7635   -1.4944    1.6480 N   0  0  0  0  0  0  0  0  0  0  0  0
   -5.1465   -1.0726    1.5245 C   0  0  0  0  0  0  0  0  0  0  0  0
   -3.3356   -2.2682    3.5032 H   0  0  0  0  0  0  0  0  0  0  0  0
   -1.1412   -1.2475    3.5591 H   0  0  0  0  0  0  0  0  0  0  0  0
    0.9339   -0.6877    2.2471 H   0  0  0  0  0  0  0  0  0  0  0  0
    3.1810   -0.5770    2.5962 H   0  0  0  0  0  0  0  0  0  0  0  0
    5.4023    0.0393    1.8377 H   0  0  0  0  0  0  0  0  0  0  0  0
    7.4325   -0.1767    0.5079 H   0  0  0  0  0  0  0  0  0  0  0  0
    7.2135    1.5074    1.1088 H   0  0  0  0  0  0  0  0  0  0  0  0
    8.2068    1.1816   -0.3203 H   0  0  0  0  0  0  0  0  0  0  0  0
    3.7728    1.1427   -2.0059 H   0  0  0  0  0  0  0  0  0  0  0  0
    1.5534    0.5333   -1.2470 H   0  0  0  0  0  0  0  0  0  0  0  0
   -2.9348   -0.2634   -4.1200 H   0  0  0  0  0  0  0  0  0  0  0  0
   -3.8260   -0.7460   -2.7029 H   0  0  0  0  0  0  0  0  0  0  0  0
   -3.1240    2.1715   -3.5136 H   0  0  0  0  0  0  0  0  0  0  0  0
   -5.2783    2.7130   -2.5345 H   0  0  0  0  0  0  0  0  0  0  0  0
   -5.5259    0.9360   -2.0445 H   0  0  0  0  0  0  0  0  0  0  0  0
   -5.7687   -1.5878    2.2633 H   0  0  0  0  0  0  0  0  0  0  0  0
   -5.2396    0.0069    1.6827 H   0  0  0  0  0  0  0  0  0  0  0  0
   -5.5364   -1.3162    0.5309 H   0  0  0  0  0  0  0  0  0  0  0  0
  1  2  1  0
  2  3  2  0
  3  4  1  0
  4  5  1  0
  5  6  1  0
  6  7  2  0
  7  8  1  0
  8  9  2  0
  9 10  1  0
 10 11  1  0
 10 12  2  0
  9 13  1  0
 13 14  2  0
  4 15  2  0
 15 16  1  0
 16 17  2  3
 17 18  1  0
 18 19  1  0
 19 20  2  0
 16 21  1  0
 21 22  2  0
 22 23  1  0
 23 24  1  0
 23  1  1  0
 22  3  1  0
 14  6  1  0
  1 25  1  0
  2 26  1  0
  5 27  1  0
  7 28  1  0
  8 29  1  0
 11 30  1  0
 11 31  1  0
 11 32  1  0
 13 33  1  0
 14 34  1  0
 18 35  1  0
 18 36  1  0
 19 37  1  0
 20 38  1  0
 20 39  1  0
 24 40  1  0
 24 41  1  0
 24 42  1  0
M  END
>  <ScrubInfo>  (8) 
{"isomerGroup": 0, "isomerId": 7, "confId": 0, "nr_conformers:": 1, "nr_isomers:": 16}

$$$$
_i8
     RDKit          3D

 42 44  0  0  0  0  0  0  0  0999 V2000
    4.2325   -3.6089    1.9370 O   0  0  0  0  0  0  0  0  0  0  0  0
    4.6487   -2.7681    0.9286 C   0  0  0  0  0  0  0  0  0  0  0  0
    5.9373   -2.7287    0.5799 C   0  0  0  0  0  0  0  0  0  0  0  0
    3.6228   -1.9307    0.2928 C   0  0  0  0  0  0  0  0  0  0  0  0
    2.8244   -1.0858    1.0706 C   0  0  0  0  0  0  0  0  0  0  0  0
    1.8359   -0.2916    0.4763 C   0  0  0  0  0  0  0  0  0  0  0  0
    1.6260   -0.3168   -0.9072 C   0  0  0  0  0  0  0  0  0  0  0  0
    0.6179    0.4229   -1.5560 N   0  0  0  0  0  0  0  0  0  0  0  0
   -0.5058    1.0176   -1.0113 C   0  0  0  0  0  0  0  0  0  0  0  0
   -1.1597    0.4937    0.0912 N   0  0  0  0  0  0  0  0  0  0  0  0
   -2.3076    1.0082    0.6518 C   0  0  0  0  0  0  0  0  0  0  0  0
   -2.9599    0.5276    1.6471 N   0  0  0  0  0  0  0  0  0  0  0  0
   -2.4882   -0.6509    2.3522 C   0  0  0  0  0  0  0  0  0  0  0  0
   -3.0778   -1.8831    1.7355 C   0  0  0  0  0  0  0  0  0  0  0  0
   -3.8235   -2.7771    2.3986 C   0  0  0  0  0  0  0  0  0  0  0  0
   -2.8769    2.1514    0.1331 N   0  0  0  0  0  0  0  0  0  0  0  0
   -2.2937    2.6443   -0.9038 C   0  0  0  0  0  0  0  0  0  0  0  0
   -1.0708    2.1098   -1.5388 C   0  0  0  0  0  0  0  0  0  0  0  0
   -0.8135    3.0520   -2.6337 C   0  0  0  0  0  0  0  0  0  0  0  0
   -1.6926    4.0190   -2.6984 N   0  0  0  0  0  0  0  0  0  0  0  0
   -2.6160    3.7483   -1.6761 N   0  0  0  0  0  0  0  0  0  0  0  0
   -3.5588    4.7691   -1.2880 C   0  0  0  0  0  0  0  0  0  0  0  0
    2.4248   -1.1731   -1.6785 C   0  0  0  0  0  0  0  0  0  0  0  0
    3.4133   -1.9691   -1.0886 C   0  0  0  0  0  0  0  0  0  0  0  0
    3.2596   -3.6129    1.9417 H   0  0  0  0  0  0  0  0  0  0  0  0
    6.6590   -3.3616    1.0858 H   0  0  0  0  0  0  0  0  0  0  0  0
    6.3065   -2.0676   -0.1961 H   0  0  0  0  0  0  0  0  0  0  0  0
    2.9821   -1.0204    2.1459 H   0  0  0  0  0  0  0  0  0  0  0  0
    1.2678    0.3794    1.1156 H   0  0  0  0  0  0  0  0  0  0  0  0
    0.9058    0.7661   -2.4673 H   0  0  0  0  0  0  0  0  0  0  0  0
   -0.8518   -0.4246    0.3694 H   0  0  0  0  0  0  0  0  0  0  0  0
   -1.3951   -0.7260    2.3698 H   0  0  0  0  0  0  0  0  0  0  0  0
   -2.7923   -0.5619    3.4018 H   0  0  0  0  0  0  0  0  0  0  0  0
   -2.8945   -2.0432    0.6765 H   0  0  0  0  0  0  0  0  0  0  0  0
   -4.0543   -2.6559    3.4525 H   0  0  0  0  0  0  0  0  0  0  0  0
   -4.2362   -3.6429    1.8905 H   0  0  0  0  0  0  0  0  0  0  0  0
    0.0553    2.9337   -3.2933 H   0  0  0  0  0  0  0  0  0  0  0  0
   -3.1070    5.4457   -0.5561 H   0  0  0  0  0  0  0  0  0  0  0  0
   -3.8726    5.3578   -2.1562 H   0  0  0  0  0  0  0  0  0  0  0  0
   -4.4558    4.3245   -0.8451 H   0  0  0  0  0  0  0  0  0  0  0  0
    2.2752   -1.2420   -2.7537 H   0  0  0  0  0  0  0  0  0  0  0  0
    4.0094   -2.6282   -1.7164 H   0  0  0  0  0  0  0  0  0  0  0  0
  1  2  1  0
  2  3  2  0
  2  4  1  0
  4  5  2  0
  5  6  1  0
  6  7  2  0
  7  8  1  0
  8  9  1  0
  9 10  1  0
 10 11  1  0
 11 12  2  3
 12 13  1  0
 13 14  1  0
 14 15  2  0
 11 16  1  0
 16 17  2  0
 17 18  1  0
 18 19  1  0
 19 20  2  0
 20 21  1  0
 21 22  1  0
  7 23  1  0
 23 24  2  0
 24  4  1  0
 18  9  2  0
 21 17  1  0
  1 25  1  0
  3 26  1  0
  3 27  1  0
  5 28  1  0
  6 29  1  0
  8 30  1  0
 10 31  1  0
 13 32  1  0
 13 33  1  0
 14 34  1  0
 15 35  1  0
 15 36  1  0
 19 37  1  0
 22 38  1  0
 22 39  1  0
 22 40  1  0
 23 41  1  0
 24 42  1  0
M  END
>  <ScrubInfo>  (9) 
{"isomerGroup": 0, "isomerId": 8, "confId": 0, "nr_conformers:": 1, "nr_isomers:": 16}

$$$$
_i9
     RDKit          3D

 42 44  0  0  0  0  0  0  0  0999 V2000
   -0.5517   -2.6707    0.3768 N   0  0  0  0  0  0  0  0  0  0  0  0
    0.2733   -1.5744    0.1530 C   0  0  0  0  0  0  0  0  0  0  0  0
   -0.3957   -0.4507   -0.1420 C   0  0  0  0  0  0  0  0  0  0  0  0
   -0.1469    0.9755   -0.4325 C   0  0  0  0  0  0  0  0  0  0  0  0
    0.9838    1.6111   -0.5286 N   0  0  0  0  0  0  0  0  0  0  0  0
    2.1994    0.9468   -0.3588 C   0  0  0  0  0  0  0  0  0  0  0  0
    2.8218    0.9326    0.8919 C   0  0  0  0  0  0  0  0  0  0  0  0
    4.0541    0.2937    1.0685 C   0  0  0  0  0  0  0  0  0  0  0  0
    4.6818   -0.3276   -0.0173 C   0  0  0  0  0  0  0  0  0  0  0  0
    5.9920   -1.0298    0.1164 C   0  0  0  0  0  0  0  0  0  0  0  0
    6.7686   -0.8882    1.3991 C   0  0  0  0  0  0  0  0  0  0  0  0
    6.4122   -1.7189   -0.8108 O   0  0  0  0  0  0  0  0  0  0  0  0
    4.0660   -0.2973   -1.2761 C   0  0  0  0  0  0  0  0  0  0  0  0
    2.8372    0.3467   -1.4460 C   0  0  0  0  0  0  0  0  0  0  0  0
   -1.3091    1.6755   -0.6096 N   0  0  0  0  0  0  0  0  0  0  0  0
   -2.5870    1.1962   -0.5511 C   0  0  0  0  0  0  0  0  0  0  0  0
   -3.5624    2.0272   -0.7191 N   0  0  0  0  0  0  0  0  0  0  0  0
   -4.9129    1.4799   -0.6489 C   0  0  0  0  0  0  0  0  0  0  0  0
   -5.8706    2.6129   -0.8711 C   0  0  0  0  0  0  0  0  0  0  0  0
   -6.8015    3.0098    0.0068 C   0  0  0  0  0  0  0  0  0  0  0  0
   -2.8456   -0.1394   -0.3255 N   0  0  0  0  0  0  0  0  0  0  0  0
   -1.8268   -0.9222   -0.1487 C   0  0  0  0  0  0  0  0  0  0  0  0
   -1.8534   -2.3011    0.0722 N   0  0  0  0  0  0  0  0  0  0  0  0
   -2.9516   -2.9257    0.7847 C   0  0  0  0  0  0  0  0  0  0  0  0
   -0.2127   -3.5304   -0.0622 H   0  0  0  0  0  0  0  0  0  0  0  0
    1.3405   -1.7175    0.2337 H   0  0  0  0  0  0  0  0  0  0  0  0
    2.3416    1.4266    1.7334 H   0  0  0  0  0  0  0  0  0  0  0  0
    4.4976    0.2975    2.0598 H   0  0  0  0  0  0  0  0  0  0  0  0
    6.8949    0.1667    1.6563 H   0  0  0  0  0  0  0  0  0  0  0  0
    7.7660   -1.3183    1.2638 H   0  0  0  0  0  0  0  0  0  0  0  0
    6.2645   -1.4282    2.2046 H   0  0  0  0  0  0  0  0  0  0  0  0
    4.5452   -0.7656   -2.1344 H   0  0  0  0  0  0  0  0  0  0  0  0
    2.3769    0.3829   -2.4301 H   0  0  0  0  0  0  0  0  0  0  0  0
   -1.2267    2.6644   -0.7929 H   0  0  0  0  0  0  0  0  0  0  0  0
   -5.0765    0.7351   -1.4370 H   0  0  0  0  0  0  0  0  0  0  0  0
   -5.0976    1.0113    0.3256 H   0  0  0  0  0  0  0  0  0  0  0  0
   -5.7804    3.1350   -1.8205 H   0  0  0  0  0  0  0  0  0  0  0  0
   -6.9201    2.5217    0.9686 H   0  0  0  0  0  0  0  0  0  0  0  0
   -7.4578    3.8433   -0.2213 H   0  0  0  0  0  0  0  0  0  0  0  0
   -2.8411   -4.0150    0.7754 H   0  0  0  0  0  0  0  0  0  0  0  0
   -2.9817   -2.5879    1.8258 H   0  0  0  0  0  0  0  0  0  0  0  0
   -3.9076   -2.6835    0.3094 H   0  0  0  0  0  0  0  0  0  0  0  0
  1  2  1  0
  2  3  2  0
  3  4  1  0
  4  5  2  3
  5  6  1  0
  6  7  2  0
  7  8  1  0
  8  9  2  0
  9 10  1  0
 10 11  1  0
 10 12  2  0
  9 13  1  0
 13 14  2  0
  4 15  1  0
 15 16  1  0
 16 17  2  3
 17 18  1  0
 18 19  1  0
 19 20  2  0
 16 21  1  0
 21 22  2  0
 22 23  1  0
 23 24  1  0
 23  1  1  0
 22  3  1  0
 14  6  1  0
  1 25  1  0
  2 26  1  0
  7 27  1  0
  8 28  1  0
 11 29  1  0
 11 30  1  0
 11 31  1  0
 13 32  1  0
 14 33  1  0
 15 34  1  0
 18 35  1  0
 18 36  1  0
 19 37  1  0
 20 38  1  0
 20 39  1  0
 24 40  1  0
 24 41  1  0
 24 42  1  0
M  END
>  <ScrubInfo>  (10) 
{"isomerGroup": 0, "isomerId": 9, "confId": 0, "nr_conformers:": 1, "nr_isomers:": 16}

$$$$
_i10
     RDKit          3D

 42 44  0  0  0  0  0  0  0  0999 V2000
    2.6903   -1.1625   -0.7726 N   0  0  0  0  0  0  0  0  0  0  0  0
    3.0073   -0.0955    0.0434 C   0  0  0  0  0  0  0  0  0  0  0  0
    4.2540    0.1890    0.2124 N   0  0  0  0  0  0  0  0  0  0  0  0
    4.5927    1.3161    1.0691 C   0  0  0  0  0  0  0  0  0  0  0  0
    6.0842    1.4398    1.0947 C   0  0  0  0  0  0  0  0  0  0  0  0
    6.7676    2.5249    0.7070 C   0  0  0  0  0  0  0  0  0  0  0  0
    1.8967    0.5312    0.5774 N   0  0  0  0  0  0  0  0  0  0  0  0
    0.5477    0.2719    0.4281 C   0  0  0  0  0  0  0  0  0  0  0  0
   -0.3365    1.0106    1.0295 N   0  0  0  0  0  0  0  0  0  0  0  0
   -1.7071    0.7859    0.9061 C   0  0  0  0  0  0  0  0  0  0  0  0
   -2.3739   -0.0282    1.8231 C   0  0  0  0  0  0  0  0  0  0  0  0
   -3.7549   -0.2209    1.7232 C   0  0  0  0  0  0  0  0  0  0  0  0
   -4.4886    0.4140    0.7116 C   0  0  0  0  0  0  0  0  0  0  0  0
   -5.9622    0.1788    0.6466 C   0  0  0  0  0  0  0  0  0  0  0  0
   -6.7593    0.8385   -0.4480 C   0  0  0  0  0  0  0  0  0  0  0  0
   -6.5042   -0.5442    1.4801 O   0  0  0  0  0  0  0  0  0  0  0  0
   -3.8240    1.2495   -0.1939 C   0  0  0  0  0  0  0  0  0  0  0  0
   -2.4412    1.4382   -0.0880 C   0  0  0  0  0  0  0  0  0  0  0  0
    0.3228   -0.8673   -0.4448 C   0  0  0  0  0  0  0  0  0  0  0  0
   -0.7769   -1.5812   -0.9554 C   0  0  0  0  0  0  0  0  0  0  0  0
   -0.4157   -2.5889   -1.7637 N   0  0  0  0  0  0  0  0  0  0  0  0
    0.9347   -2.5359   -1.7615 N   0  0  0  0  0  0  0  0  0  0  0  0
    1.6787   -3.4944   -2.5392 C   0  0  0  0  0  0  0  0  0  0  0  0
    1.4073   -1.5177   -0.9927 C   0  0  0  0  0  0  0  0  0  0  0  0
    3.4947   -1.6300   -1.1749 H   0  0  0  0  0  0  0  0  0  0  0  0
    4.1365    2.2402    0.6945 H   0  0  0  0  0  0  0  0  0  0  0  0
    4.2423    1.1432    2.0934 H   0  0  0  0  0  0  0  0  0  0  0  0
    6.6315    0.5715    1.4542 H   0  0  0  0  0  0  0  0  0  0  0  0
    7.8522    2.5393    0.7482 H   0  0  0  0  0  0  0  0  0  0  0  0
    6.2670    3.4118    0.3322 H   0  0  0  0  0  0  0  0  0  0  0  0
    2.0654    1.3185    1.1833 H   0  0  0  0  0  0  0  0  0  0  0  0
   -1.8177   -0.5139    2.6207 H   0  0  0  0  0  0  0  0  0  0  0  0
   -4.2556   -0.8651    2.4443 H   0  0  0  0  0  0  0  0  0  0  0  0
   -7.8082    0.5384   -0.3593 H   0  0  0  0  0  0  0  0  0  0  0  0
   -6.7081    1.9260   -0.3507 H   0  0  0  0  0  0  0  0  0  0  0  0
   -6.3981    0.5158   -1.4279 H   0  0  0  0  0  0  0  0  0  0  0  0
   -4.3537    1.7716   -0.9850 H   0  0  0  0  0  0  0  0  0  0  0  0
   -1.9309    2.0998   -0.7839 H   0  0  0  0  0  0  0  0  0  0  0  0
   -1.8336   -1.4260   -0.7888 H   0  0  0  0  0  0  0  0  0  0  0  0
    1.7229   -3.1346   -3.5699 H   0  0  0  0  0  0  0  0  0  0  0  0
    2.6855   -3.5980   -2.1288 H   0  0  0  0  0  0  0  0  0  0  0  0
    1.1684   -4.4602   -2.4941 H   0  0  0  0  0  0  0  0  0  0  0  0
  1  2  1  0
  2  3  2  3
  3  4  1  0
  4  5  1  0
  5  6  2  0
  2  7  1  0
  7  8  1  0
  8  9  2  3
  9 10  1  0
 10 11  2  0
 11 12  1  0
 12 13  2  0
 13 14  1  0
 14 15  1  0
 14 16  2  0
 13 17  1  0
 17 18  2  0
  8 19  1  0
 19 20  1  0
 20 21  2  0
 21 22  1  0
 22 23  1  0
 22 24  1  0
 24  1  1  0
 18 10  1  0
 24 19  2  0
  1 25  1  0
  4 26  1  0
  4 27  1  0
  5 28  1  0
  6 29  1  0
  6 30  1  0
  7 31  1  0
 11 32  1  0
 12 33  1  0
 15 34  1  0
 15 35  1  0
 15 36  1  0
 17 37  1  0
 18 38  1  0
 20 39  1  0
 23 40  1  0
 23 41  1  0
 23 42  1  0
M  END
>  <ScrubInfo>  (11) 
{"isomerGroup": 0, "isomerId": 10, "confId": 0, "nr_conformers:": 1, "nr_isomers:": 16}

$$$$
_i11
     RDKit          3D

 42 44  0  0  0  0  0  0  0  0999 V2000
    5.8702   -2.1355   -1.5595 O   0  0  0  0  0  0  0  0  0  0  0  0
    4.9347   -2.2711   -0.5577 C   0  0  0  0  0  0  0  0  0  0  0  0
    4.9414   -3.3564    0.2204 C   0  0  0  0  0  0  0  0  0  0  0  0
    3.9509   -1.1890   -0.4152 C   0  0  0  0  0  0  0  0  0  0  0  0
    3.1836   -0.7912   -1.5184 C   0  0  0  0  0  0  0  0  0  0  0  0
    2.2565    0.2477   -1.3981 C   0  0  0  0  0  0  0  0  0  0  0  0
    2.0777    0.8964   -0.1747 C   0  0  0  0  0  0  0  0  0  0  0  0
    1.1415    1.9286   -0.0514 N   0  0  0  0  0  0  0  0  0  0  0  0
   -0.0698    1.6057    0.2590 C   0  0  0  0  0  0  0  0  0  0  0  0
   -0.6525    0.3826    0.5160 N   0  0  0  0  0  0  0  0  0  0  0  0
   -1.9602    0.1507    0.8774 C   0  0  0  0  0  0  0  0  0  0  0  0
   -2.3041   -1.1522    1.1019 N   0  0  0  0  0  0  0  0  0  0  0  0
   -1.9821   -2.2423    0.2026 C   0  0  0  0  0  0  0  0  0  0  0  0
   -2.9188   -2.1914   -0.9644 C   0  0  0  0  0  0  0  0  0  0  0  0
   -3.8406   -3.1226   -1.2452 C   0  0  0  0  0  0  0  0  0  0  0  0
   -2.8611    1.0908    1.0323 N   0  0  0  0  0  0  0  0  0  0  0  0
   -2.3464    2.3244    0.7650 C   0  0  0  0  0  0  0  0  0  0  0  0
   -1.0556    2.6466    0.3941 C   0  0  0  0  0  0  0  0  0  0  0  0
   -1.0495    4.0395    0.2420 C   0  0  0  0  0  0  0  0  0  0  0  0
   -2.2493    4.5813    0.4914 N   0  0  0  0  0  0  0  0  0  0  0  0
   -3.0215    3.5125    0.8122 N   0  0  0  0  0  0  0  0  0  0  0  0
   -4.4062    3.7191    1.1532 C   0  0  0  0  0  0  0  0  0  0  0  0
    2.8539    0.5161    0.9215 C   0  0  0  0  0  0  0  0  0  0  0  0
    3.7816   -0.5232    0.8053 C   0  0  0  0  0  0  0  0  0  0  0  0
    5.8270   -1.2196   -1.8869 H   0  0  0  0  0  0  0  0  0  0  0  0
    5.6869   -4.1305    0.0693 H   0  0  0  0  0  0  0  0  0  0  0  0
    4.2144   -3.5078    1.0101 H   0  0  0  0  0  0  0  0  0  0  0  0
    3.2982   -1.2927   -2.4775 H   0  0  0  0  0  0  0  0  0  0  0  0
    1.6717    0.5554   -2.2613 H   0  0  0  0  0  0  0  0  0  0  0  0
   -0.0189   -0.3948    0.5911 H   0  0  0  0  0  0  0  0  0  0  0  0
   -3.2844   -1.1913    1.3747 H   0  0  0  0  0  0  0  0  0  0  0  0
   -0.9458   -2.1964   -0.1472 H   0  0  0  0  0  0  0  0  0  0  0  0
   -2.0898   -3.1862    0.7487 H   0  0  0  0  0  0  0  0  0  0  0  0
   -2.8267   -1.3308   -1.6246 H   0  0  0  0  0  0  0  0  0  0  0  0
   -3.9786   -4.0022   -0.6238 H   0  0  0  0  0  0  0  0  0  0  0  0
   -4.4867   -3.0174   -2.1122 H   0  0  0  0  0  0  0  0  0  0  0  0
   -0.2254    4.6822   -0.0390 H   0  0  0  0  0  0  0  0  0  0  0  0
   -4.4512    4.3800    2.0225 H   0  0  0  0  0  0  0  0  0  0  0  0
   -4.9058    4.1796    0.2971 H   0  0  0  0  0  0  0  0  0  0  0  0
   -4.8818    2.7648    1.3896 H   0  0  0  0  0  0  0  0  0  0  0  0
    2.7401    1.0372    1.8689 H   0  0  0  0  0  0  0  0  0  0  0  0
    4.3826   -0.7967    1.6702 H   0  0  0  0  0  0  0  0  0  0  0  0
  1  2  1  0
  2  3  2  0
  2  4  1  0
  4  5  2  0
  5  6  1  0
  6  7  2  0
  7  8  1  0
  8  9  2  3
  9 10  1  0
 10 11  1  0
 11 12  1  0
 12 13  1  0
 13 14  1  0
 14 15  2  0
 11 16  2  0
 16 17  1  0
 17 18  2  0
 18 19  1  0
 19 20  2  0
 20 21  1  0
 21 22  1  0
  7 23  1  0
 23 24  2  0
 24  4  1  0
 18  9  1  0
 21 17  1  0
  1 25  1  0
  3 26  1  0
  3 27  1  0
  5 28  1  0
  6 29  1  0
 10 30  1  0
 12 31  1  0
 13 32  1  0
 13 33  1  0
 14 34  1  0
 15 35  1  0
 15 36  1  0
 19 37  1  0
 22 38  1  0
 22 39  1  0
 22 40  1  0
 23 41  1  0
 24 42  1  0
M  END
>  <ScrubInfo>  (12) 
{"isomerGroup": 0, "isomerId": 11, "confId": 0, "nr_conformers:": 1, "nr_isomers:": 16}

$$$$
_i12
     RDKit          3D

 42 44  0  0  0  0  0  0  0  0999 V2000
    6.1725   -0.0715    0.5927 O   0  0  0  0  0  0  0  0  0  0  0  0
    5.6546   -1.1325   -0.1193 C   0  0  0  0  0  0  0  0  0  0  0  0
    6.4280   -2.1509   -0.5173 C   0  0  0  0  0  0  0  0  0  0  0  0
    4.2012   -1.0621   -0.3698 C   0  0  0  0  0  0  0  0  0  0  0  0
    3.3546   -0.4700    0.5773 C   0  0  0  0  0  0  0  0  0  0  0  0
    1.9735   -0.3804    0.3613 C   0  0  0  0  0  0  0  0  0  0  0  0
    1.4039   -0.8674   -0.8186 C   0  0  0  0  0  0  0  0  0  0  0  0
    0.0126   -0.8243   -1.0937 N   0  0  0  0  0  0  0  0  0  0  0  0
   -0.8979   -0.0991   -0.3685 C   0  0  0  0  0  0  0  0  0  0  0  0
   -1.8977   -0.6505    0.2632 N   0  0  0  0  0  0  0  0  0  0  0  0
   -2.7933    0.1571    0.9481 C   0  0  0  0  0  0  0  0  0  0  0  0
   -3.7934   -0.3551    1.5842 N   0  0  0  0  0  0  0  0  0  0  0  0
   -3.9747   -1.8024    1.5897 C   0  0  0  0  0  0  0  0  0  0  0  0
   -5.1208   -2.2362    0.7169 C   0  0  0  0  0  0  0  0  0  0  0  0
   -5.8876   -1.4601   -0.0620 C   0  0  0  0  0  0  0  0  0  0  0  0
   -2.6571    1.5296    0.9722 N   0  0  0  0  0  0  0  0  0  0  0  0
   -1.6489    2.0929    0.2913 C   0  0  0  0  0  0  0  0  0  0  0  0
   -0.7424    1.3378   -0.3992 C   0  0  0  0  0  0  0  0  0  0  0  0
    0.1140    2.2813   -0.9867 C   0  0  0  0  0  0  0  0  0  0  0  0
   -0.2254    3.5426   -0.6728 N   0  0  0  0  0  0  0  0  0  0  0  0
   -1.3174    3.3979    0.1185 N   0  0  0  0  0  0  0  0  0  0  0  0
   -1.9646    4.5724    0.6442 C   0  0  0  0  0  0  0  0  0  0  0  0
    2.2462   -1.4600   -1.7676 C   0  0  0  0  0  0  0  0  0  0  0  0
    3.6267   -1.5494   -1.5508 C   0  0  0  0  0  0  0  0  0  0  0  0
    7.1299   -0.2034    0.6890 H   0  0  0  0  0  0  0  0  0  0  0  0
    6.0225   -3.0052   -1.0497 H   0  0  0  0  0  0  0  0  0  0  0  0
    7.4912   -2.1774   -0.3074 H   0  0  0  0  0  0  0  0  0  0  0  0
    3.7679   -0.0749    1.5037 H   0  0  0  0  0  0  0  0  0  0  0  0
    1.3625    0.0684    1.1403 H   0  0  0  0  0  0  0  0  0  0  0  0
   -0.3123   -1.7863   -1.1677 H   0  0  0  0  0  0  0  0  0  0  0  0
   -4.2047   -2.1019    2.6192 H   0  0  0  0  0  0  0  0  0  0  0  0
   -3.0790   -2.3692    1.3136 H   0  0  0  0  0  0  0  0  0  0  0  0
   -5.3294   -3.3036    0.7380 H   0  0  0  0  0  0  0  0  0  0  0  0
   -6.6919   -1.8857   -0.6523 H   0  0  0  0  0  0  0  0  0  0  0  0
   -5.7310   -0.3883   -0.1247 H   0  0  0  0  0  0  0  0  0  0  0  0
   -3.3806    2.0165    1.4840 H   0  0  0  0  0  0  0  0  0  0  0  0
    0.9700    2.1135   -1.6279 H   0  0  0  0  0  0  0  0  0  0  0  0
   -1.2284    5.1481    1.2109 H   0  0  0  0  0  0  0  0  0  0  0  0
   -2.3458    5.1595   -0.1950 H   0  0  0  0  0  0  0  0  0  0  0  0
   -2.7887    4.2820    1.2992 H   0  0  0  0  0  0  0  0  0  0  0  0
    1.8346   -1.8415   -2.6994 H   0  0  0  0  0  0  0  0  0  0  0  0
    4.2467   -1.9903   -2.3273 H   0  0  0  0  0  0  0  0  0  0  0  0
  1  2  1  0
  2  3  2  0
  2  4  1  0
  4  5  2  0
  5  6  1  0
  6  7  2  0
  7  8  1  0
  8  9  1  0
  9 10  2  0
 10 11  1  0
 11 12  2  3
 12 13  1  0
 13 14  1  0
 14 15  2  0
 11 16  1  0
 16 17  1  0
 17 18  2  0
 18 19  1  0
 19 20  2  0
 20 21  1  0
 21 22  1  0
  7 23  1  0
 23 24  2  0
 24  4  1  0
 18  9  1  0
 21 17  1  0
  1 25  1  0
  3 26  1  0
  3 27  1  0
  5 28  1  0
  6 29  1  0
  8 30  1  0
 13 31  1  0
 13 32  1  0
 14 33  1  0
 15 34  1  0
 15 35  1  0
 16 36  1  0
 19 37  1  0
 22 38  1  0
 22 39  1  0
 22 40  1  0
 23 41  1  0
 24 42  1  0
M  END
>  <ScrubInfo>  (13) 
{"isomerGroup": 0, "isomerId": 12, "confId": 0, "nr_conformers:": 1, "nr_isomers:": 16}

$$$$
_i13
     RDKit          3D

 42 44  0  0  0  0  0  0  0  0999 V2000
   -2.5232   -1.1778   -0.3122 N   0  0  0  0  0  0  0  0  0  0  0  0
   -2.5896   -0.4508    0.8499 C   0  0  0  0  0  0  0  0  0  0  0  0
   -3.8234   -0.4109    1.4330 N   0  0  0  0  0  0  0  0  0  0  0  0
   -4.9610    0.1269    0.7109 C   0  0  0  0  0  0  0  0  0  0  0  0
   -6.1500    0.0093    1.6128 C   0  0  0  0  0  0  0  0  0  0  0  0
   -6.8367    1.0476    2.1089 C   0  0  0  0  0  0  0  0  0  0  0  0
   -1.5913    0.1606    1.4192 N   0  0  0  0  0  0  0  0  0  0  0  0
   -0.3299    0.1209    0.8347 C   0  0  0  0  0  0  0  0  0  0  0  0
    0.5906    0.8085    1.4323 N   0  0  0  0  0  0  0  0  0  0  0  0
    1.9016    0.8721    0.9642 C   0  0  0  0  0  0  0  0  0  0  0  0
    2.2822    1.8648    0.0599 C   0  0  0  0  0  0  0  0  0  0  0  0
    3.6049    1.9464   -0.3898 C   0  0  0  0  0  0  0  0  0  0  0  0
    4.5783    1.0501    0.0767 C   0  0  0  0  0  0  0  0  0  0  0  0
    5.9773    1.1063   -0.3908 C   0  0  0  0  0  0  0  0  0  0  0  0
    6.6269    2.2490   -0.6471 C   0  0  0  0  0  0  0  0  0  0  0  0
    6.5947   -0.1193   -0.5217 O   0  0  0  0  0  0  0  0  0  0  0  0
    4.1879    0.0667    0.9980 C   0  0  0  0  0  0  0  0  0  0  0  0
    2.8656   -0.0129    1.4475 C   0  0  0  0  0  0  0  0  0  0  0  0
   -0.1976   -0.6828   -0.3707 C   0  0  0  0  0  0  0  0  0  0  0  0
    0.8233   -1.0771   -1.2554 C   0  0  0  0  0  0  0  0  0  0  0  0
    0.3805   -1.8773   -2.2394 N   0  0  0  0  0  0  0  0  0  0  0  0
   -0.9400   -2.0031   -1.9814 N   0  0  0  0  0  0  0  0  0  0  0  0
   -1.7494   -2.8138   -2.8547 C   0  0  0  0  0  0  0  0  0  0  0  0
   -1.3127   -1.2984   -0.8826 C   0  0  0  0  0  0  0  0  0  0  0  0
   -3.3044   -1.7873   -0.5135 H   0  0  0  0  0  0  0  0  0  0  0  0
   -3.7240    0.0863    2.3180 H   0  0  0  0  0  0  0  0  0  0  0  0
   -5.1539   -0.4419   -0.2050 H   0  0  0  0  0  0  0  0  0  0  0  0
   -4.7710    1.1692    0.4302 H   0  0  0  0  0  0  0  0  0  0  0  0
   -6.4644   -1.0002    1.8691 H   0  0  0  0  0  0  0  0  0  0  0  0
   -7.6909    0.8872    2.7604 H   0  0  0  0  0  0  0  0  0  0  0  0
   -6.5636    2.0751    1.8874 H   0  0  0  0  0  0  0  0  0  0  0  0
    1.5436    2.5763   -0.2992 H   0  0  0  0  0  0  0  0  0  0  0  0
    3.8599    2.7145   -1.1152 H   0  0  0  0  0  0  0  0  0  0  0  0
    6.1552    3.2174   -0.5138 H   0  0  0  0  0  0  0  0  0  0  0  0
    7.6589    2.2588   -0.9787 H   0  0  0  0  0  0  0  0  0  0  0  0
    7.4993    0.0259   -0.8435 H   0  0  0  0  0  0  0  0  0  0  0  0
    4.9185   -0.6427    1.3809 H   0  0  0  0  0  0  0  0  0  0  0  0
    2.5868   -0.7691    2.1761 H   0  0  0  0  0  0  0  0  0  0  0  0
    1.8770   -0.8328   -1.2406 H   0  0  0  0  0  0  0  0  0  0  0  0
   -1.4547   -3.8578   -2.7231 H   0  0  0  0  0  0  0  0  0  0  0  0
   -2.8054   -2.6893   -2.6062 H   0  0  0  0  0  0  0  0  0  0  0  0
   -1.5760   -2.4946   -3.8857 H   0  0  0  0  0  0  0  0  0  0  0  0
  1  2  1  0
  2  3  1  0
  3  4  1  0
  4  5  1  0
  5  6  2  0
  2  7  2  0
  7  8  1  0
  8  9  2  3
  9 10  1  0
 10 11  2  0
 11 12  1  0
 12 13  2  0
 13 14  1  0
 14 15  2  0
 14 16  1  0
 13 17  1  0
 17 18  2  0
  8 19  1  0
 19 20  1  0
 20 21  2  0
 21 22  1  0
 22 23  1  0
 22 24  1  0
 24  1  1  0
 18 10  1  0
 24 19  2  0
  1 25  1  0
  3 26  1  0
  4 27  1  0
  4 28  1  0
  5 29  1  0
  6 30  1  0
  6 31  1  0
 11 32  1  0
 12 33  1  0
 15 34  1  0
 15 35  1  0
 16 36  1  0
 17 37  1  0
 18 38  1  0
 20 39  1  0
 23 40  1  0
 23 41  1  0
 23 42  1  0
M  END
>  <ScrubInfo>  (14) 
{"isomerGroup": 0, "isomerId": 13, "confId": 0, "nr_conformers:": 1, "nr_isomers:": 16}

$$$$
_i14
     RDKit          3D

 42 44  0  0  0  0  0  0  0  0999 V2000
   -2.9933   -4.2633    0.2911 N   0  0  0  0  0  0  0  0  0  0  0  0
   -1.7882   -3.7750    0.7866 C   0  0  0  0  0  0  0  0  0  0  0  0
   -1.4601   -2.5834    0.2713 C   0  0  0  0  0  0  0  0  0  0  0  0
   -0.4011   -1.6136    0.4228 C   0  0  0  0  0  0  0  0  0  0  0  0
    0.6133   -1.8130    1.2055 N   0  0  0  0  0  0  0  0  0  0  0  0
    1.5942   -0.8162    1.2959 C   0  0  0  0  0  0  0  0  0  0  0  0
    1.5663    0.0987    2.3503 C   0  0  0  0  0  0  0  0  0  0  0  0
    2.5551    1.0804    2.4643 C   0  0  0  0  0  0  0  0  0  0  0  0
    3.5956    1.1507    1.5284 C   0  0  0  0  0  0  0  0  0  0  0  0
    4.6189    2.1986    1.6457 C   0  0  0  0  0  0  0  0  0  0  0  0
    5.9249    1.9331    1.7312 C   0  0  0  0  0  0  0  0  0  0  0  0
    4.1741    3.5021    1.6799 O   0  0  0  0  0  0  0  0  0  0  0  0
    3.6310    0.2222    0.4808 C   0  0  0  0  0  0  0  0  0  0  0  0
    2.6396   -0.7577    0.3711 C   0  0  0  0  0  0  0  0  0  0  0  0
   -0.5698   -0.4748   -0.3181 N   0  0  0  0  0  0  0  0  0  0  0  0
   -1.5805   -0.2999   -1.1166 C   0  0  0  0  0  0  0  0  0  0  0  0
   -1.6999    0.8529   -1.8357 N   0  0  0  0  0  0  0  0  0  0  0  0
   -1.0170    2.0615   -1.4539 C   0  0  0  0  0  0  0  0  0  0  0  0
   -1.2937    3.0820   -2.5159 C   0  0  0  0  0  0  0  0  0  0  0  0
   -2.0173    4.1957   -2.3379 C   0  0  0  0  0  0  0  0  0  0  0  0
   -2.5966   -1.1979   -1.3243 N   0  0  0  0  0  0  0  0  0  0  0  0
   -2.5434   -2.3121   -0.6807 C   0  0  0  0  0  0  0  0  0  0  0  0
   -3.4162   -3.4011   -0.7189 N   0  0  0  0  0  0  0  0  0  0  0  0
   -4.8372   -3.2137   -0.9366 C   0  0  0  0  0  0  0  0  0  0  0  0
   -2.9543   -5.2558    0.0468 H   0  0  0  0  0  0  0  0  0  0  0  0
   -1.2299   -4.3539    1.5090 H   0  0  0  0  0  0  0  0  0  0  0  0
    0.7698    0.0422    3.0866 H   0  0  0  0  0  0  0  0  0  0  0  0
    2.5176    1.7771    3.2987 H   0  0  0  0  0  0  0  0  0  0  0  0
    6.6420    2.7418    1.8235 H   0  0  0  0  0  0  0  0  0  0  0  0
    6.3080    0.9187    1.7238 H   0  0  0  0  0  0  0  0  0  0  0  0
    3.2261    3.4945    1.4596 H   0  0  0  0  0  0  0  0  0  0  0  0
    4.4250    0.2574   -0.2612 H   0  0  0  0  0  0  0  0  0  0  0  0
    2.6752   -1.4755   -0.4434 H   0  0  0  0  0  0  0  0  0  0  0  0
   -2.6349    0.9778   -2.2015 H   0  0  0  0  0  0  0  0  0  0  0  0
   -1.3701    2.4028   -0.4741 H   0  0  0  0  0  0  0  0  0  0  0  0
    0.0652    1.9021   -1.3894 H   0  0  0  0  0  0  0  0  0  0  0  0
   -0.8527    2.8876   -3.4914 H   0  0  0  0  0  0  0  0  0  0  0  0
   -2.4725    4.4359   -1.3820 H   0  0  0  0  0  0  0  0  0  0  0  0
   -2.1695    4.8940   -3.1556 H   0  0  0  0  0  0  0  0  0  0  0  0
   -5.3394   -4.1822   -1.0279 H   0  0  0  0  0  0  0  0  0  0  0  0
   -5.2894   -2.6643   -0.1044 H   0  0  0  0  0  0  0  0  0  0  0  0
   -5.0150   -2.6567   -1.8621 H   0  0  0  0  0  0  0  0  0  0  0  0
  1  2  1  0
  2  3  2  0
  3  4  1  0
  4  5  2  3
  5  6  1  0
  6  7  2  0
  7  8  1  0
  8  9  2  0
  9 10  1  0
 10 11  2  0
 10 12  1  0
  9 13  1  0
 13 14  2  0
  4 15  1  0
 15 16  2  0
 16 17  1  0
 17 18  1  0
 18 19  1  0
 19 20  2  0
 16 21  1  0
 21 22  2  0
 22 23  1  0
 23 24  1  0
 23  1  1  0
 22  3  1  0
 14  6  1  0
  1 25  1  0
  2 26  1  0
  7 27  1  0
  8 28  1  0
 11 29  1  0
 11 30  1  0
 12 31  1  0
 13 32  1  0
 14 33  1  0
 17 34  1  0
 18 35  1  0
 18 36  1  0
 19 37  1  0
 20 38  1  0
 20 39  1  0
 24 40  1  0
 24 41  1  0
 24 42  1  0
M  END
>  <ScrubInfo>  (15) 
{"isomerGroup": 0, "isomerId": 14, "confId": 0, "nr_conformers:": 1, "nr_isomers:": 16}

$$$$
_i15
     RDKit          3D

 42 44  0  0  0  0  0  0  0  0999 V2000
    0.2744   -3.5012   -1.1716 N   0  0  0  0  0  0  0  0  0  0  0  0
   -0.2123   -2.2054   -1.3070 C   0  0  0  0  0  0  0  0  0  0  0  0
    0.6757   -1.2729   -0.9372 C   0  0  0  0  0  0  0  0  0  0  0  0
    0.7812    0.1833   -0.8729 C   0  0  0  0  0  0  0  0  0  0  0  0
   -0.2437    1.0421   -1.2088 N   0  0  0  0  0  0  0  0  0  0  0  0
   -1.5715    0.9238   -0.7407 C   0  0  0  0  0  0  0  0  0  0  0  0
   -1.9033    0.2933    0.4622 C   0  0  0  0  0  0  0  0  0  0  0  0
   -3.2336    0.2366    0.8951 C   0  0  0  0  0  0  0  0  0  0  0  0
   -4.2631    0.8308    0.1528 C   0  0  0  0  0  0  0  0  0  0  0  0
   -5.6580    0.7435    0.6267 C   0  0  0  0  0  0  0  0  0  0  0  0
   -6.5528    1.7294    0.4819 C   0  0  0  0  0  0  0  0  0  0  0  0
   -5.9796   -0.4336    1.2683 O   0  0  0  0  0  0  0  0  0  0  0  0
   -3.9241    1.4785   -1.0422 C   0  0  0  0  0  0  0  0  0  0  0  0
   -2.5937    1.5350   -1.4751 C   0  0  0  0  0  0  0  0  0  0  0  0
    1.9239    0.7055   -0.5174 N   0  0  0  0  0  0  0  0  0  0  0  0
    2.9710   -0.1356   -0.1910 C   0  0  0  0  0  0  0  0  0  0  0  0
    4.1170    0.3666    0.1054 N   0  0  0  0  0  0  0  0  0  0  0  0
    4.2390    1.8159    0.0790 C   0  0  0  0  0  0  0  0  0  0  0  0
    5.6498    2.1625    0.4541 C   0  0  0  0  0  0  0  0  0  0  0  0
    5.9969    2.9470    1.4831 C   0  0  0  0  0  0  0  0  0  0  0  0
    2.9381   -1.5093   -0.1380 N   0  0  0  0  0  0  0  0  0  0  0  0
    1.8349   -2.0709   -0.4891 C   0  0  0  0  0  0  0  0  0  0  0  0
    1.5132   -3.4277   -0.5413 N   0  0  0  0  0  0  0  0  0  0  0  0
    2.5258   -4.4190   -0.8520 C   0  0  0  0  0  0  0  0  0  0  0  0
   -0.4022   -4.1483   -0.7599 H   0  0  0  0  0  0  0  0  0  0  0  0
   -1.2176   -2.0548   -1.6748 H   0  0  0  0  0  0  0  0  0  0  0  0
    0.0608    2.0100   -1.1277 H   0  0  0  0  0  0  0  0  0  0  0  0
   -1.1380   -0.1524    1.0926 H   0  0  0  0  0  0  0  0  0  0  0  0
   -3.4617   -0.2692    1.8317 H   0  0  0  0  0  0  0  0  0  0  0  0
   -6.2965    2.6708    0.0066 H   0  0  0  0  0  0  0  0  0  0  0  0
   -7.5682    1.6395    0.8511 H   0  0  0  0  0  0  0  0  0  0  0  0
   -6.9124   -0.3918    1.5363 H   0  0  0  0  0  0  0  0  0  0  0  0
   -4.6919    1.9367   -1.6608 H   0  0  0  0  0  0  0  0  0  0  0  0
   -2.3638    2.0438   -2.4087 H   0  0  0  0  0  0  0  0  0  0  0  0
    3.5354    2.2846    0.7781 H   0  0  0  0  0  0  0  0  0  0  0  0
    4.0504    2.2074   -0.9279 H   0  0  0  0  0  0  0  0  0  0  0  0
    6.4285    1.7239   -0.1653 H   0  0  0  0  0  0  0  0  0  0  0  0
    7.0417    3.1441    1.6999 H   0  0  0  0  0  0  0  0  0  0  0  0
    5.2522    3.3931    2.1339 H   0  0  0  0  0  0  0  0  0  0  0  0
    2.1110   -5.4280   -0.7599 H   0  0  0  0  0  0  0  0  0  0  0  0
    3.3686   -4.3397   -0.1579 H   0  0  0  0  0  0  0  0  0  0  0  0
    2.8984   -4.2878   -1.8733 H   0  0  0  0  0  0  0  0  0  0  0  0
  1  2  1  0
  2  3  2  0
  3  4  1  0
  4  5  1  0
  5  6  1  0
  6  7  2  0
  7  8  1  0
  8  9  2  0
  9 10  1  0
 10 11  2  0
 10 12  1  0
  9 13  1  0
 13 14  2  0
  4 15  2  0
 15 16  1  0
 16 17  2  3
 17 18  1  0
 18 19  1  0
 19 20  2  0
 16 21  1  0
 21 22  2  0
 22 23  1  0
 23 24  1  0
 23  1  1  0
 22  3  1  0
 14  6  1  0
  1 25  1  0
  2 26  1  0
  5 27  1  0
  7 28  1  0
  8 29  1  0
 11 30  1  0
 11 31  1  0
 12 32  1  0
 13 33  1  0
 14 34  1  0
 18 35  1  0
 18 36  1  0
 19 37  1  0
 20 38  1  0
 20 39  1  0
 24 40  1  0
 24 41  1  0
 24 42  1  0
M  END
>  <ScrubInfo>  (16) 
{"isomerGroup": 0, "isomerId": 15, "confId": 0, "nr_conformers:": 1, "nr_isomers:": 16}

$$$$
