_i0
     RDKit          3D

 53 56  0  0  0  0  0  0  0  0999 V2000
    8.3210    3.2292   -0.0147 C   0  0  0  0  0  0  0  0  0  0  0  0
    6.9969    2.7027   -0.1108 O   0  0  0  0  0  0  0  0  0  0  0  0
    6.5408    2.1460    1.0393 C   0  0  0  0  0  0  0  0  0  0  0  0
    7.1582    2.0736    2.0905 O   0  0  0  0  0  0  0  0  0  0  0  0
    5.1595    1.6213    0.8598 C   0  0  0  0  0  0  0  0  0  0  0  0
    4.5345    1.0156    1.9581 C   0  0  0  0  0  0  0  0  0  0  0  0
    3.2382    0.5051    1.8429 C   0  0  0  0  0  0  0  0  0  0  0  0
    2.5453    0.5969    0.6283 C   0  0  0  0  0  0  0  0  0  0  0  0
    1.1452    0.0390    0.4903 C   0  0  0  0  0  0  0  0  0  0  0  0
    1.1911   -1.1442   -0.3429 N   0  0  0  0  0  0  0  0  0  0  0  0
   -0.0082   -1.8447   -0.3888 C   0  0  0  0  0  0  0  0  0  0  0  0
   -1.1723   -1.1696   -0.3477 N   0  0  0  0  0  0  0  0  0  0  0  0
   -2.3633   -1.8247   -0.3903 C   0  0  0  0  0  0  0  0  0  0  0  0
   -3.5845   -1.1494   -0.3372 N   0  0  0  0  0  0  0  0  0  0  0  0
   -3.9366    0.2114   -0.2966 C   0  0  0  0  0  0  0  0  0  0  0  0
   -3.0304    1.2660   -0.3985 C   0  0  0  0  0  0  0  0  0  0  0  0
   -3.4651    2.5966   -0.3390 C   0  0  0  0  0  0  0  0  0  0  0  0
   -4.8226    2.9017   -0.1859 C   0  0  0  0  0  0  0  0  0  0  0  0
   -5.2728    4.3292   -0.0899 C   0  0  0  0  0  0  0  0  0  0  0  0
   -5.7429    1.8558   -0.0695 C   0  0  0  0  0  0  0  0  0  0  0  0
   -5.2965    0.5349   -0.1313 C   0  0  0  0  0  0  0  0  0  0  0  0
   -6.1908   -0.5056   -0.0290 O   0  0  0  0  0  0  0  0  0  0  0  0
   -2.3100   -3.2214   -0.4721 C   0  0  0  0  0  0  0  0  0  0  0  0
   -3.2077   -4.3078   -0.5371 C   0  0  0  0  0  0  0  0  0  0  0  0
   -2.5891   -5.4923   -0.6051 N   0  0  0  0  0  0  0  0  0  0  0  0
   -1.2779   -5.1558   -0.5909 N   0  0  0  0  0  0  0  0  0  0  0  0
   -0.2793   -6.1925   -0.6620 C   0  0  0  0  0  0  0  0  0  0  0  0
   -1.0604   -3.8076   -0.5056 C   0  0  0  0  0  0  0  0  0  0  0  0
    0.1207   -3.1748   -0.4628 N   0  0  0  0  0  0  0  0  0  0  0  0
    3.1768    1.1985   -0.4708 C   0  0  0  0  0  0  0  0  0  0  0  0
    4.4733    1.7089   -0.3577 C   0  0  0  0  0  0  0  0  0  0  0  0
    8.5895    3.6499   -0.9876 H   0  0  0  0  0  0  0  0  0  0  0  0
    9.0333    2.4341    0.2273 H   0  0  0  0  0  0  0  0  0  0  0  0
    8.3626    4.0286    0.7317 H   0  0  0  0  0  0  0  0  0  0  0  0
    5.0565    0.9372    2.9103 H   0  0  0  0  0  0  0  0  0  0  0  0
    2.7758    0.0360    2.7091 H   0  0  0  0  0  0  0  0  0  0  0  0
    0.7428   -0.1923    1.4854 H   0  0  0  0  0  0  0  0  0  0  0  0
    0.5081    0.8154    0.0481 H   0  0  0  0  0  0  0  0  0  0  0  0
    1.9046   -1.8166   -0.0862 H   0  0  0  0  0  0  0  0  0  0  0  0
   -4.4116   -1.7363   -0.3003 H   0  0  0  0  0  0  0  0  0  0  0  0
   -1.9712    1.0776   -0.5352 H   0  0  0  0  0  0  0  0  0  0  0  0
   -2.7281    3.3932   -0.4181 H   0  0  0  0  0  0  0  0  0  0  0  0
   -4.6223    4.9847   -0.6784 H   0  0  0  0  0  0  0  0  0  0  0  0
   -5.2554    4.6575    0.9539 H   0  0  0  0  0  0  0  0  0  0  0  0
   -6.2892    4.4454   -0.4808 H   0  0  0  0  0  0  0  0  0  0  0  0
   -6.7965    2.0797    0.0664 H   0  0  0  0  0  0  0  0  0  0  0  0
   -7.0787   -0.1269    0.0845 H   0  0  0  0  0  0  0  0  0  0  0  0
   -4.2897   -4.2867   -0.5378 H   0  0  0  0  0  0  0  0  0  0  0  0
   -0.4289   -6.7509   -1.5896 H   0  0  0  0  0  0  0  0  0  0  0  0
   -0.4032   -6.8486    0.2032 H   0  0  0  0  0  0  0  0  0  0  0  0
    0.7201   -5.7520   -0.6528 H   0  0  0  0  0  0  0  0  0  0  0  0
    2.6570    1.2617   -1.4259 H   0  0  0  0  0  0  0  0  0  0  0  0
    4.9337    2.1673   -1.2293 H   0  0  0  0  0  0  0  0  0  0  0  0
  1  2  1  0
  2  3  1  0
  3  4  2  0
  3  5  1  0
  5  6  2  0
  6  7  1  0
  7  8  2  0
  8  9  1  0
  9 10  1  0
 10 11  1  0
 11 12  2  0
 12 13  1  0
 13 14  1  0
 14 15  1  0
 15 16  2  0
 16 17  1  0
 17 18  2  0
 18 19  1  0
 18 20  1  0
 20 21  2  0
 21 22  1  0
 13 23  2  0
 23 24  1  0
 24 25  2  0
 25 26  1  0
 26 27  1  0
 26 28  1  0
 28 29  2  0
  8 30  1  0
 30 31  2  0
 31  5  1  0
 29 11  1  0
 21 15  1  0
 28 23  1  0
  1 32  1  0
  1 33  1  0
  1 34  1  0
  6 35  1  0
  7 36  1  0
  9 37  1  0
  9 38  1  0
 10 39  1  0
 14 40  1  0
 16 41  1  0
 17 42  1  0
 19 43  1  0
 19 44  1  0
 19 45  1  0
 20 46  1  0
 22 47  1  0
 24 48  1  0
 27 49  1  0
 27 50  1  0
 27 51  1  0
 30 52  1  0
 31 53  1  0
M  END
>  <ScrubInfo>  (1) 
{"isomerGroup": 0, "isomerId": 0, "confId": 0, "nr_conformers:": 1, "nr_isomers:": 9}

$$$$
_i1
     RDKit          3D

 53 56  0  0  0  0  0  0  0  0999 V2000
   -1.3635   -0.8829   -0.2424 N   0  0  0  0  0  0  0  0  0  0  0  0
   -2.5882   -1.5097   -0.3666 C   0  0  0  0  0  0  0  0  0  0  0  0
   -3.7961   -0.8763   -0.1703 N   0  0  0  0  0  0  0  0  0  0  0  0
   -4.1298    0.4909   -0.1337 C   0  0  0  0  0  0  0  0  0  0  0  0
   -3.3631    1.4989   -0.7218 C   0  0  0  0  0  0  0  0  0  0  0  0
   -3.7406    2.8428   -0.6111 C   0  0  0  0  0  0  0  0  0  0  0  0
   -4.8911    3.2078    0.0981 C   0  0  0  0  0  0  0  0  0  0  0  0
   -5.3042    4.6478    0.1825 C   0  0  0  0  0  0  0  0  0  0  0  0
   -5.6832    2.2066    0.6693 C   0  0  0  0  0  0  0  0  0  0  0  0
   -5.2977    0.8709    0.5517 C   0  0  0  0  0  0  0  0  0  0  0  0
   -6.0656   -0.1256    1.1056 O   0  0  0  0  0  0  0  0  0  0  0  0
   -2.5166   -2.8135   -0.6627 C   0  0  0  0  0  0  0  0  0  0  0  0
   -3.4455   -3.9151   -0.9357 C   0  0  0  0  0  0  0  0  0  0  0  0
   -2.8388   -5.0348   -1.2399 N   0  0  0  0  0  0  0  0  0  0  0  0
   -1.4659   -4.7543   -1.1407 N   0  0  0  0  0  0  0  0  0  0  0  0
   -0.5193   -5.6862   -1.7033 C   0  0  0  0  0  0  0  0  0  0  0  0
   -1.1840   -3.4308   -0.8420 C   0  0  0  0  0  0  0  0  0  0  0  0
   -0.0519   -2.8214   -0.7347 N   0  0  0  0  0  0  0  0  0  0  0  0
   -0.1442   -1.4918   -0.3845 C   0  0  0  0  0  0  0  0  0  0  0  0
    0.9225   -0.7963   -0.1693 N   0  0  0  0  0  0  0  0  0  0  0  0
    2.2000   -1.4871   -0.3296 C   0  0  0  0  0  0  0  0  0  0  0  0
    3.3481   -0.5413   -0.0555 C   0  0  0  0  0  0  0  0  0  0  0  0
    3.8143   -0.3526    1.2527 C   0  0  0  0  0  0  0  0  0  0  0  0
    4.8614    0.5364    1.5136 C   0  0  0  0  0  0  0  0  0  0  0  0
    5.4500    1.2573    0.4667 C   0  0  0  0  0  0  0  0  0  0  0  0
    6.5655    2.2181    0.6860 C   0  0  0  0  0  0  0  0  0  0  0  0
    7.0900    2.8616   -0.2099 O   0  0  0  0  0  0  0  0  0  0  0  0
    6.9055    2.2685    1.9990 O   0  0  0  0  0  0  0  0  0  0  0  0
    7.9732    3.1720    2.2865 C   0  0  0  0  0  0  0  0  0  0  0  0
    4.9758    1.0821   -0.8398 C   0  0  0  0  0  0  0  0  0  0  0  0
    3.9289    0.1932   -1.0976 C   0  0  0  0  0  0  0  0  0  0  0  0
   -1.3538    0.0448    0.1539 H   0  0  0  0  0  0  0  0  0  0  0  0
   -4.5881   -1.4576    0.0987 H   0  0  0  0  0  0  0  0  0  0  0  0
   -2.4839    1.2600   -1.3132 H   0  0  0  0  0  0  0  0  0  0  0  0
   -3.1287    3.6036   -1.0926 H   0  0  0  0  0  0  0  0  0  0  0  0
   -5.9465    4.9031   -0.6658 H   0  0  0  0  0  0  0  0  0  0  0  0
   -5.8497    4.8435    1.1117 H   0  0  0  0  0  0  0  0  0  0  0  0
   -4.4291    5.3061    0.1754 H   0  0  0  0  0  0  0  0  0  0  0  0
   -6.5922    2.4774    1.1980 H   0  0  0  0  0  0  0  0  0  0  0  0
   -6.8027    0.2918    1.5826 H   0  0  0  0  0  0  0  0  0  0  0  0
   -4.5320   -3.7642   -0.9023 H   0  0  0  0  0  0  0  0  0  0  0  0
   -0.8633   -6.7169   -1.5696 H   0  0  0  0  0  0  0  0  0  0  0  0
   -0.3920   -5.4996   -2.7741 H   0  0  0  0  0  0  0  0  0  0  0  0
    0.4562   -5.5944   -1.2151 H   0  0  0  0  0  0  0  0  0  0  0  0
    2.2775   -2.3366    0.3619 H   0  0  0  0  0  0  0  0  0  0  0  0
    2.3081   -1.8830   -1.3480 H   0  0  0  0  0  0  0  0  0  0  0  0
    3.3540   -0.8950    2.0760 H   0  0  0  0  0  0  0  0  0  0  0  0
    5.2006    0.6591    2.5387 H   0  0  0  0  0  0  0  0  0  0  0  0
    7.6927    4.1954    2.0180 H   0  0  0  0  0  0  0  0  0  0  0  0
    8.1658    3.1371    3.3623 H   0  0  0  0  0  0  0  0  0  0  0  0
    8.8845    2.8685    1.7617 H   0  0  0  0  0  0  0  0  0  0  0  0
    5.4149    1.6419   -1.6632 H   0  0  0  0  0  0  0  0  0  0  0  0
    3.5614    0.0800   -2.1153 H   0  0  0  0  0  0  0  0  0  0  0  0
  1  2  1  0
  2  3  1  0
  3  4  1  0
  4  5  2  0
  5  6  1  0
  6  7  2  0
  7  8  1  0
  7  9  1  0
  9 10  2  0
 10 11  1  0
  2 12  2  0
 12 13  1  0
 13 14  2  0
 14 15  1  0
 15 16  1  0
 15 17  1  0
 17 18  2  0
 18 19  1  0
 19 20  2  3
 20 21  1  0
 21 22  1  0
 22 23  2  0
 23 24  1  0
 24 25  2  0
 25 26  1  0
 26 27  2  0
 26 28  1  0
 28 29  1  0
 25 30  1  0
 30 31  2  0
 19  1  1  0
 31 22  1  0
 10  4  1  0
 17 12  1  0
  1 32  1  0
  3 33  1  0
  5 34  1  0
  6 35  1  0
  8 36  1  0
  8 37  1  0
  8 38  1  0
  9 39  1  0
 11 40  1  0
 13 41  1  0
 16 42  1  0
 16 43  1  0
 16 44  1  0
 21 45  1  0
 21 46  1  0
 23 47  1  0
 24 48  1  0
 29 49  1  0
 29 50  1  0
 29 51  1  0
 30 52  1  0
 31 53  1  0
M  END
>  <ScrubInfo>  (2) 
{"isomerGroup": 0, "isomerId": 1, "confId": 0, "nr_conformers:": 1, "nr_isomers:": 9}

$$$$
_i2
     RDKit          3D

 53 56  0  0  0  0  0  0  0  0999 V2000
   -0.6704    0.2392   -0.2193 N   0  0  0  0  0  0  0  0  0  0  0  0
    0.2153   -0.6917    0.2631 C   0  0  0  0  0  0  0  0  0  0  0  0
    1.5384   -0.4183    0.0699 N   0  0  0  0  0  0  0  0  0  0  0  0
    2.1204    0.8462    0.4877 C   0  0  0  0  0  0  0  0  0  0  0  0
    3.6149    0.8063    0.2779 C   0  0  0  0  0  0  0  0  0  0  0  0
    4.1496    0.8233   -1.0193 C   0  0  0  0  0  0  0  0  0  0  0  0
    5.5325    0.7764   -1.2215 C   0  0  0  0  0  0  0  0  0  0  0  0
    6.4023    0.7081   -0.1263 C   0  0  0  0  0  0  0  0  0  0  0  0
    7.8819    0.6556   -0.2807 C   0  0  0  0  0  0  0  0  0  0  0  0
    8.6554    0.5942    0.6621 O   0  0  0  0  0  0  0  0  0  0  0  0
    8.2293    0.6866   -1.5916 O   0  0  0  0  0  0  0  0  0  0  0  0
    9.6387    0.6382   -1.8188 C   0  0  0  0  0  0  0  0  0  0  0  0
    5.8715    0.6840    1.1701 C   0  0  0  0  0  0  0  0  0  0  0  0
    4.4888    0.7302    1.3709 C   0  0  0  0  0  0  0  0  0  0  0  0
   -0.1376   -1.7983    0.8648 N   0  0  0  0  0  0  0  0  0  0  0  0
   -1.4928   -1.8963    0.9760 C   0  0  0  0  0  0  0  0  0  0  0  0
   -2.4634   -1.0188    0.5151 C   0  0  0  0  0  0  0  0  0  0  0  0
   -3.6768   -1.5902    0.9381 C   0  0  0  0  0  0  0  0  0  0  0  0
   -3.5048   -2.7462    1.5921 N   0  0  0  0  0  0  0  0  0  0  0  0
   -2.1634   -2.9126    1.5968 N   0  0  0  0  0  0  0  0  0  0  0  0
   -1.5977   -4.0733    2.2369 C   0  0  0  0  0  0  0  0  0  0  0  0
   -2.0451    0.1688   -0.2038 C   0  0  0  0  0  0  0  0  0  0  0  0
   -2.7755    1.0747   -0.7826 N   0  0  0  0  0  0  0  0  0  0  0  0
   -4.1730    0.9726   -0.8342 C   0  0  0  0  0  0  0  0  0  0  0  0
   -4.8054    0.1874   -1.7991 C   0  0  0  0  0  0  0  0  0  0  0  0
   -6.2017    0.1119   -1.8404 C   0  0  0  0  0  0  0  0  0  0  0  0
   -6.9834    0.8444   -0.9347 C   0  0  0  0  0  0  0  0  0  0  0  0
   -8.4792    0.7312   -0.9580 C   0  0  0  0  0  0  0  0  0  0  0  0
   -6.3503    1.6462    0.0226 C   0  0  0  0  0  0  0  0  0  0  0  0
   -4.9623    1.7154    0.0517 C   0  0  0  0  0  0  0  0  0  0  0  0
   -4.3661    2.5339    0.9729 O   0  0  0  0  0  0  0  0  0  0  0  0
   -0.3028    0.9437   -0.8377 H   0  0  0  0  0  0  0  0  0  0  0  0
    2.0846   -1.1958    0.4380 H   0  0  0  0  0  0  0  0  0  0  0  0
    1.7043    1.6804   -0.0891 H   0  0  0  0  0  0  0  0  0  0  0  0
    1.8888    1.0341    1.5430 H   0  0  0  0  0  0  0  0  0  0  0  0
    3.4876    0.8646   -1.8828 H   0  0  0  0  0  0  0  0  0  0  0  0
    5.9149    0.7900   -2.2394 H   0  0  0  0  0  0  0  0  0  0  0  0
    9.8087    0.6674   -2.8986 H   0  0  0  0  0  0  0  0  0  0  0  0
   10.0585   -0.2936   -1.4270 H   0  0  0  0  0  0  0  0  0  0  0  0
   10.1298    1.5059   -1.3672 H   0  0  0  0  0  0  0  0  0  0  0  0
    6.5349    0.6270    2.0318 H   0  0  0  0  0  0  0  0  0  0  0  0
    4.1038    0.7051    2.3888 H   0  0  0  0  0  0  0  0  0  0  0  0
   -4.6881   -1.2286    0.8119 H   0  0  0  0  0  0  0  0  0  0  0  0
   -1.7527   -3.9784    3.3145 H   0  0  0  0  0  0  0  0  0  0  0  0
   -2.1064   -4.9623    1.8550 H   0  0  0  0  0  0  0  0  0  0  0  0
   -0.5301   -4.1406    2.0169 H   0  0  0  0  0  0  0  0  0  0  0  0
   -4.2130   -0.3756   -2.5147 H   0  0  0  0  0  0  0  0  0  0  0  0
   -6.6765   -0.5215   -2.5870 H   0  0  0  0  0  0  0  0  0  0  0  0
   -8.8409    0.5448   -1.9747 H   0  0  0  0  0  0  0  0  0  0  0  0
   -8.9469    1.6592   -0.6124 H   0  0  0  0  0  0  0  0  0  0  0  0
   -8.8019   -0.0902   -0.3110 H   0  0  0  0  0  0  0  0  0  0  0  0
   -6.9291    2.2228    0.7389 H   0  0  0  0  0  0  0  0  0  0  0  0
   -3.4178    2.5123    0.7400 H   0  0  0  0  0  0  0  0  0  0  0  0
  1  2  1  0
  2  3  1  0
  3  4  1  0
  4  5  1  0
  5  6  2  0
  6  7  1  0
  7  8  2  0
  8  9  1  0
  9 10  2  0
  9 11  1  0
 11 12  1  0
  8 13  1  0
 13 14  2  0
  2 15  2  0
 15 16  1  0
 16 17  2  0
 17 18  1  0
 18 19  2  0
 19 20  1  0
 20 21  1  0
 17 22  1  0
 22 23  2  3
 23 24  1  0
 24 25  2  0
 25 26  1  0
 26 27  2  0
 27 28  1  0
 27 29  1  0
 29 30  2  0
 30 31  1  0
 22  1  1  0
 30 24  1  0
 14  5  1  0
 20 16  1  0
  1 32  1  0
  3 33  1  0
  4 34  1  0
  4 35  1  0
  6 36  1  0
  7 37  1  0
 12 38  1  0
 12 39  1  0
 12 40  1  0
 13 41  1  0
 14 42  1  0
 18 43  1  0
 21 44  1  0
 21 45  1  0
 21 46  1  0
 25 47  1  0
 26 48  1  0
 28 49  1  0
 28 50  1  0
 28 51  1  0
 29 52  1  0
 31 53  1  0
M  END
>  <ScrubInfo>  (3) 
{"isomerGroup": 0, "isomerId": 2, "confId": 0, "nr_conformers:": 1, "nr_isomers:": 9}

$$$$
_i3
     RDKit          3D

 53 56  0  0  0  0  0  0  0  0999 V2000
    0.4766   -0.2130   -1.0165 N   0  0  0  0  0  0  0  0  0  0  0  0
    0.2568    1.1161   -0.6844 C   0  0  0  0  0  0  0  0  0  0  0  0
    0.9863    2.1193   -1.0228 N   0  0  0  0  0  0  0  0  0  0  0  0
    2.1521    1.9327   -1.8793 C   0  0  0  0  0  0  0  0  0  0  0  0
    3.3158    1.2180   -1.2270 C   0  0  0  0  0  0  0  0  0  0  0  0
    3.6184    1.4184    0.1273 C   0  0  0  0  0  0  0  0  0  0  0  0
    4.6988    0.7612    0.7231 C   0  0  0  0  0  0  0  0  0  0  0  0
    5.5028   -0.0987   -0.0342 C   0  0  0  0  0  0  0  0  0  0  0  0
    6.6622   -0.8293    0.5461 C   0  0  0  0  0  0  0  0  0  0  0  0
    7.3438   -1.6196   -0.0882 O   0  0  0  0  0  0  0  0  0  0  0  0
    6.8396   -0.4946    1.8482 O   0  0  0  0  0  0  0  0  0  0  0  0
    7.9401   -1.1565    2.4732 C   0  0  0  0  0  0  0  0  0  0  0  0
    5.2163   -0.2865   -1.3929 C   0  0  0  0  0  0  0  0  0  0  0  0
    4.1357    0.3718   -1.9862 C   0  0  0  0  0  0  0  0  0  0  0  0
   -0.8324    1.4898    0.0918 N   0  0  0  0  0  0  0  0  0  0  0  0
   -1.6659    0.5850    0.5185 C   0  0  0  0  0  0  0  0  0  0  0  0
   -2.7492    0.8537    1.3094 N   0  0  0  0  0  0  0  0  0  0  0  0
   -4.0937    0.8754    0.8352 C   0  0  0  0  0  0  0  0  0  0  0  0
   -4.5244    0.2307   -0.3276 C   0  0  0  0  0  0  0  0  0  0  0  0
   -5.8781    0.2337   -0.6863 C   0  0  0  0  0  0  0  0  0  0  0  0
   -6.8305    0.8791    0.1114 C   0  0  0  0  0  0  0  0  0  0  0  0
   -8.2824    0.8467   -0.2654 C   0  0  0  0  0  0  0  0  0  0  0  0
   -6.4167    1.5046    1.2918 C   0  0  0  0  0  0  0  0  0  0  0  0
   -5.0659    1.4971    1.6398 C   0  0  0  0  0  0  0  0  0  0  0  0
   -4.6411    2.1248    2.7844 O   0  0  0  0  0  0  0  0  0  0  0  0
   -1.4293   -0.8137    0.2529 C   0  0  0  0  0  0  0  0  0  0  0  0
   -2.0004   -2.0462    0.6019 C   0  0  0  0  0  0  0  0  0  0  0  0
   -1.3360   -3.0837    0.0671 N   0  0  0  0  0  0  0  0  0  0  0  0
   -0.3141   -2.5009   -0.6086 N   0  0  0  0  0  0  0  0  0  0  0  0
    0.6394   -3.3353   -1.2943 C   0  0  0  0  0  0  0  0  0  0  0  0
   -0.3509   -1.1461   -0.5167 C   0  0  0  0  0  0  0  0  0  0  0  0
    1.3418   -0.4342   -1.4860 H   0  0  0  0  0  0  0  0  0  0  0  0
    2.5065    2.9228   -2.1907 H   0  0  0  0  0  0  0  0  0  0  0  0
    1.8531    1.4171   -2.8012 H   0  0  0  0  0  0  0  0  0  0  0  0
    3.0042    2.0893    0.7278 H   0  0  0  0  0  0  0  0  0  0  0  0
    4.8984    0.9338    1.7778 H   0  0  0  0  0  0  0  0  0  0  0  0
    7.7867   -2.2402    2.4714 H   0  0  0  0  0  0  0  0  0  0  0  0
    8.8783   -0.8960    1.9734 H   0  0  0  0  0  0  0  0  0  0  0  0
    7.9948   -0.8163    3.5110 H   0  0  0  0  0  0  0  0  0  0  0  0
    5.8415   -0.9413   -1.9977 H   0  0  0  0  0  0  0  0  0  0  0  0
    3.9449    0.2232   -3.0473 H   0  0  0  0  0  0  0  0  0  0  0  0
   -2.6299    1.7397    1.8031 H   0  0  0  0  0  0  0  0  0  0  0  0
   -3.8257   -0.2766   -0.9857 H   0  0  0  0  0  0  0  0  0  0  0  0
   -6.1821   -0.2761   -1.5987 H   0  0  0  0  0  0  0  0  0  0  0  0
   -8.7986    1.7441    0.0914 H   0  0  0  0  0  0  0  0  0  0  0  0
   -8.7623   -0.0348    0.1707 H   0  0  0  0  0  0  0  0  0  0  0  0
   -8.4031    0.8142   -1.3533 H   0  0  0  0  0  0  0  0  0  0  0  0
   -7.1498    1.9932    1.9266 H   0  0  0  0  0  0  0  0  0  0  0  0
   -5.4191    2.4725    3.2514 H   0  0  0  0  0  0  0  0  0  0  0  0
   -2.8685   -2.2382    1.2197 H   0  0  0  0  0  0  0  0  0  0  0  0
    1.3435   -2.7151   -1.8530 H   0  0  0  0  0  0  0  0  0  0  0  0
    1.1753   -3.9278   -0.5487 H   0  0  0  0  0  0  0  0  0  0  0  0
    0.0963   -3.9873   -1.9831 H   0  0  0  0  0  0  0  0  0  0  0  0
  1  2  1  0
  2  3  2  3
  3  4  1  0
  4  5  1  0
  5  6  2  0
  6  7  1  0
  7  8  2  0
  8  9  1  0
  9 10  2  0
  9 11  1  0
 11 12  1  0
  8 13  1  0
 13 14  2  0
  2 15  1  0
 15 16  2  0
 16 17  1  0
 17 18  1  0
 18 19  2  0
 19 20  1  0
 20 21  2  0
 21 22  1  0
 21 23  1  0
 23 24  2  0
 24 25  1  0
 16 26  1  0
 26 27  1  0
 27 28  2  0
 28 29  1  0
 29 30  1  0
 29 31  1  0
 31  1  1  0
 14  5  1  0
 24 18  1  0
 31 26  2  0
  1 32  1  0
  4 33  1  0
  4 34  1  0
  6 35  1  0
  7 36  1  0
 12 37  1  0
 12 38  1  0
 12 39  1  0
 13 40  1  0
 14 41  1  0
 17 42  1  0
 19 43  1  0
 20 44  1  0
 22 45  1  0
 22 46  1  0
 22 47  1  0
 23 48  1  0
 25 49  1  0
 27 50  1  0
 30 51  1  0
 30 52  1  0
 30 53  1  0
M  END
>  <ScrubInfo>  (4) 
{"isomerGroup": 0, "isomerId": 3, "confId": 0, "nr_conformers:": 1, "nr_isomers:": 9}

$$$$
_i4
     RDKit          3D

 53 56  0  0  0  0  0  0  0  0999 V2000
   -3.3653    3.0015   -0.6977 N   0  0  0  0  0  0  0  0  0  0  0  0
   -3.5599    1.6397   -0.4877 C   0  0  0  0  0  0  0  0  0  0  0  0
   -2.4253    0.9661   -0.2447 C   0  0  0  0  0  0  0  0  0  0  0  0
   -1.9840   -0.3984    0.0148 C   0  0  0  0  0  0  0  0  0  0  0  0
   -2.6564   -1.4825    0.2099 N   0  0  0  0  0  0  0  0  0  0  0  0
   -4.0562   -1.4605    0.2565 C   0  0  0  0  0  0  0  0  0  0  0  0
   -4.7749   -1.9853   -0.8197 C   0  0  0  0  0  0  0  0  0  0  0  0
   -6.1720   -2.0256   -0.7941 C   0  0  0  0  0  0  0  0  0  0  0  0
   -6.8753   -1.5626    0.3250 C   0  0  0  0  0  0  0  0  0  0  0  0
   -8.3755   -1.5796    0.3372 C   0  0  0  0  0  0  0  0  0  0  0  0
   -6.1622   -1.0386    1.4109 C   0  0  0  0  0  0  0  0  0  0  0  0
   -4.7665   -1.0002    1.3760 C   0  0  0  0  0  0  0  0  0  0  0  0
   -4.0779   -0.4768    2.4387 O   0  0  0  0  0  0  0  0  0  0  0  0
   -0.6201   -0.5417    0.0349 N   0  0  0  0  0  0  0  0  0  0  0  0
    0.2033    0.4593   -0.0563 C   0  0  0  0  0  0  0  0  0  0  0  0
    1.5300    0.1506   -0.0117 N   0  0  0  0  0  0  0  0  0  0  0  0
    2.5222    1.0996    0.4266 C   0  0  0  0  0  0  0  0  0  0  0  0
    3.8883    0.4550    0.3875 C   0  0  0  0  0  0  0  0  0  0  0  0
    4.5234    0.2193   -0.8411 C   0  0  0  0  0  0  0  0  0  0  0  0
    5.7813   -0.3888   -0.8886 C   0  0  0  0  0  0  0  0  0  0  0  0
    6.4212   -0.7751    0.2957 C   0  0  0  0  0  0  0  0  0  0  0  0
    7.7602   -1.4253    0.3063 C   0  0  0  0  0  0  0  0  0  0  0  0
    8.3400   -1.7584    1.3281 O   0  0  0  0  0  0  0  0  0  0  0  0
    8.2265   -1.5860   -0.9576 O   0  0  0  0  0  0  0  0  0  0  0  0
    9.5093   -2.2096   -1.0271 C   0  0  0  0  0  0  0  0  0  0  0  0
    5.7860   -0.5491    1.5240 C   0  0  0  0  0  0  0  0  0  0  0  0
    4.5277    0.0580    1.5696 C   0  0  0  0  0  0  0  0  0  0  0  0
   -0.1535    1.7747   -0.1872 N   0  0  0  0  0  0  0  0  0  0  0  0
   -1.4108    2.0354   -0.2817 C   0  0  0  0  0  0  0  0  0  0  0  0
   -2.0277    3.2775   -0.4472 N   0  0  0  0  0  0  0  0  0  0  0  0
   -1.3775    4.3345   -1.1981 C   0  0  0  0  0  0  0  0  0  0  0  0
   -4.0432    3.5820   -0.1986 H   0  0  0  0  0  0  0  0  0  0  0  0
   -4.5676    1.2538   -0.5293 H   0  0  0  0  0  0  0  0  0  0  0  0
   -4.2365   -2.3716   -1.6814 H   0  0  0  0  0  0  0  0  0  0  0  0
   -6.7045   -2.4329   -1.6510 H   0  0  0  0  0  0  0  0  0  0  0  0
   -8.7563   -1.7027    1.3565 H   0  0  0  0  0  0  0  0  0  0  0  0
   -8.7633   -0.6430   -0.0751 H   0  0  0  0  0  0  0  0  0  0  0  0
   -8.7619   -2.4148   -0.2564 H   0  0  0  0  0  0  0  0  0  0  0  0
   -6.7001   -0.6585    2.2746 H   0  0  0  0  0  0  0  0  0  0  0  0
   -4.6451   -0.5249    3.2244 H   0  0  0  0  0  0  0  0  0  0  0  0
    1.6753   -0.8040    0.2957 H   0  0  0  0  0  0  0  0  0  0  0  0
    2.2964    1.4416    1.4439 H   0  0  0  0  0  0  0  0  0  0  0  0
    2.5312    1.9867   -0.2184 H   0  0  0  0  0  0  0  0  0  0  0  0
    4.0311    0.5036   -1.7701 H   0  0  0  0  0  0  0  0  0  0  0  0
    6.2454   -0.5579   -1.8571 H   0  0  0  0  0  0  0  0  0  0  0  0
    9.7886   -2.2930   -2.0810 H   0  0  0  0  0  0  0  0  0  0  0  0
    9.4704   -3.2160   -0.5985 H   0  0  0  0  0  0  0  0  0  0  0  0
   10.2608   -1.5988   -0.5169 H   0  0  0  0  0  0  0  0  0  0  0  0
    6.2681   -0.8490    2.4530 H   0  0  0  0  0  0  0  0  0  0  0  0
    4.0512    0.2159    2.5353 H   0  0  0  0  0  0  0  0  0  0  0  0
   -1.2586    4.0498   -2.2488 H   0  0  0  0  0  0  0  0  0  0  0  0
   -0.3896    4.5527   -0.7799 H   0  0  0  0  0  0  0  0  0  0  0  0
   -1.9699    5.2540   -1.1517 H   0  0  0  0  0  0  0  0  0  0  0  0
  1  2  1  0
  2  3  2  0
  3  4  1  0
  4  5  2  3
  5  6  1  0
  6  7  2  0
  7  8  1  0
  8  9  2  0
  9 10  1  0
  9 11  1  0
 11 12  2  0
 12 13  1  0
  4 14  1  0
 14 15  2  0
 15 16  1  0
 16 17  1  0
 17 18  1  0
 18 19  2  0
 19 20  1  0
 20 21  2  0
 21 22  1  0
 22 23  2  0
 22 24  1  0
 24 25  1  0
 21 26  1  0
 26 27  2  0
 15 28  1  0
 28 29  2  0
 29 30  1  0
 30 31  1  0
 30  1  1  0
 29  3  1  0
 12  6  1  0
 27 18  1  0
  1 32  1  0
  2 33  1  0
  7 34  1  0
  8 35  1  0
 10 36  1  0
 10 37  1  0
 10 38  1  0
 11 39  1  0
 13 40  1  0
 16 41  1  0
 17 42  1  0
 17 43  1  0
 19 44  1  0
 20 45  1  0
 25 46  1  0
 25 47  1  0
 25 48  1  0
 26 49  1  0
 27 50  1  0
 31 51  1  0
 31 52  1  0
 31 53  1  0
M  END
>  <ScrubInfo>  (5) 
{"isomerGroup": 0, "isomerId": 4, "confId": 0, "nr_conformers:": 1, "nr_isomers:": 9}

$$$$
_i5
     RDKit          3D

 53 56  0  0  0  0  0  0  0  0999 V2000
   -0.4430   -1.7092   -0.6076 N   0  0  0  0  0  0  0  0  0  0  0  0
    0.0624   -0.4430   -0.4468 C   0  0  0  0  0  0  0  0  0  0  0  0
    1.4120   -0.3358   -0.6152 N   0  0  0  0  0  0  0  0  0  0  0  0
    2.3227   -1.1197    0.2036 C   0  0  0  0  0  0  0  0  0  0  0  0
    3.7439   -0.6966   -0.0786 C   0  0  0  0  0  0  0  0  0  0  0  0
    4.3773   -1.0869   -1.2672 C   0  0  0  0  0  0  0  0  0  0  0  0
    5.6883   -0.6860   -1.5375 C   0  0  0  0  0  0  0  0  0  0  0  0
    6.3853    0.1181   -0.6267 C   0  0  0  0  0  0  0  0  0  0  0  0
    7.7796    0.5156   -0.9642 C   0  0  0  0  0  0  0  0  0  0  0  0
    8.3543    0.1590   -1.9808 O   0  0  0  0  0  0  0  0  0  0  0  0
    8.2993    1.3113    0.0037 O   0  0  0  0  0  0  0  0  0  0  0  0
    9.6379    1.7382   -0.2541 C   0  0  0  0  0  0  0  0  0  0  0  0
    5.7528    0.5194    0.5569 C   0  0  0  0  0  0  0  0  0  0  0  0
    4.4405    0.1169    0.8265 C   0  0  0  0  0  0  0  0  0  0  0  0
   -0.6345    0.6222   -0.1731 N   0  0  0  0  0  0  0  0  0  0  0  0
   -2.0086    0.5212    0.0078 C   0  0  0  0  0  0  0  0  0  0  0  0
   -2.6060    1.6122    0.3718 N   0  0  0  0  0  0  0  0  0  0  0  0
   -3.9818    1.6616    0.6200 C   0  0  0  0  0  0  0  0  0  0  0  0
   -4.5144    1.2787    1.8512 C   0  0  0  0  0  0  0  0  0  0  0  0
   -5.8941    1.3483    2.0716 C   0  0  0  0  0  0  0  0  0  0  0  0
   -6.7537    1.8295    1.0722 C   0  0  0  0  0  0  0  0  0  0  0  0
   -8.2360    1.8688    1.2998 C   0  0  0  0  0  0  0  0  0  0  0  0
   -6.2168    2.2324   -0.1568 C   0  0  0  0  0  0  0  0  0  0  0  0
   -4.8441    2.1630   -0.3614 C   0  0  0  0  0  0  0  0  0  0  0  0
   -4.3317    2.6000   -1.5536 O   0  0  0  0  0  0  0  0  0  0  0  0
   -2.6030   -0.7815   -0.2411 C   0  0  0  0  0  0  0  0  0  0  0  0
   -3.8902   -1.3456   -0.3083 C   0  0  0  0  0  0  0  0  0  0  0  0
   -3.8701   -2.6551   -0.6061 N   0  0  0  0  0  0  0  0  0  0  0  0
   -2.5556   -2.9324   -0.7506 N   0  0  0  0  0  0  0  0  0  0  0  0
   -2.1562   -4.2739   -1.0917 C   0  0  0  0  0  0  0  0  0  0  0  0
   -1.7793   -1.8389   -0.5369 C   0  0  0  0  0  0  0  0  0  0  0  0
    0.1583   -2.3846   -1.0607 H   0  0  0  0  0  0  0  0  0  0  0  0
    1.6568    0.6517   -0.5481 H   0  0  0  0  0  0  0  0  0  0  0  0
    2.0897   -0.9799    1.2663 H   0  0  0  0  0  0  0  0  0  0  0  0
    2.2197   -2.1902   -0.0103 H   0  0  0  0  0  0  0  0  0  0  0  0
    3.8483   -1.6990   -1.9954 H   0  0  0  0  0  0  0  0  0  0  0  0
    6.1625   -0.9993   -2.4663 H   0  0  0  0  0  0  0  0  0  0  0  0
    9.9576    2.3709    0.5785 H   0  0  0  0  0  0  0  0  0  0  0  0
    9.6816    2.3287   -1.1746 H   0  0  0  0  0  0  0  0  0  0  0  0
   10.3104    0.8766   -0.3126 H   0  0  0  0  0  0  0  0  0  0  0  0
    6.2675    1.1488    1.2792 H   0  0  0  0  0  0  0  0  0  0  0  0
    3.9670    0.4476    1.7494 H   0  0  0  0  0  0  0  0  0  0  0  0
   -3.8568    0.9203    2.6380 H   0  0  0  0  0  0  0  0  0  0  0  0
   -6.2942    1.0290    3.0317 H   0  0  0  0  0  0  0  0  0  0  0  0
   -8.6976    2.6820    0.7298 H   0  0  0  0  0  0  0  0  0  0  0  0
   -8.4644    2.0430    2.3565 H   0  0  0  0  0  0  0  0  0  0  0  0
   -8.6866    0.9204    0.9917 H   0  0  0  0  0  0  0  0  0  0  0  0
   -6.8564    2.6104   -0.9495 H   0  0  0  0  0  0  0  0  0  0  0  0
   -3.3619    2.6020   -1.4168 H   0  0  0  0  0  0  0  0  0  0  0  0
   -4.8542   -0.8763   -0.1655 H   0  0  0  0  0  0  0  0  0  0  0  0
   -2.6532   -4.9695   -0.4104 H   0  0  0  0  0  0  0  0  0  0  0  0
   -1.0735   -4.3761   -0.9921 H   0  0  0  0  0  0  0  0  0  0  0  0
   -2.4579   -4.4684   -2.1238 H   0  0  0  0  0  0  0  0  0  0  0  0
  1  2  1  0
  2  3  1  0
  3  4  1  0
  4  5  1  0
  5  6  2  0
  6  7  1  0
  7  8  2  0
  8  9  1  0
  9 10  2  0
  9 11  1  0
 11 12  1  0
  8 13  1  0
 13 14  2  0
  2 15  2  0
 15 16  1  0
 16 17  2  3
 17 18  1  0
 18 19  2  0
 19 20  1  0
 20 21  2  0
 21 22  1  0
 21 23  1  0
 23 24  2  0
 24 25  1  0
 16 26  1  0
 26 27  1  0
 27 28  2  0
 28 29  1  0
 29 30  1  0
 29 31  1  0
 31  1  1  0
 14  5  1  0
 24 18  1  0
 31 26  2  0
  1 32  1  0
  3 33  1  0
  4 34  1  0
  4 35  1  0
  6 36  1  0
  7 37  1  0
 12 38  1  0
 12 39  1  0
 12 40  1  0
 13 41  1  0
 14 42  1  0
 19 43  1  0
 20 44  1  0
 22 45  1  0
 22 46  1  0
 22 47  1  0
 23 48  1  0
 25 49  1  0
 27 50  1  0
 30 51  1  0
 30 52  1  0
 30 53  1  0
M  END
>  <ScrubInfo>  (6) 
{"isomerGroup": 0, "isomerId": 5, "confId": 0, "nr_conformers:": 1, "nr_isomers:": 9}

$$$$
_i6
     RDKit          3D

 53 56  0  0  0  0  0  0  0  0999 V2000
   -1.7223    3.1033    0.7240 N   0  0  0  0  0  0  0  0  0  0  0  0
   -2.2175    1.8375    1.0201 C   0  0  0  0  0  0  0  0  0  0  0  0
   -1.5587    0.8564    0.3890 C   0  0  0  0  0  0  0  0  0  0  0  0
   -1.6042   -0.5990    0.2686 C   0  0  0  0  0  0  0  0  0  0  0  0
   -2.5184   -1.3863    0.9249 N   0  0  0  0  0  0  0  0  0  0  0  0
   -3.9274   -1.3523    0.7742 C   0  0  0  0  0  0  0  0  0  0  0  0
   -4.6141   -0.4068    0.0085 C   0  0  0  0  0  0  0  0  0  0  0  0
   -6.0140   -0.4036   -0.0412 C   0  0  0  0  0  0  0  0  0  0  0  0
   -6.7589   -1.3499    0.6716 C   0  0  0  0  0  0  0  0  0  0  0  0
   -8.2584   -1.3181    0.6372 C   0  0  0  0  0  0  0  0  0  0  0  0
   -6.0860   -2.2926    1.4547 C   0  0  0  0  0  0  0  0  0  0  0  0
   -4.6911   -2.2883    1.4957 C   0  0  0  0  0  0  0  0  0  0  0  0
   -4.0202   -3.2248    2.2423 O   0  0  0  0  0  0  0  0  0  0  0  0
   -0.6876   -1.1825   -0.4535 N   0  0  0  0  0  0  0  0  0  0  0  0
    0.2457   -0.4124   -1.1137 C   0  0  0  0  0  0  0  0  0  0  0  0
    1.0620   -1.1021   -1.8273 N   0  0  0  0  0  0  0  0  0  0  0  0
    2.1092   -0.4067   -2.5666 C   0  0  0  0  0  0  0  0  0  0  0  0
    3.3728   -0.2268   -1.7564 C   0  0  0  0  0  0  0  0  0  0  0  0
    4.1007   -1.3455   -1.3280 C   0  0  0  0  0  0  0  0  0  0  0  0
    5.2666   -1.1905   -0.5729 C   0  0  0  0  0  0  0  0  0  0  0  0
    5.7181    0.0907   -0.2323 C   0  0  0  0  0  0  0  0  0  0  0  0
    6.9500    0.3170    0.5716 C   0  0  0  0  0  0  0  0  0  0  0  0
    7.3579    1.4246    0.8863 O   0  0  0  0  0  0  0  0  0  0  0  0
    7.5390   -0.8628    0.8923 O   0  0  0  0  0  0  0  0  0  0  0  0
    8.7308   -0.7245    1.6662 C   0  0  0  0  0  0  0  0  0  0  0  0
    4.9887    1.2107   -0.6527 C   0  0  0  0  0  0  0  0  0  0  0  0
    3.8235    1.0522   -1.4074 C   0  0  0  0  0  0  0  0  0  0  0  0
    0.3661    0.9589   -1.0646 N   0  0  0  0  0  0  0  0  0  0  0  0
   -0.4787    1.5772   -0.3155 C   0  0  0  0  0  0  0  0  0  0  0  0
   -0.5627    2.9393   -0.0267 N   0  0  0  0  0  0  0  0  0  0  0  0
   -0.2026    3.9416   -1.0095 C   0  0  0  0  0  0  0  0  0  0  0  0
   -1.6383    3.7040    1.5481 H   0  0  0  0  0  0  0  0  0  0  0  0
   -3.0511    1.7409    1.7016 H   0  0  0  0  0  0  0  0  0  0  0  0
   -2.2342   -2.3647    0.9727 H   0  0  0  0  0  0  0  0  0  0  0  0
   -4.0850    0.3292   -0.5883 H   0  0  0  0  0  0  0  0  0  0  0  0
   -6.5181    0.3444   -0.6505 H   0  0  0  0  0  0  0  0  0  0  0  0
   -8.6194   -0.9392   -0.3248 H   0  0  0  0  0  0  0  0  0  0  0  0
   -8.6735   -2.3232    0.7662 H   0  0  0  0  0  0  0  0  0  0  0  0
   -8.6371   -0.6733    1.4362 H   0  0  0  0  0  0  0  0  0  0  0  0
   -6.6542   -3.0240    2.0219 H   0  0  0  0  0  0  0  0  0  0  0  0
   -4.6714   -3.7834    2.6976 H   0  0  0  0  0  0  0  0  0  0  0  0
    1.7692    0.5474   -2.9898 H   0  0  0  0  0  0  0  0  0  0  0  0
    2.3611   -1.0148   -3.4451 H   0  0  0  0  0  0  0  0  0  0  0  0
    3.7470   -2.3450   -1.5754 H   0  0  0  0  0  0  0  0  0  0  0  0
    5.8050   -2.0790   -0.2540 H   0  0  0  0  0  0  0  0  0  0  0  0
    9.1208   -1.7257    1.8692 H   0  0  0  0  0  0  0  0  0  0  0  0
    9.4879   -0.1648    1.1080 H   0  0  0  0  0  0  0  0  0  0  0  0
    8.5134   -0.2373    2.6219 H   0  0  0  0  0  0  0  0  0  0  0  0
    5.3213    2.2127   -0.3894 H   0  0  0  0  0  0  0  0  0  0  0  0
    3.2605    1.9315   -1.7125 H   0  0  0  0  0  0  0  0  0  0  0  0
   -0.2347    4.9411   -0.5641 H   0  0  0  0  0  0  0  0  0  0  0  0
    0.8144    3.7723   -1.3778 H   0  0  0  0  0  0  0  0  0  0  0  0
   -0.8919    3.9171   -1.8600 H   0  0  0  0  0  0  0  0  0  0  0  0
  1  2  1  0
  2  3  2  0
  3  4  1  0
  4  5  1  0
  5  6  1  0
  6  7  2  0
  7  8  1  0
  8  9  2  0
  9 10  1  0
  9 11  1  0
 11 12  2  0
 12 13  1  0
  4 14  2  0
 14 15  1  0
 15 16  2  3
 16 17  1  0
 17 18  1  0
 18 19  2  0
 19 20  1  0
 20 21  2  0
 21 22  1  0
 22 23  2  0
 22 24  1  0
 24 25  1  0
 21 26  1  0
 26 27  2  0
 15 28  1  0
 28 29  2  0
 29 30  1  0
 30 31  1  0
 30  1  1  0
 29  3  1  0
 12  6  1  0
 27 18  1  0
  1 32  1  0
  2 33  1  0
  5 34  1  0
  7 35  1  0
  8 36  1  0
 10 37  1  0
 10 38  1  0
 10 39  1  0
 11 40  1  0
 13 41  1  0
 17 42  1  0
 17 43  1  0
 19 44  1  0
 20 45  1  0
 25 46  1  0
 25 47  1  0
 25 48  1  0
 26 49  1  0
 27 50  1  0
 31 51  1  0
 31 52  1  0
 31 53  1  0
M  END
>  <ScrubInfo>  (7) 
{"isomerGroup": 0, "isomerId": 6, "confId": 0, "nr_conformers:": 1, "nr_isomers:": 9}

$$$$
_i7
     RDKit          3D

 53 56  0  0  0  0  0  0  0  0999 V2000
   -3.2937    2.3413   -1.7899 N   0  0  0  0  0  0  0  0  0  0  0  0
   -3.5358    1.2536   -0.9577 C   0  0  0  0  0  0  0  0  0  0  0  0
   -2.4204    0.6638   -0.5054 C   0  0  0  0  0  0  0  0  0  0  0  0
   -2.0005   -0.4872    0.3179 C   0  0  0  0  0  0  0  0  0  0  0  0
   -2.7248   -1.3362    0.9838 N   0  0  0  0  0  0  0  0  0  0  0  0
   -4.1180   -1.1940    1.0495 C   0  0  0  0  0  0  0  0  0  0  0  0
   -4.9230   -2.0348    0.2782 C   0  0  0  0  0  0  0  0  0  0  0  0
   -6.3164   -1.9501    0.3499 C   0  0  0  0  0  0  0  0  0  0  0  0
   -6.9287   -1.0217    1.2013 C   0  0  0  0  0  0  0  0  0  0  0  0
   -8.4246   -0.9598    1.3033 C   0  0  0  0  0  0  0  0  0  0  0  0
   -6.1280   -0.1980    2.0033 C   0  0  0  0  0  0  0  0  0  0  0  0
   -4.7365   -0.2875    1.9246 C   0  0  0  0  0  0  0  0  0  0  0  0
   -3.9570    0.5341    2.6963 O   0  0  0  0  0  0  0  0  0  0  0  0
   -0.6400   -0.6384    0.3328 N   0  0  0  0  0  0  0  0  0  0  0  0
    0.2926    0.1535   -0.2733 C   0  0  0  0  0  0  0  0  0  0  0  0
    1.5411   -0.1541   -0.1431 N   0  0  0  0  0  0  0  0  0  0  0  0
    2.5084    0.7195   -0.8042 C   0  0  0  0  0  0  0  0  0  0  0  0
    3.9181    0.2293   -0.5585 C   0  0  0  0  0  0  0  0  0  0  0  0
    4.5904   -0.5295   -1.5251 C   0  0  0  0  0  0  0  0  0  0  0  0
    5.8870   -0.9927   -1.2856 C   0  0  0  0  0  0  0  0  0  0  0  0
    6.5264   -0.7119   -0.0711 C   0  0  0  0  0  0  0  0  0  0  0  0
    7.9067   -1.2304    0.1322 C   0  0  0  0  0  0  0  0  0  0  0  0
    8.5169   -1.8759   -0.7062 O   0  0  0  0  0  0  0  0  0  0  0  0
    8.3747   -0.8847    1.3584 O   0  0  0  0  0  0  0  0  0  0  0  0
    9.6971   -1.3517    1.6265 C   0  0  0  0  0  0  0  0  0  0  0  0
    5.8521    0.0344    0.9037 C   0  0  0  0  0  0  0  0  0  0  0  0
    4.5554    0.4971    0.6610 C   0  0  0  0  0  0  0  0  0  0  0  0
   -0.0705    1.2627   -1.0084 N   0  0  0  0  0  0  0  0  0  0  0  0
   -1.3384    1.5186   -1.1106 C   0  0  0  0  0  0  0  0  0  0  0  0
   -1.9276    2.5866   -1.7930 N   0  0  0  0  0  0  0  0  0  0  0  0
   -1.3144    3.1420   -2.9842 C   0  0  0  0  0  0  0  0  0  0  0  0
   -3.8933    3.1438   -1.5851 H   0  0  0  0  0  0  0  0  0  0  0  0
   -4.5616    0.9831   -0.7566 H   0  0  0  0  0  0  0  0  0  0  0  0
   -4.4579   -2.7674   -0.3760 H   0  0  0  0  0  0  0  0  0  0  0  0
   -6.9189   -2.6215   -0.2583 H   0  0  0  0  0  0  0  0  0  0  0  0
   -8.7753   -1.6467    2.0796 H   0  0  0  0  0  0  0  0  0  0  0  0
   -8.7571    0.0540    1.5501 H   0  0  0  0  0  0  0  0  0  0  0  0
   -8.8926   -1.2319    0.3514 H   0  0  0  0  0  0  0  0  0  0  0  0
   -6.5962    0.5104    2.6806 H   0  0  0  0  0  0  0  0  0  0  0  0
   -4.5080    0.9181    3.3962 H   0  0  0  0  0  0  0  0  0  0  0  0
   -0.2757   -1.4063    0.8762 H   0  0  0  0  0  0  0  0  0  0  0  0
    2.4336    1.7479   -0.4266 H   0  0  0  0  0  0  0  0  0  0  0  0
    2.3285    0.7530   -1.8867 H   0  0  0  0  0  0  0  0  0  0  0  0
    4.1038   -0.7696   -2.4679 H   0  0  0  0  0  0  0  0  0  0  0  0
    6.3932   -1.5795   -2.0496 H   0  0  0  0  0  0  0  0  0  0  0  0
    9.7313   -2.4453    1.5974 H   0  0  0  0  0  0  0  0  0  0  0  0
   10.4077   -0.9216    0.9137 H   0  0  0  0  0  0  0  0  0  0  0  0
    9.9746   -1.0237    2.6321 H   0  0  0  0  0  0  0  0  0  0  0  0
    6.3178    0.2593    1.8594 H   0  0  0  0  0  0  0  0  0  0  0  0
    4.0342    1.0623    1.4311 H   0  0  0  0  0  0  0  0  0  0  0  0
   -1.3009    2.4054   -3.7944 H   0  0  0  0  0  0  0  0  0  0  0  0
   -0.2861    3.4561   -2.7784 H   0  0  0  0  0  0  0  0  0  0  0  0
   -1.8701    4.0222   -3.3237 H   0  0  0  0  0  0  0  0  0  0  0  0
  1  2  1  0
  2  3  2  0
  3  4  1  0
  4  5  2  3
  5  6  1  0
  6  7  2  0
  7  8  1  0
  8  9  2  0
  9 10  1  0
  9 11  1  0
 11 12  2  0
 12 13  1  0
  4 14  1  0
 14 15  1  0
 15 16  2  3
 16 17  1  0
 17 18  1  0
 18 19  2  0
 19 20  1  0
 20 21  2  0
 21 22  1  0
 22 23  2  0
 22 24  1  0
 24 25  1  0
 21 26  1  0
 26 27  2  0
 15 28  1  0
 28 29  2  0
 29 30  1  0
 30 31  1  0
 30  1  1  0
 29  3  1  0
 12  6  1  0
 27 18  1  0
  1 32  1  0
  2 33  1  0
  7 34  1  0
  8 35  1  0
 10 36  1  0
 10 37  1  0
 10 38  1  0
 11 39  1  0
 13 40  1  0
 14 41  1  0
 17 42  1  0
 17 43  1  0
 19 44  1  0
 20 45  1  0
 25 46  1  0
 25 47  1  0
 25 48  1  0
 26 49  1  0
 27 50  1  0
 31 51  1  0
 31 52  1  0
 31 53  1  0
M  END
>  <ScrubInfo>  (8) 
{"isomerGroup": 0, "isomerId": 7, "confId": 0, "nr_conformers:": 1, "nr_isomers:": 9}

$$$$
_i8
     RDKit          3D

 53 56  0  0  0  0  0  0  0  0999 V2000
    0.6046   -0.0626   -1.4780 N   0  0  0  0  0  0  0  0  0  0  0  0
    0.4918    1.3003   -1.6981 C   0  0  0  0  0  0  0  0  0  0  0  0
    1.4097    2.1250   -2.0754 N   0  0  0  0  0  0  0  0  0  0  0  0
    2.7537    1.6267   -2.3703 C   0  0  0  0  0  0  0  0  0  0  0  0
    3.5455    1.1594   -1.1685 C   0  0  0  0  0  0  0  0  0  0  0  0
    3.4198    1.7947    0.0742 C   0  0  0  0  0  0  0  0  0  0  0  0
    4.1667    1.3630    1.1735 C   0  0  0  0  0  0  0  0  0  0  0  0
    5.0642    0.2964    1.0441 C   0  0  0  0  0  0  0  0  0  0  0  0
    5.8367   -0.1231    2.2456 C   0  0  0  0  0  0  0  0  0  0  0  0
    5.7398    0.4190    3.3351 O   0  0  0  0  0  0  0  0  0  0  0  0
    6.6402   -1.1771    1.9537 O   0  0  0  0  0  0  0  0  0  0  0  0
    7.4172   -1.6357    3.0611 C   0  0  0  0  0  0  0  0  0  0  0  0
    5.2094   -0.3294   -0.2007 C   0  0  0  0  0  0  0  0  0  0  0  0
    4.4592    0.1035   -1.2989 C   0  0  0  0  0  0  0  0  0  0  0  0
   -0.7776    1.7840   -1.4671 N   0  0  0  0  0  0  0  0  0  0  0  0
   -1.9352    1.1688   -1.0393 C   0  0  0  0  0  0  0  0  0  0  0  0
   -3.0318    1.8468   -0.8828 N   0  0  0  0  0  0  0  0  0  0  0  0
   -4.2025    1.2625   -0.3851 C   0  0  0  0  0  0  0  0  0  0  0  0
   -5.2281    0.9288   -1.2723 C   0  0  0  0  0  0  0  0  0  0  0  0
   -6.4244    0.3790   -0.8031 C   0  0  0  0  0  0  0  0  0  0  0  0
   -6.6156    0.1588    0.5667 C   0  0  0  0  0  0  0  0  0  0  0  0
   -7.9139   -0.4007    1.0698 C   0  0  0  0  0  0  0  0  0  0  0  0
   -5.6055    0.5253    1.4660 C   0  0  0  0  0  0  0  0  0  0  0  0
   -4.4125    1.0731    0.9898 C   0  0  0  0  0  0  0  0  0  0  0  0
   -3.4184    1.4168    1.8685 O   0  0  0  0  0  0  0  0  0  0  0  0
   -1.7155   -0.2532   -0.8318 C   0  0  0  0  0  0  0  0  0  0  0  0
   -2.4760   -1.3737   -0.4488 C   0  0  0  0  0  0  0  0  0  0  0  0
   -1.7580   -2.5074   -0.4154 N   0  0  0  0  0  0  0  0  0  0  0  0
   -0.5170   -2.1100   -0.7701 N   0  0  0  0  0  0  0  0  0  0  0  0
    0.5459   -3.0810   -0.8331 C   0  0  0  0  0  0  0  0  0  0  0  0
   -0.4610   -0.7801   -1.0539 C   0  0  0  0  0  0  0  0  0  0  0  0
    1.5274   -0.4666   -1.5608 H   0  0  0  0  0  0  0  0  0  0  0  0
    3.3187    2.4401   -2.8415 H   0  0  0  0  0  0  0  0  0  0  0  0
    2.6903    0.8286   -3.1214 H   0  0  0  0  0  0  0  0  0  0  0  0
    2.7324    2.6314    0.1932 H   0  0  0  0  0  0  0  0  0  0  0  0
    4.0459    1.8679    2.1305 H   0  0  0  0  0  0  0  0  0  0  0  0
    8.0271   -2.4772    2.7212 H   0  0  0  0  0  0  0  0  0  0  0  0
    8.0855   -0.8443    3.4149 H   0  0  0  0  0  0  0  0  0  0  0  0
    6.7656   -1.9841    3.8686 H   0  0  0  0  0  0  0  0  0  0  0  0
    5.9103   -1.1500   -0.3339 H   0  0  0  0  0  0  0  0  0  0  0  0
    4.6013   -0.3860   -2.2606 H   0  0  0  0  0  0  0  0  0  0  0  0
   -0.8739    2.7792   -1.6064 H   0  0  0  0  0  0  0  0  0  0  0  0
   -5.0934    1.1040   -2.3362 H   0  0  0  0  0  0  0  0  0  0  0  0
   -7.2074    0.1292   -1.5160 H   0  0  0  0  0  0  0  0  0  0  0  0
   -8.6155    0.4125    1.2793 H   0  0  0  0  0  0  0  0  0  0  0  0
   -7.7599   -0.9811    1.9856 H   0  0  0  0  0  0  0  0  0  0  0  0
   -8.3618   -1.0736    0.3310 H   0  0  0  0  0  0  0  0  0  0  0  0
   -5.7573    0.3777    2.5313 H   0  0  0  0  0  0  0  0  0  0  0  0
   -3.7404    1.2881    2.7740 H   0  0  0  0  0  0  0  0  0  0  0  0
   -3.5245   -1.4338   -0.1931 H   0  0  0  0  0  0  0  0  0  0  0  0
    1.4895   -2.6016   -0.5615 H   0  0  0  0  0  0  0  0  0  0  0  0
    0.3357   -3.8905   -0.1291 H   0  0  0  0  0  0  0  0  0  0  0  0
    0.5929   -3.4679   -1.8538 H   0  0  0  0  0  0  0  0  0  0  0  0
  1  2  1  0
  2  3  2  3
  3  4  1  0
  4  5  1  0
  5  6  2  0
  6  7  1  0
  7  8  2  0
  8  9  1  0
  9 10  2  0
  9 11  1  0
 11 12  1  0
  8 13  1  0
 13 14  2  0
  2 15  1  0
 15 16  1  0
 16 17  2  3
 17 18  1  0
 18 19  2  0
 19 20  1  0
 20 21  2  0
 21 22  1  0
 21 23  1  0
 23 24  2  0
 24 25  1  0
 16 26  1  0
 26 27  1  0
 27 28  2  0
 28 29  1  0
 29 30  1  0
 29 31  1  0
 31  1  1  0
 14  5  1  0
 24 18  1  0
 31 26  2  0
  1 32  1  0
  4 33  1  0
  4 34  1  0
  6 35  1  0
  7 36  1  0
 12 37  1  0
 12 38  1  0
 12 39  1  0
 13 40  1  0
 14 41  1  0
 15 42  1  0
 19 43  1  0
 20 44  1  0
 22 45  1  0
 22 46  1  0
 22 47  1  0
 23 48  1  0
 25 49  1  0
 27 50  1  0
 30 51  1  0
 30 52  1  0
 30 53  1  0
M  END
>  <ScrubInfo>  (9) 
{"isomerGroup": 0, "isomerId": 8, "confId": 0, "nr_conformers:": 1, "nr_isomers:": 9}

$$$$
