REMARK SMILES COC(=O)c1ccc(CNc2nc(Nc3ccc(C)cc3O)c3cnn(C)c3n2)cc1
REMARK SMILES IDX 10 1 9 3 8 4 5 5 6 6 31 7 7 8 30 9 3 10 4 11 2 12 1 13 11 14
REMARK SMILES IDX 12 15 29 16 13 17 28 18 23 19 26 20 24 21 25 22 27 23 14 24
REMARK SMILES IDX 15 26 16 27 21 28 17 29 20 30 18 31 19 32 22 33
REMARK H PARENT 10 2 14 25 22 34
ROOT
ATOM      1  N   UNL     1       1.191  -1.144  -0.343  1.00  0.00    -0.350 N 
ATOM      2  H   UNL     1       1.905  -1.817  -0.086  1.00  0.00     0.164 HD
ENDROOT
BRANCH   1   3
ATOM      3  C   UNL     1       1.145   0.039   0.490  1.00  0.00     0.152 C 
BRANCH   3   4
ATOM      4  C   UNL     1       2.545   0.597   0.628  1.00  0.00    -0.029 A 
ATOM      5  C   UNL     1       5.160   1.621   0.860  1.00  0.00     0.060 A 
ATOM      6  C   UNL     1       4.535   1.016   1.958  1.00  0.00     0.016 A 
ATOM      7  C   UNL     1       4.473   1.709  -0.358  1.00  0.00     0.016 A 
ATOM      8  C   UNL     1       3.238   0.505   1.843  1.00  0.00     0.006 A 
ATOM      9  C   UNL     1       3.177   1.198  -0.471  1.00  0.00     0.006 A 
BRANCH   5  10
ATOM     10  C   UNL     1       6.541   2.146   1.039  1.00  0.00     0.337 C 
ATOM     11  O   UNL     1       7.158   2.074   2.091  1.00  0.00    -0.246 OA
BRANCH  10  12
ATOM     12  O   UNL     1       6.997   2.703  -0.111  1.00  0.00    -0.465 OA
ATOM     13  C   UNL     1       8.321   3.229  -0.015  1.00  0.00     0.282 C 
ENDBRANCH  10  12
ENDBRANCH   5  10
ENDBRANCH   3   4
ENDBRANCH   1   3
BRANCH   1  14
ATOM     14  C   UNL     1      -0.008  -1.845  -0.389  1.00  0.00     0.227 A 
ATOM     15  N   UNL     1      -1.172  -1.170  -0.348  1.00  0.00    -0.195 NA
ATOM     16  N   UNL     1       0.121  -3.175  -0.463  1.00  0.00    -0.193 NA
ATOM     17  C   UNL     1      -2.363  -1.825  -0.390  1.00  0.00     0.147 A 
ATOM     18  C   UNL     1      -1.060  -3.808  -0.506  1.00  0.00     0.165 A 
ATOM     19  C   UNL     1      -2.310  -3.221  -0.472  1.00  0.00     0.082 A 
ATOM     20  N   UNL     1      -1.278  -5.156  -0.591  1.00  0.00    -0.250 N 
ATOM     21  C   UNL     1      -3.208  -4.308  -0.537  1.00  0.00     0.149 A 
ATOM     22  N   UNL     1      -2.589  -5.492  -0.605  1.00  0.00    -0.179 NA
ATOM     23  C   UNL     1      -0.279  -6.192  -0.662  1.00  0.00     0.176 C 
BRANCH  17  24
ATOM     24  N   UNL     1      -3.584  -1.149  -0.337  1.00  0.00    -0.336 N 
ATOM     25  H   UNL     1      -4.412  -1.736  -0.300  1.00  0.00     0.168 HD
BRANCH  24  26
ATOM     26  C   UNL     1      -3.937   0.211  -0.297  1.00  0.00     0.082 A 
ATOM     27  C   UNL     1      -3.030   1.266  -0.399  1.00  0.00     0.030 A 
ATOM     28  C   UNL     1      -5.296   0.535  -0.131  1.00  0.00     0.139 A 
ATOM     29  C   UNL     1      -3.465   2.597  -0.339  1.00  0.00     0.006 A 
ATOM     30  C   UNL     1      -5.743   1.856  -0.070  1.00  0.00     0.051 A 
ATOM     31  C   UNL     1      -4.823   2.902  -0.186  1.00  0.00    -0.047 A 
ATOM     32  C   UNL     1      -5.273   4.329  -0.090  1.00  0.00     0.044 C 
BRANCH  28  33
ATOM     33  O   UNL     1      -6.191  -0.506  -0.029  1.00  0.00    -0.506 OA
ATOM     34  H   UNL     1      -7.079  -0.127   0.085  1.00  0.00     0.293 HD
ENDBRANCH  28  33
ENDBRANCH  24  26
ENDBRANCH  17  24
ENDBRANCH   1  14
TORSDOF 8
