REMARK SMILES Cn1ncc2c(Nc3cccc(Br)c3)nc(NCC[NH+](C)C)nc21
REMARK SMILES IDX 17 1 18 3 19 4 20 5 21 6 22 7 16 9 15 10 23 11 6 12 24 13
REMARK SMILES IDX 5 14 2 15 4 16 3 17 1 18 7 19 8 21 9 22 14 23 10 24 12 25
REMARK SMILES IDX 11 26 13 27
REMARK H PARENT 17 2 20 8 7 20
ROOT
ATOM      1  N   UNL     1       0.995  -0.965   0.761  1.00  0.00    -0.348 N 
ATOM      2  H   UNL     1       0.427  -1.802   0.897  1.00  0.00     0.163 HD
ENDROOT
BRANCH   1   3
ATOM      3  C   UNL     1       2.207  -1.148  -0.014  1.00  0.00     0.177 C 
BRANCH   3   4
ATOM      4  C   UNL     1       3.269  -0.086   0.345  1.00  0.00     0.283 C 
BRANCH   4   5
ATOM      5  N   UNL     1       4.676  -0.516  -0.060  1.00  0.00    -0.338 N 
ATOM      6  C   UNL     1       5.711   0.387   0.560  1.00  0.00     0.332 C 
ATOM      7  C   UNL     1       4.861  -0.613  -1.548  1.00  0.00     0.332 C 
ATOM      8  H   UNL     1       4.838  -1.451   0.339  1.00  0.00     0.347 HD
ENDBRANCH   4   5
ENDBRANCH   3   4
ENDBRANCH   1   3
BRANCH   1   9
ATOM      9  C   UNL     1       0.094  -0.031   0.257  1.00  0.00     0.226 A 
ATOM     10  N   UNL     1      -1.191  -0.370   0.422  1.00  0.00    -0.195 NA
ATOM     11  N   UNL     1       0.551   1.081  -0.336  1.00  0.00    -0.193 NA
ATOM     12  C   UNL     1      -2.193   0.443  -0.005  1.00  0.00     0.147 A 
ATOM     13  C   UNL     1      -0.449   1.879  -0.753  1.00  0.00     0.165 A 
ATOM     14  C   UNL     1      -1.806   1.635  -0.631  1.00  0.00     0.082 A 
ATOM     15  N   UNL     1      -0.344   3.093  -1.379  1.00  0.00    -0.250 N 
ATOM     16  C   UNL     1      -2.420   2.756  -1.225  1.00  0.00     0.149 A 
ATOM     17  N   UNL     1      -1.536   3.644  -1.690  1.00  0.00    -0.179 NA
ATOM     18  C   UNL     1       0.864   3.800  -1.719  1.00  0.00     0.176 C 
BRANCH  12  19
ATOM     19  N   UNL     1      -3.542   0.094   0.145  1.00  0.00    -0.339 N 
ATOM     20  H   UNL     1      -4.188   0.756  -0.265  1.00  0.00     0.168 HD
BRANCH  19  21
ATOM     21  C   UNL     1      -4.173  -0.968   0.818  1.00  0.00     0.041 A 
ATOM     22  C   UNL     1      -5.544  -1.183   0.590  1.00  0.00     0.026 A 
ATOM     23  C   UNL     1      -3.508  -1.859   1.666  1.00  0.00     0.041 A 
ATOM     24  C   UNL     1      -6.228  -2.241   1.198  1.00  0.00     0.003 A 
ATOM     25  C   UNL     1      -4.191  -2.917   2.272  1.00  0.00     0.020 A 
ATOM     26  C   UNL     1      -5.549  -3.113   2.043  1.00  0.00     0.016 A 
ATOM     27  Br  UNL     1      -3.256  -4.099   3.417  1.00  0.00    -0.051 Br
ENDBRANCH  19  21
ENDBRANCH  12  19
ENDBRANCH   1   9
TORSDOF 6
