_i0
     RDKit          3D

 45 47  0  0  0  0  0  0  0  0999 V2000
    5.7107    0.3867    0.5602 C   0  0  0  0  0  0  0  0  0  0  0  0
    4.6762   -0.5163   -0.0598 N   0  0  0  0  0  4  0  0  0  0  0  0
    4.8610   -0.6130   -1.5483 C   0  0  0  0  0  0  0  0  0  0  0  0
    3.2695   -0.0859    0.3449 C   0  0  0  0  0  0  0  0  0  0  0  0
    2.2071   -1.1477   -0.0140 C   0  0  0  0  0  0  0  0  0  0  0  0
    0.9951   -0.9650    0.7606 N   0  0  0  0  0  0  0  0  0  0  0  0
    0.0942   -0.0311    0.2573 C   0  0  0  0  0  0  0  0  0  0  0  0
   -1.1906   -0.3703    0.4224 N   0  0  0  0  0  0  0  0  0  0  0  0
    0.5508    1.0813   -0.3359 N   0  0  0  0  0  0  0  0  0  0  0  0
   -2.1928    0.4432   -0.0048 C   0  0  0  0  0  0  0  0  0  0  0  0
   -0.4489    1.8789   -0.7528 C   0  0  0  0  0  0  0  0  0  0  0  0
   -3.5421    0.0943    0.1450 N   0  0  0  0  0  0  0  0  0  0  0  0
   -1.8056    1.6347   -0.6307 C   0  0  0  0  0  0  0  0  0  0  0  0
   -0.3443    3.0927   -1.3791 N   0  0  0  0  0  0  0  0  0  0  0  0
   -4.1735   -0.9682    0.8183 C   0  0  0  0  0  0  0  0  0  0  0  0
   -2.4201    2.7565   -1.2252 C   0  0  0  0  0  0  0  0  0  0  0  0
   -1.5361    3.6445   -1.6899 N   0  0  0  0  0  0  0  0  0  0  0  0
    0.8642    3.8003   -1.7187 C   0  0  0  0  0  0  0  0  0  0  0  0
   -5.5443   -1.1835    0.5901 C   0  0  0  0  0  0  0  0  0  0  0  0
   -3.5079   -1.8595    1.6660 C   0  0  0  0  0  0  0  0  0  0  0  0
   -6.2283   -2.2411    1.1980 C   0  0  0  0  0  0  0  0  0  0  0  0
   -4.1914   -2.9175    2.2725 C   0  0  0  0  0  0  0  0  0  0  0  0
   -5.5494   -3.1127    2.0434 C   0  0  0  0  0  0  0  0  0  0  0  0
   -3.2556   -4.0986    3.4169 Br  0  0  0  0  0  0  0  0  0  0  0  0
    6.6991    0.0040    0.2925 H   0  0  0  0  0  0  0  0  0  0  0  0
    5.5839    0.3547    1.6455 H   0  0  0  0  0  0  0  0  0  0  0  0
    5.5643    1.3998    0.1760 H   0  0  0  0  0  0  0  0  0  0  0  0
    4.8377   -1.4514    0.3385 H   0  0  0  0  0  0  0  0  0  0  0  0
    4.6491    0.3637   -1.9912 H   0  0  0  0  0  0  0  0  0  0  0  0
    5.8936   -0.9148   -1.7436 H   0  0  0  0  0  0  0  0  0  0  0  0
    4.1810   -1.3765   -1.9321 H   0  0  0  0  0  0  0  0  0  0  0  0
    3.2939    0.0611    1.4311 H   0  0  0  0  0  0  0  0  0  0  0  0
    3.0798    0.8787   -0.1362 H   0  0  0  0  0  0  0  0  0  0  0  0
    2.0017   -1.1582   -1.0916 H   0  0  0  0  0  0  0  0  0  0  0  0
    2.6053   -2.1387    0.2353 H   0  0  0  0  0  0  0  0  0  0  0  0
    0.4266   -1.8016    0.8970 H   0  0  0  0  0  0  0  0  0  0  0  0
   -4.1883    0.7560   -0.2646 H   0  0  0  0  0  0  0  0  0  0  0  0
   -3.4755    2.9680   -1.3415 H   0  0  0  0  0  0  0  0  0  0  0  0
    1.7358    3.2248   -1.3987 H   0  0  0  0  0  0  0  0  0  0  0  0
    0.8520    4.7673   -1.2095 H   0  0  0  0  0  0  0  0  0  0  0  0
    0.8894    3.9385   -2.8025 H   0  0  0  0  0  0  0  0  0  0  0  0
   -6.1013   -0.5270   -0.0749 H   0  0  0  0  0  0  0  0  0  0  0  0
   -2.4537   -1.7323    1.8828 H   0  0  0  0  0  0  0  0  0  0  0  0
   -7.2892   -2.3845    1.0070 H   0  0  0  0  0  0  0  0  0  0  0  0
   -6.0831   -3.9341    2.5141 H   0  0  0  0  0  0  0  0  0  0  0  0
  1  2  1  0
  2  3  1  0
  2  4  1  0
  4  5  1  0
  5  6  1  0
  6  7  1  0
  7  8  2  0
  9  7  1  0
  8 10  1  0
 11  9  2  0
 10 12  1  0
 10 13  2  0
 14 11  1  0
 11 13  1  0
 12 15  1  0
 13 16  1  0
 17 14  1  0
 14 18  1  0
 15 19  2  0
 20 15  1  0
 16 17  2  0
 19 21  1  0
 22 20  2  0
 21 23  2  0
 23 22  1  0
 22 24  1  0
  1 25  1  0
  1 26  1  0
  1 27  1  0
  2 28  1  0
  3 29  1  0
  3 30  1  0
  3 31  1  0
  4 32  1  0
  4 33  1  0
  5 34  1  0
  5 35  1  0
  6 36  1  0
 12 37  1  0
 16 38  1  0
 18 39  1  0
 18 40  1  0
 18 41  1  0
 19 42  1  0
 20 43  1  0
 21 44  1  0
 23 45  1  0
M  CHG  1   2   1
M  END
>  <ScrubInfo>  (1) 
{"isomerGroup": 0, "isomerId": 0, "confId": 0, "nr_conformers:": 1, "nr_isomers:": 9}

$$$$
_i1
     RDKit          3D

 45 47  0  0  0  0  0  0  0  0999 V2000
   -0.1903    0.3160    0.8680 N   0  0  0  0  0  0  0  0  0  0  0  0
   -1.5234   -0.0085    0.6670 C   0  0  0  0  0  0  0  0  0  0  0  0
   -2.5271    0.7990    1.1613 N   0  0  0  0  0  0  0  0  0  0  0  0
   -3.6256    1.3396    0.4545 C   0  0  0  0  0  0  0  0  0  0  0  0
   -3.7716    1.2508   -0.9368 C   0  0  0  0  0  0  0  0  0  0  0  0
   -4.9067    1.7611   -1.5757 C   0  0  0  0  0  0  0  0  0  0  0  0
   -5.9194    2.3600   -0.8308 C   0  0  0  0  0  0  0  0  0  0  0  0
   -5.7918    2.4429    0.5517 C   0  0  0  0  0  0  0  0  0  0  0  0
   -7.1648    3.2447    1.5742 Br  0  0  0  0  0  0  0  0  0  0  0  0
   -4.6601    1.9344    1.1927 C   0  0  0  0  0  0  0  0  0  0  0  0
   -1.7456   -1.1708    0.0404 C   0  0  0  0  0  0  0  0  0  0  0  0
   -2.8941   -2.0047   -0.3346 C   0  0  0  0  0  0  0  0  0  0  0  0
   -2.5409   -3.1116   -0.9381 N   0  0  0  0  0  0  0  0  0  0  0  0
   -1.1410   -3.0614   -1.0351 N   0  0  0  0  0  0  0  0  0  0  0  0
   -0.4305   -4.2782   -1.3497 C   0  0  0  0  0  0  0  0  0  0  0  0
   -0.5810   -1.9567   -0.4166 C   0  0  0  0  0  0  0  0  0  0  0  0
    0.6552   -1.6315   -0.2380 N   0  0  0  0  0  0  0  0  0  0  0  0
    0.8647   -0.4440    0.4196 C   0  0  0  0  0  0  0  0  0  0  0  0
    2.1172   -0.1768    0.5263 N   0  0  0  0  0  0  0  0  0  0  0  0
    2.5630    1.0475    1.1891 C   0  0  0  0  0  0  0  0  0  0  0  0
    4.0911    0.9255    1.3536 C   0  0  0  0  0  0  0  0  0  0  0  0
    4.6396    0.1492    0.1676 N   0  0  0  0  0  4  0  0  0  0  0  0
    4.8443    0.9820   -1.0558 C   0  0  0  0  0  0  0  0  0  0  0  0
    5.8222   -0.6962    0.5034 C   0  0  0  0  0  0  0  0  0  0  0  0
   -0.0194    1.2230    1.2688 H   0  0  0  0  0  0  0  0  0  0  0  0
   -2.2590    1.3851    1.9459 H   0  0  0  0  0  0  0  0  0  0  0  0
   -2.9993    0.8060   -1.5582 H   0  0  0  0  0  0  0  0  0  0  0  0
   -5.0003    1.6902   -2.6573 H   0  0  0  0  0  0  0  0  0  0  0  0
   -6.7997    2.7524   -1.3341 H   0  0  0  0  0  0  0  0  0  0  0  0
   -4.5929    1.9905    2.2765 H   0  0  0  0  0  0  0  0  0  0  0  0
   -3.9220   -1.7057   -0.0924 H   0  0  0  0  0  0  0  0  0  0  0  0
   -0.2927   -4.8828   -0.4479 H   0  0  0  0  0  0  0  0  0  0  0  0
   -0.9843   -4.8717   -2.0843 H   0  0  0  0  0  0  0  0  0  0  0  0
    0.5537   -4.0558   -1.7741 H   0  0  0  0  0  0  0  0  0  0  0  0
    2.0998    1.1850    2.1721 H   0  0  0  0  0  0  0  0  0  0  0  0
    2.3293    1.9159    0.5632 H   0  0  0  0  0  0  0  0  0  0  0  0
    4.3104    0.3357    2.2505 H   0  0  0  0  0  0  0  0  0  0  0  0
    4.5994    1.8923    1.4193 H   0  0  0  0  0  0  0  0  0  0  0  0
    3.8485   -0.4968   -0.0485 H   0  0  0  0  0  0  0  0  0  0  0  0
    5.6498    1.6945   -0.8594 H   0  0  0  0  0  0  0  0  0  0  0  0
    3.9118    1.5034   -1.2850 H   0  0  0  0  0  0  0  0  0  0  0  0
    5.1068    0.3158   -1.8819 H   0  0  0  0  0  0  0  0  0  0  0  0
    6.6439   -0.0398    0.8018 H   0  0  0  0  0  0  0  0  0  0  0  0
    5.5436   -1.3700    1.3179 H   0  0  0  0  0  0  0  0  0  0  0  0
    6.0895   -1.2799   -0.3814 H   0  0  0  0  0  0  0  0  0  0  0  0
  1  2  1  0
  2  3  1  0
  3  4  1  0
  4  5  2  0
  5  6  1  0
  6  7  2  0
  7  8  1  0
  8  9  1  0
  8 10  2  0
  2 11  2  0
 11 12  1  0
 12 13  2  0
 13 14  1  0
 14 15  1  0
 14 16  1  0
 16 17  2  0
 17 18  1  0
 18 19  2  3
 19 20  1  0
 20 21  1  0
 21 22  1  0
 22 23  1  0
 22 24  1  0
 18  1  1  0
 10  4  1  0
 16 11  1  0
  1 25  1  0
  3 26  1  0
  5 27  1  0
  6 28  1  0
  7 29  1  0
 10 30  1  0
 12 31  1  0
 15 32  1  0
 15 33  1  0
 15 34  1  0
 20 35  1  0
 20 36  1  0
 21 37  1  0
 21 38  1  0
 22 39  1  0
 23 40  1  0
 23 41  1  0
 23 42  1  0
 24 43  1  0
 24 44  1  0
 24 45  1  0
M  CHG  1  22   1
M  END
>  <ScrubInfo>  (2) 
{"isomerGroup": 0, "isomerId": 1, "confId": 0, "nr_conformers:": 1, "nr_isomers:": 9}

$$$$
_i2
     RDKit          3D

 45 47  0  0  0  0  0  0  0  0999 V2000
   -1.1075    0.3120    0.5654 N   0  0  0  0  0  0  0  0  0  0  0  0
   -0.0438    0.8782    1.2235 C   0  0  0  0  0  0  0  0  0  0  0  0
    0.6299    0.0342    2.0626 N   0  0  0  0  0  0  0  0  0  0  0  0
    1.4781   -1.0080    1.4780 C   0  0  0  0  0  0  0  0  0  0  0  0
    2.5642   -0.4163    0.5469 C   0  0  0  0  0  0  0  0  0  0  0  0
    3.4111   -1.4869   -0.1264 N   0  0  0  0  0  4  0  0  0  0  0  0
    4.2141   -0.8944   -1.2609 C   0  0  0  0  0  0  0  0  0  0  0  0
    4.3046   -2.2386    0.8230 C   0  0  0  0  0  0  0  0  0  0  0  0
    0.3919    2.0982    1.0511 N   0  0  0  0  0  0  0  0  0  0  0  0
   -0.3717    2.7621    0.1353 C   0  0  0  0  0  0  0  0  0  0  0  0
   -1.4620    2.2844   -0.5697 C   0  0  0  0  0  0  0  0  0  0  0  0
   -1.8716    3.3468   -1.3863 C   0  0  0  0  0  0  0  0  0  0  0  0
   -1.0965    4.4272   -1.2302 N   0  0  0  0  0  0  0  0  0  0  0  0
   -0.2182    4.0613   -0.2676 N   0  0  0  0  0  0  0  0  0  0  0  0
    0.7432    5.0241    0.2084 C   0  0  0  0  0  0  0  0  0  0  0  0
   -1.9309    0.9395   -0.3479 C   0  0  0  0  0  0  0  0  0  0  0  0
   -2.9782    0.5324   -0.9801 N   0  0  0  0  0  0  0  0  0  0  0  0
   -3.4357   -0.7695   -0.7467 C   0  0  0  0  0  0  0  0  0  0  0  0
   -3.1632   -1.7769   -1.6765 C   0  0  0  0  0  0  0  0  0  0  0  0
   -3.6160   -3.0802   -1.4625 C   0  0  0  0  0  0  0  0  0  0  0  0
   -4.3513   -3.3806   -0.3162 C   0  0  0  0  0  0  0  0  0  0  0  0
   -4.6405   -2.3719    0.6017 C   0  0  0  0  0  0  0  0  0  0  0  0
   -5.6434   -2.7753    2.1518 Br  0  0  0  0  0  0  0  0  0  0  0  0
   -4.1944   -1.0684    0.3881 C   0  0  0  0  0  0  0  0  0  0  0  0
   -1.4542   -0.5576    0.9411 H   0  0  0  0  0  0  0  0  0  0  0  0
    1.1814    0.6153    2.6981 H   0  0  0  0  0  0  0  0  0  0  0  0
    0.8569   -1.7212    0.9239 H   0  0  0  0  0  0  0  0  0  0  0  0
    1.9432   -1.5584    2.3016 H   0  0  0  0  0  0  0  0  0  0  0  0
    2.0933    0.1523   -0.2623 H   0  0  0  0  0  0  0  0  0  0  0  0
    3.2428    0.2484    1.0936 H   0  0  0  0  0  0  0  0  0  0  0  0
    2.7742   -2.1690   -0.5610 H   0  0  0  0  0  0  0  0  0  0  0  0
    4.9003   -0.1496   -0.8489 H   0  0  0  0  0  0  0  0  0  0  0  0
    4.7601   -1.7057   -1.7495 H   0  0  0  0  0  0  0  0  0  0  0  0
    3.5166   -0.4398   -1.9694 H   0  0  0  0  0  0  0  0  0  0  0  0
    4.8855   -2.9612    0.2434 H   0  0  0  0  0  0  0  0  0  0  0  0
    3.6764   -2.7714    1.5396 H   0  0  0  0  0  0  0  0  0  0  0  0
    4.9604   -1.5232    1.3260 H   0  0  0  0  0  0  0  0  0  0  0  0
   -2.6951    3.3813   -2.0889 H   0  0  0  0  0  0  0  0  0  0  0  0
    0.2020    5.9017    0.5711 H   0  0  0  0  0  0  0  0  0  0  0  0
    1.3329    4.5933    1.0204 H   0  0  0  0  0  0  0  0  0  0  0  0
    1.3978    5.2951   -0.6238 H   0  0  0  0  0  0  0  0  0  0  0  0
   -2.6145   -1.5366   -2.5838 H   0  0  0  0  0  0  0  0  0  0  0  0
   -3.4150   -3.8553   -2.1982 H   0  0  0  0  0  0  0  0  0  0  0  0
   -4.7123   -4.3944   -0.1583 H   0  0  0  0  0  0  0  0  0  0  0  0
   -4.4450   -0.2772    1.0901 H   0  0  0  0  0  0  0  0  0  0  0  0
  1  2  1  0
  2  3  1  0
  3  4  1  0
  4  5  1  0
  5  6  1  0
  6  7  1  0
  6  8  1  0
  2  9  2  0
  9 10  1  0
 10 11  2  0
 11 12  1  0
 12 13  2  0
 13 14  1  0
 14 15  1  0
 11 16  1  0
 16 17  2  3
 17 18  1  0
 18 19  2  0
 19 20  1  0
 20 21  2  0
 21 22  1  0
 22 23  1  0
 22 24  2  0
 16  1  1  0
 24 18  1  0
 14 10  1  0
  1 25  1  0
  3 26  1  0
  4 27  1  0
  4 28  1  0
  5 29  1  0
  5 30  1  0
  6 31  1  0
  7 32  1  0
  7 33  1  0
  7 34  1  0
  8 35  1  0
  8 36  1  0
  8 37  1  0
 12 38  1  0
 15 39  1  0
 15 40  1  0
 15 41  1  0
 19 42  1  0
 20 43  1  0
 21 44  1  0
 24 45  1  0
M  CHG  1   6   1
M  END
>  <ScrubInfo>  (3) 
{"isomerGroup": 0, "isomerId": 2, "confId": 0, "nr_conformers:": 1, "nr_isomers:": 9}

$$$$
_i3
     RDKit          3D

 45 47  0  0  0  0  0  0  0  0999 V2000
    0.4384    1.1136   -0.2423 N   0  0  0  0  0  0  0  0  0  0  0  0
    0.5333   -0.0114    0.5602 C   0  0  0  0  0  0  0  0  0  0  0  0
    1.5924   -0.7035    0.7855 N   0  0  0  0  0  0  0  0  0  0  0  0
    2.8660   -0.3590    0.1842 C   0  0  0  0  0  0  0  0  0  0  0  0
    3.8802   -1.4124    0.6616 C   0  0  0  0  0  0  0  0  0  0  0  0
    5.2828   -1.2152    0.1247 N   0  0  0  0  0  4  0  0  0  0  0  0
    5.3957   -1.3965   -1.3602 C   0  0  0  0  0  0  0  0  0  0  0  0
    5.9500    0.0363    0.6133 C   0  0  0  0  0  0  0  0  0  0  0  0
   -0.5676   -0.5206    1.2277 N   0  0  0  0  0  0  0  0  0  0  0  0
   -1.7312    0.0507    1.0903 C   0  0  0  0  0  0  0  0  0  0  0  0
   -2.8626   -0.3853    1.7300 N   0  0  0  0  0  0  0  0  0  0  0  0
   -4.0336   -0.8384    1.0646 C   0  0  0  0  0  0  0  0  0  0  0  0
   -5.1942   -1.0300    1.8297 C   0  0  0  0  0  0  0  0  0  0  0  0
   -6.3761   -1.4849    1.2400 C   0  0  0  0  0  0  0  0  0  0  0  0
   -6.4107   -1.7633   -0.1243 C   0  0  0  0  0  0  0  0  0  0  0  0
   -5.2604   -1.5883   -0.8889 C   0  0  0  0  0  0  0  0  0  0  0  0
   -5.2970   -1.9771   -2.7394 Br  0  0  0  0  0  0  0  0  0  0  0  0
   -4.0764   -1.1335   -0.3041 C   0  0  0  0  0  0  0  0  0  0  0  0
   -1.8690    1.2457    0.2918 C   0  0  0  0  0  0  0  0  0  0  0  0
   -2.8801    2.1604   -0.0375 C   0  0  0  0  0  0  0  0  0  0  0  0
   -2.4360    3.1333   -0.8475 N   0  0  0  0  0  0  0  0  0  0  0  0
   -1.1272    2.8415   -1.0269 N   0  0  0  0  0  0  0  0  0  0  0  0
   -0.3313    3.7079   -1.8585 C   0  0  0  0  0  0  0  0  0  0  0  0
   -0.7579    1.7218   -0.3488 C   0  0  0  0  0  0  0  0  0  0  0  0
    1.2702    1.4598   -0.6918 H   0  0  0  0  0  0  0  0  0  0  0  0
    2.7892   -0.3761   -0.9079 H   0  0  0  0  0  0  0  0  0  0  0  0
    3.1798    0.6402    0.5039 H   0  0  0  0  0  0  0  0  0  0  0  0
    3.5681   -2.4195    0.3600 H   0  0  0  0  0  0  0  0  0  0  0  0
    3.9602   -1.4094    1.7554 H   0  0  0  0  0  0  0  0  0  0  0  0
    5.8195   -1.9909    0.5368 H   0  0  0  0  0  0  0  0  0  0  0  0
    4.9115   -0.5532   -1.8584 H   0  0  0  0  0  0  0  0  0  0  0  0
    6.4586   -1.4327   -1.6136 H   0  0  0  0  0  0  0  0  0  0  0  0
    4.9170   -2.3419   -1.6280 H   0  0  0  0  0  0  0  0  0  0  0  0
    5.4731    0.8994    0.1428 H   0  0  0  0  0  0  0  0  0  0  0  0
    7.0063   -0.0168    0.3361 H   0  0  0  0  0  0  0  0  0  0  0  0
    5.8524    0.0748    1.7012 H   0  0  0  0  0  0  0  0  0  0  0  0
   -2.6143   -1.0914    2.4211 H   0  0  0  0  0  0  0  0  0  0  0  0
   -5.1897   -0.8096    2.8955 H   0  0  0  0  0  0  0  0  0  0  0  0
   -7.2699   -1.6190    1.8450 H   0  0  0  0  0  0  0  0  0  0  0  0
   -7.3334   -2.1159   -0.5787 H   0  0  0  0  0  0  0  0  0  0  0  0
   -3.1917   -1.0255   -0.9250 H   0  0  0  0  0  0  0  0  0  0  0  0
   -3.9184    2.1682    0.2703 H   0  0  0  0  0  0  0  0  0  0  0  0
    0.6820    3.3106   -1.9459 H   0  0  0  0  0  0  0  0  0  0  0  0
   -0.3040    4.6981   -1.3967 H   0  0  0  0  0  0  0  0  0  0  0  0
   -0.7940    3.7589   -2.8474 H   0  0  0  0  0  0  0  0  0  0  0  0
  1  2  1  0
  2  3  2  3
  3  4  1  0
  4  5  1  0
  5  6  1  0
  6  7  1  0
  6  8  1  0
  2  9  1  0
  9 10  2  0
 10 11  1  0
 11 12  1  0
 12 13  2  0
 13 14  1  0
 14 15  2  0
 15 16  1  0
 16 17  1  0
 16 18  2  0
 10 19  1  0
 19 20  1  0
 20 21  2  0
 21 22  1  0
 22 23  1  0
 22 24  1  0
 24  1  1  0
 18 12  1  0
 24 19  2  0
  1 25  1  0
  4 26  1  0
  4 27  1  0
  5 28  1  0
  5 29  1  0
  6 30  1  0
  7 31  1  0
  7 32  1  0
  7 33  1  0
  8 34  1  0
  8 35  1  0
  8 36  1  0
 11 37  1  0
 13 38  1  0
 14 39  1  0
 15 40  1  0
 18 41  1  0
 20 42  1  0
 23 43  1  0
 23 44  1  0
 23 45  1  0
M  CHG  1   6   1
M  END
>  <ScrubInfo>  (4) 
{"isomerGroup": 0, "isomerId": 3, "confId": 0, "nr_conformers:": 1, "nr_isomers:": 9}

$$$$
_i4
     RDKit          3D

 45 47  0  0  0  0  0  0  0  0999 V2000
    1.4180    2.0894    0.6720 N   0  0  0  0  0  0  0  0  0  0  0  0
    1.1965    0.8731    1.2668 C   0  0  0  0  0  0  0  0  0  0  0  0
    1.9985    0.6155    2.3434 N   0  0  0  0  0  0  0  0  0  0  0  0
    1.6162   -0.2067    3.5015 C   0  0  0  0  0  0  0  0  0  0  0  0
    0.7722   -1.4777    3.2430 C   0  0  0  0  0  0  0  0  0  0  0  0
    1.1810   -2.2502    2.0117 N   0  0  0  0  0  4  0  0  0  0  0  0
    0.1714   -3.2917    1.6305 C   0  0  0  0  0  0  0  0  0  0  0  0
    2.5756   -2.7718    2.0149 C   0  0  0  0  0  0  0  0  0  0  0  0
    0.3530   -0.0213    0.8366 N   0  0  0  0  0  0  0  0  0  0  0  0
   -0.4248    0.2260   -0.2887 C   0  0  0  0  0  0  0  0  0  0  0  0
   -1.1807   -0.7654   -0.6346 N   0  0  0  0  0  0  0  0  0  0  0  0
   -2.0136   -0.6996   -1.7534 C   0  0  0  0  0  0  0  0  0  0  0  0
   -3.3418   -0.2830   -1.6179 C   0  0  0  0  0  0  0  0  0  0  0  0
   -4.1884   -0.2463   -2.7277 C   0  0  0  0  0  0  0  0  0  0  0  0
   -3.7144   -0.6434   -3.9777 C   0  0  0  0  0  0  0  0  0  0  0  0
   -2.3984   -1.0832   -4.1079 C   0  0  0  0  0  0  0  0  0  0  0  0
   -1.7562   -1.6372   -5.7969 Br  0  0  0  0  0  0  0  0  0  0  0  0
   -1.5494   -1.1203   -3.0022 C   0  0  0  0  0  0  0  0  0  0  0  0
   -0.2635    1.5175   -0.9190 C   0  0  0  0  0  0  0  0  0  0  0  0
   -0.8118    2.2203   -2.0049 C   0  0  0  0  0  0  0  0  0  0  0  0
   -0.2674    3.4359   -2.1582 N   0  0  0  0  0  0  0  0  0  0  0  0
    0.6419    3.5188   -1.1636 N   0  0  0  0  0  0  0  0  0  0  0  0
    1.4243    4.7228   -1.0362 C   0  0  0  0  0  0  0  0  0  0  0  0
    0.6643    2.3904   -0.4041 C   0  0  0  0  0  0  0  0  0  0  0  0
    2.1121    2.7239    1.0446 H   0  0  0  0  0  0  0  0  0  0  0  0
    2.5674    1.4047    2.6360 H   0  0  0  0  0  0  0  0  0  0  0  0
    1.0761    0.4275    4.2144 H   0  0  0  0  0  0  0  0  0  0  0  0
    2.5440   -0.5058    4.0031 H   0  0  0  0  0  0  0  0  0  0  0  0
   -0.2781   -1.1936    3.1081 H   0  0  0  0  0  0  0  0  0  0  0  0
    0.8308   -2.1614    4.0974 H   0  0  0  0  0  0  0  0  0  0  0  0
    1.1044   -1.5346    1.2599 H   0  0  0  0  0  0  0  0  0  0  0  0
    0.4537   -3.6996    0.6563 H   0  0  0  0  0  0  0  0  0  0  0  0
    0.1744   -4.0711    2.3970 H   0  0  0  0  0  0  0  0  0  0  0  0
   -0.8108   -2.8169    1.5621 H   0  0  0  0  0  0  0  0  0  0  0  0
    2.6764   -3.4877    2.8348 H   0  0  0  0  0  0  0  0  0  0  0  0
    2.7636   -3.2556    1.0525 H   0  0  0  0  0  0  0  0  0  0  0  0
    3.2675   -1.9365    2.1409 H   0  0  0  0  0  0  0  0  0  0  0  0
   -3.7212    0.0152   -0.6438 H   0  0  0  0  0  0  0  0  0  0  0  0
   -5.2182    0.0862   -2.6177 H   0  0  0  0  0  0  0  0  0  0  0  0
   -4.3784   -0.6142   -4.8387 H   0  0  0  0  0  0  0  0  0  0  0  0
   -0.5279   -1.4736   -3.1067 H   0  0  0  0  0  0  0  0  0  0  0  0
   -1.5823    1.9220   -2.7035 H   0  0  0  0  0  0  0  0  0  0  0  0
    0.7429    5.5589   -0.8597 H   0  0  0  0  0  0  0  0  0  0  0  0
    2.1196    4.6286   -0.1997 H   0  0  0  0  0  0  0  0  0  0  0  0
    1.9811    4.8718   -1.9649 H   0  0  0  0  0  0  0  0  0  0  0  0
  1  2  1  0
  2  3  1  0
  3  4  1  0
  4  5  1  0
  5  6  1  0
  6  7  1  0
  6  8  1  0
  2  9  2  0
  9 10  1  0
 10 11  2  3
 11 12  1  0
 12 13  2  0
 13 14  1  0
 14 15  2  0
 15 16  1  0
 16 17  1  0
 16 18  2  0
 10 19  1  0
 19 20  1  0
 20 21  2  0
 21 22  1  0
 22 23  1  0
 22 24  1  0
 24  1  1  0
 18 12  1  0
 24 19  2  0
  1 25  1  0
  3 26  1  0
  4 27  1  0
  4 28  1  0
  5 29  1  0
  5 30  1  0
  6 31  1  0
  7 32  1  0
  7 33  1  0
  7 34  1  0
  8 35  1  0
  8 36  1  0
  8 37  1  0
 13 38  1  0
 14 39  1  0
 15 40  1  0
 18 41  1  0
 20 42  1  0
 23 43  1  0
 23 44  1  0
 23 45  1  0
M  CHG  1   6   1
M  END
>  <ScrubInfo>  (5) 
{"isomerGroup": 0, "isomerId": 4, "confId": 0, "nr_conformers:": 1, "nr_isomers:": 9}

$$$$
_i5
     RDKit          3D

 45 47  0  0  0  0  0  0  0  0999 V2000
   -3.5742    3.5028   -2.1030 N   0  0  0  0  0  0  0  0  0  0  0  0
   -3.5928    2.1526   -1.7721 C   0  0  0  0  0  0  0  0  0  0  0  0
   -2.4008    1.7082   -1.3539 C   0  0  0  0  0  0  0  0  0  0  0  0
   -1.8334    0.4698   -0.8738 C   0  0  0  0  0  0  0  0  0  0  0  0
   -2.5092   -0.6338   -0.8199 N   0  0  0  0  0  0  0  0  0  0  0  0
   -1.8865   -1.8009   -0.3629 C   0  0  0  0  0  0  0  0  0  0  0  0
   -1.2973   -2.6826   -1.2754 C   0  0  0  0  0  0  0  0  0  0  0  0
   -0.7141   -3.8741   -0.8391 C   0  0  0  0  0  0  0  0  0  0  0  0
   -0.7240   -4.1943    0.5178 C   0  0  0  0  0  0  0  0  0  0  0  0
   -1.3227   -3.3218    1.4269 C   0  0  0  0  0  0  0  0  0  0  0  0
   -1.3339   -3.7559    3.2668 Br  0  0  0  0  0  0  0  0  0  0  0  0
   -1.9068   -2.1320    0.9937 C   0  0  0  0  0  0  0  0  0  0  0  0
   -0.5222    0.5610   -0.4772 N   0  0  0  0  0  0  0  0  0  0  0  0
    0.1588    1.6614   -0.5919 C   0  0  0  0  0  0  0  0  0  0  0  0
    1.4638    1.7015   -0.1835 N   0  0  0  0  0  0  0  0  0  0  0  0
    1.9979    0.8038    0.8222 C   0  0  0  0  0  0  0  0  0  0  0  0
    2.0811   -0.6518    0.3155 C   0  0  0  0  0  0  0  0  0  0  0  0
    2.8645   -1.5825    1.2309 N   0  0  0  0  0  4  0  0  0  0  0  0
    4.3451   -1.3464    1.2194 C   0  0  0  0  0  0  0  0  0  0  0  0
    2.2993   -1.6790    2.6185 C   0  0  0  0  0  0  0  0  0  0  0  0
   -0.3033    2.8440   -1.0955 N   0  0  0  0  0  0  0  0  0  0  0  0
   -1.5322    2.8863   -1.4823 C   0  0  0  0  0  0  0  0  0  0  0  0
   -2.2543    3.9400   -2.0408 N   0  0  0  0  0  0  0  0  0  0  0  0
   -1.9862    5.3200   -1.6844 C   0  0  0  0  0  0  0  0  0  0  0  0
   -4.0897    3.7236   -2.9594 H   0  0  0  0  0  0  0  0  0  0  0  0
   -4.5100    1.5886   -1.8727 H   0  0  0  0  0  0  0  0  0  0  0  0
   -1.3183   -2.4450   -2.3367 H   0  0  0  0  0  0  0  0  0  0  0  0
   -0.2847   -4.5631   -1.5628 H   0  0  0  0  0  0  0  0  0  0  0  0
   -0.2965   -5.1375    0.8498 H   0  0  0  0  0  0  0  0  0  0  0  0
   -2.3979   -1.4629    1.6948 H   0  0  0  0  0  0  0  0  0  0  0  0
    1.7806    2.6664   -0.1270 H   0  0  0  0  0  0  0  0  0  0  0  0
    2.9990    1.1606    1.0841 H   0  0  0  0  0  0  0  0  0  0  0  0
    1.3892    0.8631    1.7315 H   0  0  0  0  0  0  0  0  0  0  0  0
    2.5622   -0.7023   -0.6681 H   0  0  0  0  0  0  0  0  0  0  0  0
    1.0944   -1.1095    0.2244 H   0  0  0  0  0  0  0  0  0  0  0  0
    2.7253   -2.5136    0.8143 H   0  0  0  0  0  0  0  0  0  0  0  0
    4.8202   -2.1707    1.7582 H   0  0  0  0  0  0  0  0  0  0  0  0
    4.6828   -1.3385    0.1800 H   0  0  0  0  0  0  0  0  0  0  0  0
    4.5578   -0.3941    1.7103 H   0  0  0  0  0  0  0  0  0  0  0  0
    2.5198   -0.7526    3.1546 H   0  0  0  0  0  0  0  0  0  0  0  0
    1.2228   -1.8383    2.5387 H   0  0  0  0  0  0  0  0  0  0  0  0
    2.7702   -2.5323    3.1137 H   0  0  0  0  0  0  0  0  0  0  0  0
   -0.9311    5.5613   -1.8479 H   0  0  0  0  0  0  0  0  0  0  0  0
   -2.5842    5.9966   -2.3034 H   0  0  0  0  0  0  0  0  0  0  0  0
   -2.2288    5.5038   -0.6326 H   0  0  0  0  0  0  0  0  0  0  0  0
  1  2  1  0
  2  3  2  0
  3  4  1  0
  4  5  2  3
  5  6  1  0
  6  7  2  0
  7  8  1  0
  8  9  2  0
  9 10  1  0
 10 11  1  0
 10 12  2  0
  4 13  1  0
 13 14  2  0
 14 15  1  0
 15 16  1  0
 16 17  1  0
 17 18  1  0
 18 19  1  0
 18 20  1  0
 14 21  1  0
 21 22  2  0
 22 23  1  0
 23 24  1  0
 23  1  1  0
 22  3  1  0
 12  6  1  0
  1 25  1  0
  2 26  1  0
  7 27  1  0
  8 28  1  0
  9 29  1  0
 12 30  1  0
 15 31  1  0
 16 32  1  0
 16 33  1  0
 17 34  1  0
 17 35  1  0
 18 36  1  0
 19 37  1  0
 19 38  1  0
 19 39  1  0
 20 40  1  0
 20 41  1  0
 20 42  1  0
 24 43  1  0
 24 44  1  0
 24 45  1  0
M  CHG  1  18   1
M  END
>  <ScrubInfo>  (6) 
{"isomerGroup": 0, "isomerId": 5, "confId": 0, "nr_conformers:": 1, "nr_isomers:": 9}

$$$$
_i6
     RDKit          3D

 45 47  0  0  0  0  0  0  0  0999 V2000
   -2.2693   -4.2279   -1.0888 N   0  0  0  0  0  0  0  0  0  0  0  0
   -2.8111   -2.9556   -0.9546 C   0  0  0  0  0  0  0  0  0  0  0  0
   -1.8896   -2.0272   -0.6626 C   0  0  0  0  0  0  0  0  0  0  0  0
   -1.8329   -0.5877   -0.3842 C   0  0  0  0  0  0  0  0  0  0  0  0
   -2.9945    0.1614   -0.4197 N   0  0  0  0  0  0  0  0  0  0  0  0
   -3.1723    1.5546   -0.2917 C   0  0  0  0  0  0  0  0  0  0  0  0
   -4.4791    2.0467   -0.1209 C   0  0  0  0  0  0  0  0  0  0  0  0
   -4.7301    3.4136    0.0405 C   0  0  0  0  0  0  0  0  0  0  0  0
   -3.6743    4.3195    0.0407 C   0  0  0  0  0  0  0  0  0  0  0  0
   -2.3761    3.8487   -0.1212 C   0  0  0  0  0  0  0  0  0  0  0  0
   -0.9270    5.0662   -0.1184 Br  0  0  0  0  0  0  0  0  0  0  0  0
   -2.1255    2.4829   -0.2848 C   0  0  0  0  0  0  0  0  0  0  0  0
   -0.6600   -0.0951   -0.0985 N   0  0  0  0  0  0  0  0  0  0  0  0
    0.4394   -0.9104   -0.0671 C   0  0  0  0  0  0  0  0  0  0  0  0
    1.5116   -0.2832    0.2751 N   0  0  0  0  0  0  0  0  0  0  0  0
    2.7641   -1.0495    0.3279 C   0  0  0  0  0  0  0  0  0  0  0  0
    3.8300   -0.1100    0.9157 C   0  0  0  0  0  0  0  0  0  0  0  0
    3.5332    1.3047    0.4431 N   0  0  0  0  0  4  0  0  0  0  0  0
    3.9076    2.3553    1.4322 C   0  0  0  0  0  0  0  0  0  0  0  0
    4.0287    1.5918   -0.9364 C   0  0  0  0  0  0  0  0  0  0  0  0
    0.5023   -2.2455   -0.3678 N   0  0  0  0  0  0  0  0  0  0  0  0
   -0.6229   -2.7979   -0.6709 C   0  0  0  0  0  0  0  0  0  0  0  0
   -0.8857   -4.1178   -1.0338 N   0  0  0  0  0  0  0  0  0  0  0  0
   -0.1142   -5.2227   -0.4954 C   0  0  0  0  0  0  0  0  0  0  0  0
   -2.6557   -4.7706   -1.8665 H   0  0  0  0  0  0  0  0  0  0  0  0
   -3.8756   -2.8298   -1.0899 H   0  0  0  0  0  0  0  0  0  0  0  0
   -3.8624   -0.3389   -0.5688 H   0  0  0  0  0  0  0  0  0  0  0  0
   -5.3283    1.3666   -0.1044 H   0  0  0  0  0  0  0  0  0  0  0  0
   -5.7502    3.7681    0.1702 H   0  0  0  0  0  0  0  0  0  0  0  0
   -3.8731    5.3804    0.1681 H   0  0  0  0  0  0  0  0  0  0  0  0
   -1.0991    2.1635   -0.4209 H   0  0  0  0  0  0  0  0  0  0  0  0
    2.6845   -1.9420    0.9589 H   0  0  0  0  0  0  0  0  0  0  0  0
    3.0631   -1.3515   -0.6825 H   0  0  0  0  0  0  0  0  0  0  0  0
    3.7447   -0.1054    2.0080 H   0  0  0  0  0  0  0  0  0  0  0  0
    4.8518   -0.3785    0.6309 H   0  0  0  0  0  0  0  0  0  0  0  0
    2.4925    1.2902    0.3829 H   0  0  0  0  0  0  0  0  0  0  0  0
    3.5770    3.3234    1.0466 H   0  0  0  0  0  0  0  0  0  0  0  0
    3.3950    2.1406    2.3737 H   0  0  0  0  0  0  0  0  0  0  0  0
    4.9926    2.3370    1.5640 H   0  0  0  0  0  0  0  0  0  0  0  0
    5.1218    1.5796   -0.9220 H   0  0  0  0  0  0  0  0  0  0  0  0
    3.6549    2.5748   -1.2350 H   0  0  0  0  0  0  0  0  0  0  0  0
    3.6406    0.8290   -1.6156 H   0  0  0  0  0  0  0  0  0  0  0  0
    0.9544   -5.0701   -0.6777 H   0  0  0  0  0  0  0  0  0  0  0  0
   -0.2754   -5.3199    0.5832 H   0  0  0  0  0  0  0  0  0  0  0  0
   -0.4053   -6.1615   -0.9776 H   0  0  0  0  0  0  0  0  0  0  0  0
  1  2  1  0
  2  3  2  0
  3  4  1  0
  4  5  1  0
  5  6  1  0
  6  7  2  0
  7  8  1  0
  8  9  2  0
  9 10  1  0
 10 11  1  0
 10 12  2  0
  4 13  2  0
 13 14  1  0
 14 15  2  3
 15 16  1  0
 16 17  1  0
 17 18  1  0
 18 19  1  0
 18 20  1  0
 14 21  1  0
 21 22  2  0
 22 23  1  0
 23 24  1  0
 23  1  1  0
 22  3  1  0
 12  6  1  0
  1 25  1  0
  2 26  1  0
  5 27  1  0
  7 28  1  0
  8 29  1  0
  9 30  1  0
 12 31  1  0
 16 32  1  0
 16 33  1  0
 17 34  1  0
 17 35  1  0
 18 36  1  0
 19 37  1  0
 19 38  1  0
 19 39  1  0
 20 40  1  0
 20 41  1  0
 20 42  1  0
 24 43  1  0
 24 44  1  0
 24 45  1  0
M  CHG  1  18   1
M  END
>  <ScrubInfo>  (7) 
{"isomerGroup": 0, "isomerId": 6, "confId": 0, "nr_conformers:": 1, "nr_isomers:": 9}

$$$$
_i7
     RDKit          3D

 45 47  0  0  0  0  0  0  0  0999 V2000
   -2.3234    4.0810   -0.7440 N   0  0  0  0  0  0  0  0  0  0  0  0
   -3.0904    2.9437   -0.5255 C   0  0  0  0  0  0  0  0  0  0  0  0
   -2.3470    1.8514   -0.3162 C   0  0  0  0  0  0  0  0  0  0  0  0
   -2.5606    0.4227   -0.0792 C   0  0  0  0  0  0  0  0  0  0  0  0
   -3.7718   -0.0361    0.0125 N   0  0  0  0  0  0  0  0  0  0  0  0
   -3.9643   -1.4036    0.2437 C   0  0  0  0  0  0  0  0  0  0  0  0
   -4.1785   -2.2712   -0.8309 C   0  0  0  0  0  0  0  0  0  0  0  0
   -4.3711   -3.6364   -0.6108 C   0  0  0  0  0  0  0  0  0  0  0  0
   -4.3574   -4.1393    0.6900 C   0  0  0  0  0  0  0  0  0  0  0  0
   -4.1612   -3.2709    1.7629 C   0  0  0  0  0  0  0  0  0  0  0  0
   -4.1467   -3.9490    3.5272 Br  0  0  0  0  0  0  0  0  0  0  0  0
   -3.9715   -1.9068    1.5466 C   0  0  0  0  0  0  0  0  0  0  0  0
   -1.3777   -0.2684    0.0154 N   0  0  0  0  0  0  0  0  0  0  0  0
   -0.1177    0.2591   -0.0685 C   0  0  0  0  0  0  0  0  0  0  0  0
    0.8986   -0.5378    0.0435 N   0  0  0  0  0  0  0  0  0  0  0  0
    2.2258    0.0739   -0.0346 C   0  0  0  0  0  0  0  0  0  0  0  0
    3.2739   -1.0289    0.1582 C   0  0  0  0  0  0  0  0  0  0  0  0
    4.6860   -0.5224   -0.0815 N   0  0  0  0  0  4  0  0  0  0  0  0
    5.1494    0.4587    0.9591 C   0  0  0  0  0  0  0  0  0  0  0  0
    5.6525   -1.6675   -0.2182 C   0  0  0  0  0  0  0  0  0  0  0  0
    0.1037    1.6090   -0.2596 N   0  0  0  0  0  0  0  0  0  0  0  0
   -0.9434    2.3718   -0.3605 C   0  0  0  0  0  0  0  0  0  0  0  0
   -0.9857    3.7588   -0.5281 N   0  0  0  0  0  0  0  0  0  0  0  0
    0.0269    4.4617   -1.2920 C   0  0  0  0  0  0  0  0  0  0  0  0
   -2.6803    4.9127   -0.2658 H   0  0  0  0  0  0  0  0  0  0  0  0
   -4.1697    3.0122   -0.5387 H   0  0  0  0  0  0  0  0  0  0  0  0
   -4.2081   -1.8771   -1.8438 H   0  0  0  0  0  0  0  0  0  0  0  0
   -4.5451   -4.3040   -1.4514 H   0  0  0  0  0  0  0  0  0  0  0  0
   -4.5155   -5.2021    0.8570 H   0  0  0  0  0  0  0  0  0  0  0  0
   -3.8382   -1.2270    2.3834 H   0  0  0  0  0  0  0  0  0  0  0  0
   -1.4215   -1.2653    0.1644 H   0  0  0  0  0  0  0  0  0  0  0  0
    2.3744    0.5456   -1.0137 H   0  0  0  0  0  0  0  0  0  0  0  0
    2.3417    0.8295    0.7504 H   0  0  0  0  0  0  0  0  0  0  0  0
    3.0988   -1.8335   -0.5658 H   0  0  0  0  0  0  0  0  0  0  0  0
    3.2367   -1.4541    1.1677 H   0  0  0  0  0  0  0  0  0  0  0  0
    4.6803   -0.0335   -0.9865 H   0  0  0  0  0  0  0  0  0  0  0  0
    5.0920   -0.0187    1.9408 H   0  0  0  0  0  0  0  0  0  0  0  0
    6.1789    0.7425    0.7239 H   0  0  0  0  0  0  0  0  0  0  0  0
    4.5128    1.3444    0.9108 H   0  0  0  0  0  0  0  0  0  0  0  0
    6.6378   -1.2549   -0.4509 H   0  0  0  0  0  0  0  0  0  0  0  0
    5.6714   -2.2224    0.7236 H   0  0  0  0  0  0  0  0  0  0  0  0
    5.3152   -2.3019   -1.0422 H   0  0  0  0  0  0  0  0  0  0  0  0
   -0.0087    4.1693   -2.3466 H   0  0  0  0  0  0  0  0  0  0  0  0
   -0.1269    5.5436   -1.2248 H   0  0  0  0  0  0  0  0  0  0  0  0
    1.0255    4.2414   -0.9013 H   0  0  0  0  0  0  0  0  0  0  0  0
  1  2  1  0
  2  3  2  0
  3  4  1  0
  4  5  2  3
  5  6  1  0
  6  7  2  0
  7  8  1  0
  8  9  2  0
  9 10  1  0
 10 11  1  0
 10 12  2  0
  4 13  1  0
 13 14  1  0
 14 15  2  3
 15 16  1  0
 16 17  1  0
 17 18  1  0
 18 19  1  0
 18 20  1  0
 14 21  1  0
 21 22  2  0
 22 23  1  0
 23 24  1  0
 23  1  1  0
 22  3  1  0
 12  6  1  0
  1 25  1  0
  2 26  1  0
  7 27  1  0
  8 28  1  0
  9 29  1  0
 12 30  1  0
 13 31  1  0
 16 32  1  0
 16 33  1  0
 17 34  1  0
 17 35  1  0
 18 36  1  0
 19 37  1  0
 19 38  1  0
 19 39  1  0
 20 40  1  0
 20 41  1  0
 20 42  1  0
 24 43  1  0
 24 44  1  0
 24 45  1  0
M  CHG  1  18   1
M  END
>  <ScrubInfo>  (8) 
{"isomerGroup": 0, "isomerId": 7, "confId": 0, "nr_conformers:": 1, "nr_isomers:": 9}

$$$$
_i8
     RDKit          3D

 45 47  0  0  0  0  0  0  0  0999 V2000
    0.2495    1.6384   -0.3888 N   0  0  0  0  0  0  0  0  0  0  0  0
   -0.0076    0.3198   -0.0399 C   0  0  0  0  0  0  0  0  0  0  0  0
    0.8467   -0.6263    0.1701 N   0  0  0  0  0  0  0  0  0  0  0  0
    2.2724   -0.3540    0.0388 C   0  0  0  0  0  0  0  0  0  0  0  0
    3.0198   -1.6680    0.3244 C   0  0  0  0  0  0  0  0  0  0  0  0
    4.5271   -1.5620    0.2188 N   0  0  0  0  0  4  0  0  0  0  0  0
    5.0215   -1.2768   -1.1695 C   0  0  0  0  0  0  0  0  0  0  0  0
    5.1489   -0.6693    1.2525 C   0  0  0  0  0  0  0  0  0  0  0  0
   -1.3515    0.0269    0.0854 N   0  0  0  0  0  0  0  0  0  0  0  0
   -2.4729    0.8163   -0.0865 C   0  0  0  0  0  0  0  0  0  0  0  0
   -3.7300    0.5427    0.0178 N   0  0  0  0  0  0  0  0  0  0  0  0
   -4.1002   -0.7636    0.3575 C   0  0  0  0  0  0  0  0  0  0  0  0
   -4.3747   -1.0879    1.6890 C   0  0  0  0  0  0  0  0  0  0  0  0
   -4.7444   -2.3878    2.0392 C   0  0  0  0  0  0  0  0  0  0  0  0
   -4.8480   -3.3701    1.0546 C   0  0  0  0  0  0  0  0  0  0  0  0
   -4.5913   -3.0423   -0.2759 C   0  0  0  0  0  0  0  0  0  0  0  0
   -4.7340   -4.3708   -1.6130 Br  0  0  0  0  0  0  0  0  0  0  0  0
   -4.2254   -1.7443   -0.6294 C   0  0  0  0  0  0  0  0  0  0  0  0
   -2.0992    2.1623   -0.4436 C   0  0  0  0  0  0  0  0  0  0  0  0
   -2.8030    3.3421   -0.7235 C   0  0  0  0  0  0  0  0  0  0  0  0
   -1.9818    4.3620   -1.0117 N   0  0  0  0  0  0  0  0  0  0  0  0
   -0.7437    3.8264   -0.9157 N   0  0  0  0  0  0  0  0  0  0  0  0
    0.3928    4.6748   -1.1715 C   0  0  0  0  0  0  0  0  0  0  0  0
   -0.7751    2.5059   -0.5761 C   0  0  0  0  0  0  0  0  0  0  0  0
    1.2097    1.9290   -0.4958 H   0  0  0  0  0  0  0  0  0  0  0  0
    2.4984   -0.0060   -0.9746 H   0  0  0  0  0  0  0  0  0  0  0  0
    2.5766    0.4153    0.7563 H   0  0  0  0  0  0  0  0  0  0  0  0
    2.7106   -2.4527   -0.3764 H   0  0  0  0  0  0  0  0  0  0  0  0
    2.8006   -2.0287    1.3364 H   0  0  0  0  0  0  0  0  0  0  0  0
    4.8635   -2.5098    0.4384 H   0  0  0  0  0  0  0  0  0  0  0  0
    4.7685   -0.2467   -1.4315 H   0  0  0  0  0  0  0  0  0  0  0  0
    6.1056   -1.4188   -1.1749 H   0  0  0  0  0  0  0  0  0  0  0  0
    4.5498   -1.9864   -1.8539 H   0  0  0  0  0  0  0  0  0  0  0  0
    4.8967    0.3687    1.0227 H   0  0  0  0  0  0  0  0  0  0  0  0
    6.2315   -0.8182    1.2166 H   0  0  0  0  0  0  0  0  0  0  0  0
    4.7653   -0.9617    2.2333 H   0  0  0  0  0  0  0  0  0  0  0  0
   -1.5390   -0.9312    0.3426 H   0  0  0  0  0  0  0  0  0  0  0  0
   -4.3130   -0.3181    2.4546 H   0  0  0  0  0  0  0  0  0  0  0  0
   -4.9651   -2.6300    3.0762 H   0  0  0  0  0  0  0  0  0  0  0  0
   -5.1442   -4.3791    1.3312 H   0  0  0  0  0  0  0  0  0  0  0  0
   -4.0463   -1.4832   -1.6688 H   0  0  0  0  0  0  0  0  0  0  0  0
   -3.8740    3.5036   -0.7302 H   0  0  0  0  0  0  0  0  0  0  0  0
    1.3175    4.1074   -1.0501 H   0  0  0  0  0  0  0  0  0  0  0  0
    0.3717    5.5035   -0.4591 H   0  0  0  0  0  0  0  0  0  0  0  0
    0.3200    5.0486   -2.1959 H   0  0  0  0  0  0  0  0  0  0  0  0
  1  2  1  0
  2  3  2  3
  3  4  1  0
  4  5  1  0
  5  6  1  0
  6  7  1  0
  6  8  1  0
  2  9  1  0
  9 10  1  0
 10 11  2  3
 11 12  1  0
 12 13  2  0
 13 14  1  0
 14 15  2  0
 15 16  1  0
 16 17  1  0
 16 18  2  0
 10 19  1  0
 19 20  1  0
 20 21  2  0
 21 22  1  0
 22 23  1  0
 22 24  1  0
 24  1  1  0
 18 12  1  0
 24 19  2  0
  1 25  1  0
  4 26  1  0
  4 27  1  0
  5 28  1  0
  5 29  1  0
  6 30  1  0
  7 31  1  0
  7 32  1  0
  7 33  1  0
  8 34  1  0
  8 35  1  0
  8 36  1  0
  9 37  1  0
 13 38  1  0
 14 39  1  0
 15 40  1  0
 18 41  1  0
 20 42  1  0
 23 43  1  0
 23 44  1  0
 23 45  1  0
M  CHG  1   6   1
M  END
>  <ScrubInfo>  (9) 
{"isomerGroup": 0, "isomerId": 8, "confId": 0, "nr_conformers:": 1, "nr_isomers:": 9}

$$$$
