_i0
     RDKit          3D

 43 45  0  0  0  0  0  0  0  0999 V2000
    3.5437   -2.2716   -0.2956 C   0  0  0  0  0  0  0  0  0  0  0  0
    3.8545   -2.0913    1.1860 C   0  0  0  0  0  0  0  0  0  0  0  0
    4.9822   -2.5072    1.5632 O   0  0  0  0  0  0  0  0  0  0  0  0
    2.9259   -1.5401    1.8472 O   0  0  0  0  0  1  0  0  0  0  0  0
    4.1482   -1.1507   -1.1334 C   0  0  0  0  0  0  0  0  0  0  0  0
    3.6730    0.2758   -0.8139 C   0  0  0  0  0  0  0  0  0  0  0  0
    2.1515    0.4637   -0.8508 C   0  0  0  0  0  0  0  0  0  0  0  0
    1.6042    0.4419    0.4987 N   0  0  0  0  0  0  0  0  0  0  0  0
    0.2107    0.3674    0.5901 C   0  0  0  0  0  0  0  0  0  0  0  0
   -0.5665    0.6270   -0.4815 N   0  0  0  0  0  0  0  0  0  0  0  0
   -0.3715    0.1280    1.8072 C   0  0  0  0  0  0  0  0  0  0  0  0
   -1.9129    0.5844   -0.3270 C   0  0  0  0  0  0  0  0  0  0  0  0
   -1.7483    0.1067    1.8666 C   0  0  0  0  0  0  0  0  0  0  0  0
    0.2376   -0.1873    3.1308 C   0  0  0  0  0  0  0  0  0  0  0  0
   -2.7400    0.8525   -1.5256 C   0  0  0  0  0  0  0  0  0  0  0  0
   -2.5598    0.3219    0.8281 N   0  0  0  0  0  0  0  0  0  0  0  0
   -2.2167   -0.2305    3.2530 C   0  0  0  0  0  0  0  0  0  0  0  0
   -0.9522    0.0723    4.0677 C   0  0  0  0  0  0  0  0  0  0  0  0
   -2.1554    1.2001   -2.7603 C   0  0  0  0  0  0  0  0  0  0  0  0
   -4.1467    0.7715   -1.4838 C   0  0  0  0  0  0  0  0  0  0  0  0
   -2.9332    1.4555   -3.8958 C   0  0  0  0  0  0  0  0  0  0  0  0
   -4.9307    1.0244   -2.6158 C   0  0  0  0  0  0  0  0  0  0  0  0
   -4.3187    1.3659   -3.8172 C   0  0  0  0  0  0  0  0  0  0  0  0
   -5.2797    1.6784   -5.2100 Cl  0  0  0  0  0  0  0  0  0  0  0  0
    3.9551   -3.2336   -0.6248 H   0  0  0  0  0  0  0  0  0  0  0  0
    2.4601   -2.3335   -0.4469 H   0  0  0  0  0  0  0  0  0  0  0  0
    3.9307   -1.3601   -2.1886 H   0  0  0  0  0  0  0  0  0  0  0  0
    5.2409   -1.1753   -1.0363 H   0  0  0  0  0  0  0  0  0  0  0  0
    4.0875    0.6031    0.1474 H   0  0  0  0  0  0  0  0  0  0  0  0
    4.1163    0.9313   -1.5745 H   0  0  0  0  0  0  0  0  0  0  0  0
    1.9355    1.4438   -1.2944 H   0  0  0  0  0  0  0  0  0  0  0  0
    1.6915   -0.2976   -1.4927 H   0  0  0  0  0  0  0  0  0  0  0  0
    2.0318   -0.3141    1.0772 H   0  0  0  0  0  0  0  0  0  0  0  0
    0.5383   -1.2390    3.1703 H   0  0  0  0  0  0  0  0  0  0  0  0
    1.0840    0.4589    3.3785 H   0  0  0  0  0  0  0  0  0  0  0  0
   -2.4822   -1.2913    3.3096 H   0  0  0  0  0  0  0  0  0  0  0  0
   -3.0625    0.3868    3.5668 H   0  0  0  0  0  0  0  0  0  0  0  0
   -0.8962   -0.5159    4.9890 H   0  0  0  0  0  0  0  0  0  0  0  0
   -0.9564    1.1320    4.3594 H   0  0  0  0  0  0  0  0  0  0  0  0
   -1.0712    1.2760   -2.8408 H   0  0  0  0  0  0  0  0  0  0  0  0
   -4.6441    0.5054   -0.5516 H   0  0  0  0  0  0  0  0  0  0  0  0
   -2.4464    1.7220   -4.8293 H   0  0  0  0  0  0  0  0  0  0  0  0
   -6.0119    0.9511   -2.5461 H   0  0  0  0  0  0  0  0  0  0  0  0
  1  2  1  0
  2  3  2  0
  2  4  1  0
  1  5  1  0
  5  6  1  0
  6  7  1  0
  7  8  1  0
  8  9  1  0
  9 10  2  0
 11  9  1  0
 10 12  1  0
 13 11  2  0
 11 14  1  0
 12 15  1  0
 12 16  2  0
 16 13  1  0
 17 13  1  0
 14 18  1  0
 15 19  2  0
 20 15  1  0
 18 17  1  0
 19 21  1  0
 22 20  2  0
 21 23  2  0
 23 22  1  0
 23 24  1  0
  1 25  1  0
  1 26  1  0
  5 27  1  0
  5 28  1  0
  6 29  1  0
  6 30  1  0
  7 31  1  0
  7 32  1  0
  8 33  1  0
 14 34  1  0
 14 35  1  0
 17 36  1  0
 17 37  1  0
 18 38  1  0
 18 39  1  0
 19 40  1  0
 20 41  1  0
 21 42  1  0
 22 43  1  0
M  CHG  1   4  -1
M  END
>  <ScrubInfo>  (1) 
{"isomerGroup": 0, "isomerId": 0, "confId": 0, "nr_conformers:": 1, "nr_isomers:": 3}

$$$$
_i1
     RDKit          3D

 43 45  0  0  0  0  0  0  0  0999 V2000
   -0.8913   -0.0667   -0.0870 N   0  0  0  0  0  0  0  0  0  0  0  0
   -2.2667   -0.0295   -0.2364 C   0  0  0  0  0  0  0  0  0  0  0  0
   -3.0561   -1.2991   -0.1560 C   0  0  0  0  0  0  0  0  0  0  0  0
   -4.3047   -1.3693   -0.7899 C   0  0  0  0  0  0  0  0  0  0  0  0
   -5.0602   -2.5435   -0.7337 C   0  0  0  0  0  0  0  0  0  0  0  0
   -4.5710   -3.6472   -0.0383 C   0  0  0  0  0  0  0  0  0  0  0  0
   -5.5019   -5.0922    0.0343 Cl  0  0  0  0  0  0  0  0  0  0  0  0
   -3.3353   -3.5854    0.6046 C   0  0  0  0  0  0  0  0  0  0  0  0
   -2.5768   -2.4110    0.5496 C   0  0  0  0  0  0  0  0  0  0  0  0
   -2.9159    1.0895   -0.4553 N   0  0  0  0  0  0  0  0  0  0  0  0
   -2.1399    2.2213   -0.5138 C   0  0  0  0  0  0  0  0  0  0  0  0
   -0.8111    2.3020   -0.3806 C   0  0  0  0  0  0  0  0  0  0  0  0
   -0.0817    1.0450   -0.1511 C   0  0  0  0  0  0  0  0  0  0  0  0
    1.2029    1.0957   -0.0391 N   0  0  0  0  0  0  0  0  0  0  0  0
    1.9164   -0.1594    0.1973 C   0  0  0  0  0  0  0  0  0  0  0  0
    3.4058    0.1309    0.3624 C   0  0  0  0  0  0  0  0  0  0  0  0
    4.1736   -1.1655    0.6243 C   0  0  0  0  0  0  0  0  0  0  0  0
    5.6683   -0.9240    0.7982 C   0  0  0  0  0  0  0  0  0  0  0  0
    6.4852   -2.1925    1.0706 C   0  0  0  0  0  0  0  0  0  0  0  0
    5.8418   -3.2769    1.1286 O   0  0  0  0  0  0  0  0  0  0  0  0
    7.7261   -1.9895    1.2064 O   0  0  0  0  0  1  0  0  0  0  0  0
   -0.2760    3.6746   -0.4965 C   0  0  0  0  0  0  0  0  0  0  0  0
   -1.4887    4.4271   -1.0587 C   0  0  0  0  0  0  0  0  0  0  0  0
   -2.7266    3.5752   -0.7404 C   0  0  0  0  0  0  0  0  0  0  0  0
   -0.4265   -0.9577   -0.0268 H   0  0  0  0  0  0  0  0  0  0  0  0
   -4.6916   -0.5096   -1.3337 H   0  0  0  0  0  0  0  0  0  0  0  0
   -6.0250   -2.5866   -1.2317 H   0  0  0  0  0  0  0  0  0  0  0  0
   -2.9590   -4.4436    1.1564 H   0  0  0  0  0  0  0  0  0  0  0  0
   -1.6329   -2.3802    1.0865 H   0  0  0  0  0  0  0  0  0  0  0  0
    1.5413   -0.6447    1.1067 H   0  0  0  0  0  0  0  0  0  0  0  0
    1.7722   -0.8404   -0.6503 H   0  0  0  0  0  0  0  0  0  0  0  0
    3.7907    0.6204   -0.5406 H   0  0  0  0  0  0  0  0  0  0  0  0
    3.5572    0.8311    1.1931 H   0  0  0  0  0  0  0  0  0  0  0  0
    4.0088   -1.8606   -0.2087 H   0  0  0  0  0  0  0  0  0  0  0  0
    3.7731   -1.6491    1.5242 H   0  0  0  0  0  0  0  0  0  0  0  0
    5.8349   -0.2325    1.6332 H   0  0  0  0  0  0  0  0  0  0  0  0
    6.0724   -0.4516   -0.1055 H   0  0  0  0  0  0  0  0  0  0  0  0
    0.0120    4.0634    0.4855 H   0  0  0  0  0  0  0  0  0  0  0  0
    0.5783    3.7433   -1.1760 H   0  0  0  0  0  0  0  0  0  0  0  0
   -1.5709    5.4384   -0.6469 H   0  0  0  0  0  0  0  0  0  0  0  0
   -1.3849    4.5302   -2.1470 H   0  0  0  0  0  0  0  0  0  0  0  0
   -3.2304    3.9310    0.1646 H   0  0  0  0  0  0  0  0  0  0  0  0
   -3.4360    3.5892   -1.5734 H   0  0  0  0  0  0  0  0  0  0  0  0
  1  2  1  0
  2  3  1  0
  3  4  2  0
  4  5  1  0
  5  6  2  0
  6  7  1  0
  6  8  1  0
  8  9  2  0
  2 10  2  0
 10 11  1  0
 11 12  2  0
 12 13  1  0
 13 14  2  3
 14 15  1  0
 15 16  1  0
 16 17  1  0
 17 18  1  0
 18 19  1  0
 19 20  2  0
 19 21  1  0
 12 22  1  0
 22 23  1  0
 23 24  1  0
 13  1  1  0
  9  3  1  0
 24 11  1  0
  1 25  1  0
  4 26  1  0
  5 27  1  0
  8 28  1  0
  9 29  1  0
 15 30  1  0
 15 31  1  0
 16 32  1  0
 16 33  1  0
 17 34  1  0
 17 35  1  0
 18 36  1  0
 18 37  1  0
 22 38  1  0
 22 39  1  0
 23 40  1  0
 23 41  1  0
 24 42  1  0
 24 43  1  0
M  CHG  1  21  -1
M  END
>  <ScrubInfo>  (2) 
{"isomerGroup": 0, "isomerId": 1, "confId": 0, "nr_conformers:": 1, "nr_isomers:": 3}

$$$$
_i2
     RDKit          3D

 43 45  0  0  0  0  0  0  0  0999 V2000
   -2.0216    0.1440   -1.2698 N   0  0  0  0  0  0  0  0  0  0  0  0
   -2.2603    0.7620   -0.0623 C   0  0  0  0  0  0  0  0  0  0  0  0
   -3.5289    1.5331    0.1364 C   0  0  0  0  0  0  0  0  0  0  0  0
   -4.2351    2.0613   -0.9526 C   0  0  0  0  0  0  0  0  0  0  0  0
   -5.4203    2.7731   -0.7397 C   0  0  0  0  0  0  0  0  0  0  0  0
   -5.8959    2.9614    0.5578 C   0  0  0  0  0  0  0  0  0  0  0  0
   -7.3555    3.8363    0.8124 Cl  0  0  0  0  0  0  0  0  0  0  0  0
   -5.1944    2.4511    1.6477 C   0  0  0  0  0  0  0  0  0  0  0  0
   -4.0097    1.7405    1.4371 C   0  0  0  0  0  0  0  0  0  0  0  0
   -1.4282    0.6930    0.9372 N   0  0  0  0  0  0  0  0  0  0  0  0
   -0.2194    0.0218    0.8203 C   0  0  0  0  0  0  0  0  0  0  0  0
    0.5546    0.2212    1.8171 N   0  0  0  0  0  0  0  0  0  0  0  0
    1.8902   -0.3405    1.9386 C   0  0  0  0  0  0  0  0  0  0  0  0
    2.9105    0.5668    1.2518 C   0  0  0  0  0  0  0  0  0  0  0  0
    4.3414    0.0212    1.3137 C   0  0  0  0  0  0  0  0  0  0  0  0
    4.5569   -1.1901    0.4103 C   0  0  0  0  0  0  0  0  0  0  0  0
    5.9823   -1.7473    0.3620 C   0  0  0  0  0  0  0  0  0  0  0  0
    6.1261   -2.7115   -0.4453 O   0  0  0  0  0  0  0  0  0  0  0  0
    6.8312   -1.1987    1.1147 O   0  0  0  0  0  1  0  0  0  0  0  0
   -0.0311   -0.7915   -0.4118 C   0  0  0  0  0  0  0  0  0  0  0  0
   -0.9340   -0.6639   -1.3883 C   0  0  0  0  0  0  0  0  0  0  0  0
   -0.6266   -1.5069   -2.5750 C   0  0  0  0  0  0  0  0  0  0  0  0
    0.4516   -2.4419   -2.0275 C   0  0  0  0  0  0  0  0  0  0  0  0
    1.0342   -1.7558   -0.7842 C   0  0  0  0  0  0  0  0  0  0  0  0
   -2.7496    0.0480   -1.9637 H   0  0  0  0  0  0  0  0  0  0  0  0
   -3.8640    1.9574   -1.9674 H   0  0  0  0  0  0  0  0  0  0  0  0
   -5.9605    3.1865   -1.5873 H   0  0  0  0  0  0  0  0  0  0  0  0
   -5.5550    2.6034    2.6613 H   0  0  0  0  0  0  0  0  0  0  0  0
   -3.4596    1.3488    2.2917 H   0  0  0  0  0  0  0  0  0  0  0  0
    1.9378   -1.3728    1.5957 H   0  0  0  0  0  0  0  0  0  0  0  0
    2.1310   -0.3896    3.0077 H   0  0  0  0  0  0  0  0  0  0  0  0
    2.6287    0.7475    0.2081 H   0  0  0  0  0  0  0  0  0  0  0  0
    2.8905    1.5478    1.7439 H   0  0  0  0  0  0  0  0  0  0  0  0
    4.5994   -0.2293    2.3498 H   0  0  0  0  0  0  0  0  0  0  0  0
    5.0276    0.8201    1.0059 H   0  0  0  0  0  0  0  0  0  0  0  0
    4.2812   -0.9253   -0.6178 H   0  0  0  0  0  0  0  0  0  0  0  0
    3.9062   -2.0139    0.7241 H   0  0  0  0  0  0  0  0  0  0  0  0
   -1.4953   -2.0712   -2.9274 H   0  0  0  0  0  0  0  0  0  0  0  0
   -0.2422   -0.8917   -3.3952 H   0  0  0  0  0  0  0  0  0  0  0  0
    1.2225   -2.6627   -2.7731 H   0  0  0  0  0  0  0  0  0  0  0  0
   -0.0023   -3.3999   -1.7407 H   0  0  0  0  0  0  0  0  0  0  0  0
    1.9605   -1.2347   -1.0365 H   0  0  0  0  0  0  0  0  0  0  0  0
    1.2256   -2.5072   -0.0147 H   0  0  0  0  0  0  0  0  0  0  0  0
  1  2  1  0
  2  3  1  0
  3  4  2  0
  4  5  1  0
  5  6  2  0
  6  7  1  0
  6  8  1  0
  8  9  2  0
  2 10  2  0
 10 11  1  0
 11 12  2  3
 12 13  1  0
 13 14  1  0
 14 15  1  0
 15 16  1  0
 16 17  1  0
 17 18  2  0
 17 19  1  0
 11 20  1  0
 20 21  2  0
 21 22  1  0
 22 23  1  0
 23 24  1  0
 21  1  1  0
  9  3  1  0
 24 20  1  0
  1 25  1  0
  4 26  1  0
  5 27  1  0
  8 28  1  0
  9 29  1  0
 13 30  1  0
 13 31  1  0
 14 32  1  0
 14 33  1  0
 15 34  1  0
 15 35  1  0
 16 36  1  0
 16 37  1  0
 22 38  1  0
 22 39  1  0
 23 40  1  0
 23 41  1  0
 24 42  1  0
 24 43  1  0
M  CHG  1  19  -1
M  END
>  <ScrubInfo>  (3) 
{"isomerGroup": 0, "isomerId": 2, "confId": 0, "nr_conformers:": 1, "nr_isomers:": 3}

$$$$
