REMARK SMILES O=C([O-])CCCCNc1nc(-c2ccc(Cl)cc2)nc2c1CCC2
REMARK SMILES IDX 6 1 5 2 4 3 2 4 1 5 3 6 7 7 8 8 9 10 10 11 21 12 11 13 20 14
REMARK SMILES IDX 22 15 19 16 24 17 23 18 12 19 13 20 18 21 14 22 17 23 15 24
REMARK SMILES IDX 16 25
REMARK H PARENT 8 9
ROOT
ATOM      1  C   UNL     1       3.673   0.276  -0.814  1.00  0.00     0.022 C 
ENDROOT
BRANCH   1   2
ATOM      2  C   UNL     1       4.148  -1.151  -1.133  1.00  0.00     0.008 C 
BRANCH   2   3
ATOM      3  C   UNL     1       3.544  -2.272  -0.296  1.00  0.00     0.053 C 
BRANCH   3   4
ATOM      4  C   UNL     1       3.854  -2.091   1.186  1.00  0.00     0.041 C 
ATOM      5  O   UNL     1       4.982  -2.507   1.563  1.00  0.00    -0.550 OA
ATOM      6  O   UNL     1       2.926  -1.540   1.847  1.00  0.00    -0.550 OA
ENDBRANCH   3   4
ENDBRANCH   2   3
ENDBRANCH   1   2
BRANCH   1   7
ATOM      7  C   UNL     1       2.151   0.464  -0.851  1.00  0.00     0.114 C 
BRANCH   7   8
ATOM      8  N   UNL     1       1.604   0.442   0.499  1.00  0.00    -0.370 N 
ATOM      9  H   UNL     1       2.032  -0.314   1.077  1.00  0.00     0.162 HD
BRANCH   8  10
ATOM     10  C   UNL     1       0.211   0.367   0.590  1.00  0.00     0.133 A 
ATOM     11  N   UNL     1      -0.567   0.627  -0.481  1.00  0.00    -0.211 NA
ATOM     12  C   UNL     1      -0.371   0.128   1.807  1.00  0.00     0.016 A 
ATOM     13  C   UNL     1      -1.913   0.584  -0.327  1.00  0.00     0.161 A 
ATOM     14  C   UNL     1      -1.748   0.107   1.867  1.00  0.00     0.050 A 
ATOM     15  C   UNL     1       0.238  -0.187   3.131  1.00  0.00     0.042 C 
ATOM     16  N   UNL     1      -2.560   0.322   0.828  1.00  0.00    -0.233 NA
ATOM     17  C   UNL     1      -2.217  -0.231   3.253  1.00  0.00     0.057 C 
ATOM     18  C   UNL     1      -0.952   0.072   4.068  1.00  0.00     0.011 C 
BRANCH  13  19
ATOM     19  C   UNL     1      -2.740   0.853  -1.526  1.00  0.00     0.019 A 
ATOM     20  C   UNL     1      -2.155   1.200  -2.760  1.00  0.00     0.013 A 
ATOM     21  C   UNL     1      -4.147   0.771  -1.484  1.00  0.00     0.013 A 
ATOM     22  C   UNL     1      -2.933   1.456  -3.896  1.00  0.00     0.021 A 
ATOM     23  C   UNL     1      -4.931   1.024  -2.616  1.00  0.00     0.021 A 
ATOM     24  C   UNL     1      -4.319   1.366  -3.817  1.00  0.00     0.041 A 
ATOM     25  Cl  UNL     1      -5.280   1.678  -5.210  1.00  0.00    -0.084 Cl
ENDBRANCH  13  19
ENDBRANCH   8  10
ENDBRANCH   7   8
ENDBRANCH   1   7
TORSDOF 7
