_i0
     RDKit          3D

 51 53  0  0  0  0  0  0  0  0999 V2000
   -4.3704   -0.1340   -0.2764 C   0  0  0  0  0  0  0  0  0  0  0  0
   -3.2435    0.8582   -0.1245 N   0  0  0  0  0  4  0  0  0  0  0  0
   -3.0395    1.6514   -1.3868 C   0  0  0  0  0  0  0  0  0  0  0  0
   -3.3611    1.7466    1.0728 C   0  0  0  0  0  0  0  0  0  0  0  0
   -4.4232   -1.1824    0.8368 C   0  0  0  0  0  0  0  0  0  0  0  0
   -3.1239   -1.9454    1.0995 C   0  0  0  0  0  0  0  0  0  0  0  0
   -2.5410   -2.3783   -0.1556 N   0  0  0  0  0  0  0  0  0  0  0  0
   -1.2405   -1.9716   -0.4222 C   0  0  0  0  0  0  0  0  0  0  0  0
   -0.8741   -0.7143   -0.0738 N   0  0  0  0  0  0  0  0  0  0  0  0
   -0.4975   -2.8547   -1.0870 N   0  0  0  0  0  0  0  0  0  0  0  0
    0.3888   -0.2829   -0.3588 C   0  0  0  0  0  0  0  0  0  0  0  0
    0.7166   -2.3829   -1.4071 C   0  0  0  0  0  0  0  0  0  0  0  0
    0.7250    1.0167    0.0605 N   0  0  0  0  0  0  0  0  0  0  0  0
    1.2193   -1.1347   -1.0939 C   0  0  0  0  0  0  0  0  0  0  0  0
    1.7033   -3.0244   -2.1074 N   0  0  0  0  0  0  0  0  0  0  0  0
    1.9997    1.4562    0.4884 C   0  0  0  0  0  0  0  0  0  0  0  0
    2.5079   -1.1229   -1.6685 C   0  0  0  0  0  0  0  0  0  0  0  0
    2.8092   -2.2698   -2.2860 N   0  0  0  0  0  0  0  0  0  0  0  0
    1.6624   -4.3594   -2.6507 C   0  0  0  0  0  0  0  0  0  0  0  0
    2.8470    0.6580    1.2654 C   0  0  0  0  0  0  0  0  0  0  0  0
    2.3582    2.7891    0.2610 C   0  0  0  0  0  0  0  0  0  0  0  0
    4.0623    1.1608    1.7396 C   0  0  0  0  0  0  0  0  0  0  0  0
    3.5723    3.2941    0.7342 C   0  0  0  0  0  0  0  0  0  0  0  0
    4.4427    2.4773    1.4620 C   0  0  0  0  0  0  0  0  0  0  0  0
    5.7343    3.0247    1.9951 C   0  0  0  0  0  0  0  0  0  0  0  0
   -5.3049    0.4376   -0.3125 H   0  0  0  0  0  0  0  0  0  0  0  0
   -4.2385   -0.6250   -1.2475 H   0  0  0  0  0  0  0  0  0  0  0  0
   -2.3720    0.2981   -0.0321 H   0  0  0  0  0  0  0  0  0  0  0  0
   -2.8559    0.9508   -2.2058 H   0  0  0  0  0  0  0  0  0  0  0  0
   -2.1647    2.2925   -1.2482 H   0  0  0  0  0  0  0  0  0  0  0  0
   -3.9372    2.2472   -1.5717 H   0  0  0  0  0  0  0  0  0  0  0  0
   -4.2891    2.3191    0.9943 H   0  0  0  0  0  0  0  0  0  0  0  0
   -2.4936    2.4120    1.0911 H   0  0  0  0  0  0  0  0  0  0  0  0
   -3.3576    1.1253    1.9707 H   0  0  0  0  0  0  0  0  0  0  0  0
   -4.7618   -0.7237    1.7732 H   0  0  0  0  0  0  0  0  0  0  0  0
   -5.2017   -1.9070    0.5635 H   0  0  0  0  0  0  0  0  0  0  0  0
   -3.3479   -2.8271    1.7121 H   0  0  0  0  0  0  0  0  0  0  0  0
   -2.4477   -1.3289    1.7041 H   0  0  0  0  0  0  0  0  0  0  0  0
   -2.5395   -3.3893   -0.2987 H   0  0  0  0  0  0  0  0  0  0  0  0
    0.0395    1.3078    0.7494 H   0  0  0  0  0  0  0  0  0  0  0  0
    3.2417   -0.3260   -1.6648 H   0  0  0  0  0  0  0  0  0  0  0  0
    0.7150   -4.8381   -2.3932 H   0  0  0  0  0  0  0  0  0  0  0  0
    2.4925   -4.9293   -2.2257 H   0  0  0  0  0  0  0  0  0  0  0  0
    1.7612   -4.2910   -3.7369 H   0  0  0  0  0  0  0  0  0  0  0  0
    2.5782   -0.3640    1.5199 H   0  0  0  0  0  0  0  0  0  0  0  0
    1.7024    3.4442   -0.3069 H   0  0  0  0  0  0  0  0  0  0  0  0
    4.7102    0.5174    2.3324 H   0  0  0  0  0  0  0  0  0  0  0  0
    3.8362    4.3298    0.5295 H   0  0  0  0  0  0  0  0  0  0  0  0
    5.5765    3.4546    2.9890 H   0  0  0  0  0  0  0  0  0  0  0  0
    6.1326    3.8003    1.3325 H   0  0  0  0  0  0  0  0  0  0  0  0
    6.4923    2.2375    2.0655 H   0  0  0  0  0  0  0  0  0  0  0  0
  1  2  1  0
  2  3  1  0
  2  4  1  0
  5  1  1  0
  6  5  1  0
  7  6  1  0
  8  7  1  0
  9  8  2  0
  8 10  1  0
 11  9  1  0
 10 12  2  0
 13 11  1  0
 14 11  2  0
 12 14  1  0
 15 12  1  0
 16 13  1  0
 14 17  1  0
 18 15  1  0
 15 19  1  0
 20 16  2  0
 16 21  1  0
 17 18  2  0
 22 20  1  0
 21 23  2  0
 24 22  2  0
 23 24  1  0
 25 24  1  0
  1 26  1  0
  1 27  1  0
  2 28  1  0
  3 29  1  0
  3 30  1  0
  3 31  1  0
  4 32  1  0
  4 33  1  0
  4 34  1  0
  5 35  1  0
  5 36  1  0
  6 37  1  0
  6 38  1  0
  7 39  1  0
 13 40  1  0
 17 41  1  0
 19 42  1  0
 19 43  1  0
 19 44  1  0
 20 45  1  0
 21 46  1  0
 22 47  1  0
 23 48  1  0
 25 49  1  0
 25 50  1  0
 25 51  1  0
M  CHG  1   2   1
M  END
>  <ScrubInfo>  (1) 
{"isomerGroup": 0, "isomerId": 0, "confId": 0, "nr_conformers:": 1, "nr_isomers:": 9}

$$$$
_i1
     RDKit          3D

 51 53  0  0  0  0  0  0  0  0999 V2000
    0.1034    0.5446   -0.1616 N   0  0  0  0  0  0  0  0  0  0  0  0
   -1.1401    0.2198   -0.6772 C   0  0  0  0  0  0  0  0  0  0  0  0
   -2.0243    1.2060   -1.0636 N   0  0  0  0  0  0  0  0  0  0  0  0
   -3.3776    1.3403   -0.6759 C   0  0  0  0  0  0  0  0  0  0  0  0
   -4.1770    2.2576   -1.3725 C   0  0  0  0  0  0  0  0  0  0  0  0
   -5.5331    2.4117   -1.0684 C   0  0  0  0  0  0  0  0  0  0  0  0
   -6.1209    1.6518   -0.0544 C   0  0  0  0  0  0  0  0  0  0  0  0
   -7.5835    1.7883    0.2507 C   0  0  0  0  0  0  0  0  0  0  0  0
   -5.3369    0.7189    0.6296 C   0  0  0  0  0  0  0  0  0  0  0  0
   -3.9802    0.5661    0.3221 C   0  0  0  0  0  0  0  0  0  0  0  0
   -1.3702   -1.0901   -0.8346 C   0  0  0  0  0  0  0  0  0  0  0  0
   -2.4179   -1.9522   -1.3957 C   0  0  0  0  0  0  0  0  0  0  0  0
   -2.1168   -3.2250   -1.3271 N   0  0  0  0  0  0  0  0  0  0  0  0
   -0.8732   -3.2854   -0.6808 N   0  0  0  0  0  0  0  0  0  0  0  0
   -0.1534   -4.5352   -0.6748 C   0  0  0  0  0  0  0  0  0  0  0  0
   -0.3305   -2.0454   -0.3955 C   0  0  0  0  0  0  0  0  0  0  0  0
    0.8085   -1.7262    0.1226 N   0  0  0  0  0  0  0  0  0  0  0  0
    1.0141   -0.3773    0.2902 C   0  0  0  0  0  0  0  0  0  0  0  0
    2.0969    0.0385    0.8751 N   0  0  0  0  0  0  0  0  0  0  0  0
    2.9716   -1.0086    1.4158 C   0  0  0  0  0  0  0  0  0  0  0  0
    4.1444   -0.3603    2.1520 C   0  0  0  0  0  0  0  0  0  0  0  0
    4.7285    0.8903    1.4971 C   0  0  0  0  0  0  0  0  0  0  0  0
    4.8902    0.7519    0.0022 N   0  0  0  0  0  4  0  0  0  0  0  0
    5.9241   -0.2528   -0.4083 C   0  0  0  0  0  0  0  0  0  0  0  0
    5.1219    2.0811   -0.6550 C   0  0  0  0  0  0  0  0  0  0  0  0
    0.2299    1.4952    0.1505 H   0  0  0  0  0  0  0  0  0  0  0  0
   -1.6006    2.1155   -1.2191 H   0  0  0  0  0  0  0  0  0  0  0  0
   -3.7551    2.8540   -2.1781 H   0  0  0  0  0  0  0  0  0  0  0  0
   -6.1286    3.1253   -1.6343 H   0  0  0  0  0  0  0  0  0  0  0  0
   -7.7841    1.5720    1.3053 H   0  0  0  0  0  0  0  0  0  0  0  0
   -8.1611    1.0957   -0.3690 H   0  0  0  0  0  0  0  0  0  0  0  0
   -7.9291    2.8093    0.0575 H   0  0  0  0  0  0  0  0  0  0  0  0
   -5.7773    0.1028    1.4115 H   0  0  0  0  0  0  0  0  0  0  0  0
   -3.4097   -0.1555    0.8996 H   0  0  0  0  0  0  0  0  0  0  0  0
   -3.3291   -1.5309   -1.8397 H   0  0  0  0  0  0  0  0  0  0  0  0
   -0.8439   -5.3816   -0.6005 H   0  0  0  0  0  0  0  0  0  0  0  0
    0.5308   -4.5869    0.1782 H   0  0  0  0  0  0  0  0  0  0  0  0
    0.4290   -4.6426   -1.5950 H   0  0  0  0  0  0  0  0  0  0  0  0
    3.3599   -1.6350    0.6037 H   0  0  0  0  0  0  0  0  0  0  0  0
    2.4344   -1.6553    2.1207 H   0  0  0  0  0  0  0  0  0  0  0  0
    3.8162   -0.0801    3.1613 H   0  0  0  0  0  0  0  0  0  0  0  0
    4.9303   -1.1119    2.2940 H   0  0  0  0  0  0  0  0  0  0  0  0
    5.7085    1.1402    1.9189 H   0  0  0  0  0  0  0  0  0  0  0  0
    4.0568    1.7401    1.6665 H   0  0  0  0  0  0  0  0  0  0  0  0
    3.9668    0.4270   -0.3318 H   0  0  0  0  0  0  0  0  0  0  0  0
    5.6596   -1.2256    0.0103 H   0  0  0  0  0  0  0  0  0  0  0  0
    5.9236   -0.3140   -1.5000 H   0  0  0  0  0  0  0  0  0  0  0  0
    6.8978    0.0786   -0.0377 H   0  0  0  0  0  0  0  0  0  0  0  0
    6.0684    2.4900   -0.2911 H   0  0  0  0  0  0  0  0  0  0  0  0
    4.2866    2.7393   -0.4013 H   0  0  0  0  0  0  0  0  0  0  0  0
    5.1520    1.9260   -1.7368 H   0  0  0  0  0  0  0  0  0  0  0  0
  1  2  1  0
  2  3  1  0
  3  4  1  0
  4  5  2  0
  5  6  1  0
  6  7  2  0
  7  8  1  0
  7  9  1  0
  9 10  2  0
  2 11  2  0
 11 12  1  0
 12 13  2  0
 13 14  1  0
 14 15  1  0
 14 16  1  0
 16 17  2  0
 17 18  1  0
 18 19  2  3
 19 20  1  0
 20 21  1  0
 21 22  1  0
 22 23  1  0
 23 24  1  0
 23 25  1  0
 18  1  1  0
 10  4  1  0
 16 11  1  0
  1 26  1  0
  3 27  1  0
  5 28  1  0
  6 29  1  0
  8 30  1  0
  8 31  1  0
  8 32  1  0
  9 33  1  0
 10 34  1  0
 12 35  1  0
 15 36  1  0
 15 37  1  0
 15 38  1  0
 20 39  1  0
 20 40  1  0
 21 41  1  0
 21 42  1  0
 22 43  1  0
 22 44  1  0
 23 45  1  0
 24 46  1  0
 24 47  1  0
 24 48  1  0
 25 49  1  0
 25 50  1  0
 25 51  1  0
M  CHG  1  23   1
M  END
>  <ScrubInfo>  (2) 
{"isomerGroup": 0, "isomerId": 1, "confId": 0, "nr_conformers:": 1, "nr_isomers:": 9}

$$$$
_i2
     RDKit          3D

 51 53  0  0  0  0  0  0  0  0999 V2000
   -1.4324   -0.4590    0.1086 N   0  0  0  0  0  0  0  0  0  0  0  0
   -0.0713   -0.5365    0.3038 C   0  0  0  0  0  0  0  0  0  0  0  0
    0.5280    0.6980    0.3878 N   0  0  0  0  0  0  0  0  0  0  0  0
    1.9459    0.8086    0.6864 C   0  0  0  0  0  0  0  0  0  0  0  0
    2.7779    0.5203   -0.5648 C   0  0  0  0  0  0  0  0  0  0  0  0
    4.2406    0.2149   -0.2635 C   0  0  0  0  0  0  0  0  0  0  0  0
    5.0026    1.3968    0.3042 N   0  0  0  0  0  4  0  0  0  0  0  0
    6.3534    0.9588    0.8218 C   0  0  0  0  0  0  0  0  0  0  0  0
    5.1568    2.5369   -0.6697 C   0  0  0  0  0  0  0  0  0  0  0  0
    0.6015   -1.6587    0.3908 N   0  0  0  0  0  0  0  0  0  0  0  0
   -0.2208   -2.7422    0.2806 C   0  0  0  0  0  0  0  0  0  0  0  0
   -1.5882   -2.7563    0.0813 C   0  0  0  0  0  0  0  0  0  0  0  0
   -1.9464   -4.1101    0.0370 C   0  0  0  0  0  0  0  0  0  0  0  0
   -0.8886   -4.9149    0.2005 N   0  0  0  0  0  0  0  0  0  0  0  0
    0.1483   -4.0579    0.3502 N   0  0  0  0  0  0  0  0  0  0  0  0
    1.4699   -4.5912    0.5595 C   0  0  0  0  0  0  0  0  0  0  0  0
   -2.3081   -1.5157   -0.0376 C   0  0  0  0  0  0  0  0  0  0  0  0
   -3.5786   -1.5487   -0.2581 N   0  0  0  0  0  0  0  0  0  0  0  0
   -4.2530   -0.3274   -0.3713 C   0  0  0  0  0  0  0  0  0  0  0  0
   -4.4121    0.2762   -1.6199 C   0  0  0  0  0  0  0  0  0  0  0  0
   -5.0724    1.5020   -1.7340 C   0  0  0  0  0  0  0  0  0  0  0  0
   -5.5830    2.1394   -0.5968 C   0  0  0  0  0  0  0  0  0  0  0  0
   -6.3384    3.4298   -0.7243 C   0  0  0  0  0  0  0  0  0  0  0  0
   -5.4507    1.5161    0.6498 C   0  0  0  0  0  0  0  0  0  0  0  0
   -4.7896    0.2903    0.7598 C   0  0  0  0  0  0  0  0  0  0  0  0
   -1.8301    0.4482   -0.0737 H   0  0  0  0  0  0  0  0  0  0  0  0
   -0.0424    1.3853    0.8719 H   0  0  0  0  0  0  0  0  0  0  0  0
    2.1525    1.8290    1.0286 H   0  0  0  0  0  0  0  0  0  0  0  0
    2.2142    0.1390    1.5121 H   0  0  0  0  0  0  0  0  0  0  0  0
    2.3740   -0.3543   -1.0894 H   0  0  0  0  0  0  0  0  0  0  0  0
    2.6789    1.3485   -1.2752 H   0  0  0  0  0  0  0  0  0  0  0  0
    4.3104   -0.5958    0.4708 H   0  0  0  0  0  0  0  0  0  0  0  0
    4.7661   -0.0957   -1.1738 H   0  0  0  0  0  0  0  0  0  0  0  0
    4.4969    1.7575    1.1222 H   0  0  0  0  0  0  0  0  0  0  0  0
    6.9381    0.5698   -0.0161 H   0  0  0  0  0  0  0  0  0  0  0  0
    6.8411    1.8268    1.2735 H   0  0  0  0  0  0  0  0  0  0  0  0
    6.1917    0.1895    1.5814 H   0  0  0  0  0  0  0  0  0  0  0  0
    5.6453    2.1623   -1.5730 H   0  0  0  0  0  0  0  0  0  0  0  0
    4.1665    2.9396   -0.8906 H   0  0  0  0  0  0  0  0  0  0  0  0
    5.7616    3.3125   -0.1918 H   0  0  0  0  0  0  0  0  0  0  0  0
   -2.9280   -4.5441   -0.1067 H   0  0  0  0  0  0  0  0  0  0  0  0
    1.7270   -5.2211   -0.2959 H   0  0  0  0  0  0  0  0  0  0  0  0
    1.4615   -5.1808    1.4797 H   0  0  0  0  0  0  0  0  0  0  0  0
    2.1926   -3.7770    0.6486 H   0  0  0  0  0  0  0  0  0  0  0  0
   -4.0348   -0.2199   -2.5105 H   0  0  0  0  0  0  0  0  0  0  0  0
   -5.2017    1.9468   -2.7185 H   0  0  0  0  0  0  0  0  0  0  0  0
   -5.9552    4.0251   -1.5597 H   0  0  0  0  0  0  0  0  0  0  0  0
   -6.2315    4.0354    0.1818 H   0  0  0  0  0  0  0  0  0  0  0  0
   -7.4006    3.2268   -0.8916 H   0  0  0  0  0  0  0  0  0  0  0  0
   -5.8779    1.9717    1.5407 H   0  0  0  0  0  0  0  0  0  0  0  0
   -4.7075   -0.1948    1.7290 H   0  0  0  0  0  0  0  0  0  0  0  0
  1  2  1  0
  2  3  1  0
  3  4  1  0
  4  5  1  0
  5  6  1  0
  6  7  1  0
  7  8  1  0
  7  9  1  0
  2 10  2  0
 10 11  1  0
 11 12  2  0
 12 13  1  0
 13 14  2  0
 14 15  1  0
 15 16  1  0
 12 17  1  0
 17 18  2  3
 18 19  1  0
 19 20  2  0
 20 21  1  0
 21 22  2  0
 22 23  1  0
 22 24  1  0
 24 25  2  0
 17  1  1  0
 25 19  1  0
 15 11  1  0
  1 26  1  0
  3 27  1  0
  4 28  1  0
  4 29  1  0
  5 30  1  0
  5 31  1  0
  6 32  1  0
  6 33  1  0
  7 34  1  0
  8 35  1  0
  8 36  1  0
  8 37  1  0
  9 38  1  0
  9 39  1  0
  9 40  1  0
 13 41  1  0
 16 42  1  0
 16 43  1  0
 16 44  1  0
 20 45  1  0
 21 46  1  0
 23 47  1  0
 23 48  1  0
 23 49  1  0
 24 50  1  0
 25 51  1  0
M  CHG  1   7   1
M  END
>  <ScrubInfo>  (3) 
{"isomerGroup": 0, "isomerId": 2, "confId": 0, "nr_conformers:": 1, "nr_isomers:": 9}

$$$$
_i3
     RDKit          3D

 51 53  0  0  0  0  0  0  0  0999 V2000
   -0.3381   -0.9685   -1.3857 N   0  0  0  0  0  0  0  0  0  0  0  0
   -0.4884   -0.6496   -0.0459 C   0  0  0  0  0  0  0  0  0  0  0  0
   -1.5745   -0.2738    0.5307 N   0  0  0  0  0  0  0  0  0  0  0  0
   -2.8100   -0.1418   -0.2127 C   0  0  0  0  0  0  0  0  0  0  0  0
   -3.8679    0.3239    0.7905 C   0  0  0  0  0  0  0  0  0  0  0  0
   -5.2274    0.5025    0.1345 C   0  0  0  0  0  0  0  0  0  0  0  0
   -6.2828    0.8369    1.1731 N   0  0  0  0  0  4  0  0  0  0  0  0
   -6.1347    2.2168    1.7595 C   0  0  0  0  0  0  0  0  0  0  0  0
   -7.6727    0.6262    0.6352 C   0  0  0  0  0  0  0  0  0  0  0  0
    0.5779   -0.7133    0.8367 N   0  0  0  0  0  0  0  0  0  0  0  0
    1.7571   -1.0640    0.4053 C   0  0  0  0  0  0  0  0  0  0  0  0
    2.8499   -1.1748    1.2252 N   0  0  0  0  0  0  0  0  0  0  0  0
    4.0531   -0.4382    1.0694 C   0  0  0  0  0  0  0  0  0  0  0  0
    5.1684   -0.8312    1.8211 C   0  0  0  0  0  0  0  0  0  0  0  0
    6.3792   -0.1397    1.7256 C   0  0  0  0  0  0  0  0  0  0  0  0
    6.4932    0.9740    0.8890 C   0  0  0  0  0  0  0  0  0  0  0  0
    7.8016    1.6958    0.7561 C   0  0  0  0  0  0  0  0  0  0  0  0
    5.3838    1.3706    0.1359 C   0  0  0  0  0  0  0  0  0  0  0  0
    4.1726    0.6773    0.2329 C   0  0  0  0  0  0  0  0  0  0  0  0
    1.9499   -1.4378   -0.9763 C   0  0  0  0  0  0  0  0  0  0  0  0
    2.9910   -1.9164   -1.7857 C   0  0  0  0  0  0  0  0  0  0  0  0
    2.5969   -2.1113   -3.0538 N   0  0  0  0  0  0  0  0  0  0  0  0
    1.2886   -1.7654   -3.0480 N   0  0  0  0  0  0  0  0  0  0  0  0
    0.5380   -1.8663   -4.2735 C   0  0  0  0  0  0  0  0  0  0  0  0
    0.8731   -1.3654   -1.8167 C   0  0  0  0  0  0  0  0  0  0  0  0
   -1.1496   -0.9255   -1.9804 H   0  0  0  0  0  0  0  0  0  0  0  0
   -3.1091   -1.1020   -0.6485 H   0  0  0  0  0  0  0  0  0  0  0  0
   -2.7089    0.5984   -1.0147 H   0  0  0  0  0  0  0  0  0  0  0  0
   -3.9395   -0.4058    1.6075 H   0  0  0  0  0  0  0  0  0  0  0  0
   -3.5321    1.2653    1.2407 H   0  0  0  0  0  0  0  0  0  0  0  0
   -5.5380   -0.4333   -0.3434 H   0  0  0  0  0  0  0  0  0  0  0  0
   -5.2284    1.3041   -0.6120 H   0  0  0  0  0  0  0  0  0  0  0  0
   -6.1669    0.1711    1.9502 H   0  0  0  0  0  0  0  0  0  0  0  0
   -5.1814    2.2719    2.2882 H   0  0  0  0  0  0  0  0  0  0  0  0
   -6.9500    2.3724    2.4714 H   0  0  0  0  0  0  0  0  0  0  0  0
   -6.1820    2.9474    0.9478 H   0  0  0  0  0  0  0  0  0  0  0  0
   -7.7576   -0.4142    0.3103 H   0  0  0  0  0  0  0  0  0  0  0  0
   -8.3839    0.8190    1.4428 H   0  0  0  0  0  0  0  0  0  0  0  0
   -7.8300    1.3134   -0.2003 H   0  0  0  0  0  0  0  0  0  0  0  0
    2.5584   -1.0769    2.1958 H   0  0  0  0  0  0  0  0  0  0  0  0
    5.1082   -1.6964    2.4778 H   0  0  0  0  0  0  0  0  0  0  0  0
    7.2333   -0.4790    2.3080 H   0  0  0  0  0  0  0  0  0  0  0  0
    8.3968    1.2467   -0.0449 H   0  0  0  0  0  0  0  0  0  0  0  0
    8.3710    1.6476    1.6903 H   0  0  0  0  0  0  0  0  0  0  0  0
    7.6419    2.7549    0.5278 H   0  0  0  0  0  0  0  0  0  0  0  0
    5.4532    2.2271   -0.5315 H   0  0  0  0  0  0  0  0  0  0  0  0
    3.3297    1.0353   -0.3520 H   0  0  0  0  0  0  0  0  0  0  0  0
    4.0176   -2.1317   -1.5164 H   0  0  0  0  0  0  0  0  0  0  0  0
    1.0342   -1.2581   -5.0341 H   0  0  0  0  0  0  0  0  0  0  0  0
    0.5150   -2.9159   -4.5773 H   0  0  0  0  0  0  0  0  0  0  0  0
   -0.4797   -1.5025   -4.1172 H   0  0  0  0  0  0  0  0  0  0  0  0
  1  2  1  0
  2  3  2  3
  3  4  1  0
  4  5  1  0
  5  6  1  0
  6  7  1  0
  7  8  1  0
  7  9  1  0
  2 10  1  0
 10 11  2  0
 11 12  1  0
 12 13  1  0
 13 14  2  0
 14 15  1  0
 15 16  2  0
 16 17  1  0
 16 18  1  0
 18 19  2  0
 11 20  1  0
 20 21  1  0
 21 22  2  0
 22 23  1  0
 23 24  1  0
 23 25  1  0
 25  1  1  0
 19 13  1  0
 25 20  2  0
  1 26  1  0
  4 27  1  0
  4 28  1  0
  5 29  1  0
  5 30  1  0
  6 31  1  0
  6 32  1  0
  7 33  1  0
  8 34  1  0
  8 35  1  0
  8 36  1  0
  9 37  1  0
  9 38  1  0
  9 39  1  0
 12 40  1  0
 14 41  1  0
 15 42  1  0
 17 43  1  0
 17 44  1  0
 17 45  1  0
 18 46  1  0
 19 47  1  0
 21 48  1  0
 24 49  1  0
 24 50  1  0
 24 51  1  0
M  CHG  1   7   1
M  END
>  <ScrubInfo>  (4) 
{"isomerGroup": 0, "isomerId": 3, "confId": 0, "nr_conformers:": 1, "nr_isomers:": 9}

$$$$
_i4
     RDKit          3D

 51 53  0  0  0  0  0  0  0  0999 V2000
   -0.8676   -0.7829    2.7177 N   0  0  0  0  0  0  0  0  0  0  0  0
   -1.2134    0.3861    2.0967 C   0  0  0  0  0  0  0  0  0  0  0  0
   -2.3807    0.9335    2.5489 N   0  0  0  0  0  0  0  0  0  0  0  0
   -3.6440    0.4992    1.9434 C   0  0  0  0  0  0  0  0  0  0  0  0
   -3.6286    0.5536    0.4069 C   0  0  0  0  0  0  0  0  0  0  0  0
   -3.4949    1.9768   -0.1350 C   0  0  0  0  0  0  0  0  0  0  0  0
   -3.1498    2.0261   -1.6100 N   0  0  0  0  0  4  0  0  0  0  0  0
   -4.0821    1.2688   -2.5049 C   0  0  0  0  0  0  0  0  0  0  0  0
   -1.6984    1.7042   -1.8857 C   0  0  0  0  0  0  0  0  0  0  0  0
   -0.5529    0.9754    1.1422 N   0  0  0  0  0  0  0  0  0  0  0  0
    0.6103    0.3801    0.6595 C   0  0  0  0  0  0  0  0  0  0  0  0
    1.0797    0.9085   -0.4261 N   0  0  0  0  0  0  0  0  0  0  0  0
    2.2238    0.4099   -1.0517 C   0  0  0  0  0  0  0  0  0  0  0  0
    3.4602    1.0182   -0.8277 C   0  0  0  0  0  0  0  0  0  0  0  0
    4.6078    0.5461   -1.4692 C   0  0  0  0  0  0  0  0  0  0  0  0
    4.5308   -0.5398   -2.3488 C   0  0  0  0  0  0  0  0  0  0  0  0
    5.7586   -1.0291   -3.0600 C   0  0  0  0  0  0  0  0  0  0  0  0
    3.2840   -1.1231   -2.6028 C   0  0  0  0  0  0  0  0  0  0  0  0
    2.1377   -0.6478   -1.9606 C   0  0  0  0  0  0  0  0  0  0  0  0
    1.1062   -0.7709    1.3897 C   0  0  0  0  0  0  0  0  0  0  0  0
    2.2484   -1.5901    1.3917 C   0  0  0  0  0  0  0  0  0  0  0  0
    2.1843   -2.5626    2.3139 N   0  0  0  0  0  0  0  0  0  0  0  0
    0.9960   -2.3593    2.9239 N   0  0  0  0  0  0  0  0  0  0  0  0
    0.6047   -3.2318    4.0023 C   0  0  0  0  0  0  0  0  0  0  0  0
    0.3275   -1.3047    2.3877 C   0  0  0  0  0  0  0  0  0  0  0  0
   -1.3774   -1.0223    3.5605 H   0  0  0  0  0  0  0  0  0  0  0  0
   -2.3014    1.9462    2.4791 H   0  0  0  0  0  0  0  0  0  0  0  0
   -4.4540    1.1256    2.3335 H   0  0  0  0  0  0  0  0  0  0  0  0
   -3.8522   -0.5282    2.2640 H   0  0  0  0  0  0  0  0  0  0  0  0
   -4.5719    0.1245    0.0464 H   0  0  0  0  0  0  0  0  0  0  0  0
   -2.8352   -0.0953    0.0227 H   0  0  0  0  0  0  0  0  0  0  0  0
   -4.4440    2.5141   -0.0248 H   0  0  0  0  0  0  0  0  0  0  0  0
   -2.7264    2.5619    0.3781 H   0  0  0  0  0  0  0  0  0  0  0  0
   -3.2430    3.0153   -1.8756 H   0  0  0  0  0  0  0  0  0  0  0  0
   -3.8504    1.5387   -3.5387 H   0  0  0  0  0  0  0  0  0  0  0  0
   -3.9365    0.1974   -2.3462 H   0  0  0  0  0  0  0  0  0  0  0  0
   -5.1047    1.5687   -2.2624 H   0  0  0  0  0  0  0  0  0  0  0  0
   -1.0873    2.3781   -1.2821 H   0  0  0  0  0  0  0  0  0  0  0  0
   -1.5185    0.6542   -1.6490 H   0  0  0  0  0  0  0  0  0  0  0  0
   -1.5123    1.8941   -2.9464 H   0  0  0  0  0  0  0  0  0  0  0  0
    3.5336    1.8649   -0.1502 H   0  0  0  0  0  0  0  0  0  0  0  0
    5.5625    1.0326   -1.2790 H   0  0  0  0  0  0  0  0  0  0  0  0
    5.6847   -2.1005   -3.2740 H   0  0  0  0  0  0  0  0  0  0  0  0
    6.6514   -0.8822   -2.4431 H   0  0  0  0  0  0  0  0  0  0  0  0
    5.8858   -0.4874   -4.0022 H   0  0  0  0  0  0  0  0  0  0  0  0
    3.2002   -1.9523   -3.3024 H   0  0  0  0  0  0  0  0  0  0  0  0
    1.1789   -1.1128   -2.1676 H   0  0  0  0  0  0  0  0  0  0  0  0
    3.1356   -1.5369    0.7741 H   0  0  0  0  0  0  0  0  0  0  0  0
    1.2849   -3.0654    4.8412 H   0  0  0  0  0  0  0  0  0  0  0  0
   -0.4215   -3.0121    4.3042 H   0  0  0  0  0  0  0  0  0  0  0  0
    0.6718   -4.2656    3.6538 H   0  0  0  0  0  0  0  0  0  0  0  0
  1  2  1  0
  2  3  1  0
  3  4  1  0
  4  5  1  0
  5  6  1  0
  6  7  1  0
  7  8  1  0
  7  9  1  0
  2 10  2  0
 10 11  1  0
 11 12  2  3
 12 13  1  0
 13 14  2  0
 14 15  1  0
 15 16  2  0
 16 17  1  0
 16 18  1  0
 18 19  2  0
 11 20  1  0
 20 21  1  0
 21 22  2  0
 22 23  1  0
 23 24  1  0
 23 25  1  0
 25  1  1  0
 19 13  1  0
 25 20  2  0
  1 26  1  0
  3 27  1  0
  4 28  1  0
  4 29  1  0
  5 30  1  0
  5 31  1  0
  6 32  1  0
  6 33  1  0
  7 34  1  0
  8 35  1  0
  8 36  1  0
  8 37  1  0
  9 38  1  0
  9 39  1  0
  9 40  1  0
 14 41  1  0
 15 42  1  0
 17 43  1  0
 17 44  1  0
 17 45  1  0
 18 46  1  0
 19 47  1  0
 21 48  1  0
 24 49  1  0
 24 50  1  0
 24 51  1  0
M  CHG  1   7   1
M  END
>  <ScrubInfo>  (5) 
{"isomerGroup": 0, "isomerId": 4, "confId": 0, "nr_conformers:": 1, "nr_isomers:": 9}

$$$$
_i5
     RDKit          3D

 51 53  0  0  0  0  0  0  0  0999 V2000
   -0.3936   -4.4231    0.9529 N   0  0  0  0  0  0  0  0  0  0  0  0
   -1.5014   -3.5845    0.9979 C   0  0  0  0  0  0  0  0  0  0  0  0
   -1.2392   -2.3557    0.5353 C   0  0  0  0  0  0  0  0  0  0  0  0
   -1.9726   -1.1335    0.3027 C   0  0  0  0  0  0  0  0  0  0  0  0
   -3.2163   -0.9977    0.6354 N   0  0  0  0  0  0  0  0  0  0  0  0
   -3.8546    0.2223    0.3707 C   0  0  0  0  0  0  0  0  0  0  0  0
   -4.4681    0.4506   -0.8630 C   0  0  0  0  0  0  0  0  0  0  0  0
   -5.1322    1.6545   -1.1138 C   0  0  0  0  0  0  0  0  0  0  0  0
   -5.1929    2.6478   -0.1293 C   0  0  0  0  0  0  0  0  0  0  0  0
   -5.9434    3.9221   -0.3809 C   0  0  0  0  0  0  0  0  0  0  0  0
   -4.6048    2.4052    1.1178 C   0  0  0  0  0  0  0  0  0  0  0  0
   -3.9413    1.1999    1.3638 C   0  0  0  0  0  0  0  0  0  0  0  0
   -1.2359   -0.1438   -0.2934 N   0  0  0  0  0  0  0  0  0  0  0  0
    0.0041   -0.3066   -0.6452 C   0  0  0  0  0  0  0  0  0  0  0  0
    0.5994    0.7886   -1.2073 N   0  0  0  0  0  0  0  0  0  0  0  0
    1.7715    0.7532   -2.0519 C   0  0  0  0  0  0  0  0  0  0  0  0
    3.0387    0.3613   -1.2861 C   0  0  0  0  0  0  0  0  0  0  0  0
    3.1994    1.1412    0.0159 C   0  0  0  0  0  0  0  0  0  0  0  0
    4.3100    0.5474    0.8679 N   0  0  0  0  0  4  0  0  0  0  0  0
    4.2362    1.0595    2.2831 C   0  0  0  0  0  0  0  0  0  0  0  0
    5.6846    0.7297    0.2942 C   0  0  0  0  0  0  0  0  0  0  0  0
    0.7434   -1.4493   -0.4774 N   0  0  0  0  0  0  0  0  0  0  0  0
    0.1595   -2.4460    0.0963 C   0  0  0  0  0  0  0  0  0  0  0  0
    0.6604   -3.7167    0.3797 N   0  0  0  0  0  0  0  0  0  0  0  0
    1.5845   -4.3944   -0.5074 C   0  0  0  0  0  0  0  0  0  0  0  0
   -0.6060   -5.3599    0.6001 H   0  0  0  0  0  0  0  0  0  0  0  0
   -2.4525   -3.9654    1.3457 H   0  0  0  0  0  0  0  0  0  0  0  0
   -4.4352   -0.3178   -1.6296 H   0  0  0  0  0  0  0  0  0  0  0  0
   -5.6102    1.8061   -2.0788 H   0  0  0  0  0  0  0  0  0  0  0  0
   -6.9924    3.8016   -0.0935 H   0  0  0  0  0  0  0  0  0  0  0  0
   -5.8954    4.2008   -1.4389 H   0  0  0  0  0  0  0  0  0  0  0  0
   -5.5115    4.7491    0.1924 H   0  0  0  0  0  0  0  0  0  0  0  0
   -4.6687    3.1477    1.9097 H   0  0  0  0  0  0  0  0  0  0  0  0
   -3.4980    1.0157    2.3377 H   0  0  0  0  0  0  0  0  0  0  0  0
   -0.1207    1.4489   -1.4973 H   0  0  0  0  0  0  0  0  0  0  0  0
    1.6133    0.0723   -2.8959 H   0  0  0  0  0  0  0  0  0  0  0  0
    1.9155    1.7541   -2.4754 H   0  0  0  0  0  0  0  0  0  0  0  0
    3.8985    0.5402   -1.9423 H   0  0  0  0  0  0  0  0  0  0  0  0
    3.0377   -0.7145   -1.0809 H   0  0  0  0  0  0  0  0  0  0  0  0
    3.4444    2.1937   -0.1639 H   0  0  0  0  0  0  0  0  0  0  0  0
    2.2952    1.0858    0.6289 H   0  0  0  0  0  0  0  0  0  0  0  0
    4.1233   -0.4639    0.9252 H   0  0  0  0  0  0  0  0  0  0  0  0
    5.0099    0.5550    2.8679 H   0  0  0  0  0  0  0  0  0  0  0  0
    3.2505    0.8111    2.6855 H   0  0  0  0  0  0  0  0  0  0  0  0
    4.3959    2.1410    2.2699 H   0  0  0  0  0  0  0  0  0  0  0  0
    6.4047    0.2837    0.9857 H   0  0  0  0  0  0  0  0  0  0  0  0
    5.7346    0.2078   -0.6636 H   0  0  0  0  0  0  0  0  0  0  0  0
    5.8733    1.7994    0.1720 H   0  0  0  0  0  0  0  0  0  0  0  0
    2.4520   -3.7603   -0.7168 H   0  0  0  0  0  0  0  0  0  0  0  0
    1.0980   -4.6459   -1.4554 H   0  0  0  0  0  0  0  0  0  0  0  0
    1.9484   -5.3181   -0.0462 H   0  0  0  0  0  0  0  0  0  0  0  0
  1  2  1  0
  2  3  2  0
  3  4  1  0
  4  5  2  3
  5  6  1  0
  6  7  2  0
  7  8  1  0
  8  9  2  0
  9 10  1  0
  9 11  1  0
 11 12  2  0
  4 13  1  0
 13 14  2  0
 14 15  1  0
 15 16  1  0
 16 17  1  0
 17 18  1  0
 18 19  1  0
 19 20  1  0
 19 21  1  0
 14 22  1  0
 22 23  2  0
 23 24  1  0
 24 25  1  0
 24  1  1  0
 23  3  1  0
 12  6  1  0
  1 26  1  0
  2 27  1  0
  7 28  1  0
  8 29  1  0
 10 30  1  0
 10 31  1  0
 10 32  1  0
 11 33  1  0
 12 34  1  0
 15 35  1  0
 16 36  1  0
 16 37  1  0
 17 38  1  0
 17 39  1  0
 18 40  1  0
 18 41  1  0
 19 42  1  0
 20 43  1  0
 20 44  1  0
 20 45  1  0
 21 46  1  0
 21 47  1  0
 21 48  1  0
 25 49  1  0
 25 50  1  0
 25 51  1  0
M  CHG  1  19   1
M  END
>  <ScrubInfo>  (6) 
{"isomerGroup": 0, "isomerId": 5, "confId": 0, "nr_conformers:": 1, "nr_isomers:": 9}

$$$$
_i6
     RDKit          3D

 51 53  0  0  0  0  0  0  0  0999 V2000
    1.5978   -5.1594   -1.1956 N   0  0  0  0  0  0  0  0  0  0  0  0
    2.3438   -4.0922   -0.7097 C   0  0  0  0  0  0  0  0  0  0  0  0
    1.6146   -2.9795   -0.5459 C   0  0  0  0  0  0  0  0  0  0  0  0
    1.8059   -1.6021   -0.0787 C   0  0  0  0  0  0  0  0  0  0  0  0
    3.0626   -1.1965    0.3282 N   0  0  0  0  0  0  0  0  0  0  0  0
    3.5361    0.0925    0.6403 C   0  0  0  0  0  0  0  0  0  0  0  0
    4.7473    0.2051    1.3427 C   0  0  0  0  0  0  0  0  0  0  0  0
    5.2648    1.4518    1.7112 C   0  0  0  0  0  0  0  0  0  0  0  0
    4.5832    2.6244    1.3815 C   0  0  0  0  0  0  0  0  0  0  0  0
    5.1180    3.9613    1.8007 C   0  0  0  0  0  0  0  0  0  0  0  0
    3.3656    2.5244    0.7047 C   0  0  0  0  0  0  0  0  0  0  0  0
    2.8515    1.2732    0.3407 C   0  0  0  0  0  0  0  0  0  0  0  0
    0.7504   -0.8359   -0.0571 N   0  0  0  0  0  0  0  0  0  0  0  0
   -0.4699   -1.3403   -0.4409 C   0  0  0  0  0  0  0  0  0  0  0  0
   -1.5223   -0.6062   -0.3158 N   0  0  0  0  0  0  0  0  0  0  0  0
   -1.3553    0.7257    0.2508 C   0  0  0  0  0  0  0  0  0  0  0  0
   -2.7489    1.3303    0.4212 C   0  0  0  0  0  0  0  0  0  0  0  0
   -3.4654    1.4264   -0.9225 C   0  0  0  0  0  0  0  0  0  0  0  0
   -4.8849    1.9498   -0.7964 N   0  0  0  0  0  4  0  0  0  0  0  0
   -4.9805    3.3529   -0.2785 C   0  0  0  0  0  0  0  0  0  0  0  0
   -5.8057    1.0044   -0.0772 C   0  0  0  0  0  0  0  0  0  0  0  0
   -0.7277   -2.5768   -0.9743 N   0  0  0  0  0  0  0  0  0  0  0  0
    0.2765   -3.3804   -1.0358 C   0  0  0  0  0  0  0  0  0  0  0  0
    0.3317   -4.6869   -1.5198 N   0  0  0  0  0  0  0  0  0  0  0  0
   -0.8052   -5.5811   -1.4056 C   0  0  0  0  0  0  0  0  0  0  0  0
    2.0749   -5.7107   -1.9142 H   0  0  0  0  0  0  0  0  0  0  0  0
    3.3969   -4.2409   -0.5204 H   0  0  0  0  0  0  0  0  0  0  0  0
    3.7821   -1.9060    0.3871 H   0  0  0  0  0  0  0  0  0  0  0  0
    5.3067   -0.6838    1.6248 H   0  0  0  0  0  0  0  0  0  0  0  0
    6.2035    1.4977    2.2595 H   0  0  0  0  0  0  0  0  0  0  0  0
    4.7412    4.2200    2.7951 H   0  0  0  0  0  0  0  0  0  0  0  0
    4.8167    4.7415    1.0939 H   0  0  0  0  0  0  0  0  0  0  0  0
    6.2127    3.9531    1.8276 H   0  0  0  0  0  0  0  0  0  0  0  0
    2.8064    3.4215    0.4493 H   0  0  0  0  0  0  0  0  0  0  0  0
    1.9133    1.2515   -0.2032 H   0  0  0  0  0  0  0  0  0  0  0  0
   -0.8725    0.6844    1.2346 H   0  0  0  0  0  0  0  0  0  0  0  0
   -0.7578    1.3619   -0.4130 H   0  0  0  0  0  0  0  0  0  0  0  0
   -2.6459    2.3222    0.8742 H   0  0  0  0  0  0  0  0  0  0  0  0
   -3.3203    0.7087    1.1193 H   0  0  0  0  0  0  0  0  0  0  0  0
   -2.9419    2.1107   -1.6000 H   0  0  0  0  0  0  0  0  0  0  0  0
   -3.5487    0.4563   -1.4237 H   0  0  0  0  0  0  0  0  0  0  0  0
   -5.2300    1.9814   -1.7644 H   0  0  0  0  0  0  0  0  0  0  0  0
   -4.2973    3.9792   -0.8579 H   0  0  0  0  0  0  0  0  0  0  0  0
   -6.0095    3.6936   -0.4224 H   0  0  0  0  0  0  0  0  0  0  0  0
   -4.7204    3.3609    0.7827 H   0  0  0  0  0  0  0  0  0  0  0  0
   -5.6889    0.0098   -0.5150 H   0  0  0  0  0  0  0  0  0  0  0  0
   -6.8293    1.3582   -0.2279 H   0  0  0  0  0  0  0  0  0  0  0  0
   -5.5568    1.0017    0.9865 H   0  0  0  0  0  0  0  0  0  0  0  0
   -1.6947   -5.1325   -1.8594 H   0  0  0  0  0  0  0  0  0  0  0  0
   -1.0212   -5.8031   -0.3554 H   0  0  0  0  0  0  0  0  0  0  0  0
   -0.6030   -6.5227   -1.9263 H   0  0  0  0  0  0  0  0  0  0  0  0
  1  2  1  0
  2  3  2  0
  3  4  1  0
  4  5  1  0
  5  6  1  0
  6  7  2  0
  7  8  1  0
  8  9  2  0
  9 10  1  0
  9 11  1  0
 11 12  2  0
  4 13  2  0
 13 14  1  0
 14 15  2  3
 15 16  1  0
 16 17  1  0
 17 18  1  0
 18 19  1  0
 19 20  1  0
 19 21  1  0
 14 22  1  0
 22 23  2  0
 23 24  1  0
 24 25  1  0
 24  1  1  0
 23  3  1  0
 12  6  1  0
  1 26  1  0
  2 27  1  0
  5 28  1  0
  7 29  1  0
  8 30  1  0
 10 31  1  0
 10 32  1  0
 10 33  1  0
 11 34  1  0
 12 35  1  0
 16 36  1  0
 16 37  1  0
 17 38  1  0
 17 39  1  0
 18 40  1  0
 18 41  1  0
 19 42  1  0
 20 43  1  0
 20 44  1  0
 20 45  1  0
 21 46  1  0
 21 47  1  0
 21 48  1  0
 25 49  1  0
 25 50  1  0
 25 51  1  0
M  CHG  1  19   1
M  END
>  <ScrubInfo>  (7) 
{"isomerGroup": 0, "isomerId": 6, "confId": 0, "nr_conformers:": 1, "nr_isomers:": 9}

$$$$
_i7
     RDKit          3D

 51 53  0  0  0  0  0  0  0  0999 V2000
   -1.7053   -5.2357    0.9915 N   0  0  0  0  0  0  0  0  0  0  0  0
   -2.5633   -4.1776    0.7184 C   0  0  0  0  0  0  0  0  0  0  0  0
   -1.9139   -3.0279    0.5028 C   0  0  0  0  0  0  0  0  0  0  0  0
   -2.2375   -1.6461    0.1503 C   0  0  0  0  0  0  0  0  0  0  0  0
   -3.4798   -1.2914    0.0129 N   0  0  0  0  0  0  0  0  0  0  0  0
   -3.7677    0.0355   -0.3289 C   0  0  0  0  0  0  0  0  0  0  0  0
   -3.8635    0.4135   -1.6692 C   0  0  0  0  0  0  0  0  0  0  0  0
   -4.1333    1.7406   -2.0122 C   0  0  0  0  0  0  0  0  0  0  0  0
   -4.3116    2.7070   -1.0150 C   0  0  0  0  0  0  0  0  0  0  0  0
   -4.6560    4.1211   -1.3811 C   0  0  0  0  0  0  0  0  0  0  0  0
   -4.2468    2.3186    0.3285 C   0  0  0  0  0  0  0  0  0  0  0  0
   -3.9764    0.9905    0.6674 C   0  0  0  0  0  0  0  0  0  0  0  0
   -1.1159   -0.8637   -0.0006 N   0  0  0  0  0  0  0  0  0  0  0  0
    0.1872   -1.2719    0.1522 C   0  0  0  0  0  0  0  0  0  0  0  0
    1.2390   -0.5481   -0.0124 N   0  0  0  0  0  0  0  0  0  0  0  0
    1.1187    0.8451   -0.3992 C   0  0  0  0  0  0  0  0  0  0  0  0
    2.5288    1.3652   -0.6846 C   0  0  0  0  0  0  0  0  0  0  0  0
    3.4351    1.2186    0.5367 C   0  0  0  0  0  0  0  0  0  0  0  0
    4.8744    1.5586    0.1857 N   0  0  0  0  0  4  0  0  0  0  0  0
    5.8181    1.0575    1.2474 C   0  0  0  0  0  0  0  0  0  0  0  0
    5.1031    3.0139   -0.1023 C   0  0  0  0  0  0  0  0  0  0  0  0
    0.4993   -2.5619    0.5296 N   0  0  0  0  0  0  0  0  0  0  0  0
   -0.4792   -3.3940    0.7110 C   0  0  0  0  0  0  0  0  0  0  0  0
   -0.4118   -4.7322    1.1079 N   0  0  0  0  0  0  0  0  0  0  0  0
    0.7033   -5.5756    0.7215 C   0  0  0  0  0  0  0  0  0  0  0  0
   -2.0306   -5.8422    1.7486 H   0  0  0  0  0  0  0  0  0  0  0  0
   -3.6317   -4.3436    0.6986 H   0  0  0  0  0  0  0  0  0  0  0  0
   -3.7441   -0.3333   -2.4500 H   0  0  0  0  0  0  0  0  0  0  0  0
   -4.2230    2.0106   -3.0625 H   0  0  0  0  0  0  0  0  0  0  0  0
   -4.1985    4.3990   -2.3364 H   0  0  0  0  0  0  0  0  0  0  0  0
   -4.2825    4.8213   -0.6265 H   0  0  0  0  0  0  0  0  0  0  0  0
   -5.7416    4.2330   -1.4621 H   0  0  0  0  0  0  0  0  0  0  0  0
   -4.4263    3.0434    1.1199 H   0  0  0  0  0  0  0  0  0  0  0  0
   -3.9454    0.6944    1.7127 H   0  0  0  0  0  0  0  0  0  0  0  0
   -1.2810    0.0928   -0.2661 H   0  0  0  0  0  0  0  0  0  0  0  0
    0.5134    0.9566   -1.3061 H   0  0  0  0  0  0  0  0  0  0  0  0
    0.6614    1.4326    0.4053 H   0  0  0  0  0  0  0  0  0  0  0  0
    2.4562    2.4153   -0.9868 H   0  0  0  0  0  0  0  0  0  0  0  0
    2.9544    0.8106   -1.5303 H   0  0  0  0  0  0  0  0  0  0  0  0
    3.1289    1.8769    1.3572 H   0  0  0  0  0  0  0  0  0  0  0  0
    3.4479    0.1845    0.8955 H   0  0  0  0  0  0  0  0  0  0  0  0
    5.1007    1.0305   -0.6681 H   0  0  0  0  0  0  0  0  0  0  0  0
    5.6794   -0.0224    1.3462 H   0  0  0  0  0  0  0  0  0  0  0  0
    5.5911    1.5718    2.1852 H   0  0  0  0  0  0  0  0  0  0  0  0
    6.8399    1.2685    0.9210 H   0  0  0  0  0  0  0  0  0  0  0  0
    6.1648    3.1548   -0.3228 H   0  0  0  0  0  0  0  0  0  0  0  0
    4.5140    3.2934   -0.9779 H   0  0  0  0  0  0  0  0  0  0  0  0
    4.8077    3.5949    0.7752 H   0  0  0  0  0  0  0  0  0  0  0  0
    1.6519   -5.1266    1.0328 H   0  0  0  0  0  0  0  0  0  0  0  0
    0.7234   -5.7208   -0.3636 H   0  0  0  0  0  0  0  0  0  0  0  0
    0.6242   -6.5559    1.2026 H   0  0  0  0  0  0  0  0  0  0  0  0
  1  2  1  0
  2  3  2  0
  3  4  1  0
  4  5  2  3
  5  6  1  0
  6  7  2  0
  7  8  1  0
  8  9  2  0
  9 10  1  0
  9 11  1  0
 11 12  2  0
  4 13  1  0
 13 14  1  0
 14 15  2  3
 15 16  1  0
 16 17  1  0
 17 18  1  0
 18 19  1  0
 19 20  1  0
 19 21  1  0
 14 22  1  0
 22 23  2  0
 23 24  1  0
 24 25  1  0
 24  1  1  0
 23  3  1  0
 12  6  1  0
  1 26  1  0
  2 27  1  0
  7 28  1  0
  8 29  1  0
 10 30  1  0
 10 31  1  0
 10 32  1  0
 11 33  1  0
 12 34  1  0
 13 35  1  0
 16 36  1  0
 16 37  1  0
 17 38  1  0
 17 39  1  0
 18 40  1  0
 18 41  1  0
 19 42  1  0
 20 43  1  0
 20 44  1  0
 20 45  1  0
 21 46  1  0
 21 47  1  0
 21 48  1  0
 25 49  1  0
 25 50  1  0
 25 51  1  0
M  CHG  1  19   1
M  END
>  <ScrubInfo>  (8) 
{"isomerGroup": 0, "isomerId": 7, "confId": 0, "nr_conformers:": 1, "nr_isomers:": 9}

$$$$
_i8
     RDKit          3D

 51 53  0  0  0  0  0  0  0  0999 V2000
   -0.8730   -1.2293    0.4489 N   0  0  0  0  0  0  0  0  0  0  0  0
   -1.1262    0.1298    0.4868 C   0  0  0  0  0  0  0  0  0  0  0  0
   -2.3420    0.5322    0.7141 N   0  0  0  0  0  0  0  0  0  0  0  0
   -2.5367    1.9900    0.7899 C   0  0  0  0  0  0  0  0  0  0  0  0
   -3.9811    2.2854    1.2010 C   0  0  0  0  0  0  0  0  0  0  0  0
   -5.0082    1.7830    0.1871 C   0  0  0  0  0  0  0  0  0  0  0  0
   -4.9638    0.2766    0.0796 N   0  0  0  0  0  4  0  0  0  0  0  0
   -5.7144   -0.4219    1.1727 C   0  0  0  0  0  0  0  0  0  0  0  0
   -5.3554   -0.2169   -1.2785 C   0  0  0  0  0  0  0  0  0  0  0  0
   -0.0011    0.8994    0.2585 N   0  0  0  0  0  0  0  0  0  0  0  0
    1.3100    0.5456    0.0026 C   0  0  0  0  0  0  0  0  0  0  0  0
    2.2038    1.4666   -0.1924 N   0  0  0  0  0  0  0  0  0  0  0  0
    3.5409    1.1581   -0.4515 C   0  0  0  0  0  0  0  0  0  0  0  0
    4.4582    1.0641    0.5973 C   0  0  0  0  0  0  0  0  0  0  0  0
    5.8015    0.7797    0.3390 C   0  0  0  0  0  0  0  0  0  0  0  0
    6.2452    0.5923   -0.9752 C   0  0  0  0  0  0  0  0  0  0  0  0
    7.6942    0.3215   -1.2564 C   0  0  0  0  0  0  0  0  0  0  0  0
    5.3324    0.7284   -2.0276 C   0  0  0  0  0  0  0  0  0  0  0  0
    3.9897    1.0129   -1.7658 C   0  0  0  0  0  0  0  0  0  0  0  0
    1.4741   -0.8946   -0.0051 C   0  0  0  0  0  0  0  0  0  0  0  0
    2.5253   -1.8119   -0.1846 C   0  0  0  0  0  0  0  0  0  0  0  0
    2.1219   -3.0858   -0.0778 N   0  0  0  0  0  0  0  0  0  0  0  0
    0.8012   -2.9919    0.1751 N   0  0  0  0  0  0  0  0  0  0  0  0
    0.0455   -4.2046    0.3651 C   0  0  0  0  0  0  0  0  0  0  0  0
    0.3760   -1.6980    0.2203 C   0  0  0  0  0  0  0  0  0  0  0  0
   -1.6469   -1.8368    0.6813 H   0  0  0  0  0  0  0  0  0  0  0  0
   -2.3304    2.4529   -0.1824 H   0  0  0  0  0  0  0  0  0  0  0  0
   -1.8700    2.4289    1.5418 H   0  0  0  0  0  0  0  0  0  0  0  0
   -4.1787    1.8588    2.1908 H   0  0  0  0  0  0  0  0  0  0  0  0
   -4.0968    3.3714    1.2994 H   0  0  0  0  0  0  0  0  0  0  0  0
   -4.7848    2.1962   -0.8029 H   0  0  0  0  0  0  0  0  0  0  0  0
   -6.0285    2.0689    0.4637 H   0  0  0  0  0  0  0  0  0  0  0  0
   -3.9576    0.0367    0.2114 H   0  0  0  0  0  0  0  0  0  0  0  0
   -5.5508   -1.4974    1.0626 H   0  0  0  0  0  0  0  0  0  0  0  0
   -6.7761   -0.1788    1.0772 H   0  0  0  0  0  0  0  0  0  0  0  0
   -5.3226   -0.0899    2.1363 H   0  0  0  0  0  0  0  0  0  0  0  0
   -4.6873    0.2392   -2.0140 H   0  0  0  0  0  0  0  0  0  0  0  0
   -5.2339   -1.3032   -1.2959 H   0  0  0  0  0  0  0  0  0  0  0  0
   -6.3953    0.0644   -1.4643 H   0  0  0  0  0  0  0  0  0  0  0  0
   -0.0990    1.9029    0.2773 H   0  0  0  0  0  0  0  0  0  0  0  0
    4.1282    1.2158    1.6211 H   0  0  0  0  0  0  0  0  0  0  0  0
    6.5005    0.7111    1.1699 H   0  0  0  0  0  0  0  0  0  0  0  0
    7.8099   -0.2780   -2.1655 H   0  0  0  0  0  0  0  0  0  0  0  0
    8.2335    1.2652   -1.3832 H   0  0  0  0  0  0  0  0  0  0  0  0
    8.1522   -0.2413   -0.4362 H   0  0  0  0  0  0  0  0  0  0  0  0
    5.6627    0.6196   -3.0585 H   0  0  0  0  0  0  0  0  0  0  0  0
    3.2933    1.1248   -2.5918 H   0  0  0  0  0  0  0  0  0  0  0  0
    3.5727   -1.6290   -0.3860 H   0  0  0  0  0  0  0  0  0  0  0  0
    0.2769   -4.5981    1.3579 H   0  0  0  0  0  0  0  0  0  0  0  0
   -1.0224   -3.9924    0.2830 H   0  0  0  0  0  0  0  0  0  0  0  0
    0.3334   -4.9226   -0.4075 H   0  0  0  0  0  0  0  0  0  0  0  0
  1  2  1  0
  2  3  2  3
  3  4  1  0
  4  5  1  0
  5  6  1  0
  6  7  1  0
  7  8  1  0
  7  9  1  0
  2 10  1  0
 10 11  1  0
 11 12  2  3
 12 13  1  0
 13 14  2  0
 14 15  1  0
 15 16  2  0
 16 17  1  0
 16 18  1  0
 18 19  2  0
 11 20  1  0
 20 21  1  0
 21 22  2  0
 22 23  1  0
 23 24  1  0
 23 25  1  0
 25  1  1  0
 19 13  1  0
 25 20  2  0
  1 26  1  0
  4 27  1  0
  4 28  1  0
  5 29  1  0
  5 30  1  0
  6 31  1  0
  6 32  1  0
  7 33  1  0
  8 34  1  0
  8 35  1  0
  8 36  1  0
  9 37  1  0
  9 38  1  0
  9 39  1  0
 10 40  1  0
 14 41  1  0
 15 42  1  0
 17 43  1  0
 17 44  1  0
 17 45  1  0
 18 46  1  0
 19 47  1  0
 21 48  1  0
 24 49  1  0
 24 50  1  0
 24 51  1  0
M  CHG  1   7   1
M  END
>  <ScrubInfo>  (9) 
{"isomerGroup": 0, "isomerId": 8, "confId": 0, "nr_conformers:": 1, "nr_isomers:": 9}

$$$$
