REMARK SMILES CCCCCNc1nc(Nc2ccc(F)cc2)c2cnn(C)c2n1
REMARK SMILES IDX 5 1 4 2 3 3 2 4 1 5 6 6 7 8 8 9 24 10 9 11 23 12 18 13 21 14
REMARK SMILES IDX 19 15 20 16 22 17 10 18 11 20 12 21 17 22 13 23 16 24 14 25
REMARK SMILES IDX 15 26
REMARK H PARENT 6 7 10 19
ROOT
ATOM      1  C   UNL     1       2.285   0.733   0.312  1.00  0.00     0.116 C 
ENDROOT
BRANCH   1   2
ATOM      2  C   UNL     1       3.799   0.904   0.477  1.00  0.00     0.021 C 
BRANCH   2   3
ATOM      3  C   UNL     1       4.588   0.301  -0.689  1.00  0.00     0.002 C 
BRANCH   3   4
ATOM      4  C   UNL     1       6.105   0.407  -0.512  1.00  0.00    -0.003 C 
ATOM      5  C   UNL     1       6.622   1.837  -0.530  1.00  0.00     0.004 C 
ENDBRANCH   3   4
ENDBRANCH   2   3
ENDBRANCH   1   2
BRANCH   1   6
ATOM      6  N   UNL     1       1.925  -0.669   0.429  1.00  0.00    -0.354 N 
ATOM      7  H   UNL     1       2.267  -1.140   1.260  1.00  0.00     0.163 HD
BRANCH   6   8
ATOM      8  C   UNL     1       0.560  -0.927   0.380  1.00  0.00     0.226 A 
ATOM      9  N   UNL     1      -0.234  -0.170  -0.403  1.00  0.00    -0.195 NA
ATOM     10  N   UNL     1       0.155  -1.945   1.151  1.00  0.00    -0.193 NA
ATOM     11  C   UNL     1      -1.568  -0.406  -0.455  1.00  0.00     0.147 A 
ATOM     12  C   UNL     1      -1.162  -2.183   1.052  1.00  0.00     0.165 A 
ATOM     13  C   UNL     1      -2.069  -1.478   0.286  1.00  0.00     0.082 A 
ATOM     14  N   UNL     1      -1.879  -3.168   1.673  1.00  0.00    -0.250 N 
ATOM     15  C   UNL     1      -3.296  -2.138   0.500  1.00  0.00     0.149 A 
ATOM     16  N   UNL     1      -3.195  -3.159   1.359  1.00  0.00    -0.179 NA
ATOM     17  C   UNL     1      -1.373  -4.171   2.577  1.00  0.00     0.176 C 
BRANCH  11  18
ATOM     18  N   UNL     1      -2.322   0.413  -1.308  1.00  0.00    -0.339 N 
ATOM     19  H   UNL     1      -1.673   1.036  -1.784  1.00  0.00     0.168 HD
BRANCH  18  20
ATOM     20  C   UNL     1      -3.562   1.038  -1.073  1.00  0.00     0.040 A 
ATOM     21  C   UNL     1      -4.263   1.553  -2.176  1.00  0.00     0.029 A 
ATOM     22  C   UNL     1      -4.121   1.187   0.203  1.00  0.00     0.029 A 
ATOM     23  C   UNL     1      -5.497   2.185  -2.010  1.00  0.00     0.041 A 
ATOM     24  C   UNL     1      -5.356   1.819   0.372  1.00  0.00     0.041 A 
ATOM     25  C   UNL     1      -6.033   2.311  -0.737  1.00  0.00     0.123 A 
ATOM     26  F   UNL     1      -7.216   2.918  -0.574  1.00  0.00    -0.207 F 
ENDBRANCH  18  20
ENDBRANCH  11  18
ENDBRANCH   6   8
ENDBRANCH   1   6
TORSDOF 7
