_i0
     RDKit          3D

 45 47  0  0  0  0  0  0  0  0999 V2000
    6.6216    1.8375   -0.5298 C   0  0  0  0  0  0  0  0  0  0  0  0
    6.1051    0.4071   -0.5121 C   0  0  0  0  0  0  0  0  0  0  0  0
    4.5885    0.3010   -0.6894 C   0  0  0  0  0  0  0  0  0  0  0  0
    3.7987    0.9044    0.4774 C   0  0  0  0  0  0  0  0  0  0  0  0
    2.2852    0.7332    0.3123 C   0  0  0  0  0  0  0  0  0  0  0  0
    1.9246   -0.6686    0.4293 N   0  0  0  0  0  0  0  0  0  0  0  0
    0.5596   -0.9271    0.3804 C   0  0  0  0  0  0  0  0  0  0  0  0
   -0.2338   -0.1699   -0.4025 N   0  0  0  0  0  0  0  0  0  0  0  0
   -1.5681   -0.4062   -0.4554 C   0  0  0  0  0  0  0  0  0  0  0  0
   -2.3217    0.4128   -1.3075 N   0  0  0  0  0  0  0  0  0  0  0  0
   -3.5616    1.0383   -1.0733 C   0  0  0  0  0  0  0  0  0  0  0  0
   -4.2626    1.5529   -2.1758 C   0  0  0  0  0  0  0  0  0  0  0  0
   -5.4971    2.1850   -2.0103 C   0  0  0  0  0  0  0  0  0  0  0  0
   -6.0334    2.3107   -0.7365 C   0  0  0  0  0  0  0  0  0  0  0  0
   -7.2159    2.9176   -0.5738 F   0  0  0  0  0  0  0  0  0  0  0  0
   -5.3565    1.8195    0.3717 C   0  0  0  0  0  0  0  0  0  0  0  0
   -4.1213    1.1869    0.2031 C   0  0  0  0  0  0  0  0  0  0  0  0
   -2.0688   -1.4780    0.2858 C   0  0  0  0  0  0  0  0  0  0  0  0
   -3.2962   -2.1383    0.4996 C   0  0  0  0  0  0  0  0  0  0  0  0
   -3.1951   -3.1593    1.3592 N   0  0  0  0  0  0  0  0  0  0  0  0
   -1.8787   -3.1682    1.6734 N   0  0  0  0  0  0  0  0  0  0  0  0
   -1.3730   -4.1707    2.5767 C   0  0  0  0  0  0  0  0  0  0  0  0
   -1.1616   -2.1825    1.0519 C   0  0  0  0  0  0  0  0  0  0  0  0
    0.1551   -1.9453    1.1508 N   0  0  0  0  0  0  0  0  0  0  0  0
    6.2662    2.4037    0.3360 H   0  0  0  0  0  0  0  0  0  0  0  0
    6.3054    2.3586   -1.4390 H   0  0  0  0  0  0  0  0  0  0  0  0
    7.7160    1.8415   -0.5004 H   0  0  0  0  0  0  0  0  0  0  0  0
    6.4065   -0.0783    0.4234 H   0  0  0  0  0  0  0  0  0  0  0  0
    6.5885   -0.1465   -1.3260 H   0  0  0  0  0  0  0  0  0  0  0  0
    4.3349   -0.7608   -0.7930 H   0  0  0  0  0  0  0  0  0  0  0  0
    4.2934    0.7887   -1.6265 H   0  0  0  0  0  0  0  0  0  0  0  0
    4.1251    0.4481    1.4200 H   0  0  0  0  0  0  0  0  0  0  0  0
    4.0110    1.9771    0.5470 H   0  0  0  0  0  0  0  0  0  0  0  0
    1.7830    1.3152    1.0955 H   0  0  0  0  0  0  0  0  0  0  0  0
    1.9818    1.1397   -0.6604 H   0  0  0  0  0  0  0  0  0  0  0  0
    2.2674   -1.1397    1.2596 H   0  0  0  0  0  0  0  0  0  0  0  0
   -1.6728    1.0356   -1.7837 H   0  0  0  0  0  0  0  0  0  0  0  0
   -3.8522    1.4485   -3.1779 H   0  0  0  0  0  0  0  0  0  0  0  0
   -6.0402    2.5751   -2.8649 H   0  0  0  0  0  0  0  0  0  0  0  0
   -5.7885    1.9356    1.3606 H   0  0  0  0  0  0  0  0  0  0  0  0
   -3.5980    0.8357    1.0883 H   0  0  0  0  0  0  0  0  0  0  0  0
   -4.2618   -1.9144    0.0642 H   0  0  0  0  0  0  0  0  0  0  0  0
   -1.9150   -4.0871    3.5221 H   0  0  0  0  0  0  0  0  0  0  0  0
   -0.3054   -4.0162    2.7485 H   0  0  0  0  0  0  0  0  0  0  0  0
   -1.5384   -5.1529    2.1269 H   0  0  0  0  0  0  0  0  0  0  0  0
  1  2  1  0
  2  3  1  0
  3  4  1  0
  4  5  1  0
  5  6  1  0
  6  7  1  0
  7  8  2  0
  8  9  1  0
  9 10  1  0
 10 11  1  0
 11 12  2  0
 12 13  1  0
 13 14  2  0
 14 15  1  0
 14 16  1  0
 16 17  2  0
  9 18  2  0
 18 19  1  0
 19 20  2  0
 20 21  1  0
 21 22  1  0
 21 23  1  0
 23 24  2  0
 24  7  1  0
 17 11  1  0
 23 18  1  0
  1 25  1  0
  1 26  1  0
  1 27  1  0
  2 28  1  0
  2 29  1  0
  3 30  1  0
  3 31  1  0
  4 32  1  0
  4 33  1  0
  5 34  1  0
  5 35  1  0
  6 36  1  0
 10 37  1  0
 12 38  1  0
 13 39  1  0
 16 40  1  0
 17 41  1  0
 19 42  1  0
 22 43  1  0
 22 44  1  0
 22 45  1  0
M  END
>  <ScrubInfo>  (1) 
{"isomerGroup": 0, "isomerId": 0, "confId": 0, "nr_conformers:": 1, "nr_isomers:": 9}

$$$$
_i1
     RDKit          3D

 45 47  0  0  0  0  0  0  0  0999 V2000
   -0.3434   -0.1372   -1.1657 N   0  0  0  0  0  0  0  0  0  0  0  0
   -1.6203   -0.4595   -0.7430 C   0  0  0  0  0  0  0  0  0  0  0  0
   -2.6759    0.4093   -0.9464 N   0  0  0  0  0  0  0  0  0  0  0  0
   -3.5181    0.9611    0.0470 C   0  0  0  0  0  0  0  0  0  0  0  0
   -4.6519    1.6778   -0.3725 C   0  0  0  0  0  0  0  0  0  0  0  0
   -5.5481    2.2134    0.5557 C   0  0  0  0  0  0  0  0  0  0  0  0
   -5.3190    2.0275    1.9116 C   0  0  0  0  0  0  0  0  0  0  0  0
   -6.1762    2.5399    2.8034 F   0  0  0  0  0  0  0  0  0  0  0  0
   -4.2130    1.3150    2.3539 C   0  0  0  0  0  0  0  0  0  0  0  0
   -3.3176    0.7787    1.4234 C   0  0  0  0  0  0  0  0  0  0  0  0
   -1.7554   -1.6702   -0.1889 C   0  0  0  0  0  0  0  0  0  0  0  0
   -2.8270   -2.4963    0.3784 C   0  0  0  0  0  0  0  0  0  0  0  0
   -2.4002   -3.6515    0.8244 N   0  0  0  0  0  0  0  0  0  0  0  0
   -1.0281   -3.6809    0.5259 N   0  0  0  0  0  0  0  0  0  0  0  0
   -0.1974   -4.6963    1.1250 C   0  0  0  0  0  0  0  0  0  0  0  0
   -0.5522   -2.5133   -0.0471 C   0  0  0  0  0  0  0  0  0  0  0  0
    0.6423   -2.1753   -0.3906 N   0  0  0  0  0  0  0  0  0  0  0  0
    0.7691   -0.9258   -0.9564 C   0  0  0  0  0  0  0  0  0  0  0  0
    1.9842   -0.6174   -1.2385 N   0  0  0  0  0  0  0  0  0  0  0  0
    2.2776    0.6735   -1.8424 C   0  0  0  0  0  0  0  0  0  0  0  0
    3.7839    0.7873   -2.0821 C   0  0  0  0  0  0  0  0  0  0  0  0
    4.6473    0.7133   -0.8171 C   0  0  0  0  0  0  0  0  0  0  0  0
    4.3793    1.8487    0.1713 C   0  0  0  0  0  0  0  0  0  0  0  0
    5.3454    1.8009    1.3454 C   0  0  0  0  0  0  0  0  0  0  0  0
   -0.1993    0.8031   -1.4918 H   0  0  0  0  0  0  0  0  0  0  0  0
   -2.5094    1.0777   -1.6936 H   0  0  0  0  0  0  0  0  0  0  0  0
   -4.8538    1.8130   -1.4328 H   0  0  0  0  0  0  0  0  0  0  0  0
   -6.4232    2.7660    0.2289 H   0  0  0  0  0  0  0  0  0  0  0  0
   -4.0510    1.1811    3.4190 H   0  0  0  0  0  0  0  0  0  0  0  0
   -2.4521    0.2408    1.8010 H   0  0  0  0  0  0  0  0  0  0  0  0
   -3.8629   -2.1364    0.4202 H   0  0  0  0  0  0  0  0  0  0  0  0
    0.6861   -4.8921    0.5090 H   0  0  0  0  0  0  0  0  0  0  0  0
    0.1338   -4.3793    2.1187 H   0  0  0  0  0  0  0  0  0  0  0  0
   -0.7476   -5.6373    1.2274 H   0  0  0  0  0  0  0  0  0  0  0  0
    1.7690    0.7608   -2.8103 H   0  0  0  0  0  0  0  0  0  0  0  0
    1.9349    1.4961   -1.2055 H   0  0  0  0  0  0  0  0  0  0  0  0
    4.0986   -0.0175   -2.7586 H   0  0  0  0  0  0  0  0  0  0  0  0
    3.9883    1.7316   -2.6012 H   0  0  0  0  0  0  0  0  0  0  0  0
    5.7004    0.7466   -1.1238 H   0  0  0  0  0  0  0  0  0  0  0  0
    4.5002   -0.2526   -0.3192 H   0  0  0  0  0  0  0  0  0  0  0  0
    3.3569    1.7832    0.5584 H   0  0  0  0  0  0  0  0  0  0  0  0
    4.4770    2.8156   -0.3354 H   0  0  0  0  0  0  0  0  0  0  0  0
    5.2532    0.8562    1.8907 H   0  0  0  0  0  0  0  0  0  0  0  0
    6.3812    1.9029    1.0062 H   0  0  0  0  0  0  0  0  0  0  0  0
    5.1348    2.6178    2.0427 H   0  0  0  0  0  0  0  0  0  0  0  0
  1  2  1  0
  2  3  1  0
  3  4  1  0
  4  5  2  0
  5  6  1  0
  6  7  2  0
  7  8  1  0
  7  9  1  0
  9 10  2  0
  2 11  2  0
 11 12  1  0
 12 13  2  0
 13 14  1  0
 14 15  1  0
 14 16  1  0
 16 17  2  0
 17 18  1  0
 18 19  2  3
 19 20  1  0
 20 21  1  0
 21 22  1  0
 22 23  1  0
 23 24  1  0
 18  1  1  0
 10  4  1  0
 16 11  1  0
  1 25  1  0
  3 26  1  0
  5 27  1  0
  6 28  1  0
  9 29  1  0
 10 30  1  0
 12 31  1  0
 15 32  1  0
 15 33  1  0
 15 34  1  0
 20 35  1  0
 20 36  1  0
 21 37  1  0
 21 38  1  0
 22 39  1  0
 22 40  1  0
 23 41  1  0
 23 42  1  0
 24 43  1  0
 24 44  1  0
 24 45  1  0
M  END
>  <ScrubInfo>  (2) 
{"isomerGroup": 0, "isomerId": 1, "confId": 0, "nr_conformers:": 1, "nr_isomers:": 9}

$$$$
_i2
     RDKit          3D

 45 47  0  0  0  0  0  0  0  0999 V2000
   -1.3698   -0.0660    0.1156 N   0  0  0  0  0  0  0  0  0  0  0  0
   -0.1204   -0.5979   -0.1288 C   0  0  0  0  0  0  0  0  0  0  0  0
    0.7817   -0.2938    0.8570 N   0  0  0  0  0  0  0  0  0  0  0  0
    2.1860   -0.6688    0.7501 C   0  0  0  0  0  0  0  0  0  0  0  0
    2.9449    0.3298   -0.1242 C   0  0  0  0  0  0  0  0  0  0  0  0
    4.4067   -0.0597   -0.3623 C   0  0  0  0  0  0  0  0  0  0  0  0
    5.2744   -0.1810    0.8926 C   0  0  0  0  0  0  0  0  0  0  0  0
    5.3627    1.1062    1.6972 C   0  0  0  0  0  0  0  0  0  0  0  0
    0.1721   -1.3246   -1.1780 N   0  0  0  0  0  0  0  0  0  0  0  0
   -0.9001   -1.4740   -2.0045 C   0  0  0  0  0  0  0  0  0  0  0  0
   -2.1783   -0.9801   -1.8383 C   0  0  0  0  0  0  0  0  0  0  0  0
   -2.8937   -1.4155   -2.9617 C   0  0  0  0  0  0  0  0  0  0  0  0
   -2.1339   -2.1359   -3.7979 N   0  0  0  0  0  0  0  0  0  0  0  0
   -0.9220   -2.1585   -3.1877 N   0  0  0  0  0  0  0  0  0  0  0  0
    0.1692   -2.8642   -3.8100 C   0  0  0  0  0  0  0  0  0  0  0  0
   -2.4973   -0.2061   -0.6672 C   0  0  0  0  0  0  0  0  0  0  0  0
   -3.7080    0.2151   -0.5105 N   0  0  0  0  0  0  0  0  0  0  0  0
   -4.0001    0.9623    0.6347 C   0  0  0  0  0  0  0  0  0  0  0  0
   -4.4441    0.3237    1.7977 C   0  0  0  0  0  0  0  0  0  0  0  0
   -4.7354    1.0681    2.9420 C   0  0  0  0  0  0  0  0  0  0  0  0
   -4.5916    2.4506    2.9128 C   0  0  0  0  0  0  0  0  0  0  0  0
   -4.8681    3.1657    4.0107 F   0  0  0  0  0  0  0  0  0  0  0  0
   -4.1673    3.1025    1.7604 C   0  0  0  0  0  0  0  0  0  0  0  0
   -3.8763    2.3558    0.6175 C   0  0  0  0  0  0  0  0  0  0  0  0
   -1.5164    0.3500    1.0193 H   0  0  0  0  0  0  0  0  0  0  0  0
    0.6497    0.6038    1.3062 H   0  0  0  0  0  0  0  0  0  0  0  0
    2.2866   -1.6887    0.3611 H   0  0  0  0  0  0  0  0  0  0  0  0
    2.6040   -0.6735    1.7621 H   0  0  0  0  0  0  0  0  0  0  0  0
    2.8869    1.3312    0.3189 H   0  0  0  0  0  0  0  0  0  0  0  0
    2.4541    0.4095   -1.1024 H   0  0  0  0  0  0  0  0  0  0  0  0
    4.4359   -1.0165   -0.8984 H   0  0  0  0  0  0  0  0  0  0  0  0
    4.8570    0.6823   -1.0337 H   0  0  0  0  0  0  0  0  0  0  0  0
    6.2868   -0.4683    0.5836 H   0  0  0  0  0  0  0  0  0  0  0  0
    4.9076   -0.9897    1.5340 H   0  0  0  0  0  0  0  0  0  0  0  0
    4.3954    1.3744    2.1319 H   0  0  0  0  0  0  0  0  0  0  0  0
    6.0738    0.9861    2.5209 H   0  0  0  0  0  0  0  0  0  0  0  0
    5.7052    1.9374    1.0728 H   0  0  0  0  0  0  0  0  0  0  0  0
   -3.9331   -1.2402   -3.2073 H   0  0  0  0  0  0  0  0  0  0  0  0
   -0.1090   -3.9175   -3.8983 H   0  0  0  0  0  0  0  0  0  0  0  0
    0.3404   -2.4303   -4.7984 H   0  0  0  0  0  0  0  0  0  0  0  0
    1.0728   -2.7697   -3.2039 H   0  0  0  0  0  0  0  0  0  0  0  0
   -4.5702   -0.7562    1.8052 H   0  0  0  0  0  0  0  0  0  0  0  0
   -5.0817    0.5808    3.8479 H   0  0  0  0  0  0  0  0  0  0  0  0
   -4.0762    4.1839    1.7551 H   0  0  0  0  0  0  0  0  0  0  0  0
   -3.5606    2.8575   -0.2938 H   0  0  0  0  0  0  0  0  0  0  0  0
  1  2  1  0
  2  3  1  0
  3  4  1  0
  4  5  1  0
  5  6  1  0
  6  7  1  0
  7  8  1  0
  2  9  2  0
  9 10  1  0
 10 11  2  0
 11 12  1  0
 12 13  2  0
 13 14  1  0
 14 15  1  0
 11 16  1  0
 16 17  2  3
 17 18  1  0
 18 19  2  0
 19 20  1  0
 20 21  2  0
 21 22  1  0
 21 23  1  0
 23 24  2  0
 16  1  1  0
 24 18  1  0
 14 10  1  0
  1 25  1  0
  3 26  1  0
  4 27  1  0
  4 28  1  0
  5 29  1  0
  5 30  1  0
  6 31  1  0
  6 32  1  0
  7 33  1  0
  7 34  1  0
  8 35  1  0
  8 36  1  0
  8 37  1  0
 12 38  1  0
 15 39  1  0
 15 40  1  0
 15 41  1  0
 19 42  1  0
 20 43  1  0
 23 44  1  0
 24 45  1  0
M  END
>  <ScrubInfo>  (3) 
{"isomerGroup": 0, "isomerId": 2, "confId": 0, "nr_conformers:": 1, "nr_isomers:": 9}

$$$$
_i3
     RDKit          3D

 45 47  0  0  0  0  0  0  0  0999 V2000
    0.3430   -1.0781    0.5202 N   0  0  0  0  0  0  0  0  0  0  0  0
    0.5400    0.2830    0.6948 C   0  0  0  0  0  0  0  0  0  0  0  0
    1.5444    0.8420    1.2677 N   0  0  0  0  0  0  0  0  0  0  0  0
    2.6258    0.0566    1.8443 C   0  0  0  0  0  0  0  0  0  0  0  0
    3.6771   -0.2889    0.7887 C   0  0  0  0  0  0  0  0  0  0  0  0
    4.3942    0.9527    0.2483 C   0  0  0  0  0  0  0  0  0  0  0  0
    5.4057    0.6344   -0.8555 C   0  0  0  0  0  0  0  0  0  0  0  0
    6.5890   -0.1924   -0.3769 C   0  0  0  0  0  0  0  0  0  0  0  0
   -0.3879    1.2059    0.2311 N   0  0  0  0  0  0  0  0  0  0  0  0
   -1.4684    0.7941   -0.3676 C   0  0  0  0  0  0  0  0  0  0  0  0
   -2.4146    1.6530   -0.8670 N   0  0  0  0  0  0  0  0  0  0  0  0
   -3.7690    1.6774   -0.4423 C   0  0  0  0  0  0  0  0  0  0  0  0
   -4.2142    1.0695    0.7410 C   0  0  0  0  0  0  0  0  0  0  0  0
   -5.5561    1.1551    1.1218 C   0  0  0  0  0  0  0  0  0  0  0  0
   -6.4519    1.8597    0.3282 C   0  0  0  0  0  0  0  0  0  0  0  0
   -7.7370    1.9423    0.6955 F   0  0  0  0  0  0  0  0  0  0  0  0
   -6.0311    2.4859   -0.8373 C   0  0  0  0  0  0  0  0  0  0  0  0
   -4.6902    2.4001   -1.2175 C   0  0  0  0  0  0  0  0  0  0  0  0
   -1.6914   -0.6129   -0.6006 C   0  0  0  0  0  0  0  0  0  0  0  0
   -2.6436   -1.4244   -1.2347 C   0  0  0  0  0  0  0  0  0  0  0  0
   -2.3354   -2.7287   -1.1529 N   0  0  0  0  0  0  0  0  0  0  0  0
   -1.1642   -2.7440   -0.4700 N   0  0  0  0  0  0  0  0  0  0  0  0
   -0.5252   -4.0077   -0.2052 C   0  0  0  0  0  0  0  0  0  0  0  0
   -0.7563   -1.4929   -0.1323 C   0  0  0  0  0  0  0  0  0  0  0  0
    1.0744   -1.6967    0.8344 H   0  0  0  0  0  0  0  0  0  0  0  0
    3.0893    0.6454    2.6446 H   0  0  0  0  0  0  0  0  0  0  0  0
    2.2560   -0.8546    2.3284 H   0  0  0  0  0  0  0  0  0  0  0  0
    3.2136   -0.8345   -0.0415 H   0  0  0  0  0  0  0  0  0  0  0  0
    4.4077   -0.9634    1.2490 H   0  0  0  0  0  0  0  0  0  0  0  0
    3.6558    1.6513   -0.1632 H   0  0  0  0  0  0  0  0  0  0  0  0
    4.8994    1.4748    1.0700 H   0  0  0  0  0  0  0  0  0  0  0  0
    5.7845    1.5801   -1.2614 H   0  0  0  0  0  0  0  0  0  0  0  0
    4.9062    0.1134   -1.6806 H   0  0  0  0  0  0  0  0  0  0  0  0
    7.0870    0.2878    0.4713 H   0  0  0  0  0  0  0  0  0  0  0  0
    6.2808   -1.1975   -0.0747 H   0  0  0  0  0  0  0  0  0  0  0  0
    7.3218   -0.3002   -1.1831 H   0  0  0  0  0  0  0  0  0  0  0  0
   -2.0552    2.6039   -0.7909 H   0  0  0  0  0  0  0  0  0  0  0  0
   -3.5264    0.5323    1.3898 H   0  0  0  0  0  0  0  0  0  0  0  0
   -5.9036    0.6819    2.0348 H   0  0  0  0  0  0  0  0  0  0  0  0
   -6.7458    3.0357   -1.4412 H   0  0  0  0  0  0  0  0  0  0  0  0
   -4.3669    2.8902   -2.1335 H   0  0  0  0  0  0  0  0  0  0  0  0
   -3.5478   -1.1315   -1.7527 H   0  0  0  0  0  0  0  0  0  0  0  0
   -0.2434   -4.4568   -1.1608 H   0  0  0  0  0  0  0  0  0  0  0  0
    0.3638   -3.8540    0.4100 H   0  0  0  0  0  0  0  0  0  0  0  0
   -1.2337   -4.6491    0.3250 H   0  0  0  0  0  0  0  0  0  0  0  0
  1  2  1  0
  2  3  2  3
  3  4  1  0
  4  5  1  0
  5  6  1  0
  6  7  1  0
  7  8  1  0
  2  9  1  0
  9 10  2  0
 10 11  1  0
 11 12  1  0
 12 13  2  0
 13 14  1  0
 14 15  2  0
 15 16  1  0
 15 17  1  0
 17 18  2  0
 10 19  1  0
 19 20  1  0
 20 21  2  0
 21 22  1  0
 22 23  1  0
 22 24  1  0
 24  1  1  0
 18 12  1  0
 24 19  2  0
  1 25  1  0
  4 26  1  0
  4 27  1  0
  5 28  1  0
  5 29  1  0
  6 30  1  0
  6 31  1  0
  7 32  1  0
  7 33  1  0
  8 34  1  0
  8 35  1  0
  8 36  1  0
 11 37  1  0
 13 38  1  0
 14 39  1  0
 17 40  1  0
 18 41  1  0
 20 42  1  0
 23 43  1  0
 23 44  1  0
 23 45  1  0
M  END
>  <ScrubInfo>  (4) 
{"isomerGroup": 0, "isomerId": 3, "confId": 0, "nr_conformers:": 1, "nr_isomers:": 9}

$$$$
_i4
     RDKit          3D

 45 47  0  0  0  0  0  0  0  0999 V2000
   -3.9915   -3.9294   -0.4610 N   0  0  0  0  0  0  0  0  0  0  0  0
   -3.9113   -2.5833   -0.8042 C   0  0  0  0  0  0  0  0  0  0  0  0
   -2.7415   -2.0294   -0.4613 C   0  0  0  0  0  0  0  0  0  0  0  0
   -2.0955   -0.7441   -0.5833 C   0  0  0  0  0  0  0  0  0  0  0  0
   -2.6818    0.2889   -1.1043 N   0  0  0  0  0  0  0  0  0  0  0  0
   -1.9598    1.4891   -1.1741 C   0  0  0  0  0  0  0  0  0  0  0  0
   -1.2577    1.8196   -2.3386 C   0  0  0  0  0  0  0  0  0  0  0  0
   -0.5416    3.0154   -2.4155 C   0  0  0  0  0  0  0  0  0  0  0  0
   -0.5407    3.8819   -1.3283 C   0  0  0  0  0  0  0  0  0  0  0  0
    0.1499    5.0275   -1.3991 F   0  0  0  0  0  0  0  0  0  0  0  0
   -1.2471    3.5793   -0.1700 C   0  0  0  0  0  0  0  0  0  0  0  0
   -1.9629    2.3832   -0.0968 C   0  0  0  0  0  0  0  0  0  0  0  0
   -0.8134   -0.7148   -0.1092 N   0  0  0  0  0  0  0  0  0  0  0  0
   -0.2395   -1.7412    0.4427 C   0  0  0  0  0  0  0  0  0  0  0  0
    1.0425   -1.6481    0.9009 N   0  0  0  0  0  0  0  0  0  0  0  0
    1.9472   -0.5785    0.5351 C   0  0  0  0  0  0  0  0  0  0  0  0
    1.7456    0.6311    1.4491 C   0  0  0  0  0  0  0  0  0  0  0  0
    2.5183    1.8710    0.9917 C   0  0  0  0  0  0  0  0  0  0  0  0
    4.0358    1.6930    1.0389 C   0  0  0  0  0  0  0  0  0  0  0  0
    4.7558    2.9827    0.6754 C   0  0  0  0  0  0  0  0  0  0  0  0
   -0.8160   -2.9732    0.6210 N   0  0  0  0  0  0  0  0  0  0  0  0
   -2.0272   -3.1237    0.2088 C   0  0  0  0  0  0  0  0  0  0  0  0
   -2.8545   -4.2464    0.2803 N   0  0  0  0  0  0  0  0  0  0  0  0
   -2.3060   -5.5854    0.1904 C   0  0  0  0  0  0  0  0  0  0  0  0
   -4.8877   -4.1835   -0.0388 H   0  0  0  0  0  0  0  0  0  0  0  0
   -4.7471   -2.1022   -1.2926 H   0  0  0  0  0  0  0  0  0  0  0  0
   -1.2660    1.1347   -3.1814 H   0  0  0  0  0  0  0  0  0  0  0  0
    0.0115    3.2734   -3.3120 H   0  0  0  0  0  0  0  0  0  0  0  0
   -1.2365    4.2705    0.6657 H   0  0  0  0  0  0  0  0  0  0  0  0
   -2.5166    2.1349    0.8040 H   0  0  0  0  0  0  0  0  0  0  0  0
    1.4569   -2.5443    1.1195 H   0  0  0  0  0  0  0  0  0  0  0  0
    2.9728   -0.9493    0.6363 H   0  0  0  0  0  0  0  0  0  0  0  0
    1.8123   -0.3040   -0.5179 H   0  0  0  0  0  0  0  0  0  0  0  0
    2.0353    0.3691    2.4745 H   0  0  0  0  0  0  0  0  0  0  0  0
    0.6822    0.8952    1.4929 H   0  0  0  0  0  0  0  0  0  0  0  0
    2.2344    2.7096    1.6397 H   0  0  0  0  0  0  0  0  0  0  0  0
    2.2085    2.1409   -0.0254 H   0  0  0  0  0  0  0  0  0  0  0  0
    4.3492    0.9087    0.3417 H   0  0  0  0  0  0  0  0  0  0  0  0
    4.3436    1.3801    2.0433 H   0  0  0  0  0  0  0  0  0  0  0  0
    4.4998    3.7857    1.3740 H   0  0  0  0  0  0  0  0  0  0  0  0
    5.8397    2.8346    0.7111 H   0  0  0  0  0  0  0  0  0  0  0  0
    4.4902    3.3084   -0.3354 H   0  0  0  0  0  0  0  0  0  0  0  0
   -1.8665   -5.7606   -0.7971 H   0  0  0  0  0  0  0  0  0  0  0  0
   -3.0904   -6.3303    0.3593 H   0  0  0  0  0  0  0  0  0  0  0  0
   -1.5325   -5.7367    0.9501 H   0  0  0  0  0  0  0  0  0  0  0  0
  1  2  1  0
  2  3  2  0
  3  4  1  0
  4  5  2  3
  5  6  1  0
  6  7  2  0
  7  8  1  0
  8  9  2  0
  9 10  1  0
  9 11  1  0
 11 12  2  0
  4 13  1  0
 13 14  2  0
 14 15  1  0
 15 16  1  0
 16 17  1  0
 17 18  1  0
 18 19  1  0
 19 20  1  0
 14 21  1  0
 21 22  2  0
 22 23  1  0
 23 24  1  0
 23  1  1  0
 22  3  1  0
 12  6  1  0
  1 25  1  0
  2 26  1  0
  7 27  1  0
  8 28  1  0
 11 29  1  0
 12 30  1  0
 15 31  1  0
 16 32  1  0
 16 33  1  0
 17 34  1  0
 17 35  1  0
 18 36  1  0
 18 37  1  0
 19 38  1  0
 19 39  1  0
 20 40  1  0
 20 41  1  0
 20 42  1  0
 24 43  1  0
 24 44  1  0
 24 45  1  0
M  END
>  <ScrubInfo>  (5) 
{"isomerGroup": 0, "isomerId": 4, "confId": 0, "nr_conformers:": 1, "nr_isomers:": 9}

$$$$
_i5
     RDKit          3D

 45 47  0  0  0  0  0  0  0  0999 V2000
    0.1278   -0.9555    0.4689 N   0  0  0  0  0  0  0  0  0  0  0  0
    0.4478    0.1394   -0.2932 C   0  0  0  0  0  0  0  0  0  0  0  0
    1.7824    0.3185   -0.5202 N   0  0  0  0  0  0  0  0  0  0  0  0
    2.6007   -0.7336   -1.1102 C   0  0  0  0  0  0  0  0  0  0  0  0
    4.0535   -0.2731   -1.2359 C   0  0  0  0  0  0  0  0  0  0  0  0
    4.7312   -0.0905    0.1255 C   0  0  0  0  0  0  0  0  0  0  0  0
    6.1946    0.3222   -0.0351 C   0  0  0  0  0  0  0  0  0  0  0  0
    6.8731    0.5044    1.3133 C   0  0  0  0  0  0  0  0  0  0  0  0
   -0.4014    0.9991   -0.7781 N   0  0  0  0  0  0  0  0  0  0  0  0
   -1.7626    0.8318   -0.5499 C   0  0  0  0  0  0  0  0  0  0  0  0
   -2.5411    1.6970   -1.1181 N   0  0  0  0  0  0  0  0  0  0  0  0
   -3.9276    1.6615   -0.9909 C   0  0  0  0  0  0  0  0  0  0  0  0
   -4.7026    0.9368   -1.9039 C   0  0  0  0  0  0  0  0  0  0  0  0
   -6.0947    0.9338   -1.8000 C   0  0  0  0  0  0  0  0  0  0  0  0
   -6.7063    1.6717   -0.7928 C   0  0  0  0  0  0  0  0  0  0  0  0
   -8.0419    1.6709   -0.6932 F   0  0  0  0  0  0  0  0  0  0  0  0
   -5.9533    2.4169    0.1075 C   0  0  0  0  0  0  0  0  0  0  0  0
   -4.5613    2.4181    0.0015 C   0  0  0  0  0  0  0  0  0  0  0  0
   -2.1474   -0.2868    0.2961 C   0  0  0  0  0  0  0  0  0  0  0  0
   -3.3261   -0.8201    0.8482 C   0  0  0  0  0  0  0  0  0  0  0  0
   -3.1027   -1.9042    1.6088 N   0  0  0  0  0  0  0  0  0  0  0  0
   -1.7625   -2.0697    1.5460 N   0  0  0  0  0  0  0  0  0  0  0  0
   -1.1576   -3.1641    2.2613 C   0  0  0  0  0  0  0  0  0  0  0  0
   -1.1705   -1.1274    0.7684 C   0  0  0  0  0  0  0  0  0  0  0  0
    0.8865   -1.4050    0.9627 H   0  0  0  0  0  0  0  0  0  0  0  0
    1.8854    1.1863   -1.0463 H   0  0  0  0  0  0  0  0  0  0  0  0
    2.5563   -1.6482   -0.5087 H   0  0  0  0  0  0  0  0  0  0  0  0
    2.2123   -0.9724   -2.1071 H   0  0  0  0  0  0  0  0  0  0  0  0
    4.6069   -1.0230   -1.8144 H   0  0  0  0  0  0  0  0  0  0  0  0
    4.1004    0.6664   -1.8005 H   0  0  0  0  0  0  0  0  0  0  0  0
    4.2011    0.6719    0.7086 H   0  0  0  0  0  0  0  0  0  0  0  0
    4.6745   -1.0279    0.6921 H   0  0  0  0  0  0  0  0  0  0  0  0
    6.2571    1.2603   -0.5988 H   0  0  0  0  0  0  0  0  0  0  0  0
    6.7355   -0.4386   -0.6097 H   0  0  0  0  0  0  0  0  0  0  0  0
    7.9181    0.7990    1.1749 H   0  0  0  0  0  0  0  0  0  0  0  0
    6.8558   -0.4259    1.8900 H   0  0  0  0  0  0  0  0  0  0  0  0
    6.3757    1.2826    1.9009 H   0  0  0  0  0  0  0  0  0  0  0  0
   -4.2157    0.3791   -2.6996 H   0  0  0  0  0  0  0  0  0  0  0  0
   -6.7020    0.3702   -2.5006 H   0  0  0  0  0  0  0  0  0  0  0  0
   -6.4513    2.9970    0.8774 H   0  0  0  0  0  0  0  0  0  0  0  0
   -3.9639    3.0124    0.6880 H   0  0  0  0  0  0  0  0  0  0  0  0
   -4.3470   -0.4786    0.7479 H   0  0  0  0  0  0  0  0  0  0  0  0
   -1.6817   -4.0857    1.9950 H   0  0  0  0  0  0  0  0  0  0  0  0
   -0.1039   -3.2506    1.9882 H   0  0  0  0  0  0  0  0  0  0  0  0
   -1.2516   -2.9666    3.3319 H   0  0  0  0  0  0  0  0  0  0  0  0
  1  2  1  0
  2  3  1  0
  3  4  1  0
  4  5  1  0
  5  6  1  0
  6  7  1  0
  7  8  1  0
  2  9  2  0
  9 10  1  0
 10 11  2  3
 11 12  1  0
 12 13  2  0
 13 14  1  0
 14 15  2  0
 15 16  1  0
 15 17  1  0
 17 18  2  0
 10 19  1  0
 19 20  1  0
 20 21  2  0
 21 22  1  0
 22 23  1  0
 22 24  1  0
 24  1  1  0
 18 12  1  0
 24 19  2  0
  1 25  1  0
  3 26  1  0
  4 27  1  0
  4 28  1  0
  5 29  1  0
  5 30  1  0
  6 31  1  0
  6 32  1  0
  7 33  1  0
  7 34  1  0
  8 35  1  0
  8 36  1  0
  8 37  1  0
 13 38  1  0
 14 39  1  0
 17 40  1  0
 18 41  1  0
 20 42  1  0
 23 43  1  0
 23 44  1  0
 23 45  1  0
M  END
>  <ScrubInfo>  (6) 
{"isomerGroup": 0, "isomerId": 5, "confId": 0, "nr_conformers:": 1, "nr_isomers:": 9}

$$$$
_i6
     RDKit          3D

 45 47  0  0  0  0  0  0  0  0999 V2000
   -2.0950   -2.8984   -2.7591 N   0  0  0  0  0  0  0  0  0  0  0  0
   -2.7095   -1.8001   -2.1672 C   0  0  0  0  0  0  0  0  0  0  0  0
   -1.9540   -1.2246   -1.2210 C   0  0  0  0  0  0  0  0  0  0  0  0
   -2.0468   -0.1138   -0.2672 C   0  0  0  0  0  0  0  0  0  0  0  0
   -3.1865    0.6713   -0.2586 N   0  0  0  0  0  0  0  0  0  0  0  0
   -3.5155    1.7872    0.5369 C   0  0  0  0  0  0  0  0  0  0  0  0
   -4.7767    2.3870    0.3463 C   0  0  0  0  0  0  0  0  0  0  0  0
   -5.1772    3.4969    1.0965 C   0  0  0  0  0  0  0  0  0  0  0  0
   -4.3178    4.0213    2.0494 C   0  0  0  0  0  0  0  0  0  0  0  0
   -4.6977    5.0843    2.7698 F   0  0  0  0  0  0  0  0  0  0  0  0
   -3.0705    3.4554    2.2623 C   0  0  0  0  0  0  0  0  0  0  0  0
   -2.6739    2.3441    1.5085 C   0  0  0  0  0  0  0  0  0  0  0  0
   -1.0309    0.0594    0.5263 N   0  0  0  0  0  0  0  0  0  0  0  0
    0.0608   -0.7749    0.4587 C   0  0  0  0  0  0  0  0  0  0  0  0
    0.9609   -0.5127    1.3375 N   0  0  0  0  0  0  0  0  0  0  0  0
    2.1771   -1.3189    1.3879 C   0  0  0  0  0  0  0  0  0  0  0  0
    3.2550   -0.7376    0.4709 C   0  0  0  0  0  0  0  0  0  0  0  0
    3.7245    0.6490    0.9240 C   0  0  0  0  0  0  0  0  0  0  0  0
    4.7578    1.2746   -0.0162 C   0  0  0  0  0  0  0  0  0  0  0  0
    6.0802    0.5244   -0.0531 C   0  0  0  0  0  0  0  0  0  0  0  0
    0.2558   -1.8014   -0.4358 N   0  0  0  0  0  0  0  0  0  0  0  0
   -0.7065   -2.0176   -1.2616 C   0  0  0  0  0  0  0  0  0  0  0  0
   -0.7918   -2.9674   -2.2798 N   0  0  0  0  0  0  0  0  0  0  0  0
   -0.1513   -4.2624   -2.1478 C   0  0  0  0  0  0  0  0  0  0  0  0
   -2.1997   -2.9320   -3.7762 H   0  0  0  0  0  0  0  0  0  0  0  0
   -3.6962   -1.5175   -2.5026 H   0  0  0  0  0  0  0  0  0  0  0  0
   -3.9148    0.4194   -0.9124 H   0  0  0  0  0  0  0  0  0  0  0  0
   -5.4689    1.9937   -0.3942 H   0  0  0  0  0  0  0  0  0  0  0  0
   -6.1503    3.9514    0.9426 H   0  0  0  0  0  0  0  0  0  0  0  0
   -2.4063    3.8747    3.0114 H   0  0  0  0  0  0  0  0  0  0  0  0
   -1.6880    1.9343    1.7088 H   0  0  0  0  0  0  0  0  0  0  0  0
    2.5400   -1.3232    2.4226 H   0  0  0  0  0  0  0  0  0  0  0  0
    1.9939   -2.3711    1.1393 H   0  0  0  0  0  0  0  0  0  0  0  0
    4.1043   -1.4297    0.4682 H   0  0  0  0  0  0  0  0  0  0  0  0
    2.8825   -0.6802   -0.5586 H   0  0  0  0  0  0  0  0  0  0  0  0
    4.1403    0.5857    1.9369 H   0  0  0  0  0  0  0  0  0  0  0  0
    2.8643    1.3270    0.9775 H   0  0  0  0  0  0  0  0  0  0  0  0
    4.3474    1.3413   -1.0305 H   0  0  0  0  0  0  0  0  0  0  0  0
    4.9506    2.3019    0.3156 H   0  0  0  0  0  0  0  0  0  0  0  0
    5.9658   -0.4699   -0.4944 H   0  0  0  0  0  0  0  0  0  0  0  0
    6.8063    1.0739   -0.6609 H   0  0  0  0  0  0  0  0  0  0  0  0
    6.4968    0.4119    0.9527 H   0  0  0  0  0  0  0  0  0  0  0  0
    0.9163   -4.1445   -1.9364 H   0  0  0  0  0  0  0  0  0  0  0  0
   -0.2470   -4.8308   -3.0786 H   0  0  0  0  0  0  0  0  0  0  0  0
   -0.6076   -4.8411   -1.3379 H   0  0  0  0  0  0  0  0  0  0  0  0
  1  2  1  0
  2  3  2  0
  3  4  1  0
  4  5  1  0
  5  6  1  0
  6  7  2  0
  7  8  1  0
  8  9  2  0
  9 10  1  0
  9 11  1  0
 11 12  2  0
  4 13  2  0
 13 14  1  0
 14 15  2  3
 15 16  1  0
 16 17  1  0
 17 18  1  0
 18 19  1  0
 19 20  1  0
 14 21  1  0
 21 22  2  0
 22 23  1  0
 23 24  1  0
 23  1  1  0
 22  3  1  0
 12  6  1  0
  1 25  1  0
  2 26  1  0
  5 27  1  0
  7 28  1  0
  8 29  1  0
 11 30  1  0
 12 31  1  0
 16 32  1  0
 16 33  1  0
 17 34  1  0
 17 35  1  0
 18 36  1  0
 18 37  1  0
 19 38  1  0
 19 39  1  0
 20 40  1  0
 20 41  1  0
 20 42  1  0
 24 43  1  0
 24 44  1  0
 24 45  1  0
M  END
>  <ScrubInfo>  (7) 
{"isomerGroup": 0, "isomerId": 6, "confId": 0, "nr_conformers:": 1, "nr_isomers:": 9}

$$$$
_i7
     RDKit          3D

 45 47  0  0  0  0  0  0  0  0999 V2000
   -2.7234   -4.2047   -0.7173 N   0  0  0  0  0  0  0  0  0  0  0  0
   -3.3381   -2.9966   -0.4073 C   0  0  0  0  0  0  0  0  0  0  0  0
   -2.4821   -1.9684   -0.3833 C   0  0  0  0  0  0  0  0  0  0  0  0
   -2.5144   -0.5319   -0.0987 C   0  0  0  0  0  0  0  0  0  0  0  0
   -3.6475    0.0352    0.1914 N   0  0  0  0  0  0  0  0  0  0  0  0
   -3.6621    1.4076    0.4639 C   0  0  0  0  0  0  0  0  0  0  0  0
   -3.5107    1.8659    1.7770 C   0  0  0  0  0  0  0  0  0  0  0  0
   -3.5303    3.2343    2.0517 C   0  0  0  0  0  0  0  0  0  0  0  0
   -3.7125    4.1378    1.0108 C   0  0  0  0  0  0  0  0  0  0  0  0
   -3.7323    5.4508    1.2731 F   0  0  0  0  0  0  0  0  0  0  0  0
   -3.8789    3.6985   -0.2977 C   0  0  0  0  0  0  0  0  0  0  0  0
   -3.8589    2.3296   -0.5698 C   0  0  0  0  0  0  0  0  0  0  0  0
   -1.2694    0.0382   -0.1802 N   0  0  0  0  0  0  0  0  0  0  0  0
   -0.0971   -0.5982   -0.4907 C   0  0  0  0  0  0  0  0  0  0  0  0
    0.9905    0.1016   -0.4911 N   0  0  0  0  0  0  0  0  0  0  0  0
    2.2327   -0.5964   -0.8264 C   0  0  0  0  0  0  0  0  0  0  0  0
    3.3973    0.3935   -0.7474 C   0  0  0  0  0  0  0  0  0  0  0  0
    3.6798    0.8491    0.6883 C   0  0  0  0  0  0  0  0  0  0  0  0
    4.7958    1.8923    0.7833 C   0  0  0  0  0  0  0  0  0  0  0  0
    6.1622    1.3604    0.3795 C   0  0  0  0  0  0  0  0  0  0  0  0
   -0.0571   -1.9433   -0.8017 N   0  0  0  0  0  0  0  0  0  0  0  0
   -1.1784   -2.5938   -0.7693 C   0  0  0  0  0  0  0  0  0  0  0  0
   -1.3982   -3.9431   -1.0602 N   0  0  0  0  0  0  0  0  0  0  0  0
   -0.3865   -4.9425   -0.7755 C   0  0  0  0  0  0  0  0  0  0  0  0
   -3.2566   -4.7707   -1.3814 H   0  0  0  0  0  0  0  0  0  0  0  0
   -4.4020   -2.9686   -0.2178 H   0  0  0  0  0  0  0  0  0  0  0  0
   -3.3822    1.1516    2.5860 H   0  0  0  0  0  0  0  0  0  0  0  0
   -3.4121    3.5985    3.0671 H   0  0  0  0  0  0  0  0  0  0  0  0
   -4.0294    4.4207   -1.0937 H   0  0  0  0  0  0  0  0  0  0  0  0
   -4.0014    1.9764   -1.5877 H   0  0  0  0  0  0  0  0  0  0  0  0
   -1.1656    1.0220    0.0166 H   0  0  0  0  0  0  0  0  0  0  0  0
    2.4170   -1.4319   -0.1402 H   0  0  0  0  0  0  0  0  0  0  0  0
    2.1812   -0.9858   -1.8505 H   0  0  0  0  0  0  0  0  0  0  0  0
    4.2870   -0.0955   -1.1594 H   0  0  0  0  0  0  0  0  0  0  0  0
    3.1842    1.2664   -1.3765 H   0  0  0  0  0  0  0  0  0  0  0  0
    3.9353   -0.0193    1.3077 H   0  0  0  0  0  0  0  0  0  0  0  0
    2.7712    1.2869    1.1188 H   0  0  0  0  0  0  0  0  0  0  0  0
    4.5461    2.7633    0.1662 H   0  0  0  0  0  0  0  0  0  0  0  0
    4.8530    2.2449    1.8201 H   0  0  0  0  0  0  0  0  0  0  0  0
    6.4232    0.4680    0.9570 H   0  0  0  0  0  0  0  0  0  0  0  0
    6.9295    2.1193    0.5638 H   0  0  0  0  0  0  0  0  0  0  0  0
    6.1967    1.1078   -0.6841 H   0  0  0  0  0  0  0  0  0  0  0  0
    0.5595   -4.6831   -1.2616 H   0  0  0  0  0  0  0  0  0  0  0  0
   -0.2154   -5.0264    0.3028 H   0  0  0  0  0  0  0  0  0  0  0  0
   -0.6997   -5.9204   -1.1553 H   0  0  0  0  0  0  0  0  0  0  0  0
  1  2  1  0
  2  3  2  0
  3  4  1  0
  4  5  2  3
  5  6  1  0
  6  7  2  0
  7  8  1  0
  8  9  2  0
  9 10  1  0
  9 11  1  0
 11 12  2  0
  4 13  1  0
 13 14  1  0
 14 15  2  3
 15 16  1  0
 16 17  1  0
 17 18  1  0
 18 19  1  0
 19 20  1  0
 14 21  1  0
 21 22  2  0
 22 23  1  0
 23 24  1  0
 23  1  1  0
 22  3  1  0
 12  6  1  0
  1 25  1  0
  2 26  1  0
  7 27  1  0
  8 28  1  0
 11 29  1  0
 12 30  1  0
 13 31  1  0
 16 32  1  0
 16 33  1  0
 17 34  1  0
 17 35  1  0
 18 36  1  0
 18 37  1  0
 19 38  1  0
 19 39  1  0
 20 40  1  0
 20 41  1  0
 20 42  1  0
 24 43  1  0
 24 44  1  0
 24 45  1  0
M  END
>  <ScrubInfo>  (8) 
{"isomerGroup": 0, "isomerId": 7, "confId": 0, "nr_conformers:": 1, "nr_isomers:": 9}

$$$$
_i8
     RDKit          3D

 45 47  0  0  0  0  0  0  0  0999 V2000
    0.0947   -1.3968    0.1624 N   0  0  0  0  0  0  0  0  0  0  0  0
    0.6426   -0.1850   -0.2235 C   0  0  0  0  0  0  0  0  0  0  0  0
    1.8909    0.1287   -0.3099 N   0  0  0  0  0  0  0  0  0  0  0  0
    2.8889   -0.8793    0.0331 C   0  0  0  0  0  0  0  0  0  0  0  0
    4.2863   -0.2774   -0.1260 C   0  0  0  0  0  0  0  0  0  0  0  0
    4.5776    0.8060    0.9179 C   0  0  0  0  0  0  0  0  0  0  0  0
    5.9443    1.4703    0.7351 C   0  0  0  0  0  0  0  0  0  0  0  0
    7.1151    0.5282    0.9689 C   0  0  0  0  0  0  0  0  0  0  0  0
   -0.3027    0.7642   -0.5431 N   0  0  0  0  0  0  0  0  0  0  0  0
   -1.6802    0.7252   -0.5491 C   0  0  0  0  0  0  0  0  0  0  0  0
   -2.3799    1.7643   -0.8938 N   0  0  0  0  0  0  0  0  0  0  0  0
   -3.7740    1.7587   -0.9096 C   0  0  0  0  0  0  0  0  0  0  0  0
   -4.4928    2.1613    0.2218 C   0  0  0  0  0  0  0  0  0  0  0  0
   -5.8881    2.1959    0.1943 C   0  0  0  0  0  0  0  0  0  0  0  0
   -6.5576    1.8436   -0.9722 C   0  0  0  0  0  0  0  0  0  0  0  0
   -7.8961    1.8782   -1.0003 F   0  0  0  0  0  0  0  0  0  0  0  0
   -5.8586    1.4633   -2.1122 C   0  0  0  0  0  0  0  0  0  0  0  0
   -4.4633    1.4295   -2.0823 C   0  0  0  0  0  0  0  0  0  0  0  0
   -2.1607   -0.5825   -0.1339 C   0  0  0  0  0  0  0  0  0  0  0  0
   -3.4028   -1.2190    0.0463 C   0  0  0  0  0  0  0  0  0  0  0  0
   -3.2830   -2.4904    0.4565 N   0  0  0  0  0  0  0  0  0  0  0  0
   -1.9488   -2.6749    0.5502 N   0  0  0  0  0  0  0  0  0  0  0  0
   -1.4431   -3.9577    0.9695 C   0  0  0  0  0  0  0  0  0  0  0  0
   -1.2480   -1.5619    0.1988 C   0  0  0  0  0  0  0  0  0  0  0  0
    0.7401   -2.1361    0.4035 H   0  0  0  0  0  0  0  0  0  0  0  0
    2.8018   -1.7374   -0.6440 H   0  0  0  0  0  0  0  0  0  0  0  0
    2.7552   -1.2316    1.0627 H   0  0  0  0  0  0  0  0  0  0  0  0
    4.3962    0.1418   -1.1336 H   0  0  0  0  0  0  0  0  0  0  0  0
    5.0178   -1.0873   -0.0287 H   0  0  0  0  0  0  0  0  0  0  0  0
    3.8114    1.5882    0.8569 H   0  0  0  0  0  0  0  0  0  0  0  0
    4.5099    0.3764    1.9248 H   0  0  0  0  0  0  0  0  0  0  0  0
    6.0221    2.3033    1.4441 H   0  0  0  0  0  0  0  0  0  0  0  0
    6.0181    1.9021   -0.2698 H   0  0  0  0  0  0  0  0  0  0  0  0
    8.0579    1.0829    0.9226 H   0  0  0  0  0  0  0  0  0  0  0  0
    7.1566   -0.2573    0.2088 H   0  0  0  0  0  0  0  0  0  0  0  0
    7.0487    0.0552    1.9537 H   0  0  0  0  0  0  0  0  0  0  0  0
    0.0888    1.6514   -0.8251 H   0  0  0  0  0  0  0  0  0  0  0  0
   -3.9606    2.4509    1.1239 H   0  0  0  0  0  0  0  0  0  0  0  0
   -6.4530    2.5012    1.0690 H   0  0  0  0  0  0  0  0  0  0  0  0
   -6.4007    1.2040   -3.0157 H   0  0  0  0  0  0  0  0  0  0  0  0
   -3.9081    1.1495   -2.9735 H   0  0  0  0  0  0  0  0  0  0  0  0
   -4.4010   -0.8306   -0.1002 H   0  0  0  0  0  0  0  0  0  0  0  0
   -1.3267   -4.5836    0.0816 H   0  0  0  0  0  0  0  0  0  0  0  0
   -2.1534   -4.4123    1.6651 H   0  0  0  0  0  0  0  0  0  0  0  0
   -0.4820   -3.8235    1.4710 H   0  0  0  0  0  0  0  0  0  0  0  0
  1  2  1  0
  2  3  2  3
  3  4  1  0
  4  5  1  0
  5  6  1  0
  6  7  1  0
  7  8  1  0
  2  9  1  0
  9 10  1  0
 10 11  2  3
 11 12  1  0
 12 13  2  0
 13 14  1  0
 14 15  2  0
 15 16  1  0
 15 17  1  0
 17 18  2  0
 10 19  1  0
 19 20  1  0
 20 21  2  0
 21 22  1  0
 22 23  1  0
 22 24  1  0
 24  1  1  0
 18 12  1  0
 24 19  2  0
  1 25  1  0
  4 26  1  0
  4 27  1  0
  5 28  1  0
  5 29  1  0
  6 30  1  0
  6 31  1  0
  7 32  1  0
  7 33  1  0
  8 34  1  0
  8 35  1  0
  8 36  1  0
  9 37  1  0
 13 38  1  0
 14 39  1  0
 17 40  1  0
 18 41  1  0
 20 42  1  0
 23 43  1  0
 23 44  1  0
 23 45  1  0
M  END
>  <ScrubInfo>  (9) 
{"isomerGroup": 0, "isomerId": 8, "confId": 0, "nr_conformers:": 1, "nr_isomers:": 9}

$$$$
