_i0
     RDKit          3D

 46 48  0  0  0  0  0  0  0  0999 V2000
   -5.2532    3.9939    0.2246 C   0  0  0  0  0  0  0  0  0  0  0  0
   -4.5000    2.6977    0.2257 C   0  0  0  0  0  0  0  0  0  0  0  0
   -3.1885    2.6370   -0.2509 C   0  0  0  0  0  0  0  0  0  0  0  0
   -2.4726    1.4331   -0.2213 C   0  0  0  0  0  0  0  0  0  0  0  0
   -3.0434    0.2610    0.2814 C   0  0  0  0  0  0  0  0  0  0  0  0
   -2.3703   -0.9627    0.3708 N   0  0  0  0  0  0  0  0  0  0  0  0
   -1.0731   -1.3776    0.0711 C   0  0  0  0  0  0  0  0  0  0  0  0
   -0.1234   -0.5135   -0.2503 N   0  0  0  0  0  0  0  0  0  0  0  0
    1.0665   -1.0296   -0.5036 C   0  0  0  0  0  0  0  0  0  0  0  0
    2.1239   -0.2023   -0.8621 N   0  0  0  0  0  0  0  0  0  0  0  0
    2.1037    1.0978   -0.2247 C   0  0  0  0  0  0  0  0  0  0  0  0
    3.3820    1.8294   -0.5553 C   0  0  0  0  0  0  0  0  0  0  0  0
    4.3152    2.1391    0.4380 C   0  0  0  0  0  0  0  0  0  0  0  0
    5.4725    2.8112    0.0752 C   0  0  0  0  0  0  0  0  0  0  0  0
    5.7597    3.1871   -1.1889 N   0  0  0  0  0  0  0  0  0  0  0  0
    4.8486    2.8753   -2.1351 C   0  0  0  0  0  0  0  0  0  0  0  0
    3.6629    2.2088   -1.8724 C   0  0  0  0  0  0  0  0  0  0  0  0
    1.3494   -2.3198   -0.4338 N   0  0  0  0  0  0  0  0  0  0  0  0
    0.3526   -3.1318   -0.0984 C   0  0  0  0  0  0  0  0  0  0  0  0
    0.5938   -4.5074   -0.0411 N   0  0  0  0  0  0  0  0  0  0  0  0
   -0.3495   -5.2631    0.7672 C   0  0  0  0  0  0  0  0  0  0  0  0
    1.9955   -4.8817    0.0613 C   0  0  0  0  0  0  0  0  0  0  0  0
   -0.8718   -2.6870    0.1674 N   0  0  0  0  0  0  0  0  0  0  0  0
   -4.3524    0.3420    0.7824 C   0  0  0  0  0  0  0  0  0  0  0  0
   -5.0732    1.5414    0.7573 C   0  0  0  0  0  0  0  0  0  0  0  0
   -5.0656    4.5367    1.1561 H   0  0  0  0  0  0  0  0  0  0  0  0
   -6.3299    3.8200    0.1269 H   0  0  0  0  0  0  0  0  0  0  0  0
   -4.9483    4.6221   -0.6190 H   0  0  0  0  0  0  0  0  0  0  0  0
   -2.7076    3.5260   -0.6529 H   0  0  0  0  0  0  0  0  0  0  0  0
   -1.4611    1.4377   -0.6143 H   0  0  0  0  0  0  0  0  0  0  0  0
   -2.9365   -1.7742    0.5711 H   0  0  0  0  0  0  0  0  0  0  0  0
    2.9738   -0.7369   -0.7218 H   0  0  0  0  0  0  0  0  0  0  0  0
    1.2595    1.7035   -0.5785 H   0  0  0  0  0  0  0  0  0  0  0  0
    2.0072    0.9975    0.8644 H   0  0  0  0  0  0  0  0  0  0  0  0
    4.1523    1.8669    1.4754 H   0  0  0  0  0  0  0  0  0  0  0  0
    6.2229    3.0726    0.8160 H   0  0  0  0  0  0  0  0  0  0  0  0
    5.1044    3.1835   -3.1448 H   0  0  0  0  0  0  0  0  0  0  0  0
    2.9730    1.9799   -2.6790 H   0  0  0  0  0  0  0  0  0  0  0  0
   -0.1137   -6.3327    0.7287 H   0  0  0  0  0  0  0  0  0  0  0  0
   -1.3752   -5.1604    0.3946 H   0  0  0  0  0  0  0  0  0  0  0  0
   -0.3143   -4.9514    1.8175 H   0  0  0  0  0  0  0  0  0  0  0  0
    2.5764   -4.5116   -0.7913 H   0  0  0  0  0  0  0  0  0  0  0  0
    2.4413   -4.5097    0.9910 H   0  0  0  0  0  0  0  0  0  0  0  0
    2.1000   -5.9726    0.0546 H   0  0  0  0  0  0  0  0  0  0  0  0
   -4.8296   -0.5376    1.2079 H   0  0  0  0  0  0  0  0  0  0  0  0
   -6.0838    1.5624    1.1583 H   0  0  0  0  0  0  0  0  0  0  0  0
  1  2  1  0
  2  3  2  0
  3  4  1  0
  4  5  2  0
  5  6  1  0
  6  7  1  0
  7  8  2  0
  8  9  1  0
  9 10  1  0
 10 11  1  0
 11 12  1  0
 12 13  2  0
 13 14  1  0
 14 15  2  0
 15 16  1  0
 16 17  2  0
  9 18  2  0
 18 19  1  0
 19 20  1  0
 20 21  1  0
 20 22  1  0
 19 23  2  0
  5 24  1  0
 24 25  2  0
 25  2  1  0
 23  7  1  0
 17 12  1  0
  1 26  1  0
  1 27  1  0
  1 28  1  0
  3 29  1  0
  4 30  1  0
  6 31  1  0
 10 32  1  0
 11 33  1  0
 11 34  1  0
 13 35  1  0
 14 36  1  0
 16 37  1  0
 17 38  1  0
 21 39  1  0
 21 40  1  0
 21 41  1  0
 22 42  1  0
 22 43  1  0
 22 44  1  0
 24 45  1  0
 25 46  1  0
M  END
>  <ScrubInfo>  (1) 
{"isomerGroup": 0, "isomerId": 0, "confId": 0, "nr_conformers:": 1, "nr_isomers:": 9}

$$$$
_i1
     RDKit          3D

 46 48  0  0  0  0  0  0  0  0999 V2000
   -0.4291    0.6548    0.1550 N   0  0  0  0  0  0  0  0  0  0  0  0
    0.8265    1.0071    0.4769 C   0  0  0  0  0  0  0  0  0  0  0  0
    1.7551    0.0148    0.5778 N   0  0  0  0  0  0  0  0  0  0  0  0
    1.8769   -1.0410   -0.4098 C   0  0  0  0  0  0  0  0  0  0  0  0
    3.0575   -1.9140   -0.0737 C   0  0  0  0  0  0  0  0  0  0  0  0
    4.1926   -1.9361   -0.8894 C   0  0  0  0  0  0  0  0  0  0  0  0
    5.2521   -2.7552   -0.5309 C   0  0  0  0  0  0  0  0  0  0  0  0
    5.2577   -3.5382    0.5681 N   0  0  0  0  0  0  0  0  0  0  0  0
    4.1570   -3.4984    1.3479 C   0  0  0  0  0  0  0  0  0  0  0  0
    3.0477   -2.7148    1.0735 C   0  0  0  0  0  0  0  0  0  0  0  0
    1.1484    2.2409    0.6925 N   0  0  0  0  0  0  0  0  0  0  0  0
    0.1482    3.1878    0.5669 C   0  0  0  0  0  0  0  0  0  0  0  0
    0.4973    4.5149    0.7707 N   0  0  0  0  0  0  0  0  0  0  0  0
   -0.4457    5.5665    0.4170 C   0  0  0  0  0  0  0  0  0  0  0  0
    1.8966    4.9036    0.8253 C   0  0  0  0  0  0  0  0  0  0  0  0
   -1.0856    2.8874    0.2679 N   0  0  0  0  0  0  0  0  0  0  0  0
   -1.4214    1.5785    0.0876 C   0  0  0  0  0  0  0  0  0  0  0  0
   -2.6818    1.3570   -0.1257 N   0  0  0  0  0  0  0  0  0  0  0  0
   -3.1124    0.0402   -0.3211 C   0  0  0  0  0  0  0  0  0  0  0  0
   -3.5456   -0.7266    0.7619 C   0  0  0  0  0  0  0  0  0  0  0  0
   -3.9558   -2.0488    0.5742 C   0  0  0  0  0  0  0  0  0  0  0  0
   -3.9385   -2.6202   -0.7039 C   0  0  0  0  0  0  0  0  0  0  0  0
   -4.4201   -4.0255   -0.9138 C   0  0  0  0  0  0  0  0  0  0  0  0
   -3.5367   -1.8383   -1.7937 C   0  0  0  0  0  0  0  0  0  0  0  0
   -3.1270   -0.5167   -1.6012 C   0  0  0  0  0  0  0  0  0  0  0  0
   -0.7038   -0.3095    0.2081 H   0  0  0  0  0  0  0  0  0  0  0  0
    2.6602    0.4242    0.8014 H   0  0  0  0  0  0  0  0  0  0  0  0
    0.9747   -1.6635   -0.4340 H   0  0  0  0  0  0  0  0  0  0  0  0
    1.9974   -0.6037   -1.4081 H   0  0  0  0  0  0  0  0  0  0  0  0
    4.2607   -1.3304   -1.7873 H   0  0  0  0  0  0  0  0  0  0  0  0
    6.1526   -2.8037   -1.1369 H   0  0  0  0  0  0  0  0  0  0  0  0
    4.1908   -4.1320    2.2297 H   0  0  0  0  0  0  0  0  0  0  0  0
    2.1965   -2.7225    1.7472 H   0  0  0  0  0  0  0  0  0  0  0  0
   -0.5405    5.6444   -0.6712 H   0  0  0  0  0  0  0  0  0  0  0  0
   -0.1212    6.5393    0.8020 H   0  0  0  0  0  0  0  0  0  0  0  0
   -1.4347    5.3736    0.8464 H   0  0  0  0  0  0  0  0  0  0  0  0
    2.3599    4.8047   -0.1619 H   0  0  0  0  0  0  0  0  0  0  0  0
    2.4516    4.2872    1.5406 H   0  0  0  0  0  0  0  0  0  0  0  0
    2.0112    5.9426    1.1527 H   0  0  0  0  0  0  0  0  0  0  0  0
   -3.5711   -0.2851    1.7550 H   0  0  0  0  0  0  0  0  0  0  0  0
   -4.2994   -2.6243    1.4309 H   0  0  0  0  0  0  0  0  0  0  0  0
   -3.9092   -4.4902   -1.7636 H   0  0  0  0  0  0  0  0  0  0  0  0
   -4.2144   -4.6440   -0.0338 H   0  0  0  0  0  0  0  0  0  0  0  0
   -5.4978   -4.0274   -1.1042 H   0  0  0  0  0  0  0  0  0  0  0  0
   -3.5511   -2.2483   -2.8010 H   0  0  0  0  0  0  0  0  0  0  0  0
   -2.8263    0.0890   -2.4522 H   0  0  0  0  0  0  0  0  0  0  0  0
  1  2  1  0
  2  3  1  0
  3  4  1  0
  4  5  1  0
  5  6  2  0
  6  7  1  0
  7  8  2  0
  8  9  1  0
  9 10  2  0
  2 11  2  0
 11 12  1  0
 12 13  1  0
 13 14  1  0
 13 15  1  0
 12 16  2  0
 16 17  1  0
 17 18  2  3
 18 19  1  0
 19 20  2  0
 20 21  1  0
 21 22  2  0
 22 23  1  0
 22 24  1  0
 24 25  2  0
 17  1  1  0
 25 19  1  0
 10  5  1  0
  1 26  1  0
  3 27  1  0
  4 28  1  0
  4 29  1  0
  6 30  1  0
  7 31  1  0
  9 32  1  0
 10 33  1  0
 14 34  1  0
 14 35  1  0
 14 36  1  0
 15 37  1  0
 15 38  1  0
 15 39  1  0
 20 40  1  0
 21 41  1  0
 23 42  1  0
 23 43  1  0
 23 44  1  0
 24 45  1  0
 25 46  1  0
M  END
>  <ScrubInfo>  (2) 
{"isomerGroup": 0, "isomerId": 1, "confId": 0, "nr_conformers:": 1, "nr_isomers:": 9}

$$$$
_i2
     RDKit          3D

 46 48  0  0  0  0  0  0  0  0999 V2000
   -0.6349    0.6141    0.0061 N   0  0  0  0  0  0  0  0  0  0  0  0
    0.6225    0.1110   -0.0341 C   0  0  0  0  0  0  0  0  0  0  0  0
    1.5892    1.0834    0.0506 N   0  0  0  0  0  0  0  0  0  0  0  0
    2.9821    0.8961    0.1821 C   0  0  0  0  0  0  0  0  0  0  0  0
    3.8428    1.9509   -0.1614 C   0  0  0  0  0  0  0  0  0  0  0  0
    5.2300    1.8342   -0.0177 C   0  0  0  0  0  0  0  0  0  0  0  0
    5.7926    0.6572    0.4807 C   0  0  0  0  0  0  0  0  0  0  0  0
    7.2755    0.5385    0.6686 C   0  0  0  0  0  0  0  0  0  0  0  0
    4.9430   -0.3839    0.8620 C   0  0  0  0  0  0  0  0  0  0  0  0
    3.5559   -0.2621    0.7158 C   0  0  0  0  0  0  0  0  0  0  0  0
    0.8099   -1.1629   -0.1533 N   0  0  0  0  0  0  0  0  0  0  0  0
   -0.2951   -1.9812   -0.2455 C   0  0  0  0  0  0  0  0  0  0  0  0
   -0.0700   -3.3403   -0.4053 N   0  0  0  0  0  0  0  0  0  0  0  0
   -1.1834   -4.2151   -0.7449 C   0  0  0  0  0  0  0  0  0  0  0  0
    1.2516   -3.8189   -0.7792 C   0  0  0  0  0  0  0  0  0  0  0  0
   -1.5164   -1.5311   -0.1900 N   0  0  0  0  0  0  0  0  0  0  0  0
   -1.7219   -0.1970   -0.0216 C   0  0  0  0  0  0  0  0  0  0  0  0
   -2.9571    0.1343    0.0983 N   0  0  0  0  0  0  0  0  0  0  0  0
   -3.3048    1.5391    0.2688 C   0  0  0  0  0  0  0  0  0  0  0  0
   -4.7957    1.7810    0.2587 C   0  0  0  0  0  0  0  0  0  0  0  0
   -5.3313    2.9033    0.8989 C   0  0  0  0  0  0  0  0  0  0  0  0
   -6.7003    3.1194    0.8355 C   0  0  0  0  0  0  0  0  0  0  0  0
   -7.5606    2.3133    0.1798 N   0  0  0  0  0  0  0  0  0  0  0  0
   -7.0249    1.2380   -0.4372 C   0  0  0  0  0  0  0  0  0  0  0  0
   -5.6715    0.9387   -0.4325 C   0  0  0  0  0  0  0  0  0  0  0  0
   -0.7621    1.5528    0.3341 H   0  0  0  0  0  0  0  0  0  0  0  0
    1.3601    1.9535   -0.4094 H   0  0  0  0  0  0  0  0  0  0  0  0
    3.4451    2.8840   -0.5521 H   0  0  0  0  0  0  0  0  0  0  0  0
    5.8664    2.6710   -0.2969 H   0  0  0  0  0  0  0  0  0  0  0  0
    7.5563    0.8942    1.6647 H   0  0  0  0  0  0  0  0  0  0  0  0
    7.6010   -0.5013    0.5588 H   0  0  0  0  0  0  0  0  0  0  0  0
    7.8126    1.1275   -0.0823 H   0  0  0  0  0  0  0  0  0  0  0  0
    5.3497   -1.3009    1.2827 H   0  0  0  0  0  0  0  0  0  0  0  0
    2.9341   -1.0906    1.0443 H   0  0  0  0  0  0  0  0  0  0  0  0
   -0.9041   -5.2699   -0.6493 H   0  0  0  0  0  0  0  0  0  0  0  0
   -1.5074   -4.0391   -1.7760 H   0  0  0  0  0  0  0  0  0  0  0  0
   -2.0338   -4.0540   -0.0735 H   0  0  0  0  0  0  0  0  0  0  0  0
    1.3115   -4.9113   -0.7248 H   0  0  0  0  0  0  0  0  0  0  0  0
    1.4934   -3.5154   -1.8032 H   0  0  0  0  0  0  0  0  0  0  0  0
    2.0199   -3.4295   -0.1029 H   0  0  0  0  0  0  0  0  0  0  0  0
   -2.8706    2.1436   -0.5375 H   0  0  0  0  0  0  0  0  0  0  0  0
   -2.9022    1.8931    1.2262 H   0  0  0  0  0  0  0  0  0  0  0  0
   -4.7015    3.5993    1.4418 H   0  0  0  0  0  0  0  0  0  0  0  0
   -7.1538    3.9763    1.3252 H   0  0  0  0  0  0  0  0  0  0  0  0
   -7.7337    0.5995   -0.9562 H   0  0  0  0  0  0  0  0  0  0  0  0
   -5.3084    0.0571   -0.9522 H   0  0  0  0  0  0  0  0  0  0  0  0
  1  2  1  0
  2  3  1  0
  3  4  1  0
  4  5  2  0
  5  6  1  0
  6  7  2  0
  7  8  1  0
  7  9  1  0
  9 10  2  0
  2 11  2  0
 11 12  1  0
 12 13  1  0
 13 14  1  0
 13 15  1  0
 12 16  2  0
 16 17  1  0
 17 18  2  3
 18 19  1  0
 19 20  1  0
 20 21  2  0
 21 22  1  0
 22 23  2  0
 23 24  1  0
 24 25  2  0
 17  1  1  0
 25 20  1  0
 10  4  1  0
  1 26  1  0
  3 27  1  0
  5 28  1  0
  6 29  1  0
  8 30  1  0
  8 31  1  0
  8 32  1  0
  9 33  1  0
 10 34  1  0
 14 35  1  0
 14 36  1  0
 14 37  1  0
 15 38  1  0
 15 39  1  0
 15 40  1  0
 19 41  1  0
 19 42  1  0
 21 43  1  0
 22 44  1  0
 24 45  1  0
 25 46  1  0
M  END
>  <ScrubInfo>  (3) 
{"isomerGroup": 0, "isomerId": 2, "confId": 0, "nr_conformers:": 1, "nr_isomers:": 9}

$$$$
_i3
     RDKit          3D

 46 48  0  0  0  0  0  0  0  0999 V2000
   -1.3760   -1.7935    0.1106 N   0  0  0  0  0  0  0  0  0  0  0  0
   -0.4706   -2.7802   -0.0621 C   0  0  0  0  0  0  0  0  0  0  0  0
   -0.9696   -4.0706   -0.0104 N   0  0  0  0  0  0  0  0  0  0  0  0
    0.0077   -5.1631    0.0508 C   0  0  0  0  0  0  0  0  0  0  0  0
   -2.1658   -4.4203   -0.7803 C   0  0  0  0  0  0  0  0  0  0  0  0
    0.7833   -2.4979   -0.2344 N   0  0  0  0  0  0  0  0  0  0  0  0
    1.1446   -1.1649   -0.2698 C   0  0  0  0  0  0  0  0  0  0  0  0
    2.4799   -0.9849   -0.5165 N   0  0  0  0  0  0  0  0  0  0  0  0
    3.2727    0.1712   -0.5579 C   0  0  0  0  0  0  0  0  0  0  0  0
    4.6321    0.0334   -0.8871 C   0  0  0  0  0  0  0  0  0  0  0  0
    5.4850    1.1406   -0.9642 C   0  0  0  0  0  0  0  0  0  0  0  0
    4.9995    2.4234   -0.7073 C   0  0  0  0  0  0  0  0  0  0  0  0
    5.8966    3.6190   -0.8202 C   0  0  0  0  0  0  0  0  0  0  0  0
    3.6457    2.5774   -0.4012 C   0  0  0  0  0  0  0  0  0  0  0  0
    2.7973    1.4645   -0.3264 C   0  0  0  0  0  0  0  0  0  0  0  0
    0.3000   -0.1957   -0.0937 N   0  0  0  0  0  0  0  0  0  0  0  0
   -1.0051   -0.4907    0.1523 C   0  0  0  0  0  0  0  0  0  0  0  0
   -1.7367    0.5339    0.4067 N   0  0  0  0  0  0  0  0  0  0  0  0
   -3.1572    0.3387    0.6684 C   0  0  0  0  0  0  0  0  0  0  0  0
   -3.9120    1.6404    0.8003 C   0  0  0  0  0  0  0  0  0  0  0  0
   -3.5046    2.7950    0.1256 C   0  0  0  0  0  0  0  0  0  0  0  0
   -4.2628    3.9482    0.2536 C   0  0  0  0  0  0  0  0  0  0  0  0
   -5.3939    4.0284    0.9872 N   0  0  0  0  0  0  0  0  0  0  0  0
   -5.7764    2.9028    1.6251 C   0  0  0  0  0  0  0  0  0  0  0  0
   -5.0846    1.7020    1.5599 C   0  0  0  0  0  0  0  0  0  0  0  0
   -2.2621   -2.0446    0.5052 H   0  0  0  0  0  0  0  0  0  0  0  0
    0.7639   -4.9663    0.8187 H   0  0  0  0  0  0  0  0  0  0  0  0
    0.5067   -5.2917   -0.9157 H   0  0  0  0  0  0  0  0  0  0  0  0
   -0.4808   -6.1062    0.3187 H   0  0  0  0  0  0  0  0  0  0  0  0
   -2.5033   -5.4342   -0.5395 H   0  0  0  0  0  0  0  0  0  0  0  0
   -1.9548   -4.3718   -1.8539 H   0  0  0  0  0  0  0  0  0  0  0  0
   -3.0013   -3.7496   -0.5582 H   0  0  0  0  0  0  0  0  0  0  0  0
    2.9745   -1.8582   -0.6144 H   0  0  0  0  0  0  0  0  0  0  0  0
    5.0475   -0.9500   -1.0939 H   0  0  0  0  0  0  0  0  0  0  0  0
    6.5293    0.9902   -1.2272 H   0  0  0  0  0  0  0  0  0  0  0  0
    5.5784    4.4121   -0.1354 H   0  0  0  0  0  0  0  0  0  0  0  0
    5.8776    4.0061   -1.8436 H   0  0  0  0  0  0  0  0  0  0  0  0
    6.9280    3.3596   -0.5590 H   0  0  0  0  0  0  0  0  0  0  0  0
    3.2308    3.5658   -0.2162 H   0  0  0  0  0  0  0  0  0  0  0  0
    1.7553    1.6454   -0.0790 H   0  0  0  0  0  0  0  0  0  0  0  0
   -3.2738   -0.2276    1.6010 H   0  0  0  0  0  0  0  0  0  0  0  0
   -3.6257   -0.2291   -0.1454 H   0  0  0  0  0  0  0  0  0  0  0  0
   -2.6054    2.8003   -0.4833 H   0  0  0  0  0  0  0  0  0  0  0  0
   -3.9694    4.8651   -0.2491 H   0  0  0  0  0  0  0  0  0  0  0  0
   -6.6874    2.9914    2.2098 H   0  0  0  0  0  0  0  0  0  0  0  0
   -5.4570    0.8365    2.0966 H   0  0  0  0  0  0  0  0  0  0  0  0
  1  2  1  0
  2  3  1  0
  3  4  1  0
  3  5  1  0
  2  6  2  0
  6  7  1  0
  7  8  1  0
  8  9  1  0
  9 10  2  0
 10 11  1  0
 11 12  2  0
 12 13  1  0
 12 14  1  0
 14 15  2  0
  7 16  2  0
 16 17  1  0
 17 18  2  3
 18 19  1  0
 19 20  1  0
 20 21  2  0
 21 22  1  0
 22 23  2  0
 23 24  1  0
 24 25  2  0
 17  1  1  0
 25 20  1  0
 15  9  1  0
  1 26  1  0
  4 27  1  0
  4 28  1  0
  4 29  1  0
  5 30  1  0
  5 31  1  0
  5 32  1  0
  8 33  1  0
 10 34  1  0
 11 35  1  0
 13 36  1  0
 13 37  1  0
 13 38  1  0
 14 39  1  0
 15 40  1  0
 19 41  1  0
 19 42  1  0
 21 43  1  0
 22 44  1  0
 24 45  1  0
 25 46  1  0
M  END
>  <ScrubInfo>  (4) 
{"isomerGroup": 0, "isomerId": 3, "confId": 0, "nr_conformers:": 1, "nr_isomers:": 9}

$$$$
_i4
     RDKit          3D

 46 48  0  0  0  0  0  0  0  0999 V2000
   -1.0270   -0.4343   -0.1128 N   0  0  0  0  0  0  0  0  0  0  0  0
   -0.0890   -1.3132    0.2997 C   0  0  0  0  0  0  0  0  0  0  0  0
   -0.5285   -2.5813    0.6429 N   0  0  0  0  0  0  0  0  0  0  0  0
    0.4695   -3.5299    1.1440 C   0  0  0  0  0  0  0  0  0  0  0  0
   -1.6385   -3.2165   -0.0658 C   0  0  0  0  0  0  0  0  0  0  0  0
    1.1547   -0.9449    0.3757 N   0  0  0  0  0  0  0  0  0  0  0  0
    1.4608    0.3371   -0.0117 C   0  0  0  0  0  0  0  0  0  0  0  0
    2.7664    0.7315    0.0060 N   0  0  0  0  0  0  0  0  0  0  0  0
    3.7421    0.0999    0.8570 C   0  0  0  0  0  0  0  0  0  0  0  0
    5.0838    0.7580    0.6605 C   0  0  0  0  0  0  0  0  0  0  0  0
    5.6232    1.6028    1.6347 C   0  0  0  0  0  0  0  0  0  0  0  0
    6.8570    2.1883    1.3959 C   0  0  0  0  0  0  0  0  0  0  0  0
    7.5757    1.9956    0.2697 N   0  0  0  0  0  0  0  0  0  0  0  0
    7.0326    1.1866   -0.6646 C   0  0  0  0  0  0  0  0  0  0  0  0
    5.8083    0.5547   -0.5186 C   0  0  0  0  0  0  0  0  0  0  0  0
    0.5894    1.2235   -0.3937 N   0  0  0  0  0  0  0  0  0  0  0  0
   -0.7236    0.8545   -0.4156 C   0  0  0  0  0  0  0  0  0  0  0  0
   -1.5544    1.8035   -0.7189 N   0  0  0  0  0  0  0  0  0  0  0  0
   -2.9228    1.5155   -0.7683 C   0  0  0  0  0  0  0  0  0  0  0  0
   -3.5048    1.0463   -1.9473 C   0  0  0  0  0  0  0  0  0  0  0  0
   -4.8671    0.7397   -1.9914 C   0  0  0  0  0  0  0  0  0  0  0  0
   -5.6697    0.9204   -0.8585 C   0  0  0  0  0  0  0  0  0  0  0  0
   -7.1278    0.5696   -0.8963 C   0  0  0  0  0  0  0  0  0  0  0  0
   -5.0849    1.3956    0.3216 C   0  0  0  0  0  0  0  0  0  0  0  0
   -3.7223    1.7012    0.3609 C   0  0  0  0  0  0  0  0  0  0  0  0
   -1.9965   -0.6438    0.0365 H   0  0  0  0  0  0  0  0  0  0  0  0
    1.1063   -3.8854    0.3270 H   0  0  0  0  0  0  0  0  0  0  0  0
   -0.0121   -4.3954    1.6116 H   0  0  0  0  0  0  0  0  0  0  0  0
    1.1002   -3.0681    1.9117 H   0  0  0  0  0  0  0  0  0  0  0  0
   -1.8482   -4.2160    0.3308 H   0  0  0  0  0  0  0  0  0  0  0  0
   -1.4042   -3.3151   -1.1309 H   0  0  0  0  0  0  0  0  0  0  0  0
   -2.5622   -2.6400    0.0429 H   0  0  0  0  0  0  0  0  0  0  0  0
    2.8508    1.7364   -0.0899 H   0  0  0  0  0  0  0  0  0  0  0  0
    3.4342    0.1773    1.9068 H   0  0  0  0  0  0  0  0  0  0  0  0
    3.8350   -0.9682    0.6251 H   0  0  0  0  0  0  0  0  0  0  0  0
    5.0985    1.8072    2.5621 H   0  0  0  0  0  0  0  0  0  0  0  0
    7.3128    2.8501    2.1269 H   0  0  0  0  0  0  0  0  0  0  0  0
    7.6249    1.0564   -1.5658 H   0  0  0  0  0  0  0  0  0  0  0  0
    5.4210   -0.0771   -1.3119 H   0  0  0  0  0  0  0  0  0  0  0  0
   -2.8908    0.9240   -2.8360 H   0  0  0  0  0  0  0  0  0  0  0  0
   -5.2984    0.3723   -2.9198 H   0  0  0  0  0  0  0  0  0  0  0  0
   -7.6999    1.2026   -0.2098 H   0  0  0  0  0  0  0  0  0  0  0  0
   -7.2676   -0.4778   -0.6119 H   0  0  0  0  0  0  0  0  0  0  0  0
   -7.5407    0.7227   -1.8989 H   0  0  0  0  0  0  0  0  0  0  0  0
   -5.6878    1.5440    1.2147 H   0  0  0  0  0  0  0  0  0  0  0  0
   -3.2785    2.0899    1.2738 H   0  0  0  0  0  0  0  0  0  0  0  0
  1  2  1  0
  2  3  1  0
  3  4  1  0
  3  5  1  0
  2  6  2  0
  6  7  1  0
  7  8  1  0
  8  9  1  0
  9 10  1  0
 10 11  2  0
 11 12  1  0
 12 13  2  0
 13 14  1  0
 14 15  2  0
  7 16  2  0
 16 17  1  0
 17 18  2  3
 18 19  1  0
 19 20  2  0
 20 21  1  0
 21 22  2  0
 22 23  1  0
 22 24  1  0
 24 25  2  0
 17  1  1  0
 25 19  1  0
 15 10  1  0
  1 26  1  0
  4 27  1  0
  4 28  1  0
  4 29  1  0
  5 30  1  0
  5 31  1  0
  5 32  1  0
  8 33  1  0
  9 34  1  0
  9 35  1  0
 11 36  1  0
 12 37  1  0
 14 38  1  0
 15 39  1  0
 20 40  1  0
 21 41  1  0
 23 42  1  0
 23 43  1  0
 23 44  1  0
 24 45  1  0
 25 46  1  0
M  END
>  <ScrubInfo>  (5) 
{"isomerGroup": 0, "isomerId": 4, "confId": 0, "nr_conformers:": 1, "nr_isomers:": 9}

$$$$
_i5
     RDKit          3D

 46 48  0  0  0  0  0  0  0  0999 V2000
   -1.2618    1.9931    0.7483 N   0  0  0  0  0  0  0  0  0  0  0  0
   -0.8075    0.7695    0.3824 C   0  0  0  0  0  0  0  0  0  0  0  0
   -1.8011   -0.1364    0.1436 N   0  0  0  0  0  0  0  0  0  0  0  0
   -1.4660   -1.4502   -0.3826 C   0  0  0  0  0  0  0  0  0  0  0  0
   -2.7313   -2.2550   -0.5329 C   0  0  0  0  0  0  0  0  0  0  0  0
   -3.3070   -2.4648   -1.7893 C   0  0  0  0  0  0  0  0  0  0  0  0
   -4.4845   -3.1923   -1.8661 C   0  0  0  0  0  0  0  0  0  0  0  0
   -5.1197   -3.7089   -0.7931 N   0  0  0  0  0  0  0  0  0  0  0  0
   -4.5497   -3.4946    0.4116 C   0  0  0  0  0  0  0  0  0  0  0  0
   -3.3751   -2.7824    0.5914 C   0  0  0  0  0  0  0  0  0  0  0  0
    0.4531    0.5103    0.2841 N   0  0  0  0  0  0  0  0  0  0  0  0
    1.2917    1.5653    0.5839 C   0  0  0  0  0  0  0  0  0  0  0  0
    2.5754    1.4427    0.4411 N   0  0  0  0  0  0  0  0  0  0  0  0
    3.0993    0.2288   -0.0224 C   0  0  0  0  0  0  0  0  0  0  0  0
    3.4289   -0.7912    0.8729 C   0  0  0  0  0  0  0  0  0  0  0  0
    3.9791   -1.9908    0.4128 C   0  0  0  0  0  0  0  0  0  0  0  0
    4.2104   -2.1849   -0.9543 C   0  0  0  0  0  0  0  0  0  0  0  0
    4.8355   -3.4561   -1.4461 C   0  0  0  0  0  0  0  0  0  0  0  0
    3.9106   -1.1495   -1.8478 C   0  0  0  0  0  0  0  0  0  0  0  0
    3.3599    0.0479   -1.3823 C   0  0  0  0  0  0  0  0  0  0  0  0
    0.8844    2.7976    1.0466 N   0  0  0  0  0  0  0  0  0  0  0  0
   -0.3979    2.9796    1.1128 C   0  0  0  0  0  0  0  0  0  0  0  0
   -0.9852    4.1481    1.5702 N   0  0  0  0  0  0  0  0  0  0  0  0
   -2.1206    4.7276    0.8522 C   0  0  0  0  0  0  0  0  0  0  0  0
   -0.0876    5.1608    2.1394 C   0  0  0  0  0  0  0  0  0  0  0  0
   -2.1584    2.0148    1.2056 H   0  0  0  0  0  0  0  0  0  0  0  0
   -2.6279    0.2545   -0.2920 H   0  0  0  0  0  0  0  0  0  0  0  0
   -0.7805   -1.9770    0.2925 H   0  0  0  0  0  0  0  0  0  0  0  0
   -0.9621   -1.3534   -1.3520 H   0  0  0  0  0  0  0  0  0  0  0  0
   -2.8519   -2.0757   -2.6943 H   0  0  0  0  0  0  0  0  0  0  0  0
   -4.9632   -3.3834   -2.8225 H   0  0  0  0  0  0  0  0  0  0  0  0
   -5.0798   -3.9225    1.2578 H   0  0  0  0  0  0  0  0  0  0  0  0
   -2.9708   -2.6380    1.5885 H   0  0  0  0  0  0  0  0  0  0  0  0
    3.2546   -0.6446    1.9349 H   0  0  0  0  0  0  0  0  0  0  0  0
    4.2290   -2.7679    1.1307 H   0  0  0  0  0  0  0  0  0  0  0  0
    4.5023   -3.6871   -2.4633 H   0  0  0  0  0  0  0  0  0  0  0  0
    4.5508   -4.3021   -0.8116 H   0  0  0  0  0  0  0  0  0  0  0  0
    5.9258   -3.3627   -1.4434 H   0  0  0  0  0  0  0  0  0  0  0  0
    4.1077   -1.2636   -2.9107 H   0  0  0  0  0  0  0  0  0  0  0  0
    3.1340    0.8499   -2.0788 H   0  0  0  0  0  0  0  0  0  0  0  0
   -1.8071    5.0784   -0.1368 H   0  0  0  0  0  0  0  0  0  0  0  0
   -2.5406    5.5764    1.4028 H   0  0  0  0  0  0  0  0  0  0  0  0
   -2.9311    4.0033    0.7256 H   0  0  0  0  0  0  0  0  0  0  0  0
   -0.6588    5.9344    2.6640 H   0  0  0  0  0  0  0  0  0  0  0  0
    0.5901    4.7125    2.8742 H   0  0  0  0  0  0  0  0  0  0  0  0
    0.5048    5.6398    1.3524 H   0  0  0  0  0  0  0  0  0  0  0  0
  1  2  1  0
  2  3  1  0
  3  4  1  0
  4  5  1  0
  5  6  2  0
  6  7  1  0
  7  8  2  0
  8  9  1  0
  9 10  2  0
  2 11  2  0
 11 12  1  0
 12 13  2  3
 13 14  1  0
 14 15  2  0
 15 16  1  0
 16 17  2  0
 17 18  1  0
 17 19  1  0
 19 20  2  0
 12 21  1  0
 21 22  2  0
 22 23  1  0
 23 24  1  0
 23 25  1  0
 22  1  1  0
 10  5  1  0
 20 14  1  0
  1 26  1  0
  3 27  1  0
  4 28  1  0
  4 29  1  0
  6 30  1  0
  7 31  1  0
  9 32  1  0
 10 33  1  0
 15 34  1  0
 16 35  1  0
 18 36  1  0
 18 37  1  0
 18 38  1  0
 19 39  1  0
 20 40  1  0
 24 41  1  0
 24 42  1  0
 24 43  1  0
 25 44  1  0
 25 45  1  0
 25 46  1  0
M  END
>  <ScrubInfo>  (6) 
{"isomerGroup": 0, "isomerId": 5, "confId": 0, "nr_conformers:": 1, "nr_isomers:": 9}

$$$$
_i6
     RDKit          3D

 46 48  0  0  0  0  0  0  0  0999 V2000
    0.6726    1.3515    0.1041 N   0  0  0  0  0  0  0  0  0  0  0  0
    0.3105    0.3305   -0.7123 C   0  0  0  0  0  0  0  0  0  0  0  0
    1.2046   -0.0376   -1.6800 N   0  0  0  0  0  0  0  0  0  0  0  0
    2.5790   -0.2968   -1.4686 C   0  0  0  0  0  0  0  0  0  0  0  0
    3.4365   -0.2862   -2.5755 C   0  0  0  0  0  0  0  0  0  0  0  0
    4.8014   -0.5492   -2.4287 C   0  0  0  0  0  0  0  0  0  0  0  0
    5.3361   -0.8321   -1.1684 C   0  0  0  0  0  0  0  0  0  0  0  0
    6.7935   -1.1519   -1.0138 C   0  0  0  0  0  0  0  0  0  0  0  0
    4.4785   -0.8784   -0.0649 C   0  0  0  0  0  0  0  0  0  0  0  0
    3.1134   -0.6134   -0.2141 C   0  0  0  0  0  0  0  0  0  0  0  0
   -0.8577   -0.2255   -0.6229 N   0  0  0  0  0  0  0  0  0  0  0  0
   -1.6472    0.2591    0.4005 C   0  0  0  0  0  0  0  0  0  0  0  0
   -2.8310   -0.2128    0.5780 N   0  0  0  0  0  0  0  0  0  0  0  0
   -3.2736   -1.2584   -0.3414 C   0  0  0  0  0  0  0  0  0  0  0  0
   -4.6724   -1.7472   -0.0334 C   0  0  0  0  0  0  0  0  0  0  0  0
   -5.4623   -2.3005   -1.0460 C   0  0  0  0  0  0  0  0  0  0  0  0
   -6.7248   -2.7767   -0.7242 C   0  0  0  0  0  0  0  0  0  0  0  0
   -7.2464   -2.7505    0.5203 N   0  0  0  0  0  0  0  0  0  0  0  0
   -6.4647   -2.2208    1.4862 C   0  0  0  0  0  0  0  0  0  0  0  0
   -5.1907   -1.7217    1.2643 C   0  0  0  0  0  0  0  0  0  0  0  0
   -1.2872    1.2351    1.3007 N   0  0  0  0  0  0  0  0  0  0  0  0
   -0.1238    1.7793    1.1144 C   0  0  0  0  0  0  0  0  0  0  0  0
    0.3937    2.7787    1.9212 N   0  0  0  0  0  0  0  0  0  0  0  0
   -0.3764    3.1239    3.1226 C   0  0  0  0  0  0  0  0  0  0  0  0
    1.0735    3.9304    1.3271 C   0  0  0  0  0  0  0  0  0  0  0  0
    1.6298    1.6581    0.0752 H   0  0  0  0  0  0  0  0  0  0  0  0
    0.8104   -0.7580   -2.2812 H   0  0  0  0  0  0  0  0  0  0  0  0
    3.0466   -0.0601   -3.5656 H   0  0  0  0  0  0  0  0  0  0  0  0
    5.4434   -0.5324   -3.3070 H   0  0  0  0  0  0  0  0  0  0  0  0
    7.1560   -0.8526   -0.0247 H   0  0  0  0  0  0  0  0  0  0  0  0
    6.9563   -2.2266   -1.1404 H   0  0  0  0  0  0  0  0  0  0  0  0
    7.3923   -0.6129   -1.7555 H   0  0  0  0  0  0  0  0  0  0  0  0
    4.8651   -1.1324    0.9202 H   0  0  0  0  0  0  0  0  0  0  0  0
    2.4752   -0.6890    0.6637 H   0  0  0  0  0  0  0  0  0  0  0  0
   -3.2667   -0.8707   -1.3685 H   0  0  0  0  0  0  0  0  0  0  0  0
   -2.6079   -2.1293   -0.2858 H   0  0  0  0  0  0  0  0  0  0  0  0
   -5.1056   -2.3601   -2.0685 H   0  0  0  0  0  0  0  0  0  0  0  0
   -7.3685   -3.2079   -1.4852 H   0  0  0  0  0  0  0  0  0  0  0  0
   -6.9007   -2.2077    2.4806 H   0  0  0  0  0  0  0  0  0  0  0  0
   -4.6143   -1.3124    2.0882 H   0  0  0  0  0  0  0  0  0  0  0  0
   -1.2867    3.6711    2.8550 H   0  0  0  0  0  0  0  0  0  0  0  0
    0.2180    3.7473    3.7993 H   0  0  0  0  0  0  0  0  0  0  0  0
   -0.6524    2.2231    3.6817 H   0  0  0  0  0  0  0  0  0  0  0  0
    1.4799    4.5907    2.1011 H   0  0  0  0  0  0  0  0  0  0  0  0
    0.3758    4.5092    0.7127 H   0  0  0  0  0  0  0  0  0  0  0  0
    1.9190    3.6237    0.7043 H   0  0  0  0  0  0  0  0  0  0  0  0
  1  2  1  0
  2  3  1  0
  3  4  1  0
  4  5  2  0
  5  6  1  0
  6  7  2  0
  7  8  1  0
  7  9  1  0
  9 10  2  0
  2 11  2  0
 11 12  1  0
 12 13  2  3
 13 14  1  0
 14 15  1  0
 15 16  2  0
 16 17  1  0
 17 18  2  0
 18 19  1  0
 19 20  2  0
 12 21  1  0
 21 22  2  0
 22 23  1  0
 23 24  1  0
 23 25  1  0
 22  1  1  0
 10  4  1  0
 20 15  1  0
  1 26  1  0
  3 27  1  0
  5 28  1  0
  6 29  1  0
  8 30  1  0
  8 31  1  0
  8 32  1  0
  9 33  1  0
 10 34  1  0
 14 35  1  0
 14 36  1  0
 16 37  1  0
 17 38  1  0
 19 39  1  0
 20 40  1  0
 24 41  1  0
 24 42  1  0
 24 43  1  0
 25 44  1  0
 25 45  1  0
 25 46  1  0
M  END
>  <ScrubInfo>  (7) 
{"isomerGroup": 0, "isomerId": 6, "confId": 0, "nr_conformers:": 1, "nr_isomers:": 9}

$$$$
_i7
     RDKit          3D

 46 48  0  0  0  0  0  0  0  0999 V2000
   -1.1740    1.7607   -0.5029 N   0  0  0  0  0  0  0  0  0  0  0  0
   -0.3345    2.8243   -0.7033 C   0  0  0  0  0  0  0  0  0  0  0  0
   -0.9881    4.0112   -0.9980 N   0  0  0  0  0  0  0  0  0  0  0  0
   -1.9557    4.5378   -0.0306 C   0  0  0  0  0  0  0  0  0  0  0  0
   -0.1699    5.0736   -1.6001 C   0  0  0  0  0  0  0  0  0  0  0  0
    0.9612    2.7200   -0.6513 N   0  0  0  0  0  0  0  0  0  0  0  0
    1.4566    1.4692   -0.3496 C   0  0  0  0  0  0  0  0  0  0  0  0
    2.7522    1.4160   -0.2925 N   0  0  0  0  0  0  0  0  0  0  0  0
    3.3716    0.1974    0.0052 C   0  0  0  0  0  0  0  0  0  0  0  0
    3.6559   -0.1446    1.3284 C   0  0  0  0  0  0  0  0  0  0  0  0
    4.2607   -1.3675    1.6294 C   0  0  0  0  0  0  0  0  0  0  0  0
    4.6090   -2.2556    0.6047 C   0  0  0  0  0  0  0  0  0  0  0  0
    5.2313   -3.5820    0.9273 C   0  0  0  0  0  0  0  0  0  0  0  0
    4.3280   -1.9083   -0.7221 C   0  0  0  0  0  0  0  0  0  0  0  0
    3.7235   -0.6842   -1.0185 C   0  0  0  0  0  0  0  0  0  0  0  0
    0.5844    0.4299   -0.1448 N   0  0  0  0  0  0  0  0  0  0  0  0
   -0.7740    0.4807   -0.2302 C   0  0  0  0  0  0  0  0  0  0  0  0
   -1.4784   -0.5845   -0.0685 N   0  0  0  0  0  0  0  0  0  0  0  0
   -2.9313   -0.4679   -0.1740 C   0  0  0  0  0  0  0  0  0  0  0  0
   -3.6251   -1.7688    0.1463 C   0  0  0  0  0  0  0  0  0  0  0  0
   -4.6913   -2.2245   -0.6341 C   0  0  0  0  0  0  0  0  0  0  0  0
   -5.3207   -3.4079   -0.2770 C   0  0  0  0  0  0  0  0  0  0  0  0
   -4.9730   -4.1532    0.7931 N   0  0  0  0  0  0  0  0  0  0  0  0
   -3.9433   -3.6954    1.5364 C   0  0  0  0  0  0  0  0  0  0  0  0
   -3.2532   -2.5252    1.2619 C   0  0  0  0  0  0  0  0  0  0  0  0
   -2.1379    1.9199   -0.7381 H   0  0  0  0  0  0  0  0  0  0  0  0
   -2.4980    5.3915   -0.4514 H   0  0  0  0  0  0  0  0  0  0  0  0
   -1.4454    4.8650    0.8817 H   0  0  0  0  0  0  0  0  0  0  0  0
   -2.7045    3.7874    0.2413 H   0  0  0  0  0  0  0  0  0  0  0  0
    0.5187    5.5025   -0.8640 H   0  0  0  0  0  0  0  0  0  0  0  0
   -0.8074    5.8752   -1.9886 H   0  0  0  0  0  0  0  0  0  0  0  0
    0.4079    4.6848   -2.4458 H   0  0  0  0  0  0  0  0  0  0  0  0
    3.4048    0.5482    2.1270 H   0  0  0  0  0  0  0  0  0  0  0  0
    4.4656   -1.6169    2.6680 H   0  0  0  0  0  0  0  0  0  0  0  0
    4.4510   -4.3344    1.0771 H   0  0  0  0  0  0  0  0  0  0  0  0
    5.8906   -3.9116    0.1174 H   0  0  0  0  0  0  0  0  0  0  0  0
    5.8402   -3.5174    1.8352 H   0  0  0  0  0  0  0  0  0  0  0  0
    4.5853   -2.5836   -1.5349 H   0  0  0  0  0  0  0  0  0  0  0  0
    3.5249   -0.4129   -2.0520 H   0  0  0  0  0  0  0  0  0  0  0  0
    0.9788   -0.4782    0.0439 H   0  0  0  0  0  0  0  0  0  0  0  0
   -3.3129    0.2911    0.5207 H   0  0  0  0  0  0  0  0  0  0  0  0
   -3.1948   -0.1605   -1.1938 H   0  0  0  0  0  0  0  0  0  0  0  0
   -5.0292   -1.6777   -1.5076 H   0  0  0  0  0  0  0  0  0  0  0  0
   -6.1491   -3.7982   -0.8612 H   0  0  0  0  0  0  0  0  0  0  0  0
   -3.6770   -4.3127    2.3894 H   0  0  0  0  0  0  0  0  0  0  0  0
   -2.4335   -2.2128    1.9008 H   0  0  0  0  0  0  0  0  0  0  0  0
  1  2  1  0
  2  3  1  0
  3  4  1  0
  3  5  1  0
  2  6  2  0
  6  7  1  0
  7  8  2  3
  8  9  1  0
  9 10  2  0
 10 11  1  0
 11 12  2  0
 12 13  1  0
 12 14  1  0
 14 15  2  0
  7 16  1  0
 16 17  1  0
 17 18  2  3
 18 19  1  0
 19 20  1  0
 20 21  2  0
 21 22  1  0
 22 23  2  0
 23 24  1  0
 24 25  2  0
 17  1  1  0
 25 20  1  0
 15  9  1  0
  1 26  1  0
  4 27  1  0
  4 28  1  0
  4 29  1  0
  5 30  1  0
  5 31  1  0
  5 32  1  0
 10 33  1  0
 11 34  1  0
 13 35  1  0
 13 36  1  0
 13 37  1  0
 14 38  1  0
 15 39  1  0
 16 40  1  0
 19 41  1  0
 19 42  1  0
 21 43  1  0
 22 44  1  0
 24 45  1  0
 25 46  1  0
M  END
>  <ScrubInfo>  (8) 
{"isomerGroup": 0, "isomerId": 7, "confId": 0, "nr_conformers:": 1, "nr_isomers:": 9}

$$$$
_i8
     RDKit          3D

 46 48  0  0  0  0  0  0  0  0999 V2000
   -0.5099    2.7087   -0.0875 N   0  0  0  0  0  0  0  0  0  0  0  0
    0.8375    2.7166    0.1498 C   0  0  0  0  0  0  0  0  0  0  0  0
    1.4100    3.9722    0.2896 N   0  0  0  0  0  0  0  0  0  0  0  0
    2.8008    4.0268    0.7529 C   0  0  0  0  0  0  0  0  0  0  0  0
    1.0781    5.0426   -0.6525 C   0  0  0  0  0  0  0  0  0  0  0  0
    1.5308    1.6152    0.2576 N   0  0  0  0  0  0  0  0  0  0  0  0
    0.8253    0.4441    0.0911 C   0  0  0  0  0  0  0  0  0  0  0  0
    1.4233   -0.6995    0.1656 N   0  0  0  0  0  0  0  0  0  0  0  0
    2.8596   -0.6677    0.4314 C   0  0  0  0  0  0  0  0  0  0  0  0
    3.4133   -2.0701    0.4927 C   0  0  0  0  0  0  0  0  0  0  0  0
    3.8551   -2.7151   -0.6651 C   0  0  0  0  0  0  0  0  0  0  0  0
    4.3371   -4.0107   -0.5611 C   0  0  0  0  0  0  0  0  0  0  0  0
    4.4030   -4.7001    0.5983 N   0  0  0  0  0  0  0  0  0  0  0  0
    3.9503   -4.0653    1.7011 C   0  0  0  0  0  0  0  0  0  0  0  0
    3.4507   -2.7722    1.6999 C   0  0  0  0  0  0  0  0  0  0  0  0
   -0.5161    0.4754   -0.1528 N   0  0  0  0  0  0  0  0  0  0  0  0
   -1.2910    1.5965   -0.2307 C   0  0  0  0  0  0  0  0  0  0  0  0
   -2.5733    1.7020   -0.3997 N   0  0  0  0  0  0  0  0  0  0  0  0
   -3.3202    0.5242   -0.5330 C   0  0  0  0  0  0  0  0  0  0  0  0
   -3.8634   -0.0979    0.5924 C   0  0  0  0  0  0  0  0  0  0  0  0
   -4.5992   -1.2783    0.4627 C   0  0  0  0  0  0  0  0  0  0  0  0
   -4.8008   -1.8515   -0.7985 C   0  0  0  0  0  0  0  0  0  0  0  0
   -5.6199   -3.1000   -0.9434 C   0  0  0  0  0  0  0  0  0  0  0  0
   -4.2827   -1.2083   -1.9289 C   0  0  0  0  0  0  0  0  0  0  0  0
   -3.5473   -0.0280   -1.7947 C   0  0  0  0  0  0  0  0  0  0  0  0
   -1.0210    3.5707    0.0043 H   0  0  0  0  0  0  0  0  0  0  0  0
    2.9451    3.3883    1.6315 H   0  0  0  0  0  0  0  0  0  0  0  0
    3.0711    5.0449    1.0533 H   0  0  0  0  0  0  0  0  0  0  0  0
    3.4856    3.7042   -0.0387 H   0  0  0  0  0  0  0  0  0  0  0  0
    1.4110    4.7775   -1.6616 H   0  0  0  0  0  0  0  0  0  0  0  0
    1.5619    5.9832   -0.3672 H   0  0  0  0  0  0  0  0  0  0  0  0
    0.0028    5.2416   -0.6784 H   0  0  0  0  0  0  0  0  0  0  0  0
    3.0722   -0.1663    1.3849 H   0  0  0  0  0  0  0  0  0  0  0  0
    3.3929   -0.1165   -0.3544 H   0  0  0  0  0  0  0  0  0  0  0  0
    3.8171   -2.2216   -1.6301 H   0  0  0  0  0  0  0  0  0  0  0  0
    4.6909   -4.5456   -1.4374 H   0  0  0  0  0  0  0  0  0  0  0  0
    3.9974   -4.6435    2.6191 H   0  0  0  0  0  0  0  0  0  0  0  0
    3.0907   -2.3244    2.6197 H   0  0  0  0  0  0  0  0  0  0  0  0
   -0.9542   -0.4289   -0.2355 H   0  0  0  0  0  0  0  0  0  0  0  0
   -3.7143    0.3415    1.5749 H   0  0  0  0  0  0  0  0  0  0  0  0
   -5.0166   -1.7445    1.3524 H   0  0  0  0  0  0  0  0  0  0  0  0
   -5.5188   -3.7380   -0.0591 H   0  0  0  0  0  0  0  0  0  0  0  0
   -6.6751   -2.8420   -1.0753 H   0  0  0  0  0  0  0  0  0  0  0  0
   -5.2879   -3.6867   -1.8064 H   0  0  0  0  0  0  0  0  0  0  0  0
   -4.4509   -1.6194   -2.9217 H   0  0  0  0  0  0  0  0  0  0  0  0
   -3.1513    0.4660   -2.6777 H   0  0  0  0  0  0  0  0  0  0  0  0
  1  2  1  0
  2  3  1  0
  3  4  1  0
  3  5  1  0
  2  6  2  0
  6  7  1  0
  7  8  2  3
  8  9  1  0
  9 10  1  0
 10 11  2  0
 11 12  1  0
 12 13  2  0
 13 14  1  0
 14 15  2  0
  7 16  1  0
 16 17  1  0
 17 18  2  3
 18 19  1  0
 19 20  2  0
 20 21  1  0
 21 22  2  0
 22 23  1  0
 22 24  1  0
 24 25  2  0
 17  1  1  0
 25 19  1  0
 15 10  1  0
  1 26  1  0
  4 27  1  0
  4 28  1  0
  4 29  1  0
  5 30  1  0
  5 31  1  0
  5 32  1  0
  9 33  1  0
  9 34  1  0
 11 35  1  0
 12 36  1  0
 14 37  1  0
 15 38  1  0
 16 39  1  0
 20 40  1  0
 21 41  1  0
 23 42  1  0
 23 43  1  0
 23 44  1  0
 24 45  1  0
 25 46  1  0
M  END
>  <ScrubInfo>  (9) 
{"isomerGroup": 0, "isomerId": 8, "confId": 0, "nr_conformers:": 1, "nr_isomers:": 9}

$$$$
