REMARK SMILES Cc1ccc(Nc2nc(NCc3ccncc3)nc(N(C)C)n2)cc1
REMARK SMILES IDX 7 1 8 2 9 3 18 4 19 5 23 6 6 7 5 9 2 10 3 11 25 12 4 13
REMARK SMILES IDX 24 14 1 15 10 16 11 18 12 19 13 20 17 21 14 22 16 23 15 24
REMARK SMILES IDX 20 25 21 26 22 27
REMARK H PARENT 6 8 10 17
ROOT
ATOM      1  C   UNL     1      -1.073  -1.378   0.071  1.00  0.00     0.233 A 
ATOM      2  N   UNL     1      -0.123  -0.513  -0.250  1.00  0.00    -0.177 NA
ATOM      3  C   UNL     1       1.067  -1.030  -0.504  1.00  0.00     0.229 A 
ATOM      4  N   UNL     1       1.349  -2.320  -0.434  1.00  0.00    -0.177 NA
ATOM      5  C   UNL     1       0.353  -3.132  -0.098  1.00  0.00     0.231 A 
ATOM      6  N   UNL     1      -0.872  -2.687   0.167  1.00  0.00    -0.176 NA
ENDROOT
BRANCH   1   7
ATOM      7  N   UNL     1      -2.370  -0.963   0.371  1.00  0.00    -0.324 N 
ATOM      8  H   UNL     1      -2.937  -1.774   0.571  1.00  0.00     0.170 HD
BRANCH   7   9
ATOM      9  C   UNL     1      -3.043   0.261   0.281  1.00  0.00     0.041 A 
ATOM     10  C   UNL     1      -4.500   2.698   0.226  1.00  0.00    -0.051 A 
ATOM     11  C   UNL     1      -3.188   2.637  -0.251  1.00  0.00     0.005 A 
ATOM     12  C   UNL     1      -5.073   1.541   0.757  1.00  0.00     0.005 A 
ATOM     13  C   UNL     1      -2.473   1.433  -0.221  1.00  0.00     0.026 A 
ATOM     14  C   UNL     1      -4.352   0.342   0.782  1.00  0.00     0.026 A 
ATOM     15  C   UNL     1      -5.253   3.994   0.225  1.00  0.00     0.044 C 
ENDBRANCH   7   9
ENDBRANCH   1   7
BRANCH   3  16
ATOM     16  N   UNL     1       2.124  -0.202  -0.862  1.00  0.00    -0.350 N 
ATOM     17  H   UNL     1       2.974  -0.737  -0.722  1.00  0.00     0.164 HD
BRANCH  16  18
ATOM     18  C   UNL     1       2.104   1.098  -0.225  1.00  0.00     0.152 C 
BRANCH  18  19
ATOM     19  C   UNL     1       3.382   1.829  -0.555  1.00  0.00    -0.026 A 
ATOM     20  C   UNL     1       4.315   2.139   0.438  1.00  0.00     0.025 A 
ATOM     21  C   UNL     1       3.663   2.209  -1.872  1.00  0.00     0.025 A 
ATOM     22  C   UNL     1       5.473   2.811   0.075  1.00  0.00     0.111 A 
ATOM     23  C   UNL     1       4.849   2.875  -2.135  1.00  0.00     0.111 A 
ATOM     24  N   UNL     1       5.760   3.187  -1.189  1.00  0.00    -0.265 NA
ENDBRANCH  18  19
ENDBRANCH  16  18
ENDBRANCH   3  16
BRANCH   5  25
ATOM     25  N   UNL     1       0.594  -4.507  -0.041  1.00  0.00    -0.347 N 
ATOM     26  C   UNL     1      -0.349  -5.263   0.767  1.00  0.00     0.146 C 
ATOM     27  C   UNL     1       1.996  -4.882   0.061  1.00  0.00     0.146 C 
ENDBRANCH   5  25
TORSDOF 6
