_i0
     RDKit          3D

 45 47  0  0  0  0  0  0  0  0999 V2000
   -5.8792   -1.1643   -0.8522 C   0  0  0  0  0  0  0  0  0  0  0  0
   -4.8045   -2.1293   -0.3769 C   0  0  0  0  0  0  0  0  0  0  0  0
   -3.4068   -1.7963   -0.9040 C   0  0  0  0  0  0  0  0  0  0  0  0
   -2.8630   -0.4157   -0.5238 C   0  0  0  0  0  0  0  0  0  0  0  0
   -2.7380   -0.2075    0.9881 C   0  0  0  0  0  0  0  0  0  0  0  0
   -2.1631    1.0896    1.3012 N   0  0  0  0  0  0  0  0  0  0  0  0
   -0.8046    1.2544    1.0836 C   0  0  0  0  0  0  0  0  0  0  0  0
    0.0244    0.2017    1.2202 N   0  0  0  0  0  0  0  0  0  0  0  0
    1.3536    0.3394    0.9891 C   0  0  0  0  0  0  0  0  0  0  0  0
    2.1406   -0.8028    1.1643 N   0  0  0  0  0  0  0  0  0  0  0  0
    3.1528   -1.3604    0.3566 C   0  0  0  0  0  0  0  0  0  0  0  0
    3.5387   -0.8374   -0.8807 C   0  0  0  0  0  0  0  0  0  0  0  0
    4.5841   -1.4227   -1.5962 C   0  0  0  0  0  0  0  0  0  0  0  0
    4.9299   -0.9119   -2.7851 F   0  0  0  0  0  0  0  0  0  0  0  0
    5.2722   -2.5265   -1.1048 C   0  0  0  0  0  0  0  0  0  0  0  0
    4.9059   -3.0615    0.1256 C   0  0  0  0  0  0  0  0  0  0  0  0
    3.8602   -2.4779    0.8399 C   0  0  0  0  0  0  0  0  0  0  0  0
    3.5179   -3.0118    2.0232 F   0  0  0  0  0  0  0  0  0  0  0  0
    1.8278    1.6149    0.6763 C   0  0  0  0  0  0  0  0  0  0  0  0
    3.0590    2.2666    0.4556 C   0  0  0  0  0  0  0  0  0  0  0  0
    2.9184    3.5686    0.1811 N   0  0  0  0  0  0  0  0  0  0  0  0
    1.5808    3.7574    0.2613 N   0  0  0  0  0  0  0  0  0  0  0  0
    1.0371    5.0749    0.0485 C   0  0  0  0  0  0  0  0  0  0  0  0
    0.8860    2.6192    0.5674 C   0  0  0  0  0  0  0  0  0  0  0  0
   -0.4383    2.4955    0.7403 N   0  0  0  0  0  0  0  0  0  0  0  0
   -6.8655   -1.5115   -0.5281 H   0  0  0  0  0  0  0  0  0  0  0  0
   -5.8877   -1.0922   -1.9443 H   0  0  0  0  0  0  0  0  0  0  0  0
   -5.7293   -0.1624   -0.4394 H   0  0  0  0  0  0  0  0  0  0  0  0
   -5.0681   -3.1383   -0.7165 H   0  0  0  0  0  0  0  0  0  0  0  0
   -4.8018   -2.1647    0.7179 H   0  0  0  0  0  0  0  0  0  0  0  0
   -2.7088   -2.5632   -0.5455 H   0  0  0  0  0  0  0  0  0  0  0  0
   -3.4137   -1.8750   -1.9984 H   0  0  0  0  0  0  0  0  0  0  0  0
   -3.4917    0.3714   -0.9570 H   0  0  0  0  0  0  0  0  0  0  0  0
   -1.8787   -0.3039   -0.9957 H   0  0  0  0  0  0  0  0  0  0  0  0
   -2.1726   -1.0236    1.4542 H   0  0  0  0  0  0  0  0  0  0  0  0
   -3.7354   -0.2320    1.4405 H   0  0  0  0  0  0  0  0  0  0  0  0
   -2.6331    1.8923    0.8993 H   0  0  0  0  0  0  0  0  0  0  0  0
    1.5847   -1.5213    1.6246 H   0  0  0  0  0  0  0  0  0  0  0  0
    3.0270    0.0052   -1.3323 H   0  0  0  0  0  0  0  0  0  0  0  0
    6.0818   -2.9596   -1.6838 H   0  0  0  0  0  0  0  0  0  0  0  0
    5.4224   -3.9234    0.5358 H   0  0  0  0  0  0  0  0  0  0  0  0
    4.0557    1.8452    0.4840 H   0  0  0  0  0  0  0  0  0  0  0  0
    1.3584    5.4255   -0.9356 H   0  0  0  0  0  0  0  0  0  0  0  0
   -0.0539    5.0411    0.0892 H   0  0  0  0  0  0  0  0  0  0  0  0
    1.4185    5.7340    0.8324 H   0  0  0  0  0  0  0  0  0  0  0  0
  1  2  1  0
  2  3  1  0
  3  4  1  0
  4  5  1  0
  5  6  1  0
  6  7  1  0
  7  8  2  0
  8  9  1  0
  9 10  1  0
 10 11  1  0
 11 12  2  0
 12 13  1  0
 13 14  1  0
 13 15  2  0
 15 16  1  0
 16 17  2  0
 17 18  1  0
  9 19  2  0
 19 20  1  0
 20 21  2  0
 21 22  1  0
 22 23  1  0
 22 24  1  0
 24 25  2  0
 25  7  1  0
 17 11  1  0
 24 19  1  0
  1 26  1  0
  1 27  1  0
  1 28  1  0
  2 29  1  0
  2 30  1  0
  3 31  1  0
  3 32  1  0
  4 33  1  0
  4 34  1  0
  5 35  1  0
  5 36  1  0
  6 37  1  0
 10 38  1  0
 12 39  1  0
 15 40  1  0
 16 41  1  0
 20 42  1  0
 23 43  1  0
 23 44  1  0
 23 45  1  0
M  END
>  <ScrubInfo>  (1) 
{"isomerGroup": 0, "isomerId": 0, "confId": 0, "nr_conformers:": 1, "nr_isomers:": 9}

$$$$
_i1
     RDKit          3D

 45 47  0  0  0  0  0  0  0  0999 V2000
    0.4667   -1.0118   -1.2484 N   0  0  0  0  0  0  0  0  0  0  0  0
    1.6458   -0.3649   -0.9380 C   0  0  0  0  0  0  0  0  0  0  0  0
    2.8166   -1.0793   -0.7615 N   0  0  0  0  0  0  0  0  0  0  0  0
    3.7018   -1.0208    0.3440 C   0  0  0  0  0  0  0  0  0  0  0  0
    4.9444   -1.6607    0.2137 C   0  0  0  0  0  0  0  0  0  0  0  0
    5.8800   -1.6114    1.2459 C   0  0  0  0  0  0  0  0  0  0  0  0
    7.0570   -2.2317    1.0942 F   0  0  0  0  0  0  0  0  0  0  0  0
    5.6157   -0.9276    2.4253 C   0  0  0  0  0  0  0  0  0  0  0  0
    4.3925   -0.2809    2.5739 C   0  0  0  0  0  0  0  0  0  0  0  0
    3.4524   -0.3275    1.5421 C   0  0  0  0  0  0  0  0  0  0  0  0
    2.2804    0.2898    1.7481 F   0  0  0  0  0  0  0  0  0  0  0  0
    1.5680    0.9721   -0.9194 C   0  0  0  0  0  0  0  0  0  0  0  0
    2.4737    2.1138   -0.7527 C   0  0  0  0  0  0  0  0  0  0  0  0
    1.8706    3.2705   -0.8734 N   0  0  0  0  0  0  0  0  0  0  0  0
    0.5150    2.9643   -1.0785 N   0  0  0  0  0  0  0  0  0  0  0  0
   -0.3719    4.0001   -1.5483 C   0  0  0  0  0  0  0  0  0  0  0  0
    0.2568    1.6064   -1.1766 C   0  0  0  0  0  0  0  0  0  0  0  0
   -0.8405    0.9828   -1.4437 N   0  0  0  0  0  0  0  0  0  0  0  0
   -0.7387   -0.3896   -1.4537 C   0  0  0  0  0  0  0  0  0  0  0  0
   -1.7789   -1.1306   -1.6466 N   0  0  0  0  0  0  0  0  0  0  0  0
   -3.0725   -0.4821   -1.8684 C   0  0  0  0  0  0  0  0  0  0  0  0
   -3.7843   -0.2193   -0.5401 C   0  0  0  0  0  0  0  0  0  0  0  0
   -4.1207   -1.5125    0.2098 C   0  0  0  0  0  0  0  0  0  0  0  0
   -4.9575   -1.2792    1.4699 C   0  0  0  0  0  0  0  0  0  0  0  0
   -4.2218   -0.5028    2.5512 C   0  0  0  0  0  0  0  0  0  0  0  0
    0.4262   -2.0166   -1.1874 H   0  0  0  0  0  0  0  0  0  0  0  0
    2.7562   -2.0247   -1.1305 H   0  0  0  0  0  0  0  0  0  0  0  0
    5.2058   -2.1933   -0.6963 H   0  0  0  0  0  0  0  0  0  0  0  0
    6.3599   -0.9031    3.2152 H   0  0  0  0  0  0  0  0  0  0  0  0
    4.1571    0.2582    3.4869 H   0  0  0  0  0  0  0  0  0  0  0  0
    3.5466    1.9685   -0.5756 H   0  0  0  0  0  0  0  0  0  0  0  0
   -0.1086    4.9663   -1.1059 H   0  0  0  0  0  0  0  0  0  0  0  0
   -1.4088    3.7799   -1.2748 H   0  0  0  0  0  0  0  0  0  0  0  0
   -0.3102    4.0894   -2.6373 H   0  0  0  0  0  0  0  0  0  0  0  0
   -2.9821    0.4474   -2.4433 H   0  0  0  0  0  0  0  0  0  0  0  0
   -3.6841   -1.1495   -2.4870 H   0  0  0  0  0  0  0  0  0  0  0  0
   -3.1614    0.4262    0.0885 H   0  0  0  0  0  0  0  0  0  0  0  0
   -4.7114    0.3291   -0.7457 H   0  0  0  0  0  0  0  0  0  0  0  0
   -3.1993   -2.0420    0.4800 H   0  0  0  0  0  0  0  0  0  0  0  0
   -4.6838   -2.1770   -0.4571 H   0  0  0  0  0  0  0  0  0  0  0  0
   -5.8850   -0.7553    1.2111 H   0  0  0  0  0  0  0  0  0  0  0  0
   -5.2482   -2.2544    1.8785 H   0  0  0  0  0  0  0  0  0  0  0  0
   -4.8319   -0.4538    3.4589 H   0  0  0  0  0  0  0  0  0  0  0  0
   -4.0138    0.5241    2.2371 H   0  0  0  0  0  0  0  0  0  0  0  0
   -3.2735   -0.9863    2.8063 H   0  0  0  0  0  0  0  0  0  0  0  0
  1  2  1  0
  2  3  1  0
  3  4  1  0
  4  5  2  0
  5  6  1  0
  6  7  1  0
  6  8  2  0
  8  9  1  0
  9 10  2  0
 10 11  1  0
  2 12  2  0
 12 13  1  0
 13 14  2  0
 14 15  1  0
 15 16  1  0
 15 17  1  0
 17 18  2  0
 18 19  1  0
 19 20  2  3
 20 21  1  0
 21 22  1  0
 22 23  1  0
 23 24  1  0
 24 25  1  0
 19  1  1  0
 10  4  1  0
 17 12  1  0
  1 26  1  0
  3 27  1  0
  5 28  1  0
  8 29  1  0
  9 30  1  0
 13 31  1  0
 16 32  1  0
 16 33  1  0
 16 34  1  0
 21 35  1  0
 21 36  1  0
 22 37  1  0
 22 38  1  0
 23 39  1  0
 23 40  1  0
 24 41  1  0
 24 42  1  0
 25 43  1  0
 25 44  1  0
 25 45  1  0
M  END
>  <ScrubInfo>  (2) 
{"isomerGroup": 0, "isomerId": 1, "confId": 0, "nr_conformers:": 1, "nr_isomers:": 9}

$$$$
_i2
     RDKit          3D

 45 47  0  0  0  0  0  0  0  0999 V2000
    1.0280   -0.2253    0.3150 N   0  0  0  0  0  0  0  0  0  0  0  0
   -0.0371   -0.9795    0.7528 C   0  0  0  0  0  0  0  0  0  0  0  0
   -0.9932   -0.3163    1.4690 N   0  0  0  0  0  0  0  0  0  0  0  0
   -1.5410    0.9798    1.0999 C   0  0  0  0  0  0  0  0  0  0  0  0
   -2.2807    0.9383   -0.2389 C   0  0  0  0  0  0  0  0  0  0  0  0
   -3.4700   -0.0278   -0.3029 C   0  0  0  0  0  0  0  0  0  0  0  0
   -4.5623    0.1931    0.7458 C   0  0  0  0  0  0  0  0  0  0  0  0
   -5.2047    1.5694    0.6726 C   0  0  0  0  0  0  0  0  0  0  0  0
   -0.1795   -2.2633    0.5308 N   0  0  0  0  0  0  0  0  0  0  0  0
    0.8586   -2.7578   -0.2001 C   0  0  0  0  0  0  0  0  0  0  0  0
    1.9641   -2.0800   -0.6753 C   0  0  0  0  0  0  0  0  0  0  0  0
    2.7221   -3.0412   -1.3582 C   0  0  0  0  0  0  0  0  0  0  0  0
    2.1477   -4.2514   -1.3335 N   0  0  0  0  0  0  0  0  0  0  0  0
    1.0144   -4.0513   -0.6149 N   0  0  0  0  0  0  0  0  0  0  0  0
    0.1287   -5.1611   -0.3702 C   0  0  0  0  0  0  0  0  0  0  0  0
    2.1169   -0.6720   -0.4032 C   0  0  0  0  0  0  0  0  0  0  0  0
    3.1749   -0.0793   -0.8441 N   0  0  0  0  0  0  0  0  0  0  0  0
    3.3636    1.2939   -0.6175 C   0  0  0  0  0  0  0  0  0  0  0  0
    3.5189    2.1315   -1.7239 C   0  0  0  0  0  0  0  0  0  0  0  0
    3.7499    3.4924   -1.5419 C   0  0  0  0  0  0  0  0  0  0  0  0
    3.8875    4.2857   -2.6119 F   0  0  0  0  0  0  0  0  0  0  0  0
    3.8412    4.0453   -0.2682 C   0  0  0  0  0  0  0  0  0  0  0  0
    3.7020    3.2208    0.8456 C   0  0  0  0  0  0  0  0  0  0  0  0
    3.4717    1.8576    0.6641 C   0  0  0  0  0  0  0  0  0  0  0  0
    3.3174    1.0867    1.7510 F   0  0  0  0  0  0  0  0  0  0  0  0
    1.1209    0.6811    0.7378 H   0  0  0  0  0  0  0  0  0  0  0  0
   -1.7229   -0.9754    1.7338 H   0  0  0  0  0  0  0  0  0  0  0  0
   -2.2132    1.3148    1.8968 H   0  0  0  0  0  0  0  0  0  0  0  0
   -0.7414    1.7274    1.0502 H   0  0  0  0  0  0  0  0  0  0  0  0
   -1.5769    0.6636   -1.0348 H   0  0  0  0  0  0  0  0  0  0  0  0
   -2.6235    1.9516   -0.4795 H   0  0  0  0  0  0  0  0  0  0  0  0
   -3.9189    0.0481   -1.3015 H   0  0  0  0  0  0  0  0  0  0  0  0
   -3.1064   -1.0586   -0.2149 H   0  0  0  0  0  0  0  0  0  0  0  0
   -5.3423   -0.5629    0.5938 H   0  0  0  0  0  0  0  0  0  0  0  0
   -4.1652    0.0266    1.7529 H   0  0  0  0  0  0  0  0  0  0  0  0
   -5.5944    1.7683   -0.3307 H   0  0  0  0  0  0  0  0  0  0  0  0
   -4.4927    2.3588    0.9308 H   0  0  0  0  0  0  0  0  0  0  0  0
   -6.0391    1.6323    1.3785 H   0  0  0  0  0  0  0  0  0  0  0  0
    3.6658   -2.9129   -1.8721 H   0  0  0  0  0  0  0  0  0  0  0  0
    0.6819   -5.9280    0.1778 H   0  0  0  0  0  0  0  0  0  0  0  0
   -0.2096   -5.5498   -1.3341 H   0  0  0  0  0  0  0  0  0  0  0  0
   -0.7310   -4.8338    0.2186 H   0  0  0  0  0  0  0  0  0  0  0  0
    3.4672    1.7259   -2.7296 H   0  0  0  0  0  0  0  0  0  0  0  0
    4.0264    5.1092   -0.1554 H   0  0  0  0  0  0  0  0  0  0  0  0
    3.7764    3.6253    1.8503 H   0  0  0  0  0  0  0  0  0  0  0  0
  1  2  1  0
  2  3  1  0
  3  4  1  0
  4  5  1  0
  5  6  1  0
  6  7  1  0
  7  8  1  0
  2  9  2  0
  9 10  1  0
 10 11  2  0
 11 12  1  0
 12 13  2  0
 13 14  1  0
 14 15  1  0
 11 16  1  0
 16 17  2  3
 17 18  1  0
 18 19  2  0
 19 20  1  0
 20 21  1  0
 20 22  2  0
 22 23  1  0
 23 24  2  0
 24 25  1  0
 16  1  1  0
 24 18  1  0
 14 10  1  0
  1 26  1  0
  3 27  1  0
  4 28  1  0
  4 29  1  0
  5 30  1  0
  5 31  1  0
  6 32  1  0
  6 33  1  0
  7 34  1  0
  7 35  1  0
  8 36  1  0
  8 37  1  0
  8 38  1  0
 12 39  1  0
 15 40  1  0
 15 41  1  0
 15 42  1  0
 19 43  1  0
 22 44  1  0
 23 45  1  0
M  END
>  <ScrubInfo>  (3) 
{"isomerGroup": 0, "isomerId": 2, "confId": 0, "nr_conformers:": 1, "nr_isomers:": 9}

$$$$
_i3
     RDKit          3D

 45 47  0  0  0  0  0  0  0  0999 V2000
    0.0732    1.7292   -0.0547 N   0  0  0  0  0  0  0  0  0  0  0  0
    0.5664    0.4334   -0.0279 C   0  0  0  0  0  0  0  0  0  0  0  0
    1.7606    0.0824    0.2962 N   0  0  0  0  0  0  0  0  0  0  0  0
    2.7278    1.0998    0.6811 C   0  0  0  0  0  0  0  0  0  0  0  0
    4.0613    0.4254    1.0098 C   0  0  0  0  0  0  0  0  0  0  0  0
    4.7173   -0.2028   -0.2244 C   0  0  0  0  0  0  0  0  0  0  0  0
    6.1182   -0.7542    0.0510 C   0  0  0  0  0  0  0  0  0  0  0  0
    6.1284   -1.9310    1.0144 C   0  0  0  0  0  0  0  0  0  0  0  0
   -0.2340   -0.6472   -0.3717 N   0  0  0  0  0  0  0  0  0  0  0  0
   -1.4782   -0.4486   -0.7021 C   0  0  0  0  0  0  0  0  0  0  0  0
   -2.3154   -1.4736   -1.0688 N   0  0  0  0  0  0  0  0  0  0  0  0
   -3.5318   -1.7755   -0.3951 C   0  0  0  0  0  0  0  0  0  0  0  0
   -4.4667   -2.5793   -1.0618 C   0  0  0  0  0  0  0  0  0  0  0  0
   -5.6552   -2.9428   -0.4321 C   0  0  0  0  0  0  0  0  0  0  0  0
   -6.5429   -3.6982   -1.0912 F   0  0  0  0  0  0  0  0  0  0  0  0
   -5.9346   -2.5395    0.8685 C   0  0  0  0  0  0  0  0  0  0  0  0
   -5.0035   -1.7655    1.5563 C   0  0  0  0  0  0  0  0  0  0  0  0
   -3.8119   -1.3986    0.9301 C   0  0  0  0  0  0  0  0  0  0  0  0
   -2.9258   -0.6849    1.6390 F   0  0  0  0  0  0  0  0  0  0  0  0
   -2.0199    0.8873   -0.7776 C   0  0  0  0  0  0  0  0  0  0  0  0
   -3.2250    1.5038   -1.1445 C   0  0  0  0  0  0  0  0  0  0  0  0
   -3.1717    2.8401   -1.0239 N   0  0  0  0  0  0  0  0  0  0  0  0
   -1.9123    3.0749   -0.5787 N   0  0  0  0  0  0  0  0  0  0  0  0
   -1.4978    4.4331   -0.3365 C   0  0  0  0  0  0  0  0  0  0  0  0
   -1.2001    1.9268   -0.4370 C   0  0  0  0  0  0  0  0  0  0  0  0
    0.7054    2.4712    0.2018 H   0  0  0  0  0  0  0  0  0  0  0  0
    2.8744    1.8296   -0.1240 H   0  0  0  0  0  0  0  0  0  0  0  0
    2.3802    1.6318    1.5747 H   0  0  0  0  0  0  0  0  0  0  0  0
    3.8992   -0.3378    1.7796 H   0  0  0  0  0  0  0  0  0  0  0  0
    4.7375    1.1773    1.4339 H   0  0  0  0  0  0  0  0  0  0  0  0
    4.7975    0.5562   -1.0125 H   0  0  0  0  0  0  0  0  0  0  0  0
    4.0831   -1.0044   -0.6213 H   0  0  0  0  0  0  0  0  0  0  0  0
    6.7633    0.0419    0.4404 H   0  0  0  0  0  0  0  0  0  0  0  0
    6.5561   -1.0795   -0.9003 H   0  0  0  0  0  0  0  0  0  0  0  0
    7.1403   -2.3407    1.0956 H   0  0  0  0  0  0  0  0  0  0  0  0
    5.4665   -2.7301    0.6661 H   0  0  0  0  0  0  0  0  0  0  0  0
    5.8119   -1.6311    2.0176 H   0  0  0  0  0  0  0  0  0  0  0  0
   -1.7584   -2.3278   -1.0878 H   0  0  0  0  0  0  0  0  0  0  0  0
   -4.2868   -2.9164   -2.0787 H   0  0  0  0  0  0  0  0  0  0  0  0
   -6.8671   -2.8375    1.3377 H   0  0  0  0  0  0  0  0  0  0  0  0
   -5.1895   -1.4504    2.5787 H   0  0  0  0  0  0  0  0  0  0  0  0
   -4.1413    1.0485   -1.4964 H   0  0  0  0  0  0  0  0  0  0  0  0
   -2.2021    4.8902    0.3632 H   0  0  0  0  0  0  0  0  0  0  0  0
   -1.5029    4.9686   -1.2891 H   0  0  0  0  0  0  0  0  0  0  0  0
   -0.4936    4.4454    0.0922 H   0  0  0  0  0  0  0  0  0  0  0  0
  1  2  1  0
  2  3  2  3
  3  4  1  0
  4  5  1  0
  5  6  1  0
  6  7  1  0
  7  8  1  0
  2  9  1  0
  9 10  2  0
 10 11  1  0
 11 12  1  0
 12 13  2  0
 13 14  1  0
 14 15  1  0
 14 16  2  0
 16 17  1  0
 17 18  2  0
 18 19  1  0
 10 20  1  0
 20 21  1  0
 21 22  2  0
 22 23  1  0
 23 24  1  0
 23 25  1  0
 25  1  1  0
 18 12  1  0
 25 20  2  0
  1 26  1  0
  4 27  1  0
  4 28  1  0
  5 29  1  0
  5 30  1  0
  6 31  1  0
  6 32  1  0
  7 33  1  0
  7 34  1  0
  8 35  1  0
  8 36  1  0
  8 37  1  0
 11 38  1  0
 13 39  1  0
 16 40  1  0
 17 41  1  0
 21 42  1  0
 24 43  1  0
 24 44  1  0
 24 45  1  0
M  END
>  <ScrubInfo>  (4) 
{"isomerGroup": 0, "isomerId": 3, "confId": 0, "nr_conformers:": 1, "nr_isomers:": 9}

$$$$
_i4
     RDKit          3D

 45 47  0  0  0  0  0  0  0  0999 V2000
   -3.3319    2.5997    0.2422 N   0  0  0  0  0  0  0  0  0  0  0  0
   -2.9584    1.3696   -0.2894 C   0  0  0  0  0  0  0  0  0  0  0  0
   -1.6365    1.1439   -0.2397 C   0  0  0  0  0  0  0  0  0  0  0  0
   -0.6721    0.1246   -0.6312 C   0  0  0  0  0  0  0  0  0  0  0  0
   -0.8430   -1.0602   -1.1154 N   0  0  0  0  0  0  0  0  0  0  0  0
   -2.1241   -1.5912   -1.3028 C   0  0  0  0  0  0  0  0  0  0  0  0
   -2.6474   -1.6704   -2.5947 C   0  0  0  0  0  0  0  0  0  0  0  0
   -3.9023   -2.2362   -2.8002 C   0  0  0  0  0  0  0  0  0  0  0  0
   -4.4018   -2.2975   -4.0412 F   0  0  0  0  0  0  0  0  0  0  0  0
   -4.6501   -2.7408   -1.7398 C   0  0  0  0  0  0  0  0  0  0  0  0
   -4.1310   -2.6839   -0.4481 C   0  0  0  0  0  0  0  0  0  0  0  0
   -2.8739   -2.1181   -0.2392 C   0  0  0  0  0  0  0  0  0  0  0  0
   -2.3978   -2.0604    1.0136 F   0  0  0  0  0  0  0  0  0  0  0  0
    0.6311    0.5041   -0.4597 N   0  0  0  0  0  0  0  0  0  0  0  0
    0.9856    1.6214    0.0962 C   0  0  0  0  0  0  0  0  0  0  0  0
    2.3053    1.9367    0.2506 N   0  0  0  0  0  0  0  0  0  0  0  0
    3.3646    0.9497    0.2007 C   0  0  0  0  0  0  0  0  0  0  0  0
    3.4118    0.1478    1.5015 C   0  0  0  0  0  0  0  0  0  0  0  0
    4.5687   -0.8535    1.5576 C   0  0  0  0  0  0  0  0  0  0  0  0
    4.5613   -1.9351    0.4742 C   0  0  0  0  0  0  0  0  0  0  0  0
    3.3029   -2.7891    0.4735 C   0  0  0  0  0  0  0  0  0  0  0  0
    0.1273    2.5721    0.5785 N   0  0  0  0  0  0  0  0  0  0  0  0
   -1.1332    2.3606    0.4259 C   0  0  0  0  0  0  0  0  0  0  0  0
   -2.2018    3.1746    0.8063 N   0  0  0  0  0  0  0  0  0  0  0  0
   -2.0727    4.6196    0.8054 C   0  0  0  0  0  0  0  0  0  0  0  0
   -4.1565    2.5470    0.8449 H   0  0  0  0  0  0  0  0  0  0  0  0
   -3.7344    0.7288   -0.6794 H   0  0  0  0  0  0  0  0  0  0  0  0
   -2.0769   -1.3003   -3.4407 H   0  0  0  0  0  0  0  0  0  0  0  0
   -5.6242   -3.1810   -1.9300 H   0  0  0  0  0  0  0  0  0  0  0  0
   -4.6886   -3.0789    0.3952 H   0  0  0  0  0  0  0  0  0  0  0  0
    2.4445    2.7051    0.8938 H   0  0  0  0  0  0  0  0  0  0  0  0
    3.2326    0.2967   -0.6684 H   0  0  0  0  0  0  0  0  0  0  0  0
    4.3163    1.4741    0.0589 H   0  0  0  0  0  0  0  0  0  0  0  0
    3.5184    0.8422    2.3452 H   0  0  0  0  0  0  0  0  0  0  0  0
    2.4604   -0.3719    1.6638 H   0  0  0  0  0  0  0  0  0  0  0  0
    5.5176   -0.3063    1.4966 H   0  0  0  0  0  0  0  0  0  0  0  0
    4.5567   -1.3393    2.5414 H   0  0  0  0  0  0  0  0  0  0  0  0
    5.4265   -2.5894    0.6366 H   0  0  0  0  0  0  0  0  0  0  0  0
    4.6982   -1.4852   -0.5151 H   0  0  0  0  0  0  0  0  0  0  0  0
    3.4041   -3.6059   -0.2483 H   0  0  0  0  0  0  0  0  0  0  0  0
    3.1255   -3.2287    1.4600 H   0  0  0  0  0  0  0  0  0  0  0  0
    2.4221   -2.2054    0.1899 H   0  0  0  0  0  0  0  0  0  0  0  0
   -1.9141    4.9959   -0.2107 H   0  0  0  0  0  0  0  0  0  0  0  0
   -1.2301    4.9316    1.4307 H   0  0  0  0  0  0  0  0  0  0  0  0
   -2.9783    5.0827    1.2105 H   0  0  0  0  0  0  0  0  0  0  0  0
  1  2  1  0
  2  3  2  0
  3  4  1  0
  4  5  2  3
  5  6  1  0
  6  7  2  0
  7  8  1  0
  8  9  1  0
  8 10  2  0
 10 11  1  0
 11 12  2  0
 12 13  1  0
  4 14  1  0
 14 15  2  0
 15 16  1  0
 16 17  1  0
 17 18  1  0
 18 19  1  0
 19 20  1  0
 20 21  1  0
 15 22  1  0
 22 23  2  0
 23 24  1  0
 24 25  1  0
 24  1  1  0
 23  3  1  0
 12  6  1  0
  1 26  1  0
  2 27  1  0
  7 28  1  0
 10 29  1  0
 11 30  1  0
 16 31  1  0
 17 32  1  0
 17 33  1  0
 18 34  1  0
 18 35  1  0
 19 36  1  0
 19 37  1  0
 20 38  1  0
 20 39  1  0
 21 40  1  0
 21 41  1  0
 21 42  1  0
 25 43  1  0
 25 44  1  0
 25 45  1  0
M  END
>  <ScrubInfo>  (5) 
{"isomerGroup": 0, "isomerId": 4, "confId": 0, "nr_conformers:": 1, "nr_isomers:": 9}

$$$$
_i5
     RDKit          3D

 45 47  0  0  0  0  0  0  0  0999 V2000
   -0.0041   -1.5138    0.4028 N   0  0  0  0  0  0  0  0  0  0  0  0
    0.4699   -0.2298    0.3193 C   0  0  0  0  0  0  0  0  0  0  0  0
    1.8206   -0.0971    0.4736 N   0  0  0  0  0  0  0  0  0  0  0  0
    2.7535   -0.8240   -0.3796 C   0  0  0  0  0  0  0  0  0  0  0  0
    4.1987   -0.5651    0.0524 C   0  0  0  0  0  0  0  0  0  0  0  0
    4.6709    0.8587   -0.2616 C   0  0  0  0  0  0  0  0  0  0  0  0
    6.1667    1.0667   -0.0108 C   0  0  0  0  0  0  0  0  0  0  0  0
    6.5596    0.9394    1.4530 C   0  0  0  0  0  0  0  0  0  0  0  0
   -0.2557    0.8338    0.1260 N   0  0  0  0  0  0  0  0  0  0  0  0
   -1.6336    0.7163   -0.0153 C   0  0  0  0  0  0  0  0  0  0  0  0
   -2.2735    1.8232   -0.2212 N   0  0  0  0  0  0  0  0  0  0  0  0
   -3.6641    1.8856   -0.3422 C   0  0  0  0  0  0  0  0  0  0  0  0
   -4.2410    1.9711   -1.6112 C   0  0  0  0  0  0  0  0  0  0  0  0
   -5.6226    2.0840   -1.7370 C   0  0  0  0  0  0  0  0  0  0  0  0
   -6.1684    2.1549   -2.9579 F   0  0  0  0  0  0  0  0  0  0  0  0
   -6.4493    2.1270   -0.6176 C   0  0  0  0  0  0  0  0  0  0  0  0
   -5.8834    2.0639    0.6542 C   0  0  0  0  0  0  0  0  0  0  0  0
   -4.4997    1.9526    0.7838 C   0  0  0  0  0  0  0  0  0  0  0  0
   -3.9742    1.8872    2.0163 F   0  0  0  0  0  0  0  0  0  0  0  0
   -2.1852   -0.6268    0.0731 C   0  0  0  0  0  0  0  0  0  0  0  0
   -3.4456   -1.2462   -0.0053 C   0  0  0  0  0  0  0  0  0  0  0  0
   -3.3874   -2.5763    0.1683 N   0  0  0  0  0  0  0  0  0  0  0  0
   -2.0710   -2.8170    0.3608 N   0  0  0  0  0  0  0  0  0  0  0  0
   -1.6325   -4.1711    0.5831 C   0  0  0  0  0  0  0  0  0  0  0  0
   -1.3320   -1.6803    0.2901 C   0  0  0  0  0  0  0  0  0  0  0  0
    0.6290   -2.2133    0.7652 H   0  0  0  0  0  0  0  0  0  0  0  0
    2.0214    0.9022    0.4524 H   0  0  0  0  0  0  0  0  0  0  0  0
    2.6077   -0.5334   -1.4264 H   0  0  0  0  0  0  0  0  0  0  0  0
    2.5639   -1.9006   -0.3062 H   0  0  0  0  0  0  0  0  0  0  0  0
    4.8466   -1.2766   -0.4741 H   0  0  0  0  0  0  0  0  0  0  0  0
    4.2998   -0.7681    1.1249 H   0  0  0  0  0  0  0  0  0  0  0  0
    4.1033    1.5860    0.3301 H   0  0  0  0  0  0  0  0  0  0  0  0
    4.4673    1.0800   -1.3166 H   0  0  0  0  0  0  0  0  0  0  0  0
    6.4407    2.0698   -0.3590 H   0  0  0  0  0  0  0  0  0  0  0  0
    6.7483    0.3548   -0.6080 H   0  0  0  0  0  0  0  0  0  0  0  0
    5.9716    1.6186    2.0783 H   0  0  0  0  0  0  0  0  0  0  0  0
    6.4161   -0.0812    1.8195 H   0  0  0  0  0  0  0  0  0  0  0  0
    7.6172    1.1913    1.5810 H   0  0  0  0  0  0  0  0  0  0  0  0
   -3.6183    1.9573   -2.4998 H   0  0  0  0  0  0  0  0  0  0  0  0
   -7.5237    2.2168   -0.7450 H   0  0  0  0  0  0  0  0  0  0  0  0
   -6.5040    2.1039    1.5438 H   0  0  0  0  0  0  0  0  0  0  0  0
   -4.4178   -0.8081   -0.1800 H   0  0  0  0  0  0  0  0  0  0  0  0
   -2.0659   -4.5220    1.5230 H   0  0  0  0  0  0  0  0  0  0  0  0
   -1.9772   -4.7879   -0.2508 H   0  0  0  0  0  0  0  0  0  0  0  0
   -0.5427   -4.2063    0.6405 H   0  0  0  0  0  0  0  0  0  0  0  0
  1  2  1  0
  2  3  1  0
  3  4  1  0
  4  5  1  0
  5  6  1  0
  6  7  1  0
  7  8  1  0
  2  9  2  0
  9 10  1  0
 10 11  2  3
 11 12  1  0
 12 13  2  0
 13 14  1  0
 14 15  1  0
 14 16  2  0
 16 17  1  0
 17 18  2  0
 18 19  1  0
 10 20  1  0
 20 21  1  0
 21 22  2  0
 22 23  1  0
 23 24  1  0
 23 25  1  0
 25  1  1  0
 18 12  1  0
 25 20  2  0
  1 26  1  0
  3 27  1  0
  4 28  1  0
  4 29  1  0
  5 30  1  0
  5 31  1  0
  6 32  1  0
  6 33  1  0
  7 34  1  0
  7 35  1  0
  8 36  1  0
  8 37  1  0
  8 38  1  0
 13 39  1  0
 16 40  1  0
 17 41  1  0
 21 42  1  0
 24 43  1  0
 24 44  1  0
 24 45  1  0
M  END
>  <ScrubInfo>  (6) 
{"isomerGroup": 0, "isomerId": 5, "confId": 0, "nr_conformers:": 1, "nr_isomers:": 9}

$$$$
_i6
     RDKit          3D

 45 47  0  0  0  0  0  0  0  0999 V2000
   -0.7092   -3.9861    0.4427 N   0  0  0  0  0  0  0  0  0  0  0  0
   -1.7562   -3.0773    0.5535 C   0  0  0  0  0  0  0  0  0  0  0  0
   -1.4402   -1.8579    0.0951 C   0  0  0  0  0  0  0  0  0  0  0  0
   -2.0648   -0.5377   -0.0323 C   0  0  0  0  0  0  0  0  0  0  0  0
   -3.3754   -0.3714    0.3678 N   0  0  0  0  0  0  0  0  0  0  0  0
   -4.1932    0.7785    0.3588 C   0  0  0  0  0  0  0  0  0  0  0  0
   -3.7983    2.0414   -0.0883 C   0  0  0  0  0  0  0  0  0  0  0  0
   -4.6936    3.1126   -0.0543 C   0  0  0  0  0  0  0  0  0  0  0  0
   -4.2960    4.3163   -0.4872 F   0  0  0  0  0  0  0  0  0  0  0  0
   -5.9927    2.9610    0.4192 C   0  0  0  0  0  0  0  0  0  0  0  0
   -6.4094    1.7137    0.8690 C   0  0  0  0  0  0  0  0  0  0  0  0
   -5.5138    0.6464    0.8339 C   0  0  0  0  0  0  0  0  0  0  0  0
   -5.9269   -0.5553    1.2707 F   0  0  0  0  0  0  0  0  0  0  0  0
   -1.3284    0.4150   -0.5241 N   0  0  0  0  0  0  0  0  0  0  0  0
   -0.0235    0.1697   -0.8865 C   0  0  0  0  0  0  0  0  0  0  0  0
    0.6112    1.2220   -1.2629 N   0  0  0  0  0  0  0  0  0  0  0  0
    2.0029    1.1052   -1.6895 C   0  0  0  0  0  0  0  0  0  0  0  0
    2.9308    1.2732   -0.4861 C   0  0  0  0  0  0  0  0  0  0  0  0
    4.4001    1.1921   -0.9036 C   0  0  0  0  0  0  0  0  0  0  0  0
    5.3728    1.4446    0.2501 C   0  0  0  0  0  0  0  0  0  0  0  0
    5.3256    0.3738    1.3293 C   0  0  0  0  0  0  0  0  0  0  0  0
    0.6181   -1.0471   -0.8712 N   0  0  0  0  0  0  0  0  0  0  0  0
   -0.0609   -2.0358   -0.4062 C   0  0  0  0  0  0  0  0  0  0  0  0
    0.3161   -3.3718   -0.2684 N   0  0  0  0  0  0  0  0  0  0  0  0
    1.6922   -3.7305    0.0197 C   0  0  0  0  0  0  0  0  0  0  0  0
   -0.9973   -4.9084    0.1066 H   0  0  0  0  0  0  0  0  0  0  0  0
   -2.6909   -3.4129    0.9780 H   0  0  0  0  0  0  0  0  0  0  0  0
   -3.8598   -1.1798    0.7439 H   0  0  0  0  0  0  0  0  0  0  0  0
   -2.8018    2.2354   -0.4705 H   0  0  0  0  0  0  0  0  0  0  0  0
   -6.6633    3.8143    0.4321 H   0  0  0  0  0  0  0  0  0  0  0  0
   -7.4164    1.5635    1.2440 H   0  0  0  0  0  0  0  0  0  0  0  0
    2.1972    1.9066   -2.4123 H   0  0  0  0  0  0  0  0  0  0  0  0
    2.2079    0.1697   -2.2238 H   0  0  0  0  0  0  0  0  0  0  0  0
    2.7339    2.2391   -0.0048 H   0  0  0  0  0  0  0  0  0  0  0  0
    2.7082    0.4997    0.2572 H   0  0  0  0  0  0  0  0  0  0  0  0
    4.6049    0.2105   -1.3483 H   0  0  0  0  0  0  0  0  0  0  0  0
    4.5926    1.9389   -1.6840 H   0  0  0  0  0  0  0  0  0  0  0  0
    5.1736    2.4246    0.6992 H   0  0  0  0  0  0  0  0  0  0  0  0
    6.3904    1.4835   -0.1566 H   0  0  0  0  0  0  0  0  0  0  0  0
    5.4872   -0.6214    0.9032 H   0  0  0  0  0  0  0  0  0  0  0  0
    4.3659    0.3745    1.8542 H   0  0  0  0  0  0  0  0  0  0  0  0
    6.1088    0.5553    2.0724 H   0  0  0  0  0  0  0  0  0  0  0  0
    2.3665   -3.3052   -0.7307 H   0  0  0  0  0  0  0  0  0  0  0  0
    1.8139   -4.8183    0.0004 H   0  0  0  0  0  0  0  0  0  0  0  0
    1.9911   -3.3640    1.0074 H   0  0  0  0  0  0  0  0  0  0  0  0
  1  2  1  0
  2  3  2  0
  3  4  1  0
  4  5  1  0
  5  6  1  0
  6  7  2  0
  7  8  1  0
  8  9  1  0
  8 10  2  0
 10 11  1  0
 11 12  2  0
 12 13  1  0
  4 14  2  0
 14 15  1  0
 15 16  2  3
 16 17  1  0
 17 18  1  0
 18 19  1  0
 19 20  1  0
 20 21  1  0
 15 22  1  0
 22 23  2  0
 23 24  1  0
 24 25  1  0
 24  1  1  0
 23  3  1  0
 12  6  1  0
  1 26  1  0
  2 27  1  0
  5 28  1  0
  7 29  1  0
 10 30  1  0
 11 31  1  0
 17 32  1  0
 17 33  1  0
 18 34  1  0
 18 35  1  0
 19 36  1  0
 19 37  1  0
 20 38  1  0
 20 39  1  0
 21 40  1  0
 21 41  1  0
 21 42  1  0
 25 43  1  0
 25 44  1  0
 25 45  1  0
M  END
>  <ScrubInfo>  (7) 
{"isomerGroup": 0, "isomerId": 6, "confId": 0, "nr_conformers:": 1, "nr_isomers:": 9}

$$$$
_i7
     RDKit          3D

 45 47  0  0  0  0  0  0  0  0999 V2000
   -3.4490    2.5011    0.5488 N   0  0  0  0  0  0  0  0  0  0  0  0
   -3.0504    1.1702    0.6056 C   0  0  0  0  0  0  0  0  0  0  0  0
   -1.7351    0.9958    0.4121 C   0  0  0  0  0  0  0  0  0  0  0  0
   -0.7220   -0.0744    0.3917 C   0  0  0  0  0  0  0  0  0  0  0  0
   -0.8731   -1.3606    0.5147 N   0  0  0  0  0  0  0  0  0  0  0  0
   -2.1463   -1.9312    0.6451 C   0  0  0  0  0  0  0  0  0  0  0  0
   -2.5978   -2.3239    1.9063 C   0  0  0  0  0  0  0  0  0  0  0  0
   -3.8443   -2.9297    2.0366 C   0  0  0  0  0  0  0  0  0  0  0  0
   -4.2748   -3.2934    3.2513 F   0  0  0  0  0  0  0  0  0  0  0  0
   -4.6532   -3.1660    0.9282 C   0  0  0  0  0  0  0  0  0  0  0  0
   -4.2053   -2.7947   -0.3379 C   0  0  0  0  0  0  0  0  0  0  0  0
   -2.9572   -2.1884   -0.4717 C   0  0  0  0  0  0  0  0  0  0  0  0
   -2.5449   -1.8307   -1.6972 F   0  0  0  0  0  0  0  0  0  0  0  0
    0.5493    0.4076    0.2236 N   0  0  0  0  0  0  0  0  0  0  0  0
    0.9293    1.7143    0.0488 C   0  0  0  0  0  0  0  0  0  0  0  0
    2.1281    2.1512   -0.1021 N   0  0  0  0  0  0  0  0  0  0  0  0
    3.2710    1.2467   -0.0760 C   0  0  0  0  0  0  0  0  0  0  0  0
    3.5275    0.6963   -1.4779 C   0  0  0  0  0  0  0  0  0  0  0  0
    4.8010   -0.1476   -1.5777 C   0  0  0  0  0  0  0  0  0  0  0  0
    4.8318   -1.4053   -0.7058 C   0  0  0  0  0  0  0  0  0  0  0  0
    3.7164   -2.3904   -1.0190 C   0  0  0  0  0  0  0  0  0  0  0  0
   -0.0123    2.7214    0.0116 N   0  0  0  0  0  0  0  0  0  0  0  0
   -1.2574    2.4005    0.1656 C   0  0  0  0  0  0  0  0  0  0  0  0
   -2.3580    3.2602    0.1523 N   0  0  0  0  0  0  0  0  0  0  0  0
   -2.2392    4.6304    0.6135 C   0  0  0  0  0  0  0  0  0  0  0  0
   -4.3111    2.6461    0.0181 H   0  0  0  0  0  0  0  0  0  0  0  0
   -3.8062    0.4247    0.7995 H   0  0  0  0  0  0  0  0  0  0  0  0
   -1.9823   -2.1654    2.7858 H   0  0  0  0  0  0  0  0  0  0  0  0
   -5.6193   -3.6439    1.0593 H   0  0  0  0  0  0  0  0  0  0  0  0
   -4.8118   -2.9763   -1.2196 H   0  0  0  0  0  0  0  0  0  0  0  0
    1.2628   -0.3006    0.1880 H   0  0  0  0  0  0  0  0  0  0  0  0
    3.1426    0.4484    0.6623 H   0  0  0  0  0  0  0  0  0  0  0  0
    4.1445    1.8209    0.2543 H   0  0  0  0  0  0  0  0  0  0  0  0
    3.6189    1.5372   -2.1778 H   0  0  0  0  0  0  0  0  0  0  0  0
    2.6638    0.1166   -1.8229 H   0  0  0  0  0  0  0  0  0  0  0  0
    5.6638    0.4778   -1.3165 H   0  0  0  0  0  0  0  0  0  0  0  0
    4.9402   -0.4406   -2.6259 H   0  0  0  0  0  0  0  0  0  0  0  0
    5.7937   -1.9083   -0.8633 H   0  0  0  0  0  0  0  0  0  0  0  0
    4.7958   -1.1365    0.3554 H   0  0  0  0  0  0  0  0  0  0  0  0
    3.7149   -2.6581   -2.0802 H   0  0  0  0  0  0  0  0  0  0  0  0
    3.8525   -3.3085   -0.4384 H   0  0  0  0  0  0  0  0  0  0  0  0
    2.7352   -1.9806   -0.7634 H   0  0  0  0  0  0  0  0  0  0  0  0
   -1.4481    5.1546    0.0677 H   0  0  0  0  0  0  0  0  0  0  0  0
   -2.0083    4.6619    1.6834 H   0  0  0  0  0  0  0  0  0  0  0  0
   -3.1758    5.1715    0.4440 H   0  0  0  0  0  0  0  0  0  0  0  0
  1  2  1  0
  2  3  2  0
  3  4  1  0
  4  5  2  3
  5  6  1  0
  6  7  2  0
  7  8  1  0
  8  9  1  0
  8 10  2  0
 10 11  1  0
 11 12  2  0
 12 13  1  0
  4 14  1  0
 14 15  1  0
 15 16  2  3
 16 17  1  0
 17 18  1  0
 18 19  1  0
 19 20  1  0
 20 21  1  0
 15 22  1  0
 22 23  2  0
 23 24  1  0
 24 25  1  0
 24  1  1  0
 23  3  1  0
 12  6  1  0
  1 26  1  0
  2 27  1  0
  7 28  1  0
 10 29  1  0
 11 30  1  0
 14 31  1  0
 17 32  1  0
 17 33  1  0
 18 34  1  0
 18 35  1  0
 19 36  1  0
 19 37  1  0
 20 38  1  0
 20 39  1  0
 21 40  1  0
 21 41  1  0
 21 42  1  0
 25 43  1  0
 25 44  1  0
 25 45  1  0
M  END
>  <ScrubInfo>  (8) 
{"isomerGroup": 0, "isomerId": 7, "confId": 0, "nr_conformers:": 1, "nr_isomers:": 9}

$$$$
_i8
     RDKit          3D

 45 47  0  0  0  0  0  0  0  0999 V2000
    0.1029    1.5477    0.1472 N   0  0  0  0  0  0  0  0  0  0  0  0
    0.6671    0.2950    0.3203 C   0  0  0  0  0  0  0  0  0  0  0  0
    1.9113    0.0038    0.4970 N   0  0  0  0  0  0  0  0  0  0  0  0
    2.8850    1.0903    0.5248 C   0  0  0  0  0  0  0  0  0  0  0  0
    4.2830    0.5052    0.7338 C   0  0  0  0  0  0  0  0  0  0  0  0
    4.7521   -0.3269   -0.4644 C   0  0  0  0  0  0  0  0  0  0  0  0
    6.2023   -0.8000   -0.3405 C   0  0  0  0  0  0  0  0  0  0  0  0
    6.4247   -1.7826    0.7988 C   0  0  0  0  0  0  0  0  0  0  0  0
   -0.2553   -0.7272    0.2916 N   0  0  0  0  0  0  0  0  0  0  0  0
   -1.6244   -0.7271    0.1354 C   0  0  0  0  0  0  0  0  0  0  0  0
   -2.3021   -1.8353    0.1612 N   0  0  0  0  0  0  0  0  0  0  0  0
   -3.6970   -1.8688    0.0578 C   0  0  0  0  0  0  0  0  0  0  0  0
   -4.2900   -2.1881   -1.1653 C   0  0  0  0  0  0  0  0  0  0  0  0
   -5.6764   -2.2697   -1.2609 C   0  0  0  0  0  0  0  0  0  0  0  0
   -6.2378   -2.5664   -2.4400 F   0  0  0  0  0  0  0  0  0  0  0  0
   -6.4918   -2.0509   -0.1537 C   0  0  0  0  0  0  0  0  0  0  0  0
   -5.9102   -1.7523    1.0768 C   0  0  0  0  0  0  0  0  0  0  0  0
   -4.5221   -1.6718    1.1765 C   0  0  0  0  0  0  0  0  0  0  0  0
   -3.9791   -1.3827    2.3687 F   0  0  0  0  0  0  0  0  0  0  0  0
   -2.1211    0.6256   -0.0584 C   0  0  0  0  0  0  0  0  0  0  0  0
   -3.3575    1.2492   -0.3082 C   0  0  0  0  0  0  0  0  0  0  0  0
   -3.2581    2.5818   -0.4211 N   0  0  0  0  0  0  0  0  0  0  0  0
   -1.9424    2.8231   -0.2363 N   0  0  0  0  0  0  0  0  0  0  0  0
   -1.4598    4.1800   -0.2946 C   0  0  0  0  0  0  0  0  0  0  0  0
   -1.2314    1.6797   -0.0355 C   0  0  0  0  0  0  0  0  0  0  0  0
    0.7316    2.3389    0.1559 H   0  0  0  0  0  0  0  0  0  0  0  0
    2.8615    1.6636   -0.4095 H   0  0  0  0  0  0  0  0  0  0  0  0
    2.6656    1.7701    1.3567 H   0  0  0  0  0  0  0  0  0  0  0  0
    4.2850   -0.1082    1.6420 H   0  0  0  0  0  0  0  0  0  0  0  0
    4.9861    1.3308    0.8966 H   0  0  0  0  0  0  0  0  0  0  0  0
    4.6665    0.2779   -1.3757 H   0  0  0  0  0  0  0  0  0  0  0  0
    4.0970   -1.1958   -0.5993 H   0  0  0  0  0  0  0  0  0  0  0  0
    6.8671    0.0624   -0.2138 H   0  0  0  0  0  0  0  0  0  0  0  0
    6.4901   -1.2860   -1.2804 H   0  0  0  0  0  0  0  0  0  0  0  0
    7.4533   -2.1569    0.7762 H   0  0  0  0  0  0  0  0  0  0  0  0
    5.7503   -2.6406    0.7153 H   0  0  0  0  0  0  0  0  0  0  0  0
    6.2662   -1.3105    1.7727 H   0  0  0  0  0  0  0  0  0  0  0  0
    0.1467   -1.6427    0.4340 H   0  0  0  0  0  0  0  0  0  0  0  0
   -3.6785   -2.3775   -2.0412 H   0  0  0  0  0  0  0  0  0  0  0  0
   -7.5703   -2.1219   -0.2571 H   0  0  0  0  0  0  0  0  0  0  0  0
   -6.5224   -1.5857    1.9575 H   0  0  0  0  0  0  0  0  0  0  0  0
   -4.3383    0.8105   -0.4235 H   0  0  0  0  0  0  0  0  0  0  0  0
   -2.2413    4.8534    0.0672 H   0  0  0  0  0  0  0  0  0  0  0  0
   -1.2122    4.4081   -1.3340 H   0  0  0  0  0  0  0  0  0  0  0  0
   -0.5758    4.2786    0.3395 H   0  0  0  0  0  0  0  0  0  0  0  0
  1  2  1  0
  2  3  2  3
  3  4  1  0
  4  5  1  0
  5  6  1  0
  6  7  1  0
  7  8  1  0
  2  9  1  0
  9 10  1  0
 10 11  2  3
 11 12  1  0
 12 13  2  0
 13 14  1  0
 14 15  1  0
 14 16  2  0
 16 17  1  0
 17 18  2  0
 18 19  1  0
 10 20  1  0
 20 21  1  0
 21 22  2  0
 22 23  1  0
 23 24  1  0
 23 25  1  0
 25  1  1  0
 18 12  1  0
 25 20  2  0
  1 26  1  0
  4 27  1  0
  4 28  1  0
  5 29  1  0
  5 30  1  0
  6 31  1  0
  6 32  1  0
  7 33  1  0
  7 34  1  0
  8 35  1  0
  8 36  1  0
  8 37  1  0
  9 38  1  0
 13 39  1  0
 16 40  1  0
 17 41  1  0
 21 42  1  0
 24 43  1  0
 24 44  1  0
 24 45  1  0
M  END
>  <ScrubInfo>  (9) 
{"isomerGroup": 0, "isomerId": 8, "confId": 0, "nr_conformers:": 1, "nr_isomers:": 9}

$$$$
