REMARK SMILES COCCNc1nc(Nc2ccccc2OC)c2cnn(C)c2n1
REMARK SMILES IDX 6 1 7 2 8 3 18 4 19 5 20 6 21 7 22 8 23 9 24 10 5 11 4 13
REMARK SMILES IDX 3 14 2 15 1 16 9 17 10 19 11 20 15 21 12 22 14 23 13 24
REMARK SMILES IDX 16 25 17 26
REMARK H PARENT 5 12 9 18
ROOT
ATOM      1  C   UNL     1       1.452  -1.187  -0.112  1.00  0.00     0.226 A 
ATOM      2  N   UNL     1       0.263  -1.809  -0.011  1.00  0.00    -0.195 NA
ATOM      3  C   UNL     1      -0.772  -1.200   0.623  1.00  0.00     0.147 A 
ATOM      4  C   UNL     1      -0.545   0.060   1.180  1.00  0.00     0.082 A 
ATOM      5  C   UNL     1      -1.246   1.035   1.919  1.00  0.00     0.149 A 
ATOM      6  N   UNL     1      -0.503   2.116   2.193  1.00  0.00    -0.179 NA
ATOM      7  N   UNL     1       0.691   1.817   1.630  1.00  0.00    -0.250 N 
ATOM      8  C   UNL     1       1.776   2.759   1.728  1.00  0.00     0.176 C 
ATOM      9  C   UNL     1       0.715   0.596   1.013  1.00  0.00     0.165 A 
ATOM     10  N   UNL     1       1.748   0.026   0.374  1.00  0.00    -0.193 NA
ENDROOT
BRANCH   1  11
ATOM     11  N   UNL     1       2.423  -1.916  -0.791  1.00  0.00    -0.352 N 
ATOM     12  H   UNL     1       1.906  -2.632  -1.292  1.00  0.00     0.163 HD
BRANCH  11  13
ATOM     13  C   UNL     1       3.322  -1.130  -1.625  1.00  0.00     0.144 C 
BRANCH  13  14
ATOM     14  C   UNL     1       4.565  -0.666  -0.858  1.00  0.00     0.181 C 
BRANCH  14  15
ATOM     15  O   UNL     1       5.470  -0.037  -1.772  1.00  0.00    -0.383 OA
ATOM     16  C   UNL     1       6.650   0.404  -1.112  1.00  0.00     0.194 C 
ENDBRANCH  14  15
ENDBRANCH  13  14
ENDBRANCH  11  13
ENDBRANCH   1  11
BRANCH   3  17
ATOM     17  N   UNL     1      -1.984  -1.913   0.699  1.00  0.00    -0.336 N 
ATOM     18  H   UNL     1      -1.880  -2.683   0.041  1.00  0.00     0.168 HD
BRANCH  17  19
ATOM     19  C   UNL     1      -3.285  -1.358   0.587  1.00  0.00     0.082 A 
ATOM     20  C   UNL     1      -4.282  -1.897   1.415  1.00  0.00     0.030 A 
ATOM     21  C   UNL     1      -3.646  -0.401  -0.386  1.00  0.00     0.142 A 
ATOM     22  C   UNL     1      -5.600  -1.449   1.333  1.00  0.00     0.002 A 
ATOM     23  C   UNL     1      -4.973   0.038  -0.464  1.00  0.00     0.048 A 
ATOM     24  C   UNL     1      -5.942  -0.478   0.399  1.00  0.00     0.004 A 
BRANCH  21  25
ATOM     25  O   UNL     1      -2.656   0.012  -1.242  1.00  0.00    -0.495 OA
ATOM     26  C   UNL     1      -2.876   1.227  -1.946  1.00  0.00     0.278 C 
ENDBRANCH  21  25
ENDBRANCH  17  19
ENDBRANCH   3  17
TORSDOF 7
