_i0
     RDKit          3D

 44 46  0  0  0  0  0  0  0  0999 V2000
    6.6496    0.4039   -1.1118 C   0  0  0  0  0  0  0  0  0  0  0  0
    5.4704   -0.0369   -1.7723 O   0  0  0  0  0  0  0  0  0  0  0  0
    4.5647   -0.6662   -0.8582 C   0  0  0  0  0  0  0  0  0  0  0  0
    3.3225   -1.1302   -1.6251 C   0  0  0  0  0  0  0  0  0  0  0  0
    2.4230   -1.9161   -0.7912 N   0  0  0  0  0  0  0  0  0  0  0  0
    1.4522   -1.1868   -0.1123 C   0  0  0  0  0  0  0  0  0  0  0  0
    0.2633   -1.8087   -0.0106 N   0  0  0  0  0  0  0  0  0  0  0  0
   -0.7724   -1.1997    0.6230 C   0  0  0  0  0  0  0  0  0  0  0  0
   -1.9839   -1.9127    0.6991 N   0  0  0  0  0  0  0  0  0  0  0  0
   -3.2848   -1.3582    0.5874 C   0  0  0  0  0  0  0  0  0  0  0  0
   -4.2820   -1.8970    1.4147 C   0  0  0  0  0  0  0  0  0  0  0  0
   -5.5996   -1.4492    1.3334 C   0  0  0  0  0  0  0  0  0  0  0  0
   -5.9425   -0.4777    0.3989 C   0  0  0  0  0  0  0  0  0  0  0  0
   -4.9729    0.0383   -0.4644 C   0  0  0  0  0  0  0  0  0  0  0  0
   -3.6456   -0.4010   -0.3862 C   0  0  0  0  0  0  0  0  0  0  0  0
   -2.6560    0.0116   -1.2425 O   0  0  0  0  0  0  0  0  0  0  0  0
   -2.8764    1.2270   -1.9463 C   0  0  0  0  0  0  0  0  0  0  0  0
   -0.5452    0.0603    1.1804 C   0  0  0  0  0  0  0  0  0  0  0  0
   -1.2461    1.0354    1.9190 C   0  0  0  0  0  0  0  0  0  0  0  0
   -0.5034    2.1156    2.1934 N   0  0  0  0  0  0  0  0  0  0  0  0
    0.6906    1.8165    1.6301 N   0  0  0  0  0  0  0  0  0  0  0  0
    1.7760    2.7591    1.7280 C   0  0  0  0  0  0  0  0  0  0  0  0
    0.7152    0.5963    1.0126 C   0  0  0  0  0  0  0  0  0  0  0  0
    1.7477    0.0260    0.3744 N   0  0  0  0  0  0  0  0  0  0  0  0
    7.3033    0.8734   -1.8517 H   0  0  0  0  0  0  0  0  0  0  0  0
    6.4047    1.1430   -0.3429 H   0  0  0  0  0  0  0  0  0  0  0  0
    7.1788   -0.4437   -0.6659 H   0  0  0  0  0  0  0  0  0  0  0  0
    4.2984    0.0450   -0.0694 H   0  0  0  0  0  0  0  0  0  0  0  0
    5.0596   -1.5281   -0.3944 H   0  0  0  0  0  0  0  0  0  0  0  0
    2.8170   -0.2808   -2.1038 H   0  0  0  0  0  0  0  0  0  0  0  0
    3.6555   -1.7655   -2.4558 H   0  0  0  0  0  0  0  0  0  0  0  0
    1.9056   -2.6322   -1.2917 H   0  0  0  0  0  0  0  0  0  0  0  0
   -1.8799   -2.6830    0.0409 H   0  0  0  0  0  0  0  0  0  0  0  0
   -4.0219   -2.6620    2.1431 H   0  0  0  0  0  0  0  0  0  0  0  0
   -6.3563   -1.8634    1.9946 H   0  0  0  0  0  0  0  0  0  0  0  0
   -6.9710   -0.1320    0.3280 H   0  0  0  0  0  0  0  0  0  0  0  0
   -5.2893    0.7661   -1.2043 H   0  0  0  0  0  0  0  0  0  0  0  0
   -3.6194    1.0888   -2.7380 H   0  0  0  0  0  0  0  0  0  0  0  0
   -1.9332    1.5123   -2.4220 H   0  0  0  0  0  0  0  0  0  0  0  0
   -3.1655    2.0374   -1.2685 H   0  0  0  0  0  0  0  0  0  0  0  0
   -2.2711    1.0022    2.2650 H   0  0  0  0  0  0  0  0  0  0  0  0
    1.4606    3.6964    1.2625 H   0  0  0  0  0  0  0  0  0  0  0  0
    2.6583    2.3702    1.2147 H   0  0  0  0  0  0  0  0  0  0  0  0
    2.0015    2.9149    2.7860 H   0  0  0  0  0  0  0  0  0  0  0  0
  1  2  1  0
  2  3  1  0
  3  4  1  0
  4  5  1  0
  5  6  1  0
  6  7  2  0
  7  8  1  0
  8  9  1  0
  9 10  1  0
 10 11  2  0
 11 12  1  0
 12 13  2  0
 13 14  1  0
 14 15  2  0
 15 16  1  0
 16 17  1  0
  8 18  2  0
 18 19  1  0
 19 20  2  0
 20 21  1  0
 21 22  1  0
 21 23  1  0
 23 24  2  0
 24  6  1  0
 15 10  1  0
 23 18  1  0
  1 25  1  0
  1 26  1  0
  1 27  1  0
  3 28  1  0
  3 29  1  0
  4 30  1  0
  4 31  1  0
  5 32  1  0
  9 33  1  0
 11 34  1  0
 12 35  1  0
 13 36  1  0
 14 37  1  0
 17 38  1  0
 17 39  1  0
 17 40  1  0
 19 41  1  0
 22 42  1  0
 22 43  1  0
 22 44  1  0
M  END
>  <ScrubInfo>  (1) 
{"isomerGroup": 0, "isomerId": 0, "confId": 0, "nr_conformers:": 1, "nr_isomers:": 9}

$$$$
_i1
     RDKit          3D

 44 46  0  0  0  0  0  0  0  0999 V2000
    0.7300    0.2808   -0.5983 N   0  0  0  0  0  0  0  0  0  0  0  0
   -0.5485    0.7800   -0.7526 C   0  0  0  0  0  0  0  0  0  0  0  0
   -1.6429   -0.0546   -0.8771 N   0  0  0  0  0  0  0  0  0  0  0  0
   -2.4459   -0.4622    0.2339 C   0  0  0  0  0  0  0  0  0  0  0  0
   -2.6286    0.3399    1.3686 C   0  0  0  0  0  0  0  0  0  0  0  0
   -3.4808   -0.0685    2.3961 C   0  0  0  0  0  0  0  0  0  0  0  0
   -4.1713   -1.2732    2.2943 C   0  0  0  0  0  0  0  0  0  0  0  0
   -4.0182   -2.0769    1.1631 C   0  0  0  0  0  0  0  0  0  0  0  0
   -3.1686   -1.6749    0.1286 C   0  0  0  0  0  0  0  0  0  0  0  0
   -2.9285   -2.3948   -1.0198 O   0  0  0  0  0  0  0  0  0  0  0  0
   -3.7522   -3.5326   -1.2472 C   0  0  0  0  0  0  0  0  0  0  0  0
   -0.6473    2.1095   -0.8335 C   0  0  0  0  0  0  0  0  0  0  0  0
   -1.6986    3.1052   -1.0518 C   0  0  0  0  0  0  0  0  0  0  0  0
   -1.2402    4.3323   -1.0679 N   0  0  0  0  0  0  0  0  0  0  0  0
    0.1397    4.2193   -0.8145 N   0  0  0  0  0  0  0  0  0  0  0  0
    0.9950    5.3496   -1.0838 C   0  0  0  0  0  0  0  0  0  0  0  0
    0.5846    2.9104   -0.7151 C   0  0  0  0  0  0  0  0  0  0  0  0
    1.7729    2.4351   -0.5639 N   0  0  0  0  0  0  0  0  0  0  0  0
    1.8613    1.0611   -0.4852 C   0  0  0  0  0  0  0  0  0  0  0  0
    3.0621    0.6423   -0.2970 N   0  0  0  0  0  0  0  0  0  0  0  0
    3.3042   -0.7911   -0.1939 C   0  0  0  0  0  0  0  0  0  0  0  0
    4.8120   -1.0438   -0.1284 C   0  0  0  0  0  0  0  0  0  0  0  0
    5.0947   -2.4413   -0.0078 O   0  0  0  0  0  0  0  0  0  0  0  0
    5.0992   -2.8832    1.3433 C   0  0  0  0  0  0  0  0  0  0  0  0
    0.8058   -0.7121   -0.4503 H   0  0  0  0  0  0  0  0  0  0  0  0
   -1.4176   -0.9107   -1.3895 H   0  0  0  0  0  0  0  0  0  0  0  0
   -2.1144    1.2899    1.4765 H   0  0  0  0  0  0  0  0  0  0  0  0
   -3.6083    0.5589    3.2752 H   0  0  0  0  0  0  0  0  0  0  0  0
   -4.8337   -1.5871    3.0976 H   0  0  0  0  0  0  0  0  0  0  0  0
   -4.5716   -3.0089    1.1234 H   0  0  0  0  0  0  0  0  0  0  0  0
   -4.8127   -3.2599   -1.2619 H   0  0  0  0  0  0  0  0  0  0  0  0
   -3.5529   -4.3143   -0.5071 H   0  0  0  0  0  0  0  0  0  0  0  0
   -3.4987   -3.9358   -2.2324 H   0  0  0  0  0  0  0  0  0  0  0  0
   -2.7436    2.8045   -1.2018 H   0  0  0  0  0  0  0  0  0  0  0  0
    1.9124    5.2955   -0.4890 H   0  0  0  0  0  0  0  0  0  0  0  0
    1.2674    5.3774   -2.1434 H   0  0  0  0  0  0  0  0  0  0  0  0
    0.4890    6.2871   -0.8314 H   0  0  0  0  0  0  0  0  0  0  0  0
    2.8977   -1.3311   -1.0580 H   0  0  0  0  0  0  0  0  0  0  0  0
    2.8204   -1.1948    0.7026 H   0  0  0  0  0  0  0  0  0  0  0  0
    5.2825   -0.4779    0.6850 H   0  0  0  0  0  0  0  0  0  0  0  0
    5.2736   -0.7019   -1.0618 H   0  0  0  0  0  0  0  0  0  0  0  0
    4.1233   -2.7280    1.8112 H   0  0  0  0  0  0  0  0  0  0  0  0
    5.3201   -3.9540    1.3519 H   0  0  0  0  0  0  0  0  0  0  0  0
    5.8771   -2.3651    1.9125 H   0  0  0  0  0  0  0  0  0  0  0  0
  1  2  1  0
  2  3  1  0
  3  4  1  0
  4  5  2  0
  5  6  1  0
  6  7  2  0
  7  8  1  0
  8  9  2  0
  9 10  1  0
 10 11  1  0
  2 12  2  0
 12 13  1  0
 13 14  2  0
 14 15  1  0
 15 16  1  0
 15 17  1  0
 17 18  2  0
 18 19  1  0
 19 20  2  3
 20 21  1  0
 21 22  1  0
 22 23  1  0
 23 24  1  0
 19  1  1  0
  9  4  1  0
 17 12  1  0
  1 25  1  0
  3 26  1  0
  5 27  1  0
  6 28  1  0
  7 29  1  0
  8 30  1  0
 11 31  1  0
 11 32  1  0
 11 33  1  0
 13 34  1  0
 16 35  1  0
 16 36  1  0
 16 37  1  0
 21 38  1  0
 21 39  1  0
 22 40  1  0
 22 41  1  0
 24 42  1  0
 24 43  1  0
 24 44  1  0
M  END
>  <ScrubInfo>  (2) 
{"isomerGroup": 0, "isomerId": 1, "confId": 0, "nr_conformers:": 1, "nr_isomers:": 9}

$$$$
_i2
     RDKit          3D

 44 46  0  0  0  0  0  0  0  0999 V2000
    0.7458   -0.9804   -0.2418 N   0  0  0  0  0  0  0  0  0  0  0  0
    1.7263   -0.1126   -0.6500 C   0  0  0  0  0  0  0  0  0  0  0  0
    2.8956   -0.6926   -1.0570 N   0  0  0  0  0  0  0  0  0  0  0  0
    3.6506   -1.5882   -0.1780 C   0  0  0  0  0  0  0  0  0  0  0  0
    4.5353   -0.7803    0.7820 C   0  0  0  0  0  0  0  0  0  0  0  0
    5.4505    0.0605    0.0686 O   0  0  0  0  0  0  0  0  0  0  0  0
    6.6251   -0.6194   -0.3538 C   0  0  0  0  0  0  0  0  0  0  0  0
    1.5907    1.1878   -0.6796 N   0  0  0  0  0  0  0  0  0  0  0  0
    0.3619    1.5701   -0.2290 C   0  0  0  0  0  0  0  0  0  0  0  0
   -0.6912    0.7721    0.1934 C   0  0  0  0  0  0  0  0  0  0  0  0
   -1.6866    1.6877    0.5775 C   0  0  0  0  0  0  0  0  0  0  0  0
   -1.3148    2.9635    0.4069 N   0  0  0  0  0  0  0  0  0  0  0  0
   -0.0633    2.8617   -0.0968 N   0  0  0  0  0  0  0  0  0  0  0  0
    0.6751    4.0596   -0.4075 C   0  0  0  0  0  0  0  0  0  0  0  0
   -0.5323   -0.6696    0.1619 C   0  0  0  0  0  0  0  0  0  0  0  0
   -1.3953   -1.5956    0.4498 N   0  0  0  0  0  0  0  0  0  0  0  0
   -2.7219   -1.2897    0.7870 C   0  0  0  0  0  0  0  0  0  0  0  0
   -3.0979   -1.3489    2.1341 C   0  0  0  0  0  0  0  0  0  0  0  0
   -4.4114   -1.0822    2.5169 C   0  0  0  0  0  0  0  0  0  0  0  0
   -5.3637   -0.7699    1.5501 C   0  0  0  0  0  0  0  0  0  0  0  0
   -5.0085   -0.7271    0.1986 C   0  0  0  0  0  0  0  0  0  0  0  0
   -3.6911   -0.9879   -0.1943 C   0  0  0  0  0  0  0  0  0  0  0  0
   -3.2465   -0.9722   -1.4934 O   0  0  0  0  0  0  0  0  0  0  0  0
   -4.1326   -0.4591   -2.4778 C   0  0  0  0  0  0  0  0  0  0  0  0
    0.8820   -1.9559   -0.4491 H   0  0  0  0  0  0  0  0  0  0  0  0
    3.5221    0.0517   -1.3746 H   0  0  0  0  0  0  0  0  0  0  0  0
    4.2713   -2.2262   -0.8146 H   0  0  0  0  0  0  0  0  0  0  0  0
    2.9856   -2.2472    0.3899 H   0  0  0  0  0  0  0  0  0  0  0  0
    3.9086   -0.1206    1.3921 H   0  0  0  0  0  0  0  0  0  0  0  0
    5.0781   -1.4429    1.4658 H   0  0  0  0  0  0  0  0  0  0  0  0
    7.2741    0.1015   -0.8583 H   0  0  0  0  0  0  0  0  0  0  0  0
    6.3838   -1.4182   -1.0599 H   0  0  0  0  0  0  0  0  0  0  0  0
    7.1632   -1.0265    0.5076 H   0  0  0  0  0  0  0  0  0  0  0  0
   -2.6707    1.4990    0.9823 H   0  0  0  0  0  0  0  0  0  0  0  0
    0.0271    4.7297   -0.9787 H   0  0  0  0  0  0  0  0  0  0  0  0
    1.5573    3.8125   -1.0022 H   0  0  0  0  0  0  0  0  0  0  0  0
    0.9746    4.5289    0.5328 H   0  0  0  0  0  0  0  0  0  0  0  0
   -2.3563   -1.6055    2.8856 H   0  0  0  0  0  0  0  0  0  0  0  0
   -4.6911   -1.1250    3.5662 H   0  0  0  0  0  0  0  0  0  0  0  0
   -6.3901   -0.5665    1.8466 H   0  0  0  0  0  0  0  0  0  0  0  0
   -5.7842   -0.4943   -0.5229 H   0  0  0  0  0  0  0  0  0  0  0  0
   -4.9958   -1.1192   -2.6105 H   0  0  0  0  0  0  0  0  0  0  0  0
   -4.4474    0.5619   -2.2374 H   0  0  0  0  0  0  0  0  0  0  0  0
   -3.5920   -0.4247   -3.4286 H   0  0  0  0  0  0  0  0  0  0  0  0
  1  2  1  0
  2  3  1  0
  3  4  1  0
  4  5  1  0
  5  6  1  0
  6  7  1  0
  2  8  2  0
  8  9  1  0
  9 10  2  0
 10 11  1  0
 11 12  2  0
 12 13  1  0
 13 14  1  0
 10 15  1  0
 15 16  2  3
 16 17  1  0
 17 18  2  0
 18 19  1  0
 19 20  2  0
 20 21  1  0
 21 22  2  0
 22 23  1  0
 23 24  1  0
 15  1  1  0
 22 17  1  0
 13  9  1  0
  1 25  1  0
  3 26  1  0
  4 27  1  0
  4 28  1  0
  5 29  1  0
  5 30  1  0
  7 31  1  0
  7 32  1  0
  7 33  1  0
 11 34  1  0
 14 35  1  0
 14 36  1  0
 14 37  1  0
 18 38  1  0
 19 39  1  0
 20 40  1  0
 21 41  1  0
 24 42  1  0
 24 43  1  0
 24 44  1  0
M  END
>  <ScrubInfo>  (3) 
{"isomerGroup": 0, "isomerId": 2, "confId": 0, "nr_conformers:": 1, "nr_isomers:": 9}

$$$$
_i3
     RDKit          3D

 44 46  0  0  0  0  0  0  0  0999 V2000
    1.3502   -2.0105   -0.0968 N   0  0  0  0  0  0  0  0  0  0  0  0
    1.7160   -0.6775   -0.2140 C   0  0  0  0  0  0  0  0  0  0  0  0
    2.8713   -0.1803    0.0502 N   0  0  0  0  0  0  0  0  0  0  0  0
    3.9459   -1.0453    0.5332 C   0  0  0  0  0  0  0  0  0  0  0  0
    5.0824   -0.1782    1.0834 C   0  0  0  0  0  0  0  0  0  0  0  0
    4.7957    0.1762    2.4408 O   0  0  0  0  0  0  0  0  0  0  0  0
    5.7347    1.1161    2.9431 C   0  0  0  0  0  0  0  0  0  0  0  0
    0.8131    0.2769   -0.6632 N   0  0  0  0  0  0  0  0  0  0  0  0
   -0.4098   -0.0696   -0.9441 C   0  0  0  0  0  0  0  0  0  0  0  0
   -1.3596    0.7943   -1.4163 N   0  0  0  0  0  0  0  0  0  0  0  0
   -2.4403    1.3068   -0.6320 C   0  0  0  0  0  0  0  0  0  0  0  0
   -2.8574    0.7242    0.5726 C   0  0  0  0  0  0  0  0  0  0  0  0
   -3.9648    1.2249    1.2602 C   0  0  0  0  0  0  0  0  0  0  0  0
   -4.6757    2.3057    0.7474 C   0  0  0  0  0  0  0  0  0  0  0  0
   -4.2841    2.8945   -0.4557 C   0  0  0  0  0  0  0  0  0  0  0  0
   -3.1765    2.3998   -1.1512 C   0  0  0  0  0  0  0  0  0  0  0  0
   -2.6985    2.9125   -2.3351 O   0  0  0  0  0  0  0  0  0  0  0  0
   -3.4416    3.9681   -2.9312 C   0  0  0  0  0  0  0  0  0  0  0  0
   -0.8189   -1.4515   -0.8629 C   0  0  0  0  0  0  0  0  0  0  0  0
   -1.9645   -2.2112   -1.1409 C   0  0  0  0  0  0  0  0  0  0  0  0
   -1.7869   -3.5151   -0.8723 N   0  0  0  0  0  0  0  0  0  0  0  0
   -0.5043   -3.5846   -0.4359 N   0  0  0  0  0  0  0  0  0  0  0  0
    0.0389   -4.8650   -0.0612 C   0  0  0  0  0  0  0  0  0  0  0  0
    0.0982   -2.3670   -0.4300 C   0  0  0  0  0  0  0  0  0  0  0  0
    2.0535   -2.6590    0.2204 H   0  0  0  0  0  0  0  0  0  0  0  0
    4.3253   -1.6361   -0.3079 H   0  0  0  0  0  0  0  0  0  0  0  0
    3.5949   -1.7185    1.3234 H   0  0  0  0  0  0  0  0  0  0  0  0
    5.2165    0.7231    0.4736 H   0  0  0  0  0  0  0  0  0  0  0  0
    6.0135   -0.7561    1.0765 H   0  0  0  0  0  0  0  0  0  0  0  0
    6.7479    0.7045    2.9044 H   0  0  0  0  0  0  0  0  0  0  0  0
    5.6846    2.0493    2.3739 H   0  0  0  0  0  0  0  0  0  0  0  0
    5.4840    1.3303    3.9855 H   0  0  0  0  0  0  0  0  0  0  0  0
   -0.9238    1.6152   -1.8380 H   0  0  0  0  0  0  0  0  0  0  0  0
   -2.3245   -0.1146    1.0101 H   0  0  0  0  0  0  0  0  0  0  0  0
   -4.2703    0.7680    2.1985 H   0  0  0  0  0  0  0  0  0  0  0  0
   -5.5366    2.6931    1.2869 H   0  0  0  0  0  0  0  0  0  0  0  0
   -4.8618    3.7370   -0.8199 H   0  0  0  0  0  0  0  0  0  0  0  0
   -2.9530    4.2285   -3.8751 H   0  0  0  0  0  0  0  0  0  0  0  0
   -4.4641    3.6517   -3.1624 H   0  0  0  0  0  0  0  0  0  0  0  0
   -3.4355    4.8605   -2.2969 H   0  0  0  0  0  0  0  0  0  0  0  0
   -2.9209   -1.8771   -1.5227 H   0  0  0  0  0  0  0  0  0  0  0  0
   -0.6012   -5.2995    0.7110 H   0  0  0  0  0  0  0  0  0  0  0  0
    0.0560   -5.5036   -0.9479 H   0  0  0  0  0  0  0  0  0  0  0  0
    1.0518   -4.7410    0.3273 H   0  0  0  0  0  0  0  0  0  0  0  0
  1  2  1  0
  2  3  2  3
  3  4  1  0
  4  5  1  0
  5  6  1  0
  6  7  1  0
  2  8  1  0
  8  9  2  0
  9 10  1  0
 10 11  1  0
 11 12  2  0
 12 13  1  0
 13 14  2  0
 14 15  1  0
 15 16  2  0
 16 17  1  0
 17 18  1  0
  9 19  1  0
 19 20  1  0
 20 21  2  0
 21 22  1  0
 22 23  1  0
 22 24  1  0
 24  1  1  0
 16 11  1  0
 24 19  2  0
  1 25  1  0
  4 26  1  0
  4 27  1  0
  5 28  1  0
  5 29  1  0
  7 30  1  0
  7 31  1  0
  7 32  1  0
 10 33  1  0
 12 34  1  0
 13 35  1  0
 14 36  1  0
 15 37  1  0
 18 38  1  0
 18 39  1  0
 18 40  1  0
 20 41  1  0
 23 42  1  0
 23 43  1  0
 23 44  1  0
M  END
>  <ScrubInfo>  (4) 
{"isomerGroup": 0, "isomerId": 3, "confId": 0, "nr_conformers:": 1, "nr_isomers:": 9}

$$$$
_i4
     RDKit          3D

 44 46  0  0  0  0  0  0  0  0999 V2000
   -0.3513   -1.4658    3.1081 N   0  0  0  0  0  0  0  0  0  0  0  0
   -1.1590   -0.8137    2.1824 C   0  0  0  0  0  0  0  0  0  0  0  0
   -0.5048   -0.4324    1.0746 C   0  0  0  0  0  0  0  0  0  0  0  0
   -0.7703    0.2336   -0.1943 C   0  0  0  0  0  0  0  0  0  0  0  0
   -1.8451    0.7832   -0.6539 N   0  0  0  0  0  0  0  0  0  0  0  0
   -3.0222    0.7911    0.1051 C   0  0  0  0  0  0  0  0  0  0  0  0
   -3.2934    1.9192    0.8916 C   0  0  0  0  0  0  0  0  0  0  0  0
   -4.4344    1.9781    1.6941 C   0  0  0  0  0  0  0  0  0  0  0  0
   -5.3230    0.9064    1.7154 C   0  0  0  0  0  0  0  0  0  0  0  0
   -5.0793   -0.2134    0.9202 C   0  0  0  0  0  0  0  0  0  0  0  0
   -3.9514   -0.2654    0.0934 C   0  0  0  0  0  0  0  0  0  0  0  0
   -3.8222   -1.4257   -0.6274 O   0  0  0  0  0  0  0  0  0  0  0  0
   -3.4461   -1.2267   -1.9896 C   0  0  0  0  0  0  0  0  0  0  0  0
    0.3120    0.2803   -1.0332 N   0  0  0  0  0  0  0  0  0  0  0  0
    1.4870   -0.1703   -0.7089 C   0  0  0  0  0  0  0  0  0  0  0  0
    2.4598   -0.0623   -1.6572 N   0  0  0  0  0  0  0  0  0  0  0  0
    3.8705   -0.0063   -1.3280 C   0  0  0  0  0  0  0  0  0  0  0  0
    4.6974    0.2015   -2.6028 C   0  0  0  0  0  0  0  0  0  0  0  0
    4.3027    1.3709   -3.3318 O   0  0  0  0  0  0  0  0  0  0  0  0
    4.7473    2.5833   -2.7386 C   0  0  0  0  0  0  0  0  0  0  0  0
    1.8192   -0.7269    0.4972 N   0  0  0  0  0  0  0  0  0  0  0  0
    0.8779   -0.8570    1.3654 C   0  0  0  0  0  0  0  0  0  0  0  0
    0.9570   -1.3903    2.6538 N   0  0  0  0  0  0  0  0  0  0  0  0
    1.8633   -2.4848    2.9464 C   0  0  0  0  0  0  0  0  0  0  0  0
   -0.5160   -1.1661    4.0715 H   0  0  0  0  0  0  0  0  0  0  0  0
   -2.2014   -0.6724    2.4261 H   0  0  0  0  0  0  0  0  0  0  0  0
   -2.6008    2.7573    0.8765 H   0  0  0  0  0  0  0  0  0  0  0  0
   -4.6271    2.8601    2.2993 H   0  0  0  0  0  0  0  0  0  0  0  0
   -6.2109    0.9450    2.3411 H   0  0  0  0  0  0  0  0  0  0  0  0
   -5.7776   -1.0465    0.9290 H   0  0  0  0  0  0  0  0  0  0  0  0
   -2.3617   -1.3095   -2.1003 H   0  0  0  0  0  0  0  0  0  0  0  0
   -3.8153   -0.2800   -2.4003 H   0  0  0  0  0  0  0  0  0  0  0  0
   -3.8953   -2.0352   -2.5751 H   0  0  0  0  0  0  0  0  0  0  0  0
    2.1839    0.5495   -2.4213 H   0  0  0  0  0  0  0  0  0  0  0  0
    4.1848   -0.9382   -0.8452 H   0  0  0  0  0  0  0  0  0  0  0  0
    4.0464    0.8155   -0.6261 H   0  0  0  0  0  0  0  0  0  0  0  0
    5.7678    0.2463   -2.3715 H   0  0  0  0  0  0  0  0  0  0  0  0
    4.5442   -0.6503   -3.2749 H   0  0  0  0  0  0  0  0  0  0  0  0
    4.4872    3.4063   -3.4100 H   0  0  0  0  0  0  0  0  0  0  0  0
    5.8334    2.5742   -2.6061 H   0  0  0  0  0  0  0  0  0  0  0  0
    4.2497    2.7551   -1.7807 H   0  0  0  0  0  0  0  0  0  0  0  0
    1.8473   -2.7164    4.0164 H   0  0  0  0  0  0  0  0  0  0  0  0
    1.5796   -3.3850    2.3912 H   0  0  0  0  0  0  0  0  0  0  0  0
    2.8904   -2.2166    2.6786 H   0  0  0  0  0  0  0  0  0  0  0  0
  1  2  1  0
  2  3  2  0
  3  4  1  0
  4  5  2  3
  5  6  1  0
  6  7  2  0
  7  8  1  0
  8  9  2  0
  9 10  1  0
 10 11  2  0
 11 12  1  0
 12 13  1  0
  4 14  1  0
 14 15  2  0
 15 16  1  0
 16 17  1  0
 17 18  1  0
 18 19  1  0
 19 20  1  0
 15 21  1  0
 21 22  2  0
 22 23  1  0
 23 24  1  0
 23  1  1  0
 22  3  1  0
 11  6  1  0
  1 25  1  0
  2 26  1  0
  7 27  1  0
  8 28  1  0
  9 29  1  0
 10 30  1  0
 13 31  1  0
 13 32  1  0
 13 33  1  0
 16 34  1  0
 17 35  1  0
 17 36  1  0
 18 37  1  0
 18 38  1  0
 20 39  1  0
 20 40  1  0
 20 41  1  0
 24 42  1  0
 24 43  1  0
 24 44  1  0
M  END
>  <ScrubInfo>  (5) 
{"isomerGroup": 0, "isomerId": 4, "confId": 0, "nr_conformers:": 1, "nr_isomers:": 9}

$$$$
_i5
     RDKit          3D

 44 46  0  0  0  0  0  0  0  0999 V2000
    1.4475    2.0056    0.8768 N   0  0  0  0  0  0  0  0  0  0  0  0
    1.1397    1.0669   -0.0816 C   0  0  0  0  0  0  0  0  0  0  0  0
    2.2253    0.4883   -0.6740 N   0  0  0  0  0  0  0  0  0  0  0  0
    3.1728   -0.2772    0.1378 C   0  0  0  0  0  0  0  0  0  0  0  0
    3.9881   -1.2190   -0.7578 C   0  0  0  0  0  0  0  0  0  0  0  0
    3.1609   -2.0403   -1.5906 O   0  0  0  0  0  0  0  0  0  0  0  0
    2.4612   -3.0538   -0.8800 C   0  0  0  0  0  0  0  0  0  0  0  0
   -0.0591    0.7107   -0.4475 N   0  0  0  0  0  0  0  0  0  0  0  0
   -1.1556    1.2951    0.1761 C   0  0  0  0  0  0  0  0  0  0  0  0
   -2.3897    0.9971   -0.0752 N   0  0  0  0  0  0  0  0  0  0  0  0
   -2.6373   -0.0287   -1.0067 C   0  0  0  0  0  0  0  0  0  0  0  0
   -2.9742    0.3275   -2.3185 C   0  0  0  0  0  0  0  0  0  0  0  0
   -3.2532   -0.6499   -3.2724 C   0  0  0  0  0  0  0  0  0  0  0  0
   -3.2069   -1.9951   -2.9169 C   0  0  0  0  0  0  0  0  0  0  0  0
   -2.8880   -2.3667   -1.6072 C   0  0  0  0  0  0  0  0  0  0  0  0
   -2.6091   -1.3918   -0.6414 C   0  0  0  0  0  0  0  0  0  0  0  0
   -2.2947   -1.6602    0.6692 O   0  0  0  0  0  0  0  0  0  0  0  0
   -2.3774   -3.0110    1.0958 C   0  0  0  0  0  0  0  0  0  0  0  0
   -0.8822    2.3177    1.1549 C   0  0  0  0  0  0  0  0  0  0  0  0
   -1.6489    3.1708    1.9595 C   0  0  0  0  0  0  0  0  0  0  0  0
   -0.8860    3.9824    2.7120 N   0  0  0  0  0  0  0  0  0  0  0  0
    0.3823    3.6335    2.3791 N   0  0  0  0  0  0  0  0  0  0  0  0
    1.4837    4.3139    3.0100 C   0  0  0  0  0  0  0  0  0  0  0  0
    0.4127    2.6344    1.4598 C   0  0  0  0  0  0  0  0  0  0  0  0
    2.4029    2.3334    0.9043 H   0  0  0  0  0  0  0  0  0  0  0  0
    1.8800   -0.1224   -1.4211 H   0  0  0  0  0  0  0  0  0  0  0  0
    3.8477    0.4028    0.6684 H   0  0  0  0  0  0  0  0  0  0  0  0
    2.6248   -0.8600    0.8866 H   0  0  0  0  0  0  0  0  0  0  0  0
    4.6586   -1.8462   -0.1594 H   0  0  0  0  0  0  0  0  0  0  0  0
    4.6125   -0.6229   -1.4324 H   0  0  0  0  0  0  0  0  0  0  0  0
    1.6921   -2.6183   -0.2366 H   0  0  0  0  0  0  0  0  0  0  0  0
    1.9667   -3.7011   -1.6094 H   0  0  0  0  0  0  0  0  0  0  0  0
    3.1530   -3.6610   -0.2886 H   0  0  0  0  0  0  0  0  0  0  0  0
   -3.0124    1.3784   -2.5911 H   0  0  0  0  0  0  0  0  0  0  0  0
   -3.5057   -0.3597   -4.2884 H   0  0  0  0  0  0  0  0  0  0  0  0
   -3.4224   -2.7589   -3.6597 H   0  0  0  0  0  0  0  0  0  0  0  0
   -2.8655   -3.4251   -1.3732 H   0  0  0  0  0  0  0  0  0  0  0  0
   -1.6297   -3.6299    0.5891 H   0  0  0  0  0  0  0  0  0  0  0  0
   -3.3864   -3.4124    0.9547 H   0  0  0  0  0  0  0  0  0  0  0  0
   -2.1571   -3.0374    2.1674 H   0  0  0  0  0  0  0  0  0  0  0  0
   -2.7270    3.2407    2.0269 H   0  0  0  0  0  0  0  0  0  0  0  0
    1.3815    4.2076    4.0930 H   0  0  0  0  0  0  0  0  0  0  0  0
    1.4458    5.3679    2.7238 H   0  0  0  0  0  0  0  0  0  0  0  0
    2.4287    3.8742    2.6844 H   0  0  0  0  0  0  0  0  0  0  0  0
  1  2  1  0
  2  3  1  0
  3  4  1  0
  4  5  1  0
  5  6  1  0
  6  7  1  0
  2  8  2  0
  8  9  1  0
  9 10  2  3
 10 11  1  0
 11 12  2  0
 12 13  1  0
 13 14  2  0
 14 15  1  0
 15 16  2  0
 16 17  1  0
 17 18  1  0
  9 19  1  0
 19 20  1  0
 20 21  2  0
 21 22  1  0
 22 23  1  0
 22 24  1  0
 24  1  1  0
 16 11  1  0
 24 19  2  0
  1 25  1  0
  3 26  1  0
  4 27  1  0
  4 28  1  0
  5 29  1  0
  5 30  1  0
  7 31  1  0
  7 32  1  0
  7 33  1  0
 12 34  1  0
 13 35  1  0
 14 36  1  0
 15 37  1  0
 18 38  1  0
 18 39  1  0
 18 40  1  0
 20 41  1  0
 23 42  1  0
 23 43  1  0
 23 44  1  0
M  END
>  <ScrubInfo>  (6) 
{"isomerGroup": 0, "isomerId": 5, "confId": 0, "nr_conformers:": 1, "nr_isomers:": 9}

$$$$
_i6
     RDKit          3D

 44 46  0  0  0  0  0  0  0  0999 V2000
   -0.2430    4.0900   -0.3634 N   0  0  0  0  0  0  0  0  0  0  0  0
   -1.1005    2.9968   -0.4273 C   0  0  0  0  0  0  0  0  0  0  0  0
   -0.4762    1.8298   -0.2157 C   0  0  0  0  0  0  0  0  0  0  0  0
   -0.8067    0.4018   -0.1803 C   0  0  0  0  0  0  0  0  0  0  0  0
   -2.1156    0.0158   -0.3718 N   0  0  0  0  0  0  0  0  0  0  0  0
   -2.7133   -1.2649   -0.3996 C   0  0  0  0  0  0  0  0  0  0  0  0
   -2.0148   -2.4618   -0.2151 C   0  0  0  0  0  0  0  0  0  0  0  0
   -2.6762   -3.6923   -0.2544 C   0  0  0  0  0  0  0  0  0  0  0  0
   -4.0482   -3.7434   -0.4783 C   0  0  0  0  0  0  0  0  0  0  0  0
   -4.7689   -2.5641   -0.6648 C   0  0  0  0  0  0  0  0  0  0  0  0
   -4.1121   -1.3296   -0.6270 C   0  0  0  0  0  0  0  0  0  0  0  0
   -4.7255   -0.1056   -0.7983 O   0  0  0  0  0  0  0  0  0  0  0  0
   -6.1275   -0.1193   -1.0408 C   0  0  0  0  0  0  0  0  0  0  0  0
    0.1785   -0.4215    0.0334 N   0  0  0  0  0  0  0  0  0  0  0  0
    1.4579    0.0540    0.2003 C   0  0  0  0  0  0  0  0  0  0  0  0
    2.3413   -0.8738    0.3201 N   0  0  0  0  0  0  0  0  0  0  0  0
    3.7327   -0.4628    0.5023 C   0  0  0  0  0  0  0  0  0  0  0  0
    4.6147   -1.7128    0.5626 C   0  0  0  0  0  0  0  0  0  0  0  0
    6.0040   -1.3899    0.6806 O   0  0  0  0  0  0  0  0  0  0  0  0
    6.3823   -1.0563    2.0089 C   0  0  0  0  0  0  0  0  0  0  0  0
    1.8475    1.3728    0.2533 N   0  0  0  0  0  0  0  0  0  0  0  0
    0.9162    2.2400    0.0623 C   0  0  0  0  0  0  0  0  0  0  0  0
    1.0005    3.6330    0.0612 N   0  0  0  0  0  0  0  0  0  0  0  0
    2.1983    4.3051   -0.4066 C   0  0  0  0  0  0  0  0  0  0  0  0
   -0.6281    4.8845    0.1530 H   0  0  0  0  0  0  0  0  0  0  0  0
   -2.1476    3.1678   -0.6302 H   0  0  0  0  0  0  0  0  0  0  0  0
   -2.8137    0.7335   -0.5396 H   0  0  0  0  0  0  0  0  0  0  0  0
   -0.9435   -2.4701   -0.0380 H   0  0  0  0  0  0  0  0  0  0  0  0
   -2.1108   -4.6097   -0.1090 H   0  0  0  0  0  0  0  0  0  0  0  0
   -4.5565   -4.7039   -0.5077 H   0  0  0  0  0  0  0  0  0  0  0  0
   -5.8364   -2.6449   -0.8364 H   0  0  0  0  0  0  0  0  0  0  0  0
   -6.3628   -0.6486   -1.9700 H   0  0  0  0  0  0  0  0  0  0  0  0
   -6.4550    0.9182   -1.1580 H   0  0  0  0  0  0  0  0  0  0  0  0
   -6.6710   -0.5448   -0.1908 H   0  0  0  0  0  0  0  0  0  0  0  0
    4.0771    0.1685   -0.3265 H   0  0  0  0  0  0  0  0  0  0  0  0
    3.8447    0.1117    1.4287 H   0  0  0  0  0  0  0  0  0  0  0  0
    4.3066   -2.3820    1.3753 H   0  0  0  0  0  0  0  0  0  0  0  0
    4.4994   -2.2769   -0.3700 H   0  0  0  0  0  0  0  0  0  0  0  0
    6.1536   -1.8785    2.6939 H   0  0  0  0  0  0  0  0  0  0  0  0
    7.4624   -0.8861    2.0229 H   0  0  0  0  0  0  0  0  0  0  0  0
    5.8881   -0.1394    2.3400 H   0  0  0  0  0  0  0  0  0  0  0  0
    2.1150    5.3851   -0.2482 H   0  0  0  0  0  0  0  0  0  0  0  0
    2.3559    4.1209   -1.4745 H   0  0  0  0  0  0  0  0  0  0  0  0
    3.0771    3.9535    0.1435 H   0  0  0  0  0  0  0  0  0  0  0  0
  1  2  1  0
  2  3  2  0
  3  4  1  0
  4  5  1  0
  5  6  1  0
  6  7  2  0
  7  8  1  0
  8  9  2  0
  9 10  1  0
 10 11  2  0
 11 12  1  0
 12 13  1  0
  4 14  2  0
 14 15  1  0
 15 16  2  3
 16 17  1  0
 17 18  1  0
 18 19  1  0
 19 20  1  0
 15 21  1  0
 21 22  2  0
 22 23  1  0
 23 24  1  0
 23  1  1  0
 22  3  1  0
 11  6  1  0
  1 25  1  0
  2 26  1  0
  5 27  1  0
  7 28  1  0
  8 29  1  0
  9 30  1  0
 10 31  1  0
 13 32  1  0
 13 33  1  0
 13 34  1  0
 17 35  1  0
 17 36  1  0
 18 37  1  0
 18 38  1  0
 20 39  1  0
 20 40  1  0
 20 41  1  0
 24 42  1  0
 24 43  1  0
 24 44  1  0
M  END
>  <ScrubInfo>  (7) 
{"isomerGroup": 0, "isomerId": 6, "confId": 0, "nr_conformers:": 1, "nr_isomers:": 9}

$$$$
_i7
     RDKit          3D

 44 46  0  0  0  0  0  0  0  0999 V2000
   -1.1592   -1.4410    2.4743 N   0  0  0  0  0  0  0  0  0  0  0  0
   -1.5703   -0.4336    1.6085 C   0  0  0  0  0  0  0  0  0  0  0  0
   -0.6334   -0.0712    0.7209 C   0  0  0  0  0  0  0  0  0  0  0  0
   -0.4414    0.8532   -0.4145 C   0  0  0  0  0  0  0  0  0  0  0  0
   -1.2670    1.7166   -0.9267 N   0  0  0  0  0  0  0  0  0  0  0  0
   -2.5766    1.8393   -0.4359 C   0  0  0  0  0  0  0  0  0  0  0  0
   -2.8668    2.9033    0.4261 C   0  0  0  0  0  0  0  0  0  0  0  0
   -4.1591    3.0901    0.9142 C   0  0  0  0  0  0  0  0  0  0  0  0
   -5.1753    2.2181    0.5324 C   0  0  0  0  0  0  0  0  0  0  0  0
   -4.9054    1.1617   -0.3428 C   0  0  0  0  0  0  0  0  0  0  0  0
   -3.6116    0.9689   -0.8405 C   0  0  0  0  0  0  0  0  0  0  0  0
   -3.2473   -0.0470   -1.6894 O   0  0  0  0  0  0  0  0  0  0  0  0
   -4.2914   -0.8071   -2.2806 C   0  0  0  0  0  0  0  0  0  0  0  0
    0.8073    0.7405   -0.9629 N   0  0  0  0  0  0  0  0  0  0  0  0
    1.8108   -0.1032   -0.5830 C   0  0  0  0  0  0  0  0  0  0  0  0
    2.9115   -0.0951   -1.2596 N   0  0  0  0  0  0  0  0  0  0  0  0
    3.9787   -0.9999   -0.8197 C   0  0  0  0  0  0  0  0  0  0  0  0
    5.2185   -0.8009   -1.7033 C   0  0  0  0  0  0  0  0  0  0  0  0
    5.8095    0.5005   -1.6224 O   0  0  0  0  0  0  0  0  0  0  0  0
    6.3541    0.8034   -0.3479 C   0  0  0  0  0  0  0  0  0  0  0  0
    1.6729   -0.9492    0.4979 N   0  0  0  0  0  0  0  0  0  0  0  0
    0.5376   -0.9288    1.1252 C   0  0  0  0  0  0  0  0  0  0  0  0
    0.1907   -1.6740    2.2558 N   0  0  0  0  0  0  0  0  0  0  0  0
    0.7166   -3.0104    2.4577 C   0  0  0  0  0  0  0  0  0  0  0  0
   -1.4371   -1.2774    3.4445 H   0  0  0  0  0  0  0  0  0  0  0  0
   -2.5698   -0.0413    1.7210 H   0  0  0  0  0  0  0  0  0  0  0  0
   -2.0753    3.5924    0.7086 H   0  0  0  0  0  0  0  0  0  0  0  0
   -4.3723    3.9202    1.5827 H   0  0  0  0  0  0  0  0  0  0  0  0
   -6.1847    2.3644    0.9095 H   0  0  0  0  0  0  0  0  0  0  0  0
   -5.7255    0.5062   -0.6154 H   0  0  0  0  0  0  0  0  0  0  0  0
   -4.9944   -0.1661   -2.8231 H   0  0  0  0  0  0  0  0  0  0  0  0
   -4.8072   -1.4136   -1.5292 H   0  0  0  0  0  0  0  0  0  0  0  0
   -3.8383   -1.4910   -3.0046 H   0  0  0  0  0  0  0  0  0  0  0  0
    1.0060    1.3185   -1.7657 H   0  0  0  0  0  0  0  0  0  0  0  0
    4.2343   -0.8144    0.2290 H   0  0  0  0  0  0  0  0  0  0  0  0
    3.6507   -2.0415   -0.9217 H   0  0  0  0  0  0  0  0  0  0  0  0
    5.9794   -1.5507   -1.4568 H   0  0  0  0  0  0  0  0  0  0  0  0
    4.9437   -0.9547   -2.7528 H   0  0  0  0  0  0  0  0  0  0  0  0
    6.9392    1.7230   -0.4374 H   0  0  0  0  0  0  0  0  0  0  0  0
    7.0165    0.0035   -0.0033 H   0  0  0  0  0  0  0  0  0  0  0  0
    5.5592    0.9811    0.3812 H   0  0  0  0  0  0  0  0  0  0  0  0
    0.4065   -3.3984    3.4335 H   0  0  0  0  0  0  0  0  0  0  0  0
    0.3545   -3.6924    1.6812 H   0  0  0  0  0  0  0  0  0  0  0  0
    1.8111   -3.0023    2.4349 H   0  0  0  0  0  0  0  0  0  0  0  0
  1  2  1  0
  2  3  2  0
  3  4  1  0
  4  5  2  3
  5  6  1  0
  6  7  2  0
  7  8  1  0
  8  9  2  0
  9 10  1  0
 10 11  2  0
 11 12  1  0
 12 13  1  0
  4 14  1  0
 14 15  1  0
 15 16  2  3
 16 17  1  0
 17 18  1  0
 18 19  1  0
 19 20  1  0
 15 21  1  0
 21 22  2  0
 22 23  1  0
 23 24  1  0
 23  1  1  0
 22  3  1  0
 11  6  1  0
  1 25  1  0
  2 26  1  0
  7 27  1  0
  8 28  1  0
  9 29  1  0
 10 30  1  0
 13 31  1  0
 13 32  1  0
 13 33  1  0
 14 34  1  0
 17 35  1  0
 17 36  1  0
 18 37  1  0
 18 38  1  0
 20 39  1  0
 20 40  1  0
 20 41  1  0
 24 42  1  0
 24 43  1  0
 24 44  1  0
M  END
>  <ScrubInfo>  (8) 
{"isomerGroup": 0, "isomerId": 7, "confId": 0, "nr_conformers:": 1, "nr_isomers:": 9}

$$$$
_i8
     RDKit          3D

 44 46  0  0  0  0  0  0  0  0999 V2000
    0.7708    0.4957    1.5145 N   0  0  0  0  0  0  0  0  0  0  0  0
    1.5278    0.7724    0.3878 C   0  0  0  0  0  0  0  0  0  0  0  0
    2.7869    1.0528    0.3292 N   0  0  0  0  0  0  0  0  0  0  0  0
    3.5384    1.0906    1.5821 C   0  0  0  0  0  0  0  0  0  0  0  0
    4.9979    1.4320    1.2904 C   0  0  0  0  0  0  0  0  0  0  0  0
    5.7181    1.4666    2.5252 O   0  0  0  0  0  0  0  0  0  0  0  0
    7.0889    1.7803    2.3155 C   0  0  0  0  0  0  0  0  0  0  0  0
    0.8006    0.7306   -0.7810 N   0  0  0  0  0  0  0  0  0  0  0  0
   -0.5261    0.4509   -1.0308 C   0  0  0  0  0  0  0  0  0  0  0  0
   -0.9920    0.4552   -2.2432 N   0  0  0  0  0  0  0  0  0  0  0  0
   -2.3215    0.1170   -2.5329 C   0  0  0  0  0  0  0  0  0  0  0  0
   -3.2299    1.1501   -2.7923 C   0  0  0  0  0  0  0  0  0  0  0  0
   -4.5545    0.8654   -3.1195 C   0  0  0  0  0  0  0  0  0  0  0  0
   -4.9763   -0.4588   -3.2046 C   0  0  0  0  0  0  0  0  0  0  0  0
   -4.0758   -1.5021   -2.9690 C   0  0  0  0  0  0  0  0  0  0  0  0
   -2.7442   -1.2261   -2.6388 C   0  0  0  0  0  0  0  0  0  0  0  0
   -1.7881   -2.1780   -2.3838 O   0  0  0  0  0  0  0  0  0  0  0  0
   -2.1803   -3.5399   -2.4722 C   0  0  0  0  0  0  0  0  0  0  0  0
   -1.2394    0.1907    0.2091 C   0  0  0  0  0  0  0  0  0  0  0  0
   -2.5602   -0.0937    0.6028 C   0  0  0  0  0  0  0  0  0  0  0  0
   -2.6908   -0.2394    1.9305 N   0  0  0  0  0  0  0  0  0  0  0  0
   -1.4377   -0.0516    2.3980 N   0  0  0  0  0  0  0  0  0  0  0  0
   -1.1947   -0.1315    3.8163 C   0  0  0  0  0  0  0  0  0  0  0  0
   -0.5502    0.2235    1.4032 C   0  0  0  0  0  0  0  0  0  0  0  0
    1.2467    0.5168    2.4061 H   0  0  0  0  0  0  0  0  0  0  0  0
    3.1266    1.8447    2.2645 H   0  0  0  0  0  0  0  0  0  0  0  0
    3.4961    0.1218    2.0954 H   0  0  0  0  0  0  0  0  0  0  0  0
    5.0645    2.4090    0.7969 H   0  0  0  0  0  0  0  0  0  0  0  0
    5.4362    0.6756    0.6285 H   0  0  0  0  0  0  0  0  0  0  0  0
    7.5640    1.0209    1.6869 H   0  0  0  0  0  0  0  0  0  0  0  0
    7.5912    1.7938    3.2864 H   0  0  0  0  0  0  0  0  0  0  0  0
    7.1901    2.7682    1.8559 H   0  0  0  0  0  0  0  0  0  0  0  0
    1.3431    0.9109   -1.6129 H   0  0  0  0  0  0  0  0  0  0  0  0
   -2.8947    2.1825   -2.7393 H   0  0  0  0  0  0  0  0  0  0  0  0
   -5.2524    1.6757   -3.3138 H   0  0  0  0  0  0  0  0  0  0  0  0
   -6.0088   -0.6827   -3.4624 H   0  0  0  0  0  0  0  0  0  0  0  0
   -4.4454   -2.5184   -3.0531 H   0  0  0  0  0  0  0  0  0  0  0  0
   -2.9532   -3.7769   -1.7337 H   0  0  0  0  0  0  0  0  0  0  0  0
   -1.3045   -4.1554   -2.2448 H   0  0  0  0  0  0  0  0  0  0  0  0
   -2.5092   -3.7919   -3.4857 H   0  0  0  0  0  0  0  0  0  0  0  0
   -3.4480   -0.1985   -0.0049 H   0  0  0  0  0  0  0  0  0  0  0  0
   -0.1761   -0.4858    3.9902 H   0  0  0  0  0  0  0  0  0  0  0  0
   -1.9032   -0.8346    4.2622 H   0  0  0  0  0  0  0  0  0  0  0  0
   -1.3306    0.8659    4.2411 H   0  0  0  0  0  0  0  0  0  0  0  0
  1  2  1  0
  2  3  2  3
  3  4  1  0
  4  5  1  0
  5  6  1  0
  6  7  1  0
  2  8  1  0
  8  9  1  0
  9 10  2  3
 10 11  1  0
 11 12  2  0
 12 13  1  0
 13 14  2  0
 14 15  1  0
 15 16  2  0
 16 17  1  0
 17 18  1  0
  9 19  1  0
 19 20  1  0
 20 21  2  0
 21 22  1  0
 22 23  1  0
 22 24  1  0
 24  1  1  0
 16 11  1  0
 24 19  2  0
  1 25  1  0
  4 26  1  0
  4 27  1  0
  5 28  1  0
  5 29  1  0
  7 30  1  0
  7 31  1  0
  7 32  1  0
  8 33  1  0
 12 34  1  0
 13 35  1  0
 14 36  1  0
 15 37  1  0
 18 38  1  0
 18 39  1  0
 18 40  1  0
 20 41  1  0
 23 42  1  0
 23 43  1  0
 23 44  1  0
M  END
>  <ScrubInfo>  (9) 
{"isomerGroup": 0, "isomerId": 8, "confId": 0, "nr_conformers:": 1, "nr_isomers:": 9}

$$$$
