REMARK SMILES C[NH+](C)CCNc1nc(Nc2ccc(F)cc2)c2nccnc2n1
REMARK SMILES IDX 6 1 5 3 4 4 2 5 1 6 3 7 7 9 8 10 24 11 9 12 23 13 18 14
REMARK SMILES IDX 22 15 19 16 21 17 20 18 10 19 11 21 12 22 17 23 13 24 16 25
REMARK SMILES IDX 14 26 15 27
REMARK H PARENT 6 2 2 8 10 20
ROOT
ATOM      1  N   UNL     1       2.158   1.567   0.348  1.00  0.00    -0.348 N 
ATOM      2  H   UNL     1       1.789   2.495   0.576  1.00  0.00     0.163 HD
ENDROOT
BRANCH   1   3
ATOM      3  C   UNL     1       3.207   1.653  -0.682  1.00  0.00     0.177 C 
BRANCH   3   4
ATOM      4  C   UNL     1       3.972   0.324  -0.904  1.00  0.00     0.283 C 
BRANCH   4   5
ATOM      5  N   UNL     1       4.024  -0.495   0.372  1.00  0.00    -0.338 N 
ATOM      6  C   UNL     1       4.194  -1.958   0.110  1.00  0.00     0.332 C 
ATOM      7  C   UNL     1       4.981   0.027   1.394  1.00  0.00     0.332 C 
ATOM      8  H   UNL     1       3.070  -0.382   0.760  1.00  0.00     0.347 HD
ENDBRANCH   4   5
ENDBRANCH   3   4
ENDBRANCH   1   3
BRANCH   1   9
ATOM      9  C   UNL     1       1.022   0.875  -0.067  1.00  0.00     0.227 A 
ATOM     10  N   UNL     1      -0.138   1.503   0.028  1.00  0.00    -0.193 NA
ATOM     11  N   UNL     1       1.167  -0.385  -0.452  1.00  0.00    -0.191 NA
ATOM     12  C   UNL     1      -1.250   0.809  -0.307  1.00  0.00     0.164 A 
ATOM     13  C   UNL     1       0.076  -1.051  -0.807  1.00  0.00     0.185 A 
ATOM     14  C   UNL     1      -1.218  -0.511  -0.773  1.00  0.00     0.150 A 
ATOM     15  N   UNL     1       0.285  -2.303  -1.220  1.00  0.00    -0.233 NA
ATOM     16  N   UNL     1      -2.297  -1.246  -1.187  1.00  0.00    -0.247 NA
ATOM     17  C   UNL     1      -0.791  -3.020  -1.621  1.00  0.00     0.133 A 
ATOM     18  C   UNL     1      -2.064  -2.501  -1.608  1.00  0.00     0.132 A 
BRANCH  12  19
ATOM     19  N   UNL     1      -2.438   1.558  -0.203  1.00  0.00    -0.338 N 
ATOM     20  H   UNL     1      -2.196   2.503   0.084  1.00  0.00     0.168 HD
BRANCH  19  21
ATOM     21  C   UNL     1      -3.702   1.201   0.312  1.00  0.00     0.040 A 
ATOM     22  C   UNL     1      -4.791   2.042   0.024  1.00  0.00     0.029 A 
ATOM     23  C   UNL     1      -3.927   0.070   1.108  1.00  0.00     0.029 A 
ATOM     24  C   UNL     1      -6.069   1.755   0.509  1.00  0.00     0.041 A 
ATOM     25  C   UNL     1      -5.205  -0.218   1.595  1.00  0.00     0.041 A 
ATOM     26  C   UNL     1      -6.264   0.625   1.290  1.00  0.00     0.123 A 
ATOM     27  F   UNL     1      -7.487   0.347   1.758  1.00  0.00    -0.207 F 
ENDBRANCH  19  21
ENDBRANCH  12  19
ENDBRANCH   1   9
TORSDOF 6
