_i0
     RDKit          3D

 43 45  0  0  0  0  0  0  0  0999 V2000
    4.1943   -1.9585    0.1096 C   0  0  0  0  0  0  0  0  0  0  0  0
    4.0244   -0.4947    0.3725 N   0  0  0  0  0  4  0  0  0  0  0  0
    4.9807    0.0266    1.3942 C   0  0  0  0  0  0  0  0  0  0  0  0
    3.9718    0.3241   -0.9037 C   0  0  0  0  0  0  0  0  0  0  0  0
    3.2072    1.6527   -0.6824 C   0  0  0  0  0  0  0  0  0  0  0  0
    2.1575    1.5675    0.3482 N   0  0  0  0  0  0  0  0  0  0  0  0
    1.0221    0.8747   -0.0668 C   0  0  0  0  0  0  0  0  0  0  0  0
   -0.1376    1.5033    0.0275 N   0  0  0  0  0  0  0  0  0  0  0  0
    1.1672   -0.3848   -0.4520 N   0  0  0  0  0  0  0  0  0  0  0  0
   -1.2502    0.8088   -0.3069 C   0  0  0  0  0  0  0  0  0  0  0  0
    0.0759   -1.0507   -0.8071 C   0  0  0  0  0  0  0  0  0  0  0  0
   -2.4378    1.5581   -0.2031 N   0  0  0  0  0  0  0  0  0  0  0  0
   -1.2179   -0.5112   -0.7729 C   0  0  0  0  0  0  0  0  0  0  0  0
    0.2854   -2.3031   -1.2203 N   0  0  0  0  0  0  0  0  0  0  0  0
   -3.7024    1.2009    0.3116 C   0  0  0  0  0  0  0  0  0  0  0  0
   -2.2969   -1.2456   -1.1867 N   0  0  0  0  0  0  0  0  0  0  0  0
   -0.7914   -3.0203   -1.6205 C   0  0  0  0  0  0  0  0  0  0  0  0
   -4.7912    2.0415    0.0236 C   0  0  0  0  0  0  0  0  0  0  0  0
   -3.9269    0.0703    1.1080 C   0  0  0  0  0  0  0  0  0  0  0  0
   -2.0638   -2.5013   -1.6079 C   0  0  0  0  0  0  0  0  0  0  0  0
   -6.0695    1.7551    0.5086 C   0  0  0  0  0  0  0  0  0  0  0  0
   -5.2053   -0.2185    1.5953 C   0  0  0  0  0  0  0  0  0  0  0  0
   -6.2643    0.6254    1.2899 C   0  0  0  0  0  0  0  0  0  0  0  0
   -7.4874    0.3468    1.7579 F   0  0  0  0  0  0  0  0  0  0  0  0
    5.1740   -2.1157   -0.3494 H   0  0  0  0  0  0  0  0  0  0  0  0
    3.3937   -2.2885   -0.5571 H   0  0  0  0  0  0  0  0  0  0  0  0
    4.1205   -2.4870    1.0636 H   0  0  0  0  0  0  0  0  0  0  0  0
    3.0704   -0.3817    0.7604 H   0  0  0  0  0  0  0  0  0  0  0  0
    4.8631   -0.5667    2.3049 H   0  0  0  0  0  0  0  0  0  0  0  0
    4.7399    1.0713    1.6030 H   0  0  0  0  0  0  0  0  0  0  0  0
    5.9957   -0.0660    0.9988 H   0  0  0  0  0  0  0  0  0  0  0  0
    4.9976    0.4937   -1.2481 H   0  0  0  0  0  0  0  0  0  0  0  0
    3.4533   -0.2782   -1.6576 H   0  0  0  0  0  0  0  0  0  0  0  0
    2.8053    2.0244   -1.6333 H   0  0  0  0  0  0  0  0  0  0  0  0
    3.9292    2.4041   -0.3408 H   0  0  0  0  0  0  0  0  0  0  0  0
    1.7891    2.4955    0.5756 H   0  0  0  0  0  0  0  0  0  0  0  0
   -2.1960    2.5034    0.0840 H   0  0  0  0  0  0  0  0  0  0  0  0
   -0.5955   -4.0330   -1.9567 H   0  0  0  0  0  0  0  0  0  0  0  0
   -4.6513    2.9226   -0.5986 H   0  0  0  0  0  0  0  0  0  0  0  0
   -3.1157   -0.5999    1.3728 H   0  0  0  0  0  0  0  0  0  0  0  0
   -2.9272   -3.0720   -1.9318 H   0  0  0  0  0  0  0  0  0  0  0  0
   -6.9101    2.4018    0.2779 H   0  0  0  0  0  0  0  0  0  0  0  0
   -5.3796   -1.0953    2.2107 H   0  0  0  0  0  0  0  0  0  0  0  0
  1  2  1  0
  2  3  1  0
  2  4  1  0
  4  5  1  0
  5  6  1  0
  6  7  1  0
  7  8  2  0
  9  7  1  0
  8 10  1  0
 11  9  2  0
 10 12  1  0
 10 13  2  0
 14 11  1  0
 11 13  1  0
 12 15  1  0
 13 16  1  0
 17 14  2  0
 15 18  2  0
 19 15  1  0
 16 20  2  0
 20 17  1  0
 18 21  1  0
 22 19  2  0
 21 23  2  0
 23 22  1  0
 23 24  1  0
  1 25  1  0
  1 26  1  0
  1 27  1  0
  2 28  1  0
  3 29  1  0
  3 30  1  0
  3 31  1  0
  4 32  1  0
  4 33  1  0
  5 34  1  0
  5 35  1  0
  6 36  1  0
 12 37  1  0
 17 38  1  0
 18 39  1  0
 19 40  1  0
 20 41  1  0
 21 42  1  0
 22 43  1  0
M  CHG  1   2   1
M  END
>  <ScrubInfo>  (1) 
{"isomerGroup": 0, "isomerId": 0, "confId": 0, "nr_conformers:": 1, "nr_isomers:": 9}

$$$$
_i1
     RDKit          3D

 43 45  0  0  0  0  0  0  0  0999 V2000
    0.8529    0.5627   -0.4927 N   0  0  0  0  0  0  0  0  0  0  0  0
    1.7302   -0.4959   -0.5742 C   0  0  0  0  0  0  0  0  0  0  0  0
    3.0908   -0.3153   -0.7765 N   0  0  0  0  0  0  0  0  0  0  0  0
    3.9343    0.7159   -0.3225 C   0  0  0  0  0  0  0  0  0  0  0  0
    3.5628    1.6566    0.6483 C   0  0  0  0  0  0  0  0  0  0  0  0
    4.4343    2.6848    1.0214 C   0  0  0  0  0  0  0  0  0  0  0  0
    5.6802    2.7829    0.4174 C   0  0  0  0  0  0  0  0  0  0  0  0
    6.5120    3.7688    0.7751 F   0  0  0  0  0  0  0  0  0  0  0  0
    6.0725    1.8710   -0.5512 C   0  0  0  0  0  0  0  0  0  0  0  0
    5.2001    0.8438   -0.9200 C   0  0  0  0  0  0  0  0  0  0  0  0
    1.2243   -1.7536   -0.5226 C   0  0  0  0  0  0  0  0  0  0  0  0
    2.0044   -2.8845   -0.6337 N   0  0  0  0  0  0  0  0  0  0  0  0
    1.3696   -4.0025   -0.5117 C   0  0  0  0  0  0  0  0  0  0  0  0
   -0.1014   -4.0750   -0.2598 C   0  0  0  0  0  0  0  0  0  0  0  0
   -0.8567   -3.0304   -0.1705 N   0  0  0  0  0  0  0  0  0  0  0  0
   -0.2723   -1.7943   -0.3246 C   0  0  0  0  0  0  0  0  0  0  0  0
   -1.0821   -0.7882   -0.2773 N   0  0  0  0  0  0  0  0  0  0  0  0
   -0.4989    0.4410   -0.4351 C   0  0  0  0  0  0  0  0  0  0  0  0
   -1.2488    1.4910   -0.5132 N   0  0  0  0  0  0  0  0  0  0  0  0
   -2.7011    1.2853   -0.5108 C   0  0  0  0  0  0  0  0  0  0  0  0
   -3.2233    1.0335    0.9117 C   0  0  0  0  0  0  0  0  0  0  0  0
   -4.4654    0.1615    0.9544 N   0  0  0  0  0  4  0  0  0  0  0  0
   -4.1763   -1.2765    0.6092 C   0  0  0  0  0  0  0  0  0  0  0  0
   -5.6243    0.7202    0.1870 C   0  0  0  0  0  0  0  0  0  0  0  0
    1.2277    1.4655   -0.7547 H   0  0  0  0  0  0  0  0  0  0  0  0
    3.5826   -1.1994   -0.9241 H   0  0  0  0  0  0  0  0  0  0  0  0
    2.6089    1.5866    1.1618 H   0  0  0  0  0  0  0  0  0  0  0  0
    4.1515    3.4046    1.7831 H   0  0  0  0  0  0  0  0  0  0  0  0
    7.0486    1.9656   -1.0163 H   0  0  0  0  0  0  0  0  0  0  0  0
    5.5132    0.1449   -1.6929 H   0  0  0  0  0  0  0  0  0  0  0  0
    1.8845   -4.9731   -0.5842 H   0  0  0  0  0  0  0  0  0  0  0  0
   -0.5083   -5.0921   -0.1510 H   0  0  0  0  0  0  0  0  0  0  0  0
   -3.1680    2.1983   -0.8998 H   0  0  0  0  0  0  0  0  0  0  0  0
   -2.9790    0.4987   -1.2210 H   0  0  0  0  0  0  0  0  0  0  0  0
   -3.4937    1.9827    1.3892 H   0  0  0  0  0  0  0  0  0  0  0  0
   -2.4859    0.5490    1.5608 H   0  0  0  0  0  0  0  0  0  0  0  0
   -4.7481    0.1537    1.9419 H   0  0  0  0  0  0  0  0  0  0  0  0
   -3.3591   -1.6237    1.2459 H   0  0  0  0  0  0  0  0  0  0  0  0
   -5.0787   -1.8551    0.8253 H   0  0  0  0  0  0  0  0  0  0  0  0
   -3.9238   -1.3518   -0.4502 H   0  0  0  0  0  0  0  0  0  0  0  0
   -5.7858    1.7501    0.5156 H   0  0  0  0  0  0  0  0  0  0  0  0
   -5.4002    0.6788   -0.8816 H   0  0  0  0  0  0  0  0  0  0  0  0
   -6.5040    0.1139    0.4187 H   0  0  0  0  0  0  0  0  0  0  0  0
  1  2  1  0
  2  3  1  0
  3  4  1  0
  4  5  2  0
  5  6  1  0
  6  7  2  0
  7  8  1  0
  7  9  1  0
  9 10  2  0
  2 11  2  0
 11 12  1  0
 12 13  2  0
 13 14  1  0
 14 15  2  0
 15 16  1  0
 16 17  2  0
 17 18  1  0
 18 19  2  3
 19 20  1  0
 20 21  1  0
 21 22  1  0
 22 23  1  0
 22 24  1  0
 18  1  1  0
 10  4  1  0
 16 11  1  0
  1 25  1  0
  3 26  1  0
  5 27  1  0
  6 28  1  0
  9 29  1  0
 10 30  1  0
 13 31  1  0
 14 32  1  0
 20 33  1  0
 20 34  1  0
 21 35  1  0
 21 36  1  0
 22 37  1  0
 23 38  1  0
 23 39  1  0
 23 40  1  0
 24 41  1  0
 24 42  1  0
 24 43  1  0
M  CHG  1  22   1
M  END
>  <ScrubInfo>  (2) 
{"isomerGroup": 0, "isomerId": 1, "confId": 0, "nr_conformers:": 1, "nr_isomers:": 9}

$$$$
_i2
     RDKit          3D

 43 45  0  0  0  0  0  0  0  0999 V2000
    0.3755   -1.6259    0.5475 N   0  0  0  0  0  0  0  0  0  0  0  0
   -0.8636   -1.0918    0.3968 C   0  0  0  0  0  0  0  0  0  0  0  0
   -1.8951   -1.9607    0.6254 N   0  0  0  0  0  0  0  0  0  0  0  0
   -3.2686   -1.4634    0.7081 C   0  0  0  0  0  0  0  0  0  0  0  0
   -3.8074   -1.0158   -0.6731 C   0  0  0  0  0  0  0  0  0  0  0  0
   -4.6225    0.2690   -0.6475 N   0  0  0  0  0  4  0  0  0  0  0  0
   -5.8289    0.2216    0.2377 C   0  0  0  0  0  0  0  0  0  0  0  0
   -3.7774    1.4992   -0.4173 C   0  0  0  0  0  0  0  0  0  0  0  0
   -1.0673    0.1418    0.0449 N   0  0  0  0  0  0  0  0  0  0  0  0
    0.0856    0.9320   -0.1572 C   0  0  0  0  0  0  0  0  0  0  0  0
   -0.1973    2.2124   -0.5026 N   0  0  0  0  0  0  0  0  0  0  0  0
    0.8858    3.0060   -0.7013 C   0  0  0  0  0  0  0  0  0  0  0  0
    2.1907    2.5507   -0.5665 C   0  0  0  0  0  0  0  0  0  0  0  0
    2.4829    1.2762   -0.2260 N   0  0  0  0  0  0  0  0  0  0  0  0
    1.4089    0.4772   -0.0244 C   0  0  0  0  0  0  0  0  0  0  0  0
    1.5681   -0.9641    0.3525 C   0  0  0  0  0  0  0  0  0  0  0  0
    2.6589   -1.6674    0.5109 N   0  0  0  0  0  0  0  0  0  0  0  0
    3.9271   -1.1063    0.3340 C   0  0  0  0  0  0  0  0  0  0  0  0
    4.5536   -1.1608   -0.9164 C   0  0  0  0  0  0  0  0  0  0  0  0
    5.8349   -0.6333   -1.0862 C   0  0  0  0  0  0  0  0  0  0  0  0
    6.4906   -0.0686    0.0018 C   0  0  0  0  0  0  0  0  0  0  0  0
    7.7186    0.4404   -0.1606 F   0  0  0  0  0  0  0  0  0  0  0  0
    5.8947   -0.0305    1.2570 C   0  0  0  0  0  0  0  0  0  0  0  0
    4.6133   -0.5588    1.4241 C   0  0  0  0  0  0  0  0  0  0  0  0
    0.4866   -2.6146    0.7260 H   0  0  0  0  0  0  0  0  0  0  0  0
   -1.6879   -2.6792    1.3153 H   0  0  0  0  0  0  0  0  0  0  0  0
   -3.3140   -0.6640    1.4550 H   0  0  0  0  0  0  0  0  0  0  0  0
   -3.9048   -2.2740    1.0820 H   0  0  0  0  0  0  0  0  0  0  0  0
   -3.0192   -0.8659   -1.4186 H   0  0  0  0  0  0  0  0  0  0  0  0
   -4.4773   -1.7865   -1.0730 H   0  0  0  0  0  0  0  0  0  0  0  0
   -4.9741    0.3759   -1.6078 H   0  0  0  0  0  0  0  0  0  0  0  0
   -6.4028   -0.6731   -0.0171 H   0  0  0  0  0  0  0  0  0  0  0  0
   -5.5061    0.1967    1.2811 H   0  0  0  0  0  0  0  0  0  0  0  0
   -6.4271    1.1153    0.0411 H   0  0  0  0  0  0  0  0  0  0  0  0
   -3.3673    1.4676    0.5937 H   0  0  0  0  0  0  0  0  0  0  0  0
   -4.4262    2.3717   -0.5353 H   0  0  0  0  0  0  0  0  0  0  0  0
   -3.0001    1.5226   -1.1836 H   0  0  0  0  0  0  0  0  0  0  0  0
    0.6781    4.0352   -0.9761 H   0  0  0  0  0  0  0  0  0  0  0  0
    3.0409    3.2054   -0.7308 H   0  0  0  0  0  0  0  0  0  0  0  0
    4.0398   -1.6141   -1.7585 H   0  0  0  0  0  0  0  0  0  0  0  0
    6.3250   -0.6640   -2.0535 H   0  0  0  0  0  0  0  0  0  0  0  0
    6.4304    0.4034    2.0947 H   0  0  0  0  0  0  0  0  0  0  0  0
    4.1454   -0.5427    2.4037 H   0  0  0  0  0  0  0  0  0  0  0  0
  1  2  1  0
  2  3  1  0
  3  4  1  0
  4  5  1  0
  5  6  1  0
  6  7  1  0
  6  8  1  0
  2  9  2  0
  9 10  1  0
 10 11  2  0
 11 12  1  0
 12 13  2  0
 13 14  1  0
 14 15  2  0
 15 16  1  0
 16 17  2  3
 17 18  1  0
 18 19  2  0
 19 20  1  0
 20 21  2  0
 21 22  1  0
 21 23  1  0
 23 24  2  0
 16  1  1  0
 24 18  1  0
 15 10  1  0
  1 25  1  0
  3 26  1  0
  4 27  1  0
  4 28  1  0
  5 29  1  0
  5 30  1  0
  6 31  1  0
  7 32  1  0
  7 33  1  0
  7 34  1  0
  8 35  1  0
  8 36  1  0
  8 37  1  0
 12 38  1  0
 13 39  1  0
 19 40  1  0
 20 41  1  0
 23 42  1  0
 24 43  1  0
M  CHG  1   6   1
M  END
>  <ScrubInfo>  (3) 
{"isomerGroup": 0, "isomerId": 2, "confId": 0, "nr_conformers:": 1, "nr_isomers:": 9}

$$$$
_i3
     RDKit          3D

 43 45  0  0  0  0  0  0  0  0999 V2000
    0.5154    0.3632   -1.1959 N   0  0  0  0  0  0  0  0  0  0  0  0
    0.5692   -0.4440   -0.1031 C   0  0  0  0  0  0  0  0  0  0  0  0
    1.6330   -0.8346    0.5033 N   0  0  0  0  0  0  0  0  0  0  0  0
    2.9461   -0.4213    0.0405 C   0  0  0  0  0  0  0  0  0  0  0  0
    3.9770   -1.0616    0.9846 C   0  0  0  0  0  0  0  0  0  0  0  0
    5.4169   -0.7354    0.6443 N   0  0  0  0  0  4  0  0  0  0  0  0
    5.7662    0.7144    0.8094 C   0  0  0  0  0  0  0  0  0  0  0  0
    5.8725   -1.2981   -0.6699 C   0  0  0  0  0  0  0  0  0  0  0  0
   -0.5691   -0.9360    0.4820 N   0  0  0  0  0  0  0  0  0  0  0  0
   -1.7446   -0.6408   -0.0177 C   0  0  0  0  0  0  0  0  0  0  0  0
   -2.8468   -1.1797    0.6192 N   0  0  0  0  0  0  0  0  0  0  0  0
   -3.9595   -0.4429    1.0941 C   0  0  0  0  0  0  0  0  0  0  0  0
   -3.9503    0.9493    1.2607 C   0  0  0  0  0  0  0  0  0  0  0  0
   -5.0758    1.6147    1.7554 C   0  0  0  0  0  0  0  0  0  0  0  0
   -6.2109    0.8889    2.0913 C   0  0  0  0  0  0  0  0  0  0  0  0
   -7.2872    1.5288    2.5654 F   0  0  0  0  0  0  0  0  0  0  0  0
   -6.2419   -0.4910    1.9464 C   0  0  0  0  0  0  0  0  0  0  0  0
   -5.1165   -1.1545    1.4526 C   0  0  0  0  0  0  0  0  0  0  0  0
   -1.8838    0.1860   -1.2558 C   0  0  0  0  0  0  0  0  0  0  0  0
   -3.1039    0.4081   -1.8023 N   0  0  0  0  0  0  0  0  0  0  0  0
   -3.0899    1.1591   -2.9247 C   0  0  0  0  0  0  0  0  0  0  0  0
   -1.9138    1.6542   -3.4703 C   0  0  0  0  0  0  0  0  0  0  0  0
   -0.6929    1.4190   -2.9224 N   0  0  0  0  0  0  0  0  0  0  0  0
   -0.6955    0.6650   -1.7992 C   0  0  0  0  0  0  0  0  0  0  0  0
    1.3235    0.7268   -1.6663 H   0  0  0  0  0  0  0  0  0  0  0  0
    3.0335    0.6699    0.0710 H   0  0  0  0  0  0  0  0  0  0  0  0
    3.1117   -0.7634   -0.9865 H   0  0  0  0  0  0  0  0  0  0  0  0
    3.8169   -0.7330    2.0185 H   0  0  0  0  0  0  0  0  0  0  0  0
    3.8920   -2.1549    0.9723 H   0  0  0  0  0  0  0  0  0  0  0  0
    5.9632   -1.2331    1.3606 H   0  0  0  0  0  0  0  0  0  0  0  0
    6.8531    0.8076    0.7368 H   0  0  0  0  0  0  0  0  0  0  0  0
    5.4303    1.0378    1.7980 H   0  0  0  0  0  0  0  0  0  0  0  0
    5.2787    1.2895    0.0186 H   0  0  0  0  0  0  0  0  0  0  0  0
    5.6095   -2.3586   -0.6987 H   0  0  0  0  0  0  0  0  0  0  0  0
    5.3866   -0.7481   -1.4793 H   0  0  0  0  0  0  0  0  0  0  0  0
    6.9583   -1.1824   -0.7255 H   0  0  0  0  0  0  0  0  0  0  0  0
   -2.5598   -1.8354    1.3428 H   0  0  0  0  0  0  0  0  0  0  0  0
   -3.0702    1.5372    1.0206 H   0  0  0  0  0  0  0  0  0  0  0  0
   -5.0724    2.6924    1.8826 H   0  0  0  0  0  0  0  0  0  0  0  0
   -7.1387   -1.0407    2.2138 H   0  0  0  0  0  0  0  0  0  0  0  0
   -5.1521   -2.2350    1.3317 H   0  0  0  0  0  0  0  0  0  0  0  0
   -4.0553    1.3554   -3.3799 H   0  0  0  0  0  0  0  0  0  0  0  0
   -1.9227    2.2571   -4.3729 H   0  0  0  0  0  0  0  0  0  0  0  0
  1  2  1  0
  2  3  2  3
  3  4  1  0
  4  5  1  0
  5  6  1  0
  6  7  1  0
  6  8  1  0
  2  9  1  0
  9 10  2  0
 10 11  1  0
 11 12  1  0
 12 13  2  0
 13 14  1  0
 14 15  2  0
 15 16  1  0
 15 17  1  0
 17 18  2  0
 10 19  1  0
 19 20  2  0
 20 21  1  0
 21 22  2  0
 22 23  1  0
 23 24  2  0
 24  1  1  0
 18 12  1  0
 24 19  1  0
  1 25  1  0
  4 26  1  0
  4 27  1  0
  5 28  1  0
  5 29  1  0
  6 30  1  0
  7 31  1  0
  7 32  1  0
  7 33  1  0
  8 34  1  0
  8 35  1  0
  8 36  1  0
 11 37  1  0
 13 38  1  0
 14 39  1  0
 17 40  1  0
 18 41  1  0
 21 42  1  0
 22 43  1  0
M  CHG  1   6   1
M  END
>  <ScrubInfo>  (4) 
{"isomerGroup": 0, "isomerId": 3, "confId": 0, "nr_conformers:": 1, "nr_isomers:": 9}

$$$$
_i4
     RDKit          3D

 43 45  0  0  0  0  0  0  0  0999 V2000
    0.0528    0.9488   -2.8309 N   0  0  0  0  0  0  0  0  0  0  0  0
    0.7599    1.2895   -1.7318 C   0  0  0  0  0  0  0  0  0  0  0  0
    1.5825    2.3645   -1.9015 N   0  0  0  0  0  0  0  0  0  0  0  0
    2.6664    2.7070   -0.9724 C   0  0  0  0  0  0  0  0  0  0  0  0
    2.1796    3.2130    0.4094 C   0  0  0  0  0  0  0  0  0  0  0  0
    1.7194    2.1046    1.3300 N   0  0  0  0  0  4  0  0  0  0  0  0
    0.7023    2.5484    2.3326 C   0  0  0  0  0  0  0  0  0  0  0  0
    2.8156    1.3052    1.9568 C   0  0  0  0  0  0  0  0  0  0  0  0
    0.6741    0.6969   -0.5842 N   0  0  0  0  0  0  0  0  0  0  0  0
   -0.2022   -0.3647   -0.4258 C   0  0  0  0  0  0  0  0  0  0  0  0
   -0.2282   -0.7467    0.8169 N   0  0  0  0  0  0  0  0  0  0  0  0
   -1.0488   -1.7969    1.2384 C   0  0  0  0  0  0  0  0  0  0  0  0
   -2.3537   -1.5420    1.6768 C   0  0  0  0  0  0  0  0  0  0  0  0
   -3.1585   -2.5860    2.1367 C   0  0  0  0  0  0  0  0  0  0  0  0
   -2.6479   -3.8785    2.1714 C   0  0  0  0  0  0  0  0  0  0  0  0
   -3.4194   -4.8800    2.6121 F   0  0  0  0  0  0  0  0  0  0  0  0
   -1.3464   -4.1457    1.7631 C   0  0  0  0  0  0  0  0  0  0  0  0
   -0.5432   -3.1005    1.3034 C   0  0  0  0  0  0  0  0  0  0  0  0
   -0.9590   -0.8757   -1.6117 C   0  0  0  0  0  0  0  0  0  0  0  0
   -1.7629   -1.9633   -1.5159 N   0  0  0  0  0  0  0  0  0  0  0  0
   -2.4029   -2.3055   -2.6562 C   0  0  0  0  0  0  0  0  0  0  0  0
   -2.2474   -1.5925   -3.8347 C   0  0  0  0  0  0  0  0  0  0  0  0
   -1.4423   -0.5044   -3.9291 N   0  0  0  0  0  0  0  0  0  0  0  0
   -0.7937   -0.1539   -2.7957 C   0  0  0  0  0  0  0  0  0  0  0  0
    0.0987    1.4182   -3.7219 H   0  0  0  0  0  0  0  0  0  0  0  0
    1.8311    2.5512   -2.8699 H   0  0  0  0  0  0  0  0  0  0  0  0
    3.2349    3.5226   -1.4347 H   0  0  0  0  0  0  0  0  0  0  0  0
    3.3555    1.8618   -0.8761 H   0  0  0  0  0  0  0  0  0  0  0  0
    1.3360    3.8990    0.2722 H   0  0  0  0  0  0  0  0  0  0  0  0
    2.9823    3.7430    0.9335 H   0  0  0  0  0  0  0  0  0  0  0  0
    1.2070    1.4272    0.7216 H   0  0  0  0  0  0  0  0  0  0  0  0
    0.3634    1.6728    2.8930 H   0  0  0  0  0  0  0  0  0  0  0  0
   -0.1413    2.9879    1.7936 H   0  0  0  0  0  0  0  0  0  0  0  0
    1.1678    3.2818    2.9962 H   0  0  0  0  0  0  0  0  0  0  0  0
    3.4551    0.9063    1.1667 H   0  0  0  0  0  0  0  0  0  0  0  0
    2.3644    0.4792    2.5135 H   0  0  0  0  0  0  0  0  0  0  0  0
    3.3837    1.9589    2.6238 H   0  0  0  0  0  0  0  0  0  0  0  0
   -2.7477   -0.5308    1.6538 H   0  0  0  0  0  0  0  0  0  0  0  0
   -4.1752   -2.4015    2.4682 H   0  0  0  0  0  0  0  0  0  0  0  0
   -0.9671   -5.1615    1.8065 H   0  0  0  0  0  0  0  0  0  0  0  0
    0.4760   -3.3037    0.9885 H   0  0  0  0  0  0  0  0  0  0  0  0
   -3.0510   -3.1743   -2.5987 H   0  0  0  0  0  0  0  0  0  0  0  0
   -2.7697   -1.8794   -4.7420 H   0  0  0  0  0  0  0  0  0  0  0  0
  1  2  1  0
  2  3  1  0
  3  4  1  0
  4  5  1  0
  5  6  1  0
  6  7  1  0
  6  8  1  0
  2  9  2  0
  9 10  1  0
 10 11  2  3
 11 12  1  0
 12 13  2  0
 13 14  1  0
 14 15  2  0
 15 16  1  0
 15 17  1  0
 17 18  2  0
 10 19  1  0
 19 20  2  0
 20 21  1  0
 21 22  2  0
 22 23  1  0
 23 24  2  0
 24  1  1  0
 18 12  1  0
 24 19  1  0
  1 25  1  0
  3 26  1  0
  4 27  1  0
  4 28  1  0
  5 29  1  0
  5 30  1  0
  6 31  1  0
  7 32  1  0
  7 33  1  0
  7 34  1  0
  8 35  1  0
  8 36  1  0
  8 37  1  0
 13 38  1  0
 14 39  1  0
 17 40  1  0
 18 41  1  0
 21 42  1  0
 22 43  1  0
M  CHG  1   6   1
M  END
>  <ScrubInfo>  (5) 
{"isomerGroup": 0, "isomerId": 4, "confId": 0, "nr_conformers:": 1, "nr_isomers:": 9}

$$$$
_i5
     RDKit          3D

 43 45  0  0  0  0  0  0  0  0999 V2000
    1.2447    1.4805   -3.2017 N   0  0  0  0  0  0  0  0  0  0  0  0
    2.5711    1.7924   -3.3414 C   0  0  0  0  0  0  0  0  0  0  0  0
    3.4610    1.4650   -2.3909 C   0  0  0  0  0  0  0  0  0  0  0  0
    3.1263    0.8221   -1.2164 N   0  0  0  0  0  0  0  0  0  0  0  0
    1.8715    0.5008   -1.0466 C   0  0  0  0  0  0  0  0  0  0  0  0
    1.3966   -0.1755    0.2169 C   0  0  0  0  0  0  0  0  0  0  0  0
    2.2182   -0.3763    1.3033 N   0  0  0  0  0  0  0  0  0  0  0  0
    2.9859    0.6047    1.9721 C   0  0  0  0  0  0  0  0  0  0  0  0
    3.9082    0.1694    2.9405 C   0  0  0  0  0  0  0  0  0  0  0  0
    4.7119    1.0798    3.6312 C   0  0  0  0  0  0  0  0  0  0  0  0
    4.6014    2.4341    3.3528 C   0  0  0  0  0  0  0  0  0  0  0  0
    5.3686    3.3106    4.0127 F   0  0  0  0  0  0  0  0  0  0  0  0
    3.7047    2.8914    2.3972 C   0  0  0  0  0  0  0  0  0  0  0  0
    2.9011    1.9784    1.7066 C   0  0  0  0  0  0  0  0  0  0  0  0
    0.1789   -0.6324    0.2398 N   0  0  0  0  0  0  0  0  0  0  0  0
   -0.6338   -0.4363   -0.8376 C   0  0  0  0  0  0  0  0  0  0  0  0
   -1.7753   -1.0220   -0.7173 N   0  0  0  0  0  0  0  0  0  0  0  0
   -2.7363   -0.8707   -1.8215 C   0  0  0  0  0  0  0  0  0  0  0  0
   -3.9273   -1.7922   -1.5132 C   0  0  0  0  0  0  0  0  0  0  0  0
   -4.1643   -1.7885   -0.0120 N   0  0  0  0  0  4  0  0  0  0  0  0
   -4.9285   -0.5972    0.4694 C   0  0  0  0  0  0  0  0  0  0  0  0
   -4.7128   -3.0777    0.5018 C   0  0  0  0  0  0  0  0  0  0  0  0
   -0.3743    0.2996   -1.9576 N   0  0  0  0  0  0  0  0  0  0  0  0
    0.8223    0.7630   -2.1110 C   0  0  0  0  0  0  0  0  0  0  0  0
    0.6176    1.6382   -3.9801 H   0  0  0  0  0  0  0  0  0  0  0  0
    2.8515    2.3016   -4.2580 H   0  0  0  0  0  0  0  0  0  0  0  0
    4.5134    1.7120   -2.5136 H   0  0  0  0  0  0  0  0  0  0  0  0
    1.8209   -1.0219    1.9791 H   0  0  0  0  0  0  0  0  0  0  0  0
    4.0203   -0.8914    3.1545 H   0  0  0  0  0  0  0  0  0  0  0  0
    5.4259    0.7401    4.3749 H   0  0  0  0  0  0  0  0  0  0  0  0
    3.6387    3.9553    2.1916 H   0  0  0  0  0  0  0  0  0  0  0  0
    2.2086    2.3720    0.9697 H   0  0  0  0  0  0  0  0  0  0  0  0
   -2.3079   -1.1548   -2.7895 H   0  0  0  0  0  0  0  0  0  0  0  0
   -3.0844    0.1673   -1.8766 H   0  0  0  0  0  0  0  0  0  0  0  0
   -4.8488   -1.4959   -2.0237 H   0  0  0  0  0  0  0  0  0  0  0  0
   -3.6696   -2.8199   -1.7923 H   0  0  0  0  0  0  0  0  0  0  0  0
   -3.1960   -1.6884    0.3573 H   0  0  0  0  0  0  0  0  0  0  0  0
   -4.4197    0.3078    0.1293 H   0  0  0  0  0  0  0  0  0  0  0  0
   -4.9438   -0.6216    1.5622 H   0  0  0  0  0  0  0  0  0  0  0  0
   -5.9429   -0.6488    0.0651 H   0  0  0  0  0  0  0  0  0  0  0  0
   -4.7725   -3.0150    1.5916 H   0  0  0  0  0  0  0  0  0  0  0  0
   -5.7025   -3.2329    0.0644 H   0  0  0  0  0  0  0  0  0  0  0  0
   -4.0282   -3.8810    0.2170 H   0  0  0  0  0  0  0  0  0  0  0  0
  1  2  1  0
  2  3  2  0
  3  4  1  0
  4  5  2  0
  5  6  1  0
  6  7  1  0
  7  8  1  0
  8  9  2  0
  9 10  1  0
 10 11  2  0
 11 12  1  0
 11 13  1  0
 13 14  2  0
  6 15  2  0
 15 16  1  0
 16 17  2  3
 17 18  1  0
 18 19  1  0
 19 20  1  0
 20 21  1  0
 20 22  1  0
 16 23  1  0
 23 24  2  0
 24  1  1  0
 24  5  1  0
 14  8  1  0
  1 25  1  0
  2 26  1  0
  3 27  1  0
  7 28  1  0
  9 29  1  0
 10 30  1  0
 13 31  1  0
 14 32  1  0
 18 33  1  0
 18 34  1  0
 19 35  1  0
 19 36  1  0
 20 37  1  0
 21 38  1  0
 21 39  1  0
 21 40  1  0
 22 41  1  0
 22 42  1  0
 22 43  1  0
M  CHG  1  20   1
M  END
>  <ScrubInfo>  (6) 
{"isomerGroup": 0, "isomerId": 5, "confId": 0, "nr_conformers:": 1, "nr_isomers:": 9}

$$$$
_i6
     RDKit          3D

 43 45  0  0  0  0  0  0  0  0999 V2000
    1.5809    2.9455    2.4945 N   0  0  0  0  0  0  0  0  0  0  0  0
    2.9272    2.9450    2.2460 C   0  0  0  0  0  0  0  0  0  0  0  0
    3.4656    2.0847    1.3670 C   0  0  0  0  0  0  0  0  0  0  0  0
    2.7313    1.1619    0.6499 N   0  0  0  0  0  0  0  0  0  0  0  0
    1.4428    1.1299    0.8585 C   0  0  0  0  0  0  0  0  0  0  0  0
    0.4922    0.2073    0.1494 C   0  0  0  0  0  0  0  0  0  0  0  0
    0.7292   -0.5777   -0.8573 N   0  0  0  0  0  0  0  0  0  0  0  0
    1.9993   -0.6525   -1.4352 C   0  0  0  0  0  0  0  0  0  0  0  0
    2.9002   -1.6426   -1.0259 C   0  0  0  0  0  0  0  0  0  0  0  0
    4.1548   -1.7465   -1.6296 C   0  0  0  0  0  0  0  0  0  0  0  0
    4.4959   -0.8697   -2.6526 C   0  0  0  0  0  0  0  0  0  0  0  0
    5.6983   -0.9695   -3.2330 F   0  0  0  0  0  0  0  0  0  0  0  0
    3.6041    0.1031   -3.0889 C   0  0  0  0  0  0  0  0  0  0  0  0
    2.3499    0.2059   -2.4842 C   0  0  0  0  0  0  0  0  0  0  0  0
   -0.8167    0.1563    0.5527 N   0  0  0  0  0  0  0  0  0  0  0  0
   -1.2427    0.9673    1.4652 C   0  0  0  0  0  0  0  0  0  0  0  0
   -2.5634    0.9220    1.8088 N   0  0  0  0  0  0  0  0  0  0  0  0
   -3.3074   -0.3172    2.0541 C   0  0  0  0  0  0  0  0  0  0  0  0
   -3.1708   -1.4330    0.9899 C   0  0  0  0  0  0  0  0  0  0  0  0
   -3.0926   -0.9147   -0.4283 N   0  0  0  0  0  4  0  0  0  0  0  0
   -4.3048   -0.1889   -0.9051 C   0  0  0  0  0  0  0  0  0  0  0  0
   -2.6301   -1.9647   -1.3954 C   0  0  0  0  0  0  0  0  0  0  0  0
   -0.5027    1.9136    2.1010 N   0  0  0  0  0  0  0  0  0  0  0  0
    0.7658    2.0363    1.8698 C   0  0  0  0  0  0  0  0  0  0  0  0
    1.2058    3.5672    3.1998 H   0  0  0  0  0  0  0  0  0  0  0  0
    3.5187    3.6677    2.7992 H   0  0  0  0  0  0  0  0  0  0  0  0
    4.5371    2.0904    1.1776 H   0  0  0  0  0  0  0  0  0  0  0  0
    2.6292   -2.3302   -0.2305 H   0  0  0  0  0  0  0  0  0  0  0  0
    4.8651   -2.5026   -1.3110 H   0  0  0  0  0  0  0  0  0  0  0  0
    3.8905    0.7708   -3.8950 H   0  0  0  0  0  0  0  0  0  0  0  0
    1.6492    0.9597   -2.8300 H   0  0  0  0  0  0  0  0  0  0  0  0
   -2.7371    1.6118    2.5402 H   0  0  0  0  0  0  0  0  0  0  0  0
   -3.0174   -0.7226    3.0305 H   0  0  0  0  0  0  0  0  0  0  0  0
   -4.3669   -0.0479    2.1360 H   0  0  0  0  0  0  0  0  0  0  0  0
   -2.2479   -1.9952    1.1739 H   0  0  0  0  0  0  0  0  0  0  0  0
   -4.0121   -2.1328    1.0447 H   0  0  0  0  0  0  0  0  0  0  0  0
   -2.3061   -0.2367   -0.3902 H   0  0  0  0  0  0  0  0  0  0  0  0
   -4.5035    0.6502   -0.2353 H   0  0  0  0  0  0  0  0  0  0  0  0
   -4.1042    0.1891   -1.9113 H   0  0  0  0  0  0  0  0  0  0  0  0
   -5.1459   -0.8871   -0.9137 H   0  0  0  0  0  0  0  0  0  0  0  0
   -3.4045   -2.7330   -1.4661 H   0  0  0  0  0  0  0  0  0  0  0  0
   -2.4633   -1.4859   -2.3639 H   0  0  0  0  0  0  0  0  0  0  0  0
   -1.6930   -2.3892   -1.0262 H   0  0  0  0  0  0  0  0  0  0  0  0
  1  2  1  0
  2  3  2  0
  3  4  1  0
  4  5  2  0
  5  6  1  0
  6  7  2  3
  7  8  1  0
  8  9  2  0
  9 10  1  0
 10 11  2  0
 11 12  1  0
 11 13  1  0
 13 14  2  0
  6 15  1  0
 15 16  2  0
 16 17  1  0
 17 18  1  0
 18 19  1  0
 19 20  1  0
 20 21  1  0
 20 22  1  0
 16 23  1  0
 23 24  2  0
 24  1  1  0
 24  5  1  0
 14  8  1  0
  1 25  1  0
  2 26  1  0
  3 27  1  0
  9 28  1  0
 10 29  1  0
 13 30  1  0
 14 31  1  0
 17 32  1  0
 18 33  1  0
 18 34  1  0
 19 35  1  0
 19 36  1  0
 20 37  1  0
 21 38  1  0
 21 39  1  0
 21 40  1  0
 22 41  1  0
 22 42  1  0
 22 43  1  0
M  CHG  1  20   1
M  END
>  <ScrubInfo>  (7) 
{"isomerGroup": 0, "isomerId": 6, "confId": 0, "nr_conformers:": 1, "nr_isomers:": 9}

$$$$
_i7
     RDKit          3D

 43 45  0  0  0  0  0  0  0  0999 V2000
    0.5249   -0.9477    0.4920 N   0  0  0  0  0  0  0  0  0  0  0  0
    0.5972    0.2269   -0.2009 C   0  0  0  0  0  0  0  0  0  0  0  0
    1.6546    0.8085   -0.6604 N   0  0  0  0  0  0  0  0  0  0  0  0
    2.9557    0.1866   -0.4457 C   0  0  0  0  0  0  0  0  0  0  0  0
    4.0187    1.0886   -1.0950 C   0  0  0  0  0  0  0  0  0  0  0  0
    5.3970    0.4518   -1.0923 N   0  0  0  0  0  4  0  0  0  0  0  0
    5.9940    0.3265    0.2816 C   0  0  0  0  0  0  0  0  0  0  0  0
    6.3282    1.1915   -2.0188 C   0  0  0  0  0  0  0  0  0  0  0  0
   -0.6191    0.8122   -0.4037 N   0  0  0  0  0  0  0  0  0  0  0  0
   -1.8773    0.4015   -0.0210 C   0  0  0  0  0  0  0  0  0  0  0  0
   -2.8686    1.1839   -0.3644 N   0  0  0  0  0  0  0  0  0  0  0  0
   -4.1945    0.8846   -0.0388 C   0  0  0  0  0  0  0  0  0  0  0  0
   -4.9937    0.1630   -0.9329 C   0  0  0  0  0  0  0  0  0  0  0  0
   -6.3292   -0.1043   -0.6265 C   0  0  0  0  0  0  0  0  0  0  0  0
   -6.8636    0.3676    0.5669 C   0  0  0  0  0  0  0  0  0  0  0  0
   -8.1440    0.1098    0.8631 F   0  0  0  0  0  0  0  0  0  0  0  0
   -6.0922    1.1095    1.4540 C   0  0  0  0  0  0  0  0  0  0  0  0
   -4.7570    1.3753    1.1452 C   0  0  0  0  0  0  0  0  0  0  0  0
   -1.9124   -0.8918    0.7373 C   0  0  0  0  0  0  0  0  0  0  0  0
   -3.0810   -1.4158    1.1761 N   0  0  0  0  0  0  0  0  0  0  0  0
   -2.9737   -2.5835    1.8449 C   0  0  0  0  0  0  0  0  0  0  0  0
   -1.7524   -3.2001    2.0654 C   0  0  0  0  0  0  0  0  0  0  0  0
   -0.5777   -2.6793    1.6278 N   0  0  0  0  0  0  0  0  0  0  0  0
   -0.6693   -1.5073    0.9546 C   0  0  0  0  0  0  0  0  0  0  0  0
    1.3292   -1.5053    0.7257 H   0  0  0  0  0  0  0  0  0  0  0  0
    2.9865   -0.8071   -0.9076 H   0  0  0  0  0  0  0  0  0  0  0  0
    3.1537    0.0867    0.6268 H   0  0  0  0  0  0  0  0  0  0  0  0
    3.7549    1.2677   -2.1441 H   0  0  0  0  0  0  0  0  0  0  0  0
    4.0950    2.0561   -0.5853 H   0  0  0  0  0  0  0  0  0  0  0  0
    5.2994   -0.4955   -1.4806 H   0  0  0  0  0  0  0  0  0  0  0  0
    6.9881   -0.1178    0.1811 H   0  0  0  0  0  0  0  0  0  0  0  0
    5.3612   -0.3362    0.8754 H   0  0  0  0  0  0  0  0  0  0  0  0
    6.0552    1.3219    0.7293 H   0  0  0  0  0  0  0  0  0  0  0  0
    5.8911    1.1807   -3.0208 H   0  0  0  0  0  0  0  0  0  0  0  0
    6.4460    2.2144   -1.6510 H   0  0  0  0  0  0  0  0  0  0  0  0
    7.2860    0.6646   -2.0290 H   0  0  0  0  0  0  0  0  0  0  0  0
   -0.6133    1.6870   -0.9137 H   0  0  0  0  0  0  0  0  0  0  0  0
   -4.5712   -0.1923   -1.8678 H   0  0  0  0  0  0  0  0  0  0  0  0
   -6.9534   -0.6703   -1.3098 H   0  0  0  0  0  0  0  0  0  0  0  0
   -6.5338    1.4785    2.3736 H   0  0  0  0  0  0  0  0  0  0  0  0
   -4.1503    1.9632    1.8271 H   0  0  0  0  0  0  0  0  0  0  0  0
   -3.9030   -3.0149    2.2025 H   0  0  0  0  0  0  0  0  0  0  0  0
   -1.6859   -4.1391    2.6056 H   0  0  0  0  0  0  0  0  0  0  0  0
  1  2  1  0
  2  3  2  3
  3  4  1  0
  4  5  1  0
  5  6  1  0
  6  7  1  0
  6  8  1  0
  2  9  1  0
  9 10  1  0
 10 11  2  3
 11 12  1  0
 12 13  2  0
 13 14  1  0
 14 15  2  0
 15 16  1  0
 15 17  1  0
 17 18  2  0
 10 19  1  0
 19 20  2  0
 20 21  1  0
 21 22  2  0
 22 23  1  0
 23 24  2  0
 24  1  1  0
 18 12  1  0
 24 19  1  0
  1 25  1  0
  4 26  1  0
  4 27  1  0
  5 28  1  0
  5 29  1  0
  6 30  1  0
  7 31  1  0
  7 32  1  0
  7 33  1  0
  8 34  1  0
  8 35  1  0
  8 36  1  0
  9 37  1  0
 13 38  1  0
 14 39  1  0
 17 40  1  0
 18 41  1  0
 21 42  1  0
 22 43  1  0
M  CHG  1   6   1
M  END
>  <ScrubInfo>  (8) 
{"isomerGroup": 0, "isomerId": 7, "confId": 0, "nr_conformers:": 1, "nr_isomers:": 9}

$$$$
_i8
     RDKit          3D

 43 45  0  0  0  0  0  0  0  0999 V2000
    1.4022    1.5074    2.7025 N   0  0  0  0  0  0  0  0  0  0  0  0
    2.7410    1.7749    2.7783 C   0  0  0  0  0  0  0  0  0  0  0  0
    3.5823    1.3700    1.8153 C   0  0  0  0  0  0  0  0  0  0  0  0
    3.1884    0.6679    0.6974 N   0  0  0  0  0  0  0  0  0  0  0  0
    1.9220    0.3771    0.5703 C   0  0  0  0  0  0  0  0  0  0  0  0
    1.3782   -0.3945   -0.6184 C   0  0  0  0  0  0  0  0  0  0  0  0
    2.0263   -0.8737   -1.6420 N   0  0  0  0  0  0  0  0  0  0  0  0
    3.4098   -0.7213   -1.7683 C   0  0  0  0  0  0  0  0  0  0  0  0
    4.2750   -1.7025   -1.2702 C   0  0  0  0  0  0  0  0  0  0  0  0
    5.6557   -1.5713   -1.4300 C   0  0  0  0  0  0  0  0  0  0  0  0
    6.1636   -0.4666   -2.1035 C   0  0  0  0  0  0  0  0  0  0  0  0
    7.4879   -0.3396   -2.2572 F   0  0  0  0  0  0  0  0  0  0  0  0
    5.3179    0.5036   -2.6283 C   0  0  0  0  0  0  0  0  0  0  0  0
    3.9375    0.3706   -2.4674 C   0  0  0  0  0  0  0  0  0  0  0  0
    0.0292   -0.5754   -0.5423 N   0  0  0  0  0  0  0  0  0  0  0  0
   -0.8192   -0.1690    0.4344 C   0  0  0  0  0  0  0  0  0  0  0  0
   -2.0803   -0.4490    0.3257 N   0  0  0  0  0  0  0  0  0  0  0  0
   -2.9496   -0.0098    1.4248 C   0  0  0  0  0  0  0  0  0  0  0  0
   -4.3789   -0.5278    1.2065 C   0  0  0  0  0  0  0  0  0  0  0  0
   -5.1065    0.2067    0.0861 N   0  0  0  0  0  4  0  0  0  0  0  0
   -6.5829   -0.0727    0.1296 C   0  0  0  0  0  0  0  0  0  0  0  0
   -4.5422   -0.0727   -1.2811 C   0  0  0  0  0  0  0  0  0  0  0  0
   -0.3792    0.5340    1.5250 N   0  0  0  0  0  0  0  0  0  0  0  0
    0.8889    0.8108    1.6365 C   0  0  0  0  0  0  0  0  0  0  0  0
    0.7926    1.8143    3.4487 H   0  0  0  0  0  0  0  0  0  0  0  0
    3.0731    2.3255    3.6525 H   0  0  0  0  0  0  0  0  0  0  0  0
    4.6458    1.5883    1.8865 H   0  0  0  0  0  0  0  0  0  0  0  0
    3.8727   -2.5687   -0.7538 H   0  0  0  0  0  0  0  0  0  0  0  0
    6.3345   -2.3216   -1.0383 H   0  0  0  0  0  0  0  0  0  0  0  0
    5.7367    1.3517   -3.1597 H   0  0  0  0  0  0  0  0  0  0  0  0
    3.2721    1.1204   -2.8841 H   0  0  0  0  0  0  0  0  0  0  0  0
   -0.3715   -1.1094   -1.2996 H   0  0  0  0  0  0  0  0  0  0  0  0
   -2.5917   -0.4238    2.3757 H   0  0  0  0  0  0  0  0  0  0  0  0
   -2.9632    1.0845    1.4978 H   0  0  0  0  0  0  0  0  0  0  0  0
   -4.4000   -1.5969    0.9678 H   0  0  0  0  0  0  0  0  0  0  0  0
   -4.9604   -0.3510    2.1181 H   0  0  0  0  0  0  0  0  0  0  0  0
   -4.9831    1.2130    0.2530 H   0  0  0  0  0  0  0  0  0  0  0  0
   -6.9563    0.2160    1.1157 H   0  0  0  0  0  0  0  0  0  0  0  0
   -7.0688    0.5354   -0.6381 H   0  0  0  0  0  0  0  0  0  0  0  0
   -6.7414   -1.1387   -0.0543 H   0  0  0  0  0  0  0  0  0  0  0  0
   -4.4350   -1.1530   -1.4068 H   0  0  0  0  0  0  0  0  0  0  0  0
   -3.5897    0.4502   -1.3788 H   0  0  0  0  0  0  0  0  0  0  0  0
   -5.2334    0.3325   -2.0260 H   0  0  0  0  0  0  0  0  0  0  0  0
  1  2  1  0
  2  3  2  0
  3  4  1  0
  4  5  2  0
  5  6  1  0
  6  7  2  3
  7  8  1  0
  8  9  2  0
  9 10  1  0
 10 11  2  0
 11 12  1  0
 11 13  1  0
 13 14  2  0
  6 15  1  0
 15 16  1  0
 16 17  2  3
 17 18  1  0
 18 19  1  0
 19 20  1  0
 20 21  1  0
 20 22  1  0
 16 23  1  0
 23 24  2  0
 24  1  1  0
 24  5  1  0
 14  8  1  0
  1 25  1  0
  2 26  1  0
  3 27  1  0
  9 28  1  0
 10 29  1  0
 13 30  1  0
 14 31  1  0
 15 32  1  0
 18 33  1  0
 18 34  1  0
 19 35  1  0
 19 36  1  0
 20 37  1  0
 21 38  1  0
 21 39  1  0
 21 40  1  0
 22 41  1  0
 22 42  1  0
 22 43  1  0
M  CHG  1  20   1
M  END
>  <ScrubInfo>  (9) 
{"isomerGroup": 0, "isomerId": 8, "confId": 0, "nr_conformers:": 1, "nr_isomers:": 9}

$$$$
