_i0
     RDKit          3D

 45 47  0  0  0  0  0  0  0  0999 V2000
   -4.8052    3.5644   -0.3218 C   0  0  0  0  0  0  0  0  0  0  0  0
   -4.2758    2.4180    0.5249 C   0  0  0  0  0  0  0  0  0  0  0  0
   -4.7420    1.0649   -0.0131 C   0  0  0  0  0  0  0  0  0  0  0  0
   -4.2743   -0.0153    0.8388 N   0  0  0  0  0  0  0  0  0  0  0  0
   -3.0805   -0.6194    0.4635 C   0  0  0  0  0  0  0  0  0  0  0  0
   -2.1134    0.1144   -0.1205 N   0  0  0  0  0  0  0  0  0  0  0  0
   -0.9338   -0.4585   -0.4635 C   0  0  0  0  0  0  0  0  0  0  0  0
    0.0225    0.3721   -1.0698 N   0  0  0  0  0  0  0  0  0  0  0  0
    1.4059    0.4310   -0.8038 C   0  0  0  0  0  0  0  0  0  0  0  0
    1.9697    0.0171    0.4082 C   0  0  0  0  0  0  0  0  0  0  0  0
    3.3455    0.1383    0.6354 C   0  0  0  0  0  0  0  0  0  0  0  0
    4.1801    0.6933   -0.3419 C   0  0  0  0  0  0  0  0  0  0  0  0
    5.6356    0.7999   -0.0484 C   0  0  0  0  0  0  0  0  0  0  0  0
    6.1395    0.4377    1.0030 O   0  0  0  0  0  0  0  0  0  0  0  0
    6.2977    1.3453   -1.0993 O   0  0  0  0  0  0  0  0  0  0  0  0
    7.7047    1.4771   -0.8917 C   0  0  0  0  0  0  0  0  0  0  0  0
    3.6198    1.1334   -1.5461 C   0  0  0  0  0  0  0  0  0  0  0  0
    2.2433    1.0096   -1.7665 C   0  0  0  0  0  0  0  0  0  0  0  0
   -0.7850   -1.8280   -0.2397 C   0  0  0  0  0  0  0  0  0  0  0  0
    0.1706   -2.8407   -0.4603 C   0  0  0  0  0  0  0  0  0  0  0  0
   -0.2320   -4.0396   -0.0220 N   0  0  0  0  0  0  0  0  0  0  0  0
   -1.4657   -3.7881    0.4747 N   0  0  0  0  0  0  0  0  0  0  0  0
   -2.2318   -4.8659    1.0474 C   0  0  0  0  0  0  0  0  0  0  0  0
   -1.8468   -2.4794    0.3551 C   0  0  0  0  0  0  0  0  0  0  0  0
   -3.0111   -1.9298    0.7320 N   0  0  0  0  0  0  0  0  0  0  0  0
   -5.8997    3.5710   -0.3340 H   0  0  0  0  0  0  0  0  0  0  0  0
   -4.4498    3.4854   -1.3542 H   0  0  0  0  0  0  0  0  0  0  0  0
   -4.4645    4.5228    0.0823 H   0  0  0  0  0  0  0  0  0  0  0  0
   -3.1817    2.4693    0.5499 H   0  0  0  0  0  0  0  0  0  0  0  0
   -4.6191    2.5440    1.5590 H   0  0  0  0  0  0  0  0  0  0  0  0
   -4.4450    0.9255   -1.0606 H   0  0  0  0  0  0  0  0  0  0  0  0
   -5.8389    1.0463   -0.0032 H   0  0  0  0  0  0  0  0  0  0  0  0
   -4.9343   -0.7740    0.9726 H   0  0  0  0  0  0  0  0  0  0  0  0
   -0.3807    1.3079   -1.0802 H   0  0  0  0  0  0  0  0  0  0  0  0
    1.3494   -0.3907    1.2029 H   0  0  0  0  0  0  0  0  0  0  0  0
    3.7597   -0.1966    1.5852 H   0  0  0  0  0  0  0  0  0  0  0  0
    8.1629    0.4956   -0.7349 H   0  0  0  0  0  0  0  0  0  0  0  0
    8.1393    1.9222   -1.7910 H   0  0  0  0  0  0  0  0  0  0  0  0
    7.9068    2.1402   -0.0447 H   0  0  0  0  0  0  0  0  0  0  0  0
    4.2377    1.5760   -2.3234 H   0  0  0  0  0  0  0  0  0  0  0  0
    1.8250    1.3561   -2.7094 H   0  0  0  0  0  0  0  0  0  0  0  0
    1.1454   -2.7524   -0.9229 H   0  0  0  0  0  0  0  0  0  0  0  0
   -1.6527   -5.3039    1.8643 H   0  0  0  0  0  0  0  0  0  0  0  0
   -3.1823   -4.4878    1.4303 H   0  0  0  0  0  0  0  0  0  0  0  0
   -2.4150   -5.6091    0.2673 H   0  0  0  0  0  0  0  0  0  0  0  0
  1  2  1  0
  2  3  1  0
  3  4  1  0
  4  5  1  0
  5  6  2  0
  6  7  1  0
  7  8  1  0
  8  9  1  0
  9 10  2  0
 10 11  1  0
 11 12  2  0
 12 13  1  0
 13 14  2  0
 13 15  1  0
 15 16  1  0
 12 17  1  0
 17 18  2  0
  7 19  2  0
 19 20  1  0
 20 21  2  0
 21 22  1  0
 22 23  1  0
 22 24  1  0
 24 25  2  0
 25  5  1  0
 18  9  1  0
 24 19  1  0
  1 26  1  0
  1 27  1  0
  1 28  1  0
  2 29  1  0
  2 30  1  0
  3 31  1  0
  3 32  1  0
  4 33  1  0
  8 34  1  0
 10 35  1  0
 11 36  1  0
 16 37  1  0
 16 38  1  0
 16 39  1  0
 17 40  1  0
 18 41  1  0
 20 42  1  0
 23 43  1  0
 23 44  1  0
 23 45  1  0
M  END
>  <ScrubInfo>  (1) 
{"isomerGroup": 0, "isomerId": 0, "confId": 0, "nr_conformers:": 1, "nr_isomers:": 9}

$$$$
_i1
     RDKit          3D

 45 47  0  0  0  0  0  0  0  0999 V2000
   -2.0406   -0.0966   -0.2071 N   0  0  0  0  0  0  0  0  0  0  0  0
   -0.8021   -0.3664    0.3461 C   0  0  0  0  0  0  0  0  0  0  0  0
    0.0736    0.6571    0.6574 N   0  0  0  0  0  0  0  0  0  0  0  0
    1.4156    0.7845    0.2325 C   0  0  0  0  0  0  0  0  0  0  0  0
    2.0168   -0.0626   -0.7061 C   0  0  0  0  0  0  0  0  0  0  0  0
    3.3647    0.0911   -1.0537 C   0  0  0  0  0  0  0  0  0  0  0  0
    4.1423    1.0916   -0.4601 C   0  0  0  0  0  0  0  0  0  0  0  0
    5.5695    1.2103   -0.8659 C   0  0  0  0  0  0  0  0  0  0  0  0
    6.0959    0.4862   -1.6958 O   0  0  0  0  0  0  0  0  0  0  0  0
    6.1769    2.2181   -0.1912 O   0  0  0  0  0  0  0  0  0  0  0  0
    7.5545    2.3915   -0.5273 C   0  0  0  0  0  0  0  0  0  0  0  0
    3.5545    1.9365    0.4867 C   0  0  0  0  0  0  0  0  0  0  0  0
    2.2060    1.7787    0.8287 C   0  0  0  0  0  0  0  0  0  0  0  0
   -0.5644   -1.6549    0.6198 C   0  0  0  0  0  0  0  0  0  0  0  0
    0.4854   -2.4576    1.2568 C   0  0  0  0  0  0  0  0  0  0  0  0
    0.1978   -3.7346    1.2993 N   0  0  0  0  0  0  0  0  0  0  0  0
   -1.0441   -3.8589    0.6529 N   0  0  0  0  0  0  0  0  0  0  0  0
   -1.7946   -5.0813    0.8110 C   0  0  0  0  0  0  0  0  0  0  0  0
   -1.5992   -2.6479    0.2717 C   0  0  0  0  0  0  0  0  0  0  0  0
   -2.7450   -2.3810   -0.2528 N   0  0  0  0  0  0  0  0  0  0  0  0
   -2.9863   -1.0508   -0.5180 C   0  0  0  0  0  0  0  0  0  0  0  0
   -4.1344   -0.8451   -1.0543 N   0  0  0  0  0  0  0  0  0  0  0  0
   -4.5696    0.4917   -1.4307 C   0  0  0  0  0  0  0  0  0  0  0  0
   -5.2354    1.1782   -0.2413 C   0  0  0  0  0  0  0  0  0  0  0  0
   -5.7484    2.5602   -0.6108 C   0  0  0  0  0  0  0  0  0  0  0  0
   -2.2328    0.8600   -0.4473 H   0  0  0  0  0  0  0  0  0  0  0  0
   -0.3741    1.5662    0.7299 H   0  0  0  0  0  0  0  0  0  0  0  0
    1.4487   -0.8419   -1.2080 H   0  0  0  0  0  0  0  0  0  0  0  0
    3.8027   -0.5765   -1.7945 H   0  0  0  0  0  0  0  0  0  0  0  0
    7.9463    3.2207    0.0682 H   0  0  0  0  0  0  0  0  0  0  0  0
    7.6617    2.6448   -1.5867 H   0  0  0  0  0  0  0  0  0  0  0  0
    8.1252    1.4899   -0.2834 H   0  0  0  0  0  0  0  0  0  0  0  0
    4.1317    2.7192    0.9733 H   0  0  0  0  0  0  0  0  0  0  0  0
    1.7791    2.4371    1.5826 H   0  0  0  0  0  0  0  0  0  0  0  0
    1.3909   -1.9914    1.6653 H   0  0  0  0  0  0  0  0  0  0  0  0
   -1.1247   -5.9470    0.8326 H   0  0  0  0  0  0  0  0  0  0  0  0
   -2.3642   -5.0607    1.7453 H   0  0  0  0  0  0  0  0  0  0  0  0
   -2.4929   -5.2210   -0.0205 H   0  0  0  0  0  0  0  0  0  0  0  0
   -3.7517    1.0976   -1.8371 H   0  0  0  0  0  0  0  0  0  0  0  0
   -5.2961    0.3909   -2.2456 H   0  0  0  0  0  0  0  0  0  0  0  0
   -6.0698    0.5657    0.1208 H   0  0  0  0  0  0  0  0  0  0  0  0
   -4.5273    1.2679    0.5905 H   0  0  0  0  0  0  0  0  0  0  0  0
   -6.4889    2.5021   -1.4149 H   0  0  0  0  0  0  0  0  0  0  0  0
   -6.2236    3.0322    0.2549 H   0  0  0  0  0  0  0  0  0  0  0  0
   -4.9295    3.2063   -0.9430 H   0  0  0  0  0  0  0  0  0  0  0  0
  1  2  1  0
  2  3  1  0
  3  4  1  0
  4  5  2  0
  5  6  1  0
  6  7  2  0
  7  8  1  0
  8  9  2  0
  8 10  1  0
 10 11  1  0
  7 12  1  0
 12 13  2  0
  2 14  2  0
 14 15  1  0
 15 16  2  0
 16 17  1  0
 17 18  1  0
 17 19  1  0
 19 20  2  0
 20 21  1  0
 21 22  2  3
 22 23  1  0
 23 24  1  0
 24 25  1  0
 21  1  1  0
 13  4  1  0
 19 14  1  0
  1 26  1  0
  3 27  1  0
  5 28  1  0
  6 29  1  0
 11 30  1  0
 11 31  1  0
 11 32  1  0
 12 33  1  0
 13 34  1  0
 15 35  1  0
 18 36  1  0
 18 37  1  0
 18 38  1  0
 23 39  1  0
 23 40  1  0
 24 41  1  0
 24 42  1  0
 25 43  1  0
 25 44  1  0
 25 45  1  0
M  END
>  <ScrubInfo>  (2) 
{"isomerGroup": 0, "isomerId": 1, "confId": 0, "nr_conformers:": 1, "nr_isomers:": 9}

$$$$
_i2
     RDKit          3D

 45 47  0  0  0  0  0  0  0  0999 V2000
   -1.3757    1.0080   -1.4673 N   0  0  0  0  0  0  0  0  0  0  0  0
   -2.5943    0.4480   -1.1643 C   0  0  0  0  0  0  0  0  0  0  0  0
   -3.6300    1.0286   -1.8471 N   0  0  0  0  0  0  0  0  0  0  0  0
   -5.0164    0.6670   -1.5887 C   0  0  0  0  0  0  0  0  0  0  0  0
   -5.5393    1.3848   -0.3462 C   0  0  0  0  0  0  0  0  0  0  0  0
   -6.9981    1.0488   -0.0827 C   0  0  0  0  0  0  0  0  0  0  0  0
   -2.7456   -0.5418   -0.3231 N   0  0  0  0  0  0  0  0  0  0  0  0
   -1.5596   -0.9305    0.2230 C   0  0  0  0  0  0  0  0  0  0  0  0
   -0.2902   -0.4300   -0.0225 C   0  0  0  0  0  0  0  0  0  0  0  0
    0.5495   -1.1905    0.8097 C   0  0  0  0  0  0  0  0  0  0  0  0
   -0.1190   -2.0996    1.5307 N   0  0  0  0  0  0  0  0  0  0  0  0
   -1.4045   -1.9231    1.1491 N   0  0  0  0  0  0  0  0  0  0  0  0
   -2.4328   -2.7517    1.7262 C   0  0  0  0  0  0  0  0  0  0  0  0
   -0.1400    0.6453   -0.9822 C   0  0  0  0  0  0  0  0  0  0  0  0
    0.9460    1.2297   -1.3891 N   0  0  0  0  0  0  0  0  0  0  0  0
    2.2068    0.8673   -0.9159 C   0  0  0  0  0  0  0  0  0  0  0  0
    2.9553   -0.1087   -1.5782 C   0  0  0  0  0  0  0  0  0  0  0  0
    4.2362   -0.4440   -1.1293 C   0  0  0  0  0  0  0  0  0  0  0  0
    4.7892    0.2078   -0.0185 C   0  0  0  0  0  0  0  0  0  0  0  0
    6.1577   -0.1842    0.4174 C   0  0  0  0  0  0  0  0  0  0  0  0
    6.8318   -1.0264   -0.1543 O   0  0  0  0  0  0  0  0  0  0  0  0
    6.5289    0.5164    1.5180 O   0  0  0  0  0  0  0  0  0  0  0  0
    7.8325    0.1885    2.0008 C   0  0  0  0  0  0  0  0  0  0  0  0
    4.0473    1.2028    0.6323 C   0  0  0  0  0  0  0  0  0  0  0  0
    2.7664    1.5337    0.1775 C   0  0  0  0  0  0  0  0  0  0  0  0
   -1.3365    1.6700   -2.2239 H   0  0  0  0  0  0  0  0  0  0  0  0
   -3.5118    2.0100   -2.0653 H   0  0  0  0  0  0  0  0  0  0  0  0
   -5.1225   -0.4196   -1.4891 H   0  0  0  0  0  0  0  0  0  0  0  0
   -5.6119    0.9620   -2.4603 H   0  0  0  0  0  0  0  0  0  0  0  0
   -4.9436    1.1096    0.5319 H   0  0  0  0  0  0  0  0  0  0  0  0
   -5.4342    2.4694   -0.4704 H   0  0  0  0  0  0  0  0  0  0  0  0
   -7.1293   -0.0256    0.0812 H   0  0  0  0  0  0  0  0  0  0  0  0
   -7.6284    1.3478   -0.9263 H   0  0  0  0  0  0  0  0  0  0  0  0
   -7.3530    1.5743    0.8094 H   0  0  0  0  0  0  0  0  0  0  0  0
    1.6212   -1.1372    0.9378 H   0  0  0  0  0  0  0  0  0  0  0  0
   -2.2031   -3.7950    1.4953 H   0  0  0  0  0  0  0  0  0  0  0  0
   -3.4077   -2.4877    1.3108 H   0  0  0  0  0  0  0  0  0  0  0  0
   -2.4360   -2.5918    2.8074 H   0  0  0  0  0  0  0  0  0  0  0  0
    2.5395   -0.6101   -2.4484 H   0  0  0  0  0  0  0  0  0  0  0  0
    4.8015   -1.2122   -1.6540 H   0  0  0  0  0  0  0  0  0  0  0  0
    8.5899    0.4148    1.2437 H   0  0  0  0  0  0  0  0  0  0  0  0
    7.8791   -0.8649    2.2944 H   0  0  0  0  0  0  0  0  0  0  0  0
    8.0311    0.8028    2.8834 H   0  0  0  0  0  0  0  0  0  0  0  0
    4.4528    1.7344    1.4895 H   0  0  0  0  0  0  0  0  0  0  0  0
    2.2010    2.3161    0.6774 H   0  0  0  0  0  0  0  0  0  0  0  0
  1  2  1  0
  2  3  1  0
  3  4  1  0
  4  5  1  0
  5  6  1  0
  2  7  2  0
  7  8  1  0
  8  9  2  0
  9 10  1  0
 10 11  2  0
 11 12  1  0
 12 13  1  0
  9 14  1  0
 14 15  2  3
 15 16  1  0
 16 17  2  0
 17 18  1  0
 18 19  2  0
 19 20  1  0
 20 21  2  0
 20 22  1  0
 22 23  1  0
 19 24  1  0
 24 25  2  0
 14  1  1  0
 25 16  1  0
 12  8  1  0
  1 26  1  0
  3 27  1  0
  4 28  1  0
  4 29  1  0
  5 30  1  0
  5 31  1  0
  6 32  1  0
  6 33  1  0
  6 34  1  0
 10 35  1  0
 13 36  1  0
 13 37  1  0
 13 38  1  0
 17 39  1  0
 18 40  1  0
 23 41  1  0
 23 42  1  0
 23 43  1  0
 24 44  1  0
 25 45  1  0
M  END
>  <ScrubInfo>  (3) 
{"isomerGroup": 0, "isomerId": 2, "confId": 0, "nr_conformers:": 1, "nr_isomers:": 9}

$$$$
_i3
     RDKit          3D

 45 47  0  0  0  0  0  0  0  0999 V2000
   -2.7714    1.5025   -0.3020 N   0  0  0  0  0  0  0  0  0  0  0  0
   -2.8407    0.2111    0.1756 C   0  0  0  0  0  0  0  0  0  0  0  0
   -3.8896   -0.1261    0.8508 N   0  0  0  0  0  0  0  0  0  0  0  0
   -3.9868   -1.4879    1.3769 C   0  0  0  0  0  0  0  0  0  0  0  0
   -4.6462   -2.4168    0.3590 C   0  0  0  0  0  0  0  0  0  0  0  0
   -6.0875   -2.0307    0.0584 C   0  0  0  0  0  0  0  0  0  0  0  0
   -1.8290   -0.7092   -0.0594 N   0  0  0  0  0  0  0  0  0  0  0  0
   -0.7798   -0.3382   -0.7399 C   0  0  0  0  0  0  0  0  0  0  0  0
    0.2547   -1.1896   -1.0343 N   0  0  0  0  0  0  0  0  0  0  0  0
    1.5941   -0.9984   -0.6059 C   0  0  0  0  0  0  0  0  0  0  0  0
    1.9672   -0.0606    0.3653 C   0  0  0  0  0  0  0  0  0  0  0  0
    3.3051    0.0719    0.7582 C   0  0  0  0  0  0  0  0  0  0  0  0
    4.2926   -0.7410    0.1897 C   0  0  0  0  0  0  0  0  0  0  0  0
    5.7286   -0.6441    0.5696 C   0  0  0  0  0  0  0  0  0  0  0  0
    6.5998   -1.3547    0.0935 O   0  0  0  0  0  0  0  0  0  0  0  0
    5.9144    0.3263    1.4986 O   0  0  0  0  0  0  0  0  0  0  0  0
    7.2731    0.4810    1.9114 C   0  0  0  0  0  0  0  0  0  0  0  0
    3.9244   -1.6889   -0.7718 C   0  0  0  0  0  0  0  0  0  0  0  0
    2.5872   -1.8172   -1.1611 C   0  0  0  0  0  0  0  0  0  0  0  0
   -0.6860    0.9953   -1.2904 C   0  0  0  0  0  0  0  0  0  0  0  0
    0.1966    1.7301   -2.0961 C   0  0  0  0  0  0  0  0  0  0  0  0
   -0.2329    2.9845   -2.3100 N   0  0  0  0  0  0  0  0  0  0  0  0
   -1.4146    3.0413   -1.6459 N   0  0  0  0  0  0  0  0  0  0  0  0
   -2.1779    4.2627   -1.6724 C   0  0  0  0  0  0  0  0  0  0  0  0
   -1.7081    1.8661   -1.0331 C   0  0  0  0  0  0  0  0  0  0  0  0
   -3.5773    2.0750   -0.0891 H   0  0  0  0  0  0  0  0  0  0  0  0
   -3.0141   -1.8891    1.6854 H   0  0  0  0  0  0  0  0  0  0  0  0
   -4.5922   -1.4555    2.2905 H   0  0  0  0  0  0  0  0  0  0  0  0
   -4.6323   -3.4392    0.7543 H   0  0  0  0  0  0  0  0  0  0  0  0
   -4.0749   -2.4262   -0.5761 H   0  0  0  0  0  0  0  0  0  0  0  0
   -6.5327   -2.7497   -0.6367 H   0  0  0  0  0  0  0  0  0  0  0  0
   -6.1474   -1.0391   -0.4008 H   0  0  0  0  0  0  0  0  0  0  0  0
   -6.6907   -2.0248    0.9718 H   0  0  0  0  0  0  0  0  0  0  0  0
   -0.0145   -2.1387   -0.7813 H   0  0  0  0  0  0  0  0  0  0  0  0
    1.2270    0.5764    0.8447 H   0  0  0  0  0  0  0  0  0  0  0  0
    3.5572    0.8130    1.5132 H   0  0  0  0  0  0  0  0  0  0  0  0
    7.6398   -0.4397    2.3760 H   0  0  0  0  0  0  0  0  0  0  0  0
    7.9021    0.7648    1.0618 H   0  0  0  0  0  0  0  0  0  0  0  0
    7.3121    1.2828    2.6539 H   0  0  0  0  0  0  0  0  0  0  0  0
    4.6771   -2.3319   -1.2252 H   0  0  0  0  0  0  0  0  0  0  0  0
    2.3275   -2.5564   -1.9164 H   0  0  0  0  0  0  0  0  0  0  0  0
    1.1335    1.4158   -2.5379 H   0  0  0  0  0  0  0  0  0  0  0  0
   -1.5528    5.0690   -1.2806 H   0  0  0  0  0  0  0  0  0  0  0  0
   -3.0724    4.1564   -1.0552 H   0  0  0  0  0  0  0  0  0  0  0  0
   -2.4625    4.4677   -2.7075 H   0  0  0  0  0  0  0  0  0  0  0  0
  1  2  1  0
  2  3  2  3
  3  4  1  0
  4  5  1  0
  5  6  1  0
  2  7  1  0
  7  8  2  0
  8  9  1  0
  9 10  1  0
 10 11  2  0
 11 12  1  0
 12 13  2  0
 13 14  1  0
 14 15  2  0
 14 16  1  0
 16 17  1  0
 13 18  1  0
 18 19  2  0
  8 20  1  0
 20 21  1  0
 21 22  2  0
 22 23  1  0
 23 24  1  0
 23 25  1  0
 25  1  1  0
 19 10  1  0
 25 20  2  0
  1 26  1  0
  4 27  1  0
  4 28  1  0
  5 29  1  0
  5 30  1  0
  6 31  1  0
  6 32  1  0
  6 33  1  0
  9 34  1  0
 11 35  1  0
 12 36  1  0
 17 37  1  0
 17 38  1  0
 17 39  1  0
 18 40  1  0
 19 41  1  0
 21 42  1  0
 24 43  1  0
 24 44  1  0
 24 45  1  0
M  END
>  <ScrubInfo>  (4) 
{"isomerGroup": 0, "isomerId": 3, "confId": 0, "nr_conformers:": 1, "nr_isomers:": 9}

$$$$
_i4
     RDKit          3D

 45 47  0  0  0  0  0  0  0  0999 V2000
   -0.3069    3.2461   -0.7842 N   0  0  0  0  0  0  0  0  0  0  0  0
    0.2269    2.0338   -0.3601 C   0  0  0  0  0  0  0  0  0  0  0  0
   -0.6842    1.0537   -0.2599 C   0  0  0  0  0  0  0  0  0  0  0  0
   -0.7621   -0.3487    0.1281 C   0  0  0  0  0  0  0  0  0  0  0  0
    0.1652   -1.1815    0.4677 N   0  0  0  0  0  0  0  0  0  0  0  0
    1.5032   -0.7902    0.5003 C   0  0  0  0  0  0  0  0  0  0  0  0
    2.0749   -0.3435    1.6944 C   0  0  0  0  0  0  0  0  0  0  0  0
    3.4228    0.0269    1.7429 C   0  0  0  0  0  0  0  0  0  0  0  0
    4.2173   -0.0619    0.5920 C   0  0  0  0  0  0  0  0  0  0  0  0
    5.6557    0.3217    0.5813 C   0  0  0  0  0  0  0  0  0  0  0  0
    6.3501    0.3017   -0.4227 O   0  0  0  0  0  0  0  0  0  0  0  0
    6.0628    0.6908    1.8212 O   0  0  0  0  0  0  0  0  0  0  0  0
    7.4394    1.0651    1.8919 C   0  0  0  0  0  0  0  0  0  0  0  0
    3.6490   -0.5317   -0.6002 C   0  0  0  0  0  0  0  0  0  0  0  0
    2.3016   -0.9019   -0.6405 C   0  0  0  0  0  0  0  0  0  0  0  0
   -2.0349   -0.8519    0.1292 N   0  0  0  0  0  0  0  0  0  0  0  0
   -3.0751   -0.1722   -0.2432 C   0  0  0  0  0  0  0  0  0  0  0  0
   -4.3211   -0.7286   -0.2166 N   0  0  0  0  0  0  0  0  0  0  0  0
   -4.5576   -2.1553   -0.1595 C   0  0  0  0  0  0  0  0  0  0  0  0
   -4.3490   -2.7907   -1.5324 C   0  0  0  0  0  0  0  0  0  0  0  0
   -4.6340   -4.2835   -1.5039 C   0  0  0  0  0  0  0  0  0  0  0  0
   -3.0555    1.1196   -0.6953 N   0  0  0  0  0  0  0  0  0  0  0  0
   -1.9179    1.7215   -0.7154 C   0  0  0  0  0  0  0  0  0  0  0  0
   -1.6333    3.0252   -1.1258 N   0  0  0  0  0  0  0  0  0  0  0  0
   -2.5966    4.0928   -0.9343 C   0  0  0  0  0  0  0  0  0  0  0  0
    0.2672    3.7182   -1.4870 H   0  0  0  0  0  0  0  0  0  0  0  0
    1.2868    1.9859   -0.1599 H   0  0  0  0  0  0  0  0  0  0  0  0
    1.4645   -0.2912    2.5930 H   0  0  0  0  0  0  0  0  0  0  0  0
    3.8371    0.3732    2.6864 H   0  0  0  0  0  0  0  0  0  0  0  0
    7.6638    1.3360    2.9273 H   0  0  0  0  0  0  0  0  0  0  0  0
    8.0807    0.2251    1.6069 H   0  0  0  0  0  0  0  0  0  0  0  0
    7.6330    1.9349    1.2564 H   0  0  0  0  0  0  0  0  0  0  0  0
    4.2546   -0.6231   -1.5001 H   0  0  0  0  0  0  0  0  0  0  0  0
    1.8717   -1.2864   -1.5621 H   0  0  0  0  0  0  0  0  0  0  0  0
   -4.9993   -0.1847   -0.7340 H   0  0  0  0  0  0  0  0  0  0  0  0
   -5.5911   -2.3182    0.1670 H   0  0  0  0  0  0  0  0  0  0  0  0
   -3.9140   -2.6281    0.5915 H   0  0  0  0  0  0  0  0  0  0  0  0
   -3.3197   -2.6283   -1.8734 H   0  0  0  0  0  0  0  0  0  0  0  0
   -5.0045   -2.3107   -2.2691 H   0  0  0  0  0  0  0  0  0  0  0  0
   -3.9690   -4.7961   -0.8016 H   0  0  0  0  0  0  0  0  0  0  0  0
   -4.4798   -4.7179   -2.4965 H   0  0  0  0  0  0  0  0  0  0  0  0
   -5.6684   -4.4799   -1.2042 H   0  0  0  0  0  0  0  0  0  0  0  0
   -3.5517    3.8390   -1.4052 H   0  0  0  0  0  0  0  0  0  0  0  0
   -2.7684    4.2758    0.1316 H   0  0  0  0  0  0  0  0  0  0  0  0
   -2.2343    5.0189   -1.3924 H   0  0  0  0  0  0  0  0  0  0  0  0
  1  2  1  0
  2  3  2  0
  3  4  1  0
  4  5  2  3
  5  6  1  0
  6  7  2  0
  7  8  1  0
  8  9  2  0
  9 10  1  0
 10 11  2  0
 10 12  1  0
 12 13  1  0
  9 14  1  0
 14 15  2  0
  4 16  1  0
 16 17  2  0
 17 18  1  0
 18 19  1  0
 19 20  1  0
 20 21  1  0
 17 22  1  0
 22 23  2  0
 23 24  1  0
 24 25  1  0
 24  1  1  0
 23  3  1  0
 15  6  1  0
  1 26  1  0
  2 27  1  0
  7 28  1  0
  8 29  1  0
 13 30  1  0
 13 31  1  0
 13 32  1  0
 14 33  1  0
 15 34  1  0
 18 35  1  0
 19 36  1  0
 19 37  1  0
 20 38  1  0
 20 39  1  0
 21 40  1  0
 21 41  1  0
 21 42  1  0
 25 43  1  0
 25 44  1  0
 25 45  1  0
M  END
>  <ScrubInfo>  (5) 
{"isomerGroup": 0, "isomerId": 4, "confId": 0, "nr_conformers:": 1, "nr_isomers:": 9}

$$$$
_i5
     RDKit          3D

 45 47  0  0  0  0  0  0  0  0999 V2000
   -2.7981    0.6615   -0.7693 N   0  0  0  0  0  0  0  0  0  0  0  0
   -2.7670   -0.6951   -0.9721 C   0  0  0  0  0  0  0  0  0  0  0  0
   -3.9851   -1.2972   -1.1055 N   0  0  0  0  0  0  0  0  0  0  0  0
   -5.0819   -1.0961   -0.1686 C   0  0  0  0  0  0  0  0  0  0  0  0
   -4.7525   -1.6982    1.1961 C   0  0  0  0  0  0  0  0  0  0  0  0
   -5.9131   -1.5464    2.1659 C   0  0  0  0  0  0  0  0  0  0  0  0
   -1.6896   -1.4223   -1.0576 N   0  0  0  0  0  0  0  0  0  0  0  0
   -0.4399   -0.8290   -0.9234 C   0  0  0  0  0  0  0  0  0  0  0  0
    0.5748   -1.6331   -0.9636 N   0  0  0  0  0  0  0  0  0  0  0  0
    1.8902   -1.1938   -0.8374 C   0  0  0  0  0  0  0  0  0  0  0  0
    2.4918   -1.1173    0.4217 C   0  0  0  0  0  0  0  0  0  0  0  0
    3.8252   -0.7143    0.5495 C   0  0  0  0  0  0  0  0  0  0  0  0
    4.5769   -0.4000   -0.5908 C   0  0  0  0  0  0  0  0  0  0  0  0
    5.9996    0.0323   -0.5172 C   0  0  0  0  0  0  0  0  0  0  0  0
    6.6733    0.3046   -1.4984 O   0  0  0  0  0  0  0  0  0  0  0  0
    6.4201    0.0795    0.7716 O   0  0  0  0  0  0  0  0  0  0  0  0
    7.7800    0.4892    0.9225 C   0  0  0  0  0  0  0  0  0  0  0  0
    3.9804   -0.5013   -1.8552 C   0  0  0  0  0  0  0  0  0  0  0  0
    2.6472   -0.9048   -1.9753 C   0  0  0  0  0  0  0  0  0  0  0  0
   -0.4207    0.6151   -0.7549 C   0  0  0  0  0  0  0  0  0  0  0  0
    0.5365    1.6395   -0.6416 C   0  0  0  0  0  0  0  0  0  0  0  0
   -0.0143    2.8579   -0.5176 N   0  0  0  0  0  0  0  0  0  0  0  0
   -1.3436    2.6145   -0.5558 N   0  0  0  0  0  0  0  0  0  0  0  0
   -2.2615    3.7195   -0.4483 C   0  0  0  0  0  0  0  0  0  0  0  0
   -1.6136    1.2906   -0.6896 C   0  0  0  0  0  0  0  0  0  0  0  0
   -3.6744    1.1317   -0.9479 H   0  0  0  0  0  0  0  0  0  0  0  0
   -3.8296   -2.2898   -1.2790 H   0  0  0  0  0  0  0  0  0  0  0  0
   -5.3225   -0.0315   -0.0736 H   0  0  0  0  0  0  0  0  0  0  0  0
   -5.9731   -1.5832   -0.5807 H   0  0  0  0  0  0  0  0  0  0  0  0
   -4.5088   -2.7618    1.0866 H   0  0  0  0  0  0  0  0  0  0  0  0
   -3.8656   -1.2126    1.6201 H   0  0  0  0  0  0  0  0  0  0  0  0
   -5.6563   -1.9835    3.1359 H   0  0  0  0  0  0  0  0  0  0  0  0
   -6.8072   -2.0543    1.7905 H   0  0  0  0  0  0  0  0  0  0  0  0
   -6.1572   -0.4909    2.3228 H   0  0  0  0  0  0  0  0  0  0  0  0
    1.9176   -1.3788    1.3072 H   0  0  0  0  0  0  0  0  0  0  0  0
    4.2630   -0.6596    1.5430 H   0  0  0  0  0  0  0  0  0  0  0  0
    8.4508   -0.2159    0.4217 H   0  0  0  0  0  0  0  0  0  0  0  0
    7.9206    1.5026    0.5335 H   0  0  0  0  0  0  0  0  0  0  0  0
    8.0160    0.4926    1.9902 H   0  0  0  0  0  0  0  0  0  0  0  0
    4.5523   -0.2753   -2.7533 H   0  0  0  0  0  0  0  0  0  0  0  0
    2.1961   -0.9998   -2.9600 H   0  0  0  0  0  0  0  0  0  0  0  0
    1.6156    1.5745   -0.6476 H   0  0  0  0  0  0  0  0  0  0  0  0
   -1.9893    4.3141    0.4276 H   0  0  0  0  0  0  0  0  0  0  0  0
   -3.2815    3.3466   -0.3345 H   0  0  0  0  0  0  0  0  0  0  0  0
   -2.1818    4.3200   -1.3578 H   0  0  0  0  0  0  0  0  0  0  0  0
  1  2  1  0
  2  3  1  0
  3  4  1  0
  4  5  1  0
  5  6  1  0
  2  7  2  0
  7  8  1  0
  8  9  2  3
  9 10  1  0
 10 11  2  0
 11 12  1  0
 12 13  2  0
 13 14  1  0
 14 15  2  0
 14 16  1  0
 16 17  1  0
 13 18  1  0
 18 19  2  0
  8 20  1  0
 20 21  1  0
 21 22  2  0
 22 23  1  0
 23 24  1  0
 23 25  1  0
 25  1  1  0
 19 10  1  0
 25 20  2  0
  1 26  1  0
  3 27  1  0
  4 28  1  0
  4 29  1  0
  5 30  1  0
  5 31  1  0
  6 32  1  0
  6 33  1  0
  6 34  1  0
 11 35  1  0
 12 36  1  0
 17 37  1  0
 17 38  1  0
 17 39  1  0
 18 40  1  0
 19 41  1  0
 21 42  1  0
 24 43  1  0
 24 44  1  0
 24 45  1  0
M  END
>  <ScrubInfo>  (6) 
{"isomerGroup": 0, "isomerId": 5, "confId": 0, "nr_conformers:": 1, "nr_isomers:": 9}

$$$$
_i6
     RDKit          3D

 45 47  0  0  0  0  0  0  0  0999 V2000
   -2.0368   -3.0204    3.3479 N   0  0  0  0  0  0  0  0  0  0  0  0
   -0.8321   -2.4532    2.9467 C   0  0  0  0  0  0  0  0  0  0  0  0
   -0.9692   -1.6088    1.9145 C   0  0  0  0  0  0  0  0  0  0  0  0
   -0.1192   -0.7679    1.0641 C   0  0  0  0  0  0  0  0  0  0  0  0
    1.2408   -0.7160    1.3154 N   0  0  0  0  0  0  0  0  0  0  0  0
    2.2606   -0.0034    0.6541 C   0  0  0  0  0  0  0  0  0  0  0  0
    3.5783   -0.1398    1.1284 C   0  0  0  0  0  0  0  0  0  0  0  0
    4.6498    0.5362    0.5297 C   0  0  0  0  0  0  0  0  0  0  0  0
    4.4265    1.3727   -0.5669 C   0  0  0  0  0  0  0  0  0  0  0  0
    5.5220    2.1173   -1.2458 C   0  0  0  0  0  0  0  0  0  0  0  0
    5.3486    2.8540   -2.2035 O   0  0  0  0  0  0  0  0  0  0  0  0
    6.7147    1.8584   -0.6517 O   0  0  0  0  0  0  0  0  0  0  0  0
    7.8180    2.5398   -1.2505 C   0  0  0  0  0  0  0  0  0  0  0  0
    3.1234    1.5195   -1.0488 C   0  0  0  0  0  0  0  0  0  0  0  0
    2.0570    0.8390   -0.4431 C   0  0  0  0  0  0  0  0  0  0  0  0
   -0.7142   -0.1154    0.1090 N   0  0  0  0  0  0  0  0  0  0  0  0
   -2.0717   -0.2335   -0.0784 C   0  0  0  0  0  0  0  0  0  0  0  0
   -2.5097    0.4130   -1.1006 N   0  0  0  0  0  0  0  0  0  0  0  0
   -3.9415    0.3523   -1.3798 C   0  0  0  0  0  0  0  0  0  0  0  0
   -4.2165    1.1878   -2.6287 C   0  0  0  0  0  0  0  0  0  0  0  0
   -5.6917    1.1801   -2.9940 C   0  0  0  0  0  0  0  0  0  0  0  0
   -2.9514   -0.9479    0.7027 N   0  0  0  0  0  0  0  0  0  0  0  0
   -2.4290   -1.6060    1.6769 C   0  0  0  0  0  0  0  0  0  0  0  0
   -3.0576   -2.4028    2.6342 N   0  0  0  0  0  0  0  0  0  0  0  0
   -4.2529   -3.1576    2.3081 C   0  0  0  0  0  0  0  0  0  0  0  0
   -2.1592   -3.0559    4.3630 H   0  0  0  0  0  0  0  0  0  0  0  0
    0.0691   -2.7278    3.4744 H   0  0  0  0  0  0  0  0  0  0  0  0
    1.5812   -1.2826    2.0798 H   0  0  0  0  0  0  0  0  0  0  0  0
    3.7930   -0.7812    1.9802 H   0  0  0  0  0  0  0  0  0  0  0  0
    5.6499    0.3976    0.9326 H   0  0  0  0  0  0  0  0  0  0  0  0
    8.7233    2.2651   -0.7022 H   0  0  0  0  0  0  0  0  0  0  0  0
    7.9384    2.2321   -2.2940 H   0  0  0  0  0  0  0  0  0  0  0  0
    7.6847    3.6238   -1.1777 H   0  0  0  0  0  0  0  0  0  0  0  0
    2.9201    2.1653   -1.9018 H   0  0  0  0  0  0  0  0  0  0  0  0
    1.0673    0.9948   -0.8640 H   0  0  0  0  0  0  0  0  0  0  0  0
   -4.2579   -0.6822   -1.5613 H   0  0  0  0  0  0  0  0  0  0  0  0
   -4.5181    0.7588   -0.5399 H   0  0  0  0  0  0  0  0  0  0  0  0
   -3.6311    0.8006   -3.4714 H   0  0  0  0  0  0  0  0  0  0  0  0
   -3.8878    2.2211   -2.4646 H   0  0  0  0  0  0  0  0  0  0  0  0
   -6.0399    0.1626   -3.1983 H   0  0  0  0  0  0  0  0  0  0  0  0
   -6.2988    1.5950   -2.1830 H   0  0  0  0  0  0  0  0  0  0  0  0
   -5.8636    1.7843   -3.8902 H   0  0  0  0  0  0  0  0  0  0  0  0
   -5.0301   -2.4964    1.9117 H   0  0  0  0  0  0  0  0  0  0  0  0
   -4.0343   -3.9289    1.5623 H   0  0  0  0  0  0  0  0  0  0  0  0
   -4.6525   -3.6433    3.2043 H   0  0  0  0  0  0  0  0  0  0  0  0
  1  2  1  0
  2  3  2  0
  3  4  1  0
  4  5  1  0
  5  6  1  0
  6  7  2  0
  7  8  1  0
  8  9  2  0
  9 10  1  0
 10 11  2  0
 10 12  1  0
 12 13  1  0
  9 14  1  0
 14 15  2  0
  4 16  2  0
 16 17  1  0
 17 18  2  3
 18 19  1  0
 19 20  1  0
 20 21  1  0
 17 22  1  0
 22 23  2  0
 23 24  1  0
 24 25  1  0
 24  1  1  0
 23  3  1  0
 15  6  1  0
  1 26  1  0
  2 27  1  0
  5 28  1  0
  7 29  1  0
  8 30  1  0
 13 31  1  0
 13 32  1  0
 13 33  1  0
 14 34  1  0
 15 35  1  0
 19 36  1  0
 19 37  1  0
 20 38  1  0
 20 39  1  0
 21 40  1  0
 21 41  1  0
 21 42  1  0
 25 43  1  0
 25 44  1  0
 25 45  1  0
M  END
>  <ScrubInfo>  (7) 
{"isomerGroup": 0, "isomerId": 6, "confId": 0, "nr_conformers:": 1, "nr_isomers:": 9}

$$$$
_i7
     RDKit          3D

 45 47  0  0  0  0  0  0  0  0999 V2000
   -0.2393    2.9773    0.8490 N   0  0  0  0  0  0  0  0  0  0  0  0
    0.3734    1.8393    0.3366 C   0  0  0  0  0  0  0  0  0  0  0  0
   -0.4934    0.8915   -0.0480 C   0  0  0  0  0  0  0  0  0  0  0  0
   -0.5095   -0.4748   -0.6016 C   0  0  0  0  0  0  0  0  0  0  0  0
    0.4856   -1.2320   -0.9608 N   0  0  0  0  0  0  0  0  0  0  0  0
    1.8035   -0.7831   -0.8557 C   0  0  0  0  0  0  0  0  0  0  0  0
    2.5519   -1.0622    0.2907 C   0  0  0  0  0  0  0  0  0  0  0  0
    3.8819   -0.6408    0.3915 C   0  0  0  0  0  0  0  0  0  0  0  0
    4.4808    0.0549   -0.6674 C   0  0  0  0  0  0  0  0  0  0  0  0
    5.8903    0.5311   -0.6166 C   0  0  0  0  0  0  0  0  0  0  0  0
    6.4160    1.1731   -1.5121 O   0  0  0  0  0  0  0  0  0  0  0  0
    6.4813    0.1567    0.5451 O   0  0  0  0  0  0  0  0  0  0  0  0
    7.8423    0.5740    0.6640 C   0  0  0  0  0  0  0  0  0  0  0  0
    3.7357    0.3154   -1.8257 C   0  0  0  0  0  0  0  0  0  0  0  0
    2.4073   -0.1100   -1.9202 C   0  0  0  0  0  0  0  0  0  0  0  0
   -1.7783   -0.9751   -0.7323 N   0  0  0  0  0  0  0  0  0  0  0  0
   -2.9569   -0.3460   -0.4185 C   0  0  0  0  0  0  0  0  0  0  0  0
   -4.1380   -0.8447   -0.5187 N   0  0  0  0  0  0  0  0  0  0  0  0
   -4.3024   -2.2091   -1.0017 C   0  0  0  0  0  0  0  0  0  0  0  0
   -5.7887   -2.5633   -1.0066 C   0  0  0  0  0  0  0  0  0  0  0  0
   -6.3756   -2.6482    0.3954 C   0  0  0  0  0  0  0  0  0  0  0  0
   -2.9613    0.9499    0.0526 N   0  0  0  0  0  0  0  0  0  0  0  0
   -1.8222    1.5441    0.2162 C   0  0  0  0  0  0  0  0  0  0  0  0
   -1.6079    2.8499    0.6628 N   0  0  0  0  0  0  0  0  0  0  0  0
   -2.5155    3.4739    1.6066 C   0  0  0  0  0  0  0  0  0  0  0  0
    0.1798    3.8497    0.5186 H   0  0  0  0  0  0  0  0  0  0  0  0
    1.4520    1.8179    0.2962 H   0  0  0  0  0  0  0  0  0  0  0  0
    2.0961   -1.6147    1.1087 H   0  0  0  0  0  0  0  0  0  0  0  0
    4.4369   -0.8692    1.2981 H   0  0  0  0  0  0  0  0  0  0  0  0
    8.2222    0.2196    1.6261 H   0  0  0  0  0  0  0  0  0  0  0  0
    8.4498    0.1325   -0.1323 H   0  0  0  0  0  0  0  0  0  0  0  0
    7.9112    1.6662    0.6452 H   0  0  0  0  0  0  0  0  0  0  0  0
    4.1884    0.8422   -2.6640 H   0  0  0  0  0  0  0  0  0  0  0  0
    1.8418    0.0802   -2.8289 H   0  0  0  0  0  0  0  0  0  0  0  0
   -1.8254   -1.9129   -1.0948 H   0  0  0  0  0  0  0  0  0  0  0  0
   -3.9228   -2.2935   -2.0269 H   0  0  0  0  0  0  0  0  0  0  0  0
   -3.7580   -2.9196   -0.3684 H   0  0  0  0  0  0  0  0  0  0  0  0
   -6.3497   -1.8224   -1.5884 H   0  0  0  0  0  0  0  0  0  0  0  0
   -5.9208   -3.5323   -1.5018 H   0  0  0  0  0  0  0  0  0  0  0  0
   -6.3204   -1.6842    0.9104 H   0  0  0  0  0  0  0  0  0  0  0  0
   -5.8442   -3.3916    0.9983 H   0  0  0  0  0  0  0  0  0  0  0  0
   -7.4287   -2.9427    0.3456 H   0  0  0  0  0  0  0  0  0  0  0  0
   -3.5416    3.4562    1.2254 H   0  0  0  0  0  0  0  0  0  0  0  0
   -2.4901    2.9559    2.5710 H   0  0  0  0  0  0  0  0  0  0  0  0
   -2.2375    4.5207    1.7669 H   0  0  0  0  0  0  0  0  0  0  0  0
  1  2  1  0
  2  3  2  0
  3  4  1  0
  4  5  2  3
  5  6  1  0
  6  7  2  0
  7  8  1  0
  8  9  2  0
  9 10  1  0
 10 11  2  0
 10 12  1  0
 12 13  1  0
  9 14  1  0
 14 15  2  0
  4 16  1  0
 16 17  1  0
 17 18  2  3
 18 19  1  0
 19 20  1  0
 20 21  1  0
 17 22  1  0
 22 23  2  0
 23 24  1  0
 24 25  1  0
 24  1  1  0
 23  3  1  0
 15  6  1  0
  1 26  1  0
  2 27  1  0
  7 28  1  0
  8 29  1  0
 13 30  1  0
 13 31  1  0
 13 32  1  0
 14 33  1  0
 15 34  1  0
 16 35  1  0
 19 36  1  0
 19 37  1  0
 20 38  1  0
 20 39  1  0
 21 40  1  0
 21 41  1  0
 21 42  1  0
 25 43  1  0
 25 44  1  0
 25 45  1  0
M  END
>  <ScrubInfo>  (8) 
{"isomerGroup": 0, "isomerId": 7, "confId": 0, "nr_conformers:": 1, "nr_isomers:": 9}

$$$$
_i8
     RDKit          3D

 45 47  0  0  0  0  0  0  0  0999 V2000
   -2.7257    0.6502    0.0198 N   0  0  0  0  0  0  0  0  0  0  0  0
   -2.7648   -0.6985    0.3316 C   0  0  0  0  0  0  0  0  0  0  0  0
   -3.7995   -1.4194    0.6033 N   0  0  0  0  0  0  0  0  0  0  0  0
   -5.1140   -0.7855    0.5916 C   0  0  0  0  0  0  0  0  0  0  0  0
   -6.1766   -1.8298    0.9298 C   0  0  0  0  0  0  0  0  0  0  0  0
   -6.3232   -2.8889   -0.1536 C   0  0  0  0  0  0  0  0  0  0  0  0
   -1.5225   -1.2930    0.3391 N   0  0  0  0  0  0  0  0  0  0  0  0
   -0.2621   -0.7936    0.0923 C   0  0  0  0  0  0  0  0  0  0  0  0
    0.7877   -1.5563    0.1595 N   0  0  0  0  0  0  0  0  0  0  0  0
    2.0761   -1.0825   -0.0833 C   0  0  0  0  0  0  0  0  0  0  0  0
    2.8613   -0.6050    0.9694 C   0  0  0  0  0  0  0  0  0  0  0  0
    4.1694   -0.1663    0.7384 C   0  0  0  0  0  0  0  0  0  0  0  0
    4.7107   -0.2188   -0.5533 C   0  0  0  0  0  0  0  0  0  0  0  0
    6.0964    0.2315   -0.8593 C   0  0  0  0  0  0  0  0  0  0  0  0
    6.5899    0.1827   -1.9749 O   0  0  0  0  0  0  0  0  0  0  0  0
    6.7080    0.6942    0.2596 O   0  0  0  0  0  0  0  0  0  0  0  0
    8.0448    1.1482    0.0433 C   0  0  0  0  0  0  0  0  0  0  0  0
    3.9305   -0.7203   -1.6041 C   0  0  0  0  0  0  0  0  0  0  0  0
    2.6239   -1.1570   -1.3661 C   0  0  0  0  0  0  0  0  0  0  0  0
   -0.3226    0.6230   -0.2284 C   0  0  0  0  0  0  0  0  0  0  0  0
    0.5818    1.6463   -0.5678 C   0  0  0  0  0  0  0  0  0  0  0  0
   -0.0199    2.8269   -0.7758 N   0  0  0  0  0  0  0  0  0  0  0  0
   -1.3273    2.5643   -0.5641 N   0  0  0  0  0  0  0  0  0  0  0  0
   -2.2913    3.6257   -0.7105 C   0  0  0  0  0  0  0  0  0  0  0  0
   -1.5462    1.2597   -0.2425 C   0  0  0  0  0  0  0  0  0  0  0  0
   -3.6086    1.1414   -0.0041 H   0  0  0  0  0  0  0  0  0  0  0  0
   -5.3293   -0.3460   -0.3896 H   0  0  0  0  0  0  0  0  0  0  0  0
   -5.1547    0.0085    1.3466 H   0  0  0  0  0  0  0  0  0  0  0  0
   -7.1410   -1.3252    1.0604 H   0  0  0  0  0  0  0  0  0  0  0  0
   -5.9343   -2.3179    1.8812 H   0  0  0  0  0  0  0  0  0  0  0  0
   -7.1203   -3.5909    0.1113 H   0  0  0  0  0  0  0  0  0  0  0  0
   -5.3993   -3.4618   -0.2796 H   0  0  0  0  0  0  0  0  0  0  0  0
   -6.5794   -2.4329   -1.1153 H   0  0  0  0  0  0  0  0  0  0  0  0
   -1.5424   -2.2770    0.5657 H   0  0  0  0  0  0  0  0  0  0  0  0
    2.4517   -0.5775    1.9760 H   0  0  0  0  0  0  0  0  0  0  0  0
    4.7533    0.2054    1.5767 H   0  0  0  0  0  0  0  0  0  0  0  0
    8.6749    0.3285   -0.3158 H   0  0  0  0  0  0  0  0  0  0  0  0
    8.0562    1.9850   -0.6623 H   0  0  0  0  0  0  0  0  0  0  0  0
    8.4428    1.4970    1.0001 H   0  0  0  0  0  0  0  0  0  0  0  0
    4.3381   -0.7803   -2.6117 H   0  0  0  0  0  0  0  0  0  0  0  0
    2.0310   -1.5596   -2.1834 H   0  0  0  0  0  0  0  0  0  0  0  0
    1.6561    1.6037   -0.6800 H   0  0  0  0  0  0  0  0  0  0  0  0
   -1.8249    4.5738   -0.4298 H   0  0  0  0  0  0  0  0  0  0  0  0
   -3.1444    3.4349   -0.0554 H   0  0  0  0  0  0  0  0  0  0  0  0
   -2.6103    3.6531   -1.7551 H   0  0  0  0  0  0  0  0  0  0  0  0
  1  2  1  0
  2  3  2  3
  3  4  1  0
  4  5  1  0
  5  6  1  0
  2  7  1  0
  7  8  1  0
  8  9  2  3
  9 10  1  0
 10 11  2  0
 11 12  1  0
 12 13  2  0
 13 14  1  0
 14 15  2  0
 14 16  1  0
 16 17  1  0
 13 18  1  0
 18 19  2  0
  8 20  1  0
 20 21  1  0
 21 22  2  0
 22 23  1  0
 23 24  1  0
 23 25  1  0
 25  1  1  0
 19 10  1  0
 25 20  2  0
  1 26  1  0
  4 27  1  0
  4 28  1  0
  5 29  1  0
  5 30  1  0
  6 31  1  0
  6 32  1  0
  6 33  1  0
  7 34  1  0
 11 35  1  0
 12 36  1  0
 17 37  1  0
 17 38  1  0
 17 39  1  0
 18 40  1  0
 19 41  1  0
 21 42  1  0
 24 43  1  0
 24 44  1  0
 24 45  1  0
M  END
>  <ScrubInfo>  (9) 
{"isomerGroup": 0, "isomerId": 8, "confId": 0, "nr_conformers:": 1, "nr_isomers:": 9}

$$$$
