REMARK SMILES CCCNc1nc(Nc2ccc(C(=O)OC)cc2)c2cnn(C)c2n1
REMARK SMILES IDX 5 1 6 2 7 3 19 4 20 5 21 6 22 7 23 8 24 9 25 10 4 11 3 13
REMARK SMILES IDX 2 14 1 15 8 16 9 18 10 19 18 20 11 21 17 22 12 23 13 24
REMARK SMILES IDX 14 25 15 26 16 27
REMARK H PARENT 4 12 8 17
ROOT
ATOM      1  C   UNL     1      -3.080  -0.619   0.464  1.00  0.00     0.226 A 
ATOM      2  N   UNL     1      -2.113   0.114  -0.120  1.00  0.00    -0.195 NA
ATOM      3  C   UNL     1      -0.934  -0.459  -0.464  1.00  0.00     0.147 A 
ATOM      4  C   UNL     1      -0.785  -1.828  -0.240  1.00  0.00     0.082 A 
ATOM      5  C   UNL     1       0.171  -2.841  -0.460  1.00  0.00     0.149 A 
ATOM      6  N   UNL     1      -0.232  -4.040  -0.022  1.00  0.00    -0.179 NA
ATOM      7  N   UNL     1      -1.466  -3.788   0.475  1.00  0.00    -0.250 N 
ATOM      8  C   UNL     1      -2.232  -4.866   1.047  1.00  0.00     0.176 C 
ATOM      9  C   UNL     1      -1.847  -2.479   0.355  1.00  0.00     0.165 A 
ATOM     10  N   UNL     1      -3.011  -1.930   0.732  1.00  0.00    -0.193 NA
ENDROOT
BRANCH   1  11
ATOM     11  N   UNL     1      -4.274  -0.015   0.839  1.00  0.00    -0.354 N 
ATOM     12  H   UNL     1      -4.934  -0.774   0.973  1.00  0.00     0.163 HD
BRANCH  11  13
ATOM     13  C   UNL     1      -4.742   1.065  -0.013  1.00  0.00     0.116 C 
BRANCH  13  14
ATOM     14  C   UNL     1      -4.276   2.418   0.525  1.00  0.00     0.018 C 
ATOM     15  C   UNL     1      -4.805   3.564  -0.322  1.00  0.00     0.006 C 
ENDBRANCH  13  14
ENDBRANCH  11  13
ENDBRANCH   1  11
BRANCH   3  16
ATOM     16  N   UNL     1       0.022   0.372  -1.070  1.00  0.00    -0.339 N 
ATOM     17  H   UNL     1      -0.381   1.308  -1.080  1.00  0.00     0.168 HD
BRANCH  16  18
ATOM     18  C   UNL     1       1.406   0.431  -0.804  1.00  0.00     0.040 A 
ATOM     19  C   UNL     1       1.970   0.017   0.408  1.00  0.00     0.027 A 
ATOM     20  C   UNL     1       2.243   1.010  -1.766  1.00  0.00     0.027 A 
ATOM     21  C   UNL     1       3.345   0.138   0.635  1.00  0.00     0.018 A 
ATOM     22  C   UNL     1       3.620   1.133  -1.546  1.00  0.00     0.018 A 
ATOM     23  C   UNL     1       4.180   0.693  -0.342  1.00  0.00     0.060 A 
BRANCH  23  24
ATOM     24  C   UNL     1       5.636   0.800  -0.048  1.00  0.00     0.337 C 
ATOM     25  O   UNL     1       6.139   0.438   1.003  1.00  0.00    -0.246 OA
BRANCH  24  26
ATOM     26  O   UNL     1       6.298   1.345  -1.099  1.00  0.00    -0.465 OA
ATOM     27  C   UNL     1       7.705   1.477  -0.892  1.00  0.00     0.282 C 
ENDBRANCH  24  26
ENDBRANCH  23  24
ENDBRANCH  16  18
ENDBRANCH   3  16
TORSDOF 7
