_i0
     RDKit          3D

 47 50  0  0  0  0  0  0  0  0999 V2000
    7.8179   -1.3305   -1.9979 C   0  0  0  0  0  0  0  0  0  0  0  0
    7.3176   -0.1033   -1.4834 O   0  0  0  0  0  0  0  0  0  0  0  0
    6.0709   -0.1305   -0.9217 C   0  0  0  0  0  0  0  0  0  0  0  0
    5.2453   -1.2491   -0.8080 C   0  0  0  0  0  0  0  0  0  0  0  0
    3.9851   -1.1376   -0.2079 C   0  0  0  0  0  0  0  0  0  0  0  0
    3.5366    0.0926    0.2915 C   0  0  0  0  0  0  0  0  0  0  0  0
    2.1725    0.2205    0.9306 C   0  0  0  0  0  0  0  0  0  0  0  0
    1.2900    0.9244    0.0244 N   0  0  0  0  0  0  0  0  0  0  0  0
   -0.0433    0.9179    0.4107 C   0  0  0  0  0  0  0  0  0  0  0  0
   -0.9211    0.8482   -0.6079 N   0  0  0  0  0  0  0  0  0  0  0  0
   -2.2539    0.8264   -0.3565 C   0  0  0  0  0  0  0  0  0  0  0  0
   -3.1091    0.7749   -1.4714 N   0  0  0  0  0  0  0  0  0  0  0  0
   -4.2504   -0.0457   -1.6284 C   0  0  0  0  0  0  0  0  0  0  0  0
   -5.2267    0.3556   -2.5494 C   0  0  0  0  0  0  0  0  0  0  0  0
   -6.3466   -0.4407   -2.7790 C   0  0  0  0  0  0  0  0  0  0  0  0
   -7.2768   -0.0309   -3.6509 F   0  0  0  0  0  0  0  0  0  0  0  0
   -6.5139   -1.6552   -2.1239 C   0  0  0  0  0  0  0  0  0  0  0  0
   -5.5370   -2.0866   -1.2305 C   0  0  0  0  0  0  0  0  0  0  0  0
   -4.4138   -1.2917   -0.9982 C   0  0  0  0  0  0  0  0  0  0  0  0
   -3.4741   -1.7634   -0.1657 F   0  0  0  0  0  0  0  0  0  0  0  0
   -2.6704    0.9181    0.9725 C   0  0  0  0  0  0  0  0  0  0  0  0
   -3.8730    0.9843    1.7049 C   0  0  0  0  0  0  0  0  0  0  0  0
   -3.6746    1.0725    3.0258 N   0  0  0  0  0  0  0  0  0  0  0  0
   -2.3252    1.0711    3.1342 N   0  0  0  0  0  0  0  0  0  0  0  0
   -1.7191    1.1688    4.4379 C   0  0  0  0  0  0  0  0  0  0  0  0
   -1.6795    0.9860    1.9310 C   0  0  0  0  0  0  0  0  0  0  0  0
   -0.3560    0.9779    1.7132 N   0  0  0  0  0  0  0  0  0  0  0  0
    4.3674    1.2134    0.1662 C   0  0  0  0  0  0  0  0  0  0  0  0
    5.6236    1.0987   -0.4333 C   0  0  0  0  0  0  0  0  0  0  0  0
    8.8149   -1.1399   -2.4067 H   0  0  0  0  0  0  0  0  0  0  0  0
    7.9209   -2.0785   -1.2048 H   0  0  0  0  0  0  0  0  0  0  0  0
    7.1892   -1.7023   -2.8138 H   0  0  0  0  0  0  0  0  0  0  0  0
    5.5490   -2.2229   -1.1768 H   0  0  0  0  0  0  0  0  0  0  0  0
    3.3563   -2.0225   -0.1344 H   0  0  0  0  0  0  0  0  0  0  0  0
    1.7847   -0.7799    1.1648 H   0  0  0  0  0  0  0  0  0  0  0  0
    2.2809    0.7608    1.8800 H   0  0  0  0  0  0  0  0  0  0  0  0
    1.3159    0.5955   -0.9340 H   0  0  0  0  0  0  0  0  0  0  0  0
   -2.4947    0.6913   -2.2808 H   0  0  0  0  0  0  0  0  0  0  0  0
   -5.1321    1.2974   -3.0823 H   0  0  0  0  0  0  0  0  0  0  0  0
   -7.3946   -2.2583   -2.3214 H   0  0  0  0  0  0  0  0  0  0  0  0
   -5.6333   -3.0396   -0.7193 H   0  0  0  0  0  0  0  0  0  0  0  0
   -4.8877    0.9732    1.3289 H   0  0  0  0  0  0  0  0  0  0  0  0
   -2.0075    2.1260    4.8796 H   0  0  0  0  0  0  0  0  0  0  0  0
   -0.6318    1.1126    4.3510 H   0  0  0  0  0  0  0  0  0  0  0  0
   -2.0837    0.3401    5.0502 H   0  0  0  0  0  0  0  0  0  0  0  0
    4.0336    2.1836    0.5290 H   0  0  0  0  0  0  0  0  0  0  0  0
    6.2577    1.9773   -0.5239 H   0  0  0  0  0  0  0  0  0  0  0  0
  1  2  1  0
  2  3  1  0
  3  4  2  0
  4  5  1  0
  5  6  2  0
  6  7  1  0
  7  8  1  0
  8  9  1  0
  9 10  2  0
 10 11  1  0
 11 12  1  0
 12 13  1  0
 13 14  2  0
 14 15  1  0
 15 16  1  0
 15 17  2  0
 17 18  1  0
 18 19  2  0
 19 20  1  0
 11 21  2  0
 21 22  1  0
 22 23  2  0
 23 24  1  0
 24 25  1  0
 24 26  1  0
 26 27  2  0
  6 28  1  0
 28 29  2  0
 29  3  1  0
 27  9  1  0
 19 13  1  0
 26 21  1  0
  1 30  1  0
  1 31  1  0
  1 32  1  0
  4 33  1  0
  5 34  1  0
  7 35  1  0
  7 36  1  0
  8 37  1  0
 12 38  1  0
 14 39  1  0
 17 40  1  0
 18 41  1  0
 22 42  1  0
 25 43  1  0
 25 44  1  0
 25 45  1  0
 28 46  1  0
 29 47  1  0
M  END
>  <ScrubInfo>  (1) 
{"isomerGroup": 0, "isomerId": 0, "confId": 0, "nr_conformers:": 1, "nr_isomers:": 9}

$$$$
_i1
     RDKit          3D

 47 50  0  0  0  0  0  0  0  0999 V2000
    0.8789    0.2714    0.3291 N   0  0  0  0  0  0  0  0  0  0  0  0
    2.2172   -0.0386    0.5028 C   0  0  0  0  0  0  0  0  0  0  0  0
    3.1745    0.9595    0.5114 N   0  0  0  0  0  0  0  0  0  0  0  0
    4.3487    1.0326   -0.2787 C   0  0  0  0  0  0  0  0  0  0  0  0
    5.2969    2.0121    0.0555 C   0  0  0  0  0  0  0  0  0  0  0  0
    6.4941    2.1117   -0.6518 C   0  0  0  0  0  0  0  0  0  0  0  0
    7.3792    3.0572   -0.3121 F   0  0  0  0  0  0  0  0  0  0  0  0
    6.7871    1.2462   -1.6975 C   0  0  0  0  0  0  0  0  0  0  0  0
    5.8649    0.2623   -2.0411 C   0  0  0  0  0  0  0  0  0  0  0  0
    4.6645    0.1590   -1.3350 C   0  0  0  0  0  0  0  0  0  0  0  0
    3.7995   -0.7883   -1.7241 F   0  0  0  0  0  0  0  0  0  0  0  0
    2.4809   -1.3286    0.7444 C   0  0  0  0  0  0  0  0  0  0  0  0
    3.6429   -2.1607    1.0755 C   0  0  0  0  0  0  0  0  0  0  0  0
    3.3359   -3.4196    1.2664 N   0  0  0  0  0  0  0  0  0  0  0  0
    1.9550   -3.5053    1.0229 N   0  0  0  0  0  0  0  0  0  0  0  0
    1.2427   -4.6909    1.4320 C   0  0  0  0  0  0  0  0  0  0  0  0
    1.3558   -2.2839    0.7601 C   0  0  0  0  0  0  0  0  0  0  0  0
    0.1161   -1.9826    0.5815 N   0  0  0  0  0  0  0  0  0  0  0  0
   -0.1456   -0.6539    0.3303 C   0  0  0  0  0  0  0  0  0  0  0  0
   -1.3899   -0.4197    0.1144 N   0  0  0  0  0  0  0  0  0  0  0  0
   -1.8249    0.9449   -0.1561 C   0  0  0  0  0  0  0  0  0  0  0  0
   -3.3240    1.0749   -0.3147 C   0  0  0  0  0  0  0  0  0  0  0  0
   -3.8580    2.1603   -1.0219 C   0  0  0  0  0  0  0  0  0  0  0  0
   -5.2416    2.3165   -1.1441 C   0  0  0  0  0  0  0  0  0  0  0  0
   -6.1176    1.4004   -0.5590 C   0  0  0  0  0  0  0  0  0  0  0  0
   -7.4442    1.6705   -0.7554 O   0  0  0  0  0  0  0  0  0  0  0  0
   -8.3725    0.7411   -0.2110 C   0  0  0  0  0  0  0  0  0  0  0  0
   -5.5954    0.3247    0.1573 C   0  0  0  0  0  0  0  0  0  0  0  0
   -4.2097    0.1679    0.2820 C   0  0  0  0  0  0  0  0  0  0  0  0
    0.6713    1.2113    0.0394 H   0  0  0  0  0  0  0  0  0  0  0  0
    2.7911    1.8830    0.6911 H   0  0  0  0  0  0  0  0  0  0  0  0
    5.1244    2.7005    0.8779 H   0  0  0  0  0  0  0  0  0  0  0  0
    7.7262    1.3428   -2.2334 H   0  0  0  0  0  0  0  0  0  0  0  0
    6.0662   -0.4266   -2.8564 H   0  0  0  0  0  0  0  0  0  0  0  0
    4.6456   -1.7260    1.1723 H   0  0  0  0  0  0  0  0  0  0  0  0
    1.8628   -5.5827    1.2945 H   0  0  0  0  0  0  0  0  0  0  0  0
    0.3322   -4.8237    0.8390 H   0  0  0  0  0  0  0  0  0  0  0  0
    0.9641   -4.6225    2.4882 H   0  0  0  0  0  0  0  0  0  0  0  0
   -1.3508    1.2955   -1.0817 H   0  0  0  0  0  0  0  0  0  0  0  0
   -1.5270    1.6097    0.6646 H   0  0  0  0  0  0  0  0  0  0  0  0
   -3.2026    2.8923   -1.4868 H   0  0  0  0  0  0  0  0  0  0  0  0
   -5.6412    3.1599   -1.7014 H   0  0  0  0  0  0  0  0  0  0  0  0
   -9.3791    1.0848   -0.4682 H   0  0  0  0  0  0  0  0  0  0  0  0
   -8.2391   -0.2541   -0.6482 H   0  0  0  0  0  0  0  0  0  0  0  0
   -8.3019    0.7069    0.8812 H   0  0  0  0  0  0  0  0  0  0  0  0
   -6.2322   -0.4128    0.6333 H   0  0  0  0  0  0  0  0  0  0  0  0
   -3.8211   -0.6790    0.8458 H   0  0  0  0  0  0  0  0  0  0  0  0
  1  2  1  0
  2  3  1  0
  3  4  1  0
  4  5  2  0
  5  6  1  0
  6  7  1  0
  6  8  2  0
  8  9  1  0
  9 10  2  0
 10 11  1  0
  2 12  2  0
 12 13  1  0
 13 14  2  0
 14 15  1  0
 15 16  1  0
 15 17  1  0
 17 18  2  0
 18 19  1  0
 19 20  2  3
 20 21  1  0
 21 22  1  0
 22 23  2  0
 23 24  1  0
 24 25  2  0
 25 26  1  0
 26 27  1  0
 25 28  1  0
 28 29  2  0
 19  1  1  0
 29 22  1  0
 10  4  1  0
 17 12  1  0
  1 30  1  0
  3 31  1  0
  5 32  1  0
  8 33  1  0
  9 34  1  0
 13 35  1  0
 16 36  1  0
 16 37  1  0
 16 38  1  0
 21 39  1  0
 21 40  1  0
 23 41  1  0
 24 42  1  0
 27 43  1  0
 27 44  1  0
 27 45  1  0
 28 46  1  0
 29 47  1  0
M  END
>  <ScrubInfo>  (2) 
{"isomerGroup": 0, "isomerId": 1, "confId": 0, "nr_conformers:": 1, "nr_isomers:": 9}

$$$$
_i2
     RDKit          3D

 47 50  0  0  0  0  0  0  0  0999 V2000
   -1.6017   -0.4471   -0.0915 N   0  0  0  0  0  0  0  0  0  0  0  0
   -0.6188   -1.3043   -0.5304 C   0  0  0  0  0  0  0  0  0  0  0  0
    0.6386   -0.7748   -0.5924 N   0  0  0  0  0  0  0  0  0  0  0  0
    1.2562   -0.1878    0.5883 C   0  0  0  0  0  0  0  0  0  0  0  0
    2.6821    0.1949    0.2781 C   0  0  0  0  0  0  0  0  0  0  0  0
    3.7502   -0.4448    0.9177 C   0  0  0  0  0  0  0  0  0  0  0  0
    5.0673   -0.0827    0.6236 C   0  0  0  0  0  0  0  0  0  0  0  0
    5.3425    0.9171   -0.3118 C   0  0  0  0  0  0  0  0  0  0  0  0
    6.6726    1.1698   -0.5033 O   0  0  0  0  0  0  0  0  0  0  0  0
    7.0065    2.1654   -1.4621 C   0  0  0  0  0  0  0  0  0  0  0  0
    4.2836    1.5563   -0.9551 C   0  0  0  0  0  0  0  0  0  0  0  0
    2.9630    1.1973   -0.6620 C   0  0  0  0  0  0  0  0  0  0  0  0
   -0.8225   -2.5469   -0.8895 N   0  0  0  0  0  0  0  0  0  0  0  0
   -2.1322   -2.8953   -0.7422 C   0  0  0  0  0  0  0  0  0  0  0  0
   -3.1775   -2.1098   -0.2957 C   0  0  0  0  0  0  0  0  0  0  0  0
   -4.3051   -2.9417   -0.3267 C   0  0  0  0  0  0  0  0  0  0  0  0
   -4.0133   -4.1752   -0.7609 N   0  0  0  0  0  0  0  0  0  0  0  0
   -2.6808   -4.1189   -1.0097 N   0  0  0  0  0  0  0  0  0  0  0  0
   -2.0052   -5.2916   -1.5045 C   0  0  0  0  0  0  0  0  0  0  0  0
   -2.9399   -0.7345    0.0677 C   0  0  0  0  0  0  0  0  0  0  0  0
   -3.9455   -0.0180    0.4418 N   0  0  0  0  0  0  0  0  0  0  0  0
   -3.7580    1.3265    0.8038 C   0  0  0  0  0  0  0  0  0  0  0  0
   -4.4899    2.3018    0.1235 C   0  0  0  0  0  0  0  0  0  0  0  0
   -4.3632    3.6424    0.4769 C   0  0  0  0  0  0  0  0  0  0  0  0
   -5.0643    4.5682   -0.1897 F   0  0  0  0  0  0  0  0  0  0  0  0
   -3.5214    4.0400    1.5113 C   0  0  0  0  0  0  0  0  0  0  0  0
   -2.7949    3.0780    2.2088 C   0  0  0  0  0  0  0  0  0  0  0  0
   -2.9218    1.7347    1.8567 C   0  0  0  0  0  0  0  0  0  0  0  0
   -2.1972    0.8290    2.5313 F   0  0  0  0  0  0  0  0  0  0  0  0
   -1.3348    0.5159    0.0108 H   0  0  0  0  0  0  0  0  0  0  0  0
    1.2609   -1.4801   -0.9857 H   0  0  0  0  0  0  0  0  0  0  0  0
    0.7144    0.7090    0.9110 H   0  0  0  0  0  0  0  0  0  0  0  0
    1.2239   -0.9044    1.4178 H   0  0  0  0  0  0  0  0  0  0  0  0
    3.5718   -1.2304    1.6489 H   0  0  0  0  0  0  0  0  0  0  0  0
    5.8893   -0.5865    1.1272 H   0  0  0  0  0  0  0  0  0  0  0  0
    6.6166    3.1449   -1.1660 H   0  0  0  0  0  0  0  0  0  0  0  0
    8.0976    2.2396   -1.5008 H   0  0  0  0  0  0  0  0  0  0  0  0
    6.6562    1.8852   -2.4610 H   0  0  0  0  0  0  0  0  0  0  0  0
    4.4483    2.3355   -1.6917 H   0  0  0  0  0  0  0  0  0  0  0  0
    2.1493    1.7006   -1.1811 H   0  0  0  0  0  0  0  0  0  0  0  0
   -5.3248   -2.7035   -0.0535 H   0  0  0  0  0  0  0  0  0  0  0  0
   -0.9469   -5.0759   -1.6662 H   0  0  0  0  0  0  0  0  0  0  0  0
   -2.1119   -6.0877   -0.7633 H   0  0  0  0  0  0  0  0  0  0  0  0
   -2.4712   -5.5841   -2.4489 H   0  0  0  0  0  0  0  0  0  0  0  0
   -5.1651    2.0201   -0.6787 H   0  0  0  0  0  0  0  0  0  0  0  0
   -3.4452    5.0922    1.7684 H   0  0  0  0  0  0  0  0  0  0  0  0
   -2.1380    3.3614    3.0254 H   0  0  0  0  0  0  0  0  0  0  0  0
  1  2  1  0
  2  3  1  0
  3  4  1  0
  4  5  1  0
  5  6  2  0
  6  7  1  0
  7  8  2  0
  8  9  1  0
  9 10  1  0
  8 11  1  0
 11 12  2  0
  2 13  2  0
 13 14  1  0
 14 15  2  0
 15 16  1  0
 16 17  2  0
 17 18  1  0
 18 19  1  0
 15 20  1  0
 20 21  2  3
 21 22  1  0
 22 23  2  0
 23 24  1  0
 24 25  1  0
 24 26  2  0
 26 27  1  0
 27 28  2  0
 28 29  1  0
 20  1  1  0
 28 22  1  0
 12  5  1  0
 18 14  1  0
  1 30  1  0
  3 31  1  0
  4 32  1  0
  4 33  1  0
  6 34  1  0
  7 35  1  0
 10 36  1  0
 10 37  1  0
 10 38  1  0
 11 39  1  0
 12 40  1  0
 16 41  1  0
 19 42  1  0
 19 43  1  0
 19 44  1  0
 23 45  1  0
 26 46  1  0
 27 47  1  0
M  END
>  <ScrubInfo>  (3) 
{"isomerGroup": 0, "isomerId": 2, "confId": 0, "nr_conformers:": 1, "nr_isomers:": 9}

$$$$
_i3
     RDKit          3D

 47 50  0  0  0  0  0  0  0  0999 V2000
    0.0933    1.2525   -0.5685 N   0  0  0  0  0  0  0  0  0  0  0  0
   -0.4556    0.1077   -1.1249 C   0  0  0  0  0  0  0  0  0  0  0  0
    0.1120   -0.6799   -1.9676 N   0  0  0  0  0  0  0  0  0  0  0  0
    1.4479   -0.3905   -2.4767 C   0  0  0  0  0  0  0  0  0  0  0  0
    2.5693   -0.4951   -1.4666 C   0  0  0  0  0  0  0  0  0  0  0  0
    2.5178   -1.4153   -0.4135 C   0  0  0  0  0  0  0  0  0  0  0  0
    3.5654   -1.4974    0.5067 C   0  0  0  0  0  0  0  0  0  0  0  0
    4.6899   -0.6797    0.3824 C   0  0  0  0  0  0  0  0  0  0  0  0
    5.6399   -0.8614    1.3490 O   0  0  0  0  0  0  0  0  0  0  0  0
    6.8383   -0.1069    1.2243 C   0  0  0  0  0  0  0  0  0  0  0  0
    4.7589    0.2247   -0.6768 C   0  0  0  0  0  0  0  0  0  0  0  0
    3.7079    0.3124   -1.5976 C   0  0  0  0  0  0  0  0  0  0  0  0
   -1.7403   -0.2966   -0.7966 N   0  0  0  0  0  0  0  0  0  0  0  0
   -2.4395    0.3616    0.0807 C   0  0  0  0  0  0  0  0  0  0  0  0
   -3.7256    0.0980    0.4904 N   0  0  0  0  0  0  0  0  0  0  0  0
   -4.4603   -1.0521    0.1392 C   0  0  0  0  0  0  0  0  0  0  0  0
   -5.7952   -0.9133   -0.2657 C   0  0  0  0  0  0  0  0  0  0  0  0
   -6.5257   -2.0284   -0.6743 C   0  0  0  0  0  0  0  0  0  0  0  0
   -7.7991   -1.8713   -1.0588 F   0  0  0  0  0  0  0  0  0  0  0  0
   -5.9586   -3.2969   -0.6939 C   0  0  0  0  0  0  0  0  0  0  0  0
   -4.6355   -3.4547   -0.2918 C   0  0  0  0  0  0  0  0  0  0  0  0
   -3.8994   -2.3416    0.1174 C   0  0  0  0  0  0  0  0  0  0  0  0
   -2.6532   -2.5479    0.5690 F   0  0  0  0  0  0  0  0  0  0  0  0
   -1.8765    1.5340    0.7168 C   0  0  0  0  0  0  0  0  0  0  0  0
   -2.2468    2.4616    1.7035 C   0  0  0  0  0  0  0  0  0  0  0  0
   -1.2925    3.3776    1.9290 N   0  0  0  0  0  0  0  0  0  0  0  0
   -0.2872    3.0103    1.0956 N   0  0  0  0  0  0  0  0  0  0  0  0
    0.9398    3.7653    1.0982 C   0  0  0  0  0  0  0  0  0  0  0  0
   -0.6171    1.9218    0.3535 C   0  0  0  0  0  0  0  0  0  0  0  0
    1.0707    1.4267   -0.7514 H   0  0  0  0  0  0  0  0  0  0  0  0
    1.6640   -1.1036   -3.2815 H   0  0  0  0  0  0  0  0  0  0  0  0
    1.4503    0.6029   -2.9442 H   0  0  0  0  0  0  0  0  0  0  0  0
    1.6559   -2.0720   -0.3008 H   0  0  0  0  0  0  0  0  0  0  0  0
    3.5047   -2.2122    1.3239 H   0  0  0  0  0  0  0  0  0  0  0  0
    6.6385    0.9663    1.3091 H   0  0  0  0  0  0  0  0  0  0  0  0
    7.4984   -0.3886    2.0503 H   0  0  0  0  0  0  0  0  0  0  0  0
    7.3575   -0.3401    0.2887 H   0  0  0  0  0  0  0  0  0  0  0  0
    5.6181    0.8712   -0.8200 H   0  0  0  0  0  0  0  0  0  0  0  0
    3.7903    1.0140   -2.4254 H   0  0  0  0  0  0  0  0  0  0  0  0
   -4.2856    0.8825    0.7912 H   0  0  0  0  0  0  0  0  0  0  0  0
   -6.2792    0.0578   -0.2891 H   0  0  0  0  0  0  0  0  0  0  0  0
   -6.5477   -4.1487   -1.0180 H   0  0  0  0  0  0  0  0  0  0  0  0
   -4.1669   -4.4339   -0.2857 H   0  0  0  0  0  0  0  0  0  0  0  0
   -3.1607    2.5193    2.2795 H   0  0  0  0  0  0  0  0  0  0  0  0
    0.7003    4.8152    0.9112 H   0  0  0  0  0  0  0  0  0  0  0  0
    1.4118    3.6490    2.0770 H   0  0  0  0  0  0  0  0  0  0  0  0
    1.6073    3.3956    0.3170 H   0  0  0  0  0  0  0  0  0  0  0  0
  1  2  1  0
  2  3  2  3
  3  4  1  0
  4  5  1  0
  5  6  2  0
  6  7  1  0
  7  8  2  0
  8  9  1  0
  9 10  1  0
  8 11  1  0
 11 12  2  0
  2 13  1  0
 13 14  2  0
 14 15  1  0
 15 16  1  0
 16 17  2  0
 17 18  1  0
 18 19  1  0
 18 20  2  0
 20 21  1  0
 21 22  2  0
 22 23  1  0
 14 24  1  0
 24 25  1  0
 25 26  2  0
 26 27  1  0
 27 28  1  0
 27 29  1  0
 29  1  1  0
 12  5  1  0
 22 16  1  0
 29 24  2  0
  1 30  1  0
  4 31  1  0
  4 32  1  0
  6 33  1  0
  7 34  1  0
 10 35  1  0
 10 36  1  0
 10 37  1  0
 11 38  1  0
 12 39  1  0
 15 40  1  0
 17 41  1  0
 20 42  1  0
 21 43  1  0
 25 44  1  0
 28 45  1  0
 28 46  1  0
 28 47  1  0
M  END
>  <ScrubInfo>  (4) 
{"isomerGroup": 0, "isomerId": 3, "confId": 0, "nr_conformers:": 1, "nr_isomers:": 9}

$$$$
_i4
     RDKit          3D

 47 50  0  0  0  0  0  0  0  0999 V2000
   -3.8313   -2.4420   -0.5639 N   0  0  0  0  0  0  0  0  0  0  0  0
   -3.8888   -1.0605   -0.4096 C   0  0  0  0  0  0  0  0  0  0  0  0
   -2.6818   -0.4793   -0.3288 C   0  0  0  0  0  0  0  0  0  0  0  0
   -2.1020    0.8438   -0.1369 C   0  0  0  0  0  0  0  0  0  0  0  0
   -2.6572    2.0069   -0.0605 N   0  0  0  0  0  0  0  0  0  0  0  0
   -4.0383    2.1671   -0.2204 C   0  0  0  0  0  0  0  0  0  0  0  0
   -4.8314    2.4093    0.9029 C   0  0  0  0  0  0  0  0  0  0  0  0
   -6.1999    2.6142    0.7536 C   0  0  0  0  0  0  0  0  0  0  0  0
   -6.9549    2.8339    1.8376 F   0  0  0  0  0  0  0  0  0  0  0  0
   -6.8009    2.5955   -0.5022 C   0  0  0  0  0  0  0  0  0  0  0  0
   -6.0173    2.3728   -1.6325 C   0  0  0  0  0  0  0  0  0  0  0  0
   -4.6460    2.1675   -1.4860 C   0  0  0  0  0  0  0  0  0  0  0  0
   -3.9117    1.9401   -2.5853 F   0  0  0  0  0  0  0  0  0  0  0  0
   -0.7394    0.8361    0.0009 N   0  0  0  0  0  0  0  0  0  0  0  0
   -0.0146   -0.2368   -0.1129 C   0  0  0  0  0  0  0  0  0  0  0  0
    1.3287   -0.0750    0.0377 N   0  0  0  0  0  0  0  0  0  0  0  0
    2.2107   -1.1572    0.3921 C   0  0  0  0  0  0  0  0  0  0  0  0
    3.6262   -0.6430    0.4951 C   0  0  0  0  0  0  0  0  0  0  0  0
    4.2354   -0.4604    1.7421 C   0  0  0  0  0  0  0  0  0  0  0  0
    5.5417    0.0288    1.8232 C   0  0  0  0  0  0  0  0  0  0  0  0
    6.2579    0.3503    0.6679 C   0  0  0  0  0  0  0  0  0  0  0  0
    7.5233    0.8187    0.8917 O   0  0  0  0  0  0  0  0  0  0  0  0
    8.2835    1.1849   -0.2528 C   0  0  0  0  0  0  0  0  0  0  0  0
    5.6536    0.1790   -0.5770 C   0  0  0  0  0  0  0  0  0  0  0  0
    4.3460   -0.3122   -0.6619 C   0  0  0  0  0  0  0  0  0  0  0  0
   -0.4940   -1.4949   -0.3615 N   0  0  0  0  0  0  0  0  0  0  0  0
   -1.7684   -1.6280   -0.4808 C   0  0  0  0  0  0  0  0  0  0  0  0
   -2.4993   -2.7899   -0.7323 N   0  0  0  0  0  0  0  0  0  0  0  0
   -2.0404   -4.0809   -0.2580 C   0  0  0  0  0  0  0  0  0  0  0  0
   -4.4798   -2.7967   -1.2712 H   0  0  0  0  0  0  0  0  0  0  0  0
   -4.8621   -0.5959   -0.3676 H   0  0  0  0  0  0  0  0  0  0  0  0
   -4.3848    2.4472    1.8914 H   0  0  0  0  0  0  0  0  0  0  0  0
   -7.8699    2.7633   -0.5895 H   0  0  0  0  0  0  0  0  0  0  0  0
   -6.4585    2.3631   -2.6241 H   0  0  0  0  0  0  0  0  0  0  0  0
    1.5695    0.8346    0.4126 H   0  0  0  0  0  0  0  0  0  0  0  0
    2.1767   -1.9546   -0.3603 H   0  0  0  0  0  0  0  0  0  0  0  0
    1.9011   -1.6003    1.3464 H   0  0  0  0  0  0  0  0  0  0  0  0
    3.7007   -0.6943    2.6598 H   0  0  0  0  0  0  0  0  0  0  0  0
    6.0058    0.1649    2.7972 H   0  0  0  0  0  0  0  0  0  0  0  0
    8.4598    0.3211   -0.9023 H   0  0  0  0  0  0  0  0  0  0  0  0
    9.2572    1.5443    0.0939 H   0  0  0  0  0  0  0  0  0  0  0  0
    7.8033    2.0018   -0.8015 H   0  0  0  0  0  0  0  0  0  0  0  0
    6.1670    0.4204   -1.5015 H   0  0  0  0  0  0  0  0  0  0  0  0
    3.8829   -0.4297   -1.6404 H   0  0  0  0  0  0  0  0  0  0  0  0
   -1.0270   -4.2859   -0.6178 H   0  0  0  0  0  0  0  0  0  0  0  0
   -2.6938   -4.8773   -0.6290 H   0  0  0  0  0  0  0  0  0  0  0  0
   -2.0375   -4.1149    0.8365 H   0  0  0  0  0  0  0  0  0  0  0  0
  1  2  1  0
  2  3  2  0
  3  4  1  0
  4  5  2  3
  5  6  1  0
  6  7  2  0
  7  8  1  0
  8  9  1  0
  8 10  2  0
 10 11  1  0
 11 12  2  0
 12 13  1  0
  4 14  1  0
 14 15  2  0
 15 16  1  0
 16 17  1  0
 17 18  1  0
 18 19  2  0
 19 20  1  0
 20 21  2  0
 21 22  1  0
 22 23  1  0
 21 24  1  0
 24 25  2  0
 15 26  1  0
 26 27  2  0
 27 28  1  0
 28 29  1  0
 28  1  1  0
 27  3  1  0
 12  6  1  0
 25 18  1  0
  1 30  1  0
  2 31  1  0
  7 32  1  0
 10 33  1  0
 11 34  1  0
 16 35  1  0
 17 36  1  0
 17 37  1  0
 19 38  1  0
 20 39  1  0
 23 40  1  0
 23 41  1  0
 23 42  1  0
 24 43  1  0
 25 44  1  0
 29 45  1  0
 29 46  1  0
 29 47  1  0
M  END
>  <ScrubInfo>  (5) 
{"isomerGroup": 0, "isomerId": 4, "confId": 0, "nr_conformers:": 1, "nr_isomers:": 9}

$$$$
_i5
     RDKit          3D

 47 50  0  0  0  0  0  0  0  0999 V2000
   -0.3485   -1.3736    0.4791 N   0  0  0  0  0  0  0  0  0  0  0  0
   -0.0424   -0.0930    0.0928 C   0  0  0  0  0  0  0  0  0  0  0  0
    1.2904    0.1673   -0.0383 N   0  0  0  0  0  0  0  0  0  0  0  0
    2.1169   -0.6225   -0.9379 C   0  0  0  0  0  0  0  0  0  0  0  0
    3.5131   -0.0520   -0.9834 C   0  0  0  0  0  0  0  0  0  0  0  0
    4.0372    0.4631   -2.1748 C   0  0  0  0  0  0  0  0  0  0  0  0
    5.3333    0.9843   -2.2083 C   0  0  0  0  0  0  0  0  0  0  0  0
    6.1261    1.0044   -1.0589 C   0  0  0  0  0  0  0  0  0  0  0  0
    7.3713    1.5422   -1.2329 O   0  0  0  0  0  0  0  0  0  0  0  0
    8.2029    1.6232   -0.0824 C   0  0  0  0  0  0  0  0  0  0  0  0
    5.6101    0.4951    0.1319 C   0  0  0  0  0  0  0  0  0  0  0  0
    4.3131   -0.0295    0.1686 C   0  0  0  0  0  0  0  0  0  0  0  0
   -0.9051    0.8541   -0.1373 N   0  0  0  0  0  0  0  0  0  0  0  0
   -2.2649    0.6050    0.0077 C   0  0  0  0  0  0  0  0  0  0  0  0
   -3.0499    1.6005   -0.2553 N   0  0  0  0  0  0  0  0  0  0  0  0
   -4.4386    1.5308   -0.1173 C   0  0  0  0  0  0  0  0  0  0  0  0
   -5.2336    1.3392   -1.2493 C   0  0  0  0  0  0  0  0  0  0  0  0
   -6.6199    1.3189   -1.1259 C   0  0  0  0  0  0  0  0  0  0  0  0
   -7.3745    1.1238   -2.2150 F   0  0  0  0  0  0  0  0  0  0  0  0
   -7.2386    1.4994    0.1082 C   0  0  0  0  0  0  0  0  0  0  0  0
   -6.4564    1.7127    1.2414 C   0  0  0  0  0  0  0  0  0  0  0  0
   -5.0675    1.7354    1.1210 C   0  0  0  0  0  0  0  0  0  0  0  0
   -4.3313    1.9354    2.2244 F   0  0  0  0  0  0  0  0  0  0  0  0
   -2.6396   -0.7377    0.4230 C   0  0  0  0  0  0  0  0  0  0  0  0
   -3.8178   -1.4583    0.6892 C   0  0  0  0  0  0  0  0  0  0  0  0
   -3.5826   -2.7239    1.0705 N   0  0  0  0  0  0  0  0  0  0  0  0
   -2.2345   -2.8202    1.0489 N   0  0  0  0  0  0  0  0  0  0  0  0
   -1.6168   -4.0710    1.4087 C   0  0  0  0  0  0  0  0  0  0  0  0
   -1.6496   -1.6619    0.6490 C   0  0  0  0  0  0  0  0  0  0  0  0
    0.4078   -1.9386    0.8406 H   0  0  0  0  0  0  0  0  0  0  0  0
    1.3943    1.1569   -0.2628 H   0  0  0  0  0  0  0  0  0  0  0  0
    1.6722   -0.6255   -1.9403 H   0  0  0  0  0  0  0  0  0  0  0  0
    2.1760   -1.6650   -0.6037 H   0  0  0  0  0  0  0  0  0  0  0  0
    3.4449    0.4681   -3.0873 H   0  0  0  0  0  0  0  0  0  0  0  0
    5.7291    1.3828   -3.1397 H   0  0  0  0  0  0  0  0  0  0  0  0
    8.4325    0.6266    0.3090 H   0  0  0  0  0  0  0  0  0  0  0  0
    7.7515    2.2570    0.6881 H   0  0  0  0  0  0  0  0  0  0  0  0
    9.1467    2.0876   -0.3842 H   0  0  0  0  0  0  0  0  0  0  0  0
    6.1868    0.4929    1.0507 H   0  0  0  0  0  0  0  0  0  0  0  0
    3.9229   -0.4135    1.1095 H   0  0  0  0  0  0  0  0  0  0  0  0
   -4.7777    1.2135   -2.2260 H   0  0  0  0  0  0  0  0  0  0  0  0
   -8.3220    1.4803    0.1751 H   0  0  0  0  0  0  0  0  0  0  0  0
   -6.9131    1.8648    2.2142 H   0  0  0  0  0  0  0  0  0  0  0  0
   -4.8482   -1.1385    0.6299 H   0  0  0  0  0  0  0  0  0  0  0  0
   -2.0327   -4.8579    0.7742 H   0  0  0  0  0  0  0  0  0  0  0  0
   -0.5368   -4.0109    1.2594 H   0  0  0  0  0  0  0  0  0  0  0  0
   -1.8364   -4.2718    2.4603 H   0  0  0  0  0  0  0  0  0  0  0  0
  1  2  1  0
  2  3  1  0
  3  4  1  0
  4  5  1  0
  5  6  2  0
  6  7  1  0
  7  8  2  0
  8  9  1  0
  9 10  1  0
  8 11  1  0
 11 12  2  0
  2 13  2  0
 13 14  1  0
 14 15  2  3
 15 16  1  0
 16 17  2  0
 17 18  1  0
 18 19  1  0
 18 20  2  0
 20 21  1  0
 21 22  2  0
 22 23  1  0
 14 24  1  0
 24 25  1  0
 25 26  2  0
 26 27  1  0
 27 28  1  0
 27 29  1  0
 29  1  1  0
 12  5  1  0
 22 16  1  0
 29 24  2  0
  1 30  1  0
  3 31  1  0
  4 32  1  0
  4 33  1  0
  6 34  1  0
  7 35  1  0
 10 36  1  0
 10 37  1  0
 10 38  1  0
 11 39  1  0
 12 40  1  0
 17 41  1  0
 20 42  1  0
 21 43  1  0
 25 44  1  0
 28 45  1  0
 28 46  1  0
 28 47  1  0
M  END
>  <ScrubInfo>  (6) 
{"isomerGroup": 0, "isomerId": 5, "confId": 0, "nr_conformers:": 1, "nr_isomers:": 9}

$$$$
_i6
     RDKit          3D

 47 50  0  0  0  0  0  0  0  0999 V2000
   -3.7115   -2.5174    1.4926 N   0  0  0  0  0  0  0  0  0  0  0  0
   -3.4333   -1.4074    0.7024 C   0  0  0  0  0  0  0  0  0  0  0  0
   -2.3108   -1.5463   -0.0155 C   0  0  0  0  0  0  0  0  0  0  0  0
   -1.5312   -0.7961   -0.9975 C   0  0  0  0  0  0  0  0  0  0  0  0
   -1.8966    0.4412   -1.4759 N   0  0  0  0  0  0  0  0  0  0  0  0
   -1.9807    1.6259   -0.6978 C   0  0  0  0  0  0  0  0  0  0  0  0
   -1.7836    1.6699    0.6861 C   0  0  0  0  0  0  0  0  0  0  0  0
   -1.9354    2.8728    1.3770 C   0  0  0  0  0  0  0  0  0  0  0  0
   -1.7384    2.8962    2.7014 F   0  0  0  0  0  0  0  0  0  0  0  0
   -2.2883    4.0480    0.7223 C   0  0  0  0  0  0  0  0  0  0  0  0
   -2.4914    4.0246   -0.6536 C   0  0  0  0  0  0  0  0  0  0  0  0
   -2.3402    2.8237   -1.3449 C   0  0  0  0  0  0  0  0  0  0  0  0
   -2.5355    2.8189   -2.6728 F   0  0  0  0  0  0  0  0  0  0  0  0
   -0.4647   -1.3564   -1.4968 N   0  0  0  0  0  0  0  0  0  0  0  0
   -0.0499   -2.5683   -0.9811 C   0  0  0  0  0  0  0  0  0  0  0  0
    1.1340   -2.9990   -1.2355 N   0  0  0  0  0  0  0  0  0  0  0  0
    2.0149   -2.1664   -2.0526 C   0  0  0  0  0  0  0  0  0  0  0  0
    2.6423   -1.0183   -1.2920 C   0  0  0  0  0  0  0  0  0  0  0  0
    3.2512   -1.2339   -0.0502 C   0  0  0  0  0  0  0  0  0  0  0  0
    3.8305   -0.1717    0.6477 C   0  0  0  0  0  0  0  0  0  0  0  0
    3.8184    1.1200    0.1176 C   0  0  0  0  0  0  0  0  0  0  0  0
    4.4168    2.0668    0.9030 O   0  0  0  0  0  0  0  0  0  0  0  0
    4.4411    3.3959    0.3996 C   0  0  0  0  0  0  0  0  0  0  0  0
    3.2209    1.3407   -1.1234 C   0  0  0  0  0  0  0  0  0  0  0  0
    2.6393    0.2774   -1.8241 C   0  0  0  0  0  0  0  0  0  0  0  0
   -0.7828   -3.4074   -0.1749 N   0  0  0  0  0  0  0  0  0  0  0  0
   -1.8749   -2.9228    0.3036 C   0  0  0  0  0  0  0  0  0  0  0  0
   -2.8069   -3.5193    1.1532 N   0  0  0  0  0  0  0  0  0  0  0  0
   -2.3874   -4.4700    2.1656 C   0  0  0  0  0  0  0  0  0  0  0  0
   -4.6984   -2.7859    1.4866 H   0  0  0  0  0  0  0  0  0  0  0  0
   -4.1163   -0.5700    0.7098 H   0  0  0  0  0  0  0  0  0  0  0  0
   -1.4070    0.6617   -2.3429 H   0  0  0  0  0  0  0  0  0  0  0  0
   -1.4833    0.7974    1.2562 H   0  0  0  0  0  0  0  0  0  0  0  0
   -2.3986    4.9680    1.2880 H   0  0  0  0  0  0  0  0  0  0  0  0
   -2.7661    4.9259   -1.1924 H   0  0  0  0  0  0  0  0  0  0  0  0
    1.5024   -1.8133   -2.9570 H   0  0  0  0  0  0  0  0  0  0  0  0
    2.8315   -2.8008   -2.4198 H   0  0  0  0  0  0  0  0  0  0  0  0
    3.2660   -2.2331    0.3807 H   0  0  0  0  0  0  0  0  0  0  0  0
    4.2941   -0.3547    1.6136 H   0  0  0  0  0  0  0  0  0  0  0  0
    4.9532    4.0229    1.1358 H   0  0  0  0  0  0  0  0  0  0  0  0
    3.4269    3.7897    0.2756 H   0  0  0  0  0  0  0  0  0  0  0  0
    5.0058    3.4537   -0.5368 H   0  0  0  0  0  0  0  0  0  0  0  0
    3.1892    2.3254   -1.5761 H   0  0  0  0  0  0  0  0  0  0  0  0
    2.1754    0.4682   -2.7889 H   0  0  0  0  0  0  0  0  0  0  0  0
   -1.8259   -5.2932    1.7124 H   0  0  0  0  0  0  0  0  0  0  0  0
   -1.7548   -3.9849    2.9163 H   0  0  0  0  0  0  0  0  0  0  0  0
   -3.2598   -4.8982    2.6699 H   0  0  0  0  0  0  0  0  0  0  0  0
  1  2  1  0
  2  3  2  0
  3  4  1  0
  4  5  1  0
  5  6  1  0
  6  7  2  0
  7  8  1  0
  8  9  1  0
  8 10  2  0
 10 11  1  0
 11 12  2  0
 12 13  1  0
  4 14  2  0
 14 15  1  0
 15 16  2  3
 16 17  1  0
 17 18  1  0
 18 19  2  0
 19 20  1  0
 20 21  2  0
 21 22  1  0
 22 23  1  0
 21 24  1  0
 24 25  2  0
 15 26  1  0
 26 27  2  0
 27 28  1  0
 28 29  1  0
 28  1  1  0
 27  3  1  0
 12  6  1  0
 25 18  1  0
  1 30  1  0
  2 31  1  0
  5 32  1  0
  7 33  1  0
 10 34  1  0
 11 35  1  0
 17 36  1  0
 17 37  1  0
 19 38  1  0
 20 39  1  0
 23 40  1  0
 23 41  1  0
 23 42  1  0
 24 43  1  0
 25 44  1  0
 29 45  1  0
 29 46  1  0
 29 47  1  0
M  END
>  <ScrubInfo>  (7) 
{"isomerGroup": 0, "isomerId": 6, "confId": 0, "nr_conformers:": 1, "nr_isomers:": 9}

$$$$
_i7
     RDKit          3D

 47 50  0  0  0  0  0  0  0  0999 V2000
   -3.9096   -1.9716    0.5892 N   0  0  0  0  0  0  0  0  0  0  0  0
   -3.9098   -0.6606    0.1270 C   0  0  0  0  0  0  0  0  0  0  0  0
   -2.6848   -0.1235    0.0353 C   0  0  0  0  0  0  0  0  0  0  0  0
   -2.0194    1.1272   -0.3818 C   0  0  0  0  0  0  0  0  0  0  0  0
   -2.5413    2.2303   -0.8306 N   0  0  0  0  0  0  0  0  0  0  0  0
   -3.9233    2.3544   -1.0233 C   0  0  0  0  0  0  0  0  0  0  0  0
   -4.6993    2.9944   -0.0551 C   0  0  0  0  0  0  0  0  0  0  0  0
   -6.0665    3.1554   -0.2608 C   0  0  0  0  0  0  0  0  0  0  0  0
   -6.8062    3.7583    0.6788 F   0  0  0  0  0  0  0  0  0  0  0  0
   -6.6816    2.7010   -1.4243 C   0  0  0  0  0  0  0  0  0  0  0  0
   -5.9138    2.0777   -2.4059 C   0  0  0  0  0  0  0  0  0  0  0  0
   -4.5442    1.9150   -2.2032 C   0  0  0  0  0  0  0  0  0  0  0  0
   -3.8220    1.3053   -3.1553 F   0  0  0  0  0  0  0  0  0  0  0  0
   -0.6589    1.0547   -0.2543 N   0  0  0  0  0  0  0  0  0  0  0  0
    0.0813   -0.0056    0.1854 C   0  0  0  0  0  0  0  0  0  0  0  0
    1.3685    0.1052    0.1945 N   0  0  0  0  0  0  0  0  0  0  0  0
    2.1272   -1.0495    0.6820 C   0  0  0  0  0  0  0  0  0  0  0  0
    3.6181   -0.7974    0.6197 C   0  0  0  0  0  0  0  0  0  0  0  0
    4.4330   -1.0399    1.7314 C   0  0  0  0  0  0  0  0  0  0  0  0
    5.8129   -0.8312    1.6554 C   0  0  0  0  0  0  0  0  0  0  0  0
    6.4036   -0.3828    0.4721 C   0  0  0  0  0  0  0  0  0  0  0  0
    7.7606   -0.2207    0.5353 O   0  0  0  0  0  0  0  0  0  0  0  0
    8.4026    0.2595   -0.6388 C   0  0  0  0  0  0  0  0  0  0  0  0
    5.5990   -0.1457   -0.6418 C   0  0  0  0  0  0  0  0  0  0  0  0
    4.2171   -0.3549   -0.5679 C   0  0  0  0  0  0  0  0  0  0  0  0
   -0.5159   -1.1706    0.6174 N   0  0  0  0  0  0  0  0  0  0  0  0
   -1.8105   -1.2305    0.5672 C   0  0  0  0  0  0  0  0  0  0  0  0
   -2.6182   -2.2938    0.9770 N   0  0  0  0  0  0  0  0  0  0  0  0
   -2.1657   -3.6669    0.8560 C   0  0  0  0  0  0  0  0  0  0  0  0
   -4.6472   -2.1658    1.2706 H   0  0  0  0  0  0  0  0  0  0  0  0
   -4.8612   -0.2083   -0.1074 H   0  0  0  0  0  0  0  0  0  0  0  0
   -4.2433    3.3730    0.8538 H   0  0  0  0  0  0  0  0  0  0  0  0
   -7.7494    2.8437   -1.5598 H   0  0  0  0  0  0  0  0  0  0  0  0
   -6.3663    1.7224   -3.3264 H   0  0  0  0  0  0  0  0  0  0  0  0
   -0.1276    1.8624   -0.5439 H   0  0  0  0  0  0  0  0  0  0  0  0
    1.9196   -1.9405    0.0753 H   0  0  0  0  0  0  0  0  0  0  0  0
    1.8451   -1.2671    1.7201 H   0  0  0  0  0  0  0  0  0  0  0  0
    4.0012   -1.3895    2.6658 H   0  0  0  0  0  0  0  0  0  0  0  0
    6.4333   -1.0194    2.5280 H   0  0  0  0  0  0  0  0  0  0  0  0
    8.2861   -0.4452   -1.4688 H   0  0  0  0  0  0  0  0  0  0  0  0
    9.4721    0.3452   -0.4235 H   0  0  0  0  0  0  0  0  0  0  0  0
    8.0373    1.2555   -0.9103 H   0  0  0  0  0  0  0  0  0  0  0  0
    6.0095    0.2022   -1.5830 H   0  0  0  0  0  0  0  0  0  0  0  0
    3.5994   -0.1641   -1.4432 H   0  0  0  0  0  0  0  0  0  0  0  0
   -1.2103   -3.8055    1.3722 H   0  0  0  0  0  0  0  0  0  0  0  0
   -2.8921   -4.3487    1.3103 H   0  0  0  0  0  0  0  0  0  0  0  0
   -2.0397   -3.9434   -0.1960 H   0  0  0  0  0  0  0  0  0  0  0  0
  1  2  1  0
  2  3  2  0
  3  4  1  0
  4  5  2  3
  5  6  1  0
  6  7  2  0
  7  8  1  0
  8  9  1  0
  8 10  2  0
 10 11  1  0
 11 12  2  0
 12 13  1  0
  4 14  1  0
 14 15  1  0
 15 16  2  3
 16 17  1  0
 17 18  1  0
 18 19  2  0
 19 20  1  0
 20 21  2  0
 21 22  1  0
 22 23  1  0
 21 24  1  0
 24 25  2  0
 15 26  1  0
 26 27  2  0
 27 28  1  0
 28 29  1  0
 28  1  1  0
 27  3  1  0
 12  6  1  0
 25 18  1  0
  1 30  1  0
  2 31  1  0
  7 32  1  0
 10 33  1  0
 11 34  1  0
 14 35  1  0
 17 36  1  0
 17 37  1  0
 19 38  1  0
 20 39  1  0
 23 40  1  0
 23 41  1  0
 23 42  1  0
 24 43  1  0
 25 44  1  0
 29 45  1  0
 29 46  1  0
 29 47  1  0
M  END
>  <ScrubInfo>  (8) 
{"isomerGroup": 0, "isomerId": 7, "confId": 0, "nr_conformers:": 1, "nr_isomers:": 9}

$$$$
_i8
     RDKit          3D

 47 50  0  0  0  0  0  0  0  0999 V2000
   -0.3688    2.1701   -1.2899 N   0  0  0  0  0  0  0  0  0  0  0  0
   -0.3610    0.9358   -0.6555 C   0  0  0  0  0  0  0  0  0  0  0  0
    0.6432    0.1563   -0.4371 N   0  0  0  0  0  0  0  0  0  0  0  0
    1.9636    0.5778   -0.8970 C   0  0  0  0  0  0  0  0  0  0  0  0
    3.0317   -0.4166   -0.5080 C   0  0  0  0  0  0  0  0  0  0  0  0
    3.9023   -0.9486   -1.4658 C   0  0  0  0  0  0  0  0  0  0  0  0
    4.9036   -1.8475   -1.0881 C   0  0  0  0  0  0  0  0  0  0  0  0
    5.0559   -2.2287    0.2468 C   0  0  0  0  0  0  0  0  0  0  0  0
    6.0742   -3.1125    0.4767 O   0  0  0  0  0  0  0  0  0  0  0  0
    6.2525   -3.5496    1.8179 C   0  0  0  0  0  0  0  0  0  0  0  0
    4.1942   -1.7001    1.2069 C   0  0  0  0  0  0  0  0  0  0  0  0
    3.1912   -0.7992    0.8311 C   0  0  0  0  0  0  0  0  0  0  0  0
   -1.6063    0.5257   -0.2192 N   0  0  0  0  0  0  0  0  0  0  0  0
   -2.8436    1.1328   -0.3004 C   0  0  0  0  0  0  0  0  0  0  0  0
   -4.0156    0.7610    0.0945 N   0  0  0  0  0  0  0  0  0  0  0  0
   -4.1611   -0.4666    0.7609 C   0  0  0  0  0  0  0  0  0  0  0  0
   -4.9095   -1.4763    0.1535 C   0  0  0  0  0  0  0  0  0  0  0  0
   -5.0969   -2.6911    0.8071 C   0  0  0  0  0  0  0  0  0  0  0  0
   -5.8102   -3.6554    0.2116 F   0  0  0  0  0  0  0  0  0  0  0  0
   -4.5579   -2.9232    2.0693 C   0  0  0  0  0  0  0  0  0  0  0  0
   -3.8211   -1.9192    2.6935 C   0  0  0  0  0  0  0  0  0  0  0  0
   -3.6342   -0.7013    2.0414 C   0  0  0  0  0  0  0  0  0  0  0  0
   -2.9121    0.2490    2.6539 F   0  0  0  0  0  0  0  0  0  0  0  0
   -2.7404    2.4074   -0.9721 C   0  0  0  0  0  0  0  0  0  0  0  0
   -3.6463    3.4182   -1.3253 C   0  0  0  0  0  0  0  0  0  0  0  0
   -3.0489    4.4369   -1.9622 N   0  0  0  0  0  0  0  0  0  0  0  0
   -1.7444    4.0729   -2.0059 N   0  0  0  0  0  0  0  0  0  0  0  0
   -0.7968    4.9586   -2.6339 C   0  0  0  0  0  0  0  0  0  0  0  0
   -1.5255    2.8591   -1.4271 C   0  0  0  0  0  0  0  0  0  0  0  0
    0.5130    2.5253   -1.6324 H   0  0  0  0  0  0  0  0  0  0  0  0
    1.9528    0.6918   -1.9882 H   0  0  0  0  0  0  0  0  0  0  0  0
    2.2377    1.5466   -0.4603 H   0  0  0  0  0  0  0  0  0  0  0  0
    3.8084   -0.6744   -2.5135 H   0  0  0  0  0  0  0  0  0  0  0  0
    5.5711   -2.2569   -1.8423 H   0  0  0  0  0  0  0  0  0  0  0  0
    5.3665   -4.0800    2.1821 H   0  0  0  0  0  0  0  0  0  0  0  0
    7.0903   -4.2534    1.8314 H   0  0  0  0  0  0  0  0  0  0  0  0
    6.5110   -2.7124    2.4747 H   0  0  0  0  0  0  0  0  0  0  0  0
    4.2710   -1.9661    2.2554 H   0  0  0  0  0  0  0  0  0  0  0  0
    2.5220   -0.3983    1.5900 H   0  0  0  0  0  0  0  0  0  0  0  0
   -1.5739   -0.3699    0.2434 H   0  0  0  0  0  0  0  0  0  0  0  0
   -5.3517   -1.3191   -0.8252 H   0  0  0  0  0  0  0  0  0  0  0  0
   -4.7211   -3.8797    2.5565 H   0  0  0  0  0  0  0  0  0  0  0  0
   -3.3953   -2.0721    3.6802 H   0  0  0  0  0  0  0  0  0  0  0  0
   -4.7137    3.4560   -1.1483 H   0  0  0  0  0  0  0  0  0  0  0  0
   -0.9553    5.9692   -2.2485 H   0  0  0  0  0  0  0  0  0  0  0  0
    0.2214    4.6375   -2.4053 H   0  0  0  0  0  0  0  0  0  0  0  0
   -0.9665    4.9301   -3.7130 H   0  0  0  0  0  0  0  0  0  0  0  0
  1  2  1  0
  2  3  2  3
  3  4  1  0
  4  5  1  0
  5  6  2  0
  6  7  1  0
  7  8  2  0
  8  9  1  0
  9 10  1  0
  8 11  1  0
 11 12  2  0
  2 13  1  0
 13 14  1  0
 14 15  2  3
 15 16  1  0
 16 17  2  0
 17 18  1  0
 18 19  1  0
 18 20  2  0
 20 21  1  0
 21 22  2  0
 22 23  1  0
 14 24  1  0
 24 25  1  0
 25 26  2  0
 26 27  1  0
 27 28  1  0
 27 29  1  0
 29  1  1  0
 12  5  1  0
 22 16  1  0
 29 24  2  0
  1 30  1  0
  4 31  1  0
  4 32  1  0
  6 33  1  0
  7 34  1  0
 10 35  1  0
 10 36  1  0
 10 37  1  0
 11 38  1  0
 12 39  1  0
 13 40  1  0
 17 41  1  0
 20 42  1  0
 21 43  1  0
 25 44  1  0
 28 45  1  0
 28 46  1  0
 28 47  1  0
M  END
>  <ScrubInfo>  (9) 
{"isomerGroup": 0, "isomerId": 8, "confId": 0, "nr_conformers:": 1, "nr_isomers:": 9}

$$$$
