REMARK SMILES Cc1ccc(Nc2nc(N)c([N+](=O)[O-])c(NC[C@@H]3CCCO3)n2)cc1
REMARK SMILES IDX 7 1 8 2 9 3 11 4 15 5 23 6 6 7 5 9 2 10 3 11 25 12 4 13
REMARK SMILES IDX 24 14 1 15 10 16 16 19 17 21 18 22 19 23 22 24 20 25 21 26
REMARK SMILES IDX 12 27 13 28 14 29
REMARK H PARENT 6 8 10 17 10 18 16 20
ROOT
ATOM      1  C   UNL     1       1.042  -0.067   0.378  1.00  0.00     0.231 A 
ATOM      2  N   UNL     1       1.280  -0.365   1.661  1.00  0.00    -0.188 NA
ATOM      3  C   UNL     1       0.243  -0.604   2.475  1.00  0.00     0.210 A 
ATOM      4  C   UNL     1      -1.050  -0.577   1.989  1.00  0.00     0.353 A 
ATOM      5  C   UNL     1      -1.252  -0.283   0.652  1.00  0.00     0.213 A 
ATOM      6  N   UNL     1      -0.196  -0.013  -0.141  1.00  0.00    -0.188 NA
ENDROOT
BRANCH   1   7
ATOM      7  N   UNL     1       2.067   0.206  -0.522  1.00  0.00    -0.324 N 
ATOM      8  H   UNL     1       1.670   0.406  -1.428  1.00  0.00     0.170 HD
BRANCH   7   9
ATOM      9  C   UNL     1       3.460   0.270  -0.417  1.00  0.00     0.041 A 
ATOM     10  C   UNL     1       6.296   0.411  -0.350  1.00  0.00    -0.051 A 
ATOM     11  C   UNL     1       5.566   0.121   0.805  1.00  0.00     0.005 A 
ATOM     12  C   UNL     1       5.603   0.650  -1.538  1.00  0.00     0.005 A 
ATOM     13  C   UNL     1       4.168   0.047   0.767  1.00  0.00     0.026 A 
ATOM     14  C   UNL     1       4.205   0.574  -1.568  1.00  0.00     0.026 A 
ATOM     15  C   UNL     1       7.790   0.524  -0.300  1.00  0.00     0.044 C 
ENDBRANCH   7   9
ENDBRANCH   1   7
BRANCH   3  16
ATOM     16  N   UNL     1       0.588  -0.929   3.795  1.00  0.00    -0.378 N 
ATOM     17  H   UNL     1       0.365  -1.898   4.010  1.00  0.00     0.158 HD
ATOM     18  H   UNL     1       0.070  -0.345   4.454  1.00  0.00     0.158 HD
ENDBRANCH   3  16
BRANCH   5  19
ATOM     19  N   UNL     1      -2.541  -0.158   0.108  1.00  0.00    -0.362 N 
ATOM     20  H   UNL     1      -3.127  -0.959   0.371  1.00  0.00     0.162 HD
BRANCH  19  21
ATOM     21  C   UNL     1      -2.611   0.034  -1.347  1.00  0.00     0.146 C 
BRANCH  21  22
ATOM     22  C   UNL     1      -4.075   0.029  -1.809  1.00  0.00     0.137 C 
ATOM     23  C   UNL     1      -4.918   1.176  -1.272  1.00  0.00     0.036 C 
ATOM     24  O   UNL     1      -4.729  -1.190  -1.389  1.00  0.00    -0.376 OA
ATOM     25  C   UNL     1      -6.303   0.579  -1.312  1.00  0.00     0.031 C 
ATOM     26  C   UNL     1      -6.037  -0.854  -0.902  1.00  0.00     0.160 C 
ENDBRANCH  21  22
ENDBRANCH  19  21
ENDBRANCH   5  19
BRANCH   4  27
ATOM     27  N   UNL     1      -2.160  -0.840   2.857  1.00  0.00     0.070 N 
ATOM     28  O   UNL     1      -3.007  -1.661   2.473  1.00  0.00    -0.258 OA
ATOM     29  O   UNL     1      -2.181  -0.261   3.954  1.00  0.00    -0.258 OA
ENDBRANCH   4  27
TORSDOF 7
