_i0
     RDKit          3D

 45 47  0  0  0  0  0  0  0  0999 V2000
    7.7900    0.5238   -0.2999 C   0  0  0  0  0  0  0  0  0  0  0  0
    6.2960    0.4111   -0.3500 C   0  0  0  0  0  0  0  0  0  0  0  0
    5.5660    0.1212    0.8049 C   0  0  0  0  0  0  0  0  0  0  0  0
    4.1675    0.0466    0.7670 C   0  0  0  0  0  0  0  0  0  0  0  0
    3.4604    0.2700   -0.4173 C   0  0  0  0  0  0  0  0  0  0  0  0
    2.0666    0.2064   -0.5217 N   0  0  0  0  0  0  0  0  0  0  0  0
    1.0419   -0.0672    0.3784 C   0  0  0  0  0  0  0  0  0  0  0  0
    1.2805   -0.3648    1.6611 N   0  0  0  0  0  0  0  0  0  0  0  0
    0.2434   -0.6042    2.4752 C   0  0  0  0  0  0  0  0  0  0  0  0
    0.5884   -0.9295    3.7951 N   0  0  0  0  0  0  0  0  0  0  0  0
   -1.0497   -0.5768    1.9893 C   0  0  0  0  0  0  0  0  0  0  0  0
   -2.1603   -0.8404    2.8574 N   0  0  0  0  0  4  0  0  0  0  0  0
   -3.0075   -1.6609    2.4733 O   0  0  0  0  0  0  0  0  0  0  0  0
   -2.1809   -0.2612    3.9545 O   0  0  0  0  0  1  0  0  0  0  0  0
   -1.2518   -0.2828    0.6520 C   0  0  0  0  0  0  0  0  0  0  0  0
   -2.5411   -0.1578    0.1079 N   0  0  0  0  0  0  0  0  0  0  0  0
   -2.6112    0.0336   -1.3469 C   0  0  0  0  0  0  0  0  0  0  0  0
   -4.0753    0.0291   -1.8094 C   0  0  0  0  0  0  0  0  0  0  0  0
   -4.9182    1.1762   -1.2715 C   0  0  0  0  0  0  0  0  0  0  0  0
   -6.3027    0.5790   -1.3116 C   0  0  0  0  0  0  0  0  0  0  0  0
   -6.0373   -0.8538   -0.9025 C   0  0  0  0  0  0  0  0  0  0  0  0
   -4.7287   -1.1901   -1.3887 O   0  0  0  0  0  0  0  0  0  0  0  0
   -0.1963   -0.0135   -0.1413 N   0  0  0  0  0  0  0  0  0  0  0  0
    4.2054    0.5740   -1.5682 C   0  0  0  0  0  0  0  0  0  0  0  0
    5.6026    0.6500   -1.5375 C   0  0  0  0  0  0  0  0  0  0  0  0
    8.2351    0.2468   -1.2613 H   0  0  0  0  0  0  0  0  0  0  0  0
    8.0801    1.5510   -0.0587 H   0  0  0  0  0  0  0  0  0  0  0  0
    8.2073   -0.1491    0.4566 H   0  0  0  0  0  0  0  0  0  0  0  0
    6.0755   -0.0516    1.7503 H   0  0  0  0  0  0  0  0  0  0  0  0
    3.6500   -0.1869    1.6930 H   0  0  0  0  0  0  0  0  0  0  0  0
    1.6703    0.4055   -1.4277 H   0  0  0  0  0  0  0  0  0  0  0  0
    0.3654   -1.8978    4.0101 H   0  0  0  0  0  0  0  0  0  0  0  0
    0.0701   -0.3453    4.4538 H   0  0  0  0  0  0  0  0  0  0  0  0
   -3.1272   -0.9593    0.3712 H   0  0  0  0  0  0  0  0  0  0  0  0
   -2.0926   -0.7957   -1.8444 H   0  0  0  0  0  0  0  0  0  0  0  0
   -2.1375    0.9784   -1.6381 H   0  0  0  0  0  0  0  0  0  0  0  0
   -4.1016    0.0388   -2.9062 H   0  0  0  0  0  0  0  0  0  0  0  0
   -4.8218    2.0867   -1.8695 H   0  0  0  0  0  0  0  0  0  0  0  0
   -4.6568    1.4210   -0.2356 H   0  0  0  0  0  0  0  0  0  0  0  0
   -7.0187    1.0839   -0.6582 H   0  0  0  0  0  0  0  0  0  0  0  0
   -6.6907    0.6103   -2.3367 H   0  0  0  0  0  0  0  0  0  0  0  0
   -6.7730   -1.5516   -1.3119 H   0  0  0  0  0  0  0  0  0  0  0  0
   -6.0239   -0.9587    0.1877 H   0  0  0  0  0  0  0  0  0  0  0  0
    3.7004    0.7599   -2.5130 H   0  0  0  0  0  0  0  0  0  0  0  0
    6.1417    0.8960   -2.4493 H   0  0  0  0  0  0  0  0  0  0  0  0
  1  2  1  0
  2  3  2  0
  3  4  1  0
  4  5  2  0
  5  6  1  0
  6  7  1  0
  7  8  2  0
  8  9  1  0
  9 10  1  0
  9 11  2  0
 11 12  1  0
 12 13  2  0
 12 14  1  0
 11 15  1  0
 15 16  1  0
 16 17  1  0
 17 18  1  0
 18 19  1  0
 19 20  1  0
 20 21  1  0
 21 22  1  0
 15 23  2  0
  5 24  1  0
 24 25  2  0
 25  2  1  0
 23  7  1  0
 22 18  1  0
  1 26  1  0
  1 27  1  0
  1 28  1  0
  3 29  1  0
  4 30  1  0
  6 31  1  0
 10 32  1  0
 10 33  1  0
 16 34  1  0
 17 35  1  0
 17 36  1  0
 18 37  1  0
 19 38  1  0
 19 39  1  0
 20 40  1  0
 20 41  1  0
 21 42  1  0
 21 43  1  0
 24 44  1  0
 25 45  1  0
M  CHG  2  12   1  14  -1
M  END
>  <ScrubInfo>  (1) 
{"isomerGroup": 0, "isomerId": 0, "confId": 0, "nr_conformers:": 1, "nr_isomers:": 9}

$$$$
_i1
     RDKit          3D

 45 47  0  0  0  0  0  0  0  0999 V2000
    1.3384   -1.3217   -0.1178 N   0  0  0  0  0  0  0  0  0  0  0  0
    0.5873   -2.4562   -0.3150 C   0  0  0  0  0  0  0  0  0  0  0  0
    1.2094   -3.5065   -0.9699 N   0  0  0  0  0  0  0  0  0  0  0  0
   -0.6887   -2.4214    0.1362 C   0  0  0  0  0  0  0  0  0  0  0  0
   -1.5599   -3.5618   -0.0185 N   0  0  0  0  0  4  0  0  0  0  0  0
   -1.0511   -4.6934   -0.0749 O   0  0  0  0  0  0  0  0  0  0  0  0
   -2.7808   -3.3463   -0.0758 O   0  0  0  0  0  1  0  0  0  0  0  0
   -1.1794   -1.1714    0.8225 C   0  0  0  0  0  0  0  0  0  0  0  0
   -2.4584   -1.0827    1.3538 N   0  0  0  0  0  0  0  0  0  0  0  0
   -3.0514    0.1527    1.8497 C   0  0  0  0  0  0  0  0  0  0  0  0
   -3.3963    1.1578    0.7356 C   0  0  0  0  0  0  0  0  0  0  0  0
   -4.3417    0.6128   -0.3308 C   0  0  0  0  0  0  0  0  0  0  0  0
   -5.7008    1.0010    0.1938 C   0  0  0  0  0  0  0  0  0  0  0  0
   -5.4157    2.3480    0.8151 C   0  0  0  0  0  0  0  0  0  0  0  0
   -4.0827    2.2817    1.3365 O   0  0  0  0  0  0  0  0  0  0  0  0
   -0.4060   -0.1215    0.9523 N   0  0  0  0  0  0  0  0  0  0  0  0
    0.8673   -0.1625    0.4430 C   0  0  0  0  0  0  0  0  0  0  0  0
    1.5118    0.9567    0.5476 N   0  0  0  0  0  0  0  0  0  0  0  0
    2.8223    1.0396    0.0650 C   0  0  0  0  0  0  0  0  0  0  0  0
    3.9016    0.7322    0.8953 C   0  0  0  0  0  0  0  0  0  0  0  0
    5.2100    0.8012    0.4107 C   0  0  0  0  0  0  0  0  0  0  0  0
    5.4545    1.1809   -0.9145 C   0  0  0  0  0  0  0  0  0  0  0  0
    6.8607    1.2969   -1.4244 C   0  0  0  0  0  0  0  0  0  0  0  0
    4.3727    1.5220   -1.7352 C   0  0  0  0  0  0  0  0  0  0  0  0
    3.0659    1.4520   -1.2463 C   0  0  0  0  0  0  0  0  0  0  0  0
    2.2304   -1.2819   -0.5892 H   0  0  0  0  0  0  0  0  0  0  0  0
    0.7176   -4.4008   -0.8541 H   0  0  0  0  0  0  0  0  0  0  0  0
    2.1876   -3.6068   -0.7079 H   0  0  0  0  0  0  0  0  0  0  0  0
   -3.1363   -1.7850    1.0523 H   0  0  0  0  0  0  0  0  0  0  0  0
   -2.3885    0.6277    2.5837 H   0  0  0  0  0  0  0  0  0  0  0  0
   -3.9583   -0.1006    2.4122 H   0  0  0  0  0  0  0  0  0  0  0  0
   -2.4769    1.5301    0.2716 H   0  0  0  0  0  0  0  0  0  0  0  0
   -4.1598    1.1388   -1.2766 H   0  0  0  0  0  0  0  0  0  0  0  0
   -4.2431   -0.4572   -0.5285 H   0  0  0  0  0  0  0  0  0  0  0  0
   -6.4734    1.0429   -0.5783 H   0  0  0  0  0  0  0  0  0  0  0  0
   -6.0210    0.2896    0.9636 H   0  0  0  0  0  0  0  0  0  0  0  0
   -6.1142    2.5983    1.6182 H   0  0  0  0  0  0  0  0  0  0  0  0
   -5.4437    3.1458    0.0652 H   0  0  0  0  0  0  0  0  0  0  0  0
    3.7190    0.4475    1.9282 H   0  0  0  0  0  0  0  0  0  0  0  0
    6.0363    0.5674    1.0783 H   0  0  0  0  0  0  0  0  0  0  0  0
    7.5154    0.5701   -0.9322 H   0  0  0  0  0  0  0  0  0  0  0  0
    7.2451    2.3041   -1.2366 H   0  0  0  0  0  0  0  0  0  0  0  0
    6.9035    1.0959   -2.5000 H   0  0  0  0  0  0  0  0  0  0  0  0
    4.5398    1.8550   -2.7572 H   0  0  0  0  0  0  0  0  0  0  0  0
    2.2315    1.7290   -1.8852 H   0  0  0  0  0  0  0  0  0  0  0  0
  1  2  1  0
  2  3  1  0
  2  4  2  0
  4  5  1  0
  5  6  2  0
  5  7  1  0
  4  8  1  0
  8  9  1  0
  9 10  1  0
 10 11  1  0
 11 12  1  0
 12 13  1  0
 13 14  1  0
 14 15  1  0
  8 16  2  0
 16 17  1  0
 17 18  2  3
 18 19  1  0
 19 20  2  0
 20 21  1  0
 21 22  2  0
 22 23  1  0
 22 24  1  0
 24 25  2  0
 17  1  1  0
 25 19  1  0
 15 11  1  0
  1 26  1  0
  3 27  1  0
  3 28  1  0
  9 29  1  0
 10 30  1  0
 10 31  1  0
 11 32  1  0
 12 33  1  0
 12 34  1  0
 13 35  1  0
 13 36  1  0
 14 37  1  0
 14 38  1  0
 20 39  1  0
 21 40  1  0
 23 41  1  0
 23 42  1  0
 23 43  1  0
 24 44  1  0
 25 45  1  0
M  CHG  2   5   1   7  -1
M  END
>  <ScrubInfo>  (2) 
{"isomerGroup": 0, "isomerId": 1, "confId": 0, "nr_conformers:": 1, "nr_isomers:": 9}

$$$$
_i2
     RDKit          3D

 45 47  0  0  0  0  0  0  0  0999 V2000
    0.8946    3.0926   -1.2089 N   0  0  0  0  0  0  0  0  0  0  0  0
    1.1950    1.9019   -0.5997 C   0  0  0  0  0  0  0  0  0  0  0  0
    2.5477    1.7343   -0.4277 N   0  0  0  0  0  0  0  0  0  0  0  0
    3.2183    0.5720    0.0123 C   0  0  0  0  0  0  0  0  0  0  0  0
    2.6857   -0.7158   -0.1048 C   0  0  0  0  0  0  0  0  0  0  0  0
    3.4076   -1.8405    0.3126 C   0  0  0  0  0  0  0  0  0  0  0  0
    4.6874   -1.7033    0.8553 C   0  0  0  0  0  0  0  0  0  0  0  0
    5.4722   -2.9112    1.2716 C   0  0  0  0  0  0  0  0  0  0  0  0
    5.2459   -0.4265    0.9425 C   0  0  0  0  0  0  0  0  0  0  0  0
    4.5204    0.6945    0.5235 C   0  0  0  0  0  0  0  0  0  0  0  0
    0.2663    1.0657   -0.2310 N   0  0  0  0  0  0  0  0  0  0  0  0
   -1.0800    1.3653   -0.4579 C   0  0  0  0  0  0  0  0  0  0  0  0
   -2.0198    0.4228   -0.0277 N   0  0  0  0  0  0  0  0  0  0  0  0
   -1.6893   -0.6712    0.8854 C   0  0  0  0  0  0  0  0  0  0  0  0
   -2.8965   -1.6048    1.0876 C   0  0  0  0  0  0  0  0  0  0  0  0
   -3.3620   -2.3151   -0.1791 C   0  0  0  0  0  0  0  0  0  0  0  0
   -4.5895   -1.5413   -0.5927 C   0  0  0  0  0  0  0  0  0  0  0  0
   -5.1478   -1.0932    0.7373 C   0  0  0  0  0  0  0  0  0  0  0  0
   -4.0201   -0.8455    1.5862 O   0  0  0  0  0  0  0  0  0  0  0  0
   -1.4367    2.5157   -1.0851 C   0  0  0  0  0  0  0  0  0  0  0  0
   -2.8093    2.7725   -1.3853 N   0  0  0  0  0  4  0  0  0  0  0  0
   -3.1339    2.8374   -2.5796 O   0  0  0  0  0  0  0  0  0  0  0  0
   -3.5944    2.8682   -0.4278 O   0  0  0  0  0  1  0  0  0  0  0  0
   -0.3885    3.4740   -1.4965 C   0  0  0  0  0  0  0  0  0  0  0  0
   -0.6455    4.6044   -2.0744 N   0  0  0  0  0  0  0  0  0  0  0  0
    1.6501    3.6173   -1.6176 H   0  0  0  0  0  0  0  0  0  0  0  0
    3.0639    2.5763   -0.2136 H   0  0  0  0  0  0  0  0  0  0  0  0
    1.7016   -0.8749   -0.5374 H   0  0  0  0  0  0  0  0  0  0  0  0
    2.9584   -2.8252    0.2036 H   0  0  0  0  0  0  0  0  0  0  0  0
    6.1587   -2.6680    2.0895 H   0  0  0  0  0  0  0  0  0  0  0  0
    4.8076   -3.7040    1.6309 H   0  0  0  0  0  0  0  0  0  0  0  0
    6.0515   -3.2916    0.4246 H   0  0  0  0  0  0  0  0  0  0  0  0
    6.2511   -0.2934    1.3363 H   0  0  0  0  0  0  0  0  0  0  0  0
    4.9922    1.6701    0.6083 H   0  0  0  0  0  0  0  0  0  0  0  0
   -2.9286    0.8347    0.2116 H   0  0  0  0  0  0  0  0  0  0  0  0
   -1.4072   -0.2396    1.8529 H   0  0  0  0  0  0  0  0  0  0  0  0
   -0.8418   -1.2509    0.5024 H   0  0  0  0  0  0  0  0  0  0  0  0
   -2.6301   -2.3459    1.8503 H   0  0  0  0  0  0  0  0  0  0  0  0
   -2.6001   -2.3735   -0.9619 H   0  0  0  0  0  0  0  0  0  0  0  0
   -3.6525   -3.3434    0.0704 H   0  0  0  0  0  0  0  0  0  0  0  0
   -5.3012   -2.1323   -1.1753 H   0  0  0  0  0  0  0  0  0  0  0  0
   -4.3007   -0.6718   -1.1934 H   0  0  0  0  0  0  0  0  0  0  0  0
   -5.7545   -0.1872    0.6567 H   0  0  0  0  0  0  0  0  0  0  0  0
   -5.7522   -1.8809    1.2001 H   0  0  0  0  0  0  0  0  0  0  0  0
    0.2061    5.1317   -2.2746 H   0  0  0  0  0  0  0  0  0  0  0  0
  1  2  1  0
  2  3  1  0
  3  4  1  0
  4  5  2  0
  5  6  1  0
  6  7  2  0
  7  8  1  0
  7  9  1  0
  9 10  2  0
  2 11  2  0
 11 12  1  0
 12 13  1  0
 13 14  1  0
 14 15  1  0
 15 16  1  0
 16 17  1  0
 17 18  1  0
 18 19  1  0
 12 20  2  0
 20 21  1  0
 21 22  2  0
 21 23  1  0
 20 24  1  0
 24 25  2  3
 24  1  1  0
 10  4  1  0
 19 15  1  0
  1 26  1  0
  3 27  1  0
  5 28  1  0
  6 29  1  0
  8 30  1  0
  8 31  1  0
  8 32  1  0
  9 33  1  0
 10 34  1  0
 13 35  1  0
 14 36  1  0
 14 37  1  0
 15 38  1  0
 16 39  1  0
 16 40  1  0
 17 41  1  0
 17 42  1  0
 18 43  1  0
 18 44  1  0
 25 45  1  0
M  CHG  2  21   1  23  -1
M  END
>  <ScrubInfo>  (3) 
{"isomerGroup": 0, "isomerId": 2, "confId": 0, "nr_conformers:": 1, "nr_isomers:": 9}

$$$$
_i3
     RDKit          3D

 45 47  0  0  0  0  0  0  0  0999 V2000
   -0.2624   -1.2967    0.7296 N   0  0  0  0  0  0  0  0  0  0  0  0
    0.4989   -1.2790    1.8609 C   0  0  0  0  0  0  0  0  0  0  0  0
    1.3312   -0.2129    2.0417 N   0  0  0  0  0  0  0  0  0  0  0  0
    2.0199    0.5598    1.0874 C   0  0  0  0  0  0  0  0  0  0  0  0
    2.2256    0.1572   -0.2366 C   0  0  0  0  0  0  0  0  0  0  0  0
    2.8743    0.9931   -1.1525 C   0  0  0  0  0  0  0  0  0  0  0  0
    3.3187    2.2607   -0.7671 C   0  0  0  0  0  0  0  0  0  0  0  0
    4.0445    3.1421   -1.7394 C   0  0  0  0  0  0  0  0  0  0  0  0
    3.1302    2.6666    0.5563 C   0  0  0  0  0  0  0  0  0  0  0  0
    2.4832    1.8270    1.4685 C   0  0  0  0  0  0  0  0  0  0  0  0
    0.3998   -2.1917    2.7928 N   0  0  0  0  0  0  0  0  0  0  0  0
   -0.4903   -3.2459    2.6007 C   0  0  0  0  0  0  0  0  0  0  0  0
   -0.4802   -4.1979    3.6132 N   0  0  0  0  0  0  0  0  0  0  0  0
   -1.2965   -3.3071    1.5104 C   0  0  0  0  0  0  0  0  0  0  0  0
   -2.1894   -4.4118    1.3485 N   0  0  0  0  0  4  0  0  0  0  0  0
   -2.0514   -5.1237    0.3440 O   0  0  0  0  0  0  0  0  0  0  0  0
   -3.0233   -4.6049    2.2498 O   0  0  0  0  0  1  0  0  0  0  0  0
   -1.2381   -2.2326    0.4872 C   0  0  0  0  0  0  0  0  0  0  0  0
   -2.0727   -2.2184   -0.5000 N   0  0  0  0  0  0  0  0  0  0  0  0
   -1.9547   -1.2132   -1.5662 C   0  0  0  0  0  0  0  0  0  0  0  0
   -2.4451    0.1677   -1.1233 C   0  0  0  0  0  0  0  0  0  0  0  0
   -2.7379    1.0962   -2.2909 C   0  0  0  0  0  0  0  0  0  0  0  0
   -2.5474    2.4522   -1.6597 C   0  0  0  0  0  0  0  0  0  0  0  0
   -1.3606    2.2113   -0.7531 C   0  0  0  0  0  0  0  0  0  0  0  0
   -1.4130    0.8315   -0.3539 O   0  0  0  0  0  0  0  0  0  0  0  0
   -0.3763   -0.3969    0.2644 H   0  0  0  0  0  0  0  0  0  0  0  0
    1.7873   -0.2155    2.9480 H   0  0  0  0  0  0  0  0  0  0  0  0
    1.9193   -0.8291   -0.5753 H   0  0  0  0  0  0  0  0  0  0  0  0
    3.0350    0.6405   -2.1692 H   0  0  0  0  0  0  0  0  0  0  0  0
    3.8789    4.1994   -1.5071 H   0  0  0  0  0  0  0  0  0  0  0  0
    5.1185    2.9355   -1.7024 H   0  0  0  0  0  0  0  0  0  0  0  0
    3.6863    2.9745   -2.7606 H   0  0  0  0  0  0  0  0  0  0  0  0
    3.4819    3.6410    0.8882 H   0  0  0  0  0  0  0  0  0  0  0  0
    2.3314    2.1801    2.4861 H   0  0  0  0  0  0  0  0  0  0  0  0
   -1.3993   -4.6051    3.7955 H   0  0  0  0  0  0  0  0  0  0  0  0
   -0.0741   -3.7875    4.4514 H   0  0  0  0  0  0  0  0  0  0  0  0
   -2.5712   -1.5675   -2.4003 H   0  0  0  0  0  0  0  0  0  0  0  0
   -0.9205   -1.1690   -1.9299 H   0  0  0  0  0  0  0  0  0  0  0  0
   -3.3261    0.0797   -0.4758 H   0  0  0  0  0  0  0  0  0  0  0  0
   -3.7375    0.9489   -2.7092 H   0  0  0  0  0  0  0  0  0  0  0  0
   -2.0045    0.9586   -3.0949 H   0  0  0  0  0  0  0  0  0  0  0  0
   -2.3763    3.2543   -2.3822 H   0  0  0  0  0  0  0  0  0  0  0  0
   -3.4292    2.7113   -1.0618 H   0  0  0  0  0  0  0  0  0  0  0  0
   -1.3707    2.8509    0.1338 H   0  0  0  0  0  0  0  0  0  0  0  0
   -0.4162    2.3662   -1.2852 H   0  0  0  0  0  0  0  0  0  0  0  0
  1  2  1  0
  2  3  1  0
  3  4  1  0
  4  5  2  0
  5  6  1  0
  6  7  2  0
  7  8  1  0
  7  9  1  0
  9 10  2  0
  2 11  2  0
 11 12  1  0
 12 13  1  0
 12 14  2  0
 14 15  1  0
 15 16  2  0
 15 17  1  0
 14 18  1  0
 18 19  2  3
 19 20  1  0
 20 21  1  0
 21 22  1  0
 22 23  1  0
 23 24  1  0
 24 25  1  0
 18  1  1  0
 25 21  1  0
 10  4  1  0
  1 26  1  0
  3 27  1  0
  5 28  1  0
  6 29  1  0
  8 30  1  0
  8 31  1  0
  8 32  1  0
  9 33  1  0
 10 34  1  0
 13 35  1  0
 13 36  1  0
 20 37  1  0
 20 38  1  0
 21 39  1  0
 22 40  1  0
 22 41  1  0
 23 42  1  0
 23 43  1  0
 24 44  1  0
 24 45  1  0
M  CHG  2  15   1  17  -1
M  END
>  <ScrubInfo>  (4) 
{"isomerGroup": 0, "isomerId": 3, "confId": 0, "nr_conformers:": 1, "nr_isomers:": 9}

$$$$
_i4
     RDKit          3D

 45 47  0  0  0  0  0  0  0  0999 V2000
   -0.1015    0.2449   -0.1707 N   0  0  0  0  0  0  0  0  0  0  0  0
   -0.8602   -0.6037   -0.9494 C   0  0  0  0  0  0  0  0  0  0  0  0
   -2.1822   -0.2665   -1.2445 N   0  0  0  0  0  0  0  0  0  0  0  0
   -2.7309    1.0885   -1.2387 C   0  0  0  0  0  0  0  0  0  0  0  0
   -4.2289    1.0896   -1.5654 C   0  0  0  0  0  0  0  0  0  0  0  0
   -5.0878    0.3781   -0.5310 C   0  0  0  0  0  0  0  0  0  0  0  0
   -6.4236    1.0466   -0.7376 C   0  0  0  0  0  0  0  0  0  0  0  0
   -6.0195    2.4800   -1.0084 C   0  0  0  0  0  0  0  0  0  0  0  0
   -4.7240    2.4418   -1.6269 O   0  0  0  0  0  0  0  0  0  0  0  0
   -0.2365   -1.7420   -1.3444 C   0  0  0  0  0  0  0  0  0  0  0  0
   -0.9256   -2.7417   -2.1232 N   0  0  0  0  0  4  0  0  0  0  0  0
   -1.8396   -2.3788   -2.8820 O   0  0  0  0  0  0  0  0  0  0  0  0
   -0.5646   -3.9209   -1.9839 O   0  0  0  0  0  1  0  0  0  0  0  0
    1.1930   -1.9592   -0.9388 C   0  0  0  0  0  0  0  0  0  0  0  0
    1.9446   -3.0414   -1.3375 N   0  0  0  0  0  0  0  0  0  0  0  0
    1.8412   -1.1204   -0.1709 N   0  0  0  0  0  0  0  0  0  0  0  0
    1.1716    0.0000    0.2559 C   0  0  0  0  0  0  0  0  0  0  0  0
    1.7260    0.8446    1.0756 N   0  0  0  0  0  0  0  0  0  0  0  0
    3.0328    0.6042    1.5247 C   0  0  0  0  0  0  0  0  0  0  0  0
    4.1317    1.0591    0.7927 C   0  0  0  0  0  0  0  0  0  0  0  0
    5.4323    0.8489    1.2593 C   0  0  0  0  0  0  0  0  0  0  0  0
    5.6500    0.1992    2.4801 C   0  0  0  0  0  0  0  0  0  0  0  0
    7.0456   -0.0559    2.9663 C   0  0  0  0  0  0  0  0  0  0  0  0
    4.5479   -0.2545    3.2145 C   0  0  0  0  0  0  0  0  0  0  0  0
    3.2492   -0.0423    2.7433 C   0  0  0  0  0  0  0  0  0  0  0  0
   -0.5498    1.0478    0.2413 H   0  0  0  0  0  0  0  0  0  0  0  0
   -2.5666   -0.8412   -2.0061 H   0  0  0  0  0  0  0  0  0  0  0  0
   -2.2004    1.7042   -1.9752 H   0  0  0  0  0  0  0  0  0  0  0  0
   -2.5761    1.5656   -0.2637 H   0  0  0  0  0  0  0  0  0  0  0  0
   -4.3940    0.6445   -2.5551 H   0  0  0  0  0  0  0  0  0  0  0  0
   -5.1201   -0.7054   -0.6753 H   0  0  0  0  0  0  0  0  0  0  0  0
   -4.7282    0.5806    0.4851 H   0  0  0  0  0  0  0  0  0  0  0  0
   -6.9181    0.6241   -1.6203 H   0  0  0  0  0  0  0  0  0  0  0  0
   -7.1020    0.9481    0.1139 H   0  0  0  0  0  0  0  0  0  0  0  0
   -5.9255    3.0479   -0.0768 H   0  0  0  0  0  0  0  0  0  0  0  0
   -6.7252    2.9985   -1.6635 H   0  0  0  0  0  0  0  0  0  0  0  0
    1.4396   -3.9116   -1.5060 H   0  0  0  0  0  0  0  0  0  0  0  0
    2.7813   -3.1623   -0.7732 H   0  0  0  0  0  0  0  0  0  0  0  0
    3.9708    1.5736   -0.1498 H   0  0  0  0  0  0  0  0  0  0  0  0
    6.2717    1.1997    0.6639 H   0  0  0  0  0  0  0  0  0  0  0  0
    7.7226    0.7427    2.6455 H   0  0  0  0  0  0  0  0  0  0  0  0
    7.0787   -0.0893    4.0604 H   0  0  0  0  0  0  0  0  0  0  0  0
    7.4105   -1.0094    2.5723 H   0  0  0  0  0  0  0  0  0  0  0  0
    4.6906   -0.7716    4.1601 H   0  0  0  0  0  0  0  0  0  0  0  0
    2.3989   -0.3850    3.3251 H   0  0  0  0  0  0  0  0  0  0  0  0
  1  2  1  0
  2  3  1  0
  3  4  1  0
  4  5  1  0
  5  6  1  0
  6  7  1  0
  7  8  1  0
  8  9  1  0
  2 10  2  0
 10 11  1  0
 11 12  2  0
 11 13  1  0
 10 14  1  0
 14 15  1  0
 14 16  2  0
 16 17  1  0
 17 18  2  3
 18 19  1  0
 19 20  2  0
 20 21  1  0
 21 22  2  0
 22 23  1  0
 22 24  1  0
 24 25  2  0
 17  1  1  0
 25 19  1  0
  9  5  1  0
  1 26  1  0
  3 27  1  0
  4 28  1  0
  4 29  1  0
  5 30  1  0
  6 31  1  0
  6 32  1  0
  7 33  1  0
  7 34  1  0
  8 35  1  0
  8 36  1  0
 15 37  1  0
 15 38  1  0
 20 39  1  0
 21 40  1  0
 23 41  1  0
 23 42  1  0
 23 43  1  0
 24 44  1  0
 25 45  1  0
M  CHG  2  11   1  13  -1
M  END
>  <ScrubInfo>  (5) 
{"isomerGroup": 0, "isomerId": 4, "confId": 0, "nr_conformers:": 1, "nr_isomers:": 9}

$$$$
_i5
     RDKit          3D

 45 47  0  0  0  0  0  0  0  0999 V2000
    1.0721   -2.7669    0.8705 N   0  0  0  0  0  0  0  0  0  0  0  0
    1.3728   -1.5081    0.4038 C   0  0  0  0  0  0  0  0  0  0  0  0
    2.6655   -1.1623    0.7088 N   0  0  0  0  0  0  0  0  0  0  0  0
    3.3765    0.0019    0.3462 C   0  0  0  0  0  0  0  0  0  0  0  0
    2.9808    0.8766   -0.6695 C   0  0  0  0  0  0  0  0  0  0  0  0
    3.7558    1.9924   -1.0114 C   0  0  0  0  0  0  0  0  0  0  0  0
    4.9657    2.2467   -0.3619 C   0  0  0  0  0  0  0  0  0  0  0  0
    5.7754    3.4604   -0.7065 C   0  0  0  0  0  0  0  0  0  0  0  0
    5.3789    1.3768    0.6483 C   0  0  0  0  0  0  0  0  0  0  0  0
    4.6002    0.2639    0.9862 C   0  0  0  0  0  0  0  0  0  0  0  0
    0.5137   -0.7842   -0.2419 N   0  0  0  0  0  0  0  0  0  0  0  0
   -0.7793   -1.2416   -0.4169 C   0  0  0  0  0  0  0  0  0  0  0  0
   -1.5973   -0.2904   -0.6691 N   0  0  0  0  0  0  0  0  0  0  0  0
   -3.0355   -0.4742   -0.7753 C   0  0  0  0  0  0  0  0  0  0  0  0
   -3.7333    0.8831   -0.6426 C   0  0  0  0  0  0  0  0  0  0  0  0
   -3.5041    1.5687    0.6961 C   0  0  0  0  0  0  0  0  0  0  0  0
   -4.7155    2.4616    0.7878 C   0  0  0  0  0  0  0  0  0  0  0  0
   -5.7967    1.5865    0.1912 C   0  0  0  0  0  0  0  0  0  0  0  0
   -5.1616    0.7183   -0.7586 O   0  0  0  0  0  0  0  0  0  0  0  0
   -0.9743   -2.7015   -0.2361 C   0  0  0  0  0  0  0  0  0  0  0  0
   -2.0959   -3.3699   -0.8103 N   0  0  0  0  0  4  0  0  0  0  0  0
   -2.7992   -4.0591   -0.0536 O   0  0  0  0  0  0  0  0  0  0  0  0
   -2.2688   -3.2518   -2.0293 O   0  0  0  0  0  1  0  0  0  0  0  0
   -0.0636   -3.4328    0.4473 C   0  0  0  0  0  0  0  0  0  0  0  0
   -0.1263   -4.7887    0.7293 N   0  0  0  0  0  0  0  0  0  0  0  0
    1.8578   -3.3945    0.9922 H   0  0  0  0  0  0  0  0  0  0  0  0
    3.0388   -1.5938    1.5423 H   0  0  0  0  0  0  0  0  0  0  0  0
    2.0604    0.7165   -1.2240 H   0  0  0  0  0  0  0  0  0  0  0  0
    3.4010    2.6569   -1.7966 H   0  0  0  0  0  0  0  0  0  0  0  0
    5.6552    3.7232   -1.7628 H   0  0  0  0  0  0  0  0  0  0  0  0
    6.8420    3.2798   -0.5367 H   0  0  0  0  0  0  0  0  0  0  0  0
    5.4581    4.3087   -0.0923 H   0  0  0  0  0  0  0  0  0  0  0  0
    6.3119    1.5549    1.1782 H   0  0  0  0  0  0  0  0  0  0  0  0
    4.9661   -0.3965    1.7683 H   0  0  0  0  0  0  0  0  0  0  0  0
   -3.4232   -1.1477   -0.0021 H   0  0  0  0  0  0  0  0  0  0  0  0
   -3.3001   -0.8974   -1.7502 H   0  0  0  0  0  0  0  0  0  0  0  0
   -3.4173    1.5456   -1.4587 H   0  0  0  0  0  0  0  0  0  0  0  0
   -2.5592    2.1176    0.7390 H   0  0  0  0  0  0  0  0  0  0  0  0
   -3.5192    0.8419    1.5174 H   0  0  0  0  0  0  0  0  0  0  0  0
   -4.9450    2.7899    1.8048 H   0  0  0  0  0  0  0  0  0  0  0  0
   -4.5690    3.3523    0.1653 H   0  0  0  0  0  0  0  0  0  0  0  0
   -6.5790    2.1670   -0.3058 H   0  0  0  0  0  0  0  0  0  0  0  0
   -6.2629    0.9566    0.9562 H   0  0  0  0  0  0  0  0  0  0  0  0
   -1.0725   -5.1775    0.6452 H   0  0  0  0  0  0  0  0  0  0  0  0
    0.2497   -5.0090    1.6494 H   0  0  0  0  0  0  0  0  0  0  0  0
  1  2  1  0
  2  3  1  0
  3  4  1  0
  4  5  2  0
  5  6  1  0
  6  7  2  0
  7  8  1  0
  7  9  1  0
  9 10  2  0
  2 11  2  0
 11 12  1  0
 12 13  2  3
 13 14  1  0
 14 15  1  0
 15 16  1  0
 16 17  1  0
 17 18  1  0
 18 19  1  0
 12 20  1  0
 20 21  1  0
 21 22  2  0
 21 23  1  0
 20 24  2  0
 24 25  1  0
 24  1  1  0
 10  4  1  0
 19 15  1  0
  1 26  1  0
  3 27  1  0
  5 28  1  0
  6 29  1  0
  8 30  1  0
  8 31  1  0
  8 32  1  0
  9 33  1  0
 10 34  1  0
 14 35  1  0
 14 36  1  0
 15 37  1  0
 16 38  1  0
 16 39  1  0
 17 40  1  0
 17 41  1  0
 18 42  1  0
 18 43  1  0
 25 44  1  0
 25 45  1  0
M  CHG  2  21   1  23  -1
M  END
>  <ScrubInfo>  (6) 
{"isomerGroup": 0, "isomerId": 5, "confId": 0, "nr_conformers:": 1, "nr_isomers:": 9}

$$$$
_i6
     RDKit          3D

 45 47  0  0  0  0  0  0  0  0999 V2000
    0.7520    1.3680   -0.1083 N   0  0  0  0  0  0  0  0  0  0  0  0
    1.9273    2.0286    0.1110 C   0  0  0  0  0  0  0  0  0  0  0  0
    3.0006    1.6247   -0.6292 N   0  0  0  0  0  0  0  0  0  0  0  0
    3.3966    0.3060   -0.9382 C   0  0  0  0  0  0  0  0  0  0  0  0
    4.3443    0.1197   -1.9539 C   0  0  0  0  0  0  0  0  0  0  0  0
    4.7590   -1.1617   -2.3295 C   0  0  0  0  0  0  0  0  0  0  0  0
    4.2254   -2.2898   -1.7010 C   0  0  0  0  0  0  0  0  0  0  0  0
    4.6946   -3.6643   -2.0752 C   0  0  0  0  0  0  0  0  0  0  0  0
    3.2932   -2.1124   -0.6747 C   0  0  0  0  0  0  0  0  0  0  0  0
    2.8794   -0.8283   -0.3029 C   0  0  0  0  0  0  0  0  0  0  0  0
    2.0402    3.0413    0.9164 N   0  0  0  0  0  0  0  0  0  0  0  0
    0.9298    3.4406    1.6266 C   0  0  0  0  0  0  0  0  0  0  0  0
    1.1681    4.3244    2.5341 N   0  0  0  0  0  0  0  0  0  0  0  0
   -0.3729    2.8268    1.2720 C   0  0  0  0  0  0  0  0  0  0  0  0
   -1.5404    3.4064    1.8344 N   0  0  0  0  0  4  0  0  0  0  0  0
   -1.7638    3.1720    3.0303 O   0  0  0  0  0  0  0  0  0  0  0  0
   -2.2343    4.1302    1.1076 O   0  0  0  0  0  1  0  0  0  0  0  0
   -0.4571    1.7763    0.4249 C   0  0  0  0  0  0  0  0  0  0  0  0
   -1.5702    1.0561    0.0067 N   0  0  0  0  0  0  0  0  0  0  0  0
   -2.8379    0.8815    0.7250 C   0  0  0  0  0  0  0  0  0  0  0  0
   -3.6716   -0.2008    0.0244 C   0  0  0  0  0  0  0  0  0  0  0  0
   -4.9706   -0.5244    0.7408 C   0  0  0  0  0  0  0  0  0  0  0  0
   -5.2237   -1.9381    0.2805 C   0  0  0  0  0  0  0  0  0  0  0  0
   -3.8256   -2.5193    0.2611 C   0  0  0  0  0  0  0  0  0  0  0  0
   -2.9252   -1.4391   -0.0329 O   0  0  0  0  0  0  0  0  0  0  0  0
    0.7007    0.7909   -0.9380 H   0  0  0  0  0  0  0  0  0  0  0  0
    3.8076    2.2241   -0.4749 H   0  0  0  0  0  0  0  0  0  0  0  0
    4.7640    0.9791   -2.4726 H   0  0  0  0  0  0  0  0  0  0  0  0
    5.5000   -1.2703   -3.1185 H   0  0  0  0  0  0  0  0  0  0  0  0
    5.5607   -3.9427   -1.4669 H   0  0  0  0  0  0  0  0  0  0  0  0
    4.9761   -3.7065   -3.1327 H   0  0  0  0  0  0  0  0  0  0  0  0
    3.9011   -4.4031   -1.9211 H   0  0  0  0  0  0  0  0  0  0  0  0
    2.8855   -2.9734   -0.1490 H   0  0  0  0  0  0  0  0  0  0  0  0
    2.1732   -0.7367    0.5182 H   0  0  0  0  0  0  0  0  0  0  0  0
    0.3309    4.5832    3.0636 H   0  0  0  0  0  0  0  0  0  0  0  0
   -1.2956    0.1548   -0.3950 H   0  0  0  0  0  0  0  0  0  0  0  0
   -2.6196    0.5704    1.7531 H   0  0  0  0  0  0  0  0  0  0  0  0
   -3.4092    1.8134    0.7401 H   0  0  0  0  0  0  0  0  0  0  0  0
   -3.8713    0.0925   -1.0142 H   0  0  0  0  0  0  0  0  0  0  0  0
   -4.8346   -0.5106    1.8289 H   0  0  0  0  0  0  0  0  0  0  0  0
   -5.7791    0.1667    0.4871 H   0  0  0  0  0  0  0  0  0  0  0  0
   -5.6393   -1.9296   -0.7342 H   0  0  0  0  0  0  0  0  0  0  0  0
   -5.9082   -2.4952    0.9254 H   0  0  0  0  0  0  0  0  0  0  0  0
   -3.5506   -2.9225    1.2414 H   0  0  0  0  0  0  0  0  0  0  0  0
   -3.7094   -3.3090   -0.4865 H   0  0  0  0  0  0  0  0  0  0  0  0
  1  2  1  0
  2  3  1  0
  3  4  1  0
  4  5  2  0
  5  6  1  0
  6  7  2  0
  7  8  1  0
  7  9  1  0
  9 10  2  0
  2 11  2  0
 11 12  1  0
 12 13  2  3
 12 14  1  0
 14 15  1  0
 15 16  2  0
 15 17  1  0
 14 18  2  0
 18 19  1  0
 19 20  1  0
 20 21  1  0
 21 22  1  0
 22 23  1  0
 23 24  1  0
 24 25  1  0
 18  1  1  0
 25 21  1  0
 10  4  1  0
  1 26  1  0
  3 27  1  0
  5 28  1  0
  6 29  1  0
  8 30  1  0
  8 31  1  0
  8 32  1  0
  9 33  1  0
 10 34  1  0
 13 35  1  0
 19 36  1  0
 20 37  1  0
 20 38  1  0
 21 39  1  0
 22 40  1  0
 22 41  1  0
 23 42  1  0
 23 43  1  0
 24 44  1  0
 24 45  1  0
M  CHG  2  15   1  17  -1
M  END
>  <ScrubInfo>  (7) 
{"isomerGroup": 0, "isomerId": 6, "confId": 0, "nr_conformers:": 1, "nr_isomers:": 9}

$$$$
_i7
     RDKit          3D

 45 47  0  0  0  0  0  0  0  0999 V2000
   -0.0973    0.3265   -0.7370 N   0  0  0  0  0  0  0  0  0  0  0  0
    1.2372    0.2188   -0.4657 C   0  0  0  0  0  0  0  0  0  0  0  0
    2.1040    0.8050   -1.2344 N   0  0  0  0  0  0  0  0  0  0  0  0
    3.4657    0.6734   -0.9341 C   0  0  0  0  0  0  0  0  0  0  0  0
    4.0963    1.5978   -0.0994 C   0  0  0  0  0  0  0  0  0  0  0  0
    5.4514    1.4614    0.2118 C   0  0  0  0  0  0  0  0  0  0  0  0
    6.1988    0.4079   -0.3280 C   0  0  0  0  0  0  0  0  0  0  0  0
    7.6477    0.2448    0.0256 C   0  0  0  0  0  0  0  0  0  0  0  0
    5.5652   -0.5159   -1.1679 C   0  0  0  0  0  0  0  0  0  0  0  0
    4.2097   -0.3760   -1.4760 C   0  0  0  0  0  0  0  0  0  0  0  0
    1.4806   -0.5512    0.6517 N   0  0  0  0  0  0  0  0  0  0  0  0
    0.5334   -1.0767    1.5218 C   0  0  0  0  0  0  0  0  0  0  0  0
    1.0333   -1.6970    2.6586 N   0  0  0  0  0  0  0  0  0  0  0  0
   -0.7852   -0.9295    1.2169 C   0  0  0  0  0  0  0  0  0  0  0  0
   -1.7465   -1.3054    2.2011 N   0  0  0  0  0  4  0  0  0  0  0  0
   -1.7666   -2.4964    2.5506 O   0  0  0  0  0  0  0  0  0  0  0  0
   -2.4618   -0.4105    2.6673 O   0  0  0  0  0  1  0  0  0  0  0  0
   -1.1571   -0.2397   -0.0597 C   0  0  0  0  0  0  0  0  0  0  0  0
   -2.2851   -0.1097   -0.6707 N   0  0  0  0  0  0  0  0  0  0  0  0
   -3.5565   -0.7029   -0.2862 C   0  0  0  0  0  0  0  0  0  0  0  0
   -4.5434    0.3659    0.2068 C   0  0  0  0  0  0  0  0  0  0  0  0
   -4.9440    1.3726   -0.8668 C   0  0  0  0  0  0  0  0  0  0  0  0
   -6.2028    0.7714   -1.4395 C   0  0  0  0  0  0  0  0  0  0  0  0
   -6.8354    0.1558   -0.2136 C   0  0  0  0  0  0  0  0  0  0  0  0
   -5.7593   -0.2960    0.6174 O   0  0  0  0  0  0  0  0  0  0  0  0
   -0.3328    0.8175   -1.5894 H   0  0  0  0  0  0  0  0  0  0  0  0
    3.5279    2.4291    0.3093 H   0  0  0  0  0  0  0  0  0  0  0  0
    5.9210    2.1894    0.8697 H   0  0  0  0  0  0  0  0  0  0  0  0
    8.1990   -0.2285   -0.7936 H   0  0  0  0  0  0  0  0  0  0  0  0
    7.7461   -0.3741    0.9227 H   0  0  0  0  0  0  0  0  0  0  0  0
    8.1160    1.2169    0.2127 H   0  0  0  0  0  0  0  0  0  0  0  0
    6.1248   -1.3442   -1.5967 H   0  0  0  0  0  0  0  0  0  0  0  0
    3.7298   -1.0868   -2.1433 H   0  0  0  0  0  0  0  0  0  0  0  0
    2.4354   -0.5785    0.9868 H   0  0  0  0  0  0  0  0  0  0  0  0
    0.3672   -2.3308    3.1122 H   0  0  0  0  0  0  0  0  0  0  0  0
    1.9131   -2.1791    2.4897 H   0  0  0  0  0  0  0  0  0  0  0  0
   -3.9770   -1.1981   -1.1709 H   0  0  0  0  0  0  0  0  0  0  0  0
   -3.4676   -1.5141    0.4392 H   0  0  0  0  0  0  0  0  0  0  0  0
   -4.1247    0.8878    1.0732 H   0  0  0  0  0  0  0  0  0  0  0  0
   -5.1877    2.3313   -0.3920 H   0  0  0  0  0  0  0  0  0  0  0  0
   -4.1734    1.5634   -1.6185 H   0  0  0  0  0  0  0  0  0  0  0  0
   -5.9472   -0.0097   -2.1646 H   0  0  0  0  0  0  0  0  0  0  0  0
   -6.8509    1.4997   -1.9338 H   0  0  0  0  0  0  0  0  0  0  0  0
   -7.4085    0.8979    0.3527 H   0  0  0  0  0  0  0  0  0  0  0  0
   -7.4931   -0.6837   -0.4548 H   0  0  0  0  0  0  0  0  0  0  0  0
  1  2  1  0
  2  3  2  3
  3  4  1  0
  4  5  2  0
  5  6  1  0
  6  7  2  0
  7  8  1  0
  7  9  1  0
  9 10  2  0
  2 11  1  0
 11 12  1  0
 12 13  1  0
 12 14  2  0
 14 15  1  0
 15 16  2  0
 15 17  1  0
 14 18  1  0
 18 19  2  3
 19 20  1  0
 20 21  1  0
 21 22  1  0
 22 23  1  0
 23 24  1  0
 24 25  1  0
 18  1  1  0
 25 21  1  0
 10  4  1  0
  1 26  1  0
  5 27  1  0
  6 28  1  0
  8 29  1  0
  8 30  1  0
  8 31  1  0
  9 32  1  0
 10 33  1  0
 11 34  1  0
 13 35  1  0
 13 36  1  0
 20 37  1  0
 20 38  1  0
 21 39  1  0
 22 40  1  0
 22 41  1  0
 23 42  1  0
 23 43  1  0
 24 44  1  0
 24 45  1  0
M  CHG  2  15   1  17  -1
M  END
>  <ScrubInfo>  (8) 
{"isomerGroup": 0, "isomerId": 7, "confId": 0, "nr_conformers:": 1, "nr_isomers:": 9}

$$$$
_i8
     RDKit          3D

 45 47  0  0  0  0  0  0  0  0999 V2000
   -0.4613    0.1753    0.9609 N   0  0  0  0  0  0  0  0  0  0  0  0
   -1.3337   -0.8848    1.2042 C   0  0  0  0  0  0  0  0  0  0  0  0
   -2.6708   -0.6036    1.4981 N   0  0  0  0  0  0  0  0  0  0  0  0
   -3.4009    0.6160    1.1615 C   0  0  0  0  0  0  0  0  0  0  0  0
   -3.6668    0.7478   -0.3425 C   0  0  0  0  0  0  0  0  0  0  0  0
   -4.5467   -0.3522   -0.9168 C   0  0  0  0  0  0  0  0  0  0  0  0
   -5.1333    0.3312   -2.1263 C   0  0  0  0  0  0  0  0  0  0  0  0
   -5.3549    1.7387   -1.6156 C   0  0  0  0  0  0  0  0  0  0  0  0
   -4.3538    1.9856   -0.6160 O   0  0  0  0  0  0  0  0  0  0  0  0
   -0.8135   -2.1413    1.1578 C   0  0  0  0  0  0  0  0  0  0  0  0
   -1.6344   -3.2783    1.4486 N   0  0  0  0  0  4  0  0  0  0  0  0
   -2.7026   -3.3846    0.8217 O   0  0  0  0  0  0  0  0  0  0  0  0
   -1.2652   -4.0423    2.3503 O   0  0  0  0  0  1  0  0  0  0  0  0
    0.6203   -2.3140    0.7951 C   0  0  0  0  0  0  0  0  0  0  0  0
    1.1559   -3.4829    0.6232 N   0  0  0  0  0  0  0  0  0  0  0  0
    1.3579   -1.1673    0.6177 N   0  0  0  0  0  0  0  0  0  0  0  0
    0.8865    0.1215    0.6987 C   0  0  0  0  0  0  0  0  0  0  0  0
    1.5541    1.2265    0.5561 N   0  0  0  0  0  0  0  0  0  0  0  0
    2.9270    1.1543    0.2895 C   0  0  0  0  0  0  0  0  0  0  0  0
    3.3882    1.1319   -1.0278 C   0  0  0  0  0  0  0  0  0  0  0  0
    4.7558    1.0398   -1.2971 C   0  0  0  0  0  0  0  0  0  0  0  0
    5.6817    0.9906   -0.2481 C   0  0  0  0  0  0  0  0  0  0  0  0
    7.1492    0.8652   -0.5348 C   0  0  0  0  0  0  0  0  0  0  0  0
    5.2170    1.0175    1.0722 C   0  0  0  0  0  0  0  0  0  0  0  0
    3.8485    1.1098    1.3372 C   0  0  0  0  0  0  0  0  0  0  0  0
   -0.8330    1.1057    1.0957 H   0  0  0  0  0  0  0  0  0  0  0  0
   -3.2774   -1.4309    1.4747 H   0  0  0  0  0  0  0  0  0  0  0  0
   -2.8716    1.5021    1.5311 H   0  0  0  0  0  0  0  0  0  0  0  0
   -4.3551    0.6128    1.7030 H   0  0  0  0  0  0  0  0  0  0  0  0
   -2.7178    0.7870   -0.8916 H   0  0  0  0  0  0  0  0  0  0  0  0
   -3.9890   -1.2601   -1.1628 H   0  0  0  0  0  0  0  0  0  0  0  0
   -5.3495   -0.6184   -0.2188 H   0  0  0  0  0  0  0  0  0  0  0  0
   -6.0487   -0.1376   -2.4965 H   0  0  0  0  0  0  0  0  0  0  0  0
   -4.3991    0.3399   -2.9407 H   0  0  0  0  0  0  0  0  0  0  0  0
   -6.3342    1.8362   -1.1353 H   0  0  0  0  0  0  0  0  0  0  0  0
   -5.2781    2.4895   -2.4070 H   0  0  0  0  0  0  0  0  0  0  0  0
    2.1449   -3.4070    0.3749 H   0  0  0  0  0  0  0  0  0  0  0  0
    2.3393   -1.2625    0.4020 H   0  0  0  0  0  0  0  0  0  0  0  0
    2.6776    1.1891   -1.8481 H   0  0  0  0  0  0  0  0  0  0  0  0
    5.0937    1.0182   -2.3309 H   0  0  0  0  0  0  0  0  0  0  0  0
    7.4064    1.3573   -1.4786 H   0  0  0  0  0  0  0  0  0  0  0  0
    7.7431    1.3420    0.2521 H   0  0  0  0  0  0  0  0  0  0  0  0
    7.4285   -0.1910   -0.5985 H   0  0  0  0  0  0  0  0  0  0  0  0
    5.9177    0.9780    1.9035 H   0  0  0  0  0  0  0  0  0  0  0  0
    3.4979    1.1494    2.3652 H   0  0  0  0  0  0  0  0  0  0  0  0
  1  2  1  0
  2  3  1  0
  3  4  1  0
  4  5  1  0
  5  6  1  0
  6  7  1  0
  7  8  1  0
  8  9  1  0
  2 10  2  0
 10 11  1  0
 11 12  2  0
 11 13  1  0
 10 14  1  0
 14 15  2  3
 14 16  1  0
 16 17  1  0
 17 18  2  3
 18 19  1  0
 19 20  2  0
 20 21  1  0
 21 22  2  0
 22 23  1  0
 22 24  1  0
 24 25  2  0
 17  1  1  0
 25 19  1  0
  9  5  1  0
  1 26  1  0
  3 27  1  0
  4 28  1  0
  4 29  1  0
  5 30  1  0
  6 31  1  0
  6 32  1  0
  7 33  1  0
  7 34  1  0
  8 35  1  0
  8 36  1  0
 15 37  1  0
 16 38  1  0
 20 39  1  0
 21 40  1  0
 23 41  1  0
 23 42  1  0
 23 43  1  0
 24 44  1  0
 25 45  1  0
M  CHG  2  11   1  13  -1
M  END
>  <ScrubInfo>  (9) 
{"isomerGroup": 0, "isomerId": 8, "confId": 0, "nr_conformers:": 1, "nr_isomers:": 9}

$$$$
