REMARK SMILES Cc1cc(O)ccc1Nc1nc(NCCOC(C)C)nc2c1cnn2C
REMARK SMILES IDX 13 1 12 3 10 4 11 5 22 6 21 7 23 8 20 9 25 10 24 11 26 12
REMARK SMILES IDX 9 13 8 15 2 16 3 17 4 18 7 19 6 20 1 21 5 22 14 24 15 25
REMARK SMILES IDX 16 26 17 27 18 28 19 29
REMARK H PARENT 13 2 9 14 5 23
ROOT
ATOM      1  N   UNL     1      -0.320  -2.696   1.954  1.00  0.00    -0.352 N 
ATOM      2  H   UNL     1       0.157  -3.119   1.161  1.00  0.00     0.163 HD
ENDROOT
BRANCH   1   3
ATOM      3  C   UNL     1      -0.035  -1.339   1.895  1.00  0.00     0.226 A 
ATOM      4  C   UNL     1       1.410   0.275   1.003  1.00  0.00     0.147 A 
ATOM      5  N   UNL     1       1.031  -1.020   1.138  1.00  0.00    -0.195 NA
ATOM      6  C   UNL     1       0.661   1.247   1.669  1.00  0.00     0.082 A 
ATOM      7  C   UNL     1      -0.415   0.802   2.411  1.00  0.00     0.165 A 
ATOM      8  C   UNL     1       0.651   2.647   1.842  1.00  0.00     0.149 A 
ATOM      9  N   UNL     1      -0.816  -0.470   2.553  1.00  0.00    -0.193 NA
ATOM     10  N   UNL     1      -0.976   1.918   2.968  1.00  0.00    -0.250 N 
ATOM     11  N   UNL     1      -0.347   3.067   2.628  1.00  0.00    -0.179 NA
ATOM     12  C   UNL     1      -2.120   1.968   3.843  1.00  0.00     0.176 C 
BRANCH   4  13
ATOM     13  N   UNL     1       2.544   0.525   0.207  1.00  0.00    -0.339 N 
ATOM     14  H   UNL     1       2.728  -0.346  -0.286  1.00  0.00     0.168 HD
BRANCH  13  15
ATOM     15  C   UNL     1       2.704   1.639  -0.644  1.00  0.00     0.043 A 
ATOM     16  C   UNL     1       1.866   1.889  -1.749  1.00  0.00    -0.024 A 
ATOM     17  C   UNL     1       2.104   3.025  -2.541  1.00  0.00     0.051 A 
ATOM     18  C   UNL     1       3.175   3.868  -2.265  1.00  0.00     0.115 A 
ATOM     19  C   UNL     1       3.795   2.490  -0.402  1.00  0.00     0.030 A 
ATOM     20  C   UNL     1       4.029   3.607  -1.204  1.00  0.00     0.048 A 
ATOM     21  C   UNL     1       0.704   0.999  -2.094  1.00  0.00     0.047 C 
BRANCH  18  22
ATOM     22  O   UNL     1       3.356   4.949  -3.075  1.00  0.00    -0.508 OA
ATOM     23  H   UNL     1       4.129   5.447  -2.760  1.00  0.00     0.293 HD
ENDBRANCH  18  22
ENDBRANCH  13  15
ENDBRANCH   4  13
ENDBRANCH   1   3
BRANCH   1  24
ATOM     24  C   UNL     1      -1.734  -3.053   2.015  1.00  0.00     0.144 C 
BRANCH  24  25
ATOM     25  C   UNL     1      -2.457  -2.760   0.694  1.00  0.00     0.181 C 
BRANCH  25  26
ATOM     26  O   UNL     1      -1.837  -3.517  -0.354  1.00  0.00    -0.377 OA
BRANCH  26  27
ATOM     27  C   UNL     1      -2.365  -3.224  -1.650  1.00  0.00     0.112 C 
ATOM     28  C   UNL     1      -2.099  -4.441  -2.528  1.00  0.00     0.038 C 
ATOM     29  C   UNL     1      -1.679  -1.993  -2.231  1.00  0.00     0.038 C 
ENDBRANCH  26  27
ENDBRANCH  25  26
ENDBRANCH  24  25
ENDBRANCH   1  24
TORSDOF 8
