_i0
     RDKit          3D

 50 52  0  0  0  0  0  0  0  0999 V2000
    0.7040    0.9994   -2.0936 C   0  0  0  0  0  0  0  0  0  0  0  0
    1.8657    1.8891   -1.7488 C   0  0  0  0  0  0  0  0  0  0  0  0
    2.1038    3.0247   -2.5411 C   0  0  0  0  0  0  0  0  0  0  0  0
    3.1748    3.8679   -2.2649 C   0  0  0  0  0  0  0  0  0  0  0  0
    3.3559    4.9495   -3.0745 O   0  0  0  0  0  0  0  0  0  0  0  0
    4.0295    3.6070   -1.2035 C   0  0  0  0  0  0  0  0  0  0  0  0
    3.7947    2.4899   -0.4015 C   0  0  0  0  0  0  0  0  0  0  0  0
    2.7040    1.6395   -0.6445 C   0  0  0  0  0  0  0  0  0  0  0  0
    2.5438    0.5255    0.2075 N   0  0  0  0  0  0  0  0  0  0  0  0
    1.4099    0.2752    1.0033 C   0  0  0  0  0  0  0  0  0  0  0  0
    1.0310   -1.0204    1.1384 N   0  0  0  0  0  0  0  0  0  0  0  0
   -0.0355   -1.3393    1.8950 C   0  0  0  0  0  0  0  0  0  0  0  0
   -0.3199   -2.6965    1.9545 N   0  0  0  0  0  0  0  0  0  0  0  0
   -1.7344   -3.0532    2.0152 C   0  0  0  0  0  0  0  0  0  0  0  0
   -2.4573   -2.7605    0.6935 C   0  0  0  0  0  0  0  0  0  0  0  0
   -1.8366   -3.5172   -0.3536 O   0  0  0  0  0  0  0  0  0  0  0  0
   -2.3652   -3.2245   -1.6496 C   0  0  0  0  0  0  0  0  0  0  0  0
   -2.0989   -4.4414   -2.5280 C   0  0  0  0  0  0  0  0  0  0  0  0
   -1.6790   -1.9926   -2.2308 C   0  0  0  0  0  0  0  0  0  0  0  0
   -0.8155   -0.4699    2.5534 N   0  0  0  0  0  0  0  0  0  0  0  0
   -0.4146    0.8019    2.4107 C   0  0  0  0  0  0  0  0  0  0  0  0
    0.6610    1.2473    1.6689 C   0  0  0  0  0  0  0  0  0  0  0  0
    0.6514    2.6465    1.8423 C   0  0  0  0  0  0  0  0  0  0  0  0
   -0.3475    3.0671    2.6285 N   0  0  0  0  0  0  0  0  0  0  0  0
   -0.9761    1.9180    2.9677 N   0  0  0  0  0  0  0  0  0  0  0  0
   -2.1196    1.9684    3.8430 C   0  0  0  0  0  0  0  0  0  0  0  0
    0.9873   -0.0554   -2.0241 H   0  0  0  0  0  0  0  0  0  0  0  0
    0.3675    1.1672   -3.1226 H   0  0  0  0  0  0  0  0  0  0  0  0
   -0.1390    1.1984   -1.4253 H   0  0  0  0  0  0  0  0  0  0  0  0
    1.4581    3.2546   -3.3854 H   0  0  0  0  0  0  0  0  0  0  0  0
    4.1287    5.4468   -2.7601 H   0  0  0  0  0  0  0  0  0  0  0  0
    4.8739    4.2518   -0.9835 H   0  0  0  0  0  0  0  0  0  0  0  0
    4.4608    2.2824    0.4335 H   0  0  0  0  0  0  0  0  0  0  0  0
    2.7282   -0.3464   -0.2857 H   0  0  0  0  0  0  0  0  0  0  0  0
    0.1571   -3.1191    1.1614 H   0  0  0  0  0  0  0  0  0  0  0  0
   -2.2404   -2.5600    2.8531 H   0  0  0  0  0  0  0  0  0  0  0  0
   -1.7826   -4.1315    2.2076 H   0  0  0  0  0  0  0  0  0  0  0  0
   -3.5054   -3.0685    0.7780 H   0  0  0  0  0  0  0  0  0  0  0  0
   -2.4254   -1.6912    0.4629 H   0  0  0  0  0  0  0  0  0  0  0  0
   -3.4486   -3.0649   -1.5896 H   0  0  0  0  0  0  0  0  0  0  0  0
   -2.4836   -4.2933   -3.5416 H   0  0  0  0  0  0  0  0  0  0  0  0
   -1.0264   -4.6581   -2.5865 H   0  0  0  0  0  0  0  0  0  0  0  0
   -2.5759   -5.3303   -2.1009 H   0  0  0  0  0  0  0  0  0  0  0  0
   -1.8905   -1.1014   -1.6323 H   0  0  0  0  0  0  0  0  0  0  0  0
   -0.5907   -2.1183   -2.2331 H   0  0  0  0  0  0  0  0  0  0  0  0
   -2.0127   -1.7993   -3.2551 H   0  0  0  0  0  0  0  0  0  0  0  0
    1.3311    3.3786    1.4255 H   0  0  0  0  0  0  0  0  0  0  0  0
   -1.8054    2.4057    4.7941 H   0  0  0  0  0  0  0  0  0  0  0  0
   -2.8862    2.5888    3.3719 H   0  0  0  0  0  0  0  0  0  0  0  0
   -2.5094    0.9617    4.0093 H   0  0  0  0  0  0  0  0  0  0  0  0
  1  2  1  0
  2  3  2  0
  3  4  1  0
  4  5  1  0
  4  6  2  0
  6  7  1  0
  7  8  2  0
  8  9  1  0
  9 10  1  0
 10 11  2  0
 11 12  1  0
 12 13  1  0
 13 14  1  0
 14 15  1  0
 15 16  1  0
 16 17  1  0
 17 18  1  0
 17 19  1  0
 12 20  2  0
 20 21  1  0
 21 22  2  0
 22 23  1  0
 23 24  2  0
 24 25  1  0
 25 26  1  0
  8  2  1  0
 22 10  1  0
 25 21  1  0
  1 27  1  0
  1 28  1  0
  1 29  1  0
  3 30  1  0
  5 31  1  0
  6 32  1  0
  7 33  1  0
  9 34  1  0
 13 35  1  0
 14 36  1  0
 14 37  1  0
 15 38  1  0
 15 39  1  0
 17 40  1  0
 18 41  1  0
 18 42  1  0
 18 43  1  0
 19 44  1  0
 19 45  1  0
 19 46  1  0
 23 47  1  0
 26 48  1  0
 26 49  1  0
 26 50  1  0
M  END
>  <ScrubInfo>  (1) 
{"isomerGroup": 0, "isomerId": 0, "confId": 0, "nr_conformers:": 1, "nr_isomers:": 9}

$$$$
_i1
     RDKit          3D

 50 52  0  0  0  0  0  0  0  0999 V2000
    0.0410    0.2101   -0.3326 N   0  0  0  0  0  0  0  0  0  0  0  0
    0.7719   -0.9131   -0.0292 C   0  0  0  0  0  0  0  0  0  0  0  0
    2.1208   -0.6893   -0.0554 N   0  0  0  0  0  0  0  0  0  0  0  0
    3.0519   -1.7080    0.4246 C   0  0  0  0  0  0  0  0  0  0  0  0
    4.4890   -1.2176    0.2253 C   0  0  0  0  0  0  0  0  0  0  0  0
    4.6593    0.0090    0.9495 O   0  0  0  0  0  0  0  0  0  0  0  0
    5.9933    0.5240    0.8894 C   0  0  0  0  0  0  0  0  0  0  0  0
    6.1448    1.5011    2.0499 C   0  0  0  0  0  0  0  0  0  0  0  0
    6.2381    1.2372   -0.4364 C   0  0  0  0  0  0  0  0  0  0  0  0
    0.2372   -2.0770    0.2358 N   0  0  0  0  0  0  0  0  0  0  0  0
   -1.1244   -2.0280    0.1963 C   0  0  0  0  0  0  0  0  0  0  0  0
   -1.9423   -0.9478   -0.0994 C   0  0  0  0  0  0  0  0  0  0  0  0
   -3.2473   -1.4572    0.0207 C   0  0  0  0  0  0  0  0  0  0  0  0
   -3.2696   -2.7539    0.3560 N   0  0  0  0  0  0  0  0  0  0  0  0
   -1.9602   -3.0771    0.4560 N   0  0  0  0  0  0  0  0  0  0  0  0
   -1.5913   -4.4233    0.8140 C   0  0  0  0  0  0  0  0  0  0  0  0
   -1.3267    0.3231   -0.4271 C   0  0  0  0  0  0  0  0  0  0  0  0
   -1.8931    1.4385   -0.7752 N   0  0  0  0  0  0  0  0  0  0  0  0
   -3.2814    1.5619   -0.8883 C   0  0  0  0  0  0  0  0  0  0  0  0
   -3.8913    1.2806   -2.1186 C   0  0  0  0  0  0  0  0  0  0  0  0
   -5.2712    1.4130   -2.2795 C   0  0  0  0  0  0  0  0  0  0  0  0
   -6.0397    1.8441   -1.2056 C   0  0  0  0  0  0  0  0  0  0  0  0
   -7.3916    1.9839   -1.3111 O   0  0  0  0  0  0  0  0  0  0  0  0
   -5.4506    2.1532    0.0163 C   0  0  0  0  0  0  0  0  0  0  0  0
   -4.0628    2.0300    0.1837 C   0  0  0  0  0  0  0  0  0  0  0  0
   -3.4369    2.3697    1.5062 C   0  0  0  0  0  0  0  0  0  0  0  0
    0.5428    1.0266   -0.6397 H   0  0  0  0  0  0  0  0  0  0  0  0
    2.4091    0.2273    0.2790 H   0  0  0  0  0  0  0  0  0  0  0  0
    2.9064   -2.6477   -0.1189 H   0  0  0  0  0  0  0  0  0  0  0  0
    2.8692   -1.8819    1.4912 H   0  0  0  0  0  0  0  0  0  0  0  0
    5.1891   -1.9700    0.6044 H   0  0  0  0  0  0  0  0  0  0  0  0
    4.6791   -1.0494   -0.8396 H   0  0  0  0  0  0  0  0  0  0  0  0
    6.7156   -0.2904    1.0222 H   0  0  0  0  0  0  0  0  0  0  0  0
    7.1507    1.9308    2.0810 H   0  0  0  0  0  0  0  0  0  0  0  0
    5.9534    0.9939    3.0019 H   0  0  0  0  0  0  0  0  0  0  0  0
    5.4160    2.3160    1.9761 H   0  0  0  0  0  0  0  0  0  0  0  0
    6.2056    0.5348   -1.2748 H   0  0  0  0  0  0  0  0  0  0  0  0
    5.4646    1.9899   -0.6244 H   0  0  0  0  0  0  0  0  0  0  0  0
    7.2169    1.7270   -0.4477 H   0  0  0  0  0  0  0  0  0  0  0  0
   -4.1952   -0.9557   -0.1162 H   0  0  0  0  0  0  0  0  0  0  0  0
   -2.0435   -5.1081    0.0920 H   0  0  0  0  0  0  0  0  0  0  0  0
   -0.5050   -4.5345    0.7954 H   0  0  0  0  0  0  0  0  0  0  0  0
   -1.9680   -4.6258    1.8198 H   0  0  0  0  0  0  0  0  0  0  0  0
   -3.2802    0.9515   -2.9552 H   0  0  0  0  0  0  0  0  0  0  0  0
   -5.7192    1.1795   -3.2396 H   0  0  0  0  0  0  0  0  0  0  0  0
   -7.6619    1.7238   -2.2069 H   0  0  0  0  0  0  0  0  0  0  0  0
   -6.0785    2.4952    0.8352 H   0  0  0  0  0  0  0  0  0  0  0  0
   -2.5934    3.0540    1.3683 H   0  0  0  0  0  0  0  0  0  0  0  0
   -3.0890    1.4596    2.0047 H   0  0  0  0  0  0  0  0  0  0  0  0
   -4.1518    2.8666    2.1707 H   0  0  0  0  0  0  0  0  0  0  0  0
  1  2  1  0
  2  3  1  0
  3  4  1  0
  4  5  1  0
  5  6  1  0
  6  7  1  0
  7  8  1  0
  7  9  1  0
  2 10  2  0
 10 11  1  0
 11 12  2  0
 12 13  1  0
 13 14  2  0
 14 15  1  0
 15 16  1  0
 12 17  1  0
 17 18  2  3
 18 19  1  0
 19 20  2  0
 20 21  1  0
 21 22  2  0
 22 23  1  0
 22 24  1  0
 24 25  2  0
 25 26  1  0
 17  1  1  0
 25 19  1  0
 15 11  1  0
  1 27  1  0
  3 28  1  0
  4 29  1  0
  4 30  1  0
  5 31  1  0
  5 32  1  0
  7 33  1  0
  8 34  1  0
  8 35  1  0
  8 36  1  0
  9 37  1  0
  9 38  1  0
  9 39  1  0
 13 40  1  0
 16 41  1  0
 16 42  1  0
 16 43  1  0
 20 44  1  0
 21 45  1  0
 23 46  1  0
 24 47  1  0
 26 48  1  0
 26 49  1  0
 26 50  1  0
M  END
>  <ScrubInfo>  (2) 
{"isomerGroup": 0, "isomerId": 1, "confId": 0, "nr_conformers:": 1, "nr_isomers:": 9}

$$$$
_i2
     RDKit          3D

 50 52  0  0  0  0  0  0  0  0999 V2000
    0.4340   -1.6842   -0.2271 N   0  0  0  0  0  0  0  0  0  0  0  0
   -0.7933   -1.0454   -0.2458 C   0  0  0  0  0  0  0  0  0  0  0  0
   -0.9816    0.0838   -1.0223 N   0  0  0  0  0  0  0  0  0  0  0  0
   -1.5379    1.3200   -0.6057 C   0  0  0  0  0  0  0  0  0  0  0  0
   -1.6694    1.6632    0.7498 C   0  0  0  0  0  0  0  0  0  0  0  0
   -2.2149    2.8898    1.1319 C   0  0  0  0  0  0  0  0  0  0  0  0
   -2.6332    3.7867    0.1620 C   0  0  0  0  0  0  0  0  0  0  0  0
   -3.1584    4.9731    0.5787 O   0  0  0  0  0  0  0  0  0  0  0  0
   -2.5141    3.4788   -1.1885 C   0  0  0  0  0  0  0  0  0  0  0  0
   -1.9687    2.2448   -1.5844 C   0  0  0  0  0  0  0  0  0  0  0  0
   -1.8616    1.9311   -3.0532 C   0  0  0  0  0  0  0  0  0  0  0  0
   -1.7562   -1.6274    0.4786 C   0  0  0  0  0  0  0  0  0  0  0  0
   -3.1767   -1.4157    0.7788 C   0  0  0  0  0  0  0  0  0  0  0  0
   -3.6585   -2.2955    1.6217 N   0  0  0  0  0  0  0  0  0  0  0  0
   -2.5967   -3.1756    1.8871 N   0  0  0  0  0  0  0  0  0  0  0  0
   -2.7040   -4.0950    2.9927 C   0  0  0  0  0  0  0  0  0  0  0  0
   -1.4066   -2.8218    1.2726 C   0  0  0  0  0  0  0  0  0  0  0  0
   -0.2368   -3.3565    1.3476 N   0  0  0  0  0  0  0  0  0  0  0  0
    0.7378   -2.7629    0.5750 C   0  0  0  0  0  0  0  0  0  0  0  0
    1.8899   -3.3205    0.6968 N   0  0  0  0  0  0  0  0  0  0  0  0
    3.0114   -2.8818   -0.1373 C   0  0  0  0  0  0  0  0  0  0  0  0
    3.6281   -1.5752    0.3640 C   0  0  0  0  0  0  0  0  0  0  0  0
    2.8485   -0.4664   -0.1189 O   0  0  0  0  0  0  0  0  0  0  0  0
    3.3720    0.7988    0.3091 C   0  0  0  0  0  0  0  0  0  0  0  0
    2.2165    1.7916    0.2914 C   0  0  0  0  0  0  0  0  0  0  0  0
    4.4788    1.2574   -0.6343 C   0  0  0  0  0  0  0  0  0  0  0  0
    1.2308   -1.1231   -0.5163 H   0  0  0  0  0  0  0  0  0  0  0  0
   -0.2014    0.2468   -1.6542 H   0  0  0  0  0  0  0  0  0  0  0  0
   -1.3240    0.9947    1.5340 H   0  0  0  0  0  0  0  0  0  0  0  0
   -2.3062    3.1437    2.1843 H   0  0  0  0  0  0  0  0  0  0  0  0
   -3.4285    5.4869   -0.1999 H   0  0  0  0  0  0  0  0  0  0  0  0
   -2.8448    4.1881   -1.9419 H   0  0  0  0  0  0  0  0  0  0  0  0
   -2.3202    2.7139   -3.6667 H   0  0  0  0  0  0  0  0  0  0  0  0
   -2.3781    0.9932   -3.2820 H   0  0  0  0  0  0  0  0  0  0  0  0
   -0.8102    1.8511   -3.3469 H   0  0  0  0  0  0  0  0  0  0  0  0
   -3.7362   -0.5832    0.3340 H   0  0  0  0  0  0  0  0  0  0  0  0
   -2.0690   -4.9726    2.8343 H   0  0  0  0  0  0  0  0  0  0  0  0
   -3.7347   -4.4460    3.1072 H   0  0  0  0  0  0  0  0  0  0  0  0
   -2.3990   -3.6077    3.9240 H   0  0  0  0  0  0  0  0  0  0  0  0
    2.7093   -2.8028   -1.1886 H   0  0  0  0  0  0  0  0  0  0  0  0
    3.7716   -3.6692   -0.0839 H   0  0  0  0  0  0  0  0  0  0  0  0
    4.6456   -1.4914   -0.0300 H   0  0  0  0  0  0  0  0  0  0  0  0
    3.6610   -1.5562    1.4592 H   0  0  0  0  0  0  0  0  0  0  0  0
    3.7525    0.7255    1.3350 H   0  0  0  0  0  0  0  0  0  0  0  0
    1.4249    1.4586    0.9704 H   0  0  0  0  0  0  0  0  0  0  0  0
    2.5415    2.7892    0.6017 H   0  0  0  0  0  0  0  0  0  0  0  0
    1.7707    1.8608   -0.7070 H   0  0  0  0  0  0  0  0  0  0  0  0
    4.1295    1.2639   -1.6727 H   0  0  0  0  0  0  0  0  0  0  0  0
    5.3369    0.5796   -0.5954 H   0  0  0  0  0  0  0  0  0  0  0  0
    4.8295    2.2612   -0.3748 H   0  0  0  0  0  0  0  0  0  0  0  0
  1  2  1  0
  2  3  1  0
  3  4  1  0
  4  5  2  0
  5  6  1  0
  6  7  2  0
  7  8  1  0
  7  9  1  0
  9 10  2  0
 10 11  1  0
  2 12  2  0
 12 13  1  0
 13 14  2  0
 14 15  1  0
 15 16  1  0
 15 17  1  0
 17 18  2  0
 18 19  1  0
 19 20  2  3
 20 21  1  0
 21 22  1  0
 22 23  1  0
 23 24  1  0
 24 25  1  0
 24 26  1  0
 19  1  1  0
 10  4  1  0
 17 12  1  0
  1 27  1  0
  3 28  1  0
  5 29  1  0
  6 30  1  0
  8 31  1  0
  9 32  1  0
 11 33  1  0
 11 34  1  0
 11 35  1  0
 13 36  1  0
 16 37  1  0
 16 38  1  0
 16 39  1  0
 21 40  1  0
 21 41  1  0
 22 42  1  0
 22 43  1  0
 24 44  1  0
 25 45  1  0
 25 46  1  0
 25 47  1  0
 26 48  1  0
 26 49  1  0
 26 50  1  0
M  END
>  <ScrubInfo>  (3) 
{"isomerGroup": 0, "isomerId": 2, "confId": 0, "nr_conformers:": 1, "nr_isomers:": 9}

$$$$
_i3
     RDKit          3D

 50 52  0  0  0  0  0  0  0  0999 V2000
   -0.6188   -1.7614    0.3183 N   0  0  0  0  0  0  0  0  0  0  0  0
   -0.9550   -0.5829   -0.3277 C   0  0  0  0  0  0  0  0  0  0  0  0
   -1.9598   -0.4012   -1.1083 N   0  0  0  0  0  0  0  0  0  0  0  0
   -2.8820   -1.5047   -1.3678 C   0  0  0  0  0  0  0  0  0  0  0  0
   -4.1094   -0.9898   -2.1298 C   0  0  0  0  0  0  0  0  0  0  0  0
   -5.1097   -0.4622   -1.2525 O   0  0  0  0  0  0  0  0  0  0  0  0
   -4.8366    0.8663   -0.7948 C   0  0  0  0  0  0  0  0  0  0  0  0
   -6.0114    1.7442   -1.2095 C   0  0  0  0  0  0  0  0  0  0  0  0
   -4.6992    0.8336    0.7219 C   0  0  0  0  0  0  0  0  0  0  0  0
   -0.1868    0.5623   -0.1777 N   0  0  0  0  0  0  0  0  0  0  0  0
    0.8796    0.5350    0.5719 C   0  0  0  0  0  0  0  0  0  0  0  0
    1.6660    1.6440    0.7637 N   0  0  0  0  0  0  0  0  0  0  0  0
    3.0736    1.6553    0.5808 C   0  0  0  0  0  0  0  0  0  0  0  0
    3.8300    2.3471    1.5443 C   0  0  0  0  0  0  0  0  0  0  0  0
    5.2167    2.4551    1.4356 C   0  0  0  0  0  0  0  0  0  0  0  0
    5.8525    1.8913    0.3402 C   0  0  0  0  0  0  0  0  0  0  0  0
    7.2049    1.9623    0.1876 O   0  0  0  0  0  0  0  0  0  0  0  0
    5.1221    1.2438   -0.6501 C   0  0  0  0  0  0  0  0  0  0  0  0
    3.7225    1.1407   -0.5598 C   0  0  0  0  0  0  0  0  0  0  0  0
    2.9864    0.4712   -1.6881 C   0  0  0  0  0  0  0  0  0  0  0  0
    1.2506   -0.6673    1.2819 C   0  0  0  0  0  0  0  0  0  0  0  0
    2.2428   -1.0858    2.1812 C   0  0  0  0  0  0  0  0  0  0  0  0
    2.0942   -2.3699    2.5450 N   0  0  0  0  0  0  0  0  0  0  0  0
    0.9911   -2.7727    1.8691 N   0  0  0  0  0  0  0  0  0  0  0  0
    0.5282   -4.1273    2.0310 C   0  0  0  0  0  0  0  0  0  0  0  0
    0.4658   -1.7745    1.1120 C   0  0  0  0  0  0  0  0  0  0  0  0
   -1.2225   -2.5574    0.1815 H   0  0  0  0  0  0  0  0  0  0  0  0
   -3.2125   -1.9714   -0.4328 H   0  0  0  0  0  0  0  0  0  0  0  0
   -2.3726   -2.2518   -1.9870 H   0  0  0  0  0  0  0  0  0  0  0  0
   -4.5792   -1.8429   -2.6315 H   0  0  0  0  0  0  0  0  0  0  0  0
   -3.8496   -0.2601   -2.9058 H   0  0  0  0  0  0  0  0  0  0  0  0
   -3.9239    1.2759   -1.2413 H   0  0  0  0  0  0  0  0  0  0  0  0
   -6.1177    1.7462   -2.2998 H   0  0  0  0  0  0  0  0  0  0  0  0
   -6.9538    1.3609   -0.8025 H   0  0  0  0  0  0  0  0  0  0  0  0
   -5.8761    2.7759   -0.8710 H   0  0  0  0  0  0  0  0  0  0  0  0
   -4.5159    1.8342    1.1251 H   0  0  0  0  0  0  0  0  0  0  0  0
   -5.6029    0.4272    1.1896 H   0  0  0  0  0  0  0  0  0  0  0  0
   -3.8728    0.1821    1.0229 H   0  0  0  0  0  0  0  0  0  0  0  0
    1.2741    2.4084    0.2161 H   0  0  0  0  0  0  0  0  0  0  0  0
    3.3304    2.7900    2.4040 H   0  0  0  0  0  0  0  0  0  0  0  0
    5.7729    2.9774    2.2071 H   0  0  0  0  0  0  0  0  0  0  0  0
    7.5819    2.4228    0.9552 H   0  0  0  0  0  0  0  0  0  0  0  0
    5.6520    0.8296   -1.5053 H   0  0  0  0  0  0  0  0  0  0  0  0
    3.6147    0.3967   -2.5826 H   0  0  0  0  0  0  0  0  0  0  0  0
    2.6900   -0.5424   -1.4035 H   0  0  0  0  0  0  0  0  0  0  0  0
    2.1041    1.0512   -1.9757 H   0  0  0  0  0  0  0  0  0  0  0  0
    3.0690   -0.5220    2.5939 H   0  0  0  0  0  0  0  0  0  0  0  0
   -0.3304   -4.3083    1.3812 H   0  0  0  0  0  0  0  0  0  0  0  0
    1.3426   -4.8051    1.7629 H   0  0  0  0  0  0  0  0  0  0  0  0
    0.2402   -4.2694    3.0757 H   0  0  0  0  0  0  0  0  0  0  0  0
  1  2  1  0
  2  3  2  3
  3  4  1  0
  4  5  1  0
  5  6  1  0
  6  7  1  0
  7  8  1  0
  7  9  1  0
  2 10  1  0
 10 11  2  0
 11 12  1  0
 12 13  1  0
 13 14  2  0
 14 15  1  0
 15 16  2  0
 16 17  1  0
 16 18  1  0
 18 19  2  0
 19 20  1  0
 11 21  1  0
 21 22  1  0
 22 23  2  0
 23 24  1  0
 24 25  1  0
 24 26  1  0
 26  1  1  0
 19 13  1  0
 26 21  2  0
  1 27  1  0
  4 28  1  0
  4 29  1  0
  5 30  1  0
  5 31  1  0
  7 32  1  0
  8 33  1  0
  8 34  1  0
  8 35  1  0
  9 36  1  0
  9 37  1  0
  9 38  1  0
 12 39  1  0
 14 40  1  0
 15 41  1  0
 17 42  1  0
 18 43  1  0
 20 44  1  0
 20 45  1  0
 20 46  1  0
 22 47  1  0
 25 48  1  0
 25 49  1  0
 25 50  1  0
M  END
>  <ScrubInfo>  (4) 
{"isomerGroup": 0, "isomerId": 3, "confId": 0, "nr_conformers:": 1, "nr_isomers:": 9}

$$$$
_i4
     RDKit          3D

 50 52  0  0  0  0  0  0  0  0999 V2000
   -0.4812    0.3008    0.6481 N   0  0  0  0  0  0  0  0  0  0  0  0
   -0.5919   -0.0545   -0.6728 C   0  0  0  0  0  0  0  0  0  0  0  0
   -1.8274    0.0677   -1.2355 N   0  0  0  0  0  0  0  0  0  0  0  0
   -3.0855   -0.1832   -0.5569 C   0  0  0  0  0  0  0  0  0  0  0  0
   -3.8094    1.1322   -0.2508 C   0  0  0  0  0  0  0  0  0  0  0  0
   -4.8882    0.9237    0.6624 O   0  0  0  0  0  0  0  0  0  0  0  0
   -6.1140    0.5198    0.0439 C   0  0  0  0  0  0  0  0  0  0  0  0
   -6.9208   -0.2328    1.0952 C   0  0  0  0  0  0  0  0  0  0  0  0
   -6.8828    1.7457   -0.4382 C   0  0  0  0  0  0  0  0  0  0  0  0
    0.3873   -0.4808   -1.4207 N   0  0  0  0  0  0  0  0  0  0  0  0
    1.6638   -0.6184   -0.8874 C   0  0  0  0  0  0  0  0  0  0  0  0
    2.5665   -1.0759   -1.6957 N   0  0  0  0  0  0  0  0  0  0  0  0
    3.8932   -1.2734   -1.3069 C   0  0  0  0  0  0  0  0  0  0  0  0
    4.2689   -2.5108   -0.7685 C   0  0  0  0  0  0  0  0  0  0  0  0
    5.5892   -2.7489   -0.3888 C   0  0  0  0  0  0  0  0  0  0  0  0
    6.5403   -1.7534   -0.5640 C   0  0  0  0  0  0  0  0  0  0  0  0
    7.8193   -2.0231   -0.1762 O   0  0  0  0  0  0  0  0  0  0  0  0
    6.1962   -0.5253   -1.1233 C   0  0  0  0  0  0  0  0  0  0  0  0
    4.8697   -0.2803   -1.5147 C   0  0  0  0  0  0  0  0  0  0  0  0
    4.5011    1.0406   -2.1300 C   0  0  0  0  0  0  0  0  0  0  0  0
    1.8321   -0.2295    0.5033 C   0  0  0  0  0  0  0  0  0  0  0  0
    2.8736   -0.1495    1.4458 C   0  0  0  0  0  0  0  0  0  0  0  0
    2.4646    0.3158    2.6376 N   0  0  0  0  0  0  0  0  0  0  0  0
    1.1415    0.5299    2.4615 N   0  0  0  0  0  0  0  0  0  0  0  0
    0.3612    1.0348    3.5623 C   0  0  0  0  0  0  0  0  0  0  0  0
    0.7392    0.2159    1.2032 C   0  0  0  0  0  0  0  0  0  0  0  0
   -1.2720    0.7386    1.0977 H   0  0  0  0  0  0  0  0  0  0  0  0
   -1.8043   -0.2828   -2.1911 H   0  0  0  0  0  0  0  0  0  0  0  0
   -2.9387   -0.7634    0.3623 H   0  0  0  0  0  0  0  0  0  0  0  0
   -3.7178   -0.8079   -1.1979 H   0  0  0  0  0  0  0  0  0  0  0  0
   -3.1190    1.8263    0.2409 H   0  0  0  0  0  0  0  0  0  0  0  0
   -4.1466    1.6233   -1.1704 H   0  0  0  0  0  0  0  0  0  0  0  0
   -5.9174   -0.1559   -0.7962 H   0  0  0  0  0  0  0  0  0  0  0  0
   -7.1143    0.3979    1.9701 H   0  0  0  0  0  0  0  0  0  0  0  0
   -6.3600   -1.1031    1.4532 H   0  0  0  0  0  0  0  0  0  0  0  0
   -7.8778   -0.5776    0.6919 H   0  0  0  0  0  0  0  0  0  0  0  0
   -6.3253    2.2825   -1.2119 H   0  0  0  0  0  0  0  0  0  0  0  0
   -7.0423    2.4546    0.3819 H   0  0  0  0  0  0  0  0  0  0  0  0
   -7.8557    1.4644   -0.8533 H   0  0  0  0  0  0  0  0  0  0  0  0
    3.5232   -3.2919   -0.6461 H   0  0  0  0  0  0  0  0  0  0  0  0
    5.8727   -3.7073    0.0357 H   0  0  0  0  0  0  0  0  0  0  0  0
    8.3729   -1.2498   -0.3727 H   0  0  0  0  0  0  0  0  0  0  0  0
    6.9492    0.2439   -1.2667 H   0  0  0  0  0  0  0  0  0  0  0  0
    5.3908    1.6372   -2.3579 H   0  0  0  0  0  0  0  0  0  0  0  0
    3.9624    0.8895   -3.0710 H   0  0  0  0  0  0  0  0  0  0  0  0
    3.8763    1.6176   -1.4412 H   0  0  0  0  0  0  0  0  0  0  0  0
    3.9198   -0.3997    1.3351 H   0  0  0  0  0  0  0  0  0  0  0  0
    0.5593    0.4167    4.4419 H   0  0  0  0  0  0  0  0  0  0  0  0
    0.6602    2.0695    3.7470 H   0  0  0  0  0  0  0  0  0  0  0  0
   -0.7019    0.9905    3.3168 H   0  0  0  0  0  0  0  0  0  0  0  0
  1  2  1  0
  2  3  1  0
  3  4  1  0
  4  5  1  0
  5  6  1  0
  6  7  1  0
  7  8  1  0
  7  9  1  0
  2 10  2  0
 10 11  1  0
 11 12  2  3
 12 13  1  0
 13 14  2  0
 14 15  1  0
 15 16  2  0
 16 17  1  0
 16 18  1  0
 18 19  2  0
 19 20  1  0
 11 21  1  0
 21 22  1  0
 22 23  2  0
 23 24  1  0
 24 25  1  0
 24 26  1  0
 26  1  1  0
 19 13  1  0
 26 21  2  0
  1 27  1  0
  3 28  1  0
  4 29  1  0
  4 30  1  0
  5 31  1  0
  5 32  1  0
  7 33  1  0
  8 34  1  0
  8 35  1  0
  8 36  1  0
  9 37  1  0
  9 38  1  0
  9 39  1  0
 14 40  1  0
 15 41  1  0
 17 42  1  0
 18 43  1  0
 20 44  1  0
 20 45  1  0
 20 46  1  0
 22 47  1  0
 25 48  1  0
 25 49  1  0
 25 50  1  0
M  END
>  <ScrubInfo>  (5) 
{"isomerGroup": 0, "isomerId": 4, "confId": 0, "nr_conformers:": 1, "nr_isomers:": 9}

$$$$
_i5
     RDKit          3D

 50 52  0  0  0  0  0  0  0  0999 V2000
    2.7016    2.7695   -1.6463 N   0  0  0  0  0  0  0  0  0  0  0  0
    2.9290    1.5087   -1.1045 C   0  0  0  0  0  0  0  0  0  0  0  0
    1.8594    0.9938   -0.4786 C   0  0  0  0  0  0  0  0  0  0  0  0
    1.4682   -0.2245    0.2192 C   0  0  0  0  0  0  0  0  0  0  0  0
    2.1546   -1.2738    0.5304 N   0  0  0  0  0  0  0  0  0  0  0  0
    3.5119   -1.3620    0.2058 C   0  0  0  0  0  0  0  0  0  0  0  0
    4.4612   -0.9028    1.1292 C   0  0  0  0  0  0  0  0  0  0  0  0
    5.8261   -0.9779    0.8494 C   0  0  0  0  0  0  0  0  0  0  0  0
    6.2400   -1.5263   -0.3580 C   0  0  0  0  0  0  0  0  0  0  0  0
    7.5617   -1.6156   -0.6802 O   0  0  0  0  0  0  0  0  0  0  0  0
    5.3152   -2.0101   -1.2781 C   0  0  0  0  0  0  0  0  0  0  0  0
    3.9415   -1.9503   -0.9977 C   0  0  0  0  0  0  0  0  0  0  0  0
    2.9504   -2.4911   -1.9888 C   0  0  0  0  0  0  0  0  0  0  0  0
    0.1518   -0.2482    0.5966 N   0  0  0  0  0  0  0  0  0  0  0  0
   -0.6656    0.7439    0.4036 C   0  0  0  0  0  0  0  0  0  0  0  0
   -1.9448    0.5653    0.8395 N   0  0  0  0  0  0  0  0  0  0  0  0
   -3.0734    1.2728    0.2629 C   0  0  0  0  0  0  0  0  0  0  0  0
   -4.3573    0.8913    1.0059 C   0  0  0  0  0  0  0  0  0  0  0  0
   -4.6097   -0.5054    0.8107 O   0  0  0  0  0  0  0  0  0  0  0  0
   -5.6968   -1.0072    1.5932 C   0  0  0  0  0  0  0  0  0  0  0  0
   -7.0377   -0.5905    0.9977 C   0  0  0  0  0  0  0  0  0  0  0  0
   -5.5720   -2.5267    1.6024 C   0  0  0  0  0  0  0  0  0  0  0  0
   -0.3432    1.9338   -0.1934 N   0  0  0  0  0  0  0  0  0  0  0  0
    0.8663    2.0764   -0.6089 C   0  0  0  0  0  0  0  0  0  0  0  0
    1.4438    3.1835   -1.2336 N   0  0  0  0  0  0  0  0  0  0  0  0
    0.6621    4.0387   -2.1055 C   0  0  0  0  0  0  0  0  0  0  0  0
    3.4698    3.4240   -1.4819 H   0  0  0  0  0  0  0  0  0  0  0  0
    3.9074    1.0685   -1.2294 H   0  0  0  0  0  0  0  0  0  0  0  0
    4.1241   -0.4875    2.0758 H   0  0  0  0  0  0  0  0  0  0  0  0
    6.5392   -0.6113    1.5802 H   0  0  0  0  0  0  0  0  0  0  0  0
    8.0873   -1.3221    0.0820 H   0  0  0  0  0  0  0  0  0  0  0  0
    5.6709   -2.4460   -2.2083 H   0  0  0  0  0  0  0  0  0  0  0  0
    2.2418   -3.1651   -1.4965 H   0  0  0  0  0  0  0  0  0  0  0  0
    2.4027   -1.6705   -2.4624 H   0  0  0  0  0  0  0  0  0  0  0  0
    3.4480   -3.0650   -2.7777 H   0  0  0  0  0  0  0  0  0  0  0  0
   -2.1381   -0.4137    1.0350 H   0  0  0  0  0  0  0  0  0  0  0  0
   -3.1642    1.0011   -0.7949 H   0  0  0  0  0  0  0  0  0  0  0  0
   -2.9241    2.3552    0.3381 H   0  0  0  0  0  0  0  0  0  0  0  0
   -5.1912    1.4749    0.6043 H   0  0  0  0  0  0  0  0  0  0  0  0
   -4.2496    1.1023    2.0762 H   0  0  0  0  0  0  0  0  0  0  0  0
   -5.6112   -0.6452    2.6248 H   0  0  0  0  0  0  0  0  0  0  0  0
   -7.8704   -1.0648    1.5266 H   0  0  0  0  0  0  0  0  0  0  0  0
   -7.1766    0.4932    1.0592 H   0  0  0  0  0  0  0  0  0  0  0  0
   -7.0950   -0.8579   -0.0630 H   0  0  0  0  0  0  0  0  0  0  0  0
   -5.6178   -2.9314    0.5852 H   0  0  0  0  0  0  0  0  0  0  0  0
   -4.6031   -2.8265    2.0165 H   0  0  0  0  0  0  0  0  0  0  0  0
   -6.3636   -2.9885    2.2004 H   0  0  0  0  0  0  0  0  0  0  0  0
    1.2582    4.8976   -2.4307 H   0  0  0  0  0  0  0  0  0  0  0  0
   -0.2182    4.4232   -1.5804 H   0  0  0  0  0  0  0  0  0  0  0  0
    0.3293    3.4902   -2.9929 H   0  0  0  0  0  0  0  0  0  0  0  0
  1  2  1  0
  2  3  2  0
  3  4  1  0
  4  5  2  3
  5  6  1  0
  6  7  2  0
  7  8  1  0
  8  9  2  0
  9 10  1  0
  9 11  1  0
 11 12  2  0
 12 13  1  0
  4 14  1  0
 14 15  2  0
 15 16  1  0
 16 17  1  0
 17 18  1  0
 18 19  1  0
 19 20  1  0
 20 21  1  0
 20 22  1  0
 15 23  1  0
 23 24  2  0
 24 25  1  0
 25 26  1  0
 25  1  1  0
 24  3  1  0
 12  6  1  0
  1 27  1  0
  2 28  1  0
  7 29  1  0
  8 30  1  0
 10 31  1  0
 11 32  1  0
 13 33  1  0
 13 34  1  0
 13 35  1  0
 16 36  1  0
 17 37  1  0
 17 38  1  0
 18 39  1  0
 18 40  1  0
 20 41  1  0
 21 42  1  0
 21 43  1  0
 21 44  1  0
 22 45  1  0
 22 46  1  0
 22 47  1  0
 26 48  1  0
 26 49  1  0
 26 50  1  0
M  END
>  <ScrubInfo>  (6) 
{"isomerGroup": 0, "isomerId": 5, "confId": 0, "nr_conformers:": 1, "nr_isomers:": 9}

$$$$
_i6
     RDKit          3D

 50 52  0  0  0  0  0  0  0  0999 V2000
   -1.9995    2.0029   -2.1481 N   0  0  0  0  0  0  0  0  0  0  0  0
   -2.5293    1.4214   -1.0007 C   0  0  0  0  0  0  0  0  0  0  0  0
   -1.6369    0.6823   -0.3284 C   0  0  0  0  0  0  0  0  0  0  0  0
   -1.5593   -0.1204    0.8909 C   0  0  0  0  0  0  0  0  0  0  0  0
   -2.6248   -0.3475    1.7380 N   0  0  0  0  0  0  0  0  0  0  0  0
   -3.9312   -0.6217    1.2724 C   0  0  0  0  0  0  0  0  0  0  0  0
   -4.9792    0.1450    1.8095 C   0  0  0  0  0  0  0  0  0  0  0  0
   -6.3036   -0.0775    1.4312 C   0  0  0  0  0  0  0  0  0  0  0  0
   -6.5857   -1.0899    0.5260 C   0  0  0  0  0  0  0  0  0  0  0  0
   -7.8606   -1.3437    0.1169 O   0  0  0  0  0  0  0  0  0  0  0  0
   -5.5702   -1.8900    0.0138 C   0  0  0  0  0  0  0  0  0  0  0  0
   -4.2345   -1.6871    0.4012 C   0  0  0  0  0  0  0  0  0  0  0  0
   -3.1813   -2.6091   -0.1510 C   0  0  0  0  0  0  0  0  0  0  0  0
   -0.4072   -0.6408    1.2150 N   0  0  0  0  0  0  0  0  0  0  0  0
    0.6802   -0.4257    0.3968 C   0  0  0  0  0  0  0  0  0  0  0  0
    1.7740   -0.9207    0.8571 N   0  0  0  0  0  0  0  0  0  0  0  0
    3.0006   -0.7707    0.0733 C   0  0  0  0  0  0  0  0  0  0  0  0
    3.6922    0.5576    0.3922 C   0  0  0  0  0  0  0  0  0  0  0  0
    4.9180    0.6930   -0.3338 O   0  0  0  0  0  0  0  0  0  0  0  0
    6.0432    0.0832    0.3046 C   0  0  0  0  0  0  0  0  0  0  0  0
    6.6641    1.0583    1.2999 C   0  0  0  0  0  0  0  0  0  0  0  0
    7.0450   -0.2683   -0.7888 C   0  0  0  0  0  0  0  0  0  0  0  0
    0.6884    0.2426   -0.8047 N   0  0  0  0  0  0  0  0  0  0  0  0
   -0.4256    0.7747   -1.1700 C   0  0  0  0  0  0  0  0  0  0  0  0
   -0.7133    1.5026   -2.3247 N   0  0  0  0  0  0  0  0  0  0  0  0
    0.2939    2.3422   -2.9458 C   0  0  0  0  0  0  0  0  0  0  0  0
   -2.6211    1.9391   -2.9580 H   0  0  0  0  0  0  0  0  0  0  0  0
   -3.5673    1.5947   -0.7556 H   0  0  0  0  0  0  0  0  0  0  0  0
   -2.3576   -1.0193    2.4551 H   0  0  0  0  0  0  0  0  0  0  0  0
   -4.7557    0.9386    2.5199 H   0  0  0  0  0  0  0  0  0  0  0  0
   -7.0888    0.5430    1.8505 H   0  0  0  0  0  0  0  0  0  0  0  0
   -8.4640   -0.7381    0.5781 H   0  0  0  0  0  0  0  0  0  0  0  0
   -5.8288   -2.6875   -0.6794 H   0  0  0  0  0  0  0  0  0  0  0  0
   -3.6261   -3.5390   -0.5221 H   0  0  0  0  0  0  0  0  0  0  0  0
   -2.4642   -2.8942    0.6251 H   0  0  0  0  0  0  0  0  0  0  0  0
   -2.6548   -2.1312   -0.9821 H   0  0  0  0  0  0  0  0  0  0  0  0
    3.6641   -1.6035    0.3319 H   0  0  0  0  0  0  0  0  0  0  0  0
    2.8407   -0.8777   -1.0070 H   0  0  0  0  0  0  0  0  0  0  0  0
    3.8565    0.6695    1.4699 H   0  0  0  0  0  0  0  0  0  0  0  0
    3.0509    1.3900    0.0838 H   0  0  0  0  0  0  0  0  0  0  0  0
    5.7479   -0.8387    0.8181 H   0  0  0  0  0  0  0  0  0  0  0  0
    7.5667    0.6382    1.7547 H   0  0  0  0  0  0  0  0  0  0  0  0
    5.9613    1.3041    2.1019 H   0  0  0  0  0  0  0  0  0  0  0  0
    6.9244    2.0036    0.8109 H   0  0  0  0  0  0  0  0  0  0  0  0
    7.3472    0.6238   -1.3487 H   0  0  0  0  0  0  0  0  0  0  0  0
    7.9395   -0.7419   -0.3727 H   0  0  0  0  0  0  0  0  0  0  0  0
    6.5920   -0.9548   -1.5123 H   0  0  0  0  0  0  0  0  0  0  0  0
   -0.0844    2.7587   -3.8850 H   0  0  0  0  0  0  0  0  0  0  0  0
    0.5720    3.1697   -2.2848 H   0  0  0  0  0  0  0  0  0  0  0  0
    1.1921    1.7602   -3.1760 H   0  0  0  0  0  0  0  0  0  0  0  0
  1  2  1  0
  2  3  2  0
  3  4  1  0
  4  5  1  0
  5  6  1  0
  6  7  2  0
  7  8  1  0
  8  9  2  0
  9 10  1  0
  9 11  1  0
 11 12  2  0
 12 13  1  0
  4 14  2  0
 14 15  1  0
 15 16  2  3
 16 17  1  0
 17 18  1  0
 18 19  1  0
 19 20  1  0
 20 21  1  0
 20 22  1  0
 15 23  1  0
 23 24  2  0
 24 25  1  0
 25 26  1  0
 25  1  1  0
 24  3  1  0
 12  6  1  0
  1 27  1  0
  2 28  1  0
  5 29  1  0
  7 30  1  0
  8 31  1  0
 10 32  1  0
 11 33  1  0
 13 34  1  0
 13 35  1  0
 13 36  1  0
 17 37  1  0
 17 38  1  0
 18 39  1  0
 18 40  1  0
 20 41  1  0
 21 42  1  0
 21 43  1  0
 21 44  1  0
 22 45  1  0
 22 46  1  0
 22 47  1  0
 26 48  1  0
 26 49  1  0
 26 50  1  0
M  END
>  <ScrubInfo>  (7) 
{"isomerGroup": 0, "isomerId": 6, "confId": 0, "nr_conformers:": 1, "nr_isomers:": 9}

$$$$
_i7
     RDKit          3D

 50 52  0  0  0  0  0  0  0  0999 V2000
   -0.6238   -1.7408   -0.4188 N   0  0  0  0  0  0  0  0  0  0  0  0
   -1.1526   -0.5386   -0.8587 C   0  0  0  0  0  0  0  0  0  0  0  0
   -2.3309   -0.3058   -1.3255 N   0  0  0  0  0  0  0  0  0  0  0  0
   -3.3051   -1.3924   -1.4591 C   0  0  0  0  0  0  0  0  0  0  0  0
   -4.0756   -1.6271   -0.1537 C   0  0  0  0  0  0  0  0  0  0  0  0
   -5.1784   -0.7348    0.0138 O   0  0  0  0  0  0  0  0  0  0  0  0
   -4.8128    0.5808    0.4383 C   0  0  0  0  0  0  0  0  0  0  0  0
   -5.2140    1.5693   -0.6487 C   0  0  0  0  0  0  0  0  0  0  0  0
   -5.5660    0.8702    1.7314 C   0  0  0  0  0  0  0  0  0  0  0  0
   -0.2710    0.5143   -0.7532 N   0  0  0  0  0  0  0  0  0  0  0  0
    1.0254    0.5884   -0.2924 C   0  0  0  0  0  0  0  0  0  0  0  0
    1.6696    1.7165   -0.2832 N   0  0  0  0  0  0  0  0  0  0  0  0
    2.9839    1.8240    0.1809 C   0  0  0  0  0  0  0  0  0  0  0  0
    3.2039    2.1293    1.5311 C   0  0  0  0  0  0  0  0  0  0  0  0
    4.4995    2.2676    2.0311 C   0  0  0  0  0  0  0  0  0  0  0  0
    5.5778    2.1132    1.1691 C   0  0  0  0  0  0  0  0  0  0  0  0
    6.8621    2.2328    1.6101 O   0  0  0  0  0  0  0  0  0  0  0  0
    5.3803    1.8360   -0.1799 C   0  0  0  0  0  0  0  0  0  0  0  0
    4.0805    1.7051   -0.6923 C   0  0  0  0  0  0  0  0  0  0  0  0
    3.8793    1.4146   -2.1523 C   0  0  0  0  0  0  0  0  0  0  0  0
    1.4922   -0.7170    0.1434 C   0  0  0  0  0  0  0  0  0  0  0  0
    2.6692   -1.2665    0.6850 C   0  0  0  0  0  0  0  0  0  0  0  0
    2.5679   -2.5828    0.9230 N   0  0  0  0  0  0  0  0  0  0  0  0
    1.3184   -2.8895    0.5149 N   0  0  0  0  0  0  0  0  0  0  0  0
    0.8572   -4.2508    0.6234 C   0  0  0  0  0  0  0  0  0  0  0  0
    0.6440   -1.8008    0.0525 C   0  0  0  0  0  0  0  0  0  0  0  0
   -1.2150   -2.5578   -0.4713 H   0  0  0  0  0  0  0  0  0  0  0  0
   -2.8161   -2.3178   -1.7834 H   0  0  0  0  0  0  0  0  0  0  0  0
   -4.0052   -1.1178   -2.2561 H   0  0  0  0  0  0  0  0  0  0  0  0
   -3.4276   -1.6027    0.7301 H   0  0  0  0  0  0  0  0  0  0  0  0
   -4.5146   -2.6297   -0.1998 H   0  0  0  0  0  0  0  0  0  0  0  0
   -3.7389    0.6627    0.6389 H   0  0  0  0  0  0  0  0  0  0  0  0
   -4.6925    1.3493   -1.5855 H   0  0  0  0  0  0  0  0  0  0  0  0
   -6.2860    1.5014   -0.8652 H   0  0  0  0  0  0  0  0  0  0  0  0
   -4.9803    2.5974   -0.3557 H   0  0  0  0  0  0  0  0  0  0  0  0
   -5.3450    1.8749    2.1044 H   0  0  0  0  0  0  0  0  0  0  0  0
   -6.6483    0.7784    1.5871 H   0  0  0  0  0  0  0  0  0  0  0  0
   -5.2891    0.1434    2.5028 H   0  0  0  0  0  0  0  0  0  0  0  0
   -0.6442    1.3956   -1.0762 H   0  0  0  0  0  0  0  0  0  0  0  0
    2.3531    2.2580    2.1952 H   0  0  0  0  0  0  0  0  0  0  0  0
    4.6424    2.4960    3.0821 H   0  0  0  0  0  0  0  0  0  0  0  0
    6.8476    2.4351    2.5599 H   0  0  0  0  0  0  0  0  0  0  0  0
    6.2448    1.7304   -0.8307 H   0  0  0  0  0  0  0  0  0  0  0  0
    4.8130    1.5261   -2.7139 H   0  0  0  0  0  0  0  0  0  0  0  0
    3.5239    0.3885   -2.2882 H   0  0  0  0  0  0  0  0  0  0  0  0
    3.1552    2.1109   -2.5875 H   0  0  0  0  0  0  0  0  0  0  0  0
    3.6055   -0.7818    0.9255 H   0  0  0  0  0  0  0  0  0  0  0  0
    0.1244   -4.4496   -0.1620 H   0  0  0  0  0  0  0  0  0  0  0  0
    1.7075   -4.9276    0.5042 H   0  0  0  0  0  0  0  0  0  0  0  0
    0.4047   -4.3784    1.6096 H   0  0  0  0  0  0  0  0  0  0  0  0
  1  2  1  0
  2  3  2  3
  3  4  1  0
  4  5  1  0
  5  6  1  0
  6  7  1  0
  7  8  1  0
  7  9  1  0
  2 10  1  0
 10 11  1  0
 11 12  2  3
 12 13  1  0
 13 14  2  0
 14 15  1  0
 15 16  2  0
 16 17  1  0
 16 18  1  0
 18 19  2  0
 19 20  1  0
 11 21  1  0
 21 22  1  0
 22 23  2  0
 23 24  1  0
 24 25  1  0
 24 26  1  0
 26  1  1  0
 19 13  1  0
 26 21  2  0
  1 27  1  0
  4 28  1  0
  4 29  1  0
  5 30  1  0
  5 31  1  0
  7 32  1  0
  8 33  1  0
  8 34  1  0
  8 35  1  0
  9 36  1  0
  9 37  1  0
  9 38  1  0
 10 39  1  0
 14 40  1  0
 15 41  1  0
 17 42  1  0
 18 43  1  0
 20 44  1  0
 20 45  1  0
 20 46  1  0
 22 47  1  0
 25 48  1  0
 25 49  1  0
 25 50  1  0
M  END
>  <ScrubInfo>  (8) 
{"isomerGroup": 0, "isomerId": 7, "confId": 0, "nr_conformers:": 1, "nr_isomers:": 9}

$$$$
_i8
     RDKit          3D

 50 52  0  0  0  0  0  0  0  0999 V2000
    2.0313    2.2918   -1.4231 N   0  0  0  0  0  0  0  0  0  0  0  0
    2.5860    1.2254   -0.7246 C   0  0  0  0  0  0  0  0  0  0  0  0
    1.6886    0.2978   -0.3619 C   0  0  0  0  0  0  0  0  0  0  0  0
    1.6070   -0.9749    0.3824 C   0  0  0  0  0  0  0  0  0  0  0  0
    2.5578   -1.6683    0.9360 N   0  0  0  0  0  0  0  0  0  0  0  0
    3.8885   -1.2376    0.8742 C   0  0  0  0  0  0  0  0  0  0  0  0
    4.3833   -0.4069    1.8872 C   0  0  0  0  0  0  0  0  0  0  0  0
    5.7058    0.0340    1.8611 C   0  0  0  0  0  0  0  0  0  0  0  0
    6.5408   -0.3717    0.8293 C   0  0  0  0  0  0  0  0  0  0  0  0
    7.8257    0.0834    0.8378 O   0  0  0  0  0  0  0  0  0  0  0  0
    6.0783   -1.2188   -0.1746 C   0  0  0  0  0  0  0  0  0  0  0  0
    4.7488   -1.6711   -0.1528 C   0  0  0  0  0  0  0  0  0  0  0  0
    4.2537   -2.5929   -1.2317 C   0  0  0  0  0  0  0  0  0  0  0  0
    0.3229   -1.4407    0.4695 N   0  0  0  0  0  0  0  0  0  0  0  0
   -0.8047   -0.8728   -0.0511 C   0  0  0  0  0  0  0  0  0  0  0  0
   -1.9422   -1.4458    0.1694 N   0  0  0  0  0  0  0  0  0  0  0  0
   -3.1481   -0.8414   -0.4080 C   0  0  0  0  0  0  0  0  0  0  0  0
   -3.7141    0.2431    0.5129 C   0  0  0  0  0  0  0  0  0  0  0  0
   -4.9278    0.7894   -0.0124 O   0  0  0  0  0  0  0  0  0  0  0  0
   -6.0999    0.0474    0.3350 C   0  0  0  0  0  0  0  0  0  0  0  0
   -6.6203    0.5084    1.6928 C   0  0  0  0  0  0  0  0  0  0  0  0
   -7.1381    0.3126   -0.7487 C   0  0  0  0  0  0  0  0  0  0  0  0
   -0.7484    0.2862   -0.7921 N   0  0  0  0  0  0  0  0  0  0  0  0
    0.4141    0.8363   -0.9565 C   0  0  0  0  0  0  0  0  0  0  0  0
    0.7005    1.9967   -1.6788 N   0  0  0  0  0  0  0  0  0  0  0  0
   -0.2616    3.0798   -1.7622 C   0  0  0  0  0  0  0  0  0  0  0  0
    2.5917    2.5905   -2.2244 H   0  0  0  0  0  0  0  0  0  0  0  0
    3.6498    1.2367   -0.5384 H   0  0  0  0  0  0  0  0  0  0  0  0
    3.7297   -0.1020    2.7001 H   0  0  0  0  0  0  0  0  0  0  0  0
    6.0823    0.6836    2.6458 H   0  0  0  0  0  0  0  0  0  0  0  0
    8.3099   -0.3342    0.1066 H   0  0  0  0  0  0  0  0  0  0  0  0
    6.7420   -1.5389   -0.9725 H   0  0  0  0  0  0  0  0  0  0  0  0
    3.7628   -3.4685   -0.7945 H   0  0  0  0  0  0  0  0  0  0  0  0
    3.5485   -2.0678   -1.8835 H   0  0  0  0  0  0  0  0  0  0  0  0
    5.0777   -2.9601   -1.8526 H   0  0  0  0  0  0  0  0  0  0  0  0
    0.1825   -2.2978    0.9827 H   0  0  0  0  0  0  0  0  0  0  0  0
   -3.8881   -1.6392   -0.5372 H   0  0  0  0  0  0  0  0  0  0  0  0
   -2.9912   -0.4506   -1.4213 H   0  0  0  0  0  0  0  0  0  0  0  0
   -3.0023    1.0719    0.5874 H   0  0  0  0  0  0  0  0  0  0  0  0
   -3.8601   -0.1385    1.5297 H   0  0  0  0  0  0  0  0  0  0  0  0
   -5.8874   -1.0273    0.3607 H   0  0  0  0  0  0  0  0  0  0  0  0
   -5.8916    0.3059    2.4838 H   0  0  0  0  0  0  0  0  0  0  0  0
   -6.7955    1.5900    1.6977 H   0  0  0  0  0  0  0  0  0  0  0  0
   -7.5544    0.0003    1.9518 H   0  0  0  0  0  0  0  0  0  0  0  0
   -8.0695   -0.2260   -0.5489 H   0  0  0  0  0  0  0  0  0  0  0  0
   -6.7561   -0.0030   -1.7258 H   0  0  0  0  0  0  0  0  0  0  0  0
   -7.3604    1.3825   -0.8290 H   0  0  0  0  0  0  0  0  0  0  0  0
    0.1012    3.8599   -2.4394 H   0  0  0  0  0  0  0  0  0  0  0  0
   -0.4314    3.5257   -0.7766 H   0  0  0  0  0  0  0  0  0  0  0  0
   -1.2179    2.7173   -2.1528 H   0  0  0  0  0  0  0  0  0  0  0  0
  1  2  1  0
  2  3  2  0
  3  4  1  0
  4  5  2  3
  5  6  1  0
  6  7  2  0
  7  8  1  0
  8  9  2  0
  9 10  1  0
  9 11  1  0
 11 12  2  0
 12 13  1  0
  4 14  1  0
 14 15  1  0
 15 16  2  3
 16 17  1  0
 17 18  1  0
 18 19  1  0
 19 20  1  0
 20 21  1  0
 20 22  1  0
 15 23  1  0
 23 24  2  0
 24 25  1  0
 25 26  1  0
 25  1  1  0
 24  3  1  0
 12  6  1  0
  1 27  1  0
  2 28  1  0
  7 29  1  0
  8 30  1  0
 10 31  1  0
 11 32  1  0
 13 33  1  0
 13 34  1  0
 13 35  1  0
 14 36  1  0
 17 37  1  0
 17 38  1  0
 18 39  1  0
 18 40  1  0
 20 41  1  0
 21 42  1  0
 21 43  1  0
 21 44  1  0
 22 45  1  0
 22 46  1  0
 22 47  1  0
 26 48  1  0
 26 49  1  0
 26 50  1  0
M  END
>  <ScrubInfo>  (9) 
{"isomerGroup": 0, "isomerId": 8, "confId": 0, "nr_conformers:": 1, "nr_isomers:": 9}

$$$$
