REMARK SMILES CCc1ccc(Nc2nc(NCCO)nc3c2ncn3C)cc1
REMARK SMILES IDX 8 1 9 2 10 3 15 4 16 5 17 6 18 7 19 8 20 9 21 10 7 11 6 13
REMARK SMILES IDX 3 14 4 15 23 16 5 17 22 18 2 19 1 20 11 21 12 23 13 24 14 25
REMARK H PARENT 7 12 11 22 14 26
ROOT
ATOM      1  C   UNL     1      -0.498   1.270   0.278  1.00  0.00     0.164 A 
ATOM      2  N   UNL     1      -1.187   0.304  -0.390  1.00  0.00    -0.193 NA
ATOM      3  C   UNL     1      -2.488   0.480  -0.707  1.00  0.00     0.226 A 
ATOM      4  N   UNL     1      -3.230   1.560  -0.412  1.00  0.00    -0.193 NA
ATOM      5  C   UNL     1      -2.530   2.494   0.243  1.00  0.00     0.167 A 
ATOM      6  C   UNL     1      -1.204   2.435   0.622  1.00  0.00     0.150 A 
ATOM      7  N   UNL     1      -0.831   3.583   1.296  1.00  0.00    -0.231 NA
ATOM      8  C   UNL     1      -1.918   4.328   1.312  1.00  0.00     0.201 A 
ATOM      9  N   UNL     1      -2.966   3.709   0.687  1.00  0.00    -0.318 N 
ATOM     10  C   UNL     1      -4.295   4.234   0.518  1.00  0.00     0.153 C 
ENDROOT
BRANCH   1  11
ATOM     11  N   UNL     1       0.846   1.133   0.655  1.00  0.00    -0.338 N 
ATOM     12  H   UNL     1       1.171   1.952   1.161  1.00  0.00     0.168 HD
BRANCH  11  13
ATOM     13  C   UNL     1       1.825   0.174   0.363  1.00  0.00     0.040 A 
ATOM     14  C   UNL     1       3.860  -1.757  -0.076  1.00  0.00    -0.048 A 
ATOM     15  C   UNL     1       4.056  -0.711   0.829  1.00  0.00     0.006 A 
ATOM     16  C   UNL     1       2.643  -1.830  -0.760  1.00  0.00     0.006 A 
ATOM     17  C   UNL     1       3.049   0.235   1.047  1.00  0.00     0.026 A 
ATOM     18  C   UNL     1       1.639  -0.880  -0.535  1.00  0.00     0.026 A 
BRANCH  14  19
ATOM     19  C   UNL     1       4.946  -2.768  -0.331  1.00  0.00     0.032 C 
ATOM     20  C   UNL     1       5.869  -2.334  -1.460  1.00  0.00     0.009 C 
ENDBRANCH  14  19
ENDBRANCH  11  13
ENDBRANCH   1  11
BRANCH   3  21
ATOM     21  N   UNL     1      -3.166  -0.529  -1.378  1.00  0.00    -0.352 N 
ATOM     22  H   UNL     1      -4.154  -0.385  -1.185  1.00  0.00     0.163 HD
BRANCH  21  23
ATOM     23  C   UNL     1      -2.729  -1.893  -1.093  1.00  0.00     0.144 C 
BRANCH  23  24
ATOM     24  C   UNL     1      -3.095  -2.326   0.332  1.00  0.00     0.177 C 
BRANCH  24  25
ATOM     25  O   UNL     1      -4.511  -2.249   0.516  1.00  0.00    -0.395 OA
ATOM     26  H   UNL     1      -4.681  -2.466   1.449  1.00  0.00     0.210 HD
ENDBRANCH  24  25
ENDBRANCH  23  24
ENDBRANCH  21  23
ENDBRANCH   3  21
TORSDOF 7
