_i0
     RDKit          3D

 43 45  0  0  0  0  0  0  0  0999 V2000
    5.8692   -2.3345   -1.4597 C   0  0  0  0  0  0  0  0  0  0  0  0
    4.9463   -2.7685   -0.3312 C   0  0  0  0  0  0  0  0  0  0  0  0
    3.8596   -1.7572   -0.0757 C   0  0  0  0  0  0  0  0  0  0  0  0
    4.0565   -0.7114    0.8293 C   0  0  0  0  0  0  0  0  0  0  0  0
    3.0490    0.2350    1.0473 C   0  0  0  0  0  0  0  0  0  0  0  0
    1.8252    0.1741    0.3628 C   0  0  0  0  0  0  0  0  0  0  0  0
    0.8463    1.1331    0.6551 N   0  0  0  0  0  0  0  0  0  0  0  0
   -0.4979    1.2700    0.2781 C   0  0  0  0  0  0  0  0  0  0  0  0
   -1.1874    0.3044   -0.3899 N   0  0  0  0  0  0  0  0  0  0  0  0
   -2.4880    0.4797   -0.7065 C   0  0  0  0  0  0  0  0  0  0  0  0
   -3.1658   -0.5290   -1.3783 N   0  0  0  0  0  0  0  0  0  0  0  0
   -2.7295   -1.8926   -1.0930 C   0  0  0  0  0  0  0  0  0  0  0  0
   -3.0948   -2.3258    0.3322 C   0  0  0  0  0  0  0  0  0  0  0  0
   -4.5106   -2.2495    0.5159 O   0  0  0  0  0  0  0  0  0  0  0  0
   -3.2296    1.5598   -0.4121 N   0  0  0  0  0  0  0  0  0  0  0  0
   -2.5301    2.4938    0.2435 C   0  0  0  0  0  0  0  0  0  0  0  0
   -1.2036    2.4347    0.6223 C   0  0  0  0  0  0  0  0  0  0  0  0
   -0.8308    3.5830    1.2961 N   0  0  0  0  0  0  0  0  0  0  0  0
   -1.9180    4.3276    1.3116 C   0  0  0  0  0  0  0  0  0  0  0  0
   -2.9664    3.7095    0.6870 N   0  0  0  0  0  0  0  0  0  0  0  0
   -4.2952    4.2340    0.5177 C   0  0  0  0  0  0  0  0  0  0  0  0
    1.6391   -0.8797   -0.5349 C   0  0  0  0  0  0  0  0  0  0  0  0
    2.6431   -1.8300   -0.7601 C   0  0  0  0  0  0  0  0  0  0  0  0
    6.3601   -1.3832   -1.2279 H   0  0  0  0  0  0  0  0  0  0  0  0
    5.3178   -2.2080   -2.3976 H   0  0  0  0  0  0  0  0  0  0  0  0
    6.6473   -3.0868   -1.6226 H   0  0  0  0  0  0  0  0  0  0  0  0
    5.5290   -2.9234    0.5851 H   0  0  0  0  0  0  0  0  0  0  0  0
    4.4973   -3.7397   -0.5724 H   0  0  0  0  0  0  0  0  0  0  0  0
    4.9936   -0.6239    1.3740 H   0  0  0  0  0  0  0  0  0  0  0  0
    3.2314    1.0288    1.7677 H   0  0  0  0  0  0  0  0  0  0  0  0
    1.1713    1.9515    1.1607 H   0  0  0  0  0  0  0  0  0  0  0  0
   -4.1540   -0.3854   -1.1855 H   0  0  0  0  0  0  0  0  0  0  0  0
   -3.2534   -2.5471   -1.7995 H   0  0  0  0  0  0  0  0  0  0  0  0
   -1.6576   -2.0239   -1.2788 H   0  0  0  0  0  0  0  0  0  0  0  0
   -2.7849   -3.3623    0.4981 H   0  0  0  0  0  0  0  0  0  0  0  0
   -2.6148   -1.6924    1.0845 H   0  0  0  0  0  0  0  0  0  0  0  0
   -4.6811   -2.4663    1.4489 H   0  0  0  0  0  0  0  0  0  0  0  0
   -1.9982    5.3113    1.7571 H   0  0  0  0  0  0  0  0  0  0  0  0
   -5.0008    3.5607    1.0110 H   0  0  0  0  0  0  0  0  0  0  0  0
   -4.3566    5.2281    0.9678 H   0  0  0  0  0  0  0  0  0  0  0  0
   -4.5106    4.2988   -0.5520 H   0  0  0  0  0  0  0  0  0  0  0  0
    0.7150   -0.9724   -1.0964 H   0  0  0  0  0  0  0  0  0  0  0  0
    2.4628   -2.6252   -1.4797 H   0  0  0  0  0  0  0  0  0  0  0  0
  1  2  1  0
  2  3  1  0
  3  4  2  0
  4  5  1  0
  5  6  2  0
  6  7  1  0
  7  8  1  0
  8  9  2  0
  9 10  1  0
 10 11  1  0
 11 12  1  0
 12 13  1  0
 13 14  1  0
 10 15  2  0
 15 16  1  0
 16 17  2  0
 17 18  1  0
 18 19  2  0
 19 20  1  0
 20 21  1  0
  6 22  1  0
 22 23  2  0
 23  3  1  0
 17  8  1  0
 20 16  1  0
  1 24  1  0
  1 25  1  0
  1 26  1  0
  2 27  1  0
  2 28  1  0
  4 29  1  0
  5 30  1  0
  7 31  1  0
 11 32  1  0
 12 33  1  0
 12 34  1  0
 13 35  1  0
 13 36  1  0
 14 37  1  0
 19 38  1  0
 21 39  1  0
 21 40  1  0
 21 41  1  0
 22 42  1  0
 23 43  1  0
M  END
>  <ScrubInfo>  (1) 
{"isomerGroup": 0, "isomerId": 0, "confId": 0, "nr_conformers:": 1, "nr_isomers:": 6}

$$$$
_i1
     RDKit          3D

 43 45  0  0  0  0  0  0  0  0999 V2000
   -1.5629   -1.8576    0.6607 N   0  0  0  0  0  0  0  0  0  0  0  0
   -2.7968   -1.2904    0.4384 C   0  0  0  0  0  0  0  0  0  0  0  0
   -3.8298   -2.1667    0.6240 N   0  0  0  0  0  0  0  0  0  0  0  0
   -5.2325   -1.7961    0.4358 C   0  0  0  0  0  0  0  0  0  0  0  0
   -5.5872   -1.5960   -1.0439 C   0  0  0  0  0  0  0  0  0  0  0  0
   -5.2189   -0.3024   -1.5156 O   0  0  0  0  0  0  0  0  0  0  0  0
   -2.9765   -0.0431    0.0790 N   0  0  0  0  0  0  0  0  0  0  0  0
   -1.7900    0.6098   -0.0534 C   0  0  0  0  0  0  0  0  0  0  0  0
   -0.5021    0.1387    0.1517 C   0  0  0  0  0  0  0  0  0  0  0  0
    0.4215    1.1246   -0.0987 N   0  0  0  0  0  0  0  0  0  0  0  0
   -0.2911    2.1750   -0.4501 C   0  0  0  0  0  0  0  0  0  0  0  0
   -1.6331    1.9096   -0.4376 N   0  0  0  0  0  0  0  0  0  0  0  0
   -2.6894    2.8279   -0.7716 C   0  0  0  0  0  0  0  0  0  0  0  0
   -0.3283   -1.2457    0.5784 C   0  0  0  0  0  0  0  0  0  0  0  0
    0.7708   -1.8766    0.8655 N   0  0  0  0  0  0  0  0  0  0  0  0
    2.0070   -1.2250    0.7802 C   0  0  0  0  0  0  0  0  0  0  0  0
    2.5450   -0.5826    1.8972 C   0  0  0  0  0  0  0  0  0  0  0  0
    3.8020    0.0245    1.8302 C   0  0  0  0  0  0  0  0  0  0  0  0
    4.5484   -0.0201    0.6458 C   0  0  0  0  0  0  0  0  0  0  0  0
    5.8921    0.6563    0.5626 C   0  0  0  0  0  0  0  0  0  0  0  0
    5.7691    2.1032    0.1098 C   0  0  0  0  0  0  0  0  0  0  0  0
    4.0130   -0.6773   -0.4693 C   0  0  0  0  0  0  0  0  0  0  0  0
    2.7555   -1.2828   -0.3971 C   0  0  0  0  0  0  0  0  0  0  0  0
   -1.5257   -2.7785    1.0647 H   0  0  0  0  0  0  0  0  0  0  0  0
   -3.6320   -3.1288    0.3750 H   0  0  0  0  0  0  0  0  0  0  0  0
   -5.8408   -2.6130    0.8386 H   0  0  0  0  0  0  0  0  0  0  0  0
   -5.4591   -0.8946    1.0161 H   0  0  0  0  0  0  0  0  0  0  0  0
   -5.1022   -2.3459   -1.6771 H   0  0  0  0  0  0  0  0  0  0  0  0
   -6.6698   -1.6842   -1.1773 H   0  0  0  0  0  0  0  0  0  0  0  0
   -4.3579   -0.0837   -1.0953 H   0  0  0  0  0  0  0  0  0  0  0  0
    0.1134    3.1416   -0.7211 H   0  0  0  0  0  0  0  0  0  0  0  0
   -3.2390    2.4291   -1.6282 H   0  0  0  0  0  0  0  0  0  0  0  0
   -3.3492    2.9299    0.0938 H   0  0  0  0  0  0  0  0  0  0  0  0
   -2.2620    3.8008   -1.0269 H   0  0  0  0  0  0  0  0  0  0  0  0
    1.9766   -0.5473    2.8214 H   0  0  0  0  0  0  0  0  0  0  0  0
    4.1909    0.5347    2.7076 H   0  0  0  0  0  0  0  0  0  0  0  0
    6.3874    0.6147    1.5404 H   0  0  0  0  0  0  0  0  0  0  0  0
    6.5406    0.1052   -0.1293 H   0  0  0  0  0  0  0  0  0  0  0  0
    5.3099    2.1715   -0.8822 H   0  0  0  0  0  0  0  0  0  0  0  0
    6.7583    2.5690    0.0584 H   0  0  0  0  0  0  0  0  0  0  0  0
    5.1551    2.6862    0.8047 H   0  0  0  0  0  0  0  0  0  0  0  0
    4.5681   -0.7195   -1.4029 H   0  0  0  0  0  0  0  0  0  0  0  0
    2.3514   -1.7942   -1.2651 H   0  0  0  0  0  0  0  0  0  0  0  0
  1  2  1  0
  2  3  1  0
  3  4  1  0
  4  5  1  0
  5  6  1  0
  2  7  2  0
  7  8  1  0
  8  9  2  0
  9 10  1  0
 10 11  2  0
 11 12  1  0
 12 13  1  0
  9 14  1  0
 14 15  2  3
 15 16  1  0
 16 17  2  0
 17 18  1  0
 18 19  2  0
 19 20  1  0
 20 21  1  0
 19 22  1  0
 22 23  2  0
 14  1  1  0
 23 16  1  0
 12  8  1  0
  1 24  1  0
  3 25  1  0
  4 26  1  0
  4 27  1  0
  5 28  1  0
  5 29  1  0
  6 30  1  0
 11 31  1  0
 13 32  1  0
 13 33  1  0
 13 34  1  0
 17 35  1  0
 18 36  1  0
 20 37  1  0
 20 38  1  0
 21 39  1  0
 21 40  1  0
 21 41  1  0
 22 42  1  0
 23 43  1  0
M  END
>  <ScrubInfo>  (2) 
{"isomerGroup": 0, "isomerId": 1, "confId": 0, "nr_conformers:": 1, "nr_isomers:": 6}

$$$$
_i2
     RDKit          3D

 43 45  0  0  0  0  0  0  0  0999 V2000
    2.1608   -0.1368    0.8010 N   0  0  0  0  0  0  0  0  0  0  0  0
    0.9625    0.5634    0.7887 C   0  0  0  0  0  0  0  0  0  0  0  0
   -0.1270    0.0486    1.4698 N   0  0  0  0  0  0  0  0  0  0  0  0
   -1.4500   -0.1304    1.0119 C   0  0  0  0  0  0  0  0  0  0  0  0
   -1.8697    0.1366   -0.2942 C   0  0  0  0  0  0  0  0  0  0  0  0
   -3.2068   -0.0325   -0.6742 C   0  0  0  0  0  0  0  0  0  0  0  0
   -4.1638   -0.4556    0.2530 C   0  0  0  0  0  0  0  0  0  0  0  0
   -5.5994   -0.6497   -0.1600 C   0  0  0  0  0  0  0  0  0  0  0  0
   -5.8588   -2.0642   -0.6554 C   0  0  0  0  0  0  0  0  0  0  0  0
   -3.7583   -0.7119    1.5653 C   0  0  0  0  0  0  0  0  0  0  0  0
   -2.4208   -0.5416    1.9384 C   0  0  0  0  0  0  0  0  0  0  0  0
    0.9791    1.7492    0.1494 C   0  0  0  0  0  0  0  0  0  0  0  0
    0.0317    2.7515   -0.0550 N   0  0  0  0  0  0  0  0  0  0  0  0
    0.6800    3.6552   -0.7476 C   0  0  0  0  0  0  0  0  0  0  0  0
    1.9929    3.3732   -1.0189 N   0  0  0  0  0  0  0  0  0  0  0  0
    2.8643    4.1219   -1.8767 C   0  0  0  0  0  0  0  0  0  0  0  0
    2.2831    2.1388   -0.4918 C   0  0  0  0  0  0  0  0  0  0  0  0
    3.3686    1.4512   -0.5170 N   0  0  0  0  0  0  0  0  0  0  0  0
    3.3078    0.2429    0.1393 C   0  0  0  0  0  0  0  0  0  0  0  0
    4.3986   -0.4300    0.0420 N   0  0  0  0  0  0  0  0  0  0  0  0
    4.5246   -1.7243    0.6954 C   0  0  0  0  0  0  0  0  0  0  0  0
    4.0212   -2.8430   -0.2132 C   0  0  0  0  0  0  0  0  0  0  0  0
    4.0561   -4.0875    0.4774 O   0  0  0  0  0  0  0  0  0  0  0  0
    2.1049   -1.0737    1.1638 H   0  0  0  0  0  0  0  0  0  0  0  0
    0.1165   -0.6156    2.1940 H   0  0  0  0  0  0  0  0  0  0  0  0
   -1.1643    0.4697   -1.0490 H   0  0  0  0  0  0  0  0  0  0  0  0
   -3.4921    0.1760   -1.7027 H   0  0  0  0  0  0  0  0  0  0  0  0
   -5.8585    0.0712   -0.9450 H   0  0  0  0  0  0  0  0  0  0  0  0
   -6.2605   -0.4265    0.6863 H   0  0  0  0  0  0  0  0  0  0  0  0
   -5.2367   -2.3009   -1.5253 H   0  0  0  0  0  0  0  0  0  0  0  0
   -6.9076   -2.1763   -0.9480 H   0  0  0  0  0  0  0  0  0  0  0  0
   -5.6427   -2.8038    0.1231 H   0  0  0  0  0  0  0  0  0  0  0  0
   -4.4802   -1.0378    2.3103 H   0  0  0  0  0  0  0  0  0  0  0  0
   -2.1431   -0.7264    2.9731 H   0  0  0  0  0  0  0  0  0  0  0  0
    0.2654    4.6032   -1.1235 H   0  0  0  0  0  0  0  0  0  0  0  0
    3.9004    4.0724   -1.5263 H   0  0  0  0  0  0  0  0  0  0  0  0
    2.5758    5.1778   -1.9054 H   0  0  0  0  0  0  0  0  0  0  0  0
    2.8252    3.7289   -2.8975 H   0  0  0  0  0  0  0  0  0  0  0  0
    5.5838   -1.8992    0.9202 H   0  0  0  0  0  0  0  0  0  0  0  0
    4.0294   -1.7576    1.6734 H   0  0  0  0  0  0  0  0  0  0  0  0
    2.9861   -2.6635   -0.5198 H   0  0  0  0  0  0  0  0  0  0  0  0
    4.6275   -2.9218   -1.1218 H   0  0  0  0  0  0  0  0  0  0  0  0
    4.9941   -4.3213    0.5924 H   0  0  0  0  0  0  0  0  0  0  0  0
  1  2  1  0
  2  3  1  0
  3  4  1  0
  4  5  2  0
  5  6  1  0
  6  7  2  0
  7  8  1  0
  8  9  1  0
  7 10  1  0
 10 11  2  0
  2 12  2  0
 12 13  1  0
 13 14  2  0
 14 15  1  0
 15 16  1  0
 15 17  1  0
 17 18  2  0
 18 19  1  0
 19 20  2  3
 20 21  1  0
 21 22  1  0
 22 23  1  0
 19  1  1  0
 11  4  1  0
 17 12  1  0
  1 24  1  0
  3 25  1  0
  5 26  1  0
  6 27  1  0
  8 28  1  0
  8 29  1  0
  9 30  1  0
  9 31  1  0
  9 32  1  0
 10 33  1  0
 11 34  1  0
 14 35  1  0
 16 36  1  0
 16 37  1  0
 16 38  1  0
 21 39  1  0
 21 40  1  0
 22 41  1  0
 22 42  1  0
 23 43  1  0
M  END
>  <ScrubInfo>  (3) 
{"isomerGroup": 0, "isomerId": 2, "confId": 0, "nr_conformers:": 1, "nr_isomers:": 6}

$$$$
_i3
     RDKit          3D

 43 45  0  0  0  0  0  0  0  0999 V2000
   -3.5216   -0.8722    0.8725 N   0  0  0  0  0  0  0  0  0  0  0  0
   -2.6580    0.2072    0.8631 C   0  0  0  0  0  0  0  0  0  0  0  0
   -3.1278    1.3591    1.2189 N   0  0  0  0  0  0  0  0  0  0  0  0
   -2.2098    2.5006    1.2337 C   0  0  0  0  0  0  0  0  0  0  0  0
   -2.1137    3.1517   -0.1454 C   0  0  0  0  0  0  0  0  0  0  0  0
   -1.3624    4.3623   -0.0816 O   0  0  0  0  0  0  0  0  0  0  0  0
   -1.3298    0.0834    0.4806 N   0  0  0  0  0  0  0  0  0  0  0  0
   -0.8622   -1.0791    0.1248 C   0  0  0  0  0  0  0  0  0  0  0  0
    0.3952   -1.4408   -0.2856 N   0  0  0  0  0  0  0  0  0  0  0  0
    1.5256   -0.6453   -0.5250 C   0  0  0  0  0  0  0  0  0  0  0  0
    2.7226   -1.2788   -0.8966 C   0  0  0  0  0  0  0  0  0  0  0  0
    3.8922   -0.5493   -1.1381 C   0  0  0  0  0  0  0  0  0  0  0  0
    3.8953    0.8419   -1.0138 C   0  0  0  0  0  0  0  0  0  0  0  0
    5.1531    1.6344   -1.2561 C   0  0  0  0  0  0  0  0  0  0  0  0
    5.9725    1.7982    0.0149 C   0  0  0  0  0  0  0  0  0  0  0  0
    2.7135    1.4820   -0.6310 C   0  0  0  0  0  0  0  0  0  0  0  0
    1.5471    0.7451   -0.3892 C   0  0  0  0  0  0  0  0  0  0  0  0
   -1.7423   -2.2405    0.1353 C   0  0  0  0  0  0  0  0  0  0  0  0
   -1.4911   -3.5511   -0.1862 N   0  0  0  0  0  0  0  0  0  0  0  0
   -2.6525   -4.1556    0.0054 C   0  0  0  0  0  0  0  0  0  0  0  0
   -3.6301   -3.2858    0.4339 N   0  0  0  0  0  0  0  0  0  0  0  0
   -4.9965   -3.6204    0.7320 C   0  0  0  0  0  0  0  0  0  0  0  0
   -3.0424   -2.0682    0.5134 C   0  0  0  0  0  0  0  0  0  0  0  0
   -4.4638   -0.6654    1.1737 H   0  0  0  0  0  0  0  0  0  0  0  0
   -2.6025    3.2356    1.9472 H   0  0  0  0  0  0  0  0  0  0  0  0
   -1.2144    2.2506    1.6218 H   0  0  0  0  0  0  0  0  0  0  0  0
   -1.6235    2.4881   -0.8637 H   0  0  0  0  0  0  0  0  0  0  0  0
   -3.1088    3.3868   -0.5380 H   0  0  0  0  0  0  0  0  0  0  0  0
   -1.8357    4.9576    0.5241 H   0  0  0  0  0  0  0  0  0  0  0  0
    0.5011   -2.4264   -0.5106 H   0  0  0  0  0  0  0  0  0  0  0  0
    2.7592   -2.3606   -1.0016 H   0  0  0  0  0  0  0  0  0  0  0  0
    4.7992   -1.0778   -1.4218 H   0  0  0  0  0  0  0  0  0  0  0  0
    5.7582    1.1399   -2.0257 H   0  0  0  0  0  0  0  0  0  0  0  0
    4.8956    2.6208   -1.6607 H   0  0  0  0  0  0  0  0  0  0  0  0
    5.4035    2.3234    0.7896 H   0  0  0  0  0  0  0  0  0  0  0  0
    6.2747    0.8267    0.4207 H   0  0  0  0  0  0  0  0  0  0  0  0
    6.8787    2.3765   -0.1910 H   0  0  0  0  0  0  0  0  0  0  0  0
    2.6836    2.5635   -0.5151 H   0  0  0  0  0  0  0  0  0  0  0  0
    0.6585    1.2957   -0.0972 H   0  0  0  0  0  0  0  0  0  0  0  0
   -2.8411   -5.2108   -0.1492 H   0  0  0  0  0  0  0  0  0  0  0  0
   -5.6476   -3.0411    0.0726 H   0  0  0  0  0  0  0  0  0  0  0  0
   -5.1941   -3.3732    1.7781 H   0  0  0  0  0  0  0  0  0  0  0  0
   -5.1577   -4.6887    0.5669 H   0  0  0  0  0  0  0  0  0  0  0  0
  1  2  1  0
  2  3  2  3
  3  4  1  0
  4  5  1  0
  5  6  1  0
  2  7  1  0
  7  8  2  0
  8  9  1  0
  9 10  1  0
 10 11  2  0
 11 12  1  0
 12 13  2  0
 13 14  1  0
 14 15  1  0
 13 16  1  0
 16 17  2  0
  8 18  1  0
 18 19  1  0
 19 20  2  0
 20 21  1  0
 21 22  1  0
 21 23  1  0
 23  1  1  0
 17 10  1  0
 23 18  2  0
  1 24  1  0
  4 25  1  0
  4 26  1  0
  5 27  1  0
  5 28  1  0
  6 29  1  0
  9 30  1  0
 11 31  1  0
 12 32  1  0
 14 33  1  0
 14 34  1  0
 15 35  1  0
 15 36  1  0
 15 37  1  0
 16 38  1  0
 17 39  1  0
 20 40  1  0
 22 41  1  0
 22 42  1  0
 22 43  1  0
M  END
>  <ScrubInfo>  (4) 
{"isomerGroup": 0, "isomerId": 3, "confId": 0, "nr_conformers:": 1, "nr_isomers:": 6}

$$$$
_i4
     RDKit          3D

 43 45  0  0  0  0  0  0  0  0999 V2000
   -2.7309   -0.6480    0.6528 N   0  0  0  0  0  0  0  0  0  0  0  0
   -1.5400    0.0407    0.6614 C   0  0  0  0  0  0  0  0  0  0  0  0
   -1.5594    1.2247    1.3424 N   0  0  0  0  0  0  0  0  0  0  0  0
   -2.5042    2.2845    0.9742 C   0  0  0  0  0  0  0  0  0  0  0  0
   -2.4779    3.3724    2.0492 C   0  0  0  0  0  0  0  0  0  0  0  0
   -2.8362    2.8108    3.3114 O   0  0  0  0  0  0  0  0  0  0  0  0
   -0.4247   -0.3465    0.1085 N   0  0  0  0  0  0  0  0  0  0  0  0
   -0.3900   -1.5597   -0.5821 C   0  0  0  0  0  0  0  0  0  0  0  0
    0.6623   -2.0060   -1.1930 N   0  0  0  0  0  0  0  0  0  0  0  0
    1.8289   -1.2318   -1.1616 C   0  0  0  0  0  0  0  0  0  0  0  0
    2.7527   -1.3814   -0.1251 C   0  0  0  0  0  0  0  0  0  0  0  0
    3.9305   -0.6292   -0.1090 C   0  0  0  0  0  0  0  0  0  0  0  0
    4.2089    0.2735   -1.1434 C   0  0  0  0  0  0  0  0  0  0  0  0
    5.4714    1.0960   -1.1215 C   0  0  0  0  0  0  0  0  0  0  0  0
    5.2716    2.4181   -0.3965 C   0  0  0  0  0  0  0  0  0  0  0  0
    3.2866    0.4139   -2.1884 C   0  0  0  0  0  0  0  0  0  0  0  0
    2.1103   -0.3406   -2.1990 C   0  0  0  0  0  0  0  0  0  0  0  0
   -1.6215   -2.3439   -0.5954 C   0  0  0  0  0  0  0  0  0  0  0  0
   -1.9103   -3.5767   -1.1372 N   0  0  0  0  0  0  0  0  0  0  0  0
   -3.1719   -3.7994   -0.8187 C   0  0  0  0  0  0  0  0  0  0  0  0
   -3.7113   -2.7652   -0.0945 N   0  0  0  0  0  0  0  0  0  0  0  0
   -5.0573   -2.6929    0.4060 C   0  0  0  0  0  0  0  0  0  0  0  0
   -2.7291   -1.8398    0.0365 C   0  0  0  0  0  0  0  0  0  0  0  0
   -3.4577   -0.3362    1.2824 H   0  0  0  0  0  0  0  0  0  0  0  0
   -0.6053    1.5894    1.3208 H   0  0  0  0  0  0  0  0  0  0  0  0
   -3.5190    1.8776    0.9091 H   0  0  0  0  0  0  0  0  0  0  0  0
   -2.2332    2.7050    0.0001 H   0  0  0  0  0  0  0  0  0  0  0  0
   -1.4804    3.8140    2.1434 H   0  0  0  0  0  0  0  0  0  0  0  0
   -3.1907    4.1673    1.8118 H   0  0  0  0  0  0  0  0  0  0  0  0
   -2.2883    2.0066    3.4050 H   0  0  0  0  0  0  0  0  0  0  0  0
    2.5486   -2.0885    0.6735 H   0  0  0  0  0  0  0  0  0  0  0  0
    4.6293   -0.7582    0.7137 H   0  0  0  0  0  0  0  0  0  0  0  0
    6.2748    0.5263   -0.6389 H   0  0  0  0  0  0  0  0  0  0  0  0
    5.8076    1.2835   -2.1485 H   0  0  0  0  0  0  0  0  0  0  0  0
    4.4983    3.0240   -0.8808 H   0  0  0  0  0  0  0  0  0  0  0  0
    6.2026    2.9937   -0.3958 H   0  0  0  0  0  0  0  0  0  0  0  0
    4.9704    2.2588    0.6445 H   0  0  0  0  0  0  0  0  0  0  0  0
    3.4788    1.1061   -3.0042 H   0  0  0  0  0  0  0  0  0  0  0  0
    1.4056   -0.2375   -3.0189 H   0  0  0  0  0  0  0  0  0  0  0  0
   -3.7344   -4.6854   -1.0847 H   0  0  0  0  0  0  0  0  0  0  0  0
   -5.6099   -3.5873    0.1072 H   0  0  0  0  0  0  0  0  0  0  0  0
   -5.5370   -1.8046   -0.0129 H   0  0  0  0  0  0  0  0  0  0  0  0
   -5.0187   -2.6281    1.4963 H   0  0  0  0  0  0  0  0  0  0  0  0
  1  2  1  0
  2  3  1  0
  3  4  1  0
  4  5  1  0
  5  6  1  0
  2  7  2  0
  7  8  1  0
  8  9  2  3
  9 10  1  0
 10 11  2  0
 11 12  1  0
 12 13  2  0
 13 14  1  0
 14 15  1  0
 13 16  1  0
 16 17  2  0
  8 18  1  0
 18 19  1  0
 19 20  2  0
 20 21  1  0
 21 22  1  0
 21 23  1  0
 23  1  1  0
 17 10  1  0
 23 18  2  0
  1 24  1  0
  3 25  1  0
  4 26  1  0
  4 27  1  0
  5 28  1  0
  5 29  1  0
  6 30  1  0
 11 31  1  0
 12 32  1  0
 14 33  1  0
 14 34  1  0
 15 35  1  0
 15 36  1  0
 15 37  1  0
 16 38  1  0
 17 39  1  0
 20 40  1  0
 22 41  1  0
 22 42  1  0
 22 43  1  0
M  END
>  <ScrubInfo>  (5) 
{"isomerGroup": 0, "isomerId": 4, "confId": 0, "nr_conformers:": 1, "nr_isomers:": 6}

$$$$
_i5
     RDKit          3D

 43 45  0  0  0  0  0  0  0  0999 V2000
   -3.3269   -0.8839    0.6522 N   0  0  0  0  0  0  0  0  0  0  0  0
   -2.4243    0.1490    0.4723 C   0  0  0  0  0  0  0  0  0  0  0  0
   -2.8866    1.3542    0.4462 N   0  0  0  0  0  0  0  0  0  0  0  0
   -1.9660    2.4739    0.2704 C   0  0  0  0  0  0  0  0  0  0  0  0
   -1.7155    2.7484   -1.2111 C   0  0  0  0  0  0  0  0  0  0  0  0
   -0.8106    3.8354   -1.3672 O   0  0  0  0  0  0  0  0  0  0  0  0
   -1.1120   -0.2758    0.3326 N   0  0  0  0  0  0  0  0  0  0  0  0
   -0.5673   -1.5554    0.3396 C   0  0  0  0  0  0  0  0  0  0  0  0
    0.6637   -1.9320    0.1979 N   0  0  0  0  0  0  0  0  0  0  0  0
    1.6339   -0.9421    0.0065 C   0  0  0  0  0  0  0  0  0  0  0  0
    1.9146   -0.4636   -1.2747 C   0  0  0  0  0  0  0  0  0  0  0  0
    2.8553    0.5519   -1.4599 C   0  0  0  0  0  0  0  0  0  0  0  0
    3.5358    1.0957   -0.3629 C   0  0  0  0  0  0  0  0  0  0  0  0
    4.5652    2.1787   -0.5631 C   0  0  0  0  0  0  0  0  0  0  0  0
    5.9531    1.6035   -0.8003 C   0  0  0  0  0  0  0  0  0  0  0  0
    3.2736    0.5922    0.9178 C   0  0  0  0  0  0  0  0  0  0  0  0
    2.3301   -0.4217    1.0983 C   0  0  0  0  0  0  0  0  0  0  0  0
   -1.6030   -2.5622    0.5394 C   0  0  0  0  0  0  0  0  0  0  0  0
   -1.5113   -3.9316    0.6163 N   0  0  0  0  0  0  0  0  0  0  0  0
   -2.7506   -4.3437    0.8032 C   0  0  0  0  0  0  0  0  0  0  0  0
   -3.6397   -3.2994    0.8503 N   0  0  0  0  0  0  0  0  0  0  0  0
   -5.0612   -3.4074    1.0412 C   0  0  0  0  0  0  0  0  0  0  0  0
   -2.9121   -2.1648    0.6824 C   0  0  0  0  0  0  0  0  0  0  0  0
   -4.2900   -0.5897    0.7589 H   0  0  0  0  0  0  0  0  0  0  0  0
   -2.4166    3.3643    0.7257 H   0  0  0  0  0  0  0  0  0  0  0  0
   -1.0220    2.3381    0.8118 H   0  0  0  0  0  0  0  0  0  0  0  0
   -1.2751    1.8746   -1.7012 H   0  0  0  0  0  0  0  0  0  0  0  0
   -2.6481    2.9871   -1.7333 H   0  0  0  0  0  0  0  0  0  0  0  0
   -1.2641    4.6350   -1.0479 H   0  0  0  0  0  0  0  0  0  0  0  0
   -0.4246    0.4471    0.1906 H   0  0  0  0  0  0  0  0  0  0  0  0
    1.3978   -0.8866   -2.1322 H   0  0  0  0  0  0  0  0  0  0  0  0
    3.0576    0.9113   -2.4664 H   0  0  0  0  0  0  0  0  0  0  0  0
    4.2754    2.8103   -1.4117 H   0  0  0  0  0  0  0  0  0  0  0  0
    4.5818    2.8379    0.3134 H   0  0  0  0  0  0  0  0  0  0  0  0
    6.2826    0.9969    0.0501 H   0  0  0  0  0  0  0  0  0  0  0  0
    5.9732    0.9692   -1.6929 H   0  0  0  0  0  0  0  0  0  0  0  0
    6.6782    2.4112   -0.9418 H   0  0  0  0  0  0  0  0  0  0  0  0
    3.8072    0.9811    1.7821 H   0  0  0  0  0  0  0  0  0  0  0  0
    2.1366   -0.8127    2.0938 H   0  0  0  0  0  0  0  0  0  0  0  0
   -3.0539   -5.3775    0.9096 H   0  0  0  0  0  0  0  0  0  0  0  0
   -5.5622   -2.9767    0.1705 H   0  0  0  0  0  0  0  0  0  0  0  0
   -5.3324   -2.8609    1.9480 H   0  0  0  0  0  0  0  0  0  0  0  0
   -5.3398   -4.4590    1.1457 H   0  0  0  0  0  0  0  0  0  0  0  0
  1  2  1  0
  2  3  2  3
  3  4  1  0
  4  5  1  0
  5  6  1  0
  2  7  1  0
  7  8  1  0
  8  9  2  3
  9 10  1  0
 10 11  2  0
 11 12  1  0
 12 13  2  0
 13 14  1  0
 14 15  1  0
 13 16  1  0
 16 17  2  0
  8 18  1  0
 18 19  1  0
 19 20  2  0
 20 21  1  0
 21 22  1  0
 21 23  1  0
 23  1  1  0
 17 10  1  0
 23 18  2  0
  1 24  1  0
  4 25  1  0
  4 26  1  0
  5 27  1  0
  5 28  1  0
  6 29  1  0
  7 30  1  0
 11 31  1  0
 12 32  1  0
 14 33  1  0
 14 34  1  0
 15 35  1  0
 15 36  1  0
 15 37  1  0
 16 38  1  0
 17 39  1  0
 20 40  1  0
 22 41  1  0
 22 42  1  0
 22 43  1  0
M  END
>  <ScrubInfo>  (6) 
{"isomerGroup": 0, "isomerId": 5, "confId": 0, "nr_conformers:": 1, "nr_isomers:": 6}

$$$$
