REMARK SMILES COc1ccc(Nc2nc(NCC[NH+]3CCOCC3)nc3nccnc23)cc1
REMARK SMILES IDX 10 1 9 2 20 3 8 4 21 5 26 6 22 7 25 8 23 9 24 10 11 11 12 13
REMARK SMILES IDX 13 14 14 15 15 16 19 17 16 18 18 19 17 20 7 22 6 24 5 25
REMARK SMILES IDX 27 26 4 27 28 28 3 29 2 30 1 31
REMARK H PARENT 11 12 14 21 7 23
ROOT
ATOM      1  C   UNL     1      -6.706   1.494  -5.013  1.00  0.00     0.227 A 
ATOM      2  N   UNL     1      -7.018   0.940  -6.172  1.00  0.00    -0.193 NA
ATOM      3  N   UNL     1      -7.403   2.456  -4.427  1.00  0.00    -0.191 NA
ATOM      4  C   UNL     1      -8.105   1.421  -6.820  1.00  0.00     0.164 A 
ATOM      5  C   UNL     1      -8.488   2.899  -5.050  1.00  0.00     0.185 A 
ATOM      6  C   UNL     1      -8.931   2.420  -6.291  1.00  0.00     0.150 A 
ATOM      7  N   UNL     1      -9.164   3.848  -4.398  1.00  0.00    -0.233 NA
ATOM      8  N   UNL     1     -10.079   2.904  -6.860  1.00  0.00    -0.247 NA
ATOM      9  C   UNL     1     -10.295   4.320  -4.976  1.00  0.00     0.133 A 
ATOM     10  C   UNL     1     -10.749   3.856  -6.186  1.00  0.00     0.132 A 
ENDROOT
BRANCH   1  11
ATOM     11  N   UNL     1      -5.617   0.961  -4.325  1.00  0.00    -0.348 N 
ATOM     12  H   UNL     1      -5.231   0.288  -4.994  1.00  0.00     0.163 HD
BRANCH  11  13
ATOM     13  C   UNL     1      -4.614   1.966  -3.932  1.00  0.00     0.177 C 
BRANCH  13  14
ATOM     14  C   UNL     1      -5.058   2.834  -2.727  1.00  0.00     0.283 C 
BRANCH  14  15
ATOM     15  N   UNL     1      -5.989   2.051  -1.822  1.00  0.00    -0.330 N 
ATOM     16  C   UNL     1      -5.323   1.049  -0.905  1.00  0.00     0.291 C 
ATOM     17  C   UNL     1      -6.984   2.907  -1.060  1.00  0.00     0.291 C 
ATOM     18  C   UNL     1      -4.740   1.756   0.325  1.00  0.00     0.221 C 
ATOM     19  C   UNL     1      -6.305   3.535   0.161  1.00  0.00     0.221 C 
ATOM     20  O   UNL     1      -5.736   2.528   1.007  1.00  0.00    -0.370 OA
ATOM     21  H   UNL     1      -6.553   1.506  -2.499  1.00  0.00     0.348 HD
ENDBRANCH  14  15
ENDBRANCH  13  14
ENDBRANCH  11  13
ENDBRANCH   1  11
BRANCH   4  22
ATOM     22  N   UNL     1      -8.363   0.773  -8.042  1.00  0.00    -0.338 N 
ATOM     23  H   UNL     1      -7.688   0.022  -8.160  1.00  0.00     0.168 HD
BRANCH  22  24
ATOM     24  C   UNL     1      -8.748   1.285  -9.298  1.00  0.00     0.040 A 
ATOM     25  C   UNL     1      -8.726   2.642  -9.632  1.00  0.00     0.030 A 
ATOM     26  C   UNL     1      -9.177   0.376 -10.274  1.00  0.00     0.030 A 
ATOM     27  C   UNL     1      -9.120   3.083 -10.904  1.00  0.00     0.048 A 
ATOM     28  C   UNL     1      -9.570   0.813 -11.543  1.00  0.00     0.048 A 
ATOM     29  C   UNL     1      -9.544   2.169 -11.866  1.00  0.00     0.119 A 
BRANCH  29  30
ATOM     30  O   UNL     1      -9.951   2.463 -13.136  1.00  0.00    -0.497 OA
ATOM     31  C   UNL     1      -9.968   3.835 -13.508  1.00  0.00     0.278 C 
ENDBRANCH  29  30
ENDBRANCH  22  24
ENDBRANCH   4  22
TORSDOF 7
