_i0
     RDKit          3D

 52 55  0  0  0  0  0  0  0  0999 V2000
   -5.0582    2.8340   -2.7273 C   0  0  0  0  0  0  0  0  0  0  0  0
   -5.9894    2.0511   -1.8223 N   0  0  0  0  0  4  0  0  0  0  0  0
   -5.3234    1.0494   -0.9048 C   0  0  0  0  0  0  0  0  0  0  0  0
   -6.9839    2.9070   -1.0599 C   0  0  0  0  0  0  0  0  0  0  0  0
   -4.6144    1.9659   -3.9316 C   0  0  0  0  0  0  0  0  0  0  0  0
   -5.6173    0.9609   -4.3246 N   0  0  0  0  0  0  0  0  0  0  0  0
   -6.7059    1.4944   -5.0130 C   0  0  0  0  0  0  0  0  0  0  0  0
   -7.0177    0.9402   -6.1720 N   0  0  0  0  0  0  0  0  0  0  0  0
   -7.4034    2.4563   -4.4271 N   0  0  0  0  0  0  0  0  0  0  0  0
   -8.1049    1.4208   -6.8204 C   0  0  0  0  0  0  0  0  0  0  0  0
   -8.4880    2.8986   -5.0497 C   0  0  0  0  0  0  0  0  0  0  0  0
   -8.3627    0.7732   -8.0419 N   0  0  0  0  0  0  0  0  0  0  0  0
   -8.9307    2.4203   -6.2914 C   0  0  0  0  0  0  0  0  0  0  0  0
   -9.1642    3.8483   -4.3984 N   0  0  0  0  0  0  0  0  0  0  0  0
   -8.7477    1.2848   -9.2983 C   0  0  0  0  0  0  0  0  0  0  0  0
  -10.0786    2.9041   -6.8597 N   0  0  0  0  0  0  0  0  0  0  0  0
  -10.2948    4.3203   -4.9755 C   0  0  0  0  0  0  0  0  0  0  0  0
   -8.7265    2.6419   -9.6319 C   0  0  0  0  0  0  0  0  0  0  0  0
   -9.1769    0.3760  -10.2745 C   0  0  0  0  0  0  0  0  0  0  0  0
  -10.7490    3.8556   -6.1863 C   0  0  0  0  0  0  0  0  0  0  0  0
   -9.1203    3.0832  -10.9042 C   0  0  0  0  0  0  0  0  0  0  0  0
   -9.5697    0.8131  -11.5429 C   0  0  0  0  0  0  0  0  0  0  0  0
   -9.5442    2.1689  -11.8656 C   0  0  0  0  0  0  0  0  0  0  0  0
   -9.9511    2.4630  -13.1362 O   0  0  0  0  0  0  0  0  0  0  0  0
   -9.9681    3.8354  -13.5077 C   0  0  0  0  0  0  0  0  0  0  0  0
   -4.7397    1.7560    0.3253 C   0  0  0  0  0  0  0  0  0  0  0  0
   -5.7358    2.5277    1.0074 O   0  0  0  0  0  0  0  0  0  0  0  0
   -6.3051    3.5352    0.1608 C   0  0  0  0  0  0  0  0  0  0  0  0
   -5.6084    3.7099   -3.0864 H   0  0  0  0  0  0  0  0  0  0  0  0
   -4.2038    3.1864   -2.1417 H   0  0  0  0  0  0  0  0  0  0  0  0
   -6.5529    1.5063   -2.4993 H   0  0  0  0  0  0  0  0  0  0  0  0
   -6.1121    0.3503   -0.6064 H   0  0  0  0  0  0  0  0  0  0  0  0
   -4.5603    0.5099   -1.4726 H   0  0  0  0  0  0  0  0  0  0  0  0
   -7.7840    2.2263   -0.7492 H   0  0  0  0  0  0  0  0  0  0  0  0
   -7.3951    3.6573   -1.7411 H   0  0  0  0  0  0  0  0  0  0  0  0
   -4.3270    2.6016   -4.7783 H   0  0  0  0  0  0  0  0  0  0  0  0
   -3.7113    1.4179   -3.6374 H   0  0  0  0  0  0  0  0  0  0  0  0
   -5.2312    0.2880   -4.9935 H   0  0  0  0  0  0  0  0  0  0  0  0
   -7.6879    0.0219   -8.1600 H   0  0  0  0  0  0  0  0  0  0  0  0
  -10.8290    5.0890   -4.4271 H   0  0  0  0  0  0  0  0  0  0  0  0
   -8.3923    3.3877   -8.9183 H   0  0  0  0  0  0  0  0  0  0  0  0
   -9.2232   -0.6874  -10.0518 H   0  0  0  0  0  0  0  0  0  0  0  0
  -11.6561    4.2283   -6.6489 H   0  0  0  0  0  0  0  0  0  0  0  0
   -9.0821    4.1479  -11.1080 H   0  0  0  0  0  0  0  0  0  0  0  0
   -9.9036    0.0896  -12.2829 H   0  0  0  0  0  0  0  0  0  0  0  0
  -10.3255    3.8982  -14.5400 H   0  0  0  0  0  0  0  0  0  0  0  0
   -8.9612    4.2645  -13.4769 H   0  0  0  0  0  0  0  0  0  0  0  0
  -10.6606    4.4059  -12.8799 H   0  0  0  0  0  0  0  0  0  0  0  0
   -4.3607    1.0094    1.0303 H   0  0  0  0  0  0  0  0  0  0  0  0
   -3.9016    2.4084    0.0564 H   0  0  0  0  0  0  0  0  0  0  0  0
   -5.5230    4.2443   -0.1338 H   0  0  0  0  0  0  0  0  0  0  0  0
   -7.0451    4.0836    0.7519 H   0  0  0  0  0  0  0  0  0  0  0  0
  1  2  1  0
  2  3  1  0
  2  4  1  0
  5  1  1  0
  6  5  1  0
  7  6  1  0
  8  7  2  0
  7  9  1  0
 10  8  1  0
  9 11  2  0
 12 10  1  0
 13 10  2  0
 11 14  1  0
 13 11  1  0
 15 12  1  0
 16 13  1  0
 14 17  2  0
 18 15  2  0
 15 19  1  0
 20 16  2  0
 17 20  1  0
 21 18  1  0
 19 22  2  0
 23 21  2  0
 22 23  1  0
 24 23  1  0
 25 24  1  0
  3 26  1  0
 26 27  1  0
 27 28  1  0
 28  4  1  0
  1 29  1  0
  1 30  1  0
  2 31  1  0
  3 32  1  0
  3 33  1  0
  4 34  1  0
  4 35  1  0
  5 36  1  0
  5 37  1  0
  6 38  1  0
 12 39  1  0
 17 40  1  0
 18 41  1  0
 19 42  1  0
 20 43  1  0
 21 44  1  0
 22 45  1  0
 25 46  1  0
 25 47  1  0
 25 48  1  0
 26 49  1  0
 26 50  1  0
 28 51  1  0
 28 52  1  0
M  CHG  1   2   1
M  END
>  <ScrubInfo>  (1) 
{"isomerGroup": 0, "isomerId": 0, "confId": 0, "nr_conformers:": 1, "nr_isomers:": 9}

$$$$
_i1
     RDKit          3D

 52 55  0  0  0  0  0  0  0  0999 V2000
   -6.0540    1.0307   -6.6528 N   0  0  0  0  0  0  0  0  0  0  0  0
   -5.6262    0.6964   -7.9212 C   0  0  0  0  0  0  0  0  0  0  0  0
   -6.3507    1.0751   -9.0435 N   0  0  0  0  0  0  0  0  0  0  0  0
   -6.9980    2.3053   -9.2739 C   0  0  0  0  0  0  0  0  0  0  0  0
   -7.9803    2.3615  -10.2687 C   0  0  0  0  0  0  0  0  0  0  0  0
   -8.6691    3.5495  -10.5292 C   0  0  0  0  0  0  0  0  0  0  0  0
   -8.3824    4.7099   -9.8107 C   0  0  0  0  0  0  0  0  0  0  0  0
   -9.1236    5.8008  -10.1660 O   0  0  0  0  0  0  0  0  0  0  0  0
   -8.7774    7.0427   -9.5659 C   0  0  0  0  0  0  0  0  0  0  0  0
   -7.4020    4.6686   -8.8217 C   0  0  0  0  0  0  0  0  0  0  0  0
   -6.7183    3.4737   -8.5553 C   0  0  0  0  0  0  0  0  0  0  0  0
   -4.5191   -0.0732   -8.0562 C   0  0  0  0  0  0  0  0  0  0  0  0
   -4.0357   -0.4860   -9.2793 N   0  0  0  0  0  0  0  0  0  0  0  0
   -2.9469   -1.1803   -9.2288 C   0  0  0  0  0  0  0  0  0  0  0  0
   -2.2565   -1.5132   -7.9469 C   0  0  0  0  0  0  0  0  0  0  0  0
   -2.7040   -1.1493   -6.7931 N   0  0  0  0  0  0  0  0  0  0  0  0
   -3.8693   -0.4239   -6.7390 C   0  0  0  0  0  0  0  0  0  0  0  0
   -4.2954   -0.1138   -5.5596 N   0  0  0  0  0  0  0  0  0  0  0  0
   -5.4576    0.5985   -5.5068 C   0  0  0  0  0  0  0  0  0  0  0  0
   -5.8571    0.7796   -4.2994 N   0  0  0  0  0  0  0  0  0  0  0  0
   -7.0841    1.5299   -4.0341 C   0  0  0  0  0  0  0  0  0  0  0  0
   -7.3905    1.3429   -2.5346 C   0  0  0  0  0  0  0  0  0  0  0  0
   -6.0709    1.2103   -1.7946 N   0  0  0  0  0  4  0  0  0  0  0  0
   -6.0986    0.3048   -0.5852 C   0  0  0  0  0  0  0  0  0  0  0  0
   -6.7070    1.0476    0.6083 C   0  0  0  0  0  0  0  0  0  0  0  0
   -5.9804    2.2516    0.8890 O   0  0  0  0  0  0  0  0  0  0  0  0
   -5.9932    3.1552   -0.2237 C   0  0  0  0  0  0  0  0  0  0  0  0
   -5.3753    2.5162   -1.4740 C   0  0  0  0  0  0  0  0  0  0  0  0
   -6.9652    1.4632   -6.6369 H   0  0  0  0  0  0  0  0  0  0  0  0
   -5.9486    0.6887   -9.9026 H   0  0  0  0  0  0  0  0  0  0  0  0
   -8.2291    1.4734  -10.8453 H   0  0  0  0  0  0  0  0  0  0  0  0
   -9.4322    3.5704  -11.3042 H   0  0  0  0  0  0  0  0  0  0  0  0
   -8.9615    7.0214   -8.4868 H   0  0  0  0  0  0  0  0  0  0  0  0
   -7.7389    7.3126   -9.7843 H   0  0  0  0  0  0  0  0  0  0  0  0
   -9.4210    7.8146   -9.9987 H   0  0  0  0  0  0  0  0  0  0  0  0
   -7.1369    5.5498   -8.2471 H   0  0  0  0  0  0  0  0  0  0  0  0
   -5.9331    3.4889   -7.8048 H   0  0  0  0  0  0  0  0  0  0  0  0
   -2.4633   -1.5673  -10.1392 H   0  0  0  0  0  0  0  0  0  0  0  0
   -1.3288   -2.0967   -8.0501 H   0  0  0  0  0  0  0  0  0  0  0  0
   -6.9238    2.5926   -4.2470 H   0  0  0  0  0  0  0  0  0  0  0  0
   -7.9334    1.1731   -4.6265 H   0  0  0  0  0  0  0  0  0  0  0  0
   -7.9303    0.4004   -2.3932 H   0  0  0  0  0  0  0  0  0  0  0  0
   -7.9737    2.1638   -2.1090 H   0  0  0  0  0  0  0  0  0  0  0  0
   -5.4776    0.7414   -2.5148 H   0  0  0  0  0  0  0  0  0  0  0  0
   -6.6536   -0.6020   -0.8426 H   0  0  0  0  0  0  0  0  0  0  0  0
   -5.0543    0.0416   -0.3846 H   0  0  0  0  0  0  0  0  0  0  0  0
   -6.6559    0.4158    1.5005 H   0  0  0  0  0  0  0  0  0  0  0  0
   -7.7608    1.2938    0.4343 H   0  0  0  0  0  0  0  0  0  0  0  0
   -5.4122    4.0379    0.0614 H   0  0  0  0  0  0  0  0  0  0  0  0
   -7.0222    3.4845   -0.4057 H   0  0  0  0  0  0  0  0  0  0  0  0
   -5.4407    3.1702   -2.3480 H   0  0  0  0  0  0  0  0  0  0  0  0
   -4.3259    2.2580   -1.2943 H   0  0  0  0  0  0  0  0  0  0  0  0
  1  2  1  0
  2  3  1  0
  3  4  1  0
  4  5  2  0
  5  6  1  0
  6  7  2  0
  7  8  1  0
  8  9  1  0
  7 10  1  0
 10 11  2  0
  2 12  2  0
 12 13  1  0
 13 14  2  0
 14 15  1  0
 15 16  2  0
 16 17  1  0
 17 18  2  0
 18 19  1  0
 19 20  2  3
 20 21  1  0
 21 22  1  0
 22 23  1  0
 23 24  1  0
 24 25  1  0
 25 26  1  0
 26 27  1  0
 27 28  1  0
 19  1  1  0
 28 23  1  0
 11  4  1  0
 17 12  1  0
  1 29  1  0
  3 30  1  0
  5 31  1  0
  6 32  1  0
  9 33  1  0
  9 34  1  0
  9 35  1  0
 10 36  1  0
 11 37  1  0
 14 38  1  0
 15 39  1  0
 21 40  1  0
 21 41  1  0
 22 42  1  0
 22 43  1  0
 23 44  1  0
 24 45  1  0
 24 46  1  0
 25 47  1  0
 25 48  1  0
 27 49  1  0
 27 50  1  0
 28 51  1  0
 28 52  1  0
M  CHG  1  23   1
M  END
>  <ScrubInfo>  (2) 
{"isomerGroup": 0, "isomerId": 1, "confId": 0, "nr_conformers:": 1, "nr_isomers:": 9}

$$$$
_i2
     RDKit          3D

 52 55  0  0  0  0  0  0  0  0999 V2000
   -1.0792    1.9769   -0.8867 N   0  0  0  0  0  0  0  0  0  0  0  0
    0.1663    1.5317   -0.5686 C   0  0  0  0  0  0  0  0  0  0  0  0
    0.4823    0.3007   -1.0749 N   0  0  0  0  0  0  0  0  0  0  0  0
    1.7014   -0.3845   -0.6450 C   0  0  0  0  0  0  0  0  0  0  0  0
    2.9811    0.3076   -1.1779 C   0  0  0  0  0  0  0  0  0  0  0  0
    4.0940    0.3832   -0.1384 N   0  0  0  0  0  4  0  0  0  0  0  0
    5.4437    0.6553   -0.7995 C   0  0  0  0  0  0  0  0  0  0  0  0
    6.5364    0.7410    0.2703 C   0  0  0  0  0  0  0  0  0  0  0  0
    6.2441    1.7695    1.2192 O   0  0  0  0  0  0  0  0  0  0  0  0
    5.0084    1.5292    1.9010 C   0  0  0  0  0  0  0  0  0  0  0  0
    3.8294    1.4663    0.9222 C   0  0  0  0  0  0  0  0  0  0  0  0
    1.0105    2.2151    0.1431 N   0  0  0  0  0  0  0  0  0  0  0  0
    0.5637    3.4698    0.6086 C   0  0  0  0  0  0  0  0  0  0  0  0
    1.4809    4.1267    1.3594 N   0  0  0  0  0  0  0  0  0  0  0  0
    1.0767    5.3393    1.8213 C   0  0  0  0  0  0  0  0  0  0  0  0
   -0.1778    5.8758    1.5515 C   0  0  0  0  0  0  0  0  0  0  0  0
   -1.0992    5.2295    0.8040 N   0  0  0  0  0  0  0  0  0  0  0  0
   -0.6988    4.0189    0.3430 C   0  0  0  0  0  0  0  0  0  0  0  0
   -1.6159    3.1932   -0.5010 C   0  0  0  0  0  0  0  0  0  0  0  0
   -2.7948    3.6499   -0.8075 N   0  0  0  0  0  0  0  0  0  0  0  0
   -3.6525    2.8710   -1.5913 C   0  0  0  0  0  0  0  0  0  0  0  0
   -4.4495    1.8854   -1.0084 C   0  0  0  0  0  0  0  0  0  0  0  0
   -5.2815    1.0942   -1.8034 C   0  0  0  0  0  0  0  0  0  0  0  0
   -5.3434    1.2932   -3.1850 C   0  0  0  0  0  0  0  0  0  0  0  0
   -6.1908    0.4490   -3.8462 O   0  0  0  0  0  0  0  0  0  0  0  0
   -6.4576    0.7470   -5.2118 C   0  0  0  0  0  0  0  0  0  0  0  0
   -4.5635    2.2928   -3.7669 C   0  0  0  0  0  0  0  0  0  0  0  0
   -3.7255    3.0804   -2.9693 C   0  0  0  0  0  0  0  0  0  0  0  0
   -1.6400    1.4353   -1.5293 H   0  0  0  0  0  0  0  0  0  0  0  0
   -0.3130   -0.3262   -1.1761 H   0  0  0  0  0  0  0  0  0  0  0  0
    1.7040   -0.4756    0.4467 H   0  0  0  0  0  0  0  0  0  0  0  0
    1.6732   -1.4076   -1.0381 H   0  0  0  0  0  0  0  0  0  0  0  0
    2.8163    1.3232   -1.5525 H   0  0  0  0  0  0  0  0  0  0  0  0
    3.3755   -0.2918   -2.0070 H   0  0  0  0  0  0  0  0  0  0  0  0
    4.1601   -0.5182    0.3485 H   0  0  0  0  0  0  0  0  0  0  0  0
    5.3440    1.6013   -1.3428 H   0  0  0  0  0  0  0  0  0  0  0  0
    5.6396   -0.1659   -1.4954 H   0  0  0  0  0  0  0  0  0  0  0  0
    6.6546   -0.2143    0.7950 H   0  0  0  0  0  0  0  0  0  0  0  0
    7.4944    0.9842   -0.1997 H   0  0  0  0  0  0  0  0  0  0  0  0
    5.0912    0.6004    2.4777 H   0  0  0  0  0  0  0  0  0  0  0  0
    4.8547    2.3485    2.6103 H   0  0  0  0  0  0  0  0  0  0  0  0
    2.9180    1.1922    1.4560 H   0  0  0  0  0  0  0  0  0  0  0  0
    3.7205    2.4124    0.3836 H   0  0  0  0  0  0  0  0  0  0  0  0
    1.7971    5.8820    2.4253 H   0  0  0  0  0  0  0  0  0  0  0  0
   -0.4737    6.8476    1.9340 H   0  0  0  0  0  0  0  0  0  0  0  0
   -4.4322    1.7412    0.0684 H   0  0  0  0  0  0  0  0  0  0  0  0
   -5.9029    0.3305   -1.3412 H   0  0  0  0  0  0  0  0  0  0  0  0
   -6.8603    1.7589   -5.3269 H   0  0  0  0  0  0  0  0  0  0  0  0
   -5.5616    0.6058   -5.8249 H   0  0  0  0  0  0  0  0  0  0  0  0
   -7.2173    0.0432   -5.5652 H   0  0  0  0  0  0  0  0  0  0  0  0
   -4.5881    2.4906   -4.8335 H   0  0  0  0  0  0  0  0  0  0  0  0
   -3.1330    3.8708   -3.4232 H   0  0  0  0  0  0  0  0  0  0  0  0
  1  2  1  0
  2  3  1  0
  3  4  1  0
  4  5  1  0
  5  6  1  0
  6  7  1  0
  7  8  1  0
  8  9  1  0
  9 10  1  0
 10 11  1  0
  2 12  2  0
 12 13  1  0
 13 14  2  0
 14 15  1  0
 15 16  2  0
 16 17  1  0
 17 18  2  0
 18 19  1  0
 19 20  2  3
 20 21  1  0
 21 22  2  0
 22 23  1  0
 23 24  2  0
 24 25  1  0
 25 26  1  0
 24 27  1  0
 27 28  2  0
 19  1  1  0
 28 21  1  0
 11  6  1  0
 18 13  1  0
  1 29  1  0
  3 30  1  0
  4 31  1  0
  4 32  1  0
  5 33  1  0
  5 34  1  0
  6 35  1  0
  7 36  1  0
  7 37  1  0
  8 38  1  0
  8 39  1  0
 10 40  1  0
 10 41  1  0
 11 42  1  0
 11 43  1  0
 15 44  1  0
 16 45  1  0
 22 46  1  0
 23 47  1  0
 26 48  1  0
 26 49  1  0
 26 50  1  0
 27 51  1  0
 28 52  1  0
M  CHG  1   6   1
M  END
>  <ScrubInfo>  (3) 
{"isomerGroup": 0, "isomerId": 2, "confId": 0, "nr_conformers:": 1, "nr_isomers:": 9}

$$$$
_i3
     RDKit          3D

 52 55  0  0  0  0  0  0  0  0999 V2000
  -10.5417    1.5375   -4.8135 N   0  0  0  0  0  0  0  0  0  0  0  0
   -9.3032    2.0292   -4.5502 C   0  0  0  0  0  0  0  0  0  0  0  0
   -8.7765    2.2094   -3.3902 N   0  0  0  0  0  0  0  0  0  0  0  0
   -9.5358    1.8692   -2.1852 C   0  0  0  0  0  0  0  0  0  0  0  0
   -8.7052    2.3683   -0.9867 C   0  0  0  0  0  0  0  0  0  0  0  0
   -7.2347    2.2312   -1.3388 N   0  0  0  0  0  4  0  0  0  0  0  0
   -6.3287    3.2752   -0.7261 C   0  0  0  0  0  0  0  0  0  0  0  0
   -6.0297    2.9163    0.7328 C   0  0  0  0  0  0  0  0  0  0  0  0
   -5.4424    1.6120    0.8300 O   0  0  0  0  0  0  0  0  0  0  0  0
   -6.3111    0.5950    0.3152 C   0  0  0  0  0  0  0  0  0  0  0  0
   -6.6537    0.8434   -1.1594 C   0  0  0  0  0  0  0  0  0  0  0  0
   -8.4382    2.3881   -5.5519 N   0  0  0  0  0  0  0  0  0  0  0  0
   -8.8106    2.2737   -6.8052 C   0  0  0  0  0  0  0  0  0  0  0  0
   -7.8965    2.6533   -7.7699 N   0  0  0  0  0  0  0  0  0  0  0  0
   -7.4362    1.8286   -8.8262 C   0  0  0  0  0  0  0  0  0  0  0  0
   -6.6923    2.4250   -9.8544 C   0  0  0  0  0  0  0  0  0  0  0  0
   -6.1947    1.6700  -10.9243 C   0  0  0  0  0  0  0  0  0  0  0  0
   -6.4317    0.2990  -10.9802 C   0  0  0  0  0  0  0  0  0  0  0  0
   -6.0063   -0.5548  -11.9587 O   0  0  0  0  0  0  0  0  0  0  0  0
   -5.2923    0.0176  -13.0477 C   0  0  0  0  0  0  0  0  0  0  0  0
   -7.1667   -0.3036   -9.9586 C   0  0  0  0  0  0  0  0  0  0  0  0
   -7.6653    0.4514   -8.8913 C   0  0  0  0  0  0  0  0  0  0  0  0
  -10.1851    1.8139   -7.1770 C   0  0  0  0  0  0  0  0  0  0  0  0
  -10.5755    1.7939   -8.4740 N   0  0  0  0  0  0  0  0  0  0  0  0
  -11.8413    1.3669   -8.6743 C   0  0  0  0  0  0  0  0  0  0  0  0
  -12.6700    0.9892   -7.6272 C   0  0  0  0  0  0  0  0  0  0  0  0
  -12.2743    1.0241   -6.3278 N   0  0  0  0  0  0  0  0  0  0  0  0
  -11.0096    1.4522   -6.1161 C   0  0  0  0  0  0  0  0  0  0  0  0
  -11.2137    1.2844   -4.1104 H   0  0  0  0  0  0  0  0  0  0  0  0
   -9.6609    0.7827   -2.1171 H   0  0  0  0  0  0  0  0  0  0  0  0
  -10.5235    2.3423   -2.1667 H   0  0  0  0  0  0  0  0  0  0  0  0
   -8.8977    3.4359   -0.8362 H   0  0  0  0  0  0  0  0  0  0  0  0
   -8.9169    1.8260   -0.0614 H   0  0  0  0  0  0  0  0  0  0  0  0
   -7.2519    2.4038   -2.3675 H   0  0  0  0  0  0  0  0  0  0  0  0
   -5.4103    3.2611   -1.3232 H   0  0  0  0  0  0  0  0  0  0  0  0
   -6.8075    4.2534   -0.8282 H   0  0  0  0  0  0  0  0  0  0  0  0
   -6.9347    2.9525    1.3500 H   0  0  0  0  0  0  0  0  0  0  0  0
   -5.3143    3.6324    1.1490 H   0  0  0  0  0  0  0  0  0  0  0  0
   -5.7919   -0.3635    0.4138 H   0  0  0  0  0  0  0  0  0  0  0  0
   -7.2125    0.5454    0.9361 H   0  0  0  0  0  0  0  0  0  0  0  0
   -7.3694    0.1128   -1.5466 H   0  0  0  0  0  0  0  0  0  0  0  0
   -5.7467    0.8197   -1.7733 H   0  0  0  0  0  0  0  0  0  0  0  0
   -7.0940    3.1207   -7.3565 H   0  0  0  0  0  0  0  0  0  0  0  0
   -6.5064    3.4968   -9.8400 H   0  0  0  0  0  0  0  0  0  0  0  0
   -5.6320    2.1858  -11.6953 H   0  0  0  0  0  0  0  0  0  0  0  0
   -5.9084    0.7464  -13.5848 H   0  0  0  0  0  0  0  0  0  0  0  0
   -4.3524    0.4665  -12.7097 H   0  0  0  0  0  0  0  0  0  0  0  0
   -5.0446   -0.7881  -13.7455 H   0  0  0  0  0  0  0  0  0  0  0  0
   -7.3551   -1.3741   -9.9948 H   0  0  0  0  0  0  0  0  0  0  0  0
   -8.2222   -0.0662   -8.1176 H   0  0  0  0  0  0  0  0  0  0  0  0
  -12.1770    1.3350   -9.7058 H   0  0  0  0  0  0  0  0  0  0  0  0
  -13.6844    0.6474   -7.8071 H   0  0  0  0  0  0  0  0  0  0  0  0
  1  2  1  0
  2  3  2  3
  3  4  1  0
  4  5  1  0
  5  6  1  0
  6  7  1  0
  7  8  1  0
  8  9  1  0
  9 10  1  0
 10 11  1  0
  2 12  1  0
 12 13  2  0
 13 14  1  0
 14 15  1  0
 15 16  2  0
 16 17  1  0
 17 18  2  0
 18 19  1  0
 19 20  1  0
 18 21  1  0
 21 22  2  0
 13 23  1  0
 23 24  2  0
 24 25  1  0
 25 26  2  0
 26 27  1  0
 27 28  2  0
 28  1  1  0
 11  6  1  0
 22 15  1  0
 28 23  1  0
  1 29  1  0
  4 30  1  0
  4 31  1  0
  5 32  1  0
  5 33  1  0
  6 34  1  0
  7 35  1  0
  7 36  1  0
  8 37  1  0
  8 38  1  0
 10 39  1  0
 10 40  1  0
 11 41  1  0
 11 42  1  0
 14 43  1  0
 16 44  1  0
 17 45  1  0
 20 46  1  0
 20 47  1  0
 20 48  1  0
 21 49  1  0
 22 50  1  0
 25 51  1  0
 26 52  1  0
M  CHG  1   6   1
M  END
>  <ScrubInfo>  (4) 
{"isomerGroup": 0, "isomerId": 3, "confId": 0, "nr_conformers:": 1, "nr_isomers:": 9}

$$$$
_i4
     RDKit          3D

 52 55  0  0  0  0  0  0  0  0999 V2000
   -3.7845   -5.1873   -2.7562 N   0  0  0  0  0  0  0  0  0  0  0  0
   -3.1675   -4.0506   -3.1377 C   0  0  0  0  0  0  0  0  0  0  0  0
   -3.9267   -3.2338   -3.9185 N   0  0  0  0  0  0  0  0  0  0  0  0
   -4.8617   -2.2978   -3.2812 C   0  0  0  0  0  0  0  0  0  0  0  0
   -4.1927   -0.9563   -2.8994 C   0  0  0  0  0  0  0  0  0  0  0  0
   -2.9841   -1.1159   -2.0002 N   0  0  0  0  0  4  0  0  0  0  0  0
   -3.2759   -1.5396   -0.5665 C   0  0  0  0  0  0  0  0  0  0  0  0
   -3.8243   -0.3607    0.2472 C   0  0  0  0  0  0  0  0  0  0  0  0
   -2.9363    0.7611    0.2120 O   0  0  0  0  0  0  0  0  0  0  0  0
   -2.6922    1.2191   -1.1233 C   0  0  0  0  0  0  0  0  0  0  0  0
   -2.0764    0.1099   -1.9822 C   0  0  0  0  0  0  0  0  0  0  0  0
   -1.9787   -3.6634   -2.7974 N   0  0  0  0  0  0  0  0  0  0  0  0
   -1.2180   -4.5327   -2.0143 C   0  0  0  0  0  0  0  0  0  0  0  0
   -0.0397   -4.1786   -1.6008 N   0  0  0  0  0  0  0  0  0  0  0  0
    0.5444   -2.9588   -1.9561 C   0  0  0  0  0  0  0  0  0  0  0  0
    0.8112   -2.6141   -3.2852 C   0  0  0  0  0  0  0  0  0  0  0  0
    1.4265   -1.3973   -3.6023 C   0  0  0  0  0  0  0  0  0  0  0  0
    1.8054   -0.5232   -2.5844 C   0  0  0  0  0  0  0  0  0  0  0  0
    2.3815    0.7025   -2.7636 O   0  0  0  0  0  0  0  0  0  0  0  0
    3.0435    0.9116   -4.0076 C   0  0  0  0  0  0  0  0  0  0  0  0
    1.5706   -0.8767   -1.2543 C   0  0  0  0  0  0  0  0  0  0  0  0
    0.9541   -2.0916   -0.9428 C   0  0  0  0  0  0  0  0  0  0  0  0
   -1.7730   -5.8677   -1.6272 C   0  0  0  0  0  0  0  0  0  0  0  0
   -1.0192   -6.7318   -0.9002 N   0  0  0  0  0  0  0  0  0  0  0  0
   -1.6167   -7.9136   -0.6315 C   0  0  0  0  0  0  0  0  0  0  0  0
   -2.9047   -8.2064   -1.0570 C   0  0  0  0  0  0  0  0  0  0  0  0
   -3.6597   -7.3296   -1.7685 N   0  0  0  0  0  0  0  0  0  0  0  0
   -3.0695   -6.1481   -2.0532 C   0  0  0  0  0  0  0  0  0  0  0  0
   -4.6574   -5.4995   -3.1562 H   0  0  0  0  0  0  0  0  0  0  0  0
   -3.3273   -2.7346   -4.5766 H   0  0  0  0  0  0  0  0  0  0  0  0
   -5.3314   -2.7603   -2.4060 H   0  0  0  0  0  0  0  0  0  0  0  0
   -5.6665   -2.0890   -3.9948 H   0  0  0  0  0  0  0  0  0  0  0  0
   -4.9067   -0.2917   -2.4047 H   0  0  0  0  0  0  0  0  0  0  0  0
   -3.8352   -0.4686   -3.8133 H   0  0  0  0  0  0  0  0  0  0  0  0
   -2.3997   -1.8841   -2.3948 H   0  0  0  0  0  0  0  0  0  0  0  0
   -2.3177   -1.8752   -0.1549 H   0  0  0  0  0  0  0  0  0  0  0  0
   -3.9690   -2.3840   -0.5890 H   0  0  0  0  0  0  0  0  0  0  0  0
   -4.8122   -0.0485   -0.1084 H   0  0  0  0  0  0  0  0  0  0  0  0
   -3.9345   -0.6606    1.2941 H   0  0  0  0  0  0  0  0  0  0  0  0
   -1.9970    2.0621   -1.0600 H   0  0  0  0  0  0  0  0  0  0  0  0
   -3.6275    1.5936   -1.5537 H   0  0  0  0  0  0  0  0  0  0  0  0
   -1.1380   -0.2246   -1.5404 H   0  0  0  0  0  0  0  0  0  0  0  0
   -1.9018    0.4219   -3.0158 H   0  0  0  0  0  0  0  0  0  0  0  0
    0.5537   -3.3076   -4.0820 H   0  0  0  0  0  0  0  0  0  0  0  0
    1.6070   -1.1695   -4.6480 H   0  0  0  0  0  0  0  0  0  0  0  0
    3.7507    0.1043   -4.2268 H   0  0  0  0  0  0  0  0  0  0  0  0
    3.6120    1.8433   -3.9308 H   0  0  0  0  0  0  0  0  0  0  0  0
    2.3168    1.0298   -4.8177 H   0  0  0  0  0  0  0  0  0  0  0  0
    1.8903   -0.2132   -0.4536 H   0  0  0  0  0  0  0  0  0  0  0  0
    0.8111   -2.3738    0.0974 H   0  0  0  0  0  0  0  0  0  0  0  0
   -1.0300   -8.6273   -0.0620 H   0  0  0  0  0  0  0  0  0  0  0  0
   -3.3686   -9.1620   -0.8334 H   0  0  0  0  0  0  0  0  0  0  0  0
  1  2  1  0
  2  3  1  0
  3  4  1  0
  4  5  1  0
  5  6  1  0
  6  7  1  0
  7  8  1  0
  8  9  1  0
  9 10  1  0
 10 11  1  0
  2 12  2  0
 12 13  1  0
 13 14  2  3
 14 15  1  0
 15 16  2  0
 16 17  1  0
 17 18  2  0
 18 19  1  0
 19 20  1  0
 18 21  1  0
 21 22  2  0
 13 23  1  0
 23 24  2  0
 24 25  1  0
 25 26  2  0
 26 27  1  0
 27 28  2  0
 28  1  1  0
 11  6  1  0
 22 15  1  0
 28 23  1  0
  1 29  1  0
  3 30  1  0
  4 31  1  0
  4 32  1  0
  5 33  1  0
  5 34  1  0
  6 35  1  0
  7 36  1  0
  7 37  1  0
  8 38  1  0
  8 39  1  0
 10 40  1  0
 10 41  1  0
 11 42  1  0
 11 43  1  0
 16 44  1  0
 17 45  1  0
 20 46  1  0
 20 47  1  0
 20 48  1  0
 21 49  1  0
 22 50  1  0
 25 51  1  0
 26 52  1  0
M  CHG  1   6   1
M  END
>  <ScrubInfo>  (5) 
{"isomerGroup": 0, "isomerId": 4, "confId": 0, "nr_conformers:": 1, "nr_isomers:": 9}

$$$$
_i5
     RDKit          3D

 52 55  0  0  0  0  0  0  0  0999 V2000
    7.6044   -6.4862    3.1600 N   0  0  0  0  0  0  0  0  0  0  0  0
    8.2016   -7.6699    3.5071 C   0  0  0  0  0  0  0  0  0  0  0  0
    9.1249   -7.7224    4.4812 C   0  0  0  0  0  0  0  0  0  0  0  0
    9.5469   -6.6204    5.1996 N   0  0  0  0  0  0  0  0  0  0  0  0
    8.9797   -5.4777    4.9063 C   0  0  0  0  0  0  0  0  0  0  0  0
    9.4052   -4.2320    5.6382 C   0  0  0  0  0  0  0  0  0  0  0  0
   10.4312   -4.3992    6.5420 N   0  0  0  0  0  0  0  0  0  0  0  0
   11.0215   -3.4847    7.4274 C   0  0  0  0  0  0  0  0  0  0  0  0
   12.1074   -3.9167    8.2042 C   0  0  0  0  0  0  0  0  0  0  0  0
   12.7545   -3.0521    9.0934 C   0  0  0  0  0  0  0  0  0  0  0  0
   12.3371   -1.7301    9.2280 C   0  0  0  0  0  0  0  0  0  0  0  0
   13.0505   -0.9917   10.1288 O   0  0  0  0  0  0  0  0  0  0  0  0
   12.6461    0.3581   10.3205 C   0  0  0  0  0  0  0  0  0  0  0  0
   11.2668   -1.2826    8.4592 C   0  0  0  0  0  0  0  0  0  0  0  0
   10.6206   -2.1527    7.5667 C   0  0  0  0  0  0  0  0  0  0  0  0
    8.7838   -3.1388    5.3404 N   0  0  0  0  0  0  0  0  0  0  0  0
    7.7741   -3.1418    4.4267 C   0  0  0  0  0  0  0  0  0  0  0  0
    7.1784   -2.0091    4.3217 N   0  0  0  0  0  0  0  0  0  0  0  0
    6.0696   -1.8385    3.3954 C   0  0  0  0  0  0  0  0  0  0  0  0
    6.6073   -1.3194    2.0566 C   0  0  0  0  0  0  0  0  0  0  0  0
    5.4860   -1.0144    1.0799 N   0  0  0  0  0  4  0  0  0  0  0  0
    5.9610   -0.9716   -0.3709 C   0  0  0  0  0  0  0  0  0  0  0  0
    6.7040    0.3370   -0.6594 C   0  0  0  0  0  0  0  0  0  0  0  0
    5.8709    1.4663   -0.3757 O   0  0  0  0  0  0  0  0  0  0  0  0
    5.4845    1.5091    1.0028 C   0  0  0  0  0  0  0  0  0  0  0  0
    4.6934    0.2542    1.3928 C   0  0  0  0  0  0  0  0  0  0  0  0
    7.3734   -4.1801    3.6265 N   0  0  0  0  0  0  0  0  0  0  0  0
    7.9160   -5.3346    3.8393 C   0  0  0  0  0  0  0  0  0  0  0  0
    6.8604   -6.4939    2.4758 H   0  0  0  0  0  0  0  0  0  0  0  0
    7.8815   -8.5488    2.9560 H   0  0  0  0  0  0  0  0  0  0  0  0
    9.5885   -8.6707    4.7463 H   0  0  0  0  0  0  0  0  0  0  0  0
   10.7671   -5.3571    6.6295 H   0  0  0  0  0  0  0  0  0  0  0  0
   12.4703   -4.9392    8.1293 H   0  0  0  0  0  0  0  0  0  0  0  0
   13.5918   -3.4149    9.6852 H   0  0  0  0  0  0  0  0  0  0  0  0
   12.7581    0.9378    9.3984 H   0  0  0  0  0  0  0  0  0  0  0  0
   13.3045    0.8007   11.0742 H   0  0  0  0  0  0  0  0  0  0  0  0
   11.6205    0.4130   10.7002 H   0  0  0  0  0  0  0  0  0  0  0  0
   10.9040   -0.2622    8.5243 H   0  0  0  0  0  0  0  0  0  0  0  0
    9.7905   -1.7523    6.9932 H   0  0  0  0  0  0  0  0  0  0  0  0
    5.3878   -1.1083    3.8419 H   0  0  0  0  0  0  0  0  0  0  0  0
    5.4747   -2.7487    3.2544 H   0  0  0  0  0  0  0  0  0  0  0  0
    7.2372   -2.0864    1.5924 H   0  0  0  0  0  0  0  0  0  0  0  0
    7.2082   -0.4140    2.1849 H   0  0  0  0  0  0  0  0  0  0  0  0
    4.8262   -1.8003    1.1394 H   0  0  0  0  0  0  0  0  0  0  0  0
    5.0521   -1.0407   -0.9788 H   0  0  0  0  0  0  0  0  0  0  0  0
    6.5807   -1.8547   -0.5529 H   0  0  0  0  0  0  0  0  0  0  0  0
    7.6328    0.4139   -0.0831 H   0  0  0  0  0  0  0  0  0  0  0  0
    6.9690    0.3811   -1.7204 H   0  0  0  0  0  0  0  0  0  0  0  0
    6.3753    1.6417    1.6261 H   0  0  0  0  0  0  0  0  0  0  0  0
    4.8549    2.3939    1.1402 H   0  0  0  0  0  0  0  0  0  0  0  0
    4.4220    0.2474    2.4505 H   0  0  0  0  0  0  0  0  0  0  0  0
    3.7798    0.1793    0.7926 H   0  0  0  0  0  0  0  0  0  0  0  0
  1  2  1  0
  2  3  2  0
  3  4  1  0
  4  5  2  0
  5  6  1  0
  6  7  1  0
  7  8  1  0
  8  9  2  0
  9 10  1  0
 10 11  2  0
 11 12  1  0
 12 13  1  0
 11 14  1  0
 14 15  2  0
  6 16  2  0
 16 17  1  0
 17 18  2  3
 18 19  1  0
 19 20  1  0
 20 21  1  0
 21 22  1  0
 22 23  1  0
 23 24  1  0
 24 25  1  0
 25 26  1  0
 17 27  1  0
 27 28  2  0
 28  1  1  0
 28  5  1  0
 15  8  1  0
 26 21  1  0
  1 29  1  0
  2 30  1  0
  3 31  1  0
  7 32  1  0
  9 33  1  0
 10 34  1  0
 13 35  1  0
 13 36  1  0
 13 37  1  0
 14 38  1  0
 15 39  1  0
 19 40  1  0
 19 41  1  0
 20 42  1  0
 20 43  1  0
 21 44  1  0
 22 45  1  0
 22 46  1  0
 23 47  1  0
 23 48  1  0
 25 49  1  0
 25 50  1  0
 26 51  1  0
 26 52  1  0
M  CHG  1  21   1
M  END
>  <ScrubInfo>  (6) 
{"isomerGroup": 0, "isomerId": 5, "confId": 0, "nr_conformers:": 1, "nr_isomers:": 9}

$$$$
_i6
     RDKit          3D

 52 55  0  0  0  0  0  0  0  0999 V2000
   -0.0852   -0.5011   -3.8511 N   0  0  0  0  0  0  0  0  0  0  0  0
    0.9389   -0.2098   -4.7134 C   0  0  0  0  0  0  0  0  0  0  0  0
    2.2189   -0.3280   -4.3289 C   0  0  0  0  0  0  0  0  0  0  0  0
    2.6028   -0.7332   -3.0692 N   0  0  0  0  0  0  0  0  0  0  0  0
    1.6630   -1.0402   -2.2164 C   0  0  0  0  0  0  0  0  0  0  0  0
    1.9067   -1.4807   -0.7989 C   0  0  0  0  0  0  0  0  0  0  0  0
    3.0268   -1.4504   -0.1461 N   0  0  0  0  0  0  0  0  0  0  0  0
    4.2093   -0.9873   -0.7272 C   0  0  0  0  0  0  0  0  0  0  0  0
    4.5715    0.3576   -0.6200 C   0  0  0  0  0  0  0  0  0  0  0  0
    5.7769    0.8186   -1.1637 C   0  0  0  0  0  0  0  0  0  0  0  0
    6.6391   -0.0703   -1.8062 C   0  0  0  0  0  0  0  0  0  0  0  0
    7.8395    0.2446   -2.3798 O   0  0  0  0  0  0  0  0  0  0  0  0
    8.2693    1.5959   -2.2746 C   0  0  0  0  0  0  0  0  0  0  0  0
    6.2886   -1.4198   -1.8908 C   0  0  0  0  0  0  0  0  0  0  0  0
    5.0868   -1.8786   -1.3456 C   0  0  0  0  0  0  0  0  0  0  0  0
    0.8473   -1.9563   -0.0691 N   0  0  0  0  0  0  0  0  0  0  0  0
   -0.3496   -1.9023   -0.5494 C   0  0  0  0  0  0  0  0  0  0  0  0
   -1.3281   -2.4013    0.2682 N   0  0  0  0  0  0  0  0  0  0  0  0
   -2.5767   -2.9521   -0.2532 C   0  0  0  0  0  0  0  0  0  0  0  0
   -3.5602   -1.8153   -0.6031 C   0  0  0  0  0  0  0  0  0  0  0  0
   -3.4148   -0.6900    0.4131 N   0  0  0  0  0  4  0  0  0  0  0  0
   -4.1549   -0.9007    1.7221 C   0  0  0  0  0  0  0  0  0  0  0  0
   -5.6440   -0.5695    1.5579 C   0  0  0  0  0  0  0  0  0  0  0  0
   -5.8308    0.7540    1.0430 O   0  0  0  0  0  0  0  0  0  0  0  0
   -5.2063    0.9261   -0.2350 C   0  0  0  0  0  0  0  0  0  0  0  0
   -3.6954    0.6948   -0.1389 C   0  0  0  0  0  0  0  0  0  0  0  0
   -0.7149   -1.3834   -1.7582 N   0  0  0  0  0  0  0  0  0  0  0  0
    0.1931   -0.9840   -2.5948 C   0  0  0  0  0  0  0  0  0  0  0  0
   -1.0278   -0.5257   -4.2141 H   0  0  0  0  0  0  0  0  0  0  0  0
    0.6553    0.1078   -5.7118 H   0  0  0  0  0  0  0  0  0  0  0  0
    3.0281   -0.0985   -5.0194 H   0  0  0  0  0  0  0  0  0  0  0  0
    3.9156    1.0527   -0.1050 H   0  0  0  0  0  0  0  0  0  0  0  0
    6.0127    1.8721   -1.0626 H   0  0  0  0  0  0  0  0  0  0  0  0
    7.5809    2.2699   -2.7950 H   0  0  0  0  0  0  0  0  0  0  0  0
    8.3955    1.8902   -1.2274 H   0  0  0  0  0  0  0  0  0  0  0  0
    9.2454    1.6753   -2.7627 H   0  0  0  0  0  0  0  0  0  0  0  0
    6.9603   -2.1213   -2.3792 H   0  0  0  0  0  0  0  0  0  0  0  0
    4.8367   -2.9333   -1.4059 H   0  0  0  0  0  0  0  0  0  0  0  0
   -0.8798   -2.9887    0.9751 H   0  0  0  0  0  0  0  0  0  0  0  0
   -3.0235   -3.5774    0.5279 H   0  0  0  0  0  0  0  0  0  0  0  0
   -2.4006   -3.5987   -1.1199 H   0  0  0  0  0  0  0  0  0  0  0  0
   -4.5994   -2.1556   -0.6159 H   0  0  0  0  0  0  0  0  0  0  0  0
   -3.3180   -1.3970   -1.5848 H   0  0  0  0  0  0  0  0  0  0  0  0
   -2.4041   -0.7152    0.6409 H   0  0  0  0  0  0  0  0  0  0  0  0
   -3.9930   -1.9315    2.0489 H   0  0  0  0  0  0  0  0  0  0  0  0
   -3.6868   -0.2173    2.4391 H   0  0  0  0  0  0  0  0  0  0  0  0
   -6.1389   -0.6175    2.5330 H   0  0  0  0  0  0  0  0  0  0  0  0
   -6.1472   -1.2856    0.8991 H   0  0  0  0  0  0  0  0  0  0  0  0
   -5.4015    1.9518   -0.5629 H   0  0  0  0  0  0  0  0  0  0  0  0
   -5.6726    0.2499   -0.9606 H   0  0  0  0  0  0  0  0  0  0  0  0
   -3.2417    1.3949    0.5711 H   0  0  0  0  0  0  0  0  0  0  0  0
   -3.1928    0.7895   -1.1060 H   0  0  0  0  0  0  0  0  0  0  0  0
  1  2  1  0
  2  3  2  0
  3  4  1  0
  4  5  2  0
  5  6  1  0
  6  7  2  3
  7  8  1  0
  8  9  2  0
  9 10  1  0
 10 11  2  0
 11 12  1  0
 12 13  1  0
 11 14  1  0
 14 15  2  0
  6 16  1  0
 16 17  2  0
 17 18  1  0
 18 19  1  0
 19 20  1  0
 20 21  1  0
 21 22  1  0
 22 23  1  0
 23 24  1  0
 24 25  1  0
 25 26  1  0
 17 27  1  0
 27 28  2  0
 28  1  1  0
 28  5  1  0
 15  8  1  0
 26 21  1  0
  1 29  1  0
  2 30  1  0
  3 31  1  0
  9 32  1  0
 10 33  1  0
 13 34  1  0
 13 35  1  0
 13 36  1  0
 14 37  1  0
 15 38  1  0
 18 39  1  0
 19 40  1  0
 19 41  1  0
 20 42  1  0
 20 43  1  0
 21 44  1  0
 22 45  1  0
 22 46  1  0
 23 47  1  0
 23 48  1  0
 25 49  1  0
 25 50  1  0
 26 51  1  0
 26 52  1  0
M  CHG  1  21   1
M  END
>  <ScrubInfo>  (7) 
{"isomerGroup": 0, "isomerId": 6, "confId": 0, "nr_conformers:": 1, "nr_isomers:": 9}

$$$$
_i7
     RDKit          3D

 52 55  0  0  0  0  0  0  0  0999 V2000
   -0.8735   -2.3866    0.2696 N   0  0  0  0  0  0  0  0  0  0  0  0
   -2.1655   -2.3281    0.7086 C   0  0  0  0  0  0  0  0  0  0  0  0
   -3.0576   -1.4333    0.4319 N   0  0  0  0  0  0  0  0  0  0  0  0
   -2.6830   -0.3401   -0.4657 C   0  0  0  0  0  0  0  0  0  0  0  0
   -3.9147    0.5326   -0.7619 C   0  0  0  0  0  0  0  0  0  0  0  0
   -4.4111    1.3615    0.4067 N   0  0  0  0  0  4  0  0  0  0  0  0
   -4.8381    0.5573    1.6326 C   0  0  0  0  0  0  0  0  0  0  0  0
   -5.4997    1.5097    2.6380 C   0  0  0  0  0  0  0  0  0  0  0  0
   -4.6003    2.5628    3.0113 O   0  0  0  0  0  0  0  0  0  0  0  0
   -4.1876    3.3481    1.8867 C   0  0  0  0  0  0  0  0  0  0  0  0
   -3.4796    2.4848    0.8329 C   0  0  0  0  0  0  0  0  0  0  0  0
   -2.5005   -3.3563    1.5414 N   0  0  0  0  0  0  0  0  0  0  0  0
   -1.7427   -4.4127    1.9972 C   0  0  0  0  0  0  0  0  0  0  0  0
   -2.3484   -5.2396    2.8110 N   0  0  0  0  0  0  0  0  0  0  0  0
   -1.6955   -6.3487    3.3581 C   0  0  0  0  0  0  0  0  0  0  0  0
   -1.0303   -6.2452    4.5802 C   0  0  0  0  0  0  0  0  0  0  0  0
   -0.4156   -7.3660    5.1444 C   0  0  0  0  0  0  0  0  0  0  0  0
   -0.4746   -8.6069    4.5053 C   0  0  0  0  0  0  0  0  0  0  0  0
    0.1689   -9.6184    5.1629 O   0  0  0  0  0  0  0  0  0  0  0  0
    0.0973  -10.9132    4.5791 C   0  0  0  0  0  0  0  0  0  0  0  0
   -1.1607   -8.7188    3.2958 C   0  0  0  0  0  0  0  0  0  0  0  0
   -1.7746   -7.5942    2.7311 C   0  0  0  0  0  0  0  0  0  0  0  0
   -0.3344   -4.4444    1.4860 C   0  0  0  0  0  0  0  0  0  0  0  0
    0.5185   -5.4323    1.8423 N   0  0  0  0  0  0  0  0  0  0  0  0
    1.7573   -5.3430    1.3138 C   0  0  0  0  0  0  0  0  0  0  0  0
    2.1261   -4.3118    0.4648 C   0  0  0  0  0  0  0  0  0  0  0  0
    1.2736   -3.3193    0.1028 N   0  0  0  0  0  0  0  0  0  0  0  0
    0.0266   -3.3958    0.6253 C   0  0  0  0  0  0  0  0  0  0  0  0
   -0.4667   -1.7134   -0.3599 H   0  0  0  0  0  0  0  0  0  0  0  0
   -1.8787    0.2630   -0.0320 H   0  0  0  0  0  0  0  0  0  0  0  0
   -2.3291   -0.7489   -1.4200 H   0  0  0  0  0  0  0  0  0  0  0  0
   -3.6918    1.2430   -1.5653 H   0  0  0  0  0  0  0  0  0  0  0  0
   -4.7627   -0.0850   -1.0790 H   0  0  0  0  0  0  0  0  0  0  0  0
   -5.2680    1.8107    0.0613 H   0  0  0  0  0  0  0  0  0  0  0  0
   -3.9346    0.1314    2.0763 H   0  0  0  0  0  0  0  0  0  0  0  0
   -5.5303   -0.2210    1.2998 H   0  0  0  0  0  0  0  0  0  0  0  0
   -6.4176    1.9473    2.2287 H   0  0  0  0  0  0  0  0  0  0  0  0
   -5.7653    0.9619    3.5474 H   0  0  0  0  0  0  0  0  0  0  0  0
   -5.0630    3.8525    1.4609 H   0  0  0  0  0  0  0  0  0  0  0  0
   -3.5031    4.1196    2.2524 H   0  0  0  0  0  0  0  0  0  0  0  0
   -3.2325    3.0694   -0.0580 H   0  0  0  0  0  0  0  0  0  0  0  0
   -2.5807    2.0195    1.2486 H   0  0  0  0  0  0  0  0  0  0  0  0
   -3.4518   -3.3692    1.8847 H   0  0  0  0  0  0  0  0  0  0  0  0
   -0.9867   -5.2907    5.0946 H   0  0  0  0  0  0  0  0  0  0  0  0
    0.1082   -7.2728    6.0922 H   0  0  0  0  0  0  0  0  0  0  0  0
   -0.9390  -11.2615    4.5154 H   0  0  0  0  0  0  0  0  0  0  0  0
    0.6412  -11.6041    5.2304 H   0  0  0  0  0  0  0  0  0  0  0  0
    0.5817  -10.9300    3.5972 H   0  0  0  0  0  0  0  0  0  0  0  0
   -1.2412   -9.6623    2.7675 H   0  0  0  0  0  0  0  0  0  0  0  0
   -2.3161   -7.6902    1.7949 H   0  0  0  0  0  0  0  0  0  0  0  0
    2.4520   -6.1284    1.5932 H   0  0  0  0  0  0  0  0  0  0  0  0
    3.1269   -4.2559    0.0489 H   0  0  0  0  0  0  0  0  0  0  0  0
  1  2  1  0
  2  3  2  3
  3  4  1  0
  4  5  1  0
  5  6  1  0
  6  7  1  0
  7  8  1  0
  8  9  1  0
  9 10  1  0
 10 11  1  0
  2 12  1  0
 12 13  1  0
 13 14  2  3
 14 15  1  0
 15 16  2  0
 16 17  1  0
 17 18  2  0
 18 19  1  0
 19 20  1  0
 18 21  1  0
 21 22  2  0
 13 23  1  0
 23 24  2  0
 24 25  1  0
 25 26  2  0
 26 27  1  0
 27 28  2  0
 28  1  1  0
 11  6  1  0
 22 15  1  0
 28 23  1  0
  1 29  1  0
  4 30  1  0
  4 31  1  0
  5 32  1  0
  5 33  1  0
  6 34  1  0
  7 35  1  0
  7 36  1  0
  8 37  1  0
  8 38  1  0
 10 39  1  0
 10 40  1  0
 11 41  1  0
 11 42  1  0
 12 43  1  0
 16 44  1  0
 17 45  1  0
 20 46  1  0
 20 47  1  0
 20 48  1  0
 21 49  1  0
 22 50  1  0
 25 51  1  0
 26 52  1  0
M  CHG  1   6   1
M  END
>  <ScrubInfo>  (8) 
{"isomerGroup": 0, "isomerId": 7, "confId": 0, "nr_conformers:": 1, "nr_isomers:": 9}

$$$$
_i8
     RDKit          3D

 52 55  0  0  0  0  0  0  0  0999 V2000
   -9.3391    4.7661    0.0044 N   0  0  0  0  0  0  0  0  0  0  0  0
  -10.1654    5.8255    0.2593 C   0  0  0  0  0  0  0  0  0  0  0  0
   -9.8306    6.7609    1.1605 C   0  0  0  0  0  0  0  0  0  0  0  0
   -8.6602    6.7419    1.8871 N   0  0  0  0  0  0  0  0  0  0  0  0
   -7.8271    5.7589    1.6811 C   0  0  0  0  0  0  0  0  0  0  0  0
   -6.5089    5.6392    2.4198 C   0  0  0  0  0  0  0  0  0  0  0  0
   -5.9944    6.4400    3.3095 N   0  0  0  0  0  0  0  0  0  0  0  0
   -6.6509    7.6086    3.7073 C   0  0  0  0  0  0  0  0  0  0  0  0
   -7.4881    7.6032    4.8253 C   0  0  0  0  0  0  0  0  0  0  0  0
   -8.1122    8.7804    5.2561 C   0  0  0  0  0  0  0  0  0  0  0  0
   -7.8883    9.9787    4.5781 C   0  0  0  0  0  0  0  0  0  0  0  0
   -8.4309   11.1942    4.8897 O   0  0  0  0  0  0  0  0  0  0  0  0
   -9.3039   11.2419    6.0113 C   0  0  0  0  0  0  0  0  0  0  0  0
   -7.0314    9.9886    3.4750 C   0  0  0  0  0  0  0  0  0  0  0  0
   -6.4088    8.8135    3.0465 C   0  0  0  0  0  0  0  0  0  0  0  0
   -5.8051    4.5241    2.0650 N   0  0  0  0  0  0  0  0  0  0  0  0
   -6.1462    3.5790    1.1489 C   0  0  0  0  0  0  0  0  0  0  0  0
   -5.4652    2.5406    0.8128 N   0  0  0  0  0  0  0  0  0  0  0  0
   -4.1645    2.2795    1.4382 C   0  0  0  0  0  0  0  0  0  0  0  0
   -3.5185    1.1170    0.6590 C   0  0  0  0  0  0  0  0  0  0  0  0
   -4.6222    0.1926    0.1870 N   0  0  0  0  0  4  0  0  0  0  0  0
   -5.1047   -0.7800    1.2453 C   0  0  0  0  0  0  0  0  0  0  0  0
   -6.2784   -1.5946    0.6912 C   0  0  0  0  0  0  0  0  0  0  0  0
   -5.9044   -2.2778   -0.5118 O   0  0  0  0  0  0  0  0  0  0  0  0
   -5.5192   -1.3573   -1.5403 C   0  0  0  0  0  0  0  0  0  0  0  0
   -4.3081   -0.5226   -1.1086 C   0  0  0  0  0  0  0  0  0  0  0  0
   -7.3270    3.6465    0.4592 N   0  0  0  0  0  0  0  0  0  0  0  0
   -8.1427    4.6398    0.6655 C   0  0  0  0  0  0  0  0  0  0  0  0
   -9.6115    4.0776   -0.6845 H   0  0  0  0  0  0  0  0  0  0  0  0
  -11.0919    5.8600   -0.3047 H   0  0  0  0  0  0  0  0  0  0  0  0
  -10.4943    7.6007    1.3553 H   0  0  0  0  0  0  0  0  0  0  0  0
   -7.6605    6.6778    5.3663 H   0  0  0  0  0  0  0  0  0  0  0  0
   -8.7616    8.7259    6.1229 H   0  0  0  0  0  0  0  0  0  0  0  0
   -9.6476   12.2747    6.1238 H   0  0  0  0  0  0  0  0  0  0  0  0
  -10.1858   10.6127    5.8519 H   0  0  0  0  0  0  0  0  0  0  0  0
   -8.7797   10.9632    6.9314 H   0  0  0  0  0  0  0  0  0  0  0  0
   -6.8446   10.9206    2.9474 H   0  0  0  0  0  0  0  0  0  0  0  0
   -5.7372    8.8431    2.1946 H   0  0  0  0  0  0  0  0  0  0  0  0
   -4.9264    4.4494    2.5536 H   0  0  0  0  0  0  0  0  0  0  0  0
   -4.3088    1.9846    2.4836 H   0  0  0  0  0  0  0  0  0  0  0  0
   -3.5018    3.1509    1.4036 H   0  0  0  0  0  0  0  0  0  0  0  0
   -2.7944    0.5475    1.2492 H   0  0  0  0  0  0  0  0  0  0  0  0
   -3.0301    1.5123   -0.2383 H   0  0  0  0  0  0  0  0  0  0  0  0
   -5.4057    0.8562    0.0088 H   0  0  0  0  0  0  0  0  0  0  0  0
   -4.2546   -1.4271    1.4861 H   0  0  0  0  0  0  0  0  0  0  0  0
   -5.4043   -0.2052    2.1260 H   0  0  0  0  0  0  0  0  0  0  0  0
   -6.5814   -2.3504    1.4223 H   0  0  0  0  0  0  0  0  0  0  0  0
   -7.1466   -0.9557    0.4908 H   0  0  0  0  0  0  0  0  0  0  0  0
   -6.3732   -0.7169   -1.7906 H   0  0  0  0  0  0  0  0  0  0  0  0
   -5.2671   -1.9404   -2.4314 H   0  0  0  0  0  0  0  0  0  0  0  0
   -4.0653    0.2343   -1.8605 H   0  0  0  0  0  0  0  0  0  0  0  0
   -3.4376   -1.1573   -0.9121 H   0  0  0  0  0  0  0  0  0  0  0  0
  1  2  1  0
  2  3  2  0
  3  4  1  0
  4  5  2  0
  5  6  1  0
  6  7  2  3
  7  8  1  0
  8  9  2  0
  9 10  1  0
 10 11  2  0
 11 12  1  0
 12 13  1  0
 11 14  1  0
 14 15  2  0
  6 16  1  0
 16 17  1  0
 17 18  2  3
 18 19  1  0
 19 20  1  0
 20 21  1  0
 21 22  1  0
 22 23  1  0
 23 24  1  0
 24 25  1  0
 25 26  1  0
 17 27  1  0
 27 28  2  0
 28  1  1  0
 28  5  1  0
 15  8  1  0
 26 21  1  0
  1 29  1  0
  2 30  1  0
  3 31  1  0
  9 32  1  0
 10 33  1  0
 13 34  1  0
 13 35  1  0
 13 36  1  0
 14 37  1  0
 15 38  1  0
 16 39  1  0
 19 40  1  0
 19 41  1  0
 20 42  1  0
 20 43  1  0
 21 44  1  0
 22 45  1  0
 22 46  1  0
 23 47  1  0
 23 48  1  0
 25 49  1  0
 25 50  1  0
 26 51  1  0
 26 52  1  0
M  CHG  1  21   1
M  END
>  <ScrubInfo>  (9) 
{"isomerGroup": 0, "isomerId": 8, "confId": 0, "nr_conformers:": 1, "nr_isomers:": 9}

$$$$
