REMARK SMILES Cc1ccc(Nc2nc(NCc3ccccc3)nc(N3CC(O)C3)n2)cc1F
REMARK SMILES IDX 7 1 8 2 9 3 18 4 19 5 25 6 6 7 5 9 2 10 3 11 27 12 4 13
REMARK SMILES IDX 26 14 1 15 28 16 10 17 11 19 12 20 13 21 17 22 14 23 16 24
REMARK SMILES IDX 15 25 20 26 21 27 24 28 22 29 23 30
REMARK H PARENT 6 8 10 18 23 31
ROOT
ATOM      1  C   UNL     1       0.799  -0.479   0.026  1.00  0.00     0.233 A 
ATOM      2  N   UNL     1      -0.401  -1.047   0.044  1.00  0.00    -0.177 NA
ATOM      3  C   UNL     1      -1.362  -0.358   0.642  1.00  0.00     0.229 A 
ATOM      4  N   UNL     1      -1.195   0.834   1.187  1.00  0.00    -0.177 NA
ATOM      5  C   UNL     1       0.032   1.337   1.120  1.00  0.00     0.232 A 
ATOM      6  N   UNL     1       1.052   0.711   0.546  1.00  0.00    -0.176 NA
ENDROOT
BRANCH   1   7
ATOM      7  N   UNL     1       1.793  -1.230  -0.602  1.00  0.00    -0.324 N 
ATOM      8  H   UNL     1       1.403  -2.116  -0.890  1.00  0.00     0.170 HD
BRANCH   7   9
ATOM      9  C   UNL     1       3.167  -1.050  -0.800  1.00  0.00     0.044 A 
ATOM     10  C   UNL     1       5.952  -0.803  -1.302  1.00  0.00    -0.015 A 
ATOM     11  C   UNL     1       5.249  -1.920  -1.757  1.00  0.00     0.008 A 
ATOM     12  C   UNL     1       5.246   0.187  -0.620  1.00  0.00     0.128 A 
ATOM     13  C   UNL     1       3.876  -2.038  -1.505  1.00  0.00     0.026 A 
ATOM     14  C   UNL     1       3.878   0.071  -0.369  1.00  0.00     0.065 A 
ATOM     15  C   UNL     1       7.413  -0.638  -1.582  1.00  0.00     0.047 C 
ATOM     16  F   UNL     1       5.889   1.284  -0.192  1.00  0.00    -0.207 F 
ENDBRANCH   7   9
ENDBRANCH   1   7
BRANCH   3  17
ATOM     17  N   UNL     1      -2.644  -0.882   0.727  1.00  0.00    -0.350 N 
ATOM     18  H   UNL     1      -3.264  -0.115   0.965  1.00  0.00     0.164 HD
BRANCH  17  19
ATOM     19  C   UNL     1      -3.055  -1.654  -0.427  1.00  0.00     0.152 C 
BRANCH  19  20
ATOM     20  C   UNL     1      -4.529  -1.972  -0.311  1.00  0.00    -0.029 A 
ATOM     21  C   UNL     1      -5.468  -1.338  -1.137  1.00  0.00     0.005 A 
ATOM     22  C   UNL     1      -4.980  -2.895   0.645  1.00  0.00     0.005 A 
ATOM     23  C   UNL     1      -6.827  -1.631  -1.017  1.00  0.00     0.000 A 
ATOM     24  C   UNL     1      -6.340  -3.186   0.763  1.00  0.00     0.000 A 
ATOM     25  C   UNL     1      -7.262  -2.555  -0.069  1.00  0.00     0.000 A 
ENDBRANCH  19  20
ENDBRANCH  17  19
ENDBRANCH   3  17
BRANCH   5  26
ATOM     26  N   UNL     1       0.268   2.590   1.698  1.00  0.00    -0.335 N 
ATOM     27  C   UNL     1       1.274   3.516   1.269  1.00  0.00     0.153 C 
ATOM     28  C   UNL     1      -0.714   3.617   1.866  1.00  0.00     0.153 C 
ATOM     29  C   UNL     1       0.461   4.609   1.990  1.00  0.00     0.153 C 
BRANCH  29  30
ATOM     30  O   UNL     1       0.325   5.877   1.312  1.00  0.00    -0.389 OA
ATOM     31  H   UNL     1      -0.297   6.386   1.859  1.00  0.00     0.211 HD
ENDBRANCH  29  30
ENDBRANCH   5  26
TORSDOF 7
