_i0
     RDKit          3D

 49 52  0  0  0  0  0  0  0  0999 V2000
    7.4130   -0.6376   -1.5819 C   0  0  0  0  0  0  0  0  0  0  0  0
    5.9517   -0.8034   -1.3016 C   0  0  0  0  0  0  0  0  0  0  0  0
    5.2490   -1.9198   -1.7566 C   0  0  0  0  0  0  0  0  0  0  0  0
    3.8762   -2.0378   -1.5052 C   0  0  0  0  0  0  0  0  0  0  0  0
    3.1665   -1.0497   -0.7999 C   0  0  0  0  0  0  0  0  0  0  0  0
    1.7927   -1.2301   -0.6023 N   0  0  0  0  0  0  0  0  0  0  0  0
    0.7993   -0.4791    0.0257 C   0  0  0  0  0  0  0  0  0  0  0  0
   -0.4005   -1.0472    0.0443 N   0  0  0  0  0  0  0  0  0  0  0  0
   -1.3618   -0.3584    0.6422 C   0  0  0  0  0  0  0  0  0  0  0  0
   -2.6444   -0.8818    0.7272 N   0  0  0  0  0  0  0  0  0  0  0  0
   -3.0555   -1.6541   -0.4268 C   0  0  0  0  0  0  0  0  0  0  0  0
   -4.5286   -1.9719   -0.3106 C   0  0  0  0  0  0  0  0  0  0  0  0
   -5.4676   -1.3377   -1.1369 C   0  0  0  0  0  0  0  0  0  0  0  0
   -6.8274   -1.6310   -1.0171 C   0  0  0  0  0  0  0  0  0  0  0  0
   -7.2623   -2.5553   -0.0687 C   0  0  0  0  0  0  0  0  0  0  0  0
   -6.3395   -3.1859    0.7635 C   0  0  0  0  0  0  0  0  0  0  0  0
   -4.9799   -2.8948    0.6452 C   0  0  0  0  0  0  0  0  0  0  0  0
   -1.1951    0.8338    1.1873 N   0  0  0  0  0  0  0  0  0  0  0  0
    0.0323    1.3372    1.1200 C   0  0  0  0  0  0  0  0  0  0  0  0
    0.2675    2.5904    1.6975 N   0  0  0  0  0  0  0  0  0  0  0  0
    1.2743    3.5157    1.2687 C   0  0  0  0  0  0  0  0  0  0  0  0
    0.4610    4.6088    1.9904 C   0  0  0  0  0  0  0  0  0  0  0  0
    0.3247    5.8766    1.3118 O   0  0  0  0  0  0  0  0  0  0  0  0
   -0.7140    3.6169    1.8662 C   0  0  0  0  0  0  0  0  0  0  0  0
    1.0522    0.7113    0.5459 N   0  0  0  0  0  0  0  0  0  0  0  0
    3.8785    0.0714   -0.3690 C   0  0  0  0  0  0  0  0  0  0  0  0
    5.2461    0.1874   -0.6198 C   0  0  0  0  0  0  0  0  0  0  0  0
    5.8891    1.2843   -0.1921 F   0  0  0  0  0  0  0  0  0  0  0  0
    7.9301   -0.2245   -0.7095 H   0  0  0  0  0  0  0  0  0  0  0  0
    7.8831   -1.5995   -1.8122 H   0  0  0  0  0  0  0  0  0  0  0  0
    7.5578    0.0331   -2.4344 H   0  0  0  0  0  0  0  0  0  0  0  0
    5.7586   -2.7055   -2.3094 H   0  0  0  0  0  0  0  0  0  0  0  0
    3.3597   -2.9217   -1.8740 H   0  0  0  0  0  0  0  0  0  0  0  0
    1.4026   -2.1159   -0.8903 H   0  0  0  0  0  0  0  0  0  0  0  0
   -3.2638   -0.1148    0.9649 H   0  0  0  0  0  0  0  0  0  0  0  0
   -2.4987   -2.5978   -0.4919 H   0  0  0  0  0  0  0  0  0  0  0  0
   -2.8729   -1.1003   -1.3572 H   0  0  0  0  0  0  0  0  0  0  0  0
   -5.1473   -0.6105   -1.8797 H   0  0  0  0  0  0  0  0  0  0  0  0
   -7.5488   -1.1367   -1.6628 H   0  0  0  0  0  0  0  0  0  0  0  0
   -8.3212   -2.7815    0.0247 H   0  0  0  0  0  0  0  0  0  0  0  0
   -6.6780   -3.9016    1.5082 H   0  0  0  0  0  0  0  0  0  0  0  0
   -4.2674   -3.3834    1.3073 H   0  0  0  0  0  0  0  0  0  0  0  0
    2.2602    3.3028    1.6887 H   0  0  0  0  0  0  0  0  0  0  0  0
    1.3325    3.6204    0.1800 H   0  0  0  0  0  0  0  0  0  0  0  0
    0.7859    4.7646    3.0276 H   0  0  0  0  0  0  0  0  0  0  0  0
   -0.2968    6.3863    1.8593 H   0  0  0  0  0  0  0  0  0  0  0  0
   -1.3217    3.4883    2.7650 H   0  0  0  0  0  0  0  0  0  0  0  0
   -1.3512    3.7590    0.9867 H   0  0  0  0  0  0  0  0  0  0  0  0
    3.4001    0.8810    0.1697 H   0  0  0  0  0  0  0  0  0  0  0  0
  1  2  1  0
  2  3  2  0
  3  4  1  0
  4  5  2  0
  5  6  1  0
  6  7  1  0
  7  8  2  0
  8  9  1  0
  9 10  1  0
 10 11  1  0
 11 12  1  0
 12 13  2  0
 13 14  1  0
 14 15  2  0
 15 16  1  0
 16 17  2  0
  9 18  2  0
 18 19  1  0
 19 20  1  0
 20 21  1  0
 21 22  1  0
 22 23  1  0
 22 24  1  0
 19 25  2  0
  5 26  1  0
 26 27  2  0
 27 28  1  0
 27  2  1  0
 25  7  1  0
 17 12  1  0
 24 20  1  0
  1 29  1  0
  1 30  1  0
  1 31  1  0
  3 32  1  0
  4 33  1  0
  6 34  1  0
 10 35  1  0
 11 36  1  0
 11 37  1  0
 13 38  1  0
 14 39  1  0
 15 40  1  0
 16 41  1  0
 17 42  1  0
 21 43  1  0
 21 44  1  0
 22 45  1  0
 23 46  1  0
 24 47  1  0
 24 48  1  0
 26 49  1  0
M  END
>  <ScrubInfo>  (1) 
{"isomerGroup": 0, "isomerId": 0, "confId": 0, "nr_conformers:": 1, "nr_isomers:": 9}

$$$$
_i1
     RDKit          3D

 49 52  0  0  0  0  0  0  0  0999 V2000
   -0.5905   -0.4672   -0.0178 N   0  0  0  0  0  0  0  0  0  0  0  0
    0.6107   -0.8045    0.4816 C   0  0  0  0  0  0  0  0  0  0  0  0
    1.4205    0.2016    0.9117 N   0  0  0  0  0  0  0  0  0  0  0  0
    1.6204    1.4294    0.1651 C   0  0  0  0  0  0  0  0  0  0  0  0
    2.6791    2.2655    0.8391 C   0  0  0  0  0  0  0  0  0  0  0  0
    3.9619    2.3801    0.2843 C   0  0  0  0  0  0  0  0  0  0  0  0
    4.9410    3.1464    0.9193 C   0  0  0  0  0  0  0  0  0  0  0  0
    4.6504    3.7999    2.1154 C   0  0  0  0  0  0  0  0  0  0  0  0
    3.3819    3.6864    2.6807 C   0  0  0  0  0  0  0  0  0  0  0  0
    2.4012    2.9215    2.0479 C   0  0  0  0  0  0  0  0  0  0  0  0
    0.9843   -2.0402    0.5627 N   0  0  0  0  0  0  0  0  0  0  0  0
    0.0990   -3.0012    0.1059 C   0  0  0  0  0  0  0  0  0  0  0  0
    0.5058   -4.3200    0.1909 N   0  0  0  0  0  0  0  0  0  0  0  0
    0.0101   -5.2377   -0.8020 C   0  0  0  0  0  0  0  0  0  0  0  0
    1.3545   -5.9781   -0.6455 C   0  0  0  0  0  0  0  0  0  0  0  0
    1.3923   -7.0787    0.2947 O   0  0  0  0  0  0  0  0  0  0  0  0
    1.8737   -4.6150   -0.1428 C   0  0  0  0  0  0  0  0  0  0  0  0
   -1.0839   -2.7176   -0.3665 N   0  0  0  0  0  0  0  0  0  0  0  0
   -1.4803   -1.4140   -0.4103 C   0  0  0  0  0  0  0  0  0  0  0  0
   -2.6938   -1.2260   -0.8264 N   0  0  0  0  0  0  0  0  0  0  0  0
   -3.1949    0.0772   -0.9097 C   0  0  0  0  0  0  0  0  0  0  0  0
   -3.0362    0.8194   -2.0839 C   0  0  0  0  0  0  0  0  0  0  0  0
   -3.5308    2.1238   -2.1744 C   0  0  0  0  0  0  0  0  0  0  0  0
   -4.1929    2.7009   -1.0852 C   0  0  0  0  0  0  0  0  0  0  0  0
   -4.7624    4.0840   -1.1729 C   0  0  0  0  0  0  0  0  0  0  0  0
   -4.3731    1.9358    0.0705 C   0  0  0  0  0  0  0  0  0  0  0  0
   -5.0268    2.4577    1.1183 F   0  0  0  0  0  0  0  0  0  0  0  0
   -3.8829    0.6373    0.1653 C   0  0  0  0  0  0  0  0  0  0  0  0
   -0.9409    0.4617    0.1322 H   0  0  0  0  0  0  0  0  0  0  0  0
    2.3031   -0.1804    1.2466 H   0  0  0  0  0  0  0  0  0  0  0  0
    0.6919    2.0098    0.1092 H   0  0  0  0  0  0  0  0  0  0  0  0
    1.9184    1.1971   -0.8644 H   0  0  0  0  0  0  0  0  0  0  0  0
    4.2103    1.8729   -0.6456 H   0  0  0  0  0  0  0  0  0  0  0  0
    5.9329    3.2318    0.4824 H   0  0  0  0  0  0  0  0  0  0  0  0
    5.4144    4.3944    2.6099 H   0  0  0  0  0  0  0  0  0  0  0  0
    3.1576    4.1900    3.6177 H   0  0  0  0  0  0  0  0  0  0  0  0
    1.4184    2.8314    2.5065 H   0  0  0  0  0  0  0  0  0  0  0  0
   -0.8791   -5.7798   -0.4716 H   0  0  0  0  0  0  0  0  0  0  0  0
   -0.1488   -4.7979   -1.7929 H   0  0  0  0  0  0  0  0  0  0  0  0
    1.7970   -6.2939   -1.5960 H   0  0  0  0  0  0  0  0  0  0  0  0
    0.9643   -6.7210    1.0949 H   0  0  0  0  0  0  0  0  0  0  0  0
    2.2985   -3.9753   -0.9245 H   0  0  0  0  0  0  0  0  0  0  0  0
    2.5277   -4.6430    0.7320 H   0  0  0  0  0  0  0  0  0  0  0  0
   -2.5342    0.3694   -2.9374 H   0  0  0  0  0  0  0  0  0  0  0  0
   -3.4050    2.6780   -3.1020 H   0  0  0  0  0  0  0  0  0  0  0  0
   -5.8295    4.0358   -1.4107 H   0  0  0  0  0  0  0  0  0  0  0  0
   -4.6305    4.6183   -0.2263 H   0  0  0  0  0  0  0  0  0  0  0  0
   -4.2578    4.6696   -1.9486 H   0  0  0  0  0  0  0  0  0  0  0  0
   -4.0471    0.0642    1.0721 H   0  0  0  0  0  0  0  0  0  0  0  0
  1  2  1  0
  2  3  1  0
  3  4  1  0
  4  5  1  0
  5  6  2  0
  6  7  1  0
  7  8  2  0
  8  9  1  0
  9 10  2  0
  2 11  2  0
 11 12  1  0
 12 13  1  0
 13 14  1  0
 14 15  1  0
 15 16  1  0
 15 17  1  0
 12 18  2  0
 18 19  1  0
 19 20  2  3
 20 21  1  0
 21 22  2  0
 22 23  1  0
 23 24  2  0
 24 25  1  0
 24 26  1  0
 26 27  1  0
 26 28  2  0
 19  1  1  0
 28 21  1  0
 10  5  1  0
 17 13  1  0
  1 29  1  0
  3 30  1  0
  4 31  1  0
  4 32  1  0
  6 33  1  0
  7 34  1  0
  8 35  1  0
  9 36  1  0
 10 37  1  0
 14 38  1  0
 14 39  1  0
 15 40  1  0
 16 41  1  0
 17 42  1  0
 17 43  1  0
 22 44  1  0
 23 45  1  0
 25 46  1  0
 25 47  1  0
 25 48  1  0
 28 49  1  0
M  END
>  <ScrubInfo>  (2) 
{"isomerGroup": 0, "isomerId": 1, "confId": 0, "nr_conformers:": 1, "nr_isomers:": 9}

$$$$
_i2
     RDKit          3D

 49 52  0  0  0  0  0  0  0  0999 V2000
   -0.5853   -0.7132    0.2582 N   0  0  0  0  0  0  0  0  0  0  0  0
    0.7205   -0.3871    0.1060 C   0  0  0  0  0  0  0  0  0  0  0  0
    1.5749   -1.3971    0.4745 N   0  0  0  0  0  0  0  0  0  0  0  0
    2.9775   -1.4365    0.3224 C   0  0  0  0  0  0  0  0  0  0  0  0
    3.6748   -0.6665   -0.6174 C   0  0  0  0  0  0  0  0  0  0  0  0
    5.0668   -0.7626   -0.7531 C   0  0  0  0  0  0  0  0  0  0  0  0
    5.7951   -1.6528    0.0381 C   0  0  0  0  0  0  0  0  0  0  0  0
    7.2850   -1.7500   -0.0717 C   0  0  0  0  0  0  0  0  0  0  0  0
    5.1025   -2.4249    0.9684 C   0  0  0  0  0  0  0  0  0  0  0  0
    5.7703   -3.2829    1.7534 F   0  0  0  0  0  0  0  0  0  0  0  0
    3.7178   -2.3325    1.1062 C   0  0  0  0  0  0  0  0  0  0  0  0
    1.0511    0.7826   -0.3360 N   0  0  0  0  0  0  0  0  0  0  0  0
    0.0428    1.6775   -0.6344 C   0  0  0  0  0  0  0  0  0  0  0  0
    0.4244    2.9228   -1.0964 N   0  0  0  0  0  0  0  0  0  0  0  0
   -0.4057    4.0456   -0.7448 C   0  0  0  0  0  0  0  0  0  0  0  0
    0.8887    4.8843   -0.7437 C   0  0  0  0  0  0  0  0  0  0  0  0
    1.0203    5.8846    0.2897 O   0  0  0  0  0  0  0  0  0  0  0  0
    1.5826    3.5279   -0.4999 C   0  0  0  0  0  0  0  0  0  0  0  0
   -1.2222    1.3828   -0.5272 N   0  0  0  0  0  0  0  0  0  0  0  0
   -1.5772    0.1432   -0.0934 C   0  0  0  0  0  0  0  0  0  0  0  0
   -2.8434   -0.0674   -0.0789 N   0  0  0  0  0  0  0  0  0  0  0  0
   -3.3462   -1.3594    0.3731 C   0  0  0  0  0  0  0  0  0  0  0  0
   -4.8560   -1.4484    0.3606 C   0  0  0  0  0  0  0  0  0  0  0  0
   -5.5137   -2.3175    1.2448 C   0  0  0  0  0  0  0  0  0  0  0  0
   -6.9045   -2.4433    1.2172 C   0  0  0  0  0  0  0  0  0  0  0  0
   -7.6536   -1.7101    0.2994 C   0  0  0  0  0  0  0  0  0  0  0  0
   -7.0131   -0.8532   -0.5927 C   0  0  0  0  0  0  0  0  0  0  0  0
   -5.6228   -0.7275   -0.5660 C   0  0  0  0  0  0  0  0  0  0  0  0
   -0.8305   -1.6767    0.3893 H   0  0  0  0  0  0  0  0  0  0  0  0
    1.2453   -1.9928    1.2217 H   0  0  0  0  0  0  0  0  0  0  0  0
    3.1480    0.0203   -1.2755 H   0  0  0  0  0  0  0  0  0  0  0  0
    5.5693   -0.1381   -1.4888 H   0  0  0  0  0  0  0  0  0  0  0  0
    7.7583   -1.1925    0.7425 H   0  0  0  0  0  0  0  0  0  0  0  0
    7.6086   -2.7951   -0.0256 H   0  0  0  0  0  0  0  0  0  0  0  0
    7.6396   -1.3418   -1.0240 H   0  0  0  0  0  0  0  0  0  0  0  0
    3.2381   -2.9684    1.8433 H   0  0  0  0  0  0  0  0  0  0  0  0
   -1.1328    4.2964   -1.5206 H   0  0  0  0  0  0  0  0  0  0  0  0
   -0.8948    3.9615    0.2323 H   0  0  0  0  0  0  0  0  0  0  0  0
    1.1176    5.3183   -1.7261 H   0  0  0  0  0  0  0  0  0  0  0  0
    1.9294    6.2181    0.2000 H   0  0  0  0  0  0  0  0  0  0  0  0
    1.7340    3.2763    0.5560 H   0  0  0  0  0  0  0  0  0  0  0  0
    2.4972    3.3544   -1.0720 H   0  0  0  0  0  0  0  0  0  0  0  0
   -2.9680   -2.1604   -0.2745 H   0  0  0  0  0  0  0  0  0  0  0  0
   -2.9964   -1.5452    1.3966 H   0  0  0  0  0  0  0  0  0  0  0  0
   -4.9465   -2.9012    1.9655 H   0  0  0  0  0  0  0  0  0  0  0  0
   -7.4035   -3.1135    1.9119 H   0  0  0  0  0  0  0  0  0  0  0  0
   -8.7357   -1.8055    0.2787 H   0  0  0  0  0  0  0  0  0  0  0  0
   -7.5929   -0.2791   -1.3103 H   0  0  0  0  0  0  0  0  0  0  0  0
   -5.1354   -0.0535   -1.2686 H   0  0  0  0  0  0  0  0  0  0  0  0
  1  2  1  0
  2  3  1  0
  3  4  1  0
  4  5  2  0
  5  6  1  0
  6  7  2  0
  7  8  1  0
  7  9  1  0
  9 10  1  0
  9 11  2  0
  2 12  2  0
 12 13  1  0
 13 14  1  0
 14 15  1  0
 15 16  1  0
 16 17  1  0
 16 18  1  0
 13 19  2  0
 19 20  1  0
 20 21  2  3
 21 22  1  0
 22 23  1  0
 23 24  2  0
 24 25  1  0
 25 26  2  0
 26 27  1  0
 27 28  2  0
 20  1  1  0
 28 23  1  0
 11  4  1  0
 18 14  1  0
  1 29  1  0
  3 30  1  0
  5 31  1  0
  6 32  1  0
  8 33  1  0
  8 34  1  0
  8 35  1  0
 11 36  1  0
 15 37  1  0
 15 38  1  0
 16 39  1  0
 17 40  1  0
 18 41  1  0
 18 42  1  0
 22 43  1  0
 22 44  1  0
 24 45  1  0
 25 46  1  0
 26 47  1  0
 27 48  1  0
 28 49  1  0
M  END
>  <ScrubInfo>  (3) 
{"isomerGroup": 0, "isomerId": 2, "confId": 0, "nr_conformers:": 1, "nr_isomers:": 9}

$$$$
_i3
     RDKit          3D

 49 52  0  0  0  0  0  0  0  0999 V2000
    1.0088    2.2080    0.3131 N   0  0  0  0  0  0  0  0  0  0  0  0
   -0.0255    2.9358   -0.1569 C   0  0  0  0  0  0  0  0  0  0  0  0
    0.2056    4.2936   -0.1892 N   0  0  0  0  0  0  0  0  0  0  0  0
    1.1724    4.7528   -1.1594 C   0  0  0  0  0  0  0  0  0  0  0  0
    0.3218    6.0328   -1.2777 C   0  0  0  0  0  0  0  0  0  0  0  0
    0.1728    6.6031   -2.5951 O   0  0  0  0  0  0  0  0  0  0  0  0
   -0.8196    5.1270   -0.7779 C   0  0  0  0  0  0  0  0  0  0  0  0
   -1.1304    2.3455   -0.4962 N   0  0  0  0  0  0  0  0  0  0  0  0
   -1.1886    0.9689   -0.3878 C   0  0  0  0  0  0  0  0  0  0  0  0
   -2.3867    0.4581   -0.8116 N   0  0  0  0  0  0  0  0  0  0  0  0
   -2.8525   -0.8594   -0.9288 C   0  0  0  0  0  0  0  0  0  0  0  0
   -4.1804   -1.0591   -1.3500 C   0  0  0  0  0  0  0  0  0  0  0  0
   -4.7276   -2.3416   -1.4820 C   0  0  0  0  0  0  0  0  0  0  0  0
   -3.9524   -3.4665   -1.1996 C   0  0  0  0  0  0  0  0  0  0  0  0
   -4.5196   -4.8481   -1.3036 C   0  0  0  0  0  0  0  0  0  0  0  0
   -2.6420   -3.2717   -0.7652 C   0  0  0  0  0  0  0  0  0  0  0  0
   -1.8787   -4.3331   -0.4646 F   0  0  0  0  0  0  0  0  0  0  0  0
   -2.0959   -1.9943   -0.6324 C   0  0  0  0  0  0  0  0  0  0  0  0
   -0.2118    0.2443    0.0711 N   0  0  0  0  0  0  0  0  0  0  0  0
    0.9283    0.8725    0.4693 C   0  0  0  0  0  0  0  0  0  0  0  0
    1.9146    0.2241    0.9893 N   0  0  0  0  0  0  0  0  0  0  0  0
    1.7463   -1.2221    1.1274 C   0  0  0  0  0  0  0  0  0  0  0  0
    2.9713   -1.8402    1.7610 C   0  0  0  0  0  0  0  0  0  0  0  0
    4.0093   -2.3436    0.9649 C   0  0  0  0  0  0  0  0  0  0  0  0
    5.1458   -2.9016    1.5530 C   0  0  0  0  0  0  0  0  0  0  0  0
    5.2599   -2.9526    2.9414 C   0  0  0  0  0  0  0  0  0  0  0  0
    4.2410   -2.4404    3.7428 C   0  0  0  0  0  0  0  0  0  0  0  0
    3.1040   -1.8824    3.1559 C   0  0  0  0  0  0  0  0  0  0  0  0
    1.8187    2.6571    0.7050 H   0  0  0  0  0  0  0  0  0  0  0  0
    2.1696    4.8862   -0.7330 H   0  0  0  0  0  0  0  0  0  0  0  0
    1.2209    4.1411   -2.0676 H   0  0  0  0  0  0  0  0  0  0  0  0
    0.6007    6.8095   -0.5534 H   0  0  0  0  0  0  0  0  0  0  0  0
    1.0134    7.0602   -2.7704 H   0  0  0  0  0  0  0  0  0  0  0  0
   -1.4829    5.5682   -0.0300 H   0  0  0  0  0  0  0  0  0  0  0  0
   -1.4016    4.6549   -1.5771 H   0  0  0  0  0  0  0  0  0  0  0  0
   -3.0202    1.1789   -1.1256 H   0  0  0  0  0  0  0  0  0  0  0  0
   -4.8146   -0.2050   -1.5797 H   0  0  0  0  0  0  0  0  0  0  0  0
   -5.7604   -2.4497   -1.8053 H   0  0  0  0  0  0  0  0  0  0  0  0
   -5.4047   -4.8648   -1.9482 H   0  0  0  0  0  0  0  0  0  0  0  0
   -4.8050   -5.2122   -0.3118 H   0  0  0  0  0  0  0  0  0  0  0  0
   -3.7873   -5.5353   -1.7402 H   0  0  0  0  0  0  0  0  0  0  0  0
   -1.0689   -1.9276   -0.2949 H   0  0  0  0  0  0  0  0  0  0  0  0
    0.8753   -1.4587    1.7529 H   0  0  0  0  0  0  0  0  0  0  0  0
    1.5822   -1.6909    0.1483 H   0  0  0  0  0  0  0  0  0  0  0  0
    3.9350   -2.2984   -0.1190 H   0  0  0  0  0  0  0  0  0  0  0  0
    5.9431   -3.2925    0.9270 H   0  0  0  0  0  0  0  0  0  0  0  0
    6.1453   -3.3855    3.3985 H   0  0  0  0  0  0  0  0  0  0  0  0
    4.3322   -2.4711    4.8250 H   0  0  0  0  0  0  0  0  0  0  0  0
    2.3192   -1.4742    3.7885 H   0  0  0  0  0  0  0  0  0  0  0  0
  1  2  1  0
  2  3  1  0
  3  4  1  0
  4  5  1  0
  5  6  1  0
  5  7  1  0
  2  8  2  0
  8  9  1  0
  9 10  1  0
 10 11  1  0
 11 12  2  0
 12 13  1  0
 13 14  2  0
 14 15  1  0
 14 16  1  0
 16 17  1  0
 16 18  2  0
  9 19  2  0
 19 20  1  0
 20 21  2  3
 21 22  1  0
 22 23  1  0
 23 24  2  0
 24 25  1  0
 25 26  2  0
 26 27  1  0
 27 28  2  0
 20  1  1  0
 28 23  1  0
  7  3  1  0
 18 11  1  0
  1 29  1  0
  4 30  1  0
  4 31  1  0
  5 32  1  0
  6 33  1  0
  7 34  1  0
  7 35  1  0
 10 36  1  0
 12 37  1  0
 13 38  1  0
 15 39  1  0
 15 40  1  0
 15 41  1  0
 18 42  1  0
 22 43  1  0
 22 44  1  0
 24 45  1  0
 25 46  1  0
 26 47  1  0
 27 48  1  0
 28 49  1  0
M  END
>  <ScrubInfo>  (4) 
{"isomerGroup": 0, "isomerId": 3, "confId": 0, "nr_conformers:": 1, "nr_isomers:": 9}

$$$$
_i4
     RDKit          3D

 49 52  0  0  0  0  0  0  0  0999 V2000
    0.9301    2.6430    0.8048 N   0  0  0  0  0  0  0  0  0  0  0  0
   -0.3862    2.8886    0.6215 C   0  0  0  0  0  0  0  0  0  0  0  0
   -0.7522    4.1950    0.8649 N   0  0  0  0  0  0  0  0  0  0  0  0
   -0.3226    5.1631   -0.1186 C   0  0  0  0  0  0  0  0  0  0  0  0
   -1.6255    5.9275    0.1879 C   0  0  0  0  0  0  0  0  0  0  0  0
   -2.3022    6.5475   -0.9257 O   0  0  0  0  0  0  0  0  0  0  0  0
   -2.1380    4.5454    0.6353 C   0  0  0  0  0  0  0  0  0  0  0  0
   -1.1862    1.9238    0.2853 N   0  0  0  0  0  0  0  0  0  0  0  0
   -0.6321    0.6817    0.0902 C   0  0  0  0  0  0  0  0  0  0  0  0
   -1.5112   -0.2768   -0.3156 N   0  0  0  0  0  0  0  0  0  0  0  0
   -1.2244   -1.6841   -0.1801 C   0  0  0  0  0  0  0  0  0  0  0  0
   -2.4041   -2.4865   -0.6733 C   0  0  0  0  0  0  0  0  0  0  0  0
   -3.3197   -3.0443    0.2306 C   0  0  0  0  0  0  0  0  0  0  0  0
   -4.4191   -3.7689   -0.2332 C   0  0  0  0  0  0  0  0  0  0  0  0
   -4.6178   -3.9370   -1.6026 C   0  0  0  0  0  0  0  0  0  0  0  0
   -3.7202   -3.3782   -2.5106 C   0  0  0  0  0  0  0  0  0  0  0  0
   -2.6204   -2.6537   -2.0493 C   0  0  0  0  0  0  0  0  0  0  0  0
    0.6229    0.3979    0.2724 N   0  0  0  0  0  0  0  0  0  0  0  0
    1.4504    1.4042    0.6759 C   0  0  0  0  0  0  0  0  0  0  0  0
    2.7072    1.1933    0.9409 N   0  0  0  0  0  0  0  0  0  0  0  0
    3.2158   -0.1065    0.7994 C   0  0  0  0  0  0  0  0  0  0  0  0
    3.3108   -0.9458    1.9141 C   0  0  0  0  0  0  0  0  0  0  0  0
    3.8401   -2.2347    1.7949 C   0  0  0  0  0  0  0  0  0  0  0  0
    4.2836   -2.6991    0.5521 C   0  0  0  0  0  0  0  0  0  0  0  0
    4.8803   -4.0649    0.4054 C   0  0  0  0  0  0  0  0  0  0  0  0
    4.2094   -1.8401   -0.5480 C   0  0  0  0  0  0  0  0  0  0  0  0
    4.6552   -2.2526   -1.7441 F   0  0  0  0  0  0  0  0  0  0  0  0
    3.6851   -0.5567   -0.4341 C   0  0  0  0  0  0  0  0  0  0  0  0
    1.5316    3.3492    1.1916 H   0  0  0  0  0  0  0  0  0  0  0  0
    0.6017    5.6724    0.1648 H   0  0  0  0  0  0  0  0  0  0  0  0
   -0.2453    4.7644   -1.1367 H   0  0  0  0  0  0  0  0  0  0  0  0
   -1.5278    6.6379    1.0195 H   0  0  0  0  0  0  0  0  0  0  0  0
   -1.7837    7.3457   -1.1258 H   0  0  0  0  0  0  0  0  0  0  0  0
   -2.6398    3.9751   -0.1542 H   0  0  0  0  0  0  0  0  0  0  0  0
   -2.7311    4.5332    1.5529 H   0  0  0  0  0  0  0  0  0  0  0  0
   -2.4779   -0.0086   -0.1854 H   0  0  0  0  0  0  0  0  0  0  0  0
   -0.3339   -1.9595   -0.7585 H   0  0  0  0  0  0  0  0  0  0  0  0
   -1.0165   -1.9315    0.8681 H   0  0  0  0  0  0  0  0  0  0  0  0
   -3.1820   -2.9173    1.3022 H   0  0  0  0  0  0  0  0  0  0  0  0
   -5.1224   -4.2011    0.4739 H   0  0  0  0  0  0  0  0  0  0  0  0
   -5.4745   -4.5004   -1.9628 H   0  0  0  0  0  0  0  0  0  0  0  0
   -3.8779   -3.5032   -3.5787 H   0  0  0  0  0  0  0  0  0  0  0  0
   -1.9308   -2.2121   -2.7663 H   0  0  0  0  0  0  0  0  0  0  0  0
    2.9666   -0.5892    2.8811 H   0  0  0  0  0  0  0  0  0  0  0  0
    3.9028   -2.8672    2.6770 H   0  0  0  0  0  0  0  0  0  0  0  0
    5.9727   -3.9988    0.4038 H   0  0  0  0  0  0  0  0  0  0  0  0
    4.5486   -4.5342   -0.5267 H   0  0  0  0  0  0  0  0  0  0  0  0
    4.5723   -4.7210    1.2263 H   0  0  0  0  0  0  0  0  0  0  0  0
    3.6387    0.0850   -1.3064 H   0  0  0  0  0  0  0  0  0  0  0  0
  1  2  1  0
  2  3  1  0
  3  4  1  0
  4  5  1  0
  5  6  1  0
  5  7  1  0
  2  8  2  0
  8  9  1  0
  9 10  1  0
 10 11  1  0
 11 12  1  0
 12 13  2  0
 13 14  1  0
 14 15  2  0
 15 16  1  0
 16 17  2  0
  9 18  2  0
 18 19  1  0
 19 20  2  3
 20 21  1  0
 21 22  2  0
 22 23  1  0
 23 24  2  0
 24 25  1  0
 24 26  1  0
 26 27  1  0
 26 28  2  0
 19  1  1  0
 28 21  1  0
  7  3  1  0
 17 12  1  0
  1 29  1  0
  4 30  1  0
  4 31  1  0
  5 32  1  0
  6 33  1  0
  7 34  1  0
  7 35  1  0
 10 36  1  0
 11 37  1  0
 11 38  1  0
 13 39  1  0
 14 40  1  0
 15 41  1  0
 16 42  1  0
 17 43  1  0
 22 44  1  0
 23 45  1  0
 25 46  1  0
 25 47  1  0
 25 48  1  0
 28 49  1  0
M  END
>  <ScrubInfo>  (5) 
{"isomerGroup": 0, "isomerId": 4, "confId": 0, "nr_conformers:": 1, "nr_isomers:": 9}

$$$$
_i5
     RDKit          3D

 49 52  0  0  0  0  0  0  0  0999 V2000
    0.9879    1.7155   -0.1908 N   0  0  0  0  0  0  0  0  0  0  0  0
    0.5298    0.4659    0.0383 C   0  0  0  0  0  0  0  0  0  0  0  0
    1.4536   -0.4913    0.3321 N   0  0  0  0  0  0  0  0  0  0  0  0
    2.5994   -0.7287   -0.5301 C   0  0  0  0  0  0  0  0  0  0  0  0
    3.3489   -1.9461   -0.0506 C   0  0  0  0  0  0  0  0  0  0  0  0
    3.2482   -3.1641   -0.7384 C   0  0  0  0  0  0  0  0  0  0  0  0
    3.9336   -4.2920   -0.2836 C   0  0  0  0  0  0  0  0  0  0  0  0
    4.7199   -4.2161    0.8645 C   0  0  0  0  0  0  0  0  0  0  0  0
    4.8195   -3.0140    1.5622 C   0  0  0  0  0  0  0  0  0  0  0  0
    4.1356   -1.8848    1.1095 C   0  0  0  0  0  0  0  0  0  0  0  0
   -0.7321    0.1874    0.0031 N   0  0  0  0  0  0  0  0  0  0  0  0
   -1.5542    1.2521   -0.3164 C   0  0  0  0  0  0  0  0  0  0  0  0
   -2.8327    1.0760   -0.4469 N   0  0  0  0  0  0  0  0  0  0  0  0
   -3.3710   -0.2039   -0.2629 C   0  0  0  0  0  0  0  0  0  0  0  0
   -3.8607   -0.5876    0.9898 C   0  0  0  0  0  0  0  0  0  0  0  0
   -4.4259   -1.8525    1.1795 C   0  0  0  0  0  0  0  0  0  0  0  0
   -4.5263   -2.7443    0.1063 C   0  0  0  0  0  0  0  0  0  0  0  0
   -5.1018   -4.1146    0.2901 C   0  0  0  0  0  0  0  0  0  0  0  0
   -4.0385   -2.3465   -1.1418 C   0  0  0  0  0  0  0  0  0  0  0  0
   -4.1108   -3.1898   -2.1827 F   0  0  0  0  0  0  0  0  0  0  0  0
   -3.4770   -1.0887   -1.3355 C   0  0  0  0  0  0  0  0  0  0  0  0
   -1.1376    2.5503   -0.5224 N   0  0  0  0  0  0  0  0  0  0  0  0
    0.1392    2.7520   -0.4294 C   0  0  0  0  0  0  0  0  0  0  0  0
    0.7817    3.9612   -0.5985 N   0  0  0  0  0  0  0  0  0  0  0  0
    1.2388    4.6001    0.6174 C   0  0  0  0  0  0  0  0  0  0  0  0
    0.9342    5.9432   -0.0725 C   0  0  0  0  0  0  0  0  0  0  0  0
    0.3899    6.9878    0.7607 O   0  0  0  0  0  0  0  0  0  0  0  0
   -0.0551    5.1040   -0.9023 C   0  0  0  0  0  0  0  0  0  0  0  0
    1.9497    1.9290    0.0089 H   0  0  0  0  0  0  0  0  0  0  0  0
    0.9674   -1.3685    0.5174 H   0  0  0  0  0  0  0  0  0  0  0  0
    3.2770    0.1332   -0.5249 H   0  0  0  0  0  0  0  0  0  0  0  0
    2.2673   -0.8712   -1.5656 H   0  0  0  0  0  0  0  0  0  0  0  0
    2.6331   -3.2456   -1.6323 H   0  0  0  0  0  0  0  0  0  0  0  0
    3.8508   -5.2323   -0.8230 H   0  0  0  0  0  0  0  0  0  0  0  0
    5.2505   -5.0960    1.2190 H   0  0  0  0  0  0  0  0  0  0  0  0
    5.4256   -2.9577    2.4629 H   0  0  0  0  0  0  0  0  0  0  0  0
    4.2109   -0.9564    1.6716 H   0  0  0  0  0  0  0  0  0  0  0  0
   -3.7938    0.1076    1.8225 H   0  0  0  0  0  0  0  0  0  0  0  0
   -4.7872   -2.1296    2.1666 H   0  0  0  0  0  0  0  0  0  0  0  0
   -5.7030   -4.1729    1.2035 H   0  0  0  0  0  0  0  0  0  0  0  0
   -4.2972   -4.8534    0.3568 H   0  0  0  0  0  0  0  0  0  0  0  0
   -5.7576   -4.3734   -0.5478 H   0  0  0  0  0  0  0  0  0  0  0  0
   -3.1186   -0.8029   -2.3178 H   0  0  0  0  0  0  0  0  0  0  0  0
    2.2934    4.4038    0.8257 H   0  0  0  0  0  0  0  0  0  0  0  0
    0.6255    4.3778    1.4984 H   0  0  0  0  0  0  0  0  0  0  0  0
    1.7775    6.3265   -0.6619 H   0  0  0  0  0  0  0  0  0  0  0  0
    0.0471    7.6534    0.1392 H   0  0  0  0  0  0  0  0  0  0  0  0
   -0.0859    5.3279   -1.9713 H   0  0  0  0  0  0  0  0  0  0  0  0
   -1.0690    5.0704   -0.4885 H   0  0  0  0  0  0  0  0  0  0  0  0
  1  2  1  0
  2  3  1  0
  3  4  1  0
  4  5  1  0
  5  6  2  0
  6  7  1  0
  7  8  2  0
  8  9  1  0
  9 10  2  0
  2 11  2  0
 11 12  1  0
 12 13  2  3
 13 14  1  0
 14 15  2  0
 15 16  1  0
 16 17  2  0
 17 18  1  0
 17 19  1  0
 19 20  1  0
 19 21  2  0
 12 22  1  0
 22 23  2  0
 23 24  1  0
 24 25  1  0
 25 26  1  0
 26 27  1  0
 26 28  1  0
 23  1  1  0
 28 24  1  0
 10  5  1  0
 21 14  1  0
  1 29  1  0
  3 30  1  0
  4 31  1  0
  4 32  1  0
  6 33  1  0
  7 34  1  0
  8 35  1  0
  9 36  1  0
 10 37  1  0
 15 38  1  0
 16 39  1  0
 18 40  1  0
 18 41  1  0
 18 42  1  0
 21 43  1  0
 25 44  1  0
 25 45  1  0
 26 46  1  0
 27 47  1  0
 28 48  1  0
 28 49  1  0
M  END
>  <ScrubInfo>  (6) 
{"isomerGroup": 0, "isomerId": 5, "confId": 0, "nr_conformers:": 1, "nr_isomers:": 9}

$$$$
_i6
     RDKit          3D

 49 52  0  0  0  0  0  0  0  0999 V2000
    1.3098    1.9678   -0.0981 N   0  0  0  0  0  0  0  0  0  0  0  0
    1.5432    0.6307   -0.2177 C   0  0  0  0  0  0  0  0  0  0  0  0
    2.8398    0.3498   -0.5734 N   0  0  0  0  0  0  0  0  0  0  0  0
    3.4509   -0.9154   -0.7127 C   0  0  0  0  0  0  0  0  0  0  0  0
    2.9262   -2.0993   -0.1802 C   0  0  0  0  0  0  0  0  0  0  0  0
    3.5985   -3.3229   -0.3126 C   0  0  0  0  0  0  0  0  0  0  0  0
    4.8238   -3.3905   -0.9777 C   0  0  0  0  0  0  0  0  0  0  0  0
    5.5682   -4.6833   -1.1008 C   0  0  0  0  0  0  0  0  0  0  0  0
    5.3668   -2.2081   -1.4746 C   0  0  0  0  0  0  0  0  0  0  0  0
    6.5589   -2.2263   -2.0888 F   0  0  0  0  0  0  0  0  0  0  0  0
    4.7006   -0.9896   -1.3456 C   0  0  0  0  0  0  0  0  0  0  0  0
    0.5882   -0.2165   -0.0118 N   0  0  0  0  0  0  0  0  0  0  0  0
   -0.6301    0.3141    0.3358 C   0  0  0  0  0  0  0  0  0  0  0  0
   -1.5652   -0.5563    0.4813 N   0  0  0  0  0  0  0  0  0  0  0  0
   -2.8868   -0.0528    0.8524 C   0  0  0  0  0  0  0  0  0  0  0  0
   -3.9183   -1.1569    0.9714 C   0  0  0  0  0  0  0  0  0  0  0  0
   -4.9743   -1.0351    1.8871 C   0  0  0  0  0  0  0  0  0  0  0  0
   -5.9558   -2.0247    1.9778 C   0  0  0  0  0  0  0  0  0  0  0  0
   -5.8991   -3.1422    1.1474 C   0  0  0  0  0  0  0  0  0  0  0  0
   -4.8635   -3.2695    0.2241 C   0  0  0  0  0  0  0  0  0  0  0  0
   -3.8825   -2.2802    0.1328 C   0  0  0  0  0  0  0  0  0  0  0  0
   -0.8923    1.6515    0.5346 N   0  0  0  0  0  0  0  0  0  0  0  0
    0.1012    2.4503    0.3055 C   0  0  0  0  0  0  0  0  0  0  0  0
    0.0858    3.8194    0.4710 N   0  0  0  0  0  0  0  0  0  0  0  0
   -1.1811    4.4223    0.8260 C   0  0  0  0  0  0  0  0  0  0  0  0
   -0.7462    5.6343   -0.0196 C   0  0  0  0  0  0  0  0  0  0  0  0
   -1.7559    6.2860   -0.8176 O   0  0  0  0  0  0  0  0  0  0  0  0
    0.1440    4.6052   -0.7423 C   0  0  0  0  0  0  0  0  0  0  0  0
    2.0965    2.5762    0.0626 H   0  0  0  0  0  0  0  0  0  0  0  0
    3.2997    1.0637   -1.1211 H   0  0  0  0  0  0  0  0  0  0  0  0
    1.9812   -2.1027    0.3581 H   0  0  0  0  0  0  0  0  0  0  0  0
    3.1495   -4.2176    0.1142 H   0  0  0  0  0  0  0  0  0  0  0  0
    4.8912   -5.5390   -1.0065 H   0  0  0  0  0  0  0  0  0  0  0  0
    6.0529   -4.7602   -2.0797 H   0  0  0  0  0  0  0  0  0  0  0  0
    6.3302   -4.7535   -0.3186 H   0  0  0  0  0  0  0  0  0  0  0  0
    5.1808   -0.1051   -1.7517 H   0  0  0  0  0  0  0  0  0  0  0  0
   -3.2583    0.6544    0.0995 H   0  0  0  0  0  0  0  0  0  0  0  0
   -2.8223    0.4631    1.8192 H   0  0  0  0  0  0  0  0  0  0  0  0
   -5.0356   -0.1665    2.5383 H   0  0  0  0  0  0  0  0  0  0  0  0
   -6.7644   -1.9223    2.6961 H   0  0  0  0  0  0  0  0  0  0  0  0
   -6.6612   -3.9130    1.2185 H   0  0  0  0  0  0  0  0  0  0  0  0
   -4.8154   -4.1383   -0.4265 H   0  0  0  0  0  0  0  0  0  0  0  0
   -3.0782   -2.3892   -0.5923 H   0  0  0  0  0  0  0  0  0  0  0  0
   -1.2741    4.6020    1.8997 H   0  0  0  0  0  0  0  0  0  0  0  0
   -2.0690    3.9057    0.4448 H   0  0  0  0  0  0  0  0  0  0  0  0
   -0.1713    6.3764    0.5496 H   0  0  0  0  0  0  0  0  0  0  0  0
   -2.3287    6.7436   -0.1777 H   0  0  0  0  0  0  0  0  0  0  0  0
    1.1566    4.9400   -0.9802 H   0  0  0  0  0  0  0  0  0  0  0  0
   -0.3152    4.1205   -1.6117 H   0  0  0  0  0  0  0  0  0  0  0  0
  1  2  1  0
  2  3  1  0
  3  4  1  0
  4  5  2  0
  5  6  1  0
  6  7  2  0
  7  8  1  0
  7  9  1  0
  9 10  1  0
  9 11  2  0
  2 12  2  0
 12 13  1  0
 13 14  2  3
 14 15  1  0
 15 16  1  0
 16 17  2  0
 17 18  1  0
 18 19  2  0
 19 20  1  0
 20 21  2  0
 13 22  1  0
 22 23  2  0
 23 24  1  0
 24 25  1  0
 25 26  1  0
 26 27  1  0
 26 28  1  0
 23  1  1  0
 28 24  1  0
 11  4  1  0
 21 16  1  0
  1 29  1  0
  3 30  1  0
  5 31  1  0
  6 32  1  0
  8 33  1  0
  8 34  1  0
  8 35  1  0
 11 36  1  0
 15 37  1  0
 15 38  1  0
 17 39  1  0
 18 40  1  0
 19 41  1  0
 20 42  1  0
 21 43  1  0
 25 44  1  0
 25 45  1  0
 26 46  1  0
 27 47  1  0
 28 48  1  0
 28 49  1  0
M  END
>  <ScrubInfo>  (7) 
{"isomerGroup": 0, "isomerId": 6, "confId": 0, "nr_conformers:": 1, "nr_isomers:": 9}

$$$$
_i7
     RDKit          3D

 49 52  0  0  0  0  0  0  0  0999 V2000
   -1.2786    1.7650    1.1907 N   0  0  0  0  0  0  0  0  0  0  0  0
   -0.1135    1.9327    0.4882 C   0  0  0  0  0  0  0  0  0  0  0  0
    0.0975    3.2365    0.0861 N   0  0  0  0  0  0  0  0  0  0  0  0
    1.2526    3.4855   -0.7489 C   0  0  0  0  0  0  0  0  0  0  0  0
    0.4102    4.5716   -1.4446 C   0  0  0  0  0  0  0  0  0  0  0  0
    0.5499    4.7091   -2.8742 O   0  0  0  0  0  0  0  0  0  0  0  0
   -0.7842    3.7360   -0.9457 C   0  0  0  0  0  0  0  0  0  0  0  0
    0.7159    0.9514    0.2723 N   0  0  0  0  0  0  0  0  0  0  0  0
    0.3269   -0.2774    0.7606 C   0  0  0  0  0  0  0  0  0  0  0  0
    1.0577   -1.3378    0.5611 N   0  0  0  0  0  0  0  0  0  0  0  0
    2.2501   -1.2121   -0.1664 C   0  0  0  0  0  0  0  0  0  0  0  0
    3.4659   -1.0447    0.5039 C   0  0  0  0  0  0  0  0  0  0  0  0
    4.6663   -0.9481   -0.2069 C   0  0  0  0  0  0  0  0  0  0  0  0
    4.6623   -1.0196   -1.6040 C   0  0  0  0  0  0  0  0  0  0  0  0
    5.9382   -0.9488   -2.3850 C   0  0  0  0  0  0  0  0  0  0  0  0
    3.4436   -1.2151   -2.2600 C   0  0  0  0  0  0  0  0  0  0  0  0
    3.4180   -1.3146   -3.5975 F   0  0  0  0  0  0  0  0  0  0  0  0
    2.2473   -1.3139   -1.5571 C   0  0  0  0  0  0  0  0  0  0  0  0
   -0.8380   -0.4029    1.4645 N   0  0  0  0  0  0  0  0  0  0  0  0
   -1.7247    0.5968    1.7395 C   0  0  0  0  0  0  0  0  0  0  0  0
   -2.8312    0.5718    2.3970 N   0  0  0  0  0  0  0  0  0  0  0  0
   -3.2553   -0.6946    3.0030 C   0  0  0  0  0  0  0  0  0  0  0  0
   -3.7026   -1.7459    2.0143 C   0  0  0  0  0  0  0  0  0  0  0  0
   -4.5023   -1.4040    0.9146 C   0  0  0  0  0  0  0  0  0  0  0  0
   -4.9182   -2.3804    0.0085 C   0  0  0  0  0  0  0  0  0  0  0  0
   -4.5487   -3.7103    0.1982 C   0  0  0  0  0  0  0  0  0  0  0  0
   -3.7689   -4.0659    1.2969 C   0  0  0  0  0  0  0  0  0  0  0  0
   -3.3523   -3.0904    2.2045 C   0  0  0  0  0  0  0  0  0  0  0  0
   -1.8387    2.5805    1.3843 H   0  0  0  0  0  0  0  0  0  0  0  0
    1.5447    2.6583   -1.4053 H   0  0  0  0  0  0  0  0  0  0  0  0
    2.1130    3.8448   -0.1793 H   0  0  0  0  0  0  0  0  0  0  0  0
    0.4823    5.5533   -0.9582 H   0  0  0  0  0  0  0  0  0  0  0  0
    1.4450    5.0668   -3.0066 H   0  0  0  0  0  0  0  0  0  0  0  0
   -1.6250    4.3066   -0.5438 H   0  0  0  0  0  0  0  0  0  0  0  0
   -1.1385    2.9671   -1.6420 H   0  0  0  0  0  0  0  0  0  0  0  0
    3.4729   -0.9877    1.5890 H   0  0  0  0  0  0  0  0  0  0  0  0
    5.5978   -0.8189    0.3386 H   0  0  0  0  0  0  0  0  0  0  0  0
    6.2670   -1.9562   -2.6584 H   0  0  0  0  0  0  0  0  0  0  0  0
    5.8020   -0.3570   -3.2962 H   0  0  0  0  0  0  0  0  0  0  0  0
    6.7320   -0.4693   -1.8026 H   0  0  0  0  0  0  0  0  0  0  0  0
    1.3180   -1.4659   -2.0941 H   0  0  0  0  0  0  0  0  0  0  0  0
   -1.0582   -1.3495    1.7280 H   0  0  0  0  0  0  0  0  0  0  0  0
   -4.0993   -0.4846    3.6711 H   0  0  0  0  0  0  0  0  0  0  0  0
   -2.4536   -1.0812    3.6457 H   0  0  0  0  0  0  0  0  0  0  0  0
   -4.7998   -0.3688    0.7590 H   0  0  0  0  0  0  0  0  0  0  0  0
   -5.5317   -2.1023   -0.8444 H   0  0  0  0  0  0  0  0  0  0  0  0
   -4.8727   -4.4703   -0.5080 H   0  0  0  0  0  0  0  0  0  0  0  0
   -3.4879   -5.1051    1.4483 H   0  0  0  0  0  0  0  0  0  0  0  0
   -2.7531   -3.3904    3.0615 H   0  0  0  0  0  0  0  0  0  0  0  0
  1  2  1  0
  2  3  1  0
  3  4  1  0
  4  5  1  0
  5  6  1  0
  5  7  1  0
  2  8  2  0
  8  9  1  0
  9 10  2  3
 10 11  1  0
 11 12  2  0
 12 13  1  0
 13 14  2  0
 14 15  1  0
 14 16  1  0
 16 17  1  0
 16 18  2  0
  9 19  1  0
 19 20  1  0
 20 21  2  3
 21 22  1  0
 22 23  1  0
 23 24  2  0
 24 25  1  0
 25 26  2  0
 26 27  1  0
 27 28  2  0
 20  1  1  0
 28 23  1  0
  7  3  1  0
 18 11  1  0
  1 29  1  0
  4 30  1  0
  4 31  1  0
  5 32  1  0
  6 33  1  0
  7 34  1  0
  7 35  1  0
 12 36  1  0
 13 37  1  0
 15 38  1  0
 15 39  1  0
 15 40  1  0
 18 41  1  0
 19 42  1  0
 22 43  1  0
 22 44  1  0
 24 45  1  0
 25 46  1  0
 26 47  1  0
 27 48  1  0
 28 49  1  0
M  END
>  <ScrubInfo>  (8) 
{"isomerGroup": 0, "isomerId": 7, "confId": 0, "nr_conformers:": 1, "nr_isomers:": 9}

$$$$
_i8
     RDKit          3D

 49 52  0  0  0  0  0  0  0  0999 V2000
    1.1390    0.1515    0.2599 N   0  0  0  0  0  0  0  0  0  0  0  0
    0.0470    0.9800    0.3338 C   0  0  0  0  0  0  0  0  0  0  0  0
    0.3887    2.2916    0.5979 N   0  0  0  0  0  0  0  0  0  0  0  0
   -0.6871    3.2581    0.6358 C   0  0  0  0  0  0  0  0  0  0  0  0
    0.3127    4.2699    0.0445 C   0  0  0  0  0  0  0  0  0  0  0  0
   -0.1845    5.1944   -0.9453 O   0  0  0  0  0  0  0  0  0  0  0  0
    1.0253    3.0107   -0.4844 C   0  0  0  0  0  0  0  0  0  0  0  0
   -1.1744    0.5436    0.2049 N   0  0  0  0  0  0  0  0  0  0  0  0
   -1.3027   -0.8060   -0.0413 C   0  0  0  0  0  0  0  0  0  0  0  0
   -2.4693   -1.3367   -0.1997 N   0  0  0  0  0  0  0  0  0  0  0  0
   -3.6181   -0.4376   -0.1053 C   0  0  0  0  0  0  0  0  0  0  0  0
   -4.9080   -1.1975   -0.3131 C   0  0  0  0  0  0  0  0  0  0  0  0
   -5.4524   -1.3388   -1.5970 C   0  0  0  0  0  0  0  0  0  0  0  0
   -6.6366   -2.0526   -1.7895 C   0  0  0  0  0  0  0  0  0  0  0  0
   -7.2820   -2.6401   -0.7027 C   0  0  0  0  0  0  0  0  0  0  0  0
   -6.7406   -2.5206    0.5762 C   0  0  0  0  0  0  0  0  0  0  0  0
   -5.5565   -1.8071    0.7699 C   0  0  0  0  0  0  0  0  0  0  0  0
   -0.1950   -1.5968   -0.1194 N   0  0  0  0  0  0  0  0  0  0  0  0
    1.0981   -1.1995    0.0337 C   0  0  0  0  0  0  0  0  0  0  0  0
    2.0805   -2.0441   -0.0365 N   0  0  0  0  0  0  0  0  0  0  0  0
    3.3874   -1.5697    0.1285 C   0  0  0  0  0  0  0  0  0  0  0  0
    3.9760   -1.5591    1.3965 C   0  0  0  0  0  0  0  0  0  0  0  0
    5.2793   -1.0847    1.5728 C   0  0  0  0  0  0  0  0  0  0  0  0
    6.0162   -0.6311    0.4735 C   0  0  0  0  0  0  0  0  0  0  0  0
    7.4066   -0.0981    0.6388 C   0  0  0  0  0  0  0  0  0  0  0  0
    5.4175   -0.6537   -0.7891 C   0  0  0  0  0  0  0  0  0  0  0  0
    6.0976   -0.2084   -1.8554 F   0  0  0  0  0  0  0  0  0  0  0  0
    4.1210   -1.1244   -0.9698 C   0  0  0  0  0  0  0  0  0  0  0  0
    2.0377    0.5662    0.4516 H   0  0  0  0  0  0  0  0  0  0  0  0
   -1.5391    3.0383   -0.0169 H   0  0  0  0  0  0  0  0  0  0  0  0
   -1.0279    3.4672    1.6527 H   0  0  0  0  0  0  0  0  0  0  0  0
    0.8930    4.8038    0.8085 H   0  0  0  0  0  0  0  0  0  0  0  0
   -0.7457    5.8167   -0.4507 H   0  0  0  0  0  0  0  0  0  0  0  0
    0.7139    2.6831   -1.4829 H   0  0  0  0  0  0  0  0  0  0  0  0
    2.1152    3.0156   -0.4049 H   0  0  0  0  0  0  0  0  0  0  0  0
   -3.6559    0.0484    0.8787 H   0  0  0  0  0  0  0  0  0  0  0  0
   -3.5561    0.3579   -0.8596 H   0  0  0  0  0  0  0  0  0  0  0  0
   -4.9485   -0.8968   -2.4533 H   0  0  0  0  0  0  0  0  0  0  0  0
   -7.0509   -2.1552   -2.7887 H   0  0  0  0  0  0  0  0  0  0  0  0
   -8.2015   -3.1987   -0.8536 H   0  0  0  0  0  0  0  0  0  0  0  0
   -7.2358   -2.9884    1.4225 H   0  0  0  0  0  0  0  0  0  0  0  0
   -5.1334   -1.7320    1.7688 H   0  0  0  0  0  0  0  0  0  0  0  0
   -0.3660   -2.5753   -0.2919 H   0  0  0  0  0  0  0  0  0  0  0  0
    3.4143   -1.9280    2.2517 H   0  0  0  0  0  0  0  0  0  0  0  0
    5.7144   -1.0825    2.5699 H   0  0  0  0  0  0  0  0  0  0  0  0
    7.3983    0.9949    0.5827 H   0  0  0  0  0  0  0  0  0  0  0  0
    7.8325   -0.3916    1.6040 H   0  0  0  0  0  0  0  0  0  0  0  0
    8.0654   -0.4927   -0.1417 H   0  0  0  0  0  0  0  0  0  0  0  0
    3.6901   -1.1439   -1.9653 H   0  0  0  0  0  0  0  0  0  0  0  0
  1  2  1  0
  2  3  1  0
  3  4  1  0
  4  5  1  0
  5  6  1  0
  5  7  1  0
  2  8  2  0
  8  9  1  0
  9 10  2  3
 10 11  1  0
 11 12  1  0
 12 13  2  0
 13 14  1  0
 14 15  2  0
 15 16  1  0
 16 17  2  0
  9 18  1  0
 18 19  1  0
 19 20  2  3
 20 21  1  0
 21 22  2  0
 22 23  1  0
 23 24  2  0
 24 25  1  0
 24 26  1  0
 26 27  1  0
 26 28  2  0
 19  1  1  0
 28 21  1  0
  7  3  1  0
 17 12  1  0
  1 29  1  0
  4 30  1  0
  4 31  1  0
  5 32  1  0
  6 33  1  0
  7 34  1  0
  7 35  1  0
 11 36  1  0
 11 37  1  0
 13 38  1  0
 14 39  1  0
 15 40  1  0
 16 41  1  0
 17 42  1  0
 18 43  1  0
 22 44  1  0
 23 45  1  0
 25 46  1  0
 25 47  1  0
 25 48  1  0
 28 49  1  0
M  END
>  <ScrubInfo>  (9) 
{"isomerGroup": 0, "isomerId": 8, "confId": 0, "nr_conformers:": 1, "nr_isomers:": 9}

$$$$
