REMARK SMILES CC(C)CCNc1nc(Nc2ccc3c(c2)OCO3)c2cnn(C)c2n1
REMARK SMILES IDX 5 1 4 2 2 3 1 4 3 5 6 6 7 8 8 9 26 10 9 11 25 12 20 13 23 14
REMARK SMILES IDX 21 15 22 16 24 17 10 18 11 20 12 21 16 22 13 23 15 24 14 25
REMARK SMILES IDX 17 26 19 27 18 28
REMARK H PARENT 6 7 10 19
ROOT
ATOM      1  C   UNL     1      -3.334  -0.476   0.687  1.00  0.00     0.116 C 
ENDROOT
BRANCH   1   2
ATOM      2  C   UNL     1      -4.548  -1.308   0.258  1.00  0.00     0.024 C 
BRANCH   2   3
ATOM      3  C   UNL     1      -5.312  -0.767  -0.967  1.00  0.00    -0.016 C 
ATOM      4  C   UNL     1      -5.877   0.635  -0.732  1.00  0.00     0.007 C 
ATOM      5  C   UNL     1      -6.448  -1.727  -1.331  1.00  0.00     0.007 C 
ENDBRANCH   2   3
ENDBRANCH   1   2
BRANCH   1   6
ATOM      6  N   UNL     1      -2.352  -0.436  -0.381  1.00  0.00    -0.354 N 
ATOM      7  H   UNL     1      -2.071  -1.339  -0.749  1.00  0.00     0.163 HD
BRANCH   6   8
ATOM      8  C   UNL     1      -1.172   0.228  -0.067  1.00  0.00     0.226 A 
ATOM      9  N   UNL     1      -0.069  -0.299  -0.631  1.00  0.00    -0.195 NA
ATOM     10  N   UNL     1      -1.204   1.299   0.738  1.00  0.00    -0.193 NA
ATOM     11  C   UNL     1       1.148   0.254  -0.398  1.00  0.00     0.147 A 
ATOM     12  C   UNL     1       0.004   1.850   0.920  1.00  0.00     0.165 A 
ATOM     13  C   UNL     1       1.200   1.401   0.396  1.00  0.00     0.082 A 
ATOM     14  N   UNL     1       0.307   2.969   1.647  1.00  0.00    -0.250 N 
ATOM     15  C   UNL     1       2.154   2.336   0.849  1.00  0.00     0.149 A 
ATOM     16  N   UNL     1       1.623   3.286   1.629  1.00  0.00    -0.179 NA
ATOM     17  C   UNL     1      -0.613   3.801   2.380  1.00  0.00     0.176 C 
BRANCH  11  18
ATOM     18  N   UNL     1       2.246  -0.341  -1.034  1.00  0.00    -0.339 N 
ATOM     19  H   UNL     1       1.894  -1.090  -1.626  1.00  0.00     0.168 HD
BRANCH  18  20
ATOM     20  C   UNL     1       3.521  -0.647  -0.516  1.00  0.00     0.044 A 
ATOM     21  C   UNL     1       3.805  -0.671   0.867  1.00  0.00     0.030 A 
ATOM     22  C   UNL     1       4.547  -0.951  -1.426  1.00  0.00     0.076 A 
ATOM     23  C   UNL     1       5.086  -0.977   1.343  1.00  0.00     0.053 A 
ATOM     24  C   UNL     1       5.801  -1.249  -0.932  1.00  0.00     0.167 A 
ATOM     25  C   UNL     1       6.063  -1.260   0.416  1.00  0.00     0.165 A 
ATOM     26  O   UNL     1       6.896  -1.557  -1.676  1.00  0.00    -0.454 OA
ATOM     27  O   UNL     1       7.356  -1.577   0.692  1.00  0.00    -0.454 OA
ATOM     28  C   UNL     1       7.880  -1.759  -0.640  1.00  0.00     0.468 C 
ENDBRANCH  18  20
ENDBRANCH  11  18
ENDBRANCH   6   8
ENDBRANCH   1   6
TORSDOF 6
