_i0
     RDKit          3D

 48 51  0  0  0  0  0  0  0  0999 V2000
   -5.8766    0.6347   -0.7321 C   0  0  0  0  0  0  0  0  0  0  0  0
   -5.3124   -0.7670   -0.9671 C   0  0  0  0  0  0  0  0  0  0  0  0
   -6.4484   -1.7267   -1.3314 C   0  0  0  0  0  0  0  0  0  0  0  0
   -4.5478   -1.3085    0.2580 C   0  0  0  0  0  0  0  0  0  0  0  0
   -3.3340   -0.4764    0.6870 C   0  0  0  0  0  0  0  0  0  0  0  0
   -2.3520   -0.4365   -0.3812 N   0  0  0  0  0  0  0  0  0  0  0  0
   -1.1724    0.2283   -0.0672 C   0  0  0  0  0  0  0  0  0  0  0  0
   -0.0693   -0.2991   -0.6312 N   0  0  0  0  0  0  0  0  0  0  0  0
    1.1481    0.2538   -0.3977 C   0  0  0  0  0  0  0  0  0  0  0  0
    2.2457   -0.3411   -1.0341 N   0  0  0  0  0  0  0  0  0  0  0  0
    3.5214   -0.6466   -0.5163 C   0  0  0  0  0  0  0  0  0  0  0  0
    3.8049   -0.6713    0.8671 C   0  0  0  0  0  0  0  0  0  0  0  0
    5.0863   -0.9772    1.3427 C   0  0  0  0  0  0  0  0  0  0  0  0
    6.0633   -1.2598    0.4160 C   0  0  0  0  0  0  0  0  0  0  0  0
    5.8005   -1.2490   -0.9316 C   0  0  0  0  0  0  0  0  0  0  0  0
    4.5472   -0.9512   -1.4256 C   0  0  0  0  0  0  0  0  0  0  0  0
    6.8960   -1.5574   -1.6764 O   0  0  0  0  0  0  0  0  0  0  0  0
    7.8802   -1.7586   -0.6403 C   0  0  0  0  0  0  0  0  0  0  0  0
    7.3556   -1.5775    0.6915 O   0  0  0  0  0  0  0  0  0  0  0  0
    1.2001    1.4011    0.3964 C   0  0  0  0  0  0  0  0  0  0  0  0
    2.1539    2.3359    0.8493 C   0  0  0  0  0  0  0  0  0  0  0  0
    1.6228    3.2857    1.6288 N   0  0  0  0  0  0  0  0  0  0  0  0
    0.3071    2.9685    1.6472 N   0  0  0  0  0  0  0  0  0  0  0  0
   -0.6127    3.8012    2.3801 C   0  0  0  0  0  0  0  0  0  0  0  0
    0.0044    1.8499    0.9204 C   0  0  0  0  0  0  0  0  0  0  0  0
   -1.2042    1.2987    0.7383 N   0  0  0  0  0  0  0  0  0  0  0  0
   -6.5141    0.6622    0.1580 H   0  0  0  0  0  0  0  0  0  0  0  0
   -5.0764    1.3698   -0.6030 H   0  0  0  0  0  0  0  0  0  0  0  0
   -6.4779    0.9597   -1.5881 H   0  0  0  0  0  0  0  0  0  0  0  0
   -4.6305   -0.7222   -1.8252 H   0  0  0  0  0  0  0  0  0  0  0  0
   -7.1757   -1.8101   -0.5165 H   0  0  0  0  0  0  0  0  0  0  0  0
   -6.9789   -1.3808   -2.2249 H   0  0  0  0  0  0  0  0  0  0  0  0
   -6.0591   -2.7283   -1.5430 H   0  0  0  0  0  0  0  0  0  0  0  0
   -4.2127   -2.3317    0.0418 H   0  0  0  0  0  0  0  0  0  0  0  0
   -5.2347   -1.3808    1.1112 H   0  0  0  0  0  0  0  0  0  0  0  0
   -3.6574    0.5317    0.9696 H   0  0  0  0  0  0  0  0  0  0  0  0
   -2.8967   -0.9430    1.5792 H   0  0  0  0  0  0  0  0  0  0  0  0
   -2.0706   -1.3389   -0.7493 H   0  0  0  0  0  0  0  0  0  0  0  0
    1.8936   -1.0897   -1.6263 H   0  0  0  0  0  0  0  0  0  0  0  0
    3.0232   -0.4753    1.5968 H   0  0  0  0  0  0  0  0  0  0  0  0
    5.3007   -0.9971    2.4053 H   0  0  0  0  0  0  0  0  0  0  0  0
    4.3720   -0.9406   -2.4960 H   0  0  0  0  0  0  0  0  0  0  0  0
    8.2756   -2.7773   -0.7258 H   0  0  0  0  0  0  0  0  0  0  0  0
    8.7011   -1.0486   -0.7937 H   0  0  0  0  0  0  0  0  0  0  0  0
    3.2166    2.3615    0.6436 H   0  0  0  0  0  0  0  0  0  0  0  0
   -1.6213    3.3857    2.3236 H   0  0  0  0  0  0  0  0  0  0  0  0
   -0.5975    4.8008    1.9384 H   0  0  0  0  0  0  0  0  0  0  0  0
   -0.2870    3.8390    3.4228 H   0  0  0  0  0  0  0  0  0  0  0  0
  1  2  1  0
  2  3  1  0
  2  4  1  0
  4  5  1  0
  5  6  1  0
  6  7  1  0
  7  8  2  0
  8  9  1  0
  9 10  1  0
 10 11  1  0
 11 12  2  0
 12 13  1  0
 13 14  2  0
 14 15  1  0
 15 16  2  0
 15 17  1  0
 17 18  1  0
 18 19  1  0
  9 20  2  0
 20 21  1  0
 21 22  2  0
 22 23  1  0
 23 24  1  0
 23 25  1  0
 25 26  2  0
 26  7  1  0
 16 11  1  0
 25 20  1  0
 19 14  1  0
  1 27  1  0
  1 28  1  0
  1 29  1  0
  2 30  1  0
  3 31  1  0
  3 32  1  0
  3 33  1  0
  4 34  1  0
  4 35  1  0
  5 36  1  0
  5 37  1  0
  6 38  1  0
 10 39  1  0
 12 40  1  0
 13 41  1  0
 16 42  1  0
 18 43  1  0
 18 44  1  0
 21 45  1  0
 24 46  1  0
 24 47  1  0
 24 48  1  0
M  END
>  <ScrubInfo>  (1) 
{"isomerGroup": 0, "isomerId": 0, "confId": 0, "nr_conformers:": 1, "nr_isomers:": 9}

$$$$
_i1
     RDKit          3D

 48 51  0  0  0  0  0  0  0  0999 V2000
   -0.0770   -1.5378   -0.1552 N   0  0  0  0  0  0  0  0  0  0  0  0
   -1.2668   -1.0380    0.3323 C   0  0  0  0  0  0  0  0  0  0  0  0
   -2.4794   -1.5212   -0.1204 N   0  0  0  0  0  0  0  0  0  0  0  0
   -3.5603   -0.7648   -0.6340 C   0  0  0  0  0  0  0  0  0  0  0  0
   -3.4776    0.6192   -0.9083 C   0  0  0  0  0  0  0  0  0  0  0  0
   -4.5851    1.3373   -1.3778 C   0  0  0  0  0  0  0  0  0  0  0  0
   -5.7643    0.6521   -1.5582 C   0  0  0  0  0  0  0  0  0  0  0  0
   -5.8627   -0.6907   -1.2909 C   0  0  0  0  0  0  0  0  0  0  0  0
   -4.7875   -1.4214   -0.8282 C   0  0  0  0  0  0  0  0  0  0  0  0
   -7.1101   -1.1773   -1.5295 O   0  0  0  0  0  0  0  0  0  0  0  0
   -7.7855    0.0165   -1.9792 C   0  0  0  0  0  0  0  0  0  0  0  0
   -6.9345    1.1814   -2.0018 O   0  0  0  0  0  0  0  0  0  0  0  0
   -1.1413   -0.1314    1.3098 C   0  0  0  0  0  0  0  0  0  0  0  0
   -2.0169    0.6251    2.2114 C   0  0  0  0  0  0  0  0  0  0  0  0
   -1.3555    1.3933    3.0412 N   0  0  0  0  0  0  0  0  0  0  0  0
   -0.0001    1.2233    2.7105 N   0  0  0  0  0  0  0  0  0  0  0  0
    1.0052    1.6741    3.6422 C   0  0  0  0  0  0  0  0  0  0  0  0
    0.2187    0.2769    1.7223 C   0  0  0  0  0  0  0  0  0  0  0  0
    1.3210   -0.1887    1.2407 N   0  0  0  0  0  0  0  0  0  0  0  0
    1.1693   -1.1284    0.2461 C   0  0  0  0  0  0  0  0  0  0  0  0
    2.1978   -1.6398   -0.3447 N   0  0  0  0  0  0  0  0  0  0  0  0
    3.5341   -1.2162    0.0808 C   0  0  0  0  0  0  0  0  0  0  0  0
    3.9862   -0.0203   -0.7593 C   0  0  0  0  0  0  0  0  0  0  0  0
    5.3385    0.5647   -0.3141 C   0  0  0  0  0  0  0  0  0  0  0  0
    5.6430    1.8346   -1.1126 C   0  0  0  0  0  0  0  0  0  0  0  0
    6.4868   -0.4327   -0.4726 C   0  0  0  0  0  0  0  0  0  0  0  0
   -0.0943   -2.1785   -0.9329 H   0  0  0  0  0  0  0  0  0  0  0  0
   -2.4011   -2.4141   -0.6002 H   0  0  0  0  0  0  0  0  0  0  0  0
   -2.5403    1.1567   -0.7873 H   0  0  0  0  0  0  0  0  0  0  0  0
   -4.5156    2.3974   -1.5954 H   0  0  0  0  0  0  0  0  0  0  0  0
   -4.9057   -2.4773   -0.6101 H   0  0  0  0  0  0  0  0  0  0  0  0
   -8.6320    0.2132   -1.3111 H   0  0  0  0  0  0  0  0  0  0  0  0
   -8.1687   -0.1577   -2.9912 H   0  0  0  0  0  0  0  0  0  0  0  0
   -3.1077    0.5091    2.1773 H   0  0  0  0  0  0  0  0  0  0  0  0
    1.1690    0.9216    4.4198 H   0  0  0  0  0  0  0  0  0  0  0  0
    0.6969    2.6081    4.1230 H   0  0  0  0  0  0  0  0  0  0  0  0
    1.9553    1.8601    3.1312 H   0  0  0  0  0  0  0  0  0  0  0  0
    4.2081   -2.0637   -0.0848 H   0  0  0  0  0  0  0  0  0  0  0  0
    3.5896   -0.9951    1.1532 H   0  0  0  0  0  0  0  0  0  0  0  0
    4.0347   -0.3171   -1.8152 H   0  0  0  0  0  0  0  0  0  0  0  0
    3.2242    0.7676   -0.7005 H   0  0  0  0  0  0  0  0  0  0  0  0
    5.2691    0.8432    0.7451 H   0  0  0  0  0  0  0  0  0  0  0  0
    6.5841    2.2865   -0.7817 H   0  0  0  0  0  0  0  0  0  0  0  0
    5.7277    1.6202   -2.1835 H   0  0  0  0  0  0  0  0  0  0  0  0
    4.8513    2.5791   -0.9770 H   0  0  0  0  0  0  0  0  0  0  0  0
    6.5586   -0.7950   -1.5036 H   0  0  0  0  0  0  0  0  0  0  0  0
    6.3571   -1.2973    0.1852 H   0  0  0  0  0  0  0  0  0  0  0  0
    7.4435    0.0321   -0.2106 H   0  0  0  0  0  0  0  0  0  0  0  0
  1  2  1  0
  2  3  1  0
  3  4  1  0
  4  5  2  0
  5  6  1  0
  6  7  2  0
  7  8  1  0
  8  9  2  0
  8 10  1  0
 10 11  1  0
 11 12  1  0
  2 13  2  0
 13 14  1  0
 14 15  2  0
 15 16  1  0
 16 17  1  0
 16 18  1  0
 18 19  2  0
 19 20  1  0
 20 21  2  3
 21 22  1  0
 22 23  1  0
 23 24  1  0
 24 25  1  0
 24 26  1  0
 20  1  1  0
  9  4  1  0
 18 13  1  0
 12  7  1  0
  1 27  1  0
  3 28  1  0
  5 29  1  0
  6 30  1  0
  9 31  1  0
 11 32  1  0
 11 33  1  0
 14 34  1  0
 17 35  1  0
 17 36  1  0
 17 37  1  0
 22 38  1  0
 22 39  1  0
 23 40  1  0
 23 41  1  0
 24 42  1  0
 25 43  1  0
 25 44  1  0
 25 45  1  0
 26 46  1  0
 26 47  1  0
 26 48  1  0
M  END
>  <ScrubInfo>  (2) 
{"isomerGroup": 0, "isomerId": 1, "confId": 0, "nr_conformers:": 1, "nr_isomers:": 9}

$$$$
_i2
     RDKit          3D

 48 51  0  0  0  0  0  0  0  0999 V2000
   -0.5071    0.1143    0.0622 N   0  0  0  0  0  0  0  0  0  0  0  0
   -1.3188   -0.9839    0.1852 C   0  0  0  0  0  0  0  0  0  0  0  0
   -2.6631   -0.7547    0.1041 N   0  0  0  0  0  0  0  0  0  0  0  0
   -3.3259    0.2711    0.8972 C   0  0  0  0  0  0  0  0  0  0  0  0
   -4.8184    0.3274    0.5612 C   0  0  0  0  0  0  0  0  0  0  0  0
   -5.1437    0.6853   -0.9032 C   0  0  0  0  0  0  0  0  0  0  0  0
   -4.6036    2.0587   -1.3040 C   0  0  0  0  0  0  0  0  0  0  0  0
   -6.6586    0.6418   -1.1206 C   0  0  0  0  0  0  0  0  0  0  0  0
   -0.8798   -2.2057    0.3516 N   0  0  0  0  0  0  0  0  0  0  0  0
    0.4820   -2.2426    0.4121 C   0  0  0  0  0  0  0  0  0  0  0  0
    1.3814   -1.1922    0.2981 C   0  0  0  0  0  0  0  0  0  0  0  0
    2.6417   -1.7974    0.4466 C   0  0  0  0  0  0  0  0  0  0  0  0
    2.5633   -3.1207    0.6365 N   0  0  0  0  0  0  0  0  0  0  0  0
    1.2341   -3.3669    0.6065 N   0  0  0  0  0  0  0  0  0  0  0  0
    0.7629   -4.7179    0.7790 C   0  0  0  0  0  0  0  0  0  0  0  0
    0.8678    0.1454    0.0728 C   0  0  0  0  0  0  0  0  0  0  0  0
    1.5236    1.2506   -0.1129 N   0  0  0  0  0  0  0  0  0  0  0  0
    2.9188    1.2950   -0.1169 C   0  0  0  0  0  0  0  0  0  0  0  0
    3.6249    1.1159   -1.3242 C   0  0  0  0  0  0  0  0  0  0  0  0
    5.0209    1.1919   -1.3589 C   0  0  0  0  0  0  0  0  0  0  0  0
    5.6735    1.4640   -0.1766 C   0  0  0  0  0  0  0  0  0  0  0  0
    4.9888    1.6615    0.9998 C   0  0  0  0  0  0  0  0  0  0  0  0
    3.6132    1.5921    1.0611 C   0  0  0  0  0  0  0  0  0  0  0  0
    5.8190    1.9244    2.0445 O   0  0  0  0  0  0  0  0  0  0  0  0
    7.1047    1.8633    1.3924 C   0  0  0  0  0  0  0  0  0  0  0  0
    7.0190    1.5761   -0.0190 O   0  0  0  0  0  0  0  0  0  0  0  0
   -0.9368    0.9794   -0.2195 H   0  0  0  0  0  0  0  0  0  0  0  0
   -3.1422   -1.6498    0.1883 H   0  0  0  0  0  0  0  0  0  0  0  0
   -2.8676    1.2524    0.7412 H   0  0  0  0  0  0  0  0  0  0  0  0
   -3.2108    0.0286    1.9603 H   0  0  0  0  0  0  0  0  0  0  0  0
   -5.2945    1.0579    1.2279 H   0  0  0  0  0  0  0  0  0  0  0  0
   -5.2688   -0.6462    0.7957 H   0  0  0  0  0  0  0  0  0  0  0  0
   -4.6938   -0.0655   -1.5645 H   0  0  0  0  0  0  0  0  0  0  0  0
   -4.9158    2.3168   -2.3218 H   0  0  0  0  0  0  0  0  0  0  0  0
   -4.9688    2.8411   -0.6303 H   0  0  0  0  0  0  0  0  0  0  0  0
   -3.5096    2.0766   -1.2883 H   0  0  0  0  0  0  0  0  0  0  0  0
   -7.1718    1.3795   -0.4942 H   0  0  0  0  0  0  0  0  0  0  0  0
   -7.0586   -0.3480   -0.8766 H   0  0  0  0  0  0  0  0  0  0  0  0
   -6.9082    0.8527   -2.1659 H   0  0  0  0  0  0  0  0  0  0  0  0
    3.6254   -1.3497    0.4286 H   0  0  0  0  0  0  0  0  0  0  0  0
    1.0429   -5.0529    1.7809 H   0  0  0  0  0  0  0  0  0  0  0  0
    1.2351   -5.3472    0.0202 H   0  0  0  0  0  0  0  0  0  0  0  0
   -0.3225   -4.7562    0.6647 H   0  0  0  0  0  0  0  0  0  0  0  0
    3.0741    0.9156   -2.2400 H   0  0  0  0  0  0  0  0  0  0  0  0
    5.5696    1.0474   -2.2824 H   0  0  0  0  0  0  0  0  0  0  0  0
    3.0867    1.7617    1.9926 H   0  0  0  0  0  0  0  0  0  0  0  0
    7.6104    2.8268    1.5239 H   0  0  0  0  0  0  0  0  0  0  0  0
    7.7051    1.0824    1.8733 H   0  0  0  0  0  0  0  0  0  0  0  0
  1  2  1  0
  2  3  1  0
  3  4  1  0
  4  5  1  0
  5  6  1  0
  6  7  1  0
  6  8  1  0
  2  9  2  0
  9 10  1  0
 10 11  2  0
 11 12  1  0
 12 13  2  0
 13 14  1  0
 14 15  1  0
 11 16  1  0
 16 17  2  3
 17 18  1  0
 18 19  2  0
 19 20  1  0
 20 21  2  0
 21 22  1  0
 22 23  2  0
 22 24  1  0
 24 25  1  0
 25 26  1  0
 16  1  1  0
 23 18  1  0
 14 10  1  0
 26 21  1  0
  1 27  1  0
  3 28  1  0
  4 29  1  0
  4 30  1  0
  5 31  1  0
  5 32  1  0
  6 33  1  0
  7 34  1  0
  7 35  1  0
  7 36  1  0
  8 37  1  0
  8 38  1  0
  8 39  1  0
 12 40  1  0
 15 41  1  0
 15 42  1  0
 15 43  1  0
 19 44  1  0
 20 45  1  0
 23 46  1  0
 25 47  1  0
 25 48  1  0
M  END
>  <ScrubInfo>  (3) 
{"isomerGroup": 0, "isomerId": 2, "confId": 0, "nr_conformers:": 1, "nr_isomers:": 9}

$$$$
_i3
     RDKit          3D

 48 51  0  0  0  0  0  0  0  0999 V2000
   -1.2491    1.0672    1.0895 N   0  0  0  0  0  0  0  0  0  0  0  0
   -0.6678   -0.1168    0.6699 C   0  0  0  0  0  0  0  0  0  0  0  0
   -1.2662   -1.2394    0.4896 N   0  0  0  0  0  0  0  0  0  0  0  0
   -2.6905   -1.3918    0.7527 C   0  0  0  0  0  0  0  0  0  0  0  0
   -3.4925   -1.0188   -0.4950 C   0  0  0  0  0  0  0  0  0  0  0  0
   -5.0155   -1.0406   -0.2731 C   0  0  0  0  0  0  0  0  0  0  0  0
   -5.5349   -2.4357    0.0768 C   0  0  0  0  0  0  0  0  0  0  0  0
   -5.7299   -0.5217   -1.5233 C   0  0  0  0  0  0  0  0  0  0  0  0
    0.6864   -0.1833    0.3897 N   0  0  0  0  0  0  0  0  0  0  0  0
    1.4510    0.8612    0.5074 C   0  0  0  0  0  0  0  0  0  0  0  0
    2.8019    0.9545    0.2699 N   0  0  0  0  0  0  0  0  0  0  0  0
    3.7037   -0.0419   -0.1608 C   0  0  0  0  0  0  0  0  0  0  0  0
    3.3322   -1.3751   -0.4386 C   0  0  0  0  0  0  0  0  0  0  0  0
    4.2678   -2.3295   -0.8648 C   0  0  0  0  0  0  0  0  0  0  0  0
    5.5747   -1.9294   -1.0077 C   0  0  0  0  0  0  0  0  0  0  0  0
    5.9583   -0.6395   -0.7436 C   0  0  0  0  0  0  0  0  0  0  0  0
    5.0562    0.3176   -0.3230 C   0  0  0  0  0  0  0  0  0  0  0  0
    7.2892   -0.4417   -0.9440 O   0  0  0  0  0  0  0  0  0  0  0  0
    7.6970   -1.7609   -1.3653 C   0  0  0  0  0  0  0  0  0  0  0  0
    6.6121   -2.7101   -1.4079 O   0  0  0  0  0  0  0  0  0  0  0  0
    0.8690    2.1201    0.9391 C   0  0  0  0  0  0  0  0  0  0  0  0
    1.2955    3.4366    1.1840 C   0  0  0  0  0  0  0  0  0  0  0  0
    0.2937    4.2366    1.5787 N   0  0  0  0  0  0  0  0  0  0  0  0
   -0.7886    3.4211    1.5866 N   0  0  0  0  0  0  0  0  0  0  0  0
   -2.0686    3.9597    1.9707 C   0  0  0  0  0  0  0  0  0  0  0  0
   -0.4718    2.1550    1.2102 C   0  0  0  0  0  0  0  0  0  0  0  0
   -2.2450    1.0661    1.2435 H   0  0  0  0  0  0  0  0  0  0  0  0
   -2.8645   -2.4430    1.0062 H   0  0  0  0  0  0  0  0  0  0  0  0
   -3.0159   -0.8158    1.6263 H   0  0  0  0  0  0  0  0  0  0  0  0
   -3.2228   -1.6973   -1.3149 H   0  0  0  0  0  0  0  0  0  0  0  0
   -3.1987   -0.0139   -0.8245 H   0  0  0  0  0  0  0  0  0  0  0  0
   -5.2592   -0.3653    0.5570 H   0  0  0  0  0  0  0  0  0  0  0  0
   -5.2595   -3.1661   -0.6915 H   0  0  0  0  0  0  0  0  0  0  0  0
   -6.6269   -2.4328    0.1637 H   0  0  0  0  0  0  0  0  0  0  0  0
   -5.1357   -2.7808    1.0352 H   0  0  0  0  0  0  0  0  0  0  0  0
   -6.8138   -0.4936   -1.3692 H   0  0  0  0  0  0  0  0  0  0  0  0
   -5.4024    0.4950   -1.7653 H   0  0  0  0  0  0  0  0  0  0  0  0
   -5.5270   -1.1592   -2.3907 H   0  0  0  0  0  0  0  0  0  0  0  0
    3.2438    1.8496    0.4182 H   0  0  0  0  0  0  0  0  0  0  0  0
    2.3022   -1.7052   -0.3302 H   0  0  0  0  0  0  0  0  0  0  0  0
    3.9655   -3.3495   -1.0739 H   0  0  0  0  0  0  0  0  0  0  0  0
    5.4070    1.3246   -0.1265 H   0  0  0  0  0  0  0  0  0  0  0  0
    8.4597   -2.1304   -0.6701 H   0  0  0  0  0  0  0  0  0  0  0  0
    8.1390   -1.6879   -2.3658 H   0  0  0  0  0  0  0  0  0  0  0  0
    2.2850    3.8649    1.0965 H   0  0  0  0  0  0  0  0  0  0  0  0
   -2.8272    3.1748    1.9442 H   0  0  0  0  0  0  0  0  0  0  0  0
   -2.3324    4.7541    1.2680 H   0  0  0  0  0  0  0  0  0  0  0  0
   -1.9844    4.3584    2.9849 H   0  0  0  0  0  0  0  0  0  0  0  0
  1  2  1  0
  2  3  2  3
  3  4  1  0
  4  5  1  0
  5  6  1  0
  6  7  1  0
  6  8  1  0
  2  9  1  0
  9 10  2  0
 10 11  1  0
 11 12  1  0
 12 13  2  0
 13 14  1  0
 14 15  2  0
 15 16  1  0
 16 17  2  0
 16 18  1  0
 18 19  1  0
 19 20  1  0
 10 21  1  0
 21 22  1  0
 22 23  2  0
 23 24  1  0
 24 25  1  0
 24 26  1  0
 26  1  1  0
 17 12  1  0
 26 21  2  0
 20 15  1  0
  1 27  1  0
  4 28  1  0
  4 29  1  0
  5 30  1  0
  5 31  1  0
  6 32  1  0
  7 33  1  0
  7 34  1  0
  7 35  1  0
  8 36  1  0
  8 37  1  0
  8 38  1  0
 11 39  1  0
 13 40  1  0
 14 41  1  0
 17 42  1  0
 19 43  1  0
 19 44  1  0
 22 45  1  0
 25 46  1  0
 25 47  1  0
 25 48  1  0
M  END
>  <ScrubInfo>  (4) 
{"isomerGroup": 0, "isomerId": 3, "confId": 0, "nr_conformers:": 1, "nr_isomers:": 9}

$$$$
_i4
     RDKit          3D

 48 51  0  0  0  0  0  0  0  0999 V2000
    0.6836    0.7272   -5.1096 N   0  0  0  0  0  0  0  0  0  0  0  0
    1.7259    0.4521   -4.2296 C   0  0  0  0  0  0  0  0  0  0  0  0
    1.3281    0.4063   -2.9517 C   0  0  0  0  0  0  0  0  0  0  0  0
    1.9213    0.1399   -1.6622 C   0  0  0  0  0  0  0  0  0  0  0  0
    3.1880   -0.0999   -1.5209 N   0  0  0  0  0  0  0  0  0  0  0  0
    3.6806   -0.3516   -0.2325 C   0  0  0  0  0  0  0  0  0  0  0  0
    3.8118   -1.6811    0.2183 C   0  0  0  0  0  0  0  0  0  0  0  0
    4.3267   -1.9646    1.4873 C   0  0  0  0  0  0  0  0  0  0  0  0
    4.7094   -0.8984    2.2710 C   0  0  0  0  0  0  0  0  0  0  0  0
    4.5980    0.4006    1.8321 C   0  0  0  0  0  0  0  0  0  0  0  0
    4.0942    0.7060    0.5857 C   0  0  0  0  0  0  0  0  0  0  0  0
    5.0375    1.2986    2.7550 O   0  0  0  0  0  0  0  0  0  0  0  0
    5.4351    0.4161    3.8240 C   0  0  0  0  0  0  0  0  0  0  0  0
    5.2302   -0.9802    3.5245 O   0  0  0  0  0  0  0  0  0  0  0  0
    1.0345    0.1530   -0.6186 N   0  0  0  0  0  0  0  0  0  0  0  0
   -0.2304    0.4195   -0.7794 C   0  0  0  0  0  0  0  0  0  0  0  0
   -0.9905    0.3965    0.3535 N   0  0  0  0  0  0  0  0  0  0  0  0
   -2.4238    0.1992    0.3344 C   0  0  0  0  0  0  0  0  0  0  0  0
   -2.9772    0.3258    1.7555 C   0  0  0  0  0  0  0  0  0  0  0  0
   -4.5143    0.2746    1.8223 C   0  0  0  0  0  0  0  0  0  0  0  0
   -4.9812    0.5484    3.2541 C   0  0  0  0  0  0  0  0  0  0  0  0
   -5.0748   -1.0654    1.3439 C   0  0  0  0  0  0  0  0  0  0  0  0
   -0.8407    0.7117   -1.9732 N   0  0  0  0  0  0  0  0  0  0  0  0
   -0.1008    0.7309   -3.0264 C   0  0  0  0  0  0  0  0  0  0  0  0
   -0.4471    1.0177   -4.3482 N   0  0  0  0  0  0  0  0  0  0  0  0
   -1.7555    0.6737   -4.8689 C   0  0  0  0  0  0  0  0  0  0  0  0
    0.9329    1.4167   -5.8228 H   0  0  0  0  0  0  0  0  0  0  0  0
    2.7266    0.3042   -4.6109 H   0  0  0  0  0  0  0  0  0  0  0  0
    3.5041   -2.4941   -0.4338 H   0  0  0  0  0  0  0  0  0  0  0  0
    4.4243   -2.9844    1.8395 H   0  0  0  0  0  0  0  0  0  0  0  0
    4.0149    1.7324    0.2497 H   0  0  0  0  0  0  0  0  0  0  0  0
    6.4989    0.5768    4.0337 H   0  0  0  0  0  0  0  0  0  0  0  0
    4.8584    0.6701    4.7209 H   0  0  0  0  0  0  0  0  0  0  0  0
   -0.4888   -0.0244    1.1267 H   0  0  0  0  0  0  0  0  0  0  0  0
   -2.8989    0.9485   -0.3091 H   0  0  0  0  0  0  0  0  0  0  0  0
   -2.6432   -0.7923   -0.0750 H   0  0  0  0  0  0  0  0  0  0  0  0
   -2.5494   -0.4649    2.3861 H   0  0  0  0  0  0  0  0  0  0  0  0
   -2.6340    1.2772    2.1840 H   0  0  0  0  0  0  0  0  0  0  0  0
   -4.9210    1.0658    1.1798 H   0  0  0  0  0  0  0  0  0  0  0  0
   -4.6245    1.5244    3.6001 H   0  0  0  0  0  0  0  0  0  0  0  0
   -4.6086   -0.2142    3.9465 H   0  0  0  0  0  0  0  0  0  0  0  0
   -6.0748    0.5545    3.3127 H   0  0  0  0  0  0  0  0  0  0  0  0
   -4.6478   -1.8995    1.9109 H   0  0  0  0  0  0  0  0  0  0  0  0
   -6.1630   -1.0966    1.4654 H   0  0  0  0  0  0  0  0  0  0  0  0
   -4.8636   -1.2298    0.2830 H   0  0  0  0  0  0  0  0  0  0  0  0
   -1.8736    1.0591   -5.8868 H   0  0  0  0  0  0  0  0  0  0  0  0
   -1.8929   -0.4124   -4.8898 H   0  0  0  0  0  0  0  0  0  0  0  0
   -2.5442    1.1149   -4.2511 H   0  0  0  0  0  0  0  0  0  0  0  0
  1  2  1  0
  2  3  2  0
  3  4  1  0
  4  5  2  3
  5  6  1  0
  6  7  2  0
  7  8  1  0
  8  9  2  0
  9 10  1  0
 10 11  2  0
 10 12  1  0
 12 13  1  0
 13 14  1  0
  4 15  1  0
 15 16  2  0
 16 17  1  0
 17 18  1  0
 18 19  1  0
 19 20  1  0
 20 21  1  0
 20 22  1  0
 16 23  1  0
 23 24  2  0
 24 25  1  0
 25 26  1  0
 25  1  1  0
 24  3  1  0
 11  6  1  0
 14  9  1  0
  1 27  1  0
  2 28  1  0
  7 29  1  0
  8 30  1  0
 11 31  1  0
 13 32  1  0
 13 33  1  0
 17 34  1  0
 18 35  1  0
 18 36  1  0
 19 37  1  0
 19 38  1  0
 20 39  1  0
 21 40  1  0
 21 41  1  0
 21 42  1  0
 22 43  1  0
 22 44  1  0
 22 45  1  0
 26 46  1  0
 26 47  1  0
 26 48  1  0
M  END
>  <ScrubInfo>  (5) 
{"isomerGroup": 0, "isomerId": 4, "confId": 0, "nr_conformers:": 1, "nr_isomers:": 9}

$$$$
_i5
     RDKit          3D

 48 51  0  0  0  0  0  0  0  0999 V2000
   -1.2391    0.0377    1.7091 N   0  0  0  0  0  0  0  0  0  0  0  0
   -1.2939   -1.1784    1.0765 C   0  0  0  0  0  0  0  0  0  0  0  0
   -2.5263   -1.7655    1.0382 N   0  0  0  0  0  0  0  0  0  0  0  0
   -3.7261   -1.0689    0.5907 C   0  0  0  0  0  0  0  0  0  0  0  0
   -3.6334   -0.7254   -0.8983 C   0  0  0  0  0  0  0  0  0  0  0  0
   -4.9372   -0.1437   -1.4742 C   0  0  0  0  0  0  0  0  0  0  0  0
   -5.3098    1.1947   -0.8347 C   0  0  0  0  0  0  0  0  0  0  0  0
   -4.8041    0.0275   -2.9895 C   0  0  0  0  0  0  0  0  0  0  0  0
   -0.2820   -1.7971    0.5383 N   0  0  0  0  0  0  0  0  0  0  0  0
    0.9796   -1.2139    0.5615 C   0  0  0  0  0  0  0  0  0  0  0  0
    1.9163   -1.8697   -0.0469 N   0  0  0  0  0  0  0  0  0  0  0  0
    3.2310   -1.4121   -0.1195 C   0  0  0  0  0  0  0  0  0  0  0  0
    4.1747   -1.8407    0.8365 C   0  0  0  0  0  0  0  0  0  0  0  0
    5.5081   -1.4249    0.7681 C   0  0  0  0  0  0  0  0  0  0  0  0
    5.8644   -0.5988   -0.2753 C   0  0  0  0  0  0  0  0  0  0  0  0
    4.9540   -0.1966   -1.2247 C   0  0  0  0  0  0  0  0  0  0  0  0
    3.6341   -0.5925   -1.1800 C   0  0  0  0  0  0  0  0  0  0  0  0
    5.5119    0.6068   -2.1698 O   0  0  0  0  0  0  0  0  0  0  0  0
    6.8778    0.6610   -1.7088 C   0  0  0  0  0  0  0  0  0  0  0  0
    7.1076   -0.0981   -0.5035 O   0  0  0  0  0  0  0  0  0  0  0  0
    1.0966    0.0542    1.2636 C   0  0  0  0  0  0  0  0  0  0  0  0
    2.1099    0.9683    1.6056 C   0  0  0  0  0  0  0  0  0  0  0  0
    1.6527    2.0146    2.3127 N   0  0  0  0  0  0  0  0  0  0  0  0
    0.3278    1.7714    2.4251 N   0  0  0  0  0  0  0  0  0  0  0  0
   -0.4994    2.7122    3.1362 C   0  0  0  0  0  0  0  0  0  0  0  0
   -0.0307    0.6162    1.8086 C   0  0  0  0  0  0  0  0  0  0  0  0
   -2.0365    0.2985    2.2720 H   0  0  0  0  0  0  0  0  0  0  0  0
   -2.4313   -2.6666    0.5706 H   0  0  0  0  0  0  0  0  0  0  0  0
   -3.8894   -0.1717    1.1953 H   0  0  0  0  0  0  0  0  0  0  0  0
   -4.5840   -1.7283    0.7640 H   0  0  0  0  0  0  0  0  0  0  0  0
   -2.8091   -0.0197   -1.0646 H   0  0  0  0  0  0  0  0  0  0  0  0
   -3.3735   -1.6357   -1.4551 H   0  0  0  0  0  0  0  0  0  0  0  0
   -5.7529   -0.8534   -1.2869 H   0  0  0  0  0  0  0  0  0  0  0  0
   -4.4972    1.9223   -0.9344 H   0  0  0  0  0  0  0  0  0  0  0  0
   -6.2016    1.6172   -1.3104 H   0  0  0  0  0  0  0  0  0  0  0  0
   -5.5359    1.0790    0.2294 H   0  0  0  0  0  0  0  0  0  0  0  0
   -4.5784   -0.9297   -3.4713 H   0  0  0  0  0  0  0  0  0  0  0  0
   -4.0036    0.7315   -3.2414 H   0  0  0  0  0  0  0  0  0  0  0  0
   -5.7366    0.4054   -3.4221 H   0  0  0  0  0  0  0  0  0  0  0  0
    3.8573   -2.5078    1.6346 H   0  0  0  0  0  0  0  0  0  0  0  0
    6.2363   -1.7471    1.5032 H   0  0  0  0  0  0  0  0  0  0  0  0
    2.9305   -0.2820   -1.9433 H   0  0  0  0  0  0  0  0  0  0  0  0
    7.5303    0.2709   -2.4985 H   0  0  0  0  0  0  0  0  0  0  0  0
    7.1424    1.7076   -1.5193 H   0  0  0  0  0  0  0  0  0  0  0  0
    3.1681    0.9338    1.3868 H   0  0  0  0  0  0  0  0  0  0  0  0
   -1.5533    2.4663    2.9897 H   0  0  0  0  0  0  0  0  0  0  0  0
   -0.3004    3.7144    2.7476 H   0  0  0  0  0  0  0  0  0  0  0  0
   -0.2457    2.6565    4.1977 H   0  0  0  0  0  0  0  0  0  0  0  0
  1  2  1  0
  2  3  1  0
  3  4  1  0
  4  5  1  0
  5  6  1  0
  6  7  1  0
  6  8  1  0
  2  9  2  0
  9 10  1  0
 10 11  2  3
 11 12  1  0
 12 13  2  0
 13 14  1  0
 14 15  2  0
 15 16  1  0
 16 17  2  0
 16 18  1  0
 18 19  1  0
 19 20  1  0
 10 21  1  0
 21 22  1  0
 22 23  2  0
 23 24  1  0
 24 25  1  0
 24 26  1  0
 26  1  1  0
 17 12  1  0
 26 21  2  0
 20 15  1  0
  1 27  1  0
  3 28  1  0
  4 29  1  0
  4 30  1  0
  5 31  1  0
  5 32  1  0
  6 33  1  0
  7 34  1  0
  7 35  1  0
  7 36  1  0
  8 37  1  0
  8 38  1  0
  8 39  1  0
 13 40  1  0
 14 41  1  0
 17 42  1  0
 19 43  1  0
 19 44  1  0
 22 45  1  0
 25 46  1  0
 25 47  1  0
 25 48  1  0
M  END
>  <ScrubInfo>  (6) 
{"isomerGroup": 0, "isomerId": 5, "confId": 0, "nr_conformers:": 1, "nr_isomers:": 9}

$$$$
_i6
     RDKit          3D

 48 51  0  0  0  0  0  0  0  0999 V2000
   -1.3555   -3.6007    0.3563 N   0  0  0  0  0  0  0  0  0  0  0  0
   -1.8818   -2.3542    0.6782 C   0  0  0  0  0  0  0  0  0  0  0  0
   -0.9912   -1.3619    0.5490 C   0  0  0  0  0  0  0  0  0  0  0  0
   -0.9280    0.0895    0.7052 C   0  0  0  0  0  0  0  0  0  0  0  0
   -1.9871    0.8643    1.1285 N   0  0  0  0  0  0  0  0  0  0  0  0
   -3.2868    0.8113    0.5693 C   0  0  0  0  0  0  0  0  0  0  0  0
   -3.5264    0.3948   -0.7599 C   0  0  0  0  0  0  0  0  0  0  0  0
   -4.8186    0.3977   -1.2986 C   0  0  0  0  0  0  0  0  0  0  0  0
   -5.8459    0.8402   -0.4966 C   0  0  0  0  0  0  0  0  0  0  0  0
   -5.6220    1.2740    0.7872 C   0  0  0  0  0  0  0  0  0  0  0  0
   -4.3592    1.2818    1.3426 C   0  0  0  0  0  0  0  0  0  0  0  0
   -6.7641    1.6792    1.4044 O   0  0  0  0  0  0  0  0  0  0  0  0
   -7.7326    1.4548    0.3583 C   0  0  0  0  0  0  0  0  0  0  0  0
   -7.1560    0.9165   -0.8500 O   0  0  0  0  0  0  0  0  0  0  0  0
    0.2060    0.6869    0.4655 N   0  0  0  0  0  0  0  0  0  0  0  0
    1.2813   -0.0612    0.0364 C   0  0  0  0  0  0  0  0  0  0  0  0
    2.3135    0.6470   -0.2591 N   0  0  0  0  0  0  0  0  0  0  0  0
    3.5100   -0.0532   -0.7162 C   0  0  0  0  0  0  0  0  0  0  0  0
    4.6201    0.9694   -0.9761 C   0  0  0  0  0  0  0  0  0  0  0  0
    5.0588    1.7825    0.2585 C   0  0  0  0  0  0  0  0  0  0  0  0
    6.1106    2.8167   -0.1522 C   0  0  0  0  0  0  0  0  0  0  0  0
    5.6139    0.8976    1.3752 C   0  0  0  0  0  0  0  0  0  0  0  0
    1.3356   -1.4313   -0.0935 N   0  0  0  0  0  0  0  0  0  0  0  0
    0.2491   -2.0706    0.1689 C   0  0  0  0  0  0  0  0  0  0  0  0
    0.0115   -3.4452    0.1492 N   0  0  0  0  0  0  0  0  0  0  0  0
    0.6879   -4.3086   -0.7995 C   0  0  0  0  0  0  0  0  0  0  0  0
   -1.6289   -4.3372    1.0115 H   0  0  0  0  0  0  0  0  0  0  0  0
   -2.9127   -2.2823    0.9949 H   0  0  0  0  0  0  0  0  0  0  0  0
   -1.6917    1.8373    1.2014 H   0  0  0  0  0  0  0  0  0  0  0  0
   -2.7039    0.0791   -1.3984 H   0  0  0  0  0  0  0  0  0  0  0  0
   -5.0034    0.0748   -2.3171 H   0  0  0  0  0  0  0  0  0  0  0  0
   -4.2106    1.6327    2.3583 H   0  0  0  0  0  0  0  0  0  0  0  0
   -8.4909    0.7544    0.7271 H   0  0  0  0  0  0  0  0  0  0  0  0
   -8.2194    2.4077    0.1207 H   0  0  0  0  0  0  0  0  0  0  0  0
    3.3038   -0.5764   -1.6583 H   0  0  0  0  0  0  0  0  0  0  0  0
    3.8474   -0.7945    0.0167 H   0  0  0  0  0  0  0  0  0  0  0  0
    5.4878    0.4406   -1.3908 H   0  0  0  0  0  0  0  0  0  0  0  0
    4.2775    1.6651   -1.7533 H   0  0  0  0  0  0  0  0  0  0  0  0
    4.1941    2.3300    0.6536 H   0  0  0  0  0  0  0  0  0  0  0  0
    5.7172    3.4866   -0.9241 H   0  0  0  0  0  0  0  0  0  0  0  0
    6.4057    3.4329    0.7037 H   0  0  0  0  0  0  0  0  0  0  0  0
    7.0103    2.3334   -0.5482 H   0  0  0  0  0  0  0  0  0  0  0  0
    6.4398    0.2750    1.0152 H   0  0  0  0  0  0  0  0  0  0  0  0
    4.8410    0.2390    1.7829 H   0  0  0  0  0  0  0  0  0  0  0  0
    5.9879    1.5078    2.2046 H   0  0  0  0  0  0  0  0  0  0  0  0
    0.3841   -4.0730   -1.8247 H   0  0  0  0  0  0  0  0  0  0  0  0
    0.4482   -5.3576   -0.5978 H   0  0  0  0  0  0  0  0  0  0  0  0
    1.7736   -4.1926   -0.7201 H   0  0  0  0  0  0  0  0  0  0  0  0
  1  2  1  0
  2  3  2  0
  3  4  1  0
  4  5  1  0
  5  6  1  0
  6  7  2  0
  7  8  1  0
  8  9  2  0
  9 10  1  0
 10 11  2  0
 10 12  1  0
 12 13  1  0
 13 14  1  0
  4 15  2  0
 15 16  1  0
 16 17  2  3
 17 18  1  0
 18 19  1  0
 19 20  1  0
 20 21  1  0
 20 22  1  0
 16 23  1  0
 23 24  2  0
 24 25  1  0
 25 26  1  0
 25  1  1  0
 24  3  1  0
 11  6  1  0
 14  9  1  0
  1 27  1  0
  2 28  1  0
  5 29  1  0
  7 30  1  0
  8 31  1  0
 11 32  1  0
 13 33  1  0
 13 34  1  0
 18 35  1  0
 18 36  1  0
 19 37  1  0
 19 38  1  0
 20 39  1  0
 21 40  1  0
 21 41  1  0
 21 42  1  0
 22 43  1  0
 22 44  1  0
 22 45  1  0
 26 46  1  0
 26 47  1  0
 26 48  1  0
M  END
>  <ScrubInfo>  (7) 
{"isomerGroup": 0, "isomerId": 6, "confId": 0, "nr_conformers:": 1, "nr_isomers:": 9}

$$$$
_i7
     RDKit          3D

 48 51  0  0  0  0  0  0  0  0999 V2000
    0.5928    0.6114   -4.9311 N   0  0  0  0  0  0  0  0  0  0  0  0
    1.6642    0.4061   -4.0688 C   0  0  0  0  0  0  0  0  0  0  0  0
    1.2907    0.3157   -2.7870 C   0  0  0  0  0  0  0  0  0  0  0  0
    1.9181    0.0774   -1.4850 C   0  0  0  0  0  0  0  0  0  0  0  0
    3.2078   -0.0694   -1.4167 N   0  0  0  0  0  0  0  0  0  0  0  0
    3.7926   -0.2983   -0.1649 C   0  0  0  0  0  0  0  0  0  0  0  0
    3.9876   -1.6191    0.2865 C   0  0  0  0  0  0  0  0  0  0  0  0
    4.5710   -1.8747    1.5314 C   0  0  0  0  0  0  0  0  0  0  0  0
    4.9548   -0.7904    2.2894 C   0  0  0  0  0  0  0  0  0  0  0  0
    4.7801    0.5003    1.8476 C   0  0  0  0  0  0  0  0  0  0  0  0
    4.2078    0.7791    0.6248 C   0  0  0  0  0  0  0  0  0  0  0  0
    5.2294    1.4197    2.7435 O   0  0  0  0  0  0  0  0  0  0  0  0
    5.7136    0.5600    3.7964 C   0  0  0  0  0  0  0  0  0  0  0  0
    5.5352   -0.8444    3.5174 O   0  0  0  0  0  0  0  0  0  0  0  0
    0.9976    0.0362   -0.4686 N   0  0  0  0  0  0  0  0  0  0  0  0
   -0.3577    0.1958   -0.5856 C   0  0  0  0  0  0  0  0  0  0  0  0
   -1.0755    0.0943    0.4857 N   0  0  0  0  0  0  0  0  0  0  0  0
   -2.5221    0.2729    0.3376 C   0  0  0  0  0  0  0  0  0  0  0  0
   -3.1598    0.1209    1.7208 C   0  0  0  0  0  0  0  0  0  0  0  0
   -4.6688    0.4236    1.7392 C   0  0  0  0  0  0  0  0  0  0  0  0
   -5.1886    0.3833    3.1783 C   0  0  0  0  0  0  0  0  0  0  0  0
   -5.4703   -0.5494    0.8734 C   0  0  0  0  0  0  0  0  0  0  0  0
   -0.9590    0.4614   -1.8005 N   0  0  0  0  0  0  0  0  0  0  0  0
   -0.1884    0.5360   -2.8407 C   0  0  0  0  0  0  0  0  0  0  0  0
   -0.5522    0.8111   -4.1619 N   0  0  0  0  0  0  0  0  0  0  0  0
   -1.8360    0.3868   -4.6863 C   0  0  0  0  0  0  0  0  0  0  0  0
    0.7812    1.3159   -5.6479 H   0  0  0  0  0  0  0  0  0  0  0  0
    2.6674    0.3377   -4.4655 H   0  0  0  0  0  0  0  0  0  0  0  0
    3.6828   -2.4492   -0.3464 H   0  0  0  0  0  0  0  0  0  0  0  0
    4.7220   -2.8881    1.8851 H   0  0  0  0  0  0  0  0  0  0  0  0
    4.0860    1.8007    0.2849 H   0  0  0  0  0  0  0  0  0  0  0  0
    6.7819    0.7552    3.9453 H   0  0  0  0  0  0  0  0  0  0  0  0
    5.1791    0.8041    4.7217 H   0  0  0  0  0  0  0  0  0  0  0  0
    1.3131   -0.1407    0.4730 H   0  0  0  0  0  0  0  0  0  0  0  0
   -2.7484    1.2708   -0.0569 H   0  0  0  0  0  0  0  0  0  0  0  0
   -2.9272   -0.4848   -0.3422 H   0  0  0  0  0  0  0  0  0  0  0  0
   -2.9757   -0.8945    2.0959 H   0  0  0  0  0  0  0  0  0  0  0  0
   -2.6514    0.8001    2.4181 H   0  0  0  0  0  0  0  0  0  0  0  0
   -4.8287    1.4383    1.3530 H   0  0  0  0  0  0  0  0  0  0  0  0
   -6.2538    0.6354    3.2149 H   0  0  0  0  0  0  0  0  0  0  0  0
   -5.0600   -0.6108    3.6199 H   0  0  0  0  0  0  0  0  0  0  0  0
   -4.6548    1.1051    3.8056 H   0  0  0  0  0  0  0  0  0  0  0  0
   -5.2927   -1.5874    1.1742 H   0  0  0  0  0  0  0  0  0  0  0  0
   -5.2083   -0.4503   -0.1843 H   0  0  0  0  0  0  0  0  0  0  0  0
   -6.5443   -0.3518    0.9600 H   0  0  0  0  0  0  0  0  0  0  0  0
   -1.9786    0.7714   -5.7014 H   0  0  0  0  0  0  0  0  0  0  0  0
   -1.9023   -0.7058   -4.7157 H   0  0  0  0  0  0  0  0  0  0  0  0
   -2.6521    0.7712   -4.0661 H   0  0  0  0  0  0  0  0  0  0  0  0
  1  2  1  0
  2  3  2  0
  3  4  1  0
  4  5  2  3
  5  6  1  0
  6  7  2  0
  7  8  1  0
  8  9  2  0
  9 10  1  0
 10 11  2  0
 10 12  1  0
 12 13  1  0
 13 14  1  0
  4 15  1  0
 15 16  1  0
 16 17  2  3
 17 18  1  0
 18 19  1  0
 19 20  1  0
 20 21  1  0
 20 22  1  0
 16 23  1  0
 23 24  2  0
 24 25  1  0
 25 26  1  0
 25  1  1  0
 24  3  1  0
 11  6  1  0
 14  9  1  0
  1 27  1  0
  2 28  1  0
  7 29  1  0
  8 30  1  0
 11 31  1  0
 13 32  1  0
 13 33  1  0
 15 34  1  0
 18 35  1  0
 18 36  1  0
 19 37  1  0
 19 38  1  0
 20 39  1  0
 21 40  1  0
 21 41  1  0
 21 42  1  0
 22 43  1  0
 22 44  1  0
 22 45  1  0
 26 46  1  0
 26 47  1  0
 26 48  1  0
M  END
>  <ScrubInfo>  (8) 
{"isomerGroup": 0, "isomerId": 7, "confId": 0, "nr_conformers:": 1, "nr_isomers:": 9}

$$$$
_i8
     RDKit          3D

 48 51  0  0  0  0  0  0  0  0999 V2000
   -1.1471   -0.1280   -0.5001 N   0  0  0  0  0  0  0  0  0  0  0  0
   -1.1509   -1.2067    0.3684 C   0  0  0  0  0  0  0  0  0  0  0  0
   -2.1560   -1.9162    0.7538 N   0  0  0  0  0  0  0  0  0  0  0  0
   -3.4945   -1.6323    0.2424 C   0  0  0  0  0  0  0  0  0  0  0  0
   -4.1624   -0.5606    1.1050 C   0  0  0  0  0  0  0  0  0  0  0  0
   -5.6293   -0.2933    0.7239 C   0  0  0  0  0  0  0  0  0  0  0  0
   -5.7667    0.2881   -0.6842 C   0  0  0  0  0  0  0  0  0  0  0  0
   -6.2638    0.6603    1.7394 C   0  0  0  0  0  0  0  0  0  0  0  0
    0.0994   -1.5140    0.8585 N   0  0  0  0  0  0  0  0  0  0  0  0
    1.3382   -0.9511    0.6402 C   0  0  0  0  0  0  0  0  0  0  0  0
    2.4008   -1.4211    1.2218 N   0  0  0  0  0  0  0  0  0  0  0  0
    3.6689   -0.8747    1.0209 C   0  0  0  0  0  0  0  0  0  0  0  0
    4.1436    0.1334    1.8849 C   0  0  0  0  0  0  0  0  0  0  0  0
    5.4246    0.6717    1.7267 C   0  0  0  0  0  0  0  0  0  0  0  0
    6.2058    0.1682    0.7098 C   0  0  0  0  0  0  0  0  0  0  0  0
    5.7567   -0.8310   -0.1218 C   0  0  0  0  0  0  0  0  0  0  0  0
    4.4986   -1.3786    0.0129 C   0  0  0  0  0  0  0  0  0  0  0  0
    6.6841   -1.1878   -1.0506 O   0  0  0  0  0  0  0  0  0  0  0  0
    7.7680   -0.2994   -0.7081 C   0  0  0  0  0  0  0  0  0  0  0  0
    7.4702    0.5658    0.4077 O   0  0  0  0  0  0  0  0  0  0  0  0
    1.2403    0.1697   -0.2803 C   0  0  0  0  0  0  0  0  0  0  0  0
    2.1117    1.1043   -0.8702 C   0  0  0  0  0  0  0  0  0  0  0  0
    1.4807    1.9663   -1.6818 N   0  0  0  0  0  0  0  0  0  0  0  0
    0.1868    1.5877   -1.6107 N   0  0  0  0  0  0  0  0  0  0  0  0
   -0.8007    2.3043   -2.3778 C   0  0  0  0  0  0  0  0  0  0  0  0
    0.0069    0.5158   -0.7911 C   0  0  0  0  0  0  0  0  0  0  0  0
   -2.0378    0.1603   -0.8799 H   0  0  0  0  0  0  0  0  0  0  0  0
   -3.4717   -1.3566   -0.8167 H   0  0  0  0  0  0  0  0  0  0  0  0
   -4.0768   -2.5594    0.2987 H   0  0  0  0  0  0  0  0  0  0  0  0
   -3.5895    0.3737    1.0488 H   0  0  0  0  0  0  0  0  0  0  0  0
   -4.1175   -0.8809    2.1545 H   0  0  0  0  0  0  0  0  0  0  0  0
   -6.1824   -1.2403    0.7613 H   0  0  0  0  0  0  0  0  0  0  0  0
   -5.1738    1.2022   -0.7959 H   0  0  0  0  0  0  0  0  0  0  0  0
   -6.8116    0.5346   -0.9020 H   0  0  0  0  0  0  0  0  0  0  0  0
   -5.4386   -0.4264   -1.4449 H   0  0  0  0  0  0  0  0  0  0  0  0
   -7.3194    0.8334    1.5044 H   0  0  0  0  0  0  0  0  0  0  0  0
   -6.2128    0.2427    2.7505 H   0  0  0  0  0  0  0  0  0  0  0  0
   -5.7544    1.6300    1.7465 H   0  0  0  0  0  0  0  0  0  0  0  0
    0.1070   -2.2997    1.4929 H   0  0  0  0  0  0  0  0  0  0  0  0
    3.5030    0.4941    2.6860 H   0  0  0  0  0  0  0  0  0  0  0  0
    5.7927    1.4511    2.3838 H   0  0  0  0  0  0  0  0  0  0  0  0
    4.1630   -2.1749   -0.6407 H   0  0  0  0  0  0  0  0  0  0  0  0
    8.0011    0.3217   -1.5806 H   0  0  0  0  0  0  0  0  0  0  0  0
    8.6496   -0.9014   -0.4593 H   0  0  0  0  0  0  0  0  0  0  0  0
    3.1816    1.2114   -0.7583 H   0  0  0  0  0  0  0  0  0  0  0  0
   -0.8776    1.8307   -3.3593 H   0  0  0  0  0  0  0  0  0  0  0  0
   -0.4866    3.3463   -2.4817 H   0  0  0  0  0  0  0  0  0  0  0  0
   -1.7613    2.2666   -1.8588 H   0  0  0  0  0  0  0  0  0  0  0  0
  1  2  1  0
  2  3  2  3
  3  4  1  0
  4  5  1  0
  5  6  1  0
  6  7  1  0
  6  8  1  0
  2  9  1  0
  9 10  1  0
 10 11  2  3
 11 12  1  0
 12 13  2  0
 13 14  1  0
 14 15  2  0
 15 16  1  0
 16 17  2  0
 16 18  1  0
 18 19  1  0
 19 20  1  0
 10 21  1  0
 21 22  1  0
 22 23  2  0
 23 24  1  0
 24 25  1  0
 24 26  1  0
 26  1  1  0
 17 12  1  0
 26 21  2  0
 20 15  1  0
  1 27  1  0
  4 28  1  0
  4 29  1  0
  5 30  1  0
  5 31  1  0
  6 32  1  0
  7 33  1  0
  7 34  1  0
  7 35  1  0
  8 36  1  0
  8 37  1  0
  8 38  1  0
  9 39  1  0
 13 40  1  0
 14 41  1  0
 17 42  1  0
 19 43  1  0
 19 44  1  0
 22 45  1  0
 25 46  1  0
 25 47  1  0
 25 48  1  0
M  END
>  <ScrubInfo>  (9) 
{"isomerGroup": 0, "isomerId": 8, "confId": 0, "nr_conformers:": 1, "nr_isomers:": 9}

$$$$
