REMARK SMILES CCCCNc1nc(Nc2ccccc2F)c2cnn(C)c2n1
REMARK SMILES IDX 5 1 4 3 3 4 2 5 1 6 6 7 7 8 23 9 8 10 22 11 17 12 20 13
REMARK SMILES IDX 18 14 19 15 21 16 9 17 10 19 11 20 15 21 12 22 14 23 13 24
REMARK SMILES IDX 16 25
REMARK H PARENT 5 2 9 18
ROOT
ATOM      1  N   UNL     1      -2.561  -1.011   0.531  1.00  0.00    -0.354 N 
ATOM      2  H   UNL     1      -2.908  -0.982   1.484  1.00  0.00     0.163 HD
ENDROOT
BRANCH   1   3
ATOM      3  C   UNL     1      -3.012   0.072  -0.327  1.00  0.00     0.116 C 
BRANCH   3   4
ATOM      4  C   UNL     1      -4.541   0.142  -0.279  1.00  0.00     0.021 C 
BRANCH   4   5
ATOM      5  C   UNL     1      -5.132   1.169  -1.247  1.00  0.00    -0.002 C 
ATOM      6  C   UNL     1      -4.759   2.604  -0.911  1.00  0.00     0.004 C 
ENDBRANCH   4   5
ENDBRANCH   3   4
ENDBRANCH   1   3
BRANCH   1   7
ATOM      7  C   UNL     1      -1.178  -1.118   0.644  1.00  0.00     0.226 A 
ATOM      8  N   UNL     1      -0.401  -0.841  -0.422  1.00  0.00    -0.195 NA
ATOM      9  N   UNL     1      -0.744  -1.500   1.853  1.00  0.00    -0.193 NA
ATOM     10  C   UNL     1       0.948  -0.930  -0.321  1.00  0.00     0.147 A 
ATOM     11  C   UNL     1       0.592  -1.606   1.916  1.00  0.00     0.165 A 
ATOM     12  C   UNL     1       1.486  -1.349   0.897  1.00  0.00     0.082 A 
ATOM     13  N   UNL     1       1.347  -1.996   2.988  1.00  0.00    -0.250 N 
ATOM     14  C   UNL     1       2.749  -1.628   1.457  1.00  0.00     0.149 A 
ATOM     15  N   UNL     1       2.677  -2.022   2.735  1.00  0.00    -0.179 NA
ATOM     16  C   UNL     1       0.868  -2.374   4.294  1.00  0.00     0.176 C 
BRANCH  10  17
ATOM     17  N   UNL     1       1.692  -0.649  -1.481  1.00  0.00    -0.337 N 
ATOM     18  H   UNL     1       1.009  -0.333  -2.167  1.00  0.00     0.168 HD
BRANCH  17  19
ATOM     19  C   UNL     1       2.865   0.138  -1.559  1.00  0.00     0.076 A 
ATOM     20  C   UNL     1       3.735  -0.085  -2.635  1.00  0.00     0.029 A 
ATOM     21  C   UNL     1       3.151   1.206  -0.696  1.00  0.00     0.146 A 
ATOM     22  C   UNL     1       4.884   0.695  -2.805  1.00  0.00     0.002 A 
ATOM     23  C   UNL     1       4.294   1.988  -0.859  1.00  0.00     0.041 A 
ATOM     24  C   UNL     1       5.166   1.728  -1.913  1.00  0.00     0.003 A 
ATOM     25  F   UNL     1       2.314   1.519   0.305  1.00  0.00    -0.205 F 
ENDBRANCH  17  19
ENDBRANCH  10  17
ENDBRANCH   1   7
TORSDOF 6
