_i0
     RDKit          3D

 42 44  0  0  0  0  0  0  0  0999 V2000
   -4.7592    2.6041   -0.9112 C   0  0  0  0  0  0  0  0  0  0  0  0
   -5.1322    1.1685   -1.2471 C   0  0  0  0  0  0  0  0  0  0  0  0
   -4.5409    0.1418   -0.2794 C   0  0  0  0  0  0  0  0  0  0  0  0
   -3.0123    0.0717   -0.3268 C   0  0  0  0  0  0  0  0  0  0  0  0
   -2.5608   -1.0108    0.5313 N   0  0  0  0  0  0  0  0  0  0  0  0
   -1.1777   -1.1176    0.6439 C   0  0  0  0  0  0  0  0  0  0  0  0
   -0.4008   -0.8414   -0.4222 N   0  0  0  0  0  0  0  0  0  0  0  0
    0.9483   -0.9303   -0.3212 C   0  0  0  0  0  0  0  0  0  0  0  0
    1.6924   -0.6491   -1.4807 N   0  0  0  0  0  0  0  0  0  0  0  0
    2.8649    0.1380   -1.5592 C   0  0  0  0  0  0  0  0  0  0  0  0
    3.7354   -0.0851   -2.6353 C   0  0  0  0  0  0  0  0  0  0  0  0
    4.8837    0.6948   -2.8048 C   0  0  0  0  0  0  0  0  0  0  0  0
    5.1661    1.7280   -1.9128 C   0  0  0  0  0  0  0  0  0  0  0  0
    4.2936    1.9879   -0.8587 C   0  0  0  0  0  0  0  0  0  0  0  0
    3.1508    1.2065   -0.6957 C   0  0  0  0  0  0  0  0  0  0  0  0
    2.3137    1.5187    0.3050 F   0  0  0  0  0  0  0  0  0  0  0  0
    1.4865   -1.3487    0.8967 C   0  0  0  0  0  0  0  0  0  0  0  0
    2.7493   -1.6280    1.4573 C   0  0  0  0  0  0  0  0  0  0  0  0
    2.6767   -2.0220    2.7348 N   0  0  0  0  0  0  0  0  0  0  0  0
    1.3471   -1.9959    2.9884 N   0  0  0  0  0  0  0  0  0  0  0  0
    0.8679   -2.3742    4.2936 C   0  0  0  0  0  0  0  0  0  0  0  0
    0.5920   -1.6063    1.9159 C   0  0  0  0  0  0  0  0  0  0  0  0
   -0.7441   -1.4997    1.8527 N   0  0  0  0  0  0  0  0  0  0  0  0
   -3.6868    2.7798   -1.0365 H   0  0  0  0  0  0  0  0  0  0  0  0
   -5.0332    2.8506    0.1195 H   0  0  0  0  0  0  0  0  0  0  0  0
   -5.2875    3.2946   -1.5765 H   0  0  0  0  0  0  0  0  0  0  0  0
   -4.8171    0.9401   -2.2719 H   0  0  0  0  0  0  0  0  0  0  0  0
   -6.2248    1.0780   -1.2243 H   0  0  0  0  0  0  0  0  0  0  0  0
   -4.9541   -0.8444   -0.5277 H   0  0  0  0  0  0  0  0  0  0  0  0
   -4.8707    0.3648    0.7432 H   0  0  0  0  0  0  0  0  0  0  0  0
   -2.6960   -0.1018   -1.3627 H   0  0  0  0  0  0  0  0  0  0  0  0
   -2.5848    1.0228    0.0119 H   0  0  0  0  0  0  0  0  0  0  0  0
   -2.9084   -0.9817    1.4840 H   0  0  0  0  0  0  0  0  0  0  0  0
    1.0090   -0.3325   -2.1674 H   0  0  0  0  0  0  0  0  0  0  0  0
    3.5280   -0.8864   -3.3416 H   0  0  0  0  0  0  0  0  0  0  0  0
    5.5559    0.4949   -3.6361 H   0  0  0  0  0  0  0  0  0  0  0  0
    6.0581    2.3352   -2.0450 H   0  0  0  0  0  0  0  0  0  0  0  0
    4.4878    2.8005   -0.1656 H   0  0  0  0  0  0  0  0  0  0  0  0
    3.7206   -1.5615    0.9846 H   0  0  0  0  0  0  0  0  0  0  0  0
    1.1412   -3.4176    4.4704 H   0  0  0  0  0  0  0  0  0  0  0  0
   -0.2174   -2.2615    4.3418 H   0  0  0  0  0  0  0  0  0  0  0  0
    1.3397   -1.7247    5.0353 H   0  0  0  0  0  0  0  0  0  0  0  0
  1  2  1  0
  2  3  1  0
  3  4  1  0
  4  5  1  0
  5  6  1  0
  6  7  2  0
  7  8  1  0
  8  9  1  0
  9 10  1  0
 10 11  2  0
 11 12  1  0
 12 13  2  0
 13 14  1  0
 14 15  2  0
 15 16  1  0
  8 17  2  0
 17 18  1  0
 18 19  2  0
 19 20  1  0
 20 21  1  0
 20 22  1  0
 22 23  2  0
 23  6  1  0
 15 10  1  0
 22 17  1  0
  1 24  1  0
  1 25  1  0
  1 26  1  0
  2 27  1  0
  2 28  1  0
  3 29  1  0
  3 30  1  0
  4 31  1  0
  4 32  1  0
  5 33  1  0
  9 34  1  0
 11 35  1  0
 12 36  1  0
 13 37  1  0
 14 38  1  0
 18 39  1  0
 21 40  1  0
 21 41  1  0
 21 42  1  0
M  END
>  <ScrubInfo>  (1) 
{"isomerGroup": 0, "isomerId": 0, "confId": 0, "nr_conformers:": 1, "nr_isomers:": 9}

$$$$
_i1
     RDKit          3D

 42 44  0  0  0  0  0  0  0  0999 V2000
   -0.7986   -0.3183   -0.1996 N   0  0  0  0  0  0  0  0  0  0  0  0
   -1.6530    0.4681    0.5465 C   0  0  0  0  0  0  0  0  0  0  0  0
   -2.9090    0.0798    0.9865 N   0  0  0  0  0  0  0  0  0  0  0  0
   -3.7017   -1.0579    0.7225 C   0  0  0  0  0  0  0  0  0  0  0  0
   -4.7283   -1.3554    1.6404 C   0  0  0  0  0  0  0  0  0  0  0  0
   -5.5473   -2.4809    1.4896 C   0  0  0  0  0  0  0  0  0  0  0  0
   -5.3554   -3.3437    0.4160 C   0  0  0  0  0  0  0  0  0  0  0  0
   -4.3448   -3.0778   -0.5016 C   0  0  0  0  0  0  0  0  0  0  0  0
   -3.5320   -1.9530   -0.3430 C   0  0  0  0  0  0  0  0  0  0  0  0
   -2.5944   -1.7461   -1.2783 F   0  0  0  0  0  0  0  0  0  0  0  0
   -1.1502    1.6722    0.8586 C   0  0  0  0  0  0  0  0  0  0  0  0
   -1.5805    2.8771    1.5789 C   0  0  0  0  0  0  0  0  0  0  0  0
   -0.6812    3.8277    1.5824 N   0  0  0  0  0  0  0  0  0  0  0  0
    0.4248    3.2942    0.9028 N   0  0  0  0  0  0  0  0  0  0  0  0
    1.4720    4.1837    0.4622 C   0  0  0  0  0  0  0  0  0  0  0  0
    0.2085    2.0256    0.3883 C   0  0  0  0  0  0  0  0  0  0  0  0
    0.9684    1.2835   -0.3415 N   0  0  0  0  0  0  0  0  0  0  0  0
    0.4324    0.0585   -0.6706 C   0  0  0  0  0  0  0  0  0  0  0  0
    1.0843   -0.7607   -1.4266 N   0  0  0  0  0  0  0  0  0  0  0  0
    2.3937   -0.3579   -1.9398 C   0  0  0  0  0  0  0  0  0  0  0  0
    3.4872   -0.7981   -0.9682 C   0  0  0  0  0  0  0  0  0  0  0  0
    4.8762   -0.4402   -1.4943 C   0  0  0  0  0  0  0  0  0  0  0  0
    5.9671   -0.8778   -0.5299 C   0  0  0  0  0  0  0  0  0  0  0  0
   -1.1537   -1.1944   -0.5558 H   0  0  0  0  0  0  0  0  0  0  0  0
   -3.3523    0.7270    1.6289 H   0  0  0  0  0  0  0  0  0  0  0  0
   -4.8982   -0.7121    2.5012 H   0  0  0  0  0  0  0  0  0  0  0  0
   -6.3309   -2.6833    2.2161 H   0  0  0  0  0  0  0  0  0  0  0  0
   -5.9881   -4.2192    0.2949 H   0  0  0  0  0  0  0  0  0  0  0  0
   -4.1797   -3.7374   -1.3485 H   0  0  0  0  0  0  0  0  0  0  0  0
   -2.5755    2.9413    2.0366 H   0  0  0  0  0  0  0  0  0  0  0  0
    1.6338    4.9836    1.1921 H   0  0  0  0  0  0  0  0  0  0  0  0
    1.2067    4.6386   -0.4971 H   0  0  0  0  0  0  0  0  0  0  0  0
    2.4176    3.6450    0.3431 H   0  0  0  0  0  0  0  0  0  0  0  0
    2.5404   -0.8597   -2.9036 H   0  0  0  0  0  0  0  0  0  0  0  0
    2.4573    0.7159   -2.1531 H   0  0  0  0  0  0  0  0  0  0  0  0
    3.4190   -1.8812   -0.8068 H   0  0  0  0  0  0  0  0  0  0  0  0
    3.3310   -0.3258    0.0093 H   0  0  0  0  0  0  0  0  0  0  0  0
    4.9475    0.6426   -1.6501 H   0  0  0  0  0  0  0  0  0  0  0  0
    5.0417   -0.9198   -2.4660 H   0  0  0  0  0  0  0  0  0  0  0  0
    5.9435   -1.9614   -0.3766 H   0  0  0  0  0  0  0  0  0  0  0  0
    5.8493   -0.3902    0.4430 H   0  0  0  0  0  0  0  0  0  0  0  0
    6.9521   -0.6120   -0.9260 H   0  0  0  0  0  0  0  0  0  0  0  0
  1  2  1  0
  2  3  1  0
  3  4  1  0
  4  5  2  0
  5  6  1  0
  6  7  2  0
  7  8  1  0
  8  9  2  0
  9 10  1  0
  2 11  2  0
 11 12  1  0
 12 13  2  0
 13 14  1  0
 14 15  1  0
 14 16  1  0
 16 17  2  0
 17 18  1  0
 18 19  2  3
 19 20  1  0
 20 21  1  0
 21 22  1  0
 22 23  1  0
 18  1  1  0
  9  4  1  0
 16 11  1  0
  1 24  1  0
  3 25  1  0
  5 26  1  0
  6 27  1  0
  7 28  1  0
  8 29  1  0
 12 30  1  0
 15 31  1  0
 15 32  1  0
 15 33  1  0
 20 34  1  0
 20 35  1  0
 21 36  1  0
 21 37  1  0
 22 38  1  0
 22 39  1  0
 23 40  1  0
 23 41  1  0
 23 42  1  0
M  END
>  <ScrubInfo>  (2) 
{"isomerGroup": 0, "isomerId": 1, "confId": 0, "nr_conformers:": 1, "nr_isomers:": 9}

$$$$
_i2
     RDKit          3D

 42 44  0  0  0  0  0  0  0  0999 V2000
   -0.3370    0.2470    0.9668 N   0  0  0  0  0  0  0  0  0  0  0  0
   -1.1248   -0.8748    0.9854 C   0  0  0  0  0  0  0  0  0  0  0  0
   -2.4068   -0.7174    1.4303 N   0  0  0  0  0  0  0  0  0  0  0  0
   -3.2825    0.3745    1.0283 C   0  0  0  0  0  0  0  0  0  0  0  0
   -3.6606    0.2518   -0.4485 C   0  0  0  0  0  0  0  0  0  0  0  0
   -4.5318    1.4059   -0.9480 C   0  0  0  0  0  0  0  0  0  0  0  0
   -5.9070    1.4534   -0.3005 C   0  0  0  0  0  0  0  0  0  0  0  0
   -0.7149   -2.0629    0.6173 N   0  0  0  0  0  0  0  0  0  0  0  0
    0.5803   -2.0355    0.1920 C   0  0  0  0  0  0  0  0  0  0  0  0
    1.4480   -0.9545    0.1305 C   0  0  0  0  0  0  0  0  0  0  0  0
    2.6434   -1.4991   -0.3707 C   0  0  0  0  0  0  0  0  0  0  0  0
    2.5548   -2.8128   -0.6149 N   0  0  0  0  0  0  0  0  0  0  0  0
    1.2832   -3.1139   -0.2666 N   0  0  0  0  0  0  0  0  0  0  0  0
    0.8186   -4.4718   -0.3964 C   0  0  0  0  0  0  0  0  0  0  0  0
    0.9762    0.3446    0.5708 C   0  0  0  0  0  0  0  0  0  0  0  0
    1.6211    1.4695    0.6364 N   0  0  0  0  0  0  0  0  0  0  0  0
    2.9462    1.5907    0.2026 C   0  0  0  0  0  0  0  0  0  0  0  0
    3.9911    1.4931    1.1266 C   0  0  0  0  0  0  0  0  0  0  0  0
    5.3184    1.6454    0.7145 C   0  0  0  0  0  0  0  0  0  0  0  0
    5.6108    1.9130   -0.6240 C   0  0  0  0  0  0  0  0  0  0  0  0
    4.5761    2.0353   -1.5503 C   0  0  0  0  0  0  0  0  0  0  0  0
    3.2563    1.8819   -1.1325 C   0  0  0  0  0  0  0  0  0  0  0  0
    2.2749    2.0021   -2.0400 F   0  0  0  0  0  0  0  0  0  0  0  0
   -0.7020    1.0842    1.3872 H   0  0  0  0  0  0  0  0  0  0  0  0
   -2.8831   -1.6163    1.3874 H   0  0  0  0  0  0  0  0  0  0  0  0
   -4.1809    0.3235    1.6520 H   0  0  0  0  0  0  0  0  0  0  0  0
   -2.8151    1.3442    1.2297 H   0  0  0  0  0  0  0  0  0  0  0  0
   -4.1743   -0.7021   -0.6221 H   0  0  0  0  0  0  0  0  0  0  0  0
   -2.7490    0.2253   -1.0587 H   0  0  0  0  0  0  0  0  0  0  0  0
   -4.0175    2.3599   -0.7833 H   0  0  0  0  0  0  0  0  0  0  0  0
   -4.6613    1.2990   -2.0317 H   0  0  0  0  0  0  0  0  0  0  0  0
   -6.5145    2.2357   -0.7668 H   0  0  0  0  0  0  0  0  0  0  0  0
   -5.8402    1.6797    0.7676 H   0  0  0  0  0  0  0  0  0  0  0  0
   -6.4315    0.5003   -0.4212 H   0  0  0  0  0  0  0  0  0  0  0  0
    3.5882   -1.0150   -0.5721 H   0  0  0  0  0  0  0  0  0  0  0  0
    1.3877   -5.0960    0.2970 H   0  0  0  0  0  0  0  0  0  0  0  0
   -0.2462   -4.5301   -0.1611 H   0  0  0  0  0  0  0  0  0  0  0  0
    0.9851   -4.7965   -1.4268 H   0  0  0  0  0  0  0  0  0  0  0  0
    3.7682    1.2964    2.1720 H   0  0  0  0  0  0  0  0  0  0  0  0
    6.1235    1.5597    1.4406 H   0  0  0  0  0  0  0  0  0  0  0  0
    6.6436    2.0322   -0.9425 H   0  0  0  0  0  0  0  0  0  0  0  0
    4.7858    2.2503   -2.5932 H   0  0  0  0  0  0  0  0  0  0  0  0
  1  2  1  0
  2  3  1  0
  3  4  1  0
  4  5  1  0
  5  6  1  0
  6  7  1  0
  2  8  2  0
  8  9  1  0
  9 10  2  0
 10 11  1  0
 11 12  2  0
 12 13  1  0
 13 14  1  0
 10 15  1  0
 15 16  2  3
 16 17  1  0
 17 18  2  0
 18 19  1  0
 19 20  2  0
 20 21  1  0
 21 22  2  0
 22 23  1  0
 15  1  1  0
 22 17  1  0
 13  9  1  0
  1 24  1  0
  3 25  1  0
  4 26  1  0
  4 27  1  0
  5 28  1  0
  5 29  1  0
  6 30  1  0
  6 31  1  0
  7 32  1  0
  7 33  1  0
  7 34  1  0
 11 35  1  0
 14 36  1  0
 14 37  1  0
 14 38  1  0
 18 39  1  0
 19 40  1  0
 20 41  1  0
 21 42  1  0
M  END
>  <ScrubInfo>  (3) 
{"isomerGroup": 0, "isomerId": 2, "confId": 0, "nr_conformers:": 1, "nr_isomers:": 9}

$$$$
_i3
     RDKit          3D

 42 44  0  0  0  0  0  0  0  0999 V2000
    0.8982   -1.3505   -0.2852 N   0  0  0  0  0  0  0  0  0  0  0  0
    1.1963   -0.0073   -0.4581 C   0  0  0  0  0  0  0  0  0  0  0  0
    2.2964    0.4772   -0.9103 N   0  0  0  0  0  0  0  0  0  0  0  0
    3.3924   -0.3812   -1.3320 C   0  0  0  0  0  0  0  0  0  0  0  0
    4.2713   -0.7902   -0.1494 C   0  0  0  0  0  0  0  0  0  0  0  0
    5.2210    0.3038    0.3497 C   0  0  0  0  0  0  0  0  0  0  0  0
    4.5270    1.4813    1.0147 C   0  0  0  0  0  0  0  0  0  0  0  0
    0.2758    0.9787   -0.1295 N   0  0  0  0  0  0  0  0  0  0  0  0
   -0.8940    0.6453    0.3334 C   0  0  0  0  0  0  0  0  0  0  0  0
   -1.8459    1.5556    0.7058 N   0  0  0  0  0  0  0  0  0  0  0  0
   -3.0580    1.7902   -0.0037 C   0  0  0  0  0  0  0  0  0  0  0  0
   -3.5247    0.9798   -1.0458 C   0  0  0  0  0  0  0  0  0  0  0  0
   -4.7574    1.2409   -1.6575 C   0  0  0  0  0  0  0  0  0  0  0  0
   -5.5467    2.3085   -1.2309 C   0  0  0  0  0  0  0  0  0  0  0  0
   -5.1049    3.1197   -0.1903 C   0  0  0  0  0  0  0  0  0  0  0  0
   -3.8782    2.8533    0.4121 C   0  0  0  0  0  0  0  0  0  0  0  0
   -3.4671    3.6474    1.4136 F   0  0  0  0  0  0  0  0  0  0  0  0
   -1.2235   -0.7397    0.5708 C   0  0  0  0  0  0  0  0  0  0  0  0
   -2.2878   -1.4756    1.1119 C   0  0  0  0  0  0  0  0  0  0  0  0
   -2.0527   -2.7975    1.0930 N   0  0  0  0  0  0  0  0  0  0  0  0
   -0.8119   -2.8994    0.5552 N   0  0  0  0  0  0  0  0  0  0  0  0
   -0.2213   -4.2042    0.3999 C   0  0  0  0  0  0  0  0  0  0  0  0
   -0.2936   -1.6842    0.2384 C   0  0  0  0  0  0  0  0  0  0  0  0
    1.6266   -2.0164   -0.4905 H   0  0  0  0  0  0  0  0  0  0  0  0
    3.9932    0.1593   -2.0726 H   0  0  0  0  0  0  0  0  0  0  0  0
    3.0225   -1.2720   -1.8532 H   0  0  0  0  0  0  0  0  0  0  0  0
    3.6587   -1.1544    0.6836 H   0  0  0  0  0  0  0  0  0  0  0  0
    4.8914   -1.6357   -0.4735 H   0  0  0  0  0  0  0  0  0  0  0  0
    5.8425    0.6660   -0.4775 H   0  0  0  0  0  0  0  0  0  0  0  0
    5.9041   -0.1472    1.0800 H   0  0  0  0  0  0  0  0  0  0  0  0
    3.9743    2.0838    0.2887 H   0  0  0  0  0  0  0  0  0  0  0  0
    3.8342    1.1451    1.7924 H   0  0  0  0  0  0  0  0  0  0  0  0
    5.2688    2.1365    1.4829 H   0  0  0  0  0  0  0  0  0  0  0  0
   -1.4174    2.4670    0.8679 H   0  0  0  0  0  0  0  0  0  0  0  0
   -2.9393    0.1438   -1.4187 H   0  0  0  0  0  0  0  0  0  0  0  0
   -5.1001    0.6054   -2.4715 H   0  0  0  0  0  0  0  0  0  0  0  0
   -6.5027    2.5058   -1.7095 H   0  0  0  0  0  0  0  0  0  0  0  0
   -5.7045    3.9546    0.1579 H   0  0  0  0  0  0  0  0  0  0  0  0
   -3.2244   -1.1144    1.5172 H   0  0  0  0  0  0  0  0  0  0  0  0
   -0.9018   -4.8240   -0.1895 H   0  0  0  0  0  0  0  0  0  0  0  0
   -0.0747   -4.6351    1.3935 H   0  0  0  0  0  0  0  0  0  0  0  0
    0.7382   -4.1200   -0.1145 H   0  0  0  0  0  0  0  0  0  0  0  0
  1  2  1  0
  2  3  2  3
  3  4  1  0
  4  5  1  0
  5  6  1  0
  6  7  1  0
  2  8  1  0
  8  9  2  0
  9 10  1  0
 10 11  1  0
 11 12  2  0
 12 13  1  0
 13 14  2  0
 14 15  1  0
 15 16  2  0
 16 17  1  0
  9 18  1  0
 18 19  1  0
 19 20  2  0
 20 21  1  0
 21 22  1  0
 21 23  1  0
 23  1  1  0
 16 11  1  0
 23 18  2  0
  1 24  1  0
  4 25  1  0
  4 26  1  0
  5 27  1  0
  5 28  1  0
  6 29  1  0
  6 30  1  0
  7 31  1  0
  7 32  1  0
  7 33  1  0
 10 34  1  0
 12 35  1  0
 13 36  1  0
 14 37  1  0
 15 38  1  0
 19 39  1  0
 22 40  1  0
 22 41  1  0
 22 42  1  0
M  END
>  <ScrubInfo>  (4) 
{"isomerGroup": 0, "isomerId": 3, "confId": 0, "nr_conformers:": 1, "nr_isomers:": 9}

$$$$
_i4
     RDKit          3D

 42 44  0  0  0  0  0  0  0  0999 V2000
   -2.4789   -2.6354    1.0735 N   0  0  0  0  0  0  0  0  0  0  0  0
   -2.5596   -1.2811    0.7649 C   0  0  0  0  0  0  0  0  0  0  0  0
   -1.4242   -0.7789    0.2554 C   0  0  0  0  0  0  0  0  0  0  0  0
   -0.8899    0.4921   -0.2162 C   0  0  0  0  0  0  0  0  0  0  0  0
   -1.4630    1.6352   -0.3949 N   0  0  0  0  0  0  0  0  0  0  0  0
   -2.8357    1.7960   -0.1723 C   0  0  0  0  0  0  0  0  0  0  0  0
   -3.2687    2.4460    0.9872 C   0  0  0  0  0  0  0  0  0  0  0  0
   -4.6319    2.6499    1.2216 C   0  0  0  0  0  0  0  0  0  0  0  0
   -5.5757    2.2169    0.2891 C   0  0  0  0  0  0  0  0  0  0  0  0
   -5.1563    1.5843   -0.8802 C   0  0  0  0  0  0  0  0  0  0  0  0
   -3.7960    1.3845   -1.1063 C   0  0  0  0  0  0  0  0  0  0  0  0
   -3.4178    0.7589   -2.2316 F   0  0  0  0  0  0  0  0  0  0  0  0
    0.4480    0.4546   -0.5043 N   0  0  0  0  0  0  0  0  0  0  0  0
    1.1593   -0.6294   -0.4626 C   0  0  0  0  0  0  0  0  0  0  0  0
    2.4905   -0.6041   -0.7659 N   0  0  0  0  0  0  0  0  0  0  0  0
    3.0842    0.4683   -1.5368 C   0  0  0  0  0  0  0  0  0  0  0  0
    4.6026    0.2999   -1.6129 C   0  0  0  0  0  0  0  0  0  0  0  0
    5.3258    0.3509   -0.2630 C   0  0  0  0  0  0  0  0  0  0  0  0
    5.1669    1.6777    0.4631 C   0  0  0  0  0  0  0  0  0  0  0  0
    0.6906   -1.8721   -0.1319 N   0  0  0  0  0  0  0  0  0  0  0  0
   -0.5454   -1.9628    0.2161 C   0  0  0  0  0  0  0  0  0  0  0  0
   -1.2531   -3.0981    0.6154 N   0  0  0  0  0  0  0  0  0  0  0  0
   -0.5929   -4.1705    1.3352 C   0  0  0  0  0  0  0  0  0  0  0  0
   -3.2993   -3.1662    0.7711 H   0  0  0  0  0  0  0  0  0  0  0  0
   -3.4929   -0.7714    0.9516 H   0  0  0  0  0  0  0  0  0  0  0  0
   -2.5344    2.8014    1.7061 H   0  0  0  0  0  0  0  0  0  0  0  0
   -4.9540    3.1577    2.1277 H   0  0  0  0  0  0  0  0  0  0  0  0
   -6.6350    2.3830    0.4692 H   0  0  0  0  0  0  0  0  0  0  0  0
   -5.8760    1.2502   -1.6207 H   0  0  0  0  0  0  0  0  0  0  0  0
    2.8477   -1.5329   -0.9494 H   0  0  0  0  0  0  0  0  0  0  0  0
    2.8347    1.4436   -1.1055 H   0  0  0  0  0  0  0  0  0  0  0  0
    2.6754    0.4483   -2.5540 H   0  0  0  0  0  0  0  0  0  0  0  0
    4.8352   -0.6599   -2.0916 H   0  0  0  0  0  0  0  0  0  0  0  0
    5.0099    1.0813   -2.2663 H   0  0  0  0  0  0  0  0  0  0  0  0
    6.3942    0.1761   -0.4384 H   0  0  0  0  0  0  0  0  0  0  0  0
    4.9796   -0.4622    0.3851 H   0  0  0  0  0  0  0  0  0  0  0  0
    4.1318    1.8417    0.7767 H   0  0  0  0  0  0  0  0  0  0  0  0
    5.7904    1.6900    1.3629 H   0  0  0  0  0  0  0  0  0  0  0  0
    5.4740    2.5137   -0.1732 H   0  0  0  0  0  0  0  0  0  0  0  0
   -0.2421   -3.8250    2.3134 H   0  0  0  0  0  0  0  0  0  0  0  0
   -1.2826   -5.0069    1.4886 H   0  0  0  0  0  0  0  0  0  0  0  0
    0.2647   -4.5451    0.7672 H   0  0  0  0  0  0  0  0  0  0  0  0
  1  2  1  0
  2  3  2  0
  3  4  1  0
  4  5  2  3
  5  6  1  0
  6  7  2  0
  7  8  1  0
  8  9  2  0
  9 10  1  0
 10 11  2  0
 11 12  1  0
  4 13  1  0
 13 14  2  0
 14 15  1  0
 15 16  1  0
 16 17  1  0
 17 18  1  0
 18 19  1  0
 14 20  1  0
 20 21  2  0
 21 22  1  0
 22 23  1  0
 22  1  1  0
 21  3  1  0
 11  6  1  0
  1 24  1  0
  2 25  1  0
  7 26  1  0
  8 27  1  0
  9 28  1  0
 10 29  1  0
 15 30  1  0
 16 31  1  0
 16 32  1  0
 17 33  1  0
 17 34  1  0
 18 35  1  0
 18 36  1  0
 19 37  1  0
 19 38  1  0
 19 39  1  0
 23 40  1  0
 23 41  1  0
 23 42  1  0
M  END
>  <ScrubInfo>  (5) 
{"isomerGroup": 0, "isomerId": 4, "confId": 0, "nr_conformers:": 1, "nr_isomers:": 9}

$$$$
_i5
     RDKit          3D

 42 44  0  0  0  0  0  0  0  0999 V2000
    0.5541    1.8279    0.6507 N   0  0  0  0  0  0  0  0  0  0  0  0
    0.2141    0.5088    0.8461 C   0  0  0  0  0  0  0  0  0  0  0  0
    1.1801   -0.2645    1.4247 N   0  0  0  0  0  0  0  0  0  0  0  0
    2.5479   -0.3267    0.9230 C   0  0  0  0  0  0  0  0  0  0  0  0
    2.5965   -1.0152   -0.4423 C   0  0  0  0  0  0  0  0  0  0  0  0
    4.0005   -1.0586   -1.0484 C   0  0  0  0  0  0  0  0  0  0  0  0
    4.9768   -1.9161   -0.2583 C   0  0  0  0  0  0  0  0  0  0  0  0
   -0.9318   -0.0368    0.5412 N   0  0  0  0  0  0  0  0  0  0  0  0
   -1.9118    0.7443   -0.0589 C   0  0  0  0  0  0  0  0  0  0  0  0
   -3.0680    0.3019   -0.4380 N   0  0  0  0  0  0  0  0  0  0  0  0
   -3.3338   -1.0683   -0.2739 C   0  0  0  0  0  0  0  0  0  0  0  0
   -4.2230   -1.4774    0.7247 C   0  0  0  0  0  0  0  0  0  0  0  0
   -4.5298   -2.8311    0.8946 C   0  0  0  0  0  0  0  0  0  0  0  0
   -3.9568   -3.7897    0.0578 C   0  0  0  0  0  0  0  0  0  0  0  0
   -3.0804   -3.3942   -0.9517 C   0  0  0  0  0  0  0  0  0  0  0  0
   -2.7793   -2.0431   -1.1145 C   0  0  0  0  0  0  0  0  0  0  0  0
   -1.9425   -1.6877   -2.1027 F   0  0  0  0  0  0  0  0  0  0  0  0
   -1.6132    2.1409   -0.2477 C   0  0  0  0  0  0  0  0  0  0  0  0
   -2.2951    3.2583   -0.7468 C   0  0  0  0  0  0  0  0  0  0  0  0
   -1.5532    4.3771   -0.6831 N   0  0  0  0  0  0  0  0  0  0  0  0
   -0.3817    3.9579   -0.1418 N   0  0  0  0  0  0  0  0  0  0  0  0
    0.6749    4.9140    0.0671 C   0  0  0  0  0  0  0  0  0  0  0  0
   -0.3894    2.6255    0.1217 C   0  0  0  0  0  0  0  0  0  0  0  0
    1.3826    2.1664    1.1192 H   0  0  0  0  0  0  0  0  0  0  0  0
    0.7994   -1.2018    1.5497 H   0  0  0  0  0  0  0  0  0  0  0  0
    3.1403   -0.8909    1.6505 H   0  0  0  0  0  0  0  0  0  0  0  0
    2.9871    0.6752    0.8664 H   0  0  0  0  0  0  0  0  0  0  0  0
    2.1973   -2.0339   -0.3589 H   0  0  0  0  0  0  0  0  0  0  0  0
    1.9400   -0.4845   -1.1432 H   0  0  0  0  0  0  0  0  0  0  0  0
    4.3989   -0.0415   -1.1399 H   0  0  0  0  0  0  0  0  0  0  0  0
    3.9270   -1.4625   -2.0652 H   0  0  0  0  0  0  0  0  0  0  0  0
    5.9305   -1.9866   -0.7913 H   0  0  0  0  0  0  0  0  0  0  0  0
    5.1803   -1.4881    0.7275 H   0  0  0  0  0  0  0  0  0  0  0  0
    4.5888   -2.9305   -0.1229 H   0  0  0  0  0  0  0  0  0  0  0  0
   -4.6761   -0.7328    1.3736 H   0  0  0  0  0  0  0  0  0  0  0  0
   -5.2191   -3.1341    1.6787 H   0  0  0  0  0  0  0  0  0  0  0  0
   -4.1977   -4.8415    0.1890 H   0  0  0  0  0  0  0  0  0  0  0  0
   -2.6321   -4.1244   -1.6170 H   0  0  0  0  0  0  0  0  0  0  0  0
   -3.2993    3.3093   -1.1481 H   0  0  0  0  0  0  0  0  0  0  0  0
    0.3352    5.6453    0.8047 H   0  0  0  0  0  0  0  0  0  0  0  0
    1.5699    4.4058    0.4321 H   0  0  0  0  0  0  0  0  0  0  0  0
    0.8922    5.4038   -0.8855 H   0  0  0  0  0  0  0  0  0  0  0  0
  1  2  1  0
  2  3  1  0
  3  4  1  0
  4  5  1  0
  5  6  1  0
  6  7  1  0
  2  8  2  0
  8  9  1  0
  9 10  2  3
 10 11  1  0
 11 12  2  0
 12 13  1  0
 13 14  2  0
 14 15  1  0
 15 16  2  0
 16 17  1  0
  9 18  1  0
 18 19  1  0
 19 20  2  0
 20 21  1  0
 21 22  1  0
 21 23  1  0
 23  1  1  0
 16 11  1  0
 23 18  2  0
  1 24  1  0
  3 25  1  0
  4 26  1  0
  4 27  1  0
  5 28  1  0
  5 29  1  0
  6 30  1  0
  6 31  1  0
  7 32  1  0
  7 33  1  0
  7 34  1  0
 12 35  1  0
 13 36  1  0
 14 37  1  0
 15 38  1  0
 19 39  1  0
 22 40  1  0
 22 41  1  0
 22 42  1  0
M  END
>  <ScrubInfo>  (6) 
{"isomerGroup": 0, "isomerId": 5, "confId": 0, "nr_conformers:": 1, "nr_isomers:": 9}

$$$$
_i6
     RDKit          3D

 42 44  0  0  0  0  0  0  0  0999 V2000
   -0.9094    4.4556   -1.0504 N   0  0  0  0  0  0  0  0  0  0  0  0
   -1.7029    3.3736   -0.6841 C   0  0  0  0  0  0  0  0  0  0  0  0
   -0.9918    2.2649   -0.4333 C   0  0  0  0  0  0  0  0  0  0  0  0
   -1.2306    0.8834   -0.0020 C   0  0  0  0  0  0  0  0  0  0  0  0
   -2.5299    0.4671    0.2084 N   0  0  0  0  0  0  0  0  0  0  0  0
   -3.0425   -0.7819    0.6147 C   0  0  0  0  0  0  0  0  0  0  0  0
   -2.2742   -1.9172    0.8793 C   0  0  0  0  0  0  0  0  0  0  0  0
   -2.8758   -3.1189    1.2791 C   0  0  0  0  0  0  0  0  0  0  0  0
   -4.2597   -3.2061    1.4210 C   0  0  0  0  0  0  0  0  0  0  0  0
   -5.0469   -2.0897    1.1626 C   0  0  0  0  0  0  0  0  0  0  0  0
   -4.4364   -0.9023    0.7662 C   0  0  0  0  0  0  0  0  0  0  0  0
   -5.2095    0.1690    0.5189 F   0  0  0  0  0  0  0  0  0  0  0  0
   -0.1830    0.1268    0.1601 N   0  0  0  0  0  0  0  0  0  0  0  0
    1.0792    0.6381   -0.0617 C   0  0  0  0  0  0  0  0  0  0  0  0
    2.1110   -0.0919    0.1760 N   0  0  0  0  0  0  0  0  0  0  0  0
    1.8937   -1.4468    0.6703 C   0  0  0  0  0  0  0  0  0  0  0  0
    3.2446   -2.1400    0.8626 C   0  0  0  0  0  0  0  0  0  0  0  0
    3.8633   -2.6967   -0.4241 C   0  0  0  0  0  0  0  0  0  0  0  0
    4.2731   -1.6374   -1.4341 C   0  0  0  0  0  0  0  0  0  0  0  0
    1.3885    1.8916   -0.5307 N   0  0  0  0  0  0  0  0  0  0  0  0
    0.3950    2.6837   -0.7250 C   0  0  0  0  0  0  0  0  0  0  0  0
    0.3951    3.9967   -1.1960 N   0  0  0  0  0  0  0  0  0  0  0  0
    1.5009    4.8901   -0.9065 C   0  0  0  0  0  0  0  0  0  0  0  0
   -1.2834    4.9945   -1.8352 H   0  0  0  0  0  0  0  0  0  0  0  0
   -2.7732    3.5097   -0.6352 H   0  0  0  0  0  0  0  0  0  0  0  0
   -3.2697    1.1481    0.0704 H   0  0  0  0  0  0  0  0  0  0  0  0
   -1.1940   -1.9026    0.7822 H   0  0  0  0  0  0  0  0  0  0  0  0
   -2.2533   -3.9887    1.4789 H   0  0  0  0  0  0  0  0  0  0  0  0
   -4.7187   -4.1412    1.7314 H   0  0  0  0  0  0  0  0  0  0  0  0
   -6.1260   -2.1332    1.2658 H   0  0  0  0  0  0  0  0  0  0  0  0
    1.3921   -1.4064    1.6452 H   0  0  0  0  0  0  0  0  0  0  0  0
    1.2736   -2.0330   -0.0182 H   0  0  0  0  0  0  0  0  0  0  0  0
    3.0939   -2.9871    1.5436 H   0  0  0  0  0  0  0  0  0  0  0  0
    3.9543   -1.4630    1.3538 H   0  0  0  0  0  0  0  0  0  0  0  0
    3.1676   -3.3994   -0.8975 H   0  0  0  0  0  0  0  0  0  0  0  0
    4.7545   -3.2747   -0.1511 H   0  0  0  0  0  0  0  0  0  0  0  0
    4.9102   -0.8763   -0.9729 H   0  0  0  0  0  0  0  0  0  0  0  0
    4.8358   -2.0987   -2.2524 H   0  0  0  0  0  0  0  0  0  0  0  0
    3.4015   -1.1459   -1.8754 H   0  0  0  0  0  0  0  0  0  0  0  0
    1.3691    5.8412   -1.4325 H   0  0  0  0  0  0  0  0  0  0  0  0
    1.5663    5.0927    0.1676 H   0  0  0  0  0  0  0  0  0  0  0  0
    2.4475    4.4525   -1.2396 H   0  0  0  0  0  0  0  0  0  0  0  0
  1  2  1  0
  2  3  2  0
  3  4  1  0
  4  5  1  0
  5  6  1  0
  6  7  2  0
  7  8  1  0
  8  9  2  0
  9 10  1  0
 10 11  2  0
 11 12  1  0
  4 13  2  0
 13 14  1  0
 14 15  2  3
 15 16  1  0
 16 17  1  0
 17 18  1  0
 18 19  1  0
 14 20  1  0
 20 21  2  0
 21 22  1  0
 22 23  1  0
 22  1  1  0
 21  3  1  0
 11  6  1  0
  1 24  1  0
  2 25  1  0
  5 26  1  0
  7 27  1  0
  8 28  1  0
  9 29  1  0
 10 30  1  0
 16 31  1  0
 16 32  1  0
 17 33  1  0
 17 34  1  0
 18 35  1  0
 18 36  1  0
 19 37  1  0
 19 38  1  0
 19 39  1  0
 23 40  1  0
 23 41  1  0
 23 42  1  0
M  END
>  <ScrubInfo>  (7) 
{"isomerGroup": 0, "isomerId": 6, "confId": 0, "nr_conformers:": 1, "nr_isomers:": 9}

$$$$
_i7
     RDKit          3D

 42 44  0  0  0  0  0  0  0  0999 V2000
   -2.3322   -2.6076    1.1229 N   0  0  0  0  0  0  0  0  0  0  0  0
   -2.5046   -1.2835    0.7340 C   0  0  0  0  0  0  0  0  0  0  0  0
   -1.4090   -0.7381    0.1863 C   0  0  0  0  0  0  0  0  0  0  0  0
   -0.9308    0.5459   -0.3578 C   0  0  0  0  0  0  0  0  0  0  0  0
   -1.5742    1.6629   -0.5307 N   0  0  0  0  0  0  0  0  0  0  0  0
   -2.9403    1.7594   -0.2322 C   0  0  0  0  0  0  0  0  0  0  0  0
   -3.3430    2.3421    0.9730 C   0  0  0  0  0  0  0  0  0  0  0  0
   -4.7010    2.4770    1.2773 C   0  0  0  0  0  0  0  0  0  0  0  0
   -5.6693    2.0423    0.3708 C   0  0  0  0  0  0  0  0  0  0  0  0
   -5.2806    1.4771   -0.8428 C   0  0  0  0  0  0  0  0  0  0  0  0
   -3.9257    1.3457   -1.1386 C   0  0  0  0  0  0  0  0  0  0  0  0
   -3.5733    0.7899   -2.3081 F   0  0  0  0  0  0  0  0  0  0  0  0
    0.3934    0.5079   -0.7080 N   0  0  0  0  0  0  0  0  0  0  0  0
    1.2470   -0.5630   -0.6213 C   0  0  0  0  0  0  0  0  0  0  0  0
    2.4935   -0.5728   -0.9373 N   0  0  0  0  0  0  0  0  0  0  0  0
    3.1165    0.6452   -1.4363 C   0  0  0  0  0  0  0  0  0  0  0  0
    4.5998    0.3804   -1.6998 C   0  0  0  0  0  0  0  0  0  0  0  0
    5.4124   -0.0136   -0.4622 C   0  0  0  0  0  0  0  0  0  0  0  0
    5.4505    1.0645    0.6097 C   0  0  0  0  0  0  0  0  0  0  0  0
    0.8020   -1.7849   -0.1626 N   0  0  0  0  0  0  0  0  0  0  0  0
   -0.4365   -1.8850    0.2029 C   0  0  0  0  0  0  0  0  0  0  0  0
   -1.0846   -3.0254    0.6828 N   0  0  0  0  0  0  0  0  0  0  0  0
   -0.3628   -4.0302    1.4398 C   0  0  0  0  0  0  0  0  0  0  0  0
   -3.1194   -3.2092    0.8697 H   0  0  0  0  0  0  0  0  0  0  0  0
   -3.4676   -0.8268    0.9053 H   0  0  0  0  0  0  0  0  0  0  0  0
   -2.5928    2.6964    1.6753 H   0  0  0  0  0  0  0  0  0  0  0  0
   -5.0017    2.9308    2.2189 H   0  0  0  0  0  0  0  0  0  0  0  0
   -6.7250    2.1539    0.6065 H   0  0  0  0  0  0  0  0  0  0  0  0
   -6.0205    1.1428   -1.5631 H   0  0  0  0  0  0  0  0  0  0  0  0
    0.7519    1.3689   -1.0861 H   0  0  0  0  0  0  0  0  0  0  0  0
    3.0024    1.4703   -0.7249 H   0  0  0  0  0  0  0  0  0  0  0  0
    2.6486    0.9452   -2.3818 H   0  0  0  0  0  0  0  0  0  0  0  0
    4.6930   -0.4229   -2.4416 H   0  0  0  0  0  0  0  0  0  0  0  0
    5.0434    1.2769   -2.1498 H   0  0  0  0  0  0  0  0  0  0  0  0
    6.4408   -0.2254   -0.7791 H   0  0  0  0  0  0  0  0  0  0  0  0
    5.0219   -0.9421   -0.0306 H   0  0  0  0  0  0  0  0  0  0  0  0
    4.4634    1.2238    1.0534 H   0  0  0  0  0  0  0  0  0  0  0  0
    6.1305    0.7689    1.4151 H   0  0  0  0  0  0  0  0  0  0  0  0
    5.8048    2.0152    0.1993 H   0  0  0  0  0  0  0  0  0  0  0  0
   -0.0084   -3.6200    2.3912 H   0  0  0  0  0  0  0  0  0  0  0  0
   -1.0115   -4.8866    1.6508 H   0  0  0  0  0  0  0  0  0  0  0  0
    0.4987   -4.3966    0.8726 H   0  0  0  0  0  0  0  0  0  0  0  0
  1  2  1  0
  2  3  2  0
  3  4  1  0
  4  5  2  3
  5  6  1  0
  6  7  2  0
  7  8  1  0
  8  9  2  0
  9 10  1  0
 10 11  2  0
 11 12  1  0
  4 13  1  0
 13 14  1  0
 14 15  2  3
 15 16  1  0
 16 17  1  0
 17 18  1  0
 18 19  1  0
 14 20  1  0
 20 21  2  0
 21 22  1  0
 22 23  1  0
 22  1  1  0
 21  3  1  0
 11  6  1  0
  1 24  1  0
  2 25  1  0
  7 26  1  0
  8 27  1  0
  9 28  1  0
 10 29  1  0
 13 30  1  0
 16 31  1  0
 16 32  1  0
 17 33  1  0
 17 34  1  0
 18 35  1  0
 18 36  1  0
 19 37  1  0
 19 38  1  0
 19 39  1  0
 23 40  1  0
 23 41  1  0
 23 42  1  0
M  END
>  <ScrubInfo>  (8) 
{"isomerGroup": 0, "isomerId": 7, "confId": 0, "nr_conformers:": 1, "nr_isomers:": 9}

$$$$
_i8
     RDKit          3D

 42 44  0  0  0  0  0  0  0  0999 V2000
    0.7607   -1.3922    0.2638 N   0  0  0  0  0  0  0  0  0  0  0  0
    1.2884   -0.1235    0.4352 C   0  0  0  0  0  0  0  0  0  0  0  0
    2.5177    0.2001    0.6552 N   0  0  0  0  0  0  0  0  0  0  0  0
    3.5158   -0.8602    0.7389 C   0  0  0  0  0  0  0  0  0  0  0  0
    4.8971   -0.2439    0.9669 C   0  0  0  0  0  0  0  0  0  0  0  0
    5.5663    0.3040   -0.2981 C   0  0  0  0  0  0  0  0  0  0  0  0
    4.8628    1.5033   -0.9124 C   0  0  0  0  0  0  0  0  0  0  0  0
    0.3448    0.8759    0.3505 N   0  0  0  0  0  0  0  0  0  0  0  0
   -1.0165    0.8408    0.1391 C   0  0  0  0  0  0  0  0  0  0  0  0
   -1.7189    1.9333    0.1148 N   0  0  0  0  0  0  0  0  0  0  0  0
   -3.1087    1.9263   -0.0474 C   0  0  0  0  0  0  0  0  0  0  0  0
   -3.6590    2.1786   -1.3077 C   0  0  0  0  0  0  0  0  0  0  0  0
   -5.0458    2.2118   -1.4825 C   0  0  0  0  0  0  0  0  0  0  0  0
   -5.8948    2.0085   -0.3934 C   0  0  0  0  0  0  0  0  0  0  0  0
   -5.3581    1.7787    0.8726 C   0  0  0  0  0  0  0  0  0  0  0  0
   -3.9755    1.7470    1.0390 C   0  0  0  0  0  0  0  0  0  0  0  0
   -3.4795    1.5206    2.2653 F   0  0  0  0  0  0  0  0  0  0  0  0
   -1.4738   -0.5270   -0.0471 C   0  0  0  0  0  0  0  0  0  0  0  0
   -2.6855   -1.1840   -0.3317 C   0  0  0  0  0  0  0  0  0  0  0  0
   -2.5506   -2.5160   -0.4168 N   0  0  0  0  0  0  0  0  0  0  0  0
   -1.2384   -2.7223   -0.1743 N   0  0  0  0  0  0  0  0  0  0  0  0
   -0.7231   -4.0683   -0.1855 C   0  0  0  0  0  0  0  0  0  0  0  0
   -0.5619   -1.5590    0.0313 C   0  0  0  0  0  0  0  0  0  0  0  0
    1.4058   -2.1682    0.3162 H   0  0  0  0  0  0  0  0  0  0  0  0
    3.5262   -1.4726   -0.1704 H   0  0  0  0  0  0  0  0  0  0  0  0
    3.2850   -1.5095    1.5921 H   0  0  0  0  0  0  0  0  0  0  0  0
    4.8426    0.5430    1.7292 H   0  0  0  0  0  0  0  0  0  0  0  0
    5.5527   -1.0270    1.3683 H   0  0  0  0  0  0  0  0  0  0  0  0
    5.6505   -0.4908   -1.0485 H   0  0  0  0  0  0  0  0  0  0  0  0
    6.5903    0.6008   -0.0404 H   0  0  0  0  0  0  0  0  0  0  0  0
    3.9006    1.2228   -1.3498 H   0  0  0  0  0  0  0  0  0  0  0  0
    4.6956    2.2880   -0.1681 H   0  0  0  0  0  0  0  0  0  0  0  0
    5.4754    1.9248   -1.7162 H   0  0  0  0  0  0  0  0  0  0  0  0
    0.7183    1.8035    0.4915 H   0  0  0  0  0  0  0  0  0  0  0  0
   -3.0018    2.3520   -2.1559 H   0  0  0  0  0  0  0  0  0  0  0  0
   -5.4622    2.4035   -2.4687 H   0  0  0  0  0  0  0  0  0  0  0  0
   -6.9731    2.0372   -0.5305 H   0  0  0  0  0  0  0  0  0  0  0  0
   -6.0040    1.6268    1.7315 H   0  0  0  0  0  0  0  0  0  0  0  0
   -3.6707   -0.7692   -0.4916 H   0  0  0  0  0  0  0  0  0  0  0  0
   -0.4269   -4.3102   -1.2089 H   0  0  0  0  0  0  0  0  0  0  0  0
   -1.5035   -4.7530    0.1570 H   0  0  0  0  0  0  0  0  0  0  0  0
    0.1356   -4.1340    0.4865 H   0  0  0  0  0  0  0  0  0  0  0  0
  1  2  1  0
  2  3  2  3
  3  4  1  0
  4  5  1  0
  5  6  1  0
  6  7  1  0
  2  8  1  0
  8  9  1  0
  9 10  2  3
 10 11  1  0
 11 12  2  0
 12 13  1  0
 13 14  2  0
 14 15  1  0
 15 16  2  0
 16 17  1  0
  9 18  1  0
 18 19  1  0
 19 20  2  0
 20 21  1  0
 21 22  1  0
 21 23  1  0
 23  1  1  0
 16 11  1  0
 23 18  2  0
  1 24  1  0
  4 25  1  0
  4 26  1  0
  5 27  1  0
  5 28  1  0
  6 29  1  0
  6 30  1  0
  7 31  1  0
  7 32  1  0
  7 33  1  0
  8 34  1  0
 12 35  1  0
 13 36  1  0
 14 37  1  0
 15 38  1  0
 19 39  1  0
 22 40  1  0
 22 41  1  0
 22 42  1  0
M  END
>  <ScrubInfo>  (9) 
{"isomerGroup": 0, "isomerId": 8, "confId": 0, "nr_conformers:": 1, "nr_isomers:": 9}

$$$$
