_i0
     RDKit          3D

 43 45  0  0  0  0  0  0  0  0999 V2000
    6.1467   -0.1813   -1.9892 C   0  0  0  0  0  0  0  0  0  0  0  0
    4.9534    0.5906   -2.0129 O   0  0  0  0  0  0  0  0  0  0  0  0
    4.4448    0.8182   -0.6984 C   0  0  0  0  0  0  0  0  0  0  0  0
    3.1607    1.6299   -0.8173 C   0  0  0  0  0  0  0  0  0  0  0  0
    2.5870    2.0404    0.5373 C   0  0  0  0  0  0  0  0  0  0  0  0
    2.1353    0.9164    1.3386 N   0  0  0  0  0  0  0  0  0  0  0  0
    1.0025    0.2394    0.9178 C   0  0  0  0  0  0  0  0  0  0  0  0
    0.0402    0.9032    0.2491 N   0  0  0  0  0  0  0  0  0  0  0  0
   -1.0821    0.2568   -0.1518 C   0  0  0  0  0  0  0  0  0  0  0  0
   -2.0352    1.0128   -0.8515 N   0  0  0  0  0  0  0  0  0  0  0  0
   -3.4356    1.0089   -0.6901 C   0  0  0  0  0  0  0  0  0  0  0  0
   -4.0706    0.5767    0.4806 C   0  0  0  0  0  0  0  0  0  0  0  0
   -5.4637    0.6250    0.6000 C   0  0  0  0  0  0  0  0  0  0  0  0
   -6.2324    1.1228   -0.4498 C   0  0  0  0  0  0  0  0  0  0  0  0
   -8.3008    1.1958   -0.2745 I   0  0  0  0  0  0  0  0  0  0  0  0
   -5.6177    1.5788   -1.6132 C   0  0  0  0  0  0  0  0  0  0  0  0
   -4.2251    1.5277   -1.7254 C   0  0  0  0  0  0  0  0  0  0  0  0
   -1.1742   -1.1113    0.1096 C   0  0  0  0  0  0  0  0  0  0  0  0
   -2.0581   -2.1810   -0.1401 C   0  0  0  0  0  0  0  0  0  0  0  0
   -1.6269   -3.3415    0.3691 N   0  0  0  0  0  0  0  0  0  0  0  0
   -0.4434   -3.0088    0.9349 N   0  0  0  0  0  0  0  0  0  0  0  0
    0.3384   -4.0263    1.5906 C   0  0  0  0  0  0  0  0  0  0  0  0
   -0.1236   -1.6856    0.7967 C   0  0  0  0  0  0  0  0  0  0  0  0
    0.9826   -1.0628    1.2310 N   0  0  0  0  0  0  0  0  0  0  0  0
    6.9284    0.3391   -1.4274 H   0  0  0  0  0  0  0  0  0  0  0  0
    5.9576   -1.1652   -1.5493 H   0  0  0  0  0  0  0  0  0  0  0  0
    6.4886   -0.3188   -3.0185 H   0  0  0  0  0  0  0  0  0  0  0  0
    4.2487   -0.1453   -0.2151 H   0  0  0  0  0  0  0  0  0  0  0  0
    5.1903    1.3678   -0.1125 H   0  0  0  0  0  0  0  0  0  0  0  0
    3.3710    2.5355   -1.4008 H   0  0  0  0  0  0  0  0  0  0  0  0
    2.4270    1.0669   -1.4069 H   0  0  0  0  0  0  0  0  0  0  0  0
    3.3590    2.5712    1.1073 H   0  0  0  0  0  0  0  0  0  0  0  0
    1.7760    2.7651    0.3940 H   0  0  0  0  0  0  0  0  0  0  0  0
    2.8267    0.2234    1.5966 H   0  0  0  0  0  0  0  0  0  0  0  0
   -1.6784    1.9659   -0.8920 H   0  0  0  0  0  0  0  0  0  0  0  0
   -3.4928    0.2120    1.3262 H   0  0  0  0  0  0  0  0  0  0  0  0
   -5.9284    0.2781    1.5195 H   0  0  0  0  0  0  0  0  0  0  0  0
   -6.2026    1.9752   -2.4390 H   0  0  0  0  0  0  0  0  0  0  0  0
   -3.7543    1.8830   -2.6396 H   0  0  0  0  0  0  0  0  0  0  0  0
   -3.0010   -2.1601   -0.6720 H   0  0  0  0  0  0  0  0  0  0  0  0
   -0.2675   -4.4664    2.3867 H   0  0  0  0  0  0  0  0  0  0  0  0
    0.6056   -4.7844    0.8502 H   0  0  0  0  0  0  0  0  0  0  0  0
    1.2439   -3.5875    2.0156 H   0  0  0  0  0  0  0  0  0  0  0  0
  1  2  1  0
  2  3  1  0
  3  4  1  0
  4  5  1  0
  5  6  1  0
  6  7  1  0
  7  8  2  0
  8  9  1  0
  9 10  1  0
 10 11  1  0
 11 12  2  0
 12 13  1  0
 13 14  2  0
 14 15  1  0
 14 16  1  0
 16 17  2  0
  9 18  2  0
 18 19  1  0
 19 20  2  0
 20 21  1  0
 21 22  1  0
 21 23  1  0
 23 24  2  0
 24  7  1  0
 17 11  1  0
 23 18  1  0
  1 25  1  0
  1 26  1  0
  1 27  1  0
  3 28  1  0
  3 29  1  0
  4 30  1  0
  4 31  1  0
  5 32  1  0
  5 33  1  0
  6 34  1  0
 10 35  1  0
 12 36  1  0
 13 37  1  0
 16 38  1  0
 17 39  1  0
 19 40  1  0
 22 41  1  0
 22 42  1  0
 22 43  1  0
M  END
>  <ScrubInfo>  (1) 
{"isomerGroup": 0, "isomerId": 0, "confId": 0, "nr_conformers:": 1, "nr_isomers:": 9}

$$$$
_i1
     RDKit          3D

 43 45  0  0  0  0  0  0  0  0999 V2000
   -0.3037    0.0684   -1.7893 N   0  0  0  0  0  0  0  0  0  0  0  0
   -1.5025    0.4834   -1.2460 C   0  0  0  0  0  0  0  0  0  0  0  0
   -2.7074    0.0748   -1.7853 N   0  0  0  0  0  0  0  0  0  0  0  0
   -3.7583   -0.5826   -1.1048 C   0  0  0  0  0  0  0  0  0  0  0  0
   -3.6569   -1.0537    0.2107 C   0  0  0  0  0  0  0  0  0  0  0  0
   -4.7473   -1.6623    0.8429 C   0  0  0  0  0  0  0  0  0  0  0  0
   -5.9558   -1.7981    0.1643 C   0  0  0  0  0  0  0  0  0  0  0  0
   -7.5751   -2.6990    1.1018 I   0  0  0  0  0  0  0  0  0  0  0  0
   -6.0810   -1.3302   -1.1408 C   0  0  0  0  0  0  0  0  0  0  0  0
   -4.9873   -0.7243   -1.7671 C   0  0  0  0  0  0  0  0  0  0  0  0
   -1.3963    1.3373   -0.2200 C   0  0  0  0  0  0  0  0  0  0  0  0
   -2.2888    2.0857    0.6720 C   0  0  0  0  0  0  0  0  0  0  0  0
   -1.6428    2.7932    1.5654 N   0  0  0  0  0  0  0  0  0  0  0  0
   -0.2804    2.6018    1.2808 N   0  0  0  0  0  0  0  0  0  0  0  0
    0.7017    2.9980    2.2605 C   0  0  0  0  0  0  0  0  0  0  0  0
   -0.0440    1.7091    0.2485 C   0  0  0  0  0  0  0  0  0  0  0  0
    1.0662    1.2610   -0.2315 N   0  0  0  0  0  0  0  0  0  0  0  0
    0.9321    0.3800   -1.2806 C   0  0  0  0  0  0  0  0  0  0  0  0
    1.9689   -0.1872   -1.8028 N   0  0  0  0  0  0  0  0  0  0  0  0
    3.2902    0.1489   -1.2678 C   0  0  0  0  0  0  0  0  0  0  0  0
    3.6442   -0.7962   -0.1241 C   0  0  0  0  0  0  0  0  0  0  0  0
    5.0397   -0.5041    0.4178 C   0  0  0  0  0  0  0  0  0  0  0  0
    5.3423   -1.2992    1.5651 O   0  0  0  0  0  0  0  0  0  0  0  0
    5.6939   -2.6381    1.2444 C   0  0  0  0  0  0  0  0  0  0  0  0
   -0.3118   -0.6547   -2.4914 H   0  0  0  0  0  0  0  0  0  0  0  0
   -2.6188   -0.2763   -2.7353 H   0  0  0  0  0  0  0  0  0  0  0  0
   -2.7235   -0.9829    0.7628 H   0  0  0  0  0  0  0  0  0  0  0  0
   -4.6335   -2.0256    1.8614 H   0  0  0  0  0  0  0  0  0  0  0  0
   -7.0193   -1.4225   -1.6817 H   0  0  0  0  0  0  0  0  0  0  0  0
   -5.1082   -0.3475   -2.7806 H   0  0  0  0  0  0  0  0  0  0  0  0
   -3.3798    2.0166    0.5764 H   0  0  0  0  0  0  0  0  0  0  0  0
    1.6687    3.1947    1.7866 H   0  0  0  0  0  0  0  0  0  0  0  0
    0.3898    3.9130    2.7744 H   0  0  0  0  0  0  0  0  0  0  0  0
    0.8339    2.2090    3.0074 H   0  0  0  0  0  0  0  0  0  0  0  0
    4.0162    0.0237   -2.0800 H   0  0  0  0  0  0  0  0  0  0  0  0
    3.3695    1.1987   -0.9606 H   0  0  0  0  0  0  0  0  0  0  0  0
    3.5800   -1.8334   -0.4729 H   0  0  0  0  0  0  0  0  0  0  0  0
    2.9132   -0.7145    0.6895 H   0  0  0  0  0  0  0  0  0  0  0  0
    5.8083   -0.6419   -0.3519 H   0  0  0  0  0  0  0  0  0  0  0  0
    5.0908    0.5412    0.7420 H   0  0  0  0  0  0  0  0  0  0  0  0
    5.9901   -3.1429    2.1681 H   0  0  0  0  0  0  0  0  0  0  0  0
    6.5404   -2.6608    0.5514 H   0  0  0  0  0  0  0  0  0  0  0  0
    4.8425   -3.1764    0.8202 H   0  0  0  0  0  0  0  0  0  0  0  0
  1  2  1  0
  2  3  1  0
  3  4  1  0
  4  5  2  0
  5  6  1  0
  6  7  2  0
  7  8  1  0
  7  9  1  0
  9 10  2  0
  2 11  2  0
 11 12  1  0
 12 13  2  0
 13 14  1  0
 14 15  1  0
 14 16  1  0
 16 17  2  0
 17 18  1  0
 18 19  2  3
 19 20  1  0
 20 21  1  0
 21 22  1  0
 22 23  1  0
 23 24  1  0
 18  1  1  0
 10  4  1  0
 16 11  1  0
  1 25  1  0
  3 26  1  0
  5 27  1  0
  6 28  1  0
  9 29  1  0
 10 30  1  0
 12 31  1  0
 15 32  1  0
 15 33  1  0
 15 34  1  0
 20 35  1  0
 20 36  1  0
 21 37  1  0
 21 38  1  0
 22 39  1  0
 22 40  1  0
 24 41  1  0
 24 42  1  0
 24 43  1  0
M  END
>  <ScrubInfo>  (2) 
{"isomerGroup": 0, "isomerId": 1, "confId": 0, "nr_conformers:": 1, "nr_isomers:": 9}

$$$$
_i2
     RDKit          3D

 43 45  0  0  0  0  0  0  0  0999 V2000
   -0.1899    0.8418   -0.6883 N   0  0  0  0  0  0  0  0  0  0  0  0
    0.8197   -0.0859   -0.5931 C   0  0  0  0  0  0  0  0  0  0  0  0
    2.0591    0.4548   -0.8153 N   0  0  0  0  0  0  0  0  0  0  0  0
    3.2379   -0.3994   -0.8699 C   0  0  0  0  0  0  0  0  0  0  0  0
    4.5092    0.4409   -0.9177 C   0  0  0  0  0  0  0  0  0  0  0  0
    4.7553    1.1960    0.3865 C   0  0  0  0  0  0  0  0  0  0  0  0
    5.9198    2.0168    0.2804 O   0  0  0  0  0  0  0  0  0  0  0  0
    7.1240    1.3187    0.5686 C   0  0  0  0  0  0  0  0  0  0  0  0
    0.6219   -1.3467   -0.3085 N   0  0  0  0  0  0  0  0  0  0  0  0
   -0.7013   -1.6255   -0.1383 C   0  0  0  0  0  0  0  0  0  0  0  0
   -1.7829   -0.7606   -0.2110 C   0  0  0  0  0  0  0  0  0  0  0  0
   -2.8989   -1.5788    0.0377 C   0  0  0  0  0  0  0  0  0  0  0  0
   -2.5668   -2.8582    0.2527 N   0  0  0  0  0  0  0  0  0  0  0  0
   -1.2190   -2.8582    0.1440 N   0  0  0  0  0  0  0  0  0  0  0  0
   -0.4969   -4.0926    0.3215 C   0  0  0  0  0  0  0  0  0  0  0  0
   -1.5372    0.6395   -0.4939 C   0  0  0  0  0  0  0  0  0  0  0  0
   -2.3865    1.6193   -0.5622 N   0  0  0  0  0  0  0  0  0  0  0  0
   -3.7533    1.4317   -0.3554 C   0  0  0  0  0  0  0  0  0  0  0  0
   -4.2971    1.5573    0.9262 C   0  0  0  0  0  0  0  0  0  0  0  0
   -5.6708    1.4036    1.1311 C   0  0  0  0  0  0  0  0  0  0  0  0
   -6.5052    1.1402    0.0449 C   0  0  0  0  0  0  0  0  0  0  0  0
   -8.5484    0.9102    0.3441 I   0  0  0  0  0  0  0  0  0  0  0  0
   -5.9771    1.0370   -1.2419 C   0  0  0  0  0  0  0  0  0  0  0  0
   -4.6024    1.1916   -1.4394 C   0  0  0  0  0  0  0  0  0  0  0  0
    0.0678    1.8114   -0.7704 H   0  0  0  0  0  0  0  0  0  0  0  0
    2.0706    1.1833   -1.5206 H   0  0  0  0  0  0  0  0  0  0  0  0
    3.1853   -1.0234   -1.7695 H   0  0  0  0  0  0  0  0  0  0  0  0
    3.2712   -1.0664   -0.0003 H   0  0  0  0  0  0  0  0  0  0  0  0
    5.3598   -0.2180   -1.1260 H   0  0  0  0  0  0  0  0  0  0  0  0
    4.4715    1.1540   -1.7509 H   0  0  0  0  0  0  0  0  0  0  0  0
    3.9176    1.8719    0.5878 H   0  0  0  0  0  0  0  0  0  0  0  0
    4.8377    0.5147    1.2416 H   0  0  0  0  0  0  0  0  0  0  0  0
    7.9561    2.0228    0.4820 H   0  0  0  0  0  0  0  0  0  0  0  0
    7.1054    0.9290    1.5909 H   0  0  0  0  0  0  0  0  0  0  0  0
    7.2862    0.5043   -0.1424 H   0  0  0  0  0  0  0  0  0  0  0  0
   -3.9473   -1.3182    0.0750 H   0  0  0  0  0  0  0  0  0  0  0  0
   -0.8065   -4.7867   -0.4639 H   0  0  0  0  0  0  0  0  0  0  0  0
   -0.7428   -4.4969    1.3068 H   0  0  0  0  0  0  0  0  0  0  0  0
    0.5784   -3.9135    0.2554 H   0  0  0  0  0  0  0  0  0  0  0  0
   -3.6460    1.7749    1.7688 H   0  0  0  0  0  0  0  0  0  0  0  0
   -6.0710    1.4967    2.1372 H   0  0  0  0  0  0  0  0  0  0  0  0
   -6.6178    0.8426   -2.0979 H   0  0  0  0  0  0  0  0  0  0  0  0
   -4.1893    1.1243   -2.4423 H   0  0  0  0  0  0  0  0  0  0  0  0
  1  2  1  0
  2  3  1  0
  3  4  1  0
  4  5  1  0
  5  6  1  0
  6  7  1  0
  7  8  1  0
  2  9  2  0
  9 10  1  0
 10 11  2  0
 11 12  1  0
 12 13  2  0
 13 14  1  0
 14 15  1  0
 11 16  1  0
 16 17  2  3
 17 18  1  0
 18 19  2  0
 19 20  1  0
 20 21  2  0
 21 22  1  0
 21 23  1  0
 23 24  2  0
 16  1  1  0
 24 18  1  0
 14 10  1  0
  1 25  1  0
  3 26  1  0
  4 27  1  0
  4 28  1  0
  5 29  1  0
  5 30  1  0
  6 31  1  0
  6 32  1  0
  8 33  1  0
  8 34  1  0
  8 35  1  0
 12 36  1  0
 15 37  1  0
 15 38  1  0
 15 39  1  0
 19 40  1  0
 20 41  1  0
 23 42  1  0
 24 43  1  0
M  END
>  <ScrubInfo>  (3) 
{"isomerGroup": 0, "isomerId": 2, "confId": 0, "nr_conformers:": 1, "nr_isomers:": 9}

$$$$
_i3
     RDKit          3D

 43 45  0  0  0  0  0  0  0  0999 V2000
   -0.7374   -1.6197   -0.6853 N   0  0  0  0  0  0  0  0  0  0  0  0
   -0.8479   -0.3576   -1.2482 C   0  0  0  0  0  0  0  0  0  0  0  0
   -1.9336    0.2303   -1.6023 N   0  0  0  0  0  0  0  0  0  0  0  0
   -3.2334   -0.4164   -1.4641 C   0  0  0  0  0  0  0  0  0  0  0  0
   -3.8257   -0.1257   -0.0857 C   0  0  0  0  0  0  0  0  0  0  0  0
   -4.2931    1.3204    0.0491 C   0  0  0  0  0  0  0  0  0  0  0  0
   -5.4658    1.5037   -0.7463 O   0  0  0  0  0  0  0  0  0  0  0  0
   -5.8930    2.8593   -0.7383 C   0  0  0  0  0  0  0  0  0  0  0  0
    0.2763    0.4241   -1.4783 N   0  0  0  0  0  0  0  0  0  0  0  0
    1.4553   -0.0233   -1.1531 C   0  0  0  0  0  0  0  0  0  0  0  0
    2.6073    0.6874   -1.3757 N   0  0  0  0  0  0  0  0  0  0  0  0
    3.4982    1.1009   -0.3512 C   0  0  0  0  0  0  0  0  0  0  0  0
    4.7626    1.5761   -0.7282 C   0  0  0  0  0  0  0  0  0  0  0  0
    5.6774    2.0224    0.2299 C   0  0  0  0  0  0  0  0  0  0  0  0
    5.3264    2.0084    1.5777 C   0  0  0  0  0  0  0  0  0  0  0  0
    6.6808    2.6701    3.0069 I   0  0  0  0  0  0  0  0  0  0  0  0
    4.0679    1.5576    1.9700 C   0  0  0  0  0  0  0  0  0  0  0  0
    3.1560    1.1120    1.0073 C   0  0  0  0  0  0  0  0  0  0  0  0
    1.6137   -1.3446   -0.5938 C   0  0  0  0  0  0  0  0  0  0  0  0
    2.6614   -2.1818   -0.1828 C   0  0  0  0  0  0  0  0  0  0  0  0
    2.2179   -3.3627    0.2773 N   0  0  0  0  0  0  0  0  0  0  0  0
    0.8715   -3.2803    0.1404 N   0  0  0  0  0  0  0  0  0  0  0  0
    0.0587   -4.4040    0.5304 C   0  0  0  0  0  0  0  0  0  0  0  0
    0.4857   -2.0865   -0.3811 C   0  0  0  0  0  0  0  0  0  0  0  0
   -1.5876   -2.1403   -0.5365 H   0  0  0  0  0  0  0  0  0  0  0  0
   -3.1728   -1.4974   -1.6320 H   0  0  0  0  0  0  0  0  0  0  0  0
   -3.8944   -0.0384   -2.2524 H   0  0  0  0  0  0  0  0  0  0  0  0
   -3.0881   -0.3435    0.6949 H   0  0  0  0  0  0  0  0  0  0  0  0
   -4.6823   -0.7930    0.0683 H   0  0  0  0  0  0  0  0  0  0  0  0
   -3.5083    2.0193   -0.2617 H   0  0  0  0  0  0  0  0  0  0  0  0
   -4.5473    1.5222    1.0960 H   0  0  0  0  0  0  0  0  0  0  0  0
   -6.1264    3.1819    0.2809 H   0  0  0  0  0  0  0  0  0  0  0  0
   -5.1240    3.5056   -1.1722 H   0  0  0  0  0  0  0  0  0  0  0  0
   -6.7984    2.9384   -1.3461 H   0  0  0  0  0  0  0  0  0  0  0  0
    2.3750    1.5119   -1.9278 H   0  0  0  0  0  0  0  0  0  0  0  0
    5.0494    1.5876   -1.7778 H   0  0  0  0  0  0  0  0  0  0  0  0
    6.6540    2.3751   -0.0917 H   0  0  0  0  0  0  0  0  0  0  0  0
    3.7772    1.5504    3.0177 H   0  0  0  0  0  0  0  0  0  0  0  0
    2.1733    0.7866    1.3407 H   0  0  0  0  0  0  0  0  0  0  0  0
    3.7268   -1.9903   -0.1928 H   0  0  0  0  0  0  0  0  0  0  0  0
    0.2637   -4.6307    1.5798 H   0  0  0  0  0  0  0  0  0  0  0  0
   -0.9984   -4.1606    0.4059 H   0  0  0  0  0  0  0  0  0  0  0  0
    0.3215   -5.2547   -0.1033 H   0  0  0  0  0  0  0  0  0  0  0  0
  1  2  1  0
  2  3  2  3
  3  4  1  0
  4  5  1  0
  5  6  1  0
  6  7  1  0
  7  8  1  0
  2  9  1  0
  9 10  2  0
 10 11  1  0
 11 12  1  0
 12 13  2  0
 13 14  1  0
 14 15  2  0
 15 16  1  0
 15 17  1  0
 17 18  2  0
 10 19  1  0
 19 20  1  0
 20 21  2  0
 21 22  1  0
 22 23  1  0
 22 24  1  0
 24  1  1  0
 18 12  1  0
 24 19  2  0
  1 25  1  0
  4 26  1  0
  4 27  1  0
  5 28  1  0
  5 29  1  0
  6 30  1  0
  6 31  1  0
  8 32  1  0
  8 33  1  0
  8 34  1  0
 11 35  1  0
 13 36  1  0
 14 37  1  0
 17 38  1  0
 18 39  1  0
 20 40  1  0
 23 41  1  0
 23 42  1  0
 23 43  1  0
M  END
>  <ScrubInfo>  (4) 
{"isomerGroup": 0, "isomerId": 3, "confId": 0, "nr_conformers:": 1, "nr_isomers:": 9}

$$$$
_i4
     RDKit          3D

 43 45  0  0  0  0  0  0  0  0999 V2000
   -2.4929    0.0024    4.7719 N   0  0  0  0  0  0  0  0  0  0  0  0
   -2.6504    0.6183    3.5341 C   0  0  0  0  0  0  0  0  0  0  0  0
   -1.8016    0.1507    2.6101 C   0  0  0  0  0  0  0  0  0  0  0  0
   -1.4858    0.4101    1.2256 C   0  0  0  0  0  0  0  0  0  0  0  0
   -2.1342    1.2741    0.5074 N   0  0  0  0  0  0  0  0  0  0  0  0
   -1.7477    1.4417   -0.8315 C   0  0  0  0  0  0  0  0  0  0  0  0
   -2.5328    0.8965   -1.8509 C   0  0  0  0  0  0  0  0  0  0  0  0
   -2.1607    1.0418   -3.1902 C   0  0  0  0  0  0  0  0  0  0  0  0
   -0.9993    1.7443   -3.5108 C   0  0  0  0  0  0  0  0  0  0  0  0
   -0.4272    1.9417   -5.4987 I   0  0  0  0  0  0  0  0  0  0  0  0
   -0.2186    2.3128   -2.5055 C   0  0  0  0  0  0  0  0  0  0  0  0
   -0.6012    2.1686   -1.1694 C   0  0  0  0  0  0  0  0  0  0  0  0
   -0.4412   -0.3288    0.7449 N   0  0  0  0  0  0  0  0  0  0  0  0
    0.1905   -1.2130    1.4540 C   0  0  0  0  0  0  0  0  0  0  0  0
    1.2382   -1.9112    0.9215 N   0  0  0  0  0  0  0  0  0  0  0  0
    2.0121   -1.4277   -0.2107 C   0  0  0  0  0  0  0  0  0  0  0  0
    1.2991   -1.7126   -1.5313 C   0  0  0  0  0  0  0  0  0  0  0  0
    2.1916   -1.4329   -2.7347 C   0  0  0  0  0  0  0  0  0  0  0  0
    2.6516   -0.0839   -2.6948 O   0  0  0  0  0  0  0  0  0  0  0  0
    3.4202    0.2432   -3.8448 C   0  0  0  0  0  0  0  0  0  0  0  0
   -0.0952   -1.5348    2.7572 N   0  0  0  0  0  0  0  0  0  0  0  0
   -1.0631   -0.8998    3.3231 C   0  0  0  0  0  0  0  0  0  0  0  0
   -1.5747   -1.0349    4.6156 N   0  0  0  0  0  0  0  0  0  0  0  0
   -0.7119   -1.3841    5.7271 C   0  0  0  0  0  0  0  0  0  0  0  0
   -3.3819   -0.2480    5.2112 H   0  0  0  0  0  0  0  0  0  0  0  0
   -3.4029    1.3837    3.4058 H   0  0  0  0  0  0  0  0  0  0  0  0
   -3.4321    0.3442   -1.5943 H   0  0  0  0  0  0  0  0  0  0  0  0
   -2.7812    0.5981   -3.9633 H   0  0  0  0  0  0  0  0  0  0  0  0
    0.6921    2.8568   -2.7388 H   0  0  0  0  0  0  0  0  0  0  0  0
    0.0105    2.6007   -0.3828 H   0  0  0  0  0  0  0  0  0  0  0  0
    1.7745   -2.3766    1.6426 H   0  0  0  0  0  0  0  0  0  0  0  0
    2.2281   -0.3592   -0.0950 H   0  0  0  0  0  0  0  0  0  0  0  0
    2.9769   -1.9484   -0.2038 H   0  0  0  0  0  0  0  0  0  0  0  0
    0.4024   -1.0881   -1.6061 H   0  0  0  0  0  0  0  0  0  0  0  0
    0.9657   -2.7567   -1.5653 H   0  0  0  0  0  0  0  0  0  0  0  0
    3.0536   -2.1101   -2.7302 H   0  0  0  0  0  0  0  0  0  0  0  0
    1.6200   -1.6006   -3.6550 H   0  0  0  0  0  0  0  0  0  0  0  0
    3.7367    1.2864   -3.7617 H   0  0  0  0  0  0  0  0  0  0  0  0
    4.3110   -0.3897   -3.9012 H   0  0  0  0  0  0  0  0  0  0  0  0
    2.8206    0.1312   -4.7529 H   0  0  0  0  0  0  0  0  0  0  0  0
    0.0207   -0.5923    5.9150 H   0  0  0  0  0  0  0  0  0  0  0  0
   -1.3036   -1.5335    6.6361 H   0  0  0  0  0  0  0  0  0  0  0  0
   -0.1758   -2.3159    5.5207 H   0  0  0  0  0  0  0  0  0  0  0  0
  1  2  1  0
  2  3  2  0
  3  4  1  0
  4  5  2  3
  5  6  1  0
  6  7  2  0
  7  8  1  0
  8  9  2  0
  9 10  1  0
  9 11  1  0
 11 12  2  0
  4 13  1  0
 13 14  2  0
 14 15  1  0
 15 16  1  0
 16 17  1  0
 17 18  1  0
 18 19  1  0
 19 20  1  0
 14 21  1  0
 21 22  2  0
 22 23  1  0
 23 24  1  0
 23  1  1  0
 22  3  1  0
 12  6  1  0
  1 25  1  0
  2 26  1  0
  7 27  1  0
  8 28  1  0
 11 29  1  0
 12 30  1  0
 15 31  1  0
 16 32  1  0
 16 33  1  0
 17 34  1  0
 17 35  1  0
 18 36  1  0
 18 37  1  0
 20 38  1  0
 20 39  1  0
 20 40  1  0
 24 41  1  0
 24 42  1  0
 24 43  1  0
M  END
>  <ScrubInfo>  (5) 
{"isomerGroup": 0, "isomerId": 4, "confId": 0, "nr_conformers:": 1, "nr_isomers:": 9}

$$$$
_i5
     RDKit          3D

 43 45  0  0  0  0  0  0  0  0999 V2000
   -0.4394   -1.3767   -0.2388 N   0  0  0  0  0  0  0  0  0  0  0  0
   -0.7639   -0.2446   -0.9420 C   0  0  0  0  0  0  0  0  0  0  0  0
   -2.0718   -0.1379   -1.3204 N   0  0  0  0  0  0  0  0  0  0  0  0
   -3.1685   -0.3262   -0.3765 C   0  0  0  0  0  0  0  0  0  0  0  0
   -4.4970   -0.0407   -1.0755 C   0  0  0  0  0  0  0  0  0  0  0  0
   -5.6892   -0.3564   -0.1776 C   0  0  0  0  0  0  0  0  0  0  0  0
   -5.6093    0.3106    1.0795 O   0  0  0  0  0  0  0  0  0  0  0  0
   -6.0279    1.6689    1.0211 C   0  0  0  0  0  0  0  0  0  0  0  0
    0.0675    0.7003   -1.2789 N   0  0  0  0  0  0  0  0  0  0  0  0
    1.4042    0.6130   -0.9072 C   0  0  0  0  0  0  0  0  0  0  0  0
    2.1493    1.6195   -1.2384 N   0  0  0  0  0  0  0  0  0  0  0  0
    3.5066    1.6829   -0.9318 C   0  0  0  0  0  0  0  0  0  0  0  0
    4.4578    1.2469   -1.8587 C   0  0  0  0  0  0  0  0  0  0  0  0
    5.8220    1.3382   -1.5708 C   0  0  0  0  0  0  0  0  0  0  0  0
    6.2354    1.8855   -0.3562 C   0  0  0  0  0  0  0  0  0  0  0  0
    8.2629    2.0229    0.0777 I   0  0  0  0  0  0  0  0  0  0  0  0
    5.2964    2.3486    0.5654 C   0  0  0  0  0  0  0  0  0  0  0  0
    3.9339    2.2541    0.2704 C   0  0  0  0  0  0  0  0  0  0  0  0
    1.8043   -0.5912   -0.1967 C   0  0  0  0  0  0  0  0  0  0  0  0
    2.9853   -1.1536    0.3209 C   0  0  0  0  0  0  0  0  0  0  0  0
    2.7863   -2.3529    0.8918 N   0  0  0  0  0  0  0  0  0  0  0  0
    1.4595   -2.5637    0.7410 N   0  0  0  0  0  0  0  0  0  0  0  0
    0.8807   -3.7795    1.2530 C   0  0  0  0  0  0  0  0  0  0  0  0
    0.8511   -1.5329    0.1001 C   0  0  0  0  0  0  0  0  0  0  0  0
   -1.1231   -2.1201   -0.2174 H   0  0  0  0  0  0  0  0  0  0  0  0
   -2.1679    0.7424   -1.8258 H   0  0  0  0  0  0  0  0  0  0  0  0
   -3.0332    0.3478    0.4770 H   0  0  0  0  0  0  0  0  0  0  0  0
   -3.1676   -1.3552   -0.0009 H   0  0  0  0  0  0  0  0  0  0  0  0
   -4.5220    1.0126   -1.3787 H   0  0  0  0  0  0  0  0  0  0  0  0
   -4.5751   -0.6336   -1.9949 H   0  0  0  0  0  0  0  0  0  0  0  0
   -6.6334   -0.1173   -0.6807 H   0  0  0  0  0  0  0  0  0  0  0  0
   -5.7038   -1.4313    0.0342 H   0  0  0  0  0  0  0  0  0  0  0  0
   -7.0621    1.7377    0.6705 H   0  0  0  0  0  0  0  0  0  0  0  0
   -5.9755    2.0855    2.0307 H   0  0  0  0  0  0  0  0  0  0  0  0
   -5.3691    2.2533    0.3734 H   0  0  0  0  0  0  0  0  0  0  0  0
    4.1304    0.8371   -2.8108 H   0  0  0  0  0  0  0  0  0  0  0  0
    6.5435    0.9869   -2.3036 H   0  0  0  0  0  0  0  0  0  0  0  0
    5.6055    2.7900    1.5092 H   0  0  0  0  0  0  0  0  0  0  0  0
    3.1987    2.6294    0.9777 H   0  0  0  0  0  0  0  0  0  0  0  0
    3.9931   -0.7620    0.3127 H   0  0  0  0  0  0  0  0  0  0  0  0
    1.1899   -3.9005    2.2944 H   0  0  0  0  0  0  0  0  0  0  0  0
    1.2442   -4.6129    0.6469 H   0  0  0  0  0  0  0  0  0  0  0  0
   -0.2086   -3.7250    1.1991 H   0  0  0  0  0  0  0  0  0  0  0  0
  1  2  1  0
  2  3  1  0
  3  4  1  0
  4  5  1  0
  5  6  1  0
  6  7  1  0
  7  8  1  0
  2  9  2  0
  9 10  1  0
 10 11  2  3
 11 12  1  0
 12 13  2  0
 13 14  1  0
 14 15  2  0
 15 16  1  0
 15 17  1  0
 17 18  2  0
 10 19  1  0
 19 20  1  0
 20 21  2  0
 21 22  1  0
 22 23  1  0
 22 24  1  0
 24  1  1  0
 18 12  1  0
 24 19  2  0
  1 25  1  0
  3 26  1  0
  4 27  1  0
  4 28  1  0
  5 29  1  0
  5 30  1  0
  6 31  1  0
  6 32  1  0
  8 33  1  0
  8 34  1  0
  8 35  1  0
 13 36  1  0
 14 37  1  0
 17 38  1  0
 18 39  1  0
 20 40  1  0
 23 41  1  0
 23 42  1  0
 23 43  1  0
M  END
>  <ScrubInfo>  (6) 
{"isomerGroup": 0, "isomerId": 5, "confId": 0, "nr_conformers:": 1, "nr_isomers:": 9}

$$$$
_i6
     RDKit          3D

 43 45  0  0  0  0  0  0  0  0999 V2000
   -3.0406   -3.2660   -0.1454 N   0  0  0  0  0  0  0  0  0  0  0  0
   -2.8330   -2.0041   -0.6925 C   0  0  0  0  0  0  0  0  0  0  0  0
   -1.5447   -1.6362   -0.6837 C   0  0  0  0  0  0  0  0  0  0  0  0
   -0.7216   -0.4932   -1.0728 C   0  0  0  0  0  0  0  0  0  0  0  0
   -1.2220    0.6433   -1.6721 N   0  0  0  0  0  0  0  0  0  0  0  0
   -2.3101    1.3962   -1.1741 C   0  0  0  0  0  0  0  0  0  0  0  0
   -2.9790    2.2582   -2.0540 C   0  0  0  0  0  0  0  0  0  0  0  0
   -4.0398    3.0546   -1.6127 C   0  0  0  0  0  0  0  0  0  0  0  0
   -4.4286    3.0066   -0.2761 C   0  0  0  0  0  0  0  0  0  0  0  0
   -6.0036    4.1871    0.3869 I   0  0  0  0  0  0  0  0  0  0  0  0
   -3.7590    2.1754    0.6193 C   0  0  0  0  0  0  0  0  0  0  0  0
   -2.6985    1.3804    0.1717 C   0  0  0  0  0  0  0  0  0  0  0  0
    0.5671   -0.5620   -0.8784 N   0  0  0  0  0  0  0  0  0  0  0  0
    1.0929   -1.6877   -0.2742 C   0  0  0  0  0  0  0  0  0  0  0  0
    2.3418   -1.7225    0.0249 N   0  0  0  0  0  0  0  0  0  0  0  0
    3.1980   -0.5826   -0.3007 C   0  0  0  0  0  0  0  0  0  0  0  0
    3.2309    0.3896    0.8773 C   0  0  0  0  0  0  0  0  0  0  0  0
    4.0091    1.6585    0.5510 C   0  0  0  0  0  0  0  0  0  0  0  0
    5.3673    1.3337    0.2640 O   0  0  0  0  0  0  0  0  0  0  0  0
    6.1344    2.4919   -0.0336 C   0  0  0  0  0  0  0  0  0  0  0  0
    0.4100   -2.8290    0.0737 N   0  0  0  0  0  0  0  0  0  0  0  0
   -0.8596   -2.8242   -0.1336 C   0  0  0  0  0  0  0  0  0  0  0  0
   -1.7939   -3.8337    0.0971 N   0  0  0  0  0  0  0  0  0  0  0  0
   -1.6342   -4.7611    1.2004 C   0  0  0  0  0  0  0  0  0  0  0  0
   -3.6954   -3.8390   -0.6830 H   0  0  0  0  0  0  0  0  0  0  0  0
   -3.6794   -1.4462   -1.0671 H   0  0  0  0  0  0  0  0  0  0  0  0
   -0.4610    1.2740   -1.9171 H   0  0  0  0  0  0  0  0  0  0  0  0
   -2.6846    2.3032   -3.1007 H   0  0  0  0  0  0  0  0  0  0  0  0
   -4.5474    3.7040   -2.3214 H   0  0  0  0  0  0  0  0  0  0  0  0
   -4.0417    2.1395    1.6687 H   0  0  0  0  0  0  0  0  0  0  0  0
   -2.1745    0.7640    0.8986 H   0  0  0  0  0  0  0  0  0  0  0  0
    4.2070   -0.9674   -0.4898 H   0  0  0  0  0  0  0  0  0  0  0  0
    2.8964   -0.0781   -1.2264 H   0  0  0  0  0  0  0  0  0  0  0  0
    3.6901   -0.1140    1.7370 H   0  0  0  0  0  0  0  0  0  0  0  0
    2.2111    0.6640    1.1713 H   0  0  0  0  0  0  0  0  0  0  0  0
    3.5609    2.1662   -0.3111 H   0  0  0  0  0  0  0  0  0  0  0  0
    3.9738    2.3355    1.4125 H   0  0  0  0  0  0  0  0  0  0  0  0
    5.7348    2.9995   -0.9168 H   0  0  0  0  0  0  0  0  0  0  0  0
    7.1609    2.1805   -0.2445 H   0  0  0  0  0  0  0  0  0  0  0  0
    6.1450    3.1748    0.8213 H   0  0  0  0  0  0  0  0  0  0  0  0
   -1.7113   -4.2401    2.1604 H   0  0  0  0  0  0  0  0  0  0  0  0
   -2.4075   -5.5352    1.1618 H   0  0  0  0  0  0  0  0  0  0  0  0
   -0.6605   -5.2586    1.1483 H   0  0  0  0  0  0  0  0  0  0  0  0
  1  2  1  0
  2  3  2  0
  3  4  1  0
  4  5  1  0
  5  6  1  0
  6  7  2  0
  7  8  1  0
  8  9  2  0
  9 10  1  0
  9 11  1  0
 11 12  2  0
  4 13  2  0
 13 14  1  0
 14 15  2  3
 15 16  1  0
 16 17  1  0
 17 18  1  0
 18 19  1  0
 19 20  1  0
 14 21  1  0
 21 22  2  0
 22 23  1  0
 23 24  1  0
 23  1  1  0
 22  3  1  0
 12  6  1  0
  1 25  1  0
  2 26  1  0
  5 27  1  0
  7 28  1  0
  8 29  1  0
 11 30  1  0
 12 31  1  0
 16 32  1  0
 16 33  1  0
 17 34  1  0
 17 35  1  0
 18 36  1  0
 18 37  1  0
 20 38  1  0
 20 39  1  0
 20 40  1  0
 24 41  1  0
 24 42  1  0
 24 43  1  0
M  END
>  <ScrubInfo>  (7) 
{"isomerGroup": 0, "isomerId": 6, "confId": 0, "nr_conformers:": 1, "nr_isomers:": 9}

$$$$
_i7
     RDKit          3D

 43 45  0  0  0  0  0  0  0  0999 V2000
   -2.9037    0.3180    2.9895 N   0  0  0  0  0  0  0  0  0  0  0  0
   -2.8441   -0.0419    1.6480 C   0  0  0  0  0  0  0  0  0  0  0  0
   -1.5948   -0.2312    1.1995 C   0  0  0  0  0  0  0  0  0  0  0  0
   -0.8721   -0.5623   -0.0417 C   0  0  0  0  0  0  0  0  0  0  0  0
   -1.3423   -0.8406   -1.2226 N   0  0  0  0  0  0  0  0  0  0  0  0
   -2.7189   -0.8657   -1.4566 C   0  0  0  0  0  0  0  0  0  0  0  0
   -3.4380   -2.0546   -1.3048 C   0  0  0  0  0  0  0  0  0  0  0  0
   -4.8114   -2.0893   -1.5600 C   0  0  0  0  0  0  0  0  0  0  0  0
   -5.4637   -0.9315   -1.9837 C   0  0  0  0  0  0  0  0  0  0  0  0
   -7.5063   -0.9767   -2.3612 I   0  0  0  0  0  0  0  0  0  0  0  0
   -4.7519    0.2548   -2.1614 C   0  0  0  0  0  0  0  0  0  0  0  0
   -3.3786    0.2819   -1.9047 C   0  0  0  0  0  0  0  0  0  0  0  0
    0.4880   -0.5560    0.1224 N   0  0  0  0  0  0  0  0  0  0  0  0
    1.1873   -0.2858    1.2716 C   0  0  0  0  0  0  0  0  0  0  0  0
    2.4642   -0.2437    1.4015 N   0  0  0  0  0  0  0  0  0  0  0  0
    3.3555   -0.5159    0.2785 C   0  0  0  0  0  0  0  0  0  0  0  0
    3.6518    0.7809   -0.4723 C   0  0  0  0  0  0  0  0  0  0  0  0
    4.4747    0.5436   -1.7338 C   0  0  0  0  0  0  0  0  0  0  0  0
    5.7141   -0.0704   -1.3934 O   0  0  0  0  0  0  0  0  0  0  0  0
    6.5312   -0.2802   -2.5372 C   0  0  0  0  0  0  0  0  0  0  0  0
    0.5240   -0.0187    2.4513 N   0  0  0  0  0  0  0  0  0  0  0  0
   -0.7708   -0.0059    2.4368 C   0  0  0  0  0  0  0  0  0  0  0  0
   -1.6250    0.2219    3.5180 N   0  0  0  0  0  0  0  0  0  0  0  0
   -1.2352    1.1022    4.6031 C   0  0  0  0  0  0  0  0  0  0  0  0
   -3.6421   -0.1630    3.5083 H   0  0  0  0  0  0  0  0  0  0  0  0
   -3.7725   -0.1314    1.1040 H   0  0  0  0  0  0  0  0  0  0  0  0
   -2.9230   -2.9584   -0.9895 H   0  0  0  0  0  0  0  0  0  0  0  0
   -5.3516   -3.0237   -1.4321 H   0  0  0  0  0  0  0  0  0  0  0  0
   -5.2457    1.1603   -2.5043 H   0  0  0  0  0  0  0  0  0  0  0  0
   -2.8179    1.2007   -2.0554 H   0  0  0  0  0  0  0  0  0  0  0  0
    1.0095   -0.7532   -0.7145 H   0  0  0  0  0  0  0  0  0  0  0  0
    4.2863   -0.9296    0.6836 H   0  0  0  0  0  0  0  0  0  0  0  0
    2.9570   -1.2860   -0.3914 H   0  0  0  0  0  0  0  0  0  0  0  0
    4.1967    1.4568    0.1985 H   0  0  0  0  0  0  0  0  0  0  0  0
    2.7176    1.2847   -0.7465 H   0  0  0  0  0  0  0  0  0  0  0  0
    4.6657    1.5034   -2.2275 H   0  0  0  0  0  0  0  0  0  0  0  0
    3.9231   -0.1028   -2.4265 H   0  0  0  0  0  0  0  0  0  0  0  0
    7.4613   -0.7549   -2.2137 H   0  0  0  0  0  0  0  0  0  0  0  0
    6.0298   -0.9424   -3.2496 H   0  0  0  0  0  0  0  0  0  0  0  0
    6.7734    0.6739   -3.0151 H   0  0  0  0  0  0  0  0  0  0  0  0
   -1.1273    2.1324    4.2483 H   0  0  0  0  0  0  0  0  0  0  0  0
   -1.9894    1.0850    5.3967 H   0  0  0  0  0  0  0  0  0  0  0  0
   -0.2847    0.7796    5.0399 H   0  0  0  0  0  0  0  0  0  0  0  0
  1  2  1  0
  2  3  2  0
  3  4  1  0
  4  5  2  3
  5  6  1  0
  6  7  2  0
  7  8  1  0
  8  9  2  0
  9 10  1  0
  9 11  1  0
 11 12  2  0
  4 13  1  0
 13 14  1  0
 14 15  2  3
 15 16  1  0
 16 17  1  0
 17 18  1  0
 18 19  1  0
 19 20  1  0
 14 21  1  0
 21 22  2  0
 22 23  1  0
 23 24  1  0
 23  1  1  0
 22  3  1  0
 12  6  1  0
  1 25  1  0
  2 26  1  0
  7 27  1  0
  8 28  1  0
 11 29  1  0
 12 30  1  0
 13 31  1  0
 16 32  1  0
 16 33  1  0
 17 34  1  0
 17 35  1  0
 18 36  1  0
 18 37  1  0
 20 38  1  0
 20 39  1  0
 20 40  1  0
 24 41  1  0
 24 42  1  0
 24 43  1  0
M  END
>  <ScrubInfo>  (8) 
{"isomerGroup": 0, "isomerId": 7, "confId": 0, "nr_conformers:": 1, "nr_isomers:": 9}

$$$$
_i8
     RDKit          3D

 43 45  0  0  0  0  0  0  0  0999 V2000
   -0.5447   -1.3415   -0.5307 N   0  0  0  0  0  0  0  0  0  0  0  0
   -0.9718   -0.0988   -0.9672 C   0  0  0  0  0  0  0  0  0  0  0  0
   -2.1431    0.2432   -1.3821 N   0  0  0  0  0  0  0  0  0  0  0  0
   -3.2183   -0.7442   -1.4657 C   0  0  0  0  0  0  0  0  0  0  0  0
   -3.9733   -0.8239   -0.1396 C   0  0  0  0  0  0  0  0  0  0  0  0
   -4.8299    0.4120    0.1177 C   0  0  0  0  0  0  0  0  0  0  0  0
   -5.9252    0.4168   -0.7990 O   0  0  0  0  0  0  0  0  0  0  0  0
   -6.7234    1.5837   -0.6519 C   0  0  0  0  0  0  0  0  0  0  0  0
    0.0151    0.8615   -0.9226 N   0  0  0  0  0  0  0  0  0  0  0  0
    1.3345    0.8089   -0.5286 C   0  0  0  0  0  0  0  0  0  0  0  0
    2.0923    1.8632   -0.5774 N   0  0  0  0  0  0  0  0  0  0  0  0
    3.4311    1.8410   -0.1884 C   0  0  0  0  0  0  0  0  0  0  0  0
    4.4332    1.5731   -1.1253 C   0  0  0  0  0  0  0  0  0  0  0  0
    5.7783    1.5839   -0.7468 C   0  0  0  0  0  0  0  0  0  0  0  0
    6.1215    1.8816    0.5719 C   0  0  0  0  0  0  0  0  0  0  0  0
    8.1200    1.8979    1.1404 I   0  0  0  0  0  0  0  0  0  0  0  0
    5.1317    2.1754    1.5097 C   0  0  0  0  0  0  0  0  0  0  0  0
    3.7886    2.1628    1.1240 C   0  0  0  0  0  0  0  0  0  0  0  0
    1.6871   -0.5299   -0.0857 C   0  0  0  0  0  0  0  0  0  0  0  0
    2.8238   -1.1864    0.4215 C   0  0  0  0  0  0  0  0  0  0  0  0
    2.6019   -2.4820    0.6895 N   0  0  0  0  0  0  0  0  0  0  0  0
    1.3105   -2.6666    0.3417 N   0  0  0  0  0  0  0  0  0  0  0  0
    0.7180   -3.9712    0.4985 C   0  0  0  0  0  0  0  0  0  0  0  0
    0.7305   -1.5230   -0.1155 C   0  0  0  0  0  0  0  0  0  0  0  0
   -1.2276   -2.0861   -0.5194 H   0  0  0  0  0  0  0  0  0  0  0  0
   -2.8400   -1.7333   -1.7475 H   0  0  0  0  0  0  0  0  0  0  0  0
   -3.8951   -0.4505   -2.2761 H   0  0  0  0  0  0  0  0  0  0  0  0
   -3.2682   -0.9556    0.6888 H   0  0  0  0  0  0  0  0  0  0  0  0
   -4.6232   -1.7068   -0.1681 H   0  0  0  0  0  0  0  0  0  0  0  0
   -4.2401    1.3292    0.0091 H   0  0  0  0  0  0  0  0  0  0  0  0
   -5.2272    0.3699    1.1383 H   0  0  0  0  0  0  0  0  0  0  0  0
   -7.1384    1.6394    0.3591 H   0  0  0  0  0  0  0  0  0  0  0  0
   -6.1344    2.4802   -0.8681 H   0  0  0  0  0  0  0  0  0  0  0  0
   -7.5492    1.5282   -1.3662 H   0  0  0  0  0  0  0  0  0  0  0  0
   -0.2852    1.7702   -1.2449 H   0  0  0  0  0  0  0  0  0  0  0  0
    4.1627    1.3560   -2.1553 H   0  0  0  0  0  0  0  0  0  0  0  0
    6.5406    1.3653   -1.4900 H   0  0  0  0  0  0  0  0  0  0  0  0
    5.3866    2.4212    2.5372 H   0  0  0  0  0  0  0  0  0  0  0  0
    3.0154    2.4056    1.8482 H   0  0  0  0  0  0  0  0  0  0  0  0
    3.8124   -0.7950    0.6179 H   0  0  0  0  0  0  0  0  0  0  0  0
    0.3006   -4.0356    1.5061 H   0  0  0  0  0  0  0  0  0  0  0  0
   -0.0665   -4.1061   -0.2496 H   0  0  0  0  0  0  0  0  0  0  0  0
    1.4884   -4.7337    0.3562 H   0  0  0  0  0  0  0  0  0  0  0  0
  1  2  1  0
  2  3  2  3
  3  4  1  0
  4  5  1  0
  5  6  1  0
  6  7  1  0
  7  8  1  0
  2  9  1  0
  9 10  1  0
 10 11  2  3
 11 12  1  0
 12 13  2  0
 13 14  1  0
 14 15  2  0
 15 16  1  0
 15 17  1  0
 17 18  2  0
 10 19  1  0
 19 20  1  0
 20 21  2  0
 21 22  1  0
 22 23  1  0
 22 24  1  0
 24  1  1  0
 18 12  1  0
 24 19  2  0
  1 25  1  0
  4 26  1  0
  4 27  1  0
  5 28  1  0
  5 29  1  0
  6 30  1  0
  6 31  1  0
  8 32  1  0
  8 33  1  0
  8 34  1  0
  9 35  1  0
 13 36  1  0
 14 37  1  0
 17 38  1  0
 18 39  1  0
 20 40  1  0
 23 41  1  0
 23 42  1  0
 23 43  1  0
M  END
>  <ScrubInfo>  (9) 
{"isomerGroup": 0, "isomerId": 8, "confId": 0, "nr_conformers:": 1, "nr_isomers:": 9}

$$$$
