REMARK SMILES COCCCNc1nc(Nc2ccc(I)cc2)c2cnn(C)c2n1
REMARK SMILES IDX 5 1 4 2 3 3 2 4 1 5 6 6 7 8 8 9 24 10 9 11 23 12 18 13 21 14
REMARK SMILES IDX 19 15 20 16 22 17 10 18 11 20 12 21 17 22 13 23 16 24 14 25
REMARK SMILES IDX 15 26
REMARK H PARENT 6 7 10 19
ROOT
ATOM      1  C   UNL     1       2.587   2.040   0.537  1.00  0.00     0.118 C 
ENDROOT
BRANCH   1   2
ATOM      2  C   UNL     1       3.161   1.630  -0.817  1.00  0.00     0.050 C 
BRANCH   2   3
ATOM      3  C   UNL     1       4.445   0.818  -0.698  1.00  0.00     0.161 C 
BRANCH   3   4
ATOM      4  O   UNL     1       4.953   0.591  -2.013  1.00  0.00    -0.385 OA
ATOM      5  C   UNL     1       6.147  -0.181  -1.989  1.00  0.00     0.194 C 
ENDBRANCH   3   4
ENDBRANCH   2   3
ENDBRANCH   1   2
BRANCH   1   6
ATOM      6  N   UNL     1       2.135   0.916   1.339  1.00  0.00    -0.354 N 
ATOM      7  H   UNL     1       2.827   0.223   1.597  1.00  0.00     0.163 HD
BRANCH   6   8
ATOM      8  C   UNL     1       1.002   0.239   0.918  1.00  0.00     0.226 A 
ATOM      9  N   UNL     1       0.040   0.903   0.249  1.00  0.00    -0.195 NA
ATOM     10  N   UNL     1       0.983  -1.063   1.231  1.00  0.00    -0.193 NA
ATOM     11  C   UNL     1      -1.082   0.257  -0.152  1.00  0.00     0.147 A 
ATOM     12  C   UNL     1      -0.124  -1.686   0.797  1.00  0.00     0.165 A 
ATOM     13  C   UNL     1      -1.174  -1.111   0.110  1.00  0.00     0.082 A 
ATOM     14  N   UNL     1      -0.443  -3.009   0.935  1.00  0.00    -0.250 N 
ATOM     15  C   UNL     1      -2.058  -2.181  -0.140  1.00  0.00     0.149 A 
ATOM     16  N   UNL     1      -1.627  -3.341   0.369  1.00  0.00    -0.179 NA
ATOM     17  C   UNL     1       0.338  -4.026   1.591  1.00  0.00     0.176 C 
BRANCH  11  18
ATOM     18  N   UNL     1      -2.035   1.013  -0.852  1.00  0.00    -0.339 N 
ATOM     19  H   UNL     1      -1.678   1.966  -0.892  1.00  0.00     0.168 HD
BRANCH  18  20
ATOM     20  C   UNL     1      -3.436   1.009  -0.690  1.00  0.00     0.040 A 
ATOM     21  C   UNL     1      -4.071   0.577   0.481  1.00  0.00     0.027 A 
ATOM     22  C   UNL     1      -4.225   1.528  -1.725  1.00  0.00     0.027 A 
ATOM     23  C   UNL     1      -5.464   0.625   0.600  1.00  0.00     0.017 A 
ATOM     24  C   UNL     1      -5.618   1.579  -1.613  1.00  0.00     0.017 A 
ATOM     25  C   UNL     1      -6.232   1.123  -0.450  1.00  0.00     0.013 A 
ATOM     26  I   UNL     1      -8.301   1.196  -0.275  1.00  0.00    -0.044 I 
ENDBRANCH  18  20
ENDBRANCH  11  18
ENDBRANCH   6   8
ENDBRANCH   1   6
TORSDOF 7
