_i0
     RDKit          3D

 45 47  0  0  0  0  0  0  0  0999 V2000
    4.0066   -0.6656    1.8506 C   0  0  0  0  0  0  0  0  0  0  0  0
    3.8490    0.3817    0.7857 N   0  0  0  0  0  4  0  0  0  0  0  0
    4.8808    0.2658   -0.2861 C   0  0  0  0  0  0  0  0  0  0  0  0
    3.7227    1.7860    1.3574 C   0  0  0  0  0  0  0  0  0  0  0  0
    2.2623    2.2903    1.3134 C   0  0  0  0  0  0  0  0  0  0  0  0
    1.3409    1.3022    1.8682 N   0  0  0  0  0  0  0  0  0  0  0  0
    0.5741    0.6114    0.9337 C   0  0  0  0  0  0  0  0  0  0  0  0
   -0.7038    0.4277    1.2855 N   0  0  0  0  0  0  0  0  0  0  0  0
    1.1813    0.1534   -0.1803 N   0  0  0  0  0  0  0  0  0  0  0  0
   -1.5472   -0.2473    0.4632 C   0  0  0  0  0  0  0  0  0  0  0  0
    0.3262   -0.5295   -0.9687 C   0  0  0  0  0  0  0  0  0  0  0  0
   -2.8626   -0.4182    0.9061 N   0  0  0  0  0  0  0  0  0  0  0  0
   -1.0127   -0.7760   -0.7150 C   0  0  0  0  0  0  0  0  0  0  0  0
    0.5887   -1.1272   -2.1745 N   0  0  0  0  0  0  0  0  0  0  0  0
   -4.0760   -0.3381    0.1947 C   0  0  0  0  0  0  0  0  0  0  0  0
   -1.4358   -1.5768   -1.7961 C   0  0  0  0  0  0  0  0  0  0  0  0
   -0.4660   -1.7861   -2.6916 N   0  0  0  0  0  0  0  0  0  0  0  0
    1.8326   -1.1285   -2.9016 C   0  0  0  0  0  0  0  0  0  0  0  0
   -4.1930    0.2641   -1.0645 C   0  0  0  0  0  0  0  0  0  0  0  0
   -5.2250   -0.8901    0.7781 C   0  0  0  0  0  0  0  0  0  0  0  0
   -5.4225    0.3049   -1.7301 C   0  0  0  0  0  0  0  0  0  0  0  0
   -6.4509   -0.8489    0.1122 C   0  0  0  0  0  0  0  0  0  0  0  0
   -6.5542   -0.2547   -1.1415 C   0  0  0  0  0  0  0  0  0  0  0  0
   -7.8440   -1.5401    0.8479 Cl  0  0  0  0  0  0  0  0  0  0  0  0
    3.9464   -1.6461    1.3708 H   0  0  0  0  0  0  0  0  0  0  0  0
    3.1965   -0.5572    2.5751 H   0  0  0  0  0  0  0  0  0  0  0  0
    4.9789   -0.5269    2.3311 H   0  0  0  0  0  0  0  0  0  0  0  0
    2.9289    0.1775    0.3493 H   0  0  0  0  0  0  0  0  0  0  0  0
    4.8457   -0.7505   -0.6873 H   0  0  0  0  0  0  0  0  0  0  0  0
    5.8608    0.4818    0.1476 H   0  0  0  0  0  0  0  0  0  0  0  0
    4.6338    0.9823   -1.0741 H   0  0  0  0  0  0  0  0  0  0  0  0
    4.3662    2.4567    0.7777 H   0  0  0  0  0  0  0  0  0  0  0  0
    4.0963    1.7588    2.3873 H   0  0  0  0  0  0  0  0  0  0  0  0
    2.2009    3.2037    1.9169 H   0  0  0  0  0  0  0  0  0  0  0  0
    1.9937    2.5833    0.2901 H   0  0  0  0  0  0  0  0  0  0  0  0
    0.6434    1.6991    2.5018 H   0  0  0  0  0  0  0  0  0  0  0  0
   -2.9530   -0.0406    1.8462 H   0  0  0  0  0  0  0  0  0  0  0  0
   -2.4113   -2.0162   -1.9678 H   0  0  0  0  0  0  0  0  0  0  0  0
    2.5329   -0.4303   -2.4378 H   0  0  0  0  0  0  0  0  0  0  0  0
    1.6351   -0.8192   -3.9312 H   0  0  0  0  0  0  0  0  0  0  0  0
    2.2427   -2.1412   -2.8774 H   0  0  0  0  0  0  0  0  0  0  0  0
   -3.3388    0.7364   -1.5418 H   0  0  0  0  0  0  0  0  0  0  0  0
   -5.1633   -1.3695    1.7521 H   0  0  0  0  0  0  0  0  0  0  0  0
   -5.4981    0.7793   -2.7060 H   0  0  0  0  0  0  0  0  0  0  0  0
   -7.5088   -0.2215   -1.6605 H   0  0  0  0  0  0  0  0  0  0  0  0
  1  2  1  0
  2  3  1  0
  2  4  1  0
  4  5  1  0
  5  6  1  0
  6  7  1  0
  7  8  2  0
  9  7  1  0
  8 10  1  0
 11  9  2  0
 10 12  1  0
 10 13  2  0
 14 11  1  0
 11 13  1  0
 12 15  1  0
 13 16  1  0
 17 14  1  0
 14 18  1  0
 15 19  2  0
 20 15  1  0
 16 17  2  0
 19 21  1  0
 22 20  2  0
 21 23  2  0
 23 22  1  0
 22 24  1  0
  1 25  1  0
  1 26  1  0
  1 27  1  0
  2 28  1  0
  3 29  1  0
  3 30  1  0
  3 31  1  0
  4 32  1  0
  4 33  1  0
  5 34  1  0
  5 35  1  0
  6 36  1  0
 12 37  1  0
 16 38  1  0
 18 39  1  0
 18 40  1  0
 18 41  1  0
 19 42  1  0
 20 43  1  0
 21 44  1  0
 23 45  1  0
M  CHG  1   2   1
M  END
>  <ScrubInfo>  (1) 
{"isomerGroup": 0, "isomerId": 0, "confId": 0, "nr_conformers:": 1, "nr_isomers:": 9}

$$$$
_i1
     RDKit          3D

 45 47  0  0  0  0  0  0  0  0999 V2000
   -0.6828    0.1926   -0.3554 N   0  0  0  0  0  0  0  0  0  0  0  0
   -1.8030    0.9729   -0.6032 C   0  0  0  0  0  0  0  0  0  0  0  0
   -3.0251    0.4187   -0.9359 N   0  0  0  0  0  0  0  0  0  0  0  0
   -3.5699   -0.8181   -0.5322 C   0  0  0  0  0  0  0  0  0  0  0  0
   -4.5977   -1.3795   -1.3056 C   0  0  0  0  0  0  0  0  0  0  0  0
   -5.1381   -2.6306   -0.9925 C   0  0  0  0  0  0  0  0  0  0  0  0
   -4.6498   -3.3466    0.0973 C   0  0  0  0  0  0  0  0  0  0  0  0
   -3.6290   -2.8024    0.8696 C   0  0  0  0  0  0  0  0  0  0  0  0
   -3.0052   -3.6818    2.2112 Cl  0  0  0  0  0  0  0  0  0  0  0  0
   -3.0928   -1.5498    0.5621 C   0  0  0  0  0  0  0  0  0  0  0  0
   -1.5984    2.2943   -0.5440 C   0  0  0  0  0  0  0  0  0  0  0  0
   -2.3796    3.5280   -0.6911 C   0  0  0  0  0  0  0  0  0  0  0  0
   -1.6710    4.6080   -0.4854 N   0  0  0  0  0  0  0  0  0  0  0  0
   -0.3652    4.1605   -0.2335 N   0  0  0  0  0  0  0  0  0  0  0  0
    0.5898    5.0885    0.3236 C   0  0  0  0  0  0  0  0  0  0  0  0
   -0.2424    2.7820   -0.2045 C   0  0  0  0  0  0  0  0  0  0  0  0
    0.7794    2.0366    0.0527 N   0  0  0  0  0  0  0  0  0  0  0  0
    0.5576    0.6837   -0.0345 C   0  0  0  0  0  0  0  0  0  0  0  0
    1.6228    0.0043    0.2050 N   0  0  0  0  0  0  0  0  0  0  0  0
    1.5765   -1.4590    0.1721 C   0  0  0  0  0  0  0  0  0  0  0  0
    2.8946   -1.9558    0.7963 C   0  0  0  0  0  0  0  0  0  0  0  0
    3.9922   -0.9647    0.4454 N   0  0  0  0  0  4  0  0  0  0  0  0
    5.0320   -0.8272    1.5059 C   0  0  0  0  0  0  0  0  0  0  0  0
    4.5687   -1.1634   -0.9184 C   0  0  0  0  0  0  0  0  0  0  0  0
   -0.8058   -0.7868   -0.5592 H   0  0  0  0  0  0  0  0  0  0  0  0
   -3.7313    1.0634   -1.2833 H   0  0  0  0  0  0  0  0  0  0  0  0
   -4.9837   -0.8500   -2.1748 H   0  0  0  0  0  0  0  0  0  0  0  0
   -5.9361   -3.0471   -1.6036 H   0  0  0  0  0  0  0  0  0  0  0  0
   -5.0697   -4.3201    0.3382 H   0  0  0  0  0  0  0  0  0  0  0  0
   -2.3292   -1.1375    1.2146 H   0  0  0  0  0  0  0  0  0  0  0  0
   -3.4509    3.5001   -0.9273 H   0  0  0  0  0  0  0  0  0  0  0  0
    0.4814    5.1385    1.4114 H   0  0  0  0  0  0  0  0  0  0  0  0
    0.4402    6.0926   -0.0866 H   0  0  0  0  0  0  0  0  0  0  0  0
    1.6140    4.7816    0.0891 H   0  0  0  0  0  0  0  0  0  0  0  0
    1.5077   -1.8040   -0.8655 H   0  0  0  0  0  0  0  0  0  0  0  0
    0.7314   -1.8672    0.7374 H   0  0  0  0  0  0  0  0  0  0  0  0
    3.1869   -2.9543    0.4572 H   0  0  0  0  0  0  0  0  0  0  0  0
    2.7993   -1.9538    1.8877 H   0  0  0  0  0  0  0  0  0  0  0  0
    3.4628   -0.0658    0.4104 H   0  0  0  0  0  0  0  0  0  0  0  0
    5.7248   -0.0361    1.2072 H   0  0  0  0  0  0  0  0  0  0  0  0
    4.5366   -0.5486    2.4398 H   0  0  0  0  0  0  0  0  0  0  0  0
    5.5515   -1.7836    1.6083 H   0  0  0  0  0  0  0  0  0  0  0  0
    5.2445   -0.3299   -1.1276 H   0  0  0  0  0  0  0  0  0  0  0  0
    5.1080   -2.1142   -0.9319 H   0  0  0  0  0  0  0  0  0  0  0  0
    3.7540   -1.1686   -1.6465 H   0  0  0  0  0  0  0  0  0  0  0  0
  1  2  1  0
  2  3  1  0
  3  4  1  0
  4  5  2  0
  5  6  1  0
  6  7  2  0
  7  8  1  0
  8  9  1  0
  8 10  2  0
  2 11  2  0
 11 12  1  0
 12 13  2  0
 13 14  1  0
 14 15  1  0
 14 16  1  0
 16 17  2  0
 17 18  1  0
 18 19  2  3
 19 20  1  0
 20 21  1  0
 21 22  1  0
 22 23  1  0
 22 24  1  0
 18  1  1  0
 10  4  1  0
 16 11  1  0
  1 25  1  0
  3 26  1  0
  5 27  1  0
  6 28  1  0
  7 29  1  0
 10 30  1  0
 12 31  1  0
 15 32  1  0
 15 33  1  0
 15 34  1  0
 20 35  1  0
 20 36  1  0
 21 37  1  0
 21 38  1  0
 22 39  1  0
 23 40  1  0
 23 41  1  0
 23 42  1  0
 24 43  1  0
 24 44  1  0
 24 45  1  0
M  CHG  1  22   1
M  END
>  <ScrubInfo>  (2) 
{"isomerGroup": 0, "isomerId": 1, "confId": 0, "nr_conformers:": 1, "nr_isomers:": 9}

$$$$
_i2
     RDKit          3D

 45 47  0  0  0  0  0  0  0  0999 V2000
    0.8024    1.5867   -0.6785 N   0  0  0  0  0  0  0  0  0  0  0  0
   -0.5157    1.3039   -0.9294 C   0  0  0  0  0  0  0  0  0  0  0  0
   -1.2452    2.4015   -1.2985 N   0  0  0  0  0  0  0  0  0  0  0  0
   -2.6258    2.3313   -1.7774 C   0  0  0  0  0  0  0  0  0  0  0  0
   -3.6327    2.1684   -0.6175 C   0  0  0  0  0  0  0  0  0  0  0  0
   -3.5843    0.7778   -0.0143 N   0  0  0  0  0  4  0  0  0  0  0  0
   -4.4637   -0.2053   -0.7213 C   0  0  0  0  0  0  0  0  0  0  0  0
   -3.7986    0.7754    1.4672 C   0  0  0  0  0  0  0  0  0  0  0  0
   -1.0549    0.1170   -0.7766 N   0  0  0  0  0  0  0  0  0  0  0  0
   -0.1189   -0.8068   -0.3975 C   0  0  0  0  0  0  0  0  0  0  0  0
    1.2269   -0.6082   -0.1140 C   0  0  0  0  0  0  0  0  0  0  0  0
    1.7004   -1.8779    0.2583 C   0  0  0  0  0  0  0  0  0  0  0  0
    0.7467   -2.8142    0.2053 N   0  0  0  0  0  0  0  0  0  0  0  0
   -0.3327   -2.1511   -0.2473 N   0  0  0  0  0  0  0  0  0  0  0  0
   -1.5457   -2.8836   -0.5082 C   0  0  0  0  0  0  0  0  0  0  0  0
    1.7820    0.7223   -0.2459 C   0  0  0  0  0  0  0  0  0  0  0  0
    2.9885    1.1354   -0.0146 N   0  0  0  0  0  0  0  0  0  0  0  0
    4.0030    0.2752    0.4108 C   0  0  0  0  0  0  0  0  0  0  0  0
    4.2560    0.1048    1.7758 C   0  0  0  0  0  0  0  0  0  0  0  0
    5.2915   -0.7278    2.2053 C   0  0  0  0  0  0  0  0  0  0  0  0
    6.0906   -1.3817    1.2678 C   0  0  0  0  0  0  0  0  0  0  0  0
    5.8558   -1.1911   -0.0929 C   0  0  0  0  0  0  0  0  0  0  0  0
    6.8476   -1.9879   -1.2507 Cl  0  0  0  0  0  0  0  0  0  0  0  0
    4.8226   -0.3610   -0.5245 C   0  0  0  0  0  0  0  0  0  0  0  0
    1.1250    2.5405   -0.7396 H   0  0  0  0  0  0  0  0  0  0  0  0
   -0.7019    3.0983   -1.8049 H   0  0  0  0  0  0  0  0  0  0  0  0
   -2.7355    1.5379   -2.5246 H   0  0  0  0  0  0  0  0  0  0  0  0
   -2.8497    3.2776   -2.2832 H   0  0  0  0  0  0  0  0  0  0  0  0
   -3.3976    2.8845    0.1782 H   0  0  0  0  0  0  0  0  0  0  0  0
   -4.6599    2.3443   -0.9542 H   0  0  0  0  0  0  0  0  0  0  0  0
   -2.6076    0.4432   -0.1570 H   0  0  0  0  0  0  0  0  0  0  0  0
   -4.2904   -1.1929   -0.2862 H   0  0  0  0  0  0  0  0  0  0  0  0
   -4.1918   -0.2139   -1.7794 H   0  0  0  0  0  0  0  0  0  0  0  0
   -5.5052    0.0993   -0.5879 H   0  0  0  0  0  0  0  0  0  0  0  0
   -3.0374    1.4140    1.9233 H   0  0  0  0  0  0  0  0  0  0  0  0
   -4.8038    1.1523    1.6732 H   0  0  0  0  0  0  0  0  0  0  0  0
   -3.6827   -0.2502    1.8278 H   0  0  0  0  0  0  0  0  0  0  0  0
    2.6905   -2.1828    0.5700 H   0  0  0  0  0  0  0  0  0  0  0  0
   -2.1025   -2.3871   -1.3064 H   0  0  0  0  0  0  0  0  0  0  0  0
   -1.2920   -3.8996   -0.8220 H   0  0  0  0  0  0  0  0  0  0  0  0
   -2.1346   -2.9048    0.4119 H   0  0  0  0  0  0  0  0  0  0  0  0
    3.6470    0.6274    2.5087 H   0  0  0  0  0  0  0  0  0  0  0  0
    5.4813   -0.8593    3.2680 H   0  0  0  0  0  0  0  0  0  0  0  0
    6.8990   -2.0273    1.6024 H   0  0  0  0  0  0  0  0  0  0  0  0
    4.6540   -0.2042   -1.5858 H   0  0  0  0  0  0  0  0  0  0  0  0
  1  2  1  0
  2  3  1  0
  3  4  1  0
  4  5  1  0
  5  6  1  0
  6  7  1  0
  6  8  1  0
  2  9  2  0
  9 10  1  0
 10 11  2  0
 11 12  1  0
 12 13  2  0
 13 14  1  0
 14 15  1  0
 11 16  1  0
 16 17  2  3
 17 18  1  0
 18 19  2  0
 19 20  1  0
 20 21  2  0
 21 22  1  0
 22 23  1  0
 22 24  2  0
 16  1  1  0
 24 18  1  0
 14 10  1  0
  1 25  1  0
  3 26  1  0
  4 27  1  0
  4 28  1  0
  5 29  1  0
  5 30  1  0
  6 31  1  0
  7 32  1  0
  7 33  1  0
  7 34  1  0
  8 35  1  0
  8 36  1  0
  8 37  1  0
 12 38  1  0
 15 39  1  0
 15 40  1  0
 15 41  1  0
 19 42  1  0
 20 43  1  0
 21 44  1  0
 24 45  1  0
M  CHG  1   6   1
M  END
>  <ScrubInfo>  (3) 
{"isomerGroup": 0, "isomerId": 2, "confId": 0, "nr_conformers:": 1, "nr_isomers:": 9}

$$$$
_i3
     RDKit          3D

 45 47  0  0  0  0  0  0  0  0999 V2000
   -0.3058    1.1211    0.4788 N   0  0  0  0  0  0  0  0  0  0  0  0
   -0.5153   -0.2097    0.1576 C   0  0  0  0  0  0  0  0  0  0  0  0
   -1.6228   -0.7413   -0.2189 N   0  0  0  0  0  0  0  0  0  0  0  0
   -2.8350    0.0413   -0.3518 C   0  0  0  0  0  0  0  0  0  0  0  0
   -3.9407   -0.9239   -0.8140 C   0  0  0  0  0  0  0  0  0  0  0  0
   -5.2349   -0.2069   -1.1540 N   0  0  0  0  0  4  0  0  0  0  0  0
   -5.9268    0.3731    0.0470 C   0  0  0  0  0  0  0  0  0  0  0  0
   -6.1601   -1.1186   -1.9199 C   0  0  0  0  0  0  0  0  0  0  0  0
    0.5085   -1.1396    0.2190 N   0  0  0  0  0  0  0  0  0  0  0  0
    1.7054   -0.7659    0.5759 C   0  0  0  0  0  0  0  0  0  0  0  0
    2.7581   -1.6363    0.6869 N   0  0  0  0  0  0  0  0  0  0  0  0
    3.9687   -1.5477   -0.0500 C   0  0  0  0  0  0  0  0  0  0  0  0
    4.1522   -0.6783   -1.1342 C   0  0  0  0  0  0  0  0  0  0  0  0
    5.3695   -0.6384   -1.8212 C   0  0  0  0  0  0  0  0  0  0  0  0
    6.4173   -1.4721   -1.4362 C   0  0  0  0  0  0  0  0  0  0  0  0
    6.2420   -2.3447   -0.3666 C   0  0  0  0  0  0  0  0  0  0  0  0
    7.5301   -3.3798    0.1118 Cl  0  0  0  0  0  0  0  0  0  0  0  0
    5.0290   -2.3871    0.3220 C   0  0  0  0  0  0  0  0  0  0  0  0
    1.9594    0.6030    0.9582 C   0  0  0  0  0  0  0  0  0  0  0  0
    3.0331    1.3592    1.4513 C   0  0  0  0  0  0  0  0  0  0  0  0
    2.6984    2.6436    1.6461 N   0  0  0  0  0  0  0  0  0  0  0  0
    1.3941    2.7022    1.2921 N   0  0  0  0  0  0  0  0  0  0  0  0
    0.7034    3.9624    1.3953 C   0  0  0  0  0  0  0  0  0  0  0  0
    0.9231    1.4935    0.8834 C   0  0  0  0  0  0  0  0  0  0  0  0
   -1.0855    1.7572    0.4408 H   0  0  0  0  0  0  0  0  0  0  0  0
   -2.7041    0.8362   -1.0949 H   0  0  0  0  0  0  0  0  0  0  0  0
   -3.1051    0.4927    0.6085 H   0  0  0  0  0  0  0  0  0  0  0  0
   -4.1660   -1.6773   -0.0501 H   0  0  0  0  0  0  0  0  0  0  0  0
   -3.6167   -1.4402   -1.7257 H   0  0  0  0  0  0  0  0  0  0  0  0
   -5.0015    0.5650   -1.7917 H   0  0  0  0  0  0  0  0  0  0  0  0
   -6.1370   -0.4333    0.7546 H   0  0  0  0  0  0  0  0  0  0  0  0
   -5.2754    1.1287    0.4909 H   0  0  0  0  0  0  0  0  0  0  0  0
   -6.8527    0.8472   -0.2900 H   0  0  0  0  0  0  0  0  0  0  0  0
   -6.4171   -1.9696   -1.2834 H   0  0  0  0  0  0  0  0  0  0  0  0
   -5.6430   -1.4456   -2.8259 H   0  0  0  0  0  0  0  0  0  0  0  0
   -7.0518   -0.5469   -2.1908 H   0  0  0  0  0  0  0  0  0  0  0  0
    2.4219   -2.5952    0.6161 H   0  0  0  0  0  0  0  0  0  0  0  0
    3.3523   -0.0255   -1.4745 H   0  0  0  0  0  0  0  0  0  0  0  0
    5.4992    0.0428   -2.6592 H   0  0  0  0  0  0  0  0  0  0  0  0
    7.3625   -1.4380   -1.9721 H   0  0  0  0  0  0  0  0  0  0  0  0
    4.9157   -3.0685    1.1620 H   0  0  0  0  0  0  0  0  0  0  0  0
    4.0435    1.0412    1.6771 H   0  0  0  0  0  0  0  0  0  0  0  0
    1.2416    4.7019    0.7968 H   0  0  0  0  0  0  0  0  0  0  0  0
   -0.3172    3.8582    1.0212 H   0  0  0  0  0  0  0  0  0  0  0  0
    0.6857    4.2599    2.4467 H   0  0  0  0  0  0  0  0  0  0  0  0
  1  2  1  0
  2  3  2  3
  3  4  1  0
  4  5  1  0
  5  6  1  0
  6  7  1  0
  6  8  1  0
  2  9  1  0
  9 10  2  0
 10 11  1  0
 11 12  1  0
 12 13  2  0
 13 14  1  0
 14 15  2  0
 15 16  1  0
 16 17  1  0
 16 18  2  0
 10 19  1  0
 19 20  1  0
 20 21  2  0
 21 22  1  0
 22 23  1  0
 22 24  1  0
 24  1  1  0
 18 12  1  0
 24 19  2  0
  1 25  1  0
  4 26  1  0
  4 27  1  0
  5 28  1  0
  5 29  1  0
  6 30  1  0
  7 31  1  0
  7 32  1  0
  7 33  1  0
  8 34  1  0
  8 35  1  0
  8 36  1  0
 11 37  1  0
 13 38  1  0
 14 39  1  0
 15 40  1  0
 18 41  1  0
 20 42  1  0
 23 43  1  0
 23 44  1  0
 23 45  1  0
M  CHG  1   6   1
M  END
>  <ScrubInfo>  (4) 
{"isomerGroup": 0, "isomerId": 3, "confId": 0, "nr_conformers:": 1, "nr_isomers:": 9}

$$$$
_i4
     RDKit          3D

 45 47  0  0  0  0  0  0  0  0999 V2000
   -0.1022   -1.5845   -1.4811 N   0  0  0  0  0  0  0  0  0  0  0  0
   -0.3079   -0.8975   -0.3091 C   0  0  0  0  0  0  0  0  0  0  0  0
    0.7233   -0.9510    0.5887 N   0  0  0  0  0  0  0  0  0  0  0  0
    1.9538   -0.2281    0.2677 C   0  0  0  0  0  0  0  0  0  0  0  0
    2.9591   -0.3244    1.4322 C   0  0  0  0  0  0  0  0  0  0  0  0
    4.1326    0.6311    1.2754 N   0  0  0  0  0  4  0  0  0  0  0  0
    5.0302    0.2992    0.1137 C   0  0  0  0  0  0  0  0  0  0  0  0
    4.9259    0.7262    2.5562 C   0  0  0  0  0  0  0  0  0  0  0  0
   -1.3640   -0.2063    0.0107 N   0  0  0  0  0  0  0  0  0  0  0  0
   -2.4204   -0.1391   -0.8925 C   0  0  0  0  0  0  0  0  0  0  0  0
   -3.5046    0.5375   -0.6941 N   0  0  0  0  0  0  0  0  0  0  0  0
   -3.6513    1.2563    0.5002 C   0  0  0  0  0  0  0  0  0  0  0  0
   -3.6714    2.6540    0.4562 C   0  0  0  0  0  0  0  0  0  0  0  0
   -3.8457    3.4017    1.6228 C   0  0  0  0  0  0  0  0  0  0  0  0
   -4.0070    2.7508    2.8450 C   0  0  0  0  0  0  0  0  0  0  0  0
   -4.0042    1.3574    2.8899 C   0  0  0  0  0  0  0  0  0  0  0  0
   -4.1938    0.5531    4.3998 Cl  0  0  0  0  0  0  0  0  0  0  0  0
   -3.8408    0.6098    1.7251 C   0  0  0  0  0  0  0  0  0  0  0  0
   -2.2747   -0.8767   -2.1210 C   0  0  0  0  0  0  0  0  0  0  0  0
   -3.0715   -1.1147   -3.2483 C   0  0  0  0  0  0  0  0  0  0  0  0
   -2.4632   -1.9189   -4.1348 N   0  0  0  0  0  0  0  0  0  0  0  0
   -1.2727   -2.2058   -3.5567 N   0  0  0  0  0  0  0  0  0  0  0  0
   -0.3572   -3.0793   -4.2454 C   0  0  0  0  0  0  0  0  0  0  0  0
   -1.1229   -1.5773   -2.3602 C   0  0  0  0  0  0  0  0  0  0  0  0
    0.6232   -2.2893   -1.4905 H   0  0  0  0  0  0  0  0  0  0  0  0
    0.3199   -0.5792    1.4532 H   0  0  0  0  0  0  0  0  0  0  0  0
    2.3988   -0.6478   -0.6408 H   0  0  0  0  0  0  0  0  0  0  0  0
    1.7153    0.8244    0.0723 H   0  0  0  0  0  0  0  0  0  0  0  0
    3.3636   -1.3382    1.5310 H   0  0  0  0  0  0  0  0  0  0  0  0
    2.4623   -0.0538    2.3712 H   0  0  0  0  0  0  0  0  0  0  0  0
    3.7520    1.5739    1.1092 H   0  0  0  0  0  0  0  0  0  0  0  0
    4.4485    0.3842   -0.8065 H   0  0  0  0  0  0  0  0  0  0  0  0
    5.4133   -0.7158    0.2476 H   0  0  0  0  0  0  0  0  0  0  0  0
    5.8464    1.0264    0.0956 H   0  0  0  0  0  0  0  0  0  0  0  0
    4.2501    1.0546    3.3501 H   0  0  0  0  0  0  0  0  0  0  0  0
    5.7152    1.4687    2.4121 H   0  0  0  0  0  0  0  0  0  0  0  0
    5.3465   -0.2582    2.7782 H   0  0  0  0  0  0  0  0  0  0  0  0
   -3.5615    3.1602   -0.4997 H   0  0  0  0  0  0  0  0  0  0  0  0
   -3.8674    4.4875    1.5745 H   0  0  0  0  0  0  0  0  0  0  0  0
   -4.1476    3.3318    3.7528 H   0  0  0  0  0  0  0  0  0  0  0  0
   -3.8572   -0.4752    1.7621 H   0  0  0  0  0  0  0  0  0  0  0  0
   -4.0669   -0.7453   -3.4625 H   0  0  0  0  0  0  0  0  0  0  0  0
    0.5747   -3.1586   -3.6817 H   0  0  0  0  0  0  0  0  0  0  0  0
   -0.8230   -4.0639   -4.3347 H   0  0  0  0  0  0  0  0  0  0  0  0
   -0.1557   -2.6596   -5.2342 H   0  0  0  0  0  0  0  0  0  0  0  0
  1  2  1  0
  2  3  1  0
  3  4  1  0
  4  5  1  0
  5  6  1  0
  6  7  1  0
  6  8  1  0
  2  9  2  0
  9 10  1  0
 10 11  2  3
 11 12  1  0
 12 13  2  0
 13 14  1  0
 14 15  2  0
 15 16  1  0
 16 17  1  0
 16 18  2  0
 10 19  1  0
 19 20  1  0
 20 21  2  0
 21 22  1  0
 22 23  1  0
 22 24  1  0
 24  1  1  0
 18 12  1  0
 24 19  2  0
  1 25  1  0
  3 26  1  0
  4 27  1  0
  4 28  1  0
  5 29  1  0
  5 30  1  0
  6 31  1  0
  7 32  1  0
  7 33  1  0
  7 34  1  0
  8 35  1  0
  8 36  1  0
  8 37  1  0
 13 38  1  0
 14 39  1  0
 15 40  1  0
 18 41  1  0
 20 42  1  0
 23 43  1  0
 23 44  1  0
 23 45  1  0
M  CHG  1   6   1
M  END
>  <ScrubInfo>  (5) 
{"isomerGroup": 0, "isomerId": 4, "confId": 0, "nr_conformers:": 1, "nr_isomers:": 9}

$$$$
_i5
     RDKit          3D

 45 47  0  0  0  0  0  0  0  0999 V2000
   -1.8418    4.5671   -0.0789 N   0  0  0  0  0  0  0  0  0  0  0  0
   -2.7333    3.5041   -0.1610 C   0  0  0  0  0  0  0  0  0  0  0  0
   -2.1188    2.3148   -0.1586 C   0  0  0  0  0  0  0  0  0  0  0  0
   -2.5015    0.9225   -0.1911 C   0  0  0  0  0  0  0  0  0  0  0  0
   -3.7353    0.5411   -0.2905 N   0  0  0  0  0  0  0  0  0  0  0  0
   -4.0268   -0.8305   -0.3100 C   0  0  0  0  0  0  0  0  0  0  0  0
   -4.4538   -1.4250   -1.5015 C   0  0  0  0  0  0  0  0  0  0  0  0
   -4.7765   -2.7831   -1.5437 C   0  0  0  0  0  0  0  0  0  0  0  0
   -4.6787   -3.5549   -0.3866 C   0  0  0  0  0  0  0  0  0  0  0  0
   -4.2685   -2.9608    0.8061 C   0  0  0  0  0  0  0  0  0  0  0  0
   -4.1398   -3.9143    2.2334 Cl  0  0  0  0  0  0  0  0  0  0  0  0
   -3.9545   -1.6039    0.8520 C   0  0  0  0  0  0  0  0  0  0  0  0
   -1.4487    0.0485   -0.1042 N   0  0  0  0  0  0  0  0  0  0  0  0
   -0.2154    0.4507   -0.0260 C   0  0  0  0  0  0  0  0  0  0  0  0
    0.7133   -0.5467    0.0726 N   0  0  0  0  0  0  0  0  0  0  0  0
    2.0846   -0.3795   -0.3516 C   0  0  0  0  0  0  0  0  0  0  0  0
    2.9836   -1.4133    0.3492 C   0  0  0  0  0  0  0  0  0  0  0  0
    4.4655   -1.1341    0.1466 N   0  0  0  0  0  4  0  0  0  0  0  0
    4.9190   -1.2930   -1.2786 C   0  0  0  0  0  0  0  0  0  0  0  0
    5.3043   -1.9701    1.0792 C   0  0  0  0  0  0  0  0  0  0  0  0
    0.2151    1.7510   -0.0439 N   0  0  0  0  0  0  0  0  0  0  0  0
   -0.6919    2.6657   -0.1191 C   0  0  0  0  0  0  0  0  0  0  0  0
   -0.5496    4.0541   -0.1687 N   0  0  0  0  0  0  0  0  0  0  0  0
    0.5114    4.7285    0.5547 C   0  0  0  0  0  0  0  0  0  0  0  0
   -2.0739    5.3449   -0.7024 H   0  0  0  0  0  0  0  0  0  0  0  0
   -3.7961    3.6961   -0.2195 H   0  0  0  0  0  0  0  0  0  0  0  0
   -4.5410   -0.8197   -2.4000 H   0  0  0  0  0  0  0  0  0  0  0  0
   -5.1110   -3.2337   -2.4747 H   0  0  0  0  0  0  0  0  0  0  0  0
   -4.9328   -4.6111   -0.4183 H   0  0  0  0  0  0  0  0  0  0  0  0
   -3.6488   -1.1410    1.7850 H   0  0  0  0  0  0  0  0  0  0  0  0
    0.2683   -1.4381   -0.1327 H   0  0  0  0  0  0  0  0  0  0  0  0
    2.4516    0.6228   -0.1026 H   0  0  0  0  0  0  0  0  0  0  0  0
    2.1401   -0.4944   -1.4390 H   0  0  0  0  0  0  0  0  0  0  0  0
    2.7839   -2.4299   -0.0087 H   0  0  0  0  0  0  0  0  0  0  0  0
    2.8058   -1.3827    1.4308 H   0  0  0  0  0  0  0  0  0  0  0  0
    4.6310   -0.1537    0.4156 H   0  0  0  0  0  0  0  0  0  0  0  0
    4.7031   -2.3147   -1.6017 H   0  0  0  0  0  0  0  0  0  0  0  0
    5.9925   -1.0890   -1.3187 H   0  0  0  0  0  0  0  0  0  0  0  0
    4.3886   -0.5630   -1.8936 H   0  0  0  0  0  0  0  0  0  0  0  0
    4.9939   -1.7513    2.1043 H   0  0  0  0  0  0  0  0  0  0  0  0
    6.3509   -1.6856    0.9417 H   0  0  0  0  0  0  0  0  0  0  0  0
    5.1482   -3.0246    0.8366 H   0  0  0  0  0  0  0  0  0  0  0  0
    1.4878    4.3229    0.2708 H   0  0  0  0  0  0  0  0  0  0  0  0
    0.3833    4.6086    1.6356 H   0  0  0  0  0  0  0  0  0  0  0  0
    0.5126    5.7980    0.3203 H   0  0  0  0  0  0  0  0  0  0  0  0
  1  2  1  0
  2  3  2  0
  3  4  1  0
  4  5  2  3
  5  6  1  0
  6  7  2  0
  7  8  1  0
  8  9  2  0
  9 10  1  0
 10 11  1  0
 10 12  2  0
  4 13  1  0
 13 14  2  0
 14 15  1  0
 15 16  1  0
 16 17  1  0
 17 18  1  0
 18 19  1  0
 18 20  1  0
 14 21  1  0
 21 22  2  0
 22 23  1  0
 23 24  1  0
 23  1  1  0
 22  3  1  0
 12  6  1  0
  1 25  1  0
  2 26  1  0
  7 27  1  0
  8 28  1  0
  9 29  1  0
 12 30  1  0
 15 31  1  0
 16 32  1  0
 16 33  1  0
 17 34  1  0
 17 35  1  0
 18 36  1  0
 19 37  1  0
 19 38  1  0
 19 39  1  0
 20 40  1  0
 20 41  1  0
 20 42  1  0
 24 43  1  0
 24 44  1  0
 24 45  1  0
M  CHG  1  18   1
M  END
>  <ScrubInfo>  (6) 
{"isomerGroup": 0, "isomerId": 5, "confId": 0, "nr_conformers:": 1, "nr_isomers:": 9}

$$$$
_i6
     RDKit          3D

 45 47  0  0  0  0  0  0  0  0999 V2000
    1.3726    3.9216   -0.6507 N   0  0  0  0  0  0  0  0  0  0  0  0
    2.2787    2.9051   -0.3753 C   0  0  0  0  0  0  0  0  0  0  0  0
    1.6988    1.6996   -0.2967 C   0  0  0  0  0  0  0  0  0  0  0  0
    2.0876    0.3190    0.0088 C   0  0  0  0  0  0  0  0  0  0  0  0
    3.4065    0.0380    0.3120 N   0  0  0  0  0  0  0  0  0  0  0  0
    4.0392   -1.2013    0.5423 C   0  0  0  0  0  0  0  0  0  0  0  0
    3.4277   -2.4468    0.3567 C   0  0  0  0  0  0  0  0  0  0  0  0
    4.1082   -3.6408    0.6274 C   0  0  0  0  0  0  0  0  0  0  0  0
    5.4169   -3.6101    1.0985 C   0  0  0  0  0  0  0  0  0  0  0  0
    6.0374   -2.3832    1.2974 C   0  0  0  0  0  0  0  0  0  0  0  0
    7.6536   -2.3273    1.8857 Cl  0  0  0  0  0  0  0  0  0  0  0  0
    5.3595   -1.1918    1.0262 C   0  0  0  0  0  0  0  0  0  0  0  0
    1.1331   -0.5666   -0.0030 N   0  0  0  0  0  0  0  0  0  0  0  0
   -0.1484   -0.2044   -0.3209 C   0  0  0  0  0  0  0  0  0  0  0  0
   -0.9694   -1.1940   -0.3499 N   0  0  0  0  0  0  0  0  0  0  0  0
   -2.3621   -0.9628   -0.7116 C   0  0  0  0  0  0  0  0  0  0  0  0
   -3.1597   -0.5615    0.5334 C   0  0  0  0  0  0  0  0  0  0  0  0
   -4.6556   -0.4670    0.2947 N   0  0  0  0  0  4  0  0  0  0  0  0
   -5.2999   -1.7903   -0.0052 C   0  0  0  0  0  0  0  0  0  0  0  0
   -5.0381    0.5962   -0.6917 C   0  0  0  0  0  0  0  0  0  0  0  0
   -0.6195    1.0615   -0.5859 N   0  0  0  0  0  0  0  0  0  0  0  0
    0.2801    1.9865   -0.6145 C   0  0  0  0  0  0  0  0  0  0  0  0
    0.1378    3.3418   -0.9121 N   0  0  0  0  0  0  0  0  0  0  0  0
   -1.0637    4.0812   -0.5814 C   0  0  0  0  0  0  0  0  0  0  0  0
    1.7122    4.6068   -1.3324 H   0  0  0  0  0  0  0  0  0  0  0  0
    3.3203    3.1615   -0.2446 H   0  0  0  0  0  0  0  0  0  0  0  0
    4.0475    0.8208    0.3477 H   0  0  0  0  0  0  0  0  0  0  0  0
    2.4109   -2.5274   -0.0163 H   0  0  0  0  0  0  0  0  0  0  0  0
    3.6097   -4.5941    0.4674 H   0  0  0  0  0  0  0  0  0  0  0  0
    5.9415   -4.5384    1.3079 H   0  0  0  0  0  0  0  0  0  0  0  0
    5.8738   -0.2503    1.2017 H   0  0  0  0  0  0  0  0  0  0  0  0
   -2.7466   -1.9042   -1.1175 H   0  0  0  0  0  0  0  0  0  0  0  0
   -2.4662   -0.2281   -1.5180 H   0  0  0  0  0  0  0  0  0  0  0  0
   -3.0186   -1.2884    1.3421 H   0  0  0  0  0  0  0  0  0  0  0  0
   -2.8444    0.4159    0.9152 H   0  0  0  0  0  0  0  0  0  0  0  0
   -5.0424   -0.1687    1.1993 H   0  0  0  0  0  0  0  0  0  0  0  0
   -6.3834   -1.6516    0.0433 H   0  0  0  0  0  0  0  0  0  0  0  0
   -5.0017   -2.1157   -1.0044 H   0  0  0  0  0  0  0  0  0  0  0  0
   -4.9831   -2.5070    0.7566 H   0  0  0  0  0  0  0  0  0  0  0  0
   -6.1233    0.7212   -0.6445 H   0  0  0  0  0  0  0  0  0  0  0  0
   -4.5438    1.5270   -0.4015 H   0  0  0  0  0  0  0  0  0  0  0  0
   -4.7327    0.2819   -1.6926 H   0  0  0  0  0  0  0  0  0  0  0  0
   -1.1871    4.1566    0.5040 H   0  0  0  0  0  0  0  0  0  0  0  0
   -1.0173    5.0925   -0.9982 H   0  0  0  0  0  0  0  0  0  0  0  0
   -1.9465    3.5871   -0.9997 H   0  0  0  0  0  0  0  0  0  0  0  0
  1  2  1  0
  2  3  2  0
  3  4  1  0
  4  5  1  0
  5  6  1  0
  6  7  2  0
  7  8  1  0
  8  9  2  0
  9 10  1  0
 10 11  1  0
 10 12  2  0
  4 13  2  0
 13 14  1  0
 14 15  2  3
 15 16  1  0
 16 17  1  0
 17 18  1  0
 18 19  1  0
 18 20  1  0
 14 21  1  0
 21 22  2  0
 22 23  1  0
 23 24  1  0
 23  1  1  0
 22  3  1  0
 12  6  1  0
  1 25  1  0
  2 26  1  0
  5 27  1  0
  7 28  1  0
  8 29  1  0
  9 30  1  0
 12 31  1  0
 16 32  1  0
 16 33  1  0
 17 34  1  0
 17 35  1  0
 18 36  1  0
 19 37  1  0
 19 38  1  0
 19 39  1  0
 20 40  1  0
 20 41  1  0
 20 42  1  0
 24 43  1  0
 24 44  1  0
 24 45  1  0
M  CHG  1  18   1
M  END
>  <ScrubInfo>  (7) 
{"isomerGroup": 0, "isomerId": 6, "confId": 0, "nr_conformers:": 1, "nr_isomers:": 9}

$$$$
_i7
     RDKit          3D

 45 47  0  0  0  0  0  0  0  0999 V2000
   -2.3907    2.7182   -1.1895 N   0  0  0  0  0  0  0  0  0  0  0  0
   -2.7576    1.5375   -0.5571 C   0  0  0  0  0  0  0  0  0  0  0  0
   -1.7209    0.7267   -0.3039 C   0  0  0  0  0  0  0  0  0  0  0  0
   -1.4340   -0.6003    0.2679 C   0  0  0  0  0  0  0  0  0  0  0  0
   -2.2378   -1.4647    0.8113 N   0  0  0  0  0  0  0  0  0  0  0  0
   -3.6041   -1.1928    0.9334 C   0  0  0  0  0  0  0  0  0  0  0  0
   -4.4968   -1.6196   -0.0548 C   0  0  0  0  0  0  0  0  0  0  0  0
   -5.8652   -1.3725    0.0726 C   0  0  0  0  0  0  0  0  0  0  0  0
   -6.3483   -0.7072    1.1990 C   0  0  0  0  0  0  0  0  0  0  0  0
   -5.4614   -0.3024    2.1952 C   0  0  0  0  0  0  0  0  0  0  0  0
   -6.0555    0.5144    3.5877 Cl  0  0  0  0  0  0  0  0  0  0  0  0
   -4.0951   -0.5489    2.0714 C   0  0  0  0  0  0  0  0  0  0  0  0
   -0.1054   -0.9335    0.1938 N   0  0  0  0  0  0  0  0  0  0  0  0
    0.9066   -0.1689   -0.3205 C   0  0  0  0  0  0  0  0  0  0  0  0
    2.1524   -0.4823   -0.4002 N   0  0  0  0  0  0  0  0  0  0  0  0
    2.6139   -1.7818    0.0921 C   0  0  0  0  0  0  0  0  0  0  0  0
    4.1021   -1.8970   -0.2903 C   0  0  0  0  0  0  0  0  0  0  0  0
    4.7241   -0.5123   -0.2150 N   0  0  0  0  0  4  0  0  0  0  0  0
    5.8142   -0.2957   -1.2105 C   0  0  0  0  0  0  0  0  0  0  0  0
    5.1070   -0.0990    1.1692 C   0  0  0  0  0  0  0  0  0  0  0  0
    0.6712    1.0928   -0.8158 N   0  0  0  0  0  0  0  0  0  0  0  0
   -0.5503    1.5321   -0.8031 C   0  0  0  0  0  0  0  0  0  0  0  0
   -1.0066    2.7787   -1.2349 N   0  0  0  0  0  0  0  0  0  0  0  0
   -0.3724    3.4796   -2.3358 C   0  0  0  0  0  0  0  0  0  0  0  0
   -2.8779    3.5467   -0.8368 H   0  0  0  0  0  0  0  0  0  0  0  0
   -3.8039    1.3815   -0.3378 H   0  0  0  0  0  0  0  0  0  0  0  0
   -4.1246   -2.1523   -0.9263 H   0  0  0  0  0  0  0  0  0  0  0  0
   -6.5539   -1.7061   -0.7002 H   0  0  0  0  0  0  0  0  0  0  0  0
   -7.4145   -0.5185    1.2997 H   0  0  0  0  0  0  0  0  0  0  0  0
   -3.4104   -0.2455    2.8576 H   0  0  0  0  0  0  0  0  0  0  0  0
    0.0995   -1.8457    0.5682 H   0  0  0  0  0  0  0  0  0  0  0  0
    2.5113   -1.8271    1.1821 H   0  0  0  0  0  0  0  0  0  0  0  0
    2.0580   -2.6150   -0.3513 H   0  0  0  0  0  0  0  0  0  0  0  0
    4.1816   -2.2265   -1.3321 H   0  0  0  0  0  0  0  0  0  0  0  0
    4.6641   -2.5810    0.3530 H   0  0  0  0  0  0  0  0  0  0  0  0
    3.9239    0.0972   -0.4920 H   0  0  0  0  0  0  0  0  0  0  0  0
    5.4127   -0.4906   -2.2085 H   0  0  0  0  0  0  0  0  0  0  0  0
    6.1395    0.7458   -1.1422 H   0  0  0  0  0  0  0  0  0  0  0  0
    6.6362   -0.9781   -0.9788 H   0  0  0  0  0  0  0  0  0  0  0  0
    4.2360   -0.2047    1.8205 H   0  0  0  0  0  0  0  0  0  0  0  0
    5.4187    0.9484    1.1382 H   0  0  0  0  0  0  0  0  0  0  0  0
    5.9259   -0.7388    1.5083 H   0  0  0  0  0  0  0  0  0  0  0  0
   -0.4978    2.9263   -3.2723 H   0  0  0  0  0  0  0  0  0  0  0  0
    0.6978    3.6081   -2.1450 H   0  0  0  0  0  0  0  0  0  0  0  0
   -0.8117    4.4750   -2.4576 H   0  0  0  0  0  0  0  0  0  0  0  0
  1  2  1  0
  2  3  2  0
  3  4  1  0
  4  5  2  3
  5  6  1  0
  6  7  2  0
  7  8  1  0
  8  9  2  0
  9 10  1  0
 10 11  1  0
 10 12  2  0
  4 13  1  0
 13 14  1  0
 14 15  2  3
 15 16  1  0
 16 17  1  0
 17 18  1  0
 18 19  1  0
 18 20  1  0
 14 21  1  0
 21 22  2  0
 22 23  1  0
 23 24  1  0
 23  1  1  0
 22  3  1  0
 12  6  1  0
  1 25  1  0
  2 26  1  0
  7 27  1  0
  8 28  1  0
  9 29  1  0
 12 30  1  0
 13 31  1  0
 16 32  1  0
 16 33  1  0
 17 34  1  0
 17 35  1  0
 18 36  1  0
 19 37  1  0
 19 38  1  0
 19 39  1  0
 20 40  1  0
 20 41  1  0
 20 42  1  0
 24 43  1  0
 24 44  1  0
 24 45  1  0
M  CHG  1  18   1
M  END
>  <ScrubInfo>  (8) 
{"isomerGroup": 0, "isomerId": 7, "confId": 0, "nr_conformers:": 1, "nr_isomers:": 9}

$$$$
_i8
     RDKit          3D

 45 47  0  0  0  0  0  0  0  0999 V2000
   -0.2584    1.7989    0.2026 N   0  0  0  0  0  0  0  0  0  0  0  0
    0.0201    0.4740   -0.1027 C   0  0  0  0  0  0  0  0  0  0  0  0
   -0.8160   -0.4644   -0.4018 N   0  0  0  0  0  0  0  0  0  0  0  0
   -2.2430   -0.1755   -0.4368 C   0  0  0  0  0  0  0  0  0  0  0  0
   -2.9725   -1.4825   -0.7938 C   0  0  0  0  0  0  0  0  0  0  0  0
   -4.4596   -1.2756   -1.0171 N   0  0  0  0  0  4  0  0  0  0  0  0
   -5.2096   -0.9325    0.2399 C   0  0  0  0  0  0  0  0  0  0  0  0
   -5.0692   -2.4776   -1.6942 C   0  0  0  0  0  0  0  0  0  0  0  0
    1.3656    0.1636   -0.0686 N   0  0  0  0  0  0  0  0  0  0  0  0
    2.4696    0.9404    0.2282 C   0  0  0  0  0  0  0  0  0  0  0  0
    3.7264    0.6502    0.2761 N   0  0  0  0  0  0  0  0  0  0  0  0
    4.1193   -0.6633   -0.0049 C   0  0  0  0  0  0  0  0  0  0  0  0
    4.5759   -0.9958   -1.2835 C   0  0  0  0  0  0  0  0  0  0  0  0
    4.9733   -2.3017   -1.5764 C   0  0  0  0  0  0  0  0  0  0  0  0
    4.9208   -3.2816   -0.5854 C   0  0  0  0  0  0  0  0  0  0  0  0
    4.4816   -2.9465    0.6946 C   0  0  0  0  0  0  0  0  0  0  0  0
    4.4110   -4.1555    1.9165 Cl  0  0  0  0  0  0  0  0  0  0  0  0
    4.0887   -1.6425    0.9906 C   0  0  0  0  0  0  0  0  0  0  0  0
    2.0747    2.2945    0.5273 C   0  0  0  0  0  0  0  0  0  0  0  0
    2.7565    3.4683    0.8777 C   0  0  0  0  0  0  0  0  0  0  0  0
    1.9210    4.5012    1.0587 N   0  0  0  0  0  0  0  0  0  0  0  0
    0.6956    3.9799    0.8229 N   0  0  0  0  0  0  0  0  0  0  0  0
   -0.4516    4.8447    0.9362 C   0  0  0  0  0  0  0  0  0  0  0  0
    0.7488    2.6557    0.5009 C   0  0  0  0  0  0  0  0  0  0  0  0
   -1.2205    2.1026    0.1945 H   0  0  0  0  0  0  0  0  0  0  0  0
   -2.4618    0.5861   -1.1942 H   0  0  0  0  0  0  0  0  0  0  0  0
   -2.5795    0.1870    0.5402 H   0  0  0  0  0  0  0  0  0  0  0  0
   -2.8534   -2.2396   -0.0099 H   0  0  0  0  0  0  0  0  0  0  0  0
   -2.5645   -1.8839   -1.7291 H   0  0  0  0  0  0  0  0  0  0  0  0
   -4.5685   -0.4922   -1.6743 H   0  0  0  0  0  0  0  0  0  0  0  0
   -5.0628   -1.7361    0.9663 H   0  0  0  0  0  0  0  0  0  0  0  0
   -4.8311    0.0185    0.6203 H   0  0  0  0  0  0  0  0  0  0  0  0
   -6.2676   -0.8247   -0.0141 H   0  0  0  0  0  0  0  0  0  0  0  0
   -4.9582   -3.3427   -1.0349 H   0  0  0  0  0  0  0  0  0  0  0  0
   -4.5479   -2.6348   -2.6422 H   0  0  0  0  0  0  0  0  0  0  0  0
   -6.1236   -2.2611   -1.8850 H   0  0  0  0  0  0  0  0  0  0  0  0
    1.5680   -0.7992   -0.2944 H   0  0  0  0  0  0  0  0  0  0  0  0
    4.6348   -0.2273   -2.0509 H   0  0  0  0  0  0  0  0  0  0  0  0
    5.3358   -2.5505   -2.5711 H   0  0  0  0  0  0  0  0  0  0  0  0
    5.2367   -4.2970   -0.8120 H   0  0  0  0  0  0  0  0  0  0  0  0
    3.7676   -1.3797    1.9947 H   0  0  0  0  0  0  0  0  0  0  0  0
    3.8214    3.6168    1.0088 H   0  0  0  0  0  0  0  0  0  0  0  0
   -0.3353    5.6667    0.2253 H   0  0  0  0  0  0  0  0  0  0  0  0
   -1.3631    4.2880    0.7105 H   0  0  0  0  0  0  0  0  0  0  0  0
   -0.4953    5.2267    1.9593 H   0  0  0  0  0  0  0  0  0  0  0  0
  1  2  1  0
  2  3  2  3
  3  4  1  0
  4  5  1  0
  5  6  1  0
  6  7  1  0
  6  8  1  0
  2  9  1  0
  9 10  1  0
 10 11  2  3
 11 12  1  0
 12 13  2  0
 13 14  1  0
 14 15  2  0
 15 16  1  0
 16 17  1  0
 16 18  2  0
 10 19  1  0
 19 20  1  0
 20 21  2  0
 21 22  1  0
 22 23  1  0
 22 24  1  0
 24  1  1  0
 18 12  1  0
 24 19  2  0
  1 25  1  0
  4 26  1  0
  4 27  1  0
  5 28  1  0
  5 29  1  0
  6 30  1  0
  7 31  1  0
  7 32  1  0
  7 33  1  0
  8 34  1  0
  8 35  1  0
  8 36  1  0
  9 37  1  0
 13 38  1  0
 14 39  1  0
 15 40  1  0
 18 41  1  0
 20 42  1  0
 23 43  1  0
 23 44  1  0
 23 45  1  0
M  CHG  1   6   1
M  END
>  <ScrubInfo>  (9) 
{"isomerGroup": 0, "isomerId": 8, "confId": 0, "nr_conformers:": 1, "nr_isomers:": 9}

$$$$
