REMARK SMILES Cn1ncc2c(Nc3cccc(Cl)c3)nc(NCC[NH+](C)C)nc21
REMARK SMILES IDX 17 1 18 3 19 4 20 5 21 6 22 7 16 9 15 10 23 11 6 12 24 13
REMARK SMILES IDX 5 14 2 15 4 16 3 17 1 18 7 19 8 21 9 22 14 23 10 24 12 25
REMARK SMILES IDX 11 26 13 27
REMARK H PARENT 17 2 20 8 7 20
ROOT
ATOM      1  N   UNL     1       1.341   1.302   1.868  1.00  0.00    -0.348 N 
ATOM      2  H   UNL     1       0.643   1.699   2.502  1.00  0.00     0.163 HD
ENDROOT
BRANCH   1   3
ATOM      3  C   UNL     1       2.262   2.290   1.313  1.00  0.00     0.177 C 
BRANCH   3   4
ATOM      4  C   UNL     1       3.723   1.786   1.357  1.00  0.00     0.283 C 
BRANCH   4   5
ATOM      5  N   UNL     1       3.849   0.382   0.786  1.00  0.00    -0.338 N 
ATOM      6  C   UNL     1       4.007  -0.666   1.851  1.00  0.00     0.332 C 
ATOM      7  C   UNL     1       4.881   0.266  -0.286  1.00  0.00     0.332 C 
ATOM      8  H   UNL     1       2.929   0.177   0.349  1.00  0.00     0.347 HD
ENDBRANCH   4   5
ENDBRANCH   3   4
ENDBRANCH   1   3
BRANCH   1   9
ATOM      9  C   UNL     1       0.574   0.611   0.934  1.00  0.00     0.226 A 
ATOM     10  N   UNL     1      -0.704   0.428   1.286  1.00  0.00    -0.195 NA
ATOM     11  N   UNL     1       1.181   0.153  -0.180  1.00  0.00    -0.193 NA
ATOM     12  C   UNL     1      -1.547  -0.247   0.463  1.00  0.00     0.147 A 
ATOM     13  C   UNL     1       0.326  -0.529  -0.969  1.00  0.00     0.165 A 
ATOM     14  C   UNL     1      -1.013  -0.776  -0.715  1.00  0.00     0.082 A 
ATOM     15  N   UNL     1       0.589  -1.127  -2.175  1.00  0.00    -0.250 N 
ATOM     16  C   UNL     1      -1.436  -1.577  -1.796  1.00  0.00     0.149 A 
ATOM     17  N   UNL     1      -0.466  -1.786  -2.692  1.00  0.00    -0.179 NA
ATOM     18  C   UNL     1       1.833  -1.129  -2.902  1.00  0.00     0.176 C 
BRANCH  12  19
ATOM     19  N   UNL     1      -2.863  -0.418   0.906  1.00  0.00    -0.339 N 
ATOM     20  H   UNL     1      -2.953  -0.041   1.846  1.00  0.00     0.168 HD
BRANCH  19  21
ATOM     21  C   UNL     1      -4.076  -0.338   0.195  1.00  0.00     0.041 A 
ATOM     22  C   UNL     1      -4.193   0.264  -1.065  1.00  0.00     0.026 A 
ATOM     23  C   UNL     1      -5.225  -0.890   0.778  1.00  0.00     0.046 A 
ATOM     24  C   UNL     1      -5.423   0.305  -1.730  1.00  0.00     0.004 A 
ATOM     25  C   UNL     1      -6.451  -0.849   0.112  1.00  0.00     0.043 A 
ATOM     26  C   UNL     1      -6.554  -0.255  -1.141  1.00  0.00     0.020 A 
ATOM     27  Cl  UNL     1      -7.844  -1.540   0.848  1.00  0.00    -0.084 Cl
ENDBRANCH  19  21
ENDBRANCH  12  19
ENDBRANCH   1   9
TORSDOF 6
