_i0
     RDKit          3D

 46 48  0  0  0  0  0  0  0  0999 V2000
   -5.1267    1.5258    2.6055 C   0  0  0  0  0  0  0  0  0  0  0  0
   -4.5462    1.9669    1.2666 C   0  0  0  0  0  0  0  0  0  0  0  0
   -5.4701    1.5489    0.1274 C   0  0  0  0  0  0  0  0  0  0  0  0
   -3.2696    1.3350    1.1360 O   0  0  0  0  0  0  0  0  0  0  0  0
   -2.4011    1.9969    0.2067 C   0  0  0  0  0  0  0  0  0  0  0  0
   -1.0736    1.2327    0.1376 C   0  0  0  0  0  0  0  0  0  0  0  0
   -1.3098   -0.0992   -0.4087 N   0  0  0  0  0  0  0  0  0  0  0  0
   -0.2155   -0.9512   -0.3327 C   0  0  0  0  0  0  0  0  0  0  0  0
    1.0222   -0.4547   -0.5268 N   0  0  0  0  0  0  0  0  0  0  0  0
    2.1146   -1.2594   -0.4777 C   0  0  0  0  0  0  0  0  0  0  0  0
    3.4095   -0.7579   -0.6681 N   0  0  0  0  0  0  0  0  0  0  0  0
    3.9045    0.5250   -0.9809 C   0  0  0  0  0  0  0  0  0  0  0  0
    3.0791    1.6024   -1.3266 C   0  0  0  0  0  0  0  0  0  0  0  0
    3.6102    2.8690   -1.6067 C   0  0  0  0  0  0  0  0  0  0  0  0
    2.5019    4.1316   -2.0159 Cl  0  0  0  0  0  0  0  0  0  0  0  0
    4.9907    3.0775   -1.5488 C   0  0  0  0  0  0  0  0  0  0  0  0
    5.7131    4.6109   -1.8808 Cl  0  0  0  0  0  0  0  0  0  0  0  0
    5.8359    2.0212   -1.2133 C   0  0  0  0  0  0  0  0  0  0  0  0
    5.2954    0.7638   -0.9332 C   0  0  0  0  0  0  0  0  0  0  0  0
    6.3897   -0.5147   -0.5184 Cl  0  0  0  0  0  0  0  0  0  0  0  0
    1.8882   -2.6144   -0.2073 C   0  0  0  0  0  0  0  0  0  0  0  0
    2.6380   -3.7996   -0.0532 C   0  0  0  0  0  0  0  0  0  0  0  0
    1.8770   -4.8674    0.2106 N   0  0  0  0  0  0  0  0  0  0  0  0
    0.6226   -4.3579    0.2197 N   0  0  0  0  0  0  0  0  0  0  0  0
   -0.4965   -5.2308    0.4706 C   0  0  0  0  0  0  0  0  0  0  0  0
    0.5789   -3.0121   -0.0221 C   0  0  0  0  0  0  0  0  0  0  0  0
   -0.5082   -2.2300   -0.0719 N   0  0  0  0  0  0  0  0  0  0  0  0
   -5.2307    0.4359    2.6498 H   0  0  0  0  0  0  0  0  0  0  0  0
   -6.1059    1.9801    2.7849 H   0  0  0  0  0  0  0  0  0  0  0  0
   -4.4558    1.8107    3.4234 H   0  0  0  0  0  0  0  0  0  0  0  0
   -4.4271    3.0571    1.2793 H   0  0  0  0  0  0  0  0  0  0  0  0
   -5.5282    0.4575    0.0515 H   0  0  0  0  0  0  0  0  0  0  0  0
   -6.4799    1.9462    0.2706 H   0  0  0  0  0  0  0  0  0  0  0  0
   -5.0998    1.9122   -0.8360 H   0  0  0  0  0  0  0  0  0  0  0  0
   -2.2151    3.0191    0.5544 H   0  0  0  0  0  0  0  0  0  0  0  0
   -2.8643    2.0324   -0.7846 H   0  0  0  0  0  0  0  0  0  0  0  0
   -0.6536    1.1566    1.1486 H   0  0  0  0  0  0  0  0  0  0  0  0
   -0.3774    1.7905   -0.4987 H   0  0  0  0  0  0  0  0  0  0  0  0
   -2.0792   -0.5796    0.0528 H   0  0  0  0  0  0  0  0  0  0  0  0
    4.1437   -1.4425   -0.5211 H   0  0  0  0  0  0  0  0  0  0  0  0
    2.0039    1.4711   -1.3967 H   0  0  0  0  0  0  0  0  0  0  0  0
    6.9111    2.1751   -1.1675 H   0  0  0  0  0  0  0  0  0  0  0  0
    3.7096   -3.9338   -0.1216 H   0  0  0  0  0  0  0  0  0  0  0  0
   -1.4294   -4.6638    0.4374 H   0  0  0  0  0  0  0  0  0  0  0  0
   -0.3691   -5.6768    1.4602 H   0  0  0  0  0  0  0  0  0  0  0  0
   -0.5069   -6.0062   -0.2996 H   0  0  0  0  0  0  0  0  0  0  0  0
  1  2  1  0
  2  3  1  0
  2  4  1  0
  4  5  1  0
  5  6  1  0
  6  7  1  0
  7  8  1  0
  8  9  2  0
  9 10  1  0
 10 11  1  0
 11 12  1  0
 12 13  2  0
 13 14  1  0
 14 15  1  0
 14 16  2  0
 16 17  1  0
 16 18  1  0
 18 19  2  0
 19 20  1  0
 10 21  2  0
 21 22  1  0
 22 23  2  0
 23 24  1  0
 24 25  1  0
 24 26  1  0
 26 27  2  0
 27  8  1  0
 19 12  1  0
 26 21  1  0
  1 28  1  0
  1 29  1  0
  1 30  1  0
  2 31  1  0
  3 32  1  0
  3 33  1  0
  3 34  1  0
  5 35  1  0
  5 36  1  0
  6 37  1  0
  6 38  1  0
  7 39  1  0
 11 40  1  0
 13 41  1  0
 18 42  1  0
 22 43  1  0
 25 44  1  0
 25 45  1  0
 25 46  1  0
M  END
>  <ScrubInfo>  (1) 
{"isomerGroup": 0, "isomerId": 0, "confId": 0, "nr_conformers:": 1, "nr_isomers:": 9}

$$$$
_i1
     RDKit          3D

 46 48  0  0  0  0  0  0  0  0999 V2000
    0.4573    0.8728    0.2137 N   0  0  0  0  0  0  0  0  0  0  0  0
    1.6562    0.6653   -0.4333 C   0  0  0  0  0  0  0  0  0  0  0  0
    2.4212    1.7269   -0.8726 N   0  0  0  0  0  0  0  0  0  0  0  0
    3.7405    2.0642   -0.4691 C   0  0  0  0  0  0  0  0  0  0  0  0
    4.5006    1.2614    0.3943 C   0  0  0  0  0  0  0  0  0  0  0  0
    5.8240    1.5951    0.7165 C   0  0  0  0  0  0  0  0  0  0  0  0
    6.6719    0.5479    1.7985 Cl  0  0  0  0  0  0  0  0  0  0  0  0
    6.4135    2.7379    0.1681 C   0  0  0  0  0  0  0  0  0  0  0  0
    8.0379    3.2050    0.5218 Cl  0  0  0  0  0  0  0  0  0  0  0  0
    5.6803    3.5461   -0.6996 C   0  0  0  0  0  0  0  0  0  0  0  0
    4.3625    3.2081   -1.0161 C   0  0  0  0  0  0  0  0  0  0  0  0
    3.4957    4.2490   -2.0945 Cl  0  0  0  0  0  0  0  0  0  0  0  0
    1.9591   -0.6178   -0.6658 C   0  0  0  0  0  0  0  0  0  0  0  0
    3.0033   -1.3797   -1.3581 C   0  0  0  0  0  0  0  0  0  0  0  0
    2.8105   -2.6736   -1.3072 N   0  0  0  0  0  0  0  0  0  0  0  0
    1.6442   -2.8503   -0.5420 N   0  0  0  0  0  0  0  0  0  0  0  0
    0.9741   -4.1279   -0.5864 C   0  0  0  0  0  0  0  0  0  0  0  0
    1.0339   -1.6617   -0.1737 C   0  0  0  0  0  0  0  0  0  0  0  0
   -0.0803   -1.4482    0.4406 N   0  0  0  0  0  0  0  0  0  0  0  0
   -0.3853   -0.1202    0.6435 C   0  0  0  0  0  0  0  0  0  0  0  0
   -1.4732    0.2230    1.2468 N   0  0  0  0  0  0  0  0  0  0  0  0
   -2.3877   -0.8368    1.6922 C   0  0  0  0  0  0  0  0  0  0  0  0
   -3.2981   -1.3110    0.5498 C   0  0  0  0  0  0  0  0  0  0  0  0
   -4.1329   -0.2673    0.0356 O   0  0  0  0  0  0  0  0  0  0  0  0
   -5.2956    0.0067    0.8184 C   0  0  0  0  0  0  0  0  0  0  0  0
   -5.6810    1.4581    0.5581 C   0  0  0  0  0  0  0  0  0  0  0  0
   -6.4292   -0.9260    0.4038 C   0  0  0  0  0  0  0  0  0  0  0  0
    0.1597    1.8138    0.4194 H   0  0  0  0  0  0  0  0  0  0  0  0
    1.8743    2.5693   -1.0516 H   0  0  0  0  0  0  0  0  0  0  0  0
    4.0697    0.3747    0.8519 H   0  0  0  0  0  0  0  0  0  0  0  0
    6.1333    4.4358   -1.1307 H   0  0  0  0  0  0  0  0  0  0  0  0
    3.8304   -0.8743   -1.8727 H   0  0  0  0  0  0  0  0  0  0  0  0
    1.7012   -4.9456   -0.6222 H   0  0  0  0  0  0  0  0  0  0  0  0
    0.3353   -4.1928   -1.4728 H   0  0  0  0  0  0  0  0  0  0  0  0
    0.3523   -4.2733    0.3028 H   0  0  0  0  0  0  0  0  0  0  0  0
   -2.9895   -0.4169    2.5044 H   0  0  0  0  0  0  0  0  0  0  0  0
   -1.8475   -1.6860    2.1275 H   0  0  0  0  0  0  0  0  0  0  0  0
   -2.6924   -1.6661   -0.2900 H   0  0  0  0  0  0  0  0  0  0  0  0
   -3.9099   -2.1564    0.8824 H   0  0  0  0  0  0  0  0  0  0  0  0
   -5.0881   -0.1129    1.8870 H   0  0  0  0  0  0  0  0  0  0  0  0
   -5.8739    1.6304   -0.5067 H   0  0  0  0  0  0  0  0  0  0  0  0
   -6.5714    1.7425    1.1271 H   0  0  0  0  0  0  0  0  0  0  0  0
   -4.8594    2.1255    0.8405 H   0  0  0  0  0  0  0  0  0  0  0  0
   -6.1739   -1.9705    0.6074 H   0  0  0  0  0  0  0  0  0  0  0  0
   -6.6212   -0.8541   -0.6725 H   0  0  0  0  0  0  0  0  0  0  0  0
   -7.3527   -0.6900    0.9417 H   0  0  0  0  0  0  0  0  0  0  0  0
  1  2  1  0
  2  3  1  0
  3  4  1  0
  4  5  2  0
  5  6  1  0
  6  7  1  0
  6  8  2  0
  8  9  1  0
  8 10  1  0
 10 11  2  0
 11 12  1  0
  2 13  2  0
 13 14  1  0
 14 15  2  0
 15 16  1  0
 16 17  1  0
 16 18  1  0
 18 19  2  0
 19 20  1  0
 20 21  2  3
 21 22  1  0
 22 23  1  0
 23 24  1  0
 24 25  1  0
 25 26  1  0
 25 27  1  0
 20  1  1  0
 11  4  1  0
 18 13  1  0
  1 28  1  0
  3 29  1  0
  5 30  1  0
 10 31  1  0
 14 32  1  0
 17 33  1  0
 17 34  1  0
 17 35  1  0
 22 36  1  0
 22 37  1  0
 23 38  1  0
 23 39  1  0
 25 40  1  0
 26 41  1  0
 26 42  1  0
 26 43  1  0
 27 44  1  0
 27 45  1  0
 27 46  1  0
M  END
>  <ScrubInfo>  (2) 
{"isomerGroup": 0, "isomerId": 1, "confId": 0, "nr_conformers:": 1, "nr_isomers:": 9}

$$$$
_i2
     RDKit          3D

 46 48  0  0  0  0  0  0  0  0999 V2000
   -0.6094    0.1249   -0.4409 N   0  0  0  0  0  0  0  0  0  0  0  0
    0.6062   -0.4662   -0.1935 C   0  0  0  0  0  0  0  0  0  0  0  0
    1.6618    0.3105   -0.5838 N   0  0  0  0  0  0  0  0  0  0  0  0
    3.0297   -0.0656   -0.2325 C   0  0  0  0  0  0  0  0  0  0  0  0
    4.0076    0.9423   -0.8435 C   0  0  0  0  0  0  0  0  0  0  0  0
    3.6843    2.2506   -0.3517 O   0  0  0  0  0  0  0  0  0  0  0  0
    4.5130    3.2827   -0.8964 C   0  0  0  0  0  0  0  0  0  0  0  0
    5.8613    3.3248   -0.1850 C   0  0  0  0  0  0  0  0  0  0  0  0
    3.7699    4.5991   -0.6987 C   0  0  0  0  0  0  0  0  0  0  0  0
    0.7393   -1.6542    0.3369 N   0  0  0  0  0  0  0  0  0  0  0  0
   -0.4670   -2.2147    0.6323 C   0  0  0  0  0  0  0  0  0  0  0  0
   -1.7361   -1.6954    0.4237 C   0  0  0  0  0  0  0  0  0  0  0  0
   -2.6006   -2.6928    0.9068 C   0  0  0  0  0  0  0  0  0  0  0  0
   -1.9493   -3.7593    1.3860 N   0  0  0  0  0  0  0  0  0  0  0  0
   -0.6468   -3.4400    1.2099 N   0  0  0  0  0  0  0  0  0  0  0  0
    0.3714   -4.3739    1.6200 C   0  0  0  0  0  0  0  0  0  0  0  0
   -1.8604   -0.3883   -0.1910 C   0  0  0  0  0  0  0  0  0  0  0  0
   -2.9387    0.2637   -0.5060 N   0  0  0  0  0  0  0  0  0  0  0  0
   -4.2218   -0.2295   -0.2387 C   0  0  0  0  0  0  0  0  0  0  0  0
   -4.8955   -0.9259   -1.2488 C   0  0  0  0  0  0  0  0  0  0  0  0
   -6.1981   -1.3920   -1.0471 C   0  0  0  0  0  0  0  0  0  0  0  0
   -6.9515   -2.2532   -2.3411 Cl  0  0  0  0  0  0  0  0  0  0  0  0
   -6.8450   -1.1513    0.1705 C   0  0  0  0  0  0  0  0  0  0  0  0
   -8.4521   -1.6990    0.4884 Cl  0  0  0  0  0  0  0  0  0  0  0  0
   -6.1909   -0.4405    1.1793 C   0  0  0  0  0  0  0  0  0  0  0  0
   -4.8905    0.0250    0.9720 C   0  0  0  0  0  0  0  0  0  0  0  0
   -4.1287    0.9108    2.2451 Cl  0  0  0  0  0  0  0  0  0  0  0  0
   -0.6103    0.9988   -0.9401 H   0  0  0  0  0  0  0  0  0  0  0  0
    1.5338    1.3101   -0.4427 H   0  0  0  0  0  0  0  0  0  0  0  0
    3.2591   -1.0703   -0.6032 H   0  0  0  0  0  0  0  0  0  0  0  0
    3.1307   -0.0575    0.8589 H   0  0  0  0  0  0  0  0  0  0  0  0
    5.0295    0.6732   -0.5603 H   0  0  0  0  0  0  0  0  0  0  0  0
    3.9200    0.9352   -1.9361 H   0  0  0  0  0  0  0  0  0  0  0  0
    4.6554    3.1206   -1.9716 H   0  0  0  0  0  0  0  0  0  0  0  0
    6.4605    4.1764   -0.5224 H   0  0  0  0  0  0  0  0  0  0  0  0
    5.7291    3.3946    0.9003 H   0  0  0  0  0  0  0  0  0  0  0  0
    6.4370    2.4138   -0.3749 H   0  0  0  0  0  0  0  0  0  0  0  0
    2.7942    4.5636   -1.1955 H   0  0  0  0  0  0  0  0  0  0  0  0
    3.5749    4.7855    0.3634 H   0  0  0  0  0  0  0  0  0  0  0  0
    4.3367    5.4422   -1.1053 H   0  0  0  0  0  0  0  0  0  0  0  0
   -3.6797   -2.7139    0.9392 H   0  0  0  0  0  0  0  0  0  0  0  0
    0.2278   -4.5963    2.6805 H   0  0  0  0  0  0  0  0  0  0  0  0
    1.3629   -3.9429    1.4657 H   0  0  0  0  0  0  0  0  0  0  0  0
    0.2641   -5.2822    1.0217 H   0  0  0  0  0  0  0  0  0  0  0  0
   -4.3940   -1.0986   -2.1985 H   0  0  0  0  0  0  0  0  0  0  0  0
   -6.6936   -0.2450    2.1235 H   0  0  0  0  0  0  0  0  0  0  0  0
  1  2  1  0
  2  3  1  0
  3  4  1  0
  4  5  1  0
  5  6  1  0
  6  7  1  0
  7  8  1  0
  7  9  1  0
  2 10  2  0
 10 11  1  0
 11 12  2  0
 12 13  1  0
 13 14  2  0
 14 15  1  0
 15 16  1  0
 12 17  1  0
 17 18  2  3
 18 19  1  0
 19 20  2  0
 20 21  1  0
 21 22  1  0
 21 23  2  0
 23 24  1  0
 23 25  1  0
 25 26  2  0
 26 27  1  0
 17  1  1  0
 26 19  1  0
 15 11  1  0
  1 28  1  0
  3 29  1  0
  4 30  1  0
  4 31  1  0
  5 32  1  0
  5 33  1  0
  7 34  1  0
  8 35  1  0
  8 36  1  0
  8 37  1  0
  9 38  1  0
  9 39  1  0
  9 40  1  0
 13 41  1  0
 16 42  1  0
 16 43  1  0
 16 44  1  0
 20 45  1  0
 25 46  1  0
M  END
>  <ScrubInfo>  (3) 
{"isomerGroup": 0, "isomerId": 2, "confId": 0, "nr_conformers:": 1, "nr_isomers:": 9}

$$$$
_i3
     RDKit          3D

 46 48  0  0  0  0  0  0  0  0999 V2000
   -0.0736   -2.0155    0.5267 N   0  0  0  0  0  0  0  0  0  0  0  0
    0.4800   -0.9503   -0.1487 C   0  0  0  0  0  0  0  0  0  0  0  0
    1.6337   -1.1215   -0.7035 N   0  0  0  0  0  0  0  0  0  0  0  0
    2.2452    0.0064   -1.4164 C   0  0  0  0  0  0  0  0  0  0  0  0
    2.9890    0.9433   -0.4536 C   0  0  0  0  0  0  0  0  0  0  0  0
    4.0635    0.2959    0.2360 O   0  0  0  0  0  0  0  0  0  0  0  0
    5.2628    0.1521   -0.5260 C   0  0  0  0  0  0  0  0  0  0  0  0
    6.0115   -1.0502    0.0369 C   0  0  0  0  0  0  0  0  0  0  0  0
    6.1112    1.4133   -0.3976 C   0  0  0  0  0  0  0  0  0  0  0  0
   -0.1675    0.2745   -0.2381 N   0  0  0  0  0  0  0  0  0  0  0  0
   -1.3334    0.4163    0.3323 C   0  0  0  0  0  0  0  0  0  0  0  0
   -2.0270    1.6023    0.2803 N   0  0  0  0  0  0  0  0  0  0  0  0
   -3.3935    1.7081   -0.0978 C   0  0  0  0  0  0  0  0  0  0  0  0
   -4.1815    2.6122    0.6350 C   0  0  0  0  0  0  0  0  0  0  0  0
   -5.5258    2.8276    0.3128 C   0  0  0  0  0  0  0  0  0  0  0  0
   -6.4190    3.9337    1.2929 Cl  0  0  0  0  0  0  0  0  0  0  0  0
   -6.0949    2.1592   -0.7738 C   0  0  0  0  0  0  0  0  0  0  0  0
   -7.7455    2.3749   -1.2333 Cl  0  0  0  0  0  0  0  0  0  0  0  0
   -5.3140    1.2935   -1.5421 C   0  0  0  0  0  0  0  0  0  0  0  0
   -3.9691    1.0808   -1.2197 C   0  0  0  0  0  0  0  0  0  0  0  0
   -3.0616    0.0666   -2.2837 Cl  0  0  0  0  0  0  0  0  0  0  0  0
   -1.9267   -0.6612    1.0937 C   0  0  0  0  0  0  0  0  0  0  0  0
   -3.0630   -0.8836    1.8864 C   0  0  0  0  0  0  0  0  0  0  0  0
   -3.1098   -2.1321    2.3773 N   0  0  0  0  0  0  0  0  0  0  0  0
   -1.9761   -2.7086    1.9057 N   0  0  0  0  0  0  0  0  0  0  0  0
   -1.6841   -4.0758    2.2531 C   0  0  0  0  0  0  0  0  0  0  0  0
   -1.2509   -1.8493    1.1454 C   0  0  0  0  0  0  0  0  0  0  0  0
    0.5068   -2.8434    0.5514 H   0  0  0  0  0  0  0  0  0  0  0  0
    2.9433   -0.4179   -2.1448 H   0  0  0  0  0  0  0  0  0  0  0  0
    1.5076    0.5686   -2.0015 H   0  0  0  0  0  0  0  0  0  0  0  0
    2.3026    1.3101    0.3162 H   0  0  0  0  0  0  0  0  0  0  0  0
    3.3604    1.8203   -0.9942 H   0  0  0  0  0  0  0  0  0  0  0  0
    5.0389   -0.0390   -1.5808 H   0  0  0  0  0  0  0  0  0  0  0  0
    5.3943   -1.9519   -0.0406 H   0  0  0  0  0  0  0  0  0  0  0  0
    6.2354   -0.9130    1.1007 H   0  0  0  0  0  0  0  0  0  0  0  0
    6.9492   -1.2232   -0.5001 H   0  0  0  0  0  0  0  0  0  0  0  0
    7.0682    1.3010   -0.9165 H   0  0  0  0  0  0  0  0  0  0  0  0
    6.3072    1.6476    0.6546 H   0  0  0  0  0  0  0  0  0  0  0  0
    5.5942    2.2802   -0.8205 H   0  0  0  0  0  0  0  0  0  0  0  0
   -1.4844    2.2537   -0.2856 H   0  0  0  0  0  0  0  0  0  0  0  0
   -3.7419    3.1387    1.4813 H   0  0  0  0  0  0  0  0  0  0  0  0
   -5.7505    0.7926   -2.4039 H   0  0  0  0  0  0  0  0  0  0  0  0
   -3.8637   -0.2019    2.1390 H   0  0  0  0  0  0  0  0  0  0  0  0
   -1.5314   -4.1301    3.3338 H   0  0  0  0  0  0  0  0  0  0  0  0
   -2.5325   -4.6970    1.9549 H   0  0  0  0  0  0  0  0  0  0  0  0
   -0.7837   -4.4083    1.7325 H   0  0  0  0  0  0  0  0  0  0  0  0
  1  2  1  0
  2  3  2  3
  3  4  1  0
  4  5  1  0
  5  6  1  0
  6  7  1  0
  7  8  1  0
  7  9  1  0
  2 10  1  0
 10 11  2  0
 11 12  1  0
 12 13  1  0
 13 14  2  0
 14 15  1  0
 15 16  1  0
 15 17  2  0
 17 18  1  0
 17 19  1  0
 19 20  2  0
 20 21  1  0
 11 22  1  0
 22 23  1  0
 23 24  2  0
 24 25  1  0
 25 26  1  0
 25 27  1  0
 27  1  1  0
 20 13  1  0
 27 22  2  0
  1 28  1  0
  4 29  1  0
  4 30  1  0
  5 31  1  0
  5 32  1  0
  7 33  1  0
  8 34  1  0
  8 35  1  0
  8 36  1  0
  9 37  1  0
  9 38  1  0
  9 39  1  0
 12 40  1  0
 14 41  1  0
 19 42  1  0
 23 43  1  0
 26 44  1  0
 26 45  1  0
 26 46  1  0
M  END
>  <ScrubInfo>  (4) 
{"isomerGroup": 0, "isomerId": 3, "confId": 0, "nr_conformers:": 1, "nr_isomers:": 9}

$$$$
_i4
     RDKit          3D

 46 48  0  0  0  0  0  0  0  0999 V2000
   -2.4441   -2.9205    1.4351 N   0  0  0  0  0  0  0  0  0  0  0  0
   -2.7756   -1.6338    1.0238 C   0  0  0  0  0  0  0  0  0  0  0  0
   -1.7589   -0.9797    0.4409 C   0  0  0  0  0  0  0  0  0  0  0  0
   -1.4884    0.3016   -0.1977 C   0  0  0  0  0  0  0  0  0  0  0  0
   -2.2362    1.3438   -0.3490 N   0  0  0  0  0  0  0  0  0  0  0  0
   -3.5378    1.3930    0.1641 C   0  0  0  0  0  0  0  0  0  0  0  0
   -4.6027    1.1500   -0.7113 C   0  0  0  0  0  0  0  0  0  0  0  0
   -5.9255    1.2287   -0.2670 C   0  0  0  0  0  0  0  0  0  0  0  0
   -7.1778    0.8906   -1.4074 Cl  0  0  0  0  0  0  0  0  0  0  0  0
   -6.1948    1.5683    1.0635 C   0  0  0  0  0  0  0  0  0  0  0  0
   -7.8033    1.6738    1.6844 Cl  0  0  0  0  0  0  0  0  0  0  0  0
   -5.1423    1.8330    1.9426 C   0  0  0  0  0  0  0  0  0  0  0  0
   -3.8220    1.7525    1.4934 C   0  0  0  0  0  0  0  0  0  0  0  0
   -2.5592    2.0842    2.6249 Cl  0  0  0  0  0  0  0  0  0  0  0  0
   -0.2340    0.3985   -0.7348 N   0  0  0  0  0  0  0  0  0  0  0  0
    0.6640   -0.5310   -0.6311 C   0  0  0  0  0  0  0  0  0  0  0  0
    1.9033   -0.3705   -1.1774 N   0  0  0  0  0  0  0  0  0  0  0  0
    2.1834    0.6200   -2.2054 C   0  0  0  0  0  0  0  0  0  0  0  0
    3.6884    0.7072   -2.4984 C   0  0  0  0  0  0  0  0  0  0  0  0
    4.4007    1.6355   -1.6767 O   0  0  0  0  0  0  0  0  0  0  0  0
    4.4464    1.3506   -0.2766 C   0  0  0  0  0  0  0  0  0  0  0  0
    5.2712    0.1022    0.0206 C   0  0  0  0  0  0  0  0  0  0  0  0
    5.0828    2.5662    0.3925 C   0  0  0  0  0  0  0  0  0  0  0  0
    0.4909   -1.7316    0.0018 N   0  0  0  0  0  0  0  0  0  0  0  0
   -0.6580   -1.9578    0.5361 C   0  0  0  0  0  0  0  0  0  0  0  0
   -1.0812   -3.0855    1.2402 N   0  0  0  0  0  0  0  0  0  0  0  0
   -0.5655   -4.4040    0.9269 C   0  0  0  0  0  0  0  0  0  0  0  0
   -2.7952   -3.1532    2.3676 H   0  0  0  0  0  0  0  0  0  0  0  0
   -3.7832   -1.2914    1.2014 H   0  0  0  0  0  0  0  0  0  0  0  0
   -4.3864    0.9059   -1.7495 H   0  0  0  0  0  0  0  0  0  0  0  0
   -5.3488    2.1066    2.9746 H   0  0  0  0  0  0  0  0  0  0  0  0
    2.4057   -1.2462   -1.2437 H   0  0  0  0  0  0  0  0  0  0  0  0
    1.6613    0.3157   -3.1195 H   0  0  0  0  0  0  0  0  0  0  0  0
    1.8110    1.6047   -1.9016 H   0  0  0  0  0  0  0  0  0  0  0  0
    3.8072    1.0832   -3.5209 H   0  0  0  0  0  0  0  0  0  0  0  0
    4.1741   -0.2740   -2.4723 H   0  0  0  0  0  0  0  0  0  0  0  0
    3.4338    1.2461    0.1236 H   0  0  0  0  0  0  0  0  0  0  0  0
    4.7825   -0.7976   -0.3645 H   0  0  0  0  0  0  0  0  0  0  0  0
    6.2546    0.1597   -0.4585 H   0  0  0  0  0  0  0  0  0  0  0  0
    5.4113   -0.0324    1.0979 H   0  0  0  0  0  0  0  0  0  0  0  0
    4.5011    3.4688    0.1750 H   0  0  0  0  0  0  0  0  0  0  0  0
    6.0934    2.7430    0.0075 H   0  0  0  0  0  0  0  0  0  0  0  0
    5.1372    2.4415    1.4783 H   0  0  0  0  0  0  0  0  0  0  0  0
   -0.9428   -5.1408    1.6435 H   0  0  0  0  0  0  0  0  0  0  0  0
   -0.8680   -4.7110   -0.0797 H   0  0  0  0  0  0  0  0  0  0  0  0
    0.5277   -4.4136    0.9827 H   0  0  0  0  0  0  0  0  0  0  0  0
  1  2  1  0
  2  3  2  0
  3  4  1  0
  4  5  2  3
  5  6  1  0
  6  7  2  0
  7  8  1  0
  8  9  1  0
  8 10  2  0
 10 11  1  0
 10 12  1  0
 12 13  2  0
 13 14  1  0
  4 15  1  0
 15 16  2  0
 16 17  1  0
 17 18  1  0
 18 19  1  0
 19 20  1  0
 20 21  1  0
 21 22  1  0
 21 23  1  0
 16 24  1  0
 24 25  2  0
 25 26  1  0
 26 27  1  0
 26  1  1  0
 25  3  1  0
 13  6  1  0
  1 28  1  0
  2 29  1  0
  7 30  1  0
 12 31  1  0
 17 32  1  0
 18 33  1  0
 18 34  1  0
 19 35  1  0
 19 36  1  0
 21 37  1  0
 22 38  1  0
 22 39  1  0
 22 40  1  0
 23 41  1  0
 23 42  1  0
 23 43  1  0
 27 44  1  0
 27 45  1  0
 27 46  1  0
M  END
>  <ScrubInfo>  (5) 
{"isomerGroup": 0, "isomerId": 4, "confId": 0, "nr_conformers:": 1, "nr_isomers:": 9}

$$$$
_i5
     RDKit          3D

 46 48  0  0  0  0  0  0  0  0999 V2000
   -0.2742   -1.4695    0.0213 N   0  0  0  0  0  0  0  0  0  0  0  0
    0.1743   -0.4174   -0.7350 C   0  0  0  0  0  0  0  0  0  0  0  0
    1.4790   -0.4941   -1.1291 N   0  0  0  0  0  0  0  0  0  0  0  0
    2.5539   -0.6887   -0.1605 C   0  0  0  0  0  0  0  0  0  0  0  0
    3.9113   -0.7824   -0.8660 C   0  0  0  0  0  0  0  0  0  0  0  0
    4.9586   -1.0245    0.0751 O   0  0  0  0  0  0  0  0  0  0  0  0
    5.5168    0.1606    0.6513 C   0  0  0  0  0  0  0  0  0  0  0  0
    6.1018   -0.2287    2.0035 C   0  0  0  0  0  0  0  0  0  0  0  0
    6.6070    0.7164   -0.2593 C   0  0  0  0  0  0  0  0  0  0  0  0
   -0.5382    0.6086   -1.1026 N   0  0  0  0  0  0  0  0  0  0  0  0
   -1.8718    0.6963   -0.7233 C   0  0  0  0  0  0  0  0  0  0  0  0
   -2.4986    1.7605   -1.1140 N   0  0  0  0  0  0  0  0  0  0  0  0
   -3.8496    1.9963   -0.8421 C   0  0  0  0  0  0  0  0  0  0  0  0
   -4.1774    2.8023    0.2545 C   0  0  0  0  0  0  0  0  0  0  0  0
   -5.5101    3.1147    0.5382 C   0  0  0  0  0  0  0  0  0  0  0  0
   -5.8268    4.1010    1.9204 Cl  0  0  0  0  0  0  0  0  0  0  0  0
   -6.5310    2.6312   -0.2880 C   0  0  0  0  0  0  0  0  0  0  0  0
   -8.1986    2.9736    0.0051 Cl  0  0  0  0  0  0  0  0  0  0  0  0
   -6.2161    1.8431   -1.3973 C   0  0  0  0  0  0  0  0  0  0  0  0
   -4.8827    1.5351   -1.6774 C   0  0  0  0  0  0  0  0  0  0  0  0
   -4.5474    0.5606   -3.0642 Cl  0  0  0  0  0  0  0  0  0  0  0  0
   -2.3993   -0.4040    0.0674 C   0  0  0  0  0  0  0  0  0  0  0  0
   -3.6200   -0.7750    0.6586 C   0  0  0  0  0  0  0  0  0  0  0  0
   -3.5572   -1.9565    1.2920 N   0  0  0  0  0  0  0  0  0  0  0  0
   -2.2784   -2.3540    1.1050 N   0  0  0  0  0  0  0  0  0  0  0  0
   -1.8466   -3.6106    1.6620 C   0  0  0  0  0  0  0  0  0  0  0  0
   -1.5644   -1.4437    0.3941 C   0  0  0  0  0  0  0  0  0  0  0  0
    0.3113   -2.2929    0.0610 H   0  0  0  0  0  0  0  0  0  0  0  0
    1.6642    0.3196   -1.7155 H   0  0  0  0  0  0  0  0  0  0  0  0
    2.5568    0.1395    0.5571 H   0  0  0  0  0  0  0  0  0  0  0  0
    2.3970   -1.6042    0.4217 H   0  0  0  0  0  0  0  0  0  0  0  0
    4.1120    0.1116   -1.4671 H   0  0  0  0  0  0  0  0  0  0  0  0
    3.8982   -1.6336   -1.5561 H   0  0  0  0  0  0  0  0  0  0  0  0
    4.7382    0.9155    0.8103 H   0  0  0  0  0  0  0  0  0  0  0  0
    5.3207   -0.6440    2.6498 H   0  0  0  0  0  0  0  0  0  0  0  0
    6.8653   -1.0069    1.8938 H   0  0  0  0  0  0  0  0  0  0  0  0
    6.5485    0.6336    2.5078 H   0  0  0  0  0  0  0  0  0  0  0  0
    7.0927    1.5875    0.1914 H   0  0  0  0  0  0  0  0  0  0  0  0
    6.1962    1.0185   -1.2277 H   0  0  0  0  0  0  0  0  0  0  0  0
    7.3689   -0.0434   -0.4656 H   0  0  0  0  0  0  0  0  0  0  0  0
   -3.3782    3.1912    0.8818 H   0  0  0  0  0  0  0  0  0  0  0  0
   -7.0065    1.4728   -2.0460 H   0  0  0  0  0  0  0  0  0  0  0  0
   -4.5672   -0.2558    0.6684 H   0  0  0  0  0  0  0  0  0  0  0  0
   -2.3839   -4.4139    1.1519 H   0  0  0  0  0  0  0  0  0  0  0  0
   -2.0778   -3.6140    2.7304 H   0  0  0  0  0  0  0  0  0  0  0  0
   -0.7710   -3.7323    1.5191 H   0  0  0  0  0  0  0  0  0  0  0  0
  1  2  1  0
  2  3  1  0
  3  4  1  0
  4  5  1  0
  5  6  1  0
  6  7  1  0
  7  8  1  0
  7  9  1  0
  2 10  2  0
 10 11  1  0
 11 12  2  3
 12 13  1  0
 13 14  2  0
 14 15  1  0
 15 16  1  0
 15 17  2  0
 17 18  1  0
 17 19  1  0
 19 20  2  0
 20 21  1  0
 11 22  1  0
 22 23  1  0
 23 24  2  0
 24 25  1  0
 25 26  1  0
 25 27  1  0
 27  1  1  0
 20 13  1  0
 27 22  2  0
  1 28  1  0
  3 29  1  0
  4 30  1  0
  4 31  1  0
  5 32  1  0
  5 33  1  0
  7 34  1  0
  8 35  1  0
  8 36  1  0
  8 37  1  0
  9 38  1  0
  9 39  1  0
  9 40  1  0
 14 41  1  0
 19 42  1  0
 23 43  1  0
 26 44  1  0
 26 45  1  0
 26 46  1  0
M  END
>  <ScrubInfo>  (6) 
{"isomerGroup": 0, "isomerId": 5, "confId": 0, "nr_conformers:": 1, "nr_isomers:": 9}

$$$$
_i6
     RDKit          3D

 46 48  0  0  0  0  0  0  0  0999 V2000
   -1.3890   -2.5928    0.2030 N   0  0  0  0  0  0  0  0  0  0  0  0
   -2.2090   -1.5107    0.5038 C   0  0  0  0  0  0  0  0  0  0  0  0
   -1.5630   -0.3375    0.4646 C   0  0  0  0  0  0  0  0  0  0  0  0
   -1.8397    1.0864    0.6454 C   0  0  0  0  0  0  0  0  0  0  0  0
   -3.0754    1.6077    0.9739 N   0  0  0  0  0  0  0  0  0  0  0  0
   -4.2943    1.1494    0.4178 C   0  0  0  0  0  0  0  0  0  0  0  0
   -5.3583    0.9321    1.3083 C   0  0  0  0  0  0  0  0  0  0  0  0
   -6.6161    0.5282    0.8476 C   0  0  0  0  0  0  0  0  0  0  0  0
   -7.8497    0.2485    2.0232 Cl  0  0  0  0  0  0  0  0  0  0  0  0
   -6.8347    0.3658   -0.5228 C   0  0  0  0  0  0  0  0  0  0  0  0
   -8.3577   -0.1341   -1.1651 Cl  0  0  0  0  0  0  0  0  0  0  0  0
   -5.8012    0.6225   -1.4257 C   0  0  0  0  0  0  0  0  0  0  0  0
   -4.5447    1.0263   -0.9623 C   0  0  0  0  0  0  0  0  0  0  0  0
   -3.3477    1.3939   -2.1526 Cl  0  0  0  0  0  0  0  0  0  0  0  0
   -0.8541    1.9300    0.5110 N   0  0  0  0  0  0  0  0  0  0  0  0
    0.3923    1.4577    0.1640 C   0  0  0  0  0  0  0  0  0  0  0  0
    1.2635    2.3876   -0.0087 N   0  0  0  0  0  0  0  0  0  0  0  0
    2.6244    2.0077   -0.3903 C   0  0  0  0  0  0  0  0  0  0  0  0
    3.4609    1.6518    0.8419 C   0  0  0  0  0  0  0  0  0  0  0  0
    4.7594    1.1793    0.4698 O   0  0  0  0  0  0  0  0  0  0  0  0
    4.7967   -0.2136    0.1464 C   0  0  0  0  0  0  0  0  0  0  0  0
    4.9782   -1.0390    1.4164 C   0  0  0  0  0  0  0  0  0  0  0  0
    5.9757   -0.4250   -0.7960 C   0  0  0  0  0  0  0  0  0  0  0  0
    0.7629    0.1404    0.0143 N   0  0  0  0  0  0  0  0  0  0  0  0
   -0.1684   -0.7346    0.1722 C   0  0  0  0  0  0  0  0  0  0  0  0
   -0.0828   -2.1255    0.1069 N   0  0  0  0  0  0  0  0  0  0  0  0
    0.8338   -2.7742   -0.8117 C   0  0  0  0  0  0  0  0  0  0  0  0
   -1.5336   -3.3997    0.8151 H   0  0  0  0  0  0  0  0  0  0  0  0
   -3.2475   -1.6936    0.7368 H   0  0  0  0  0  0  0  0  0  0  0  0
   -3.0230    2.6258    0.9295 H   0  0  0  0  0  0  0  0  0  0  0  0
   -5.1946    1.0657    2.3769 H   0  0  0  0  0  0  0  0  0  0  0  0
   -5.9778    0.5205   -2.4946 H   0  0  0  0  0  0  0  0  0  0  0  0
    3.0915    2.8626   -0.8946 H   0  0  0  0  0  0  0  0  0  0  0  0
    2.6392    1.2113   -1.1436 H   0  0  0  0  0  0  0  0  0  0  0  0
    3.6080    2.5559    1.4435 H   0  0  0  0  0  0  0  0  0  0  0  0
    2.9555    0.9269    1.4885 H   0  0  0  0  0  0  0  0  0  0  0  0
    3.8792   -0.5195   -0.3686 H   0  0  0  0  0  0  0  0  0  0  0  0
    5.0804   -2.1038    1.1848 H   0  0  0  0  0  0  0  0  0  0  0  0
    4.1247   -0.9187    2.0908 H   0  0  0  0  0  0  0  0  0  0  0  0
    5.8649   -0.7130    1.9713 H   0  0  0  0  0  0  0  0  0  0  0  0
    5.8519    0.1803   -1.7006 H   0  0  0  0  0  0  0  0  0  0  0  0
    6.9149   -0.1061   -0.3304 H   0  0  0  0  0  0  0  0  0  0  0  0
    6.0678   -1.4750   -1.0900 H   0  0  0  0  0  0  0  0  0  0  0  0
    1.8571   -2.4214   -0.6476 H   0  0  0  0  0  0  0  0  0  0  0  0
    0.5541   -2.5688   -1.8502 H   0  0  0  0  0  0  0  0  0  0  0  0
    0.8251   -3.8579   -0.6563 H   0  0  0  0  0  0  0  0  0  0  0  0
  1  2  1  0
  2  3  2  0
  3  4  1  0
  4  5  1  0
  5  6  1  0
  6  7  2  0
  7  8  1  0
  8  9  1  0
  8 10  2  0
 10 11  1  0
 10 12  1  0
 12 13  2  0
 13 14  1  0
  4 15  2  0
 15 16  1  0
 16 17  2  3
 17 18  1  0
 18 19  1  0
 19 20  1  0
 20 21  1  0
 21 22  1  0
 21 23  1  0
 16 24  1  0
 24 25  2  0
 25 26  1  0
 26 27  1  0
 26  1  1  0
 25  3  1  0
 13  6  1  0
  1 28  1  0
  2 29  1  0
  5 30  1  0
  7 31  1  0
 12 32  1  0
 18 33  1  0
 18 34  1  0
 19 35  1  0
 19 36  1  0
 21 37  1  0
 22 38  1  0
 22 39  1  0
 22 40  1  0
 23 41  1  0
 23 42  1  0
 23 43  1  0
 27 44  1  0
 27 45  1  0
 27 46  1  0
M  END
>  <ScrubInfo>  (7) 
{"isomerGroup": 0, "isomerId": 6, "confId": 0, "nr_conformers:": 1, "nr_isomers:": 9}

$$$$
_i7
     RDKit          3D

 46 48  0  0  0  0  0  0  0  0999 V2000
   -2.0283   -3.1682    3.6219 N   0  0  0  0  0  0  0  0  0  0  0  0
   -2.7680   -2.2453    2.8913 C   0  0  0  0  0  0  0  0  0  0  0  0
   -2.0883   -1.7370    1.8565 C   0  0  0  0  0  0  0  0  0  0  0  0
   -2.2971   -0.7511    0.7954 C   0  0  0  0  0  0  0  0  0  0  0  0
   -3.4531   -0.1625    0.6989 N   0  0  0  0  0  0  0  0  0  0  0  0
   -3.6662    0.7991   -0.3025 C   0  0  0  0  0  0  0  0  0  0  0  0
   -4.3420    0.4072   -1.4630 C   0  0  0  0  0  0  0  0  0  0  0  0
   -4.6086    1.3286   -2.4802 C   0  0  0  0  0  0  0  0  0  0  0  0
   -5.4337    0.7561   -3.8853 Cl  0  0  0  0  0  0  0  0  0  0  0  0
   -4.2054    2.6611   -2.3379 C   0  0  0  0  0  0  0  0  0  0  0  0
   -4.4940    3.8503   -3.5567 Cl  0  0  0  0  0  0  0  0  0  0  0  0
   -3.5417    3.0684   -1.1785 C   0  0  0  0  0  0  0  0  0  0  0  0
   -3.2798    2.1441   -0.1646 C   0  0  0  0  0  0  0  0  0  0  0  0
   -2.4551    2.6987    1.2481 Cl  0  0  0  0  0  0  0  0  0  0  0  0
   -1.1826   -0.5800    0.0094 N   0  0  0  0  0  0  0  0  0  0  0  0
    0.0254   -1.2266    0.1508 C   0  0  0  0  0  0  0  0  0  0  0  0
    1.0779   -1.0351   -0.5599 N   0  0  0  0  0  0  0  0  0  0  0  0
    1.0857   -0.0409   -1.6314 C   0  0  0  0  0  0  0  0  0  0  0  0
    2.5353    0.2885   -2.0000 C   0  0  0  0  0  0  0  0  0  0  0  0
    3.0362    1.2718   -1.0880 O   0  0  0  0  0  0  0  0  0  0  0  0
    4.4395    1.5048   -1.2255 C   0  0  0  0  0  0  0  0  0  0  0  0
    4.7156    2.9069   -0.6951 C   0  0  0  0  0  0  0  0  0  0  0  0
    5.2273    0.4724   -0.4253 C   0  0  0  0  0  0  0  0  0  0  0  0
    0.2046   -2.2004    1.1137 N   0  0  0  0  0  0  0  0  0  0  0  0
   -0.7806   -2.4559    1.9139 C   0  0  0  0  0  0  0  0  0  0  0  0
   -0.8299   -3.3949    2.9479 N   0  0  0  0  0  0  0  0  0  0  0  0
    0.3603   -3.7161    3.7130 C   0  0  0  0  0  0  0  0  0  0  0  0
   -2.5607   -4.0002    3.8851 H   0  0  0  0  0  0  0  0  0  0  0  0
   -3.7806   -2.0134    3.1897 H   0  0  0  0  0  0  0  0  0  0  0  0
   -4.6669   -0.6265   -1.5624 H   0  0  0  0  0  0  0  0  0  0  0  0
   -3.2330    4.1048   -1.0619 H   0  0  0  0  0  0  0  0  0  0  0  0
   -1.2337    0.1091   -0.7182 H   0  0  0  0  0  0  0  0  0  0  0  0
    0.5817   -0.4660   -2.5063 H   0  0  0  0  0  0  0  0  0  0  0  0
    0.5779    0.8828   -1.3323 H   0  0  0  0  0  0  0  0  0  0  0  0
    2.5623    0.7218   -3.0060 H   0  0  0  0  0  0  0  0  0  0  0  0
    3.1533   -0.6153   -1.9862 H   0  0  0  0  0  0  0  0  0  0  0  0
    4.7272    1.4673   -2.2833 H   0  0  0  0  0  0  0  0  0  0  0  0
    4.1364    3.6472   -1.2578 H   0  0  0  0  0  0  0  0  0  0  0  0
    4.4093    2.9993    0.3529 H   0  0  0  0  0  0  0  0  0  0  0  0
    5.7768    3.1618   -0.7750 H   0  0  0  0  0  0  0  0  0  0  0  0
    4.9002    0.4560    0.6202 H   0  0  0  0  0  0  0  0  0  0  0  0
    6.3007    0.6844   -0.4546 H   0  0  0  0  0  0  0  0  0  0  0  0
    5.0710   -0.5368   -0.8182 H   0  0  0  0  0  0  0  0  0  0  0  0
    0.1524   -4.5290    4.4163 H   0  0  0  0  0  0  0  0  0  0  0  0
    1.1673   -4.0460    3.0510 H   0  0  0  0  0  0  0  0  0  0  0  0
    0.7050   -2.8451    4.2801 H   0  0  0  0  0  0  0  0  0  0  0  0
  1  2  1  0
  2  3  2  0
  3  4  1  0
  4  5  2  3
  5  6  1  0
  6  7  2  0
  7  8  1  0
  8  9  1  0
  8 10  2  0
 10 11  1  0
 10 12  1  0
 12 13  2  0
 13 14  1  0
  4 15  1  0
 15 16  1  0
 16 17  2  3
 17 18  1  0
 18 19  1  0
 19 20  1  0
 20 21  1  0
 21 22  1  0
 21 23  1  0
 16 24  1  0
 24 25  2  0
 25 26  1  0
 26 27  1  0
 26  1  1  0
 25  3  1  0
 13  6  1  0
  1 28  1  0
  2 29  1  0
  7 30  1  0
 12 31  1  0
 15 32  1  0
 18 33  1  0
 18 34  1  0
 19 35  1  0
 19 36  1  0
 21 37  1  0
 22 38  1  0
 22 39  1  0
 22 40  1  0
 23 41  1  0
 23 42  1  0
 23 43  1  0
 27 44  1  0
 27 45  1  0
 27 46  1  0
M  END
>  <ScrubInfo>  (8) 
{"isomerGroup": 0, "isomerId": 7, "confId": 0, "nr_conformers:": 1, "nr_isomers:": 9}

$$$$
_i8
     RDKit          3D

 46 48  0  0  0  0  0  0  0  0999 V2000
    0.0277   -1.5367   -0.1151 N   0  0  0  0  0  0  0  0  0  0  0  0
    0.7077   -0.5046    0.5094 C   0  0  0  0  0  0  0  0  0  0  0  0
    1.9666   -0.4147    0.7652 N   0  0  0  0  0  0  0  0  0  0  0  0
    2.8839   -1.4864    0.3797 C   0  0  0  0  0  0  0  0  0  0  0  0
    3.3181   -1.3700   -1.0882 C   0  0  0  0  0  0  0  0  0  0  0  0
    3.8185   -0.0939   -1.4836 O   0  0  0  0  0  0  0  0  0  0  0  0
    4.9522    0.4011   -0.7697 C   0  0  0  0  0  0  0  0  0  0  0  0
    6.1949   -0.4468   -1.0226 C   0  0  0  0  0  0  0  0  0  0  0  0
    5.1839    1.8289   -1.2558 C   0  0  0  0  0  0  0  0  0  0  0  0
   -0.1127    0.5349    0.8892 N   0  0  0  0  0  0  0  0  0  0  0  0
   -1.4680    0.7367    0.7509 C   0  0  0  0  0  0  0  0  0  0  0  0
   -2.0339    1.8245    1.1818 N   0  0  0  0  0  0  0  0  0  0  0  0
   -3.4012    2.0825    1.0281 C   0  0  0  0  0  0  0  0  0  0  0  0
   -4.2577    1.7997    2.0984 C   0  0  0  0  0  0  0  0  0  0  0  0
   -5.6233    2.0876    2.0149 C   0  0  0  0  0  0  0  0  0  0  0  0
   -6.6115    1.6909    3.3748 Cl  0  0  0  0  0  0  0  0  0  0  0  0
   -6.1426    2.6778    0.8569 C   0  0  0  0  0  0  0  0  0  0  0  0
   -7.8189    3.0570    0.6839 Cl  0  0  0  0  0  0  0  0  0  0  0  0
   -5.2951    2.9840   -0.2101 C   0  0  0  0  0  0  0  0  0  0  0  0
   -3.9312    2.6960   -0.1210 C   0  0  0  0  0  0  0  0  0  0  0  0
   -2.9234    3.1038   -1.4639 Cl  0  0  0  0  0  0  0  0  0  0  0  0
   -2.0945   -0.3998    0.0966 C   0  0  0  0  0  0  0  0  0  0  0  0
   -3.3915   -0.7917   -0.2821 C   0  0  0  0  0  0  0  0  0  0  0  0
   -3.4227   -1.9942   -0.8738 N   0  0  0  0  0  0  0  0  0  0  0  0
   -2.1286   -2.3792   -0.8898 N   0  0  0  0  0  0  0  0  0  0  0  0
   -1.7787   -3.6509   -1.4711 C   0  0  0  0  0  0  0  0  0  0  0  0
   -1.3109   -1.4628   -0.3019 C   0  0  0  0  0  0  0  0  0  0  0  0
    0.5716   -2.3283   -0.4260 H   0  0  0  0  0  0  0  0  0  0  0  0
    3.7615   -1.4179    1.0314 H   0  0  0  0  0  0  0  0  0  0  0  0
    2.4554   -2.4770    0.5715 H   0  0  0  0  0  0  0  0  0  0  0  0
    2.4551   -1.5673   -1.7333 H   0  0  0  0  0  0  0  0  0  0  0  0
    4.0564   -2.1435   -1.3248 H   0  0  0  0  0  0  0  0  0  0  0  0
    4.7360    0.4445    0.3025 H   0  0  0  0  0  0  0  0  0  0  0  0
    6.3622   -0.5870   -2.0960 H   0  0  0  0  0  0  0  0  0  0  0  0
    6.0868   -1.4434   -0.5833 H   0  0  0  0  0  0  0  0  0  0  0  0
    7.0854    0.0142   -0.5837 H   0  0  0  0  0  0  0  0  0  0  0  0
    4.2906    2.4395   -1.0839 H   0  0  0  0  0  0  0  0  0  0  0  0
    6.0280    2.2950   -0.7383 H   0  0  0  0  0  0  0  0  0  0  0  0
    5.3771    1.8506   -2.3342 H   0  0  0  0  0  0  0  0  0  0  0  0
    0.3823    1.3032    1.3193 H   0  0  0  0  0  0  0  0  0  0  0  0
   -3.8465    1.3559    3.0024 H   0  0  0  0  0  0  0  0  0  0  0  0
   -5.6940    3.4505   -1.1079 H   0  0  0  0  0  0  0  0  0  0  0  0
   -4.3315   -0.2740   -0.1590 H   0  0  0  0  0  0  0  0  0  0  0  0
   -0.7638   -3.5998   -1.8719 H   0  0  0  0  0  0  0  0  0  0  0  0
   -1.8433   -4.4111   -0.6891 H   0  0  0  0  0  0  0  0  0  0  0  0
   -2.4765   -3.8780   -2.2815 H   0  0  0  0  0  0  0  0  0  0  0  0
  1  2  1  0
  2  3  2  3
  3  4  1  0
  4  5  1  0
  5  6  1  0
  6  7  1  0
  7  8  1  0
  7  9  1  0
  2 10  1  0
 10 11  1  0
 11 12  2  3
 12 13  1  0
 13 14  2  0
 14 15  1  0
 15 16  1  0
 15 17  2  0
 17 18  1  0
 17 19  1  0
 19 20  2  0
 20 21  1  0
 11 22  1  0
 22 23  1  0
 23 24  2  0
 24 25  1  0
 25 26  1  0
 25 27  1  0
 27  1  1  0
 20 13  1  0
 27 22  2  0
  1 28  1  0
  4 29  1  0
  4 30  1  0
  5 31  1  0
  5 32  1  0
  7 33  1  0
  8 34  1  0
  8 35  1  0
  8 36  1  0
  9 37  1  0
  9 38  1  0
  9 39  1  0
 10 40  1  0
 14 41  1  0
 19 42  1  0
 23 43  1  0
 26 44  1  0
 26 45  1  0
 26 46  1  0
M  END
>  <ScrubInfo>  (9) 
{"isomerGroup": 0, "isomerId": 8, "confId": 0, "nr_conformers:": 1, "nr_isomers:": 9}

$$$$
