_i0
     RDKit          3D

 48 50  0  0  0  0  0  0  0  0999 V2000
    5.1262    2.8197   -1.0495 C   0  0  0  0  0  0  0  0  0  0  0  0
    3.8265    2.0442   -1.2007 C   0  0  0  0  0  0  0  0  0  0  0  0
    4.0811    0.5365   -1.2643 C   0  0  0  0  0  0  0  0  0  0  0  0
    2.7962   -0.2823   -1.4270 C   0  0  0  0  0  0  0  0  0  0  0  0
    2.2266   -0.8506   -0.1224 C   0  0  0  0  0  0  0  0  0  0  0  0
    1.7823    0.2139    0.8815 C   0  0  0  0  0  0  0  0  0  0  0  0
    1.1157   -0.3750    2.0306 N   0  0  0  0  0  0  0  0  0  0  0  0
   -0.1688   -0.8609    1.8396 C   0  0  0  0  0  0  0  0  0  0  0  0
   -0.9665   -0.2924    0.9158 N   0  0  0  0  0  0  0  0  0  0  0  0
   -2.2259   -0.7520    0.6976 C   0  0  0  0  0  0  0  0  0  0  0  0
   -3.0635   -0.1911   -0.2743 N   0  0  0  0  0  0  0  0  0  0  0  0
   -2.9196    0.9016   -1.1545 C   0  0  0  0  0  0  0  0  0  0  0  0
   -1.8563    1.8090   -1.0851 C   0  0  0  0  0  0  0  0  0  0  0  0
   -1.7446    2.8709   -1.9911 C   0  0  0  0  0  0  0  0  0  0  0  0
   -2.6980    3.0475   -2.9896 C   0  0  0  0  0  0  0  0  0  0  0  0
   -3.7683    2.1628   -3.0824 C   0  0  0  0  0  0  0  0  0  0  0  0
   -3.8752    1.1042   -2.1749 C   0  0  0  0  0  0  0  0  0  0  0  0
   -5.2286    0.0316   -2.3349 Cl  0  0  0  0  0  0  0  0  0  0  0  0
   -2.6428   -1.8379    1.4774 C   0  0  0  0  0  0  0  0  0  0  0  0
   -3.7886   -2.6463    1.6329 C   0  0  0  0  0  0  0  0  0  0  0  0
   -3.6381   -3.5896    2.5694 N   0  0  0  0  0  0  0  0  0  0  0  0
   -2.3805   -3.3760    3.0226 N   0  0  0  0  0  0  0  0  0  0  0  0
   -1.8523   -4.2139    4.0694 C   0  0  0  0  0  0  0  0  0  0  0  0
   -1.7421   -2.3414    2.3950 C   0  0  0  0  0  0  0  0  0  0  0  0
   -0.4961   -1.8999    2.6172 N   0  0  0  0  0  0  0  0  0  0  0  0
    4.9240    3.8948   -1.0141 H   0  0  0  0  0  0  0  0  0  0  0  0
    5.7982    2.6285   -1.8922 H   0  0  0  0  0  0  0  0  0  0  0  0
    5.6437    2.5407   -0.1261 H   0  0  0  0  0  0  0  0  0  0  0  0
    3.3203    2.3720   -2.1164 H   0  0  0  0  0  0  0  0  0  0  0  0
    3.1675    2.2938   -0.3644 H   0  0  0  0  0  0  0  0  0  0  0  0
    4.7222    0.3405   -2.1336 H   0  0  0  0  0  0  0  0  0  0  0  0
    4.6417    0.2029   -0.3832 H   0  0  0  0  0  0  0  0  0  0  0  0
    3.0245   -1.1391   -2.0742 H   0  0  0  0  0  0  0  0  0  0  0  0
    2.0273    0.2992   -1.9498 H   0  0  0  0  0  0  0  0  0  0  0  0
    1.3783   -1.4949   -0.3851 H   0  0  0  0  0  0  0  0  0  0  0  0
    2.9698   -1.5074    0.3475 H   0  0  0  0  0  0  0  0  0  0  0  0
    2.6670    0.7365    1.2612 H   0  0  0  0  0  0  0  0  0  0  0  0
    1.1573    0.9760    0.4024 H   0  0  0  0  0  0  0  0  0  0  0  0
    1.6355   -1.0868    2.5301 H   0  0  0  0  0  0  0  0  0  0  0  0
   -3.9363   -0.6880   -0.4115 H   0  0  0  0  0  0  0  0  0  0  0  0
   -1.0984    1.7201   -0.3135 H   0  0  0  0  0  0  0  0  0  0  0  0
   -0.9083    3.5613   -1.9081 H   0  0  0  0  0  0  0  0  0  0  0  0
   -2.6081    3.8733   -3.6905 H   0  0  0  0  0  0  0  0  0  0  0  0
   -4.5146    2.3000   -3.8601 H   0  0  0  0  0  0  0  0  0  0  0  0
   -4.7305   -2.5893    1.1030 H   0  0  0  0  0  0  0  0  0  0  0  0
   -0.8380   -3.8999    4.3254 H   0  0  0  0  0  0  0  0  0  0  0  0
   -2.5004   -4.1206    4.9446 H   0  0  0  0  0  0  0  0  0  0  0  0
   -1.8413   -5.2462    3.7104 H   0  0  0  0  0  0  0  0  0  0  0  0
  1  2  1  0
  2  3  1  0
  3  4  1  0
  4  5  1  0
  5  6  1  0
  6  7  1  0
  7  8  1  0
  8  9  2  0
  9 10  1  0
 10 11  1  0
 11 12  1  0
 12 13  2  0
 13 14  1  0
 14 15  2  0
 15 16  1  0
 16 17  2  0
 17 18  1  0
 10 19  2  0
 19 20  1  0
 20 21  2  0
 21 22  1  0
 22 23  1  0
 22 24  1  0
 24 25  2  0
 25  8  1  0
 17 12  1  0
 24 19  1  0
  1 26  1  0
  1 27  1  0
  1 28  1  0
  2 29  1  0
  2 30  1  0
  3 31  1  0
  3 32  1  0
  4 33  1  0
  4 34  1  0
  5 35  1  0
  5 36  1  0
  6 37  1  0
  6 38  1  0
  7 39  1  0
 11 40  1  0
 13 41  1  0
 14 42  1  0
 15 43  1  0
 16 44  1  0
 20 45  1  0
 23 46  1  0
 23 47  1  0
 23 48  1  0
M  END
>  <ScrubInfo>  (1) 
{"isomerGroup": 0, "isomerId": 0, "confId": 0, "nr_conformers:": 1, "nr_isomers:": 9}

$$$$
_i1
     RDKit          3D

 48 50  0  0  0  0  0  0  0  0999 V2000
   -0.5893    0.1997    1.4498 N   0  0  0  0  0  0  0  0  0  0  0  0
   -1.9514    0.2268    1.2366 C   0  0  0  0  0  0  0  0  0  0  0  0
   -2.7848   -0.6797    1.8569 N   0  0  0  0  0  0  0  0  0  0  0  0
   -3.6845   -1.5927    1.2469 C   0  0  0  0  0  0  0  0  0  0  0  0
   -3.8671   -1.6685   -0.1419 C   0  0  0  0  0  0  0  0  0  0  0  0
   -4.8102   -2.5388   -0.7005 C   0  0  0  0  0  0  0  0  0  0  0  0
   -5.5964   -3.3443    0.1188 C   0  0  0  0  0  0  0  0  0  0  0  0
   -5.4403   -3.2844    1.5010 C   0  0  0  0  0  0  0  0  0  0  0  0
   -4.4975   -2.4153    2.0576 C   0  0  0  0  0  0  0  0  0  0  0  0
   -4.3398   -2.3848    3.7823 Cl  0  0  0  0  0  0  0  0  0  0  0  0
   -2.3839    1.2330    0.4670 C   0  0  0  0  0  0  0  0  0  0  0  0
   -3.6663    1.7795    0.0114 C   0  0  0  0  0  0  0  0  0  0  0  0
   -3.5304    2.8432   -0.7407 N   0  0  0  0  0  0  0  0  0  0  0  0
   -2.1438    3.0425   -0.8618 N   0  0  0  0  0  0  0  0  0  0  0  0
   -1.6643    4.3154   -1.3439 C   0  0  0  0  0  0  0  0  0  0  0  0
   -1.3854    2.1556   -0.1142 C   0  0  0  0  0  0  0  0  0  0  0  0
   -0.1111    2.1009    0.0786 N   0  0  0  0  0  0  0  0  0  0  0  0
    0.3106    1.0675    0.8850 C   0  0  0  0  0  0  0  0  0  0  0  0
    1.5664    0.8808    1.1199 N   0  0  0  0  0  0  0  0  0  0  0  0
    2.5397    1.7991    0.5282 C   0  0  0  0  0  0  0  0  0  0  0  0
    2.9732    1.3174   -0.8572 C   0  0  0  0  0  0  0  0  0  0  0  0
    3.5680   -0.0960   -0.9001 C   0  0  0  0  0  0  0  0  0  0  0  0
    4.8626   -0.2368   -0.0955 C   0  0  0  0  0  0  0  0  0  0  0  0
    5.4635   -1.6438   -0.1581 C   0  0  0  0  0  0  0  0  0  0  0  0
    5.9707   -2.0294   -1.5391 C   0  0  0  0  0  0  0  0  0  0  0  0
   -0.1906   -0.5655    1.9711 H   0  0  0  0  0  0  0  0  0  0  0  0
   -2.4008   -1.0741    2.7141 H   0  0  0  0  0  0  0  0  0  0  0  0
   -3.2639   -1.0747   -0.8231 H   0  0  0  0  0  0  0  0  0  0  0  0
   -4.9268   -2.5870   -1.7813 H   0  0  0  0  0  0  0  0  0  0  0  0
   -6.3282   -4.0189   -0.3192 H   0  0  0  0  0  0  0  0  0  0  0  0
   -6.0547   -3.9137    2.1397 H   0  0  0  0  0  0  0  0  0  0  0  0
   -4.6187    1.3262    0.3147 H   0  0  0  0  0  0  0  0  0  0  0  0
   -1.6352    5.0453   -0.5289 H   0  0  0  0  0  0  0  0  0  0  0  0
   -2.3179    4.7021   -2.1325 H   0  0  0  0  0  0  0  0  0  0  0  0
   -0.6574    4.2198   -1.7626 H   0  0  0  0  0  0  0  0  0  0  0  0
    2.1634    2.8276    0.4684 H   0  0  0  0  0  0  0  0  0  0  0  0
    3.4056    1.8546    1.1966 H   0  0  0  0  0  0  0  0  0  0  0  0
    3.7052    2.0267   -1.2623 H   0  0  0  0  0  0  0  0  0  0  0  0
    2.1101    1.3423   -1.5337 H   0  0  0  0  0  0  0  0  0  0  0  0
    2.8295   -0.8241   -0.5444 H   0  0  0  0  0  0  0  0  0  0  0  0
    3.7621   -0.3378   -1.9513 H   0  0  0  0  0  0  0  0  0  0  0  0
    4.6660   -0.0086    0.9580 H   0  0  0  0  0  0  0  0  0  0  0  0
    5.6003    0.4943   -0.4476 H   0  0  0  0  0  0  0  0  0  0  0  0
    4.7255   -2.3808    0.1794 H   0  0  0  0  0  0  0  0  0  0  0  0
    6.3037   -1.6924    0.5449 H   0  0  0  0  0  0  0  0  0  0  0  0
    6.6834   -1.2897   -1.9171 H   0  0  0  0  0  0  0  0  0  0  0  0
    6.4797   -2.9978   -1.4946 H   0  0  0  0  0  0  0  0  0  0  0  0
    5.1513   -2.1206   -2.2578 H   0  0  0  0  0  0  0  0  0  0  0  0
  1  2  1  0
  2  3  1  0
  3  4  1  0
  4  5  2  0
  5  6  1  0
  6  7  2  0
  7  8  1  0
  8  9  2  0
  9 10  1  0
  2 11  2  0
 11 12  1  0
 12 13  2  0
 13 14  1  0
 14 15  1  0
 14 16  1  0
 16 17  2  0
 17 18  1  0
 18 19  2  3
 19 20  1  0
 20 21  1  0
 21 22  1  0
 22 23  1  0
 23 24  1  0
 24 25  1  0
 18  1  1  0
  9  4  1  0
 16 11  1  0
  1 26  1  0
  3 27  1  0
  5 28  1  0
  6 29  1  0
  7 30  1  0
  8 31  1  0
 12 32  1  0
 15 33  1  0
 15 34  1  0
 15 35  1  0
 20 36  1  0
 20 37  1  0
 21 38  1  0
 21 39  1  0
 22 40  1  0
 22 41  1  0
 23 42  1  0
 23 43  1  0
 24 44  1  0
 24 45  1  0
 25 46  1  0
 25 47  1  0
 25 48  1  0
M  END
>  <ScrubInfo>  (2) 
{"isomerGroup": 0, "isomerId": 1, "confId": 0, "nr_conformers:": 1, "nr_isomers:": 9}

$$$$
_i2
     RDKit          3D

 48 50  0  0  0  0  0  0  0  0999 V2000
   -1.5180   -0.2176   -0.4173 N   0  0  0  0  0  0  0  0  0  0  0  0
   -0.3146    0.0547   -1.0339 C   0  0  0  0  0  0  0  0  0  0  0  0
    0.4434    0.9481   -0.3204 N   0  0  0  0  0  0  0  0  0  0  0  0
    1.7846    1.2935   -0.7763 C   0  0  0  0  0  0  0  0  0  0  0  0
    2.3571    2.4544    0.0390 C   0  0  0  0  0  0  0  0  0  0  0  0
    2.5794    2.1730    1.5305 C   0  0  0  0  0  0  0  0  0  0  0  0
    3.4465    0.9545    1.8594 C   0  0  0  0  0  0  0  0  0  0  0  0
    4.8612    1.0433    1.2865 C   0  0  0  0  0  0  0  0  0  0  0  0
    5.7122   -0.1384    1.7260 C   0  0  0  0  0  0  0  0  0  0  0  0
    0.0622   -0.4701   -2.1722 N   0  0  0  0  0  0  0  0  0  0  0  0
   -0.8700   -1.3360   -2.6593 C   0  0  0  0  0  0  0  0  0  0  0  0
   -2.0911   -1.6709   -2.1088 C   0  0  0  0  0  0  0  0  0  0  0  0
   -2.6561   -2.5980   -2.9947 C   0  0  0  0  0  0  0  0  0  0  0  0
   -1.8606   -2.8456   -4.0443 N   0  0  0  0  0  0  0  0  0  0  0  0
   -0.7766   -2.0626   -3.8137 N   0  0  0  0  0  0  0  0  0  0  0  0
    0.3127   -2.0698   -4.7566 C   0  0  0  0  0  0  0  0  0  0  0  0
   -2.5083   -1.0633   -0.8716 C   0  0  0  0  0  0  0  0  0  0  0  0
   -3.6733   -1.3577   -0.3995 N   0  0  0  0  0  0  0  0  0  0  0  0
   -4.0770   -0.7571    0.8060 C   0  0  0  0  0  0  0  0  0  0  0  0
   -4.9681    0.3207    0.7392 C   0  0  0  0  0  0  0  0  0  0  0  0
   -5.4141    0.9548    1.9010 C   0  0  0  0  0  0  0  0  0  0  0  0
   -4.9806    0.5097    3.1481 C   0  0  0  0  0  0  0  0  0  0  0  0
   -4.1048   -0.5726    3.2346 C   0  0  0  0  0  0  0  0  0  0  0  0
   -3.6586   -1.2069    2.0710 C   0  0  0  0  0  0  0  0  0  0  0  0
   -2.5656   -2.5353    2.2389 Cl  0  0  0  0  0  0  0  0  0  0  0  0
   -1.7580    0.3599    0.3697 H   0  0  0  0  0  0  0  0  0  0  0  0
    0.4060    0.7880    0.6790 H   0  0  0  0  0  0  0  0  0  0  0  0
    1.7425    1.6069   -1.8265 H   0  0  0  0  0  0  0  0  0  0  0  0
    2.4384    0.4166   -0.7238 H   0  0  0  0  0  0  0  0  0  0  0  0
    3.3074    2.7626   -0.4131 H   0  0  0  0  0  0  0  0  0  0  0  0
    1.6855    3.3183   -0.0475 H   0  0  0  0  0  0  0  0  0  0  0  0
    3.0356    3.0633    1.9818 H   0  0  0  0  0  0  0  0  0  0  0  0
    1.6087    2.0521    2.0261 H   0  0  0  0  0  0  0  0  0  0  0  0
    2.9576    0.0385    1.5083 H   0  0  0  0  0  0  0  0  0  0  0  0
    3.5083    0.8683    2.9517 H   0  0  0  0  0  0  0  0  0  0  0  0
    4.8291    1.0632    0.1919 H   0  0  0  0  0  0  0  0  0  0  0  0
    5.3391    1.9729    1.6164 H   0  0  0  0  0  0  0  0  0  0  0  0
    6.7190   -0.0578    1.3044 H   0  0  0  0  0  0  0  0  0  0  0  0
    5.8028   -0.1731    2.8164 H   0  0  0  0  0  0  0  0  0  0  0  0
    5.2760   -1.0833    1.3865 H   0  0  0  0  0  0  0  0  0  0  0  0
   -3.6111   -3.1019   -2.9222 H   0  0  0  0  0  0  0  0  0  0  0  0
    1.1000   -1.3882   -4.4274 H   0  0  0  0  0  0  0  0  0  0  0  0
   -0.0715   -1.7493   -5.7283 H   0  0  0  0  0  0  0  0  0  0  0  0
    0.7067   -3.0874   -4.8187 H   0  0  0  0  0  0  0  0  0  0  0  0
   -5.3222    0.6622   -0.2312 H   0  0  0  0  0  0  0  0  0  0  0  0
   -6.1085    1.7890    1.8302 H   0  0  0  0  0  0  0  0  0  0  0  0
   -5.3340    0.9979    4.0535 H   0  0  0  0  0  0  0  0  0  0  0  0
   -3.7793   -0.9231    4.2109 H   0  0  0  0  0  0  0  0  0  0  0  0
  1  2  1  0
  2  3  1  0
  3  4  1  0
  4  5  1  0
  5  6  1  0
  6  7  1  0
  7  8  1  0
  8  9  1  0
  2 10  2  0
 10 11  1  0
 11 12  2  0
 12 13  1  0
 13 14  2  0
 14 15  1  0
 15 16  1  0
 12 17  1  0
 17 18  2  3
 18 19  1  0
 19 20  2  0
 20 21  1  0
 21 22  2  0
 22 23  1  0
 23 24  2  0
 24 25  1  0
 17  1  1  0
 24 19  1  0
 15 11  1  0
  1 26  1  0
  3 27  1  0
  4 28  1  0
  4 29  1  0
  5 30  1  0
  5 31  1  0
  6 32  1  0
  6 33  1  0
  7 34  1  0
  7 35  1  0
  8 36  1  0
  8 37  1  0
  9 38  1  0
  9 39  1  0
  9 40  1  0
 13 41  1  0
 16 42  1  0
 16 43  1  0
 16 44  1  0
 20 45  1  0
 21 46  1  0
 22 47  1  0
 23 48  1  0
M  END
>  <ScrubInfo>  (3) 
{"isomerGroup": 0, "isomerId": 2, "confId": 0, "nr_conformers:": 1, "nr_isomers:": 9}

$$$$
_i3
     RDKit          3D

 48 50  0  0  0  0  0  0  0  0999 V2000
    0.0120   -0.6467   -0.7186 N   0  0  0  0  0  0  0  0  0  0  0  0
    0.0381    0.4618    0.1129 C   0  0  0  0  0  0  0  0  0  0  0  0
    1.0272    1.2635    0.2858 N   0  0  0  0  0  0  0  0  0  0  0  0
    2.2767    1.0945   -0.4428 C   0  0  0  0  0  0  0  0  0  0  0  0
    3.2022    0.1518    0.3248 C   0  0  0  0  0  0  0  0  0  0  0  0
    4.5074   -0.1536   -0.4146 C   0  0  0  0  0  0  0  0  0  0  0  0
    5.3941    1.0569   -0.7245 C   0  0  0  0  0  0  0  0  0  0  0  0
    5.8116    1.8978    0.4840 C   0  0  0  0  0  0  0  0  0  0  0  0
    6.6110    1.1195    1.5174 C   0  0  0  0  0  0  0  0  0  0  0  0
   -1.0671    0.8089    0.8765 N   0  0  0  0  0  0  0  0  0  0  0  0
   -2.1553    0.0947    0.8070 C   0  0  0  0  0  0  0  0  0  0  0  0
   -3.2711    0.4001    1.5467 N   0  0  0  0  0  0  0  0  0  0  0  0
   -4.5896    0.4706    1.0212 C   0  0  0  0  0  0  0  0  0  0  0  0
   -5.6184   -0.0275    1.8398 C   0  0  0  0  0  0  0  0  0  0  0  0
   -6.9555    0.0402    1.4430 C   0  0  0  0  0  0  0  0  0  0  0  0
   -7.2909    0.6363    0.2316 C   0  0  0  0  0  0  0  0  0  0  0  0
   -6.2908    1.1799   -0.5735 C   0  0  0  0  0  0  0  0  0  0  0  0
   -4.9491    1.1151   -0.1780 C   0  0  0  0  0  0  0  0  0  0  0  0
   -3.7949    1.8944   -1.2016 Cl  0  0  0  0  0  0  0  0  0  0  0  0
   -2.2071   -1.0928   -0.0143 C   0  0  0  0  0  0  0  0  0  0  0  0
   -3.1084   -2.1298   -0.2994 C   0  0  0  0  0  0  0  0  0  0  0  0
   -2.6057   -3.0201   -1.1698 N   0  0  0  0  0  0  0  0  0  0  0  0
   -1.3657   -2.5436   -1.4396 N   0  0  0  0  0  0  0  0  0  0  0  0
   -0.5228   -3.2656   -2.3579 C   0  0  0  0  0  0  0  0  0  0  0  0
   -1.0987   -1.4025   -0.7528 C   0  0  0  0  0  0  0  0  0  0  0  0
    0.8580   -0.8722   -1.2173 H   0  0  0  0  0  0  0  0  0  0  0  0
    2.1165    0.7504   -1.4708 H   0  0  0  0  0  0  0  0  0  0  0  0
    2.7413    2.0827   -0.5291 H   0  0  0  0  0  0  0  0  0  0  0  0
    2.6862   -0.7994    0.5063 H   0  0  0  0  0  0  0  0  0  0  0  0
    3.4145    0.5676    1.3168 H   0  0  0  0  0  0  0  0  0  0  0  0
    5.0795   -0.8817    0.1727 H   0  0  0  0  0  0  0  0  0  0  0  0
    4.2675   -0.6547   -1.3611 H   0  0  0  0  0  0  0  0  0  0  0  0
    6.2974    0.6982   -1.2342 H   0  0  0  0  0  0  0  0  0  0  0  0
    4.8833    1.7076   -1.4442 H   0  0  0  0  0  0  0  0  0  0  0  0
    4.9329    2.3447    0.9614 H   0  0  0  0  0  0  0  0  0  0  0  0
    6.4262    2.7327    0.1260 H   0  0  0  0  0  0  0  0  0  0  0  0
    6.9611    1.7930    2.3063 H   0  0  0  0  0  0  0  0  0  0  0  0
    7.4872    0.6472    1.0621 H   0  0  0  0  0  0  0  0  0  0  0  0
    6.0049    0.3417    1.9910 H   0  0  0  0  0  0  0  0  0  0  0  0
   -3.0807    1.2667    2.0483 H   0  0  0  0  0  0  0  0  0  0  0  0
   -5.3730   -0.4929    2.7929 H   0  0  0  0  0  0  0  0  0  0  0  0
   -7.7334   -0.3702    2.0827 H   0  0  0  0  0  0  0  0  0  0  0  0
   -8.3312    0.6921   -0.0801 H   0  0  0  0  0  0  0  0  0  0  0  0
   -6.5643    1.6677   -1.5064 H   0  0  0  0  0  0  0  0  0  0  0  0
   -4.1076   -2.2883    0.0838 H   0  0  0  0  0  0  0  0  0  0  0  0
   -1.0704   -3.4066   -3.2933 H   0  0  0  0  0  0  0  0  0  0  0  0
    0.3907   -2.6989   -2.5495 H   0  0  0  0  0  0  0  0  0  0  0  0
   -0.2759   -4.2313   -1.9098 H   0  0  0  0  0  0  0  0  0  0  0  0
  1  2  1  0
  2  3  2  3
  3  4  1  0
  4  5  1  0
  5  6  1  0
  6  7  1  0
  7  8  1  0
  8  9  1  0
  2 10  1  0
 10 11  2  0
 11 12  1  0
 12 13  1  0
 13 14  2  0
 14 15  1  0
 15 16  2  0
 16 17  1  0
 17 18  2  0
 18 19  1  0
 11 20  1  0
 20 21  1  0
 21 22  2  0
 22 23  1  0
 23 24  1  0
 23 25  1  0
 25  1  1  0
 18 13  1  0
 25 20  2  0
  1 26  1  0
  4 27  1  0
  4 28  1  0
  5 29  1  0
  5 30  1  0
  6 31  1  0
  6 32  1  0
  7 33  1  0
  7 34  1  0
  8 35  1  0
  8 36  1  0
  9 37  1  0
  9 38  1  0
  9 39  1  0
 12 40  1  0
 14 41  1  0
 15 42  1  0
 16 43  1  0
 17 44  1  0
 21 45  1  0
 24 46  1  0
 24 47  1  0
 24 48  1  0
M  END
>  <ScrubInfo>  (4) 
{"isomerGroup": 0, "isomerId": 3, "confId": 0, "nr_conformers:": 1, "nr_isomers:": 9}

$$$$
_i4
     RDKit          3D

 48 50  0  0  0  0  0  0  0  0999 V2000
   -4.1681   -2.2725   -0.3104 N   0  0  0  0  0  0  0  0  0  0  0  0
   -3.7762   -0.9393   -0.2483 C   0  0  0  0  0  0  0  0  0  0  0  0
   -2.4503   -0.7756   -0.1210 C   0  0  0  0  0  0  0  0  0  0  0  0
   -1.4703    0.3004   -0.0432 C   0  0  0  0  0  0  0  0  0  0  0  0
   -1.6222    1.5829   -0.0505 N   0  0  0  0  0  0  0  0  0  0  0  0
   -2.8955    2.1584   -0.1617 C   0  0  0  0  0  0  0  0  0  0  0  0
   -3.5542    2.5509    1.0105 C   0  0  0  0  0  0  0  0  0  0  0  0
   -4.8127    3.1543    0.9570 C   0  0  0  0  0  0  0  0  0  0  0  0
   -5.4225    3.3860   -0.2744 C   0  0  0  0  0  0  0  0  0  0  0  0
   -4.7712    3.0210   -1.4531 C   0  0  0  0  0  0  0  0  0  0  0  0
   -3.5109    2.4171   -1.3990 C   0  0  0  0  0  0  0  0  0  0  0  0
   -2.7539    1.9795   -2.8900 Cl  0  0  0  0  0  0  0  0  0  0  0  0
   -0.1765   -0.1356    0.0510 N   0  0  0  0  0  0  0  0  0  0  0  0
    0.1590   -1.3882    0.0807 C   0  0  0  0  0  0  0  0  0  0  0  0
    1.4711   -1.7575    0.1654 N   0  0  0  0  0  0  0  0  0  0  0  0
    2.5481   -0.8590   -0.1995 C   0  0  0  0  0  0  0  0  0  0  0  0
    3.8927   -1.5170    0.1129 C   0  0  0  0  0  0  0  0  0  0  0  0
    5.0985   -0.6588   -0.2853 C   0  0  0  0  0  0  0  0  0  0  0  0
    5.6976    0.1732    0.8544 C   0  0  0  0  0  0  0  0  0  0  0  0
    4.8165    1.2854    1.4218 C   0  0  0  0  0  0  0  0  0  0  0  0
    4.4683    2.3609    0.4045 C   0  0  0  0  0  0  0  0  0  0  0  0
   -0.7124   -2.4425    0.0340 N   0  0  0  0  0  0  0  0  0  0  0  0
   -1.9678   -2.1676   -0.0389 C   0  0  0  0  0  0  0  0  0  0  0  0
   -3.0478   -3.0516   -0.0639 N   0  0  0  0  0  0  0  0  0  0  0  0
   -2.9357   -4.3486   -0.7028 C   0  0  0  0  0  0  0  0  0  0  0  0
   -4.9941   -2.4793    0.2558 H   0  0  0  0  0  0  0  0  0  0  0  0
   -4.5432   -0.1818   -0.3064 H   0  0  0  0  0  0  0  0  0  0  0  0
   -3.0718    2.3903    1.9721 H   0  0  0  0  0  0  0  0  0  0  0  0
   -5.3089    3.4539    1.8771 H   0  0  0  0  0  0  0  0  0  0  0  0
   -6.3988    3.8629   -0.3177 H   0  0  0  0  0  0  0  0  0  0  0  0
   -5.2454    3.2152   -2.4118 H   0  0  0  0  0  0  0  0  0  0  0  0
    1.6014   -2.7320   -0.0736 H   0  0  0  0  0  0  0  0  0  0  0  0
    2.4475    0.0795    0.3513 H   0  0  0  0  0  0  0  0  0  0  0  0
    2.4852   -0.6304   -1.2697 H   0  0  0  0  0  0  0  0  0  0  0  0
    3.9470   -1.7947    1.1726 H   0  0  0  0  0  0  0  0  0  0  0  0
    3.9467   -2.4589   -0.4497 H   0  0  0  0  0  0  0  0  0  0  0  0
    4.8637   -0.0273   -1.1492 H   0  0  0  0  0  0  0  0  0  0  0  0
    5.8899   -1.3419   -0.6215 H   0  0  0  0  0  0  0  0  0  0  0  0
    5.9774   -0.5003    1.6743 H   0  0  0  0  0  0  0  0  0  0  0  0
    6.6344    0.6189    0.4960 H   0  0  0  0  0  0  0  0  0  0  0  0
    3.9025    0.8677    1.8553 H   0  0  0  0  0  0  0  0  0  0  0  0
    5.3563    1.7599    2.2507 H   0  0  0  0  0  0  0  0  0  0  0  0
    5.3738    2.7980   -0.0282 H   0  0  0  0  0  0  0  0  0  0  0  0
    3.8546    1.9659   -0.4097 H   0  0  0  0  0  0  0  0  0  0  0  0
    3.9028    3.1645    0.8869 H   0  0  0  0  0  0  0  0  0  0  0  0
   -3.8490   -4.9313   -0.5445 H   0  0  0  0  0  0  0  0  0  0  0  0
   -2.7752   -4.2392   -1.7805 H   0  0  0  0  0  0  0  0  0  0  0  0
   -2.1005   -4.9159   -0.2798 H   0  0  0  0  0  0  0  0  0  0  0  0
  1  2  1  0
  2  3  2  0
  3  4  1  0
  4  5  2  3
  5  6  1  0
  6  7  2  0
  7  8  1  0
  8  9  2  0
  9 10  1  0
 10 11  2  0
 11 12  1  0
  4 13  1  0
 13 14  2  0
 14 15  1  0
 15 16  1  0
 16 17  1  0
 17 18  1  0
 18 19  1  0
 19 20  1  0
 20 21  1  0
 14 22  1  0
 22 23  2  0
 23 24  1  0
 24 25  1  0
 24  1  1  0
 23  3  1  0
 11  6  1  0
  1 26  1  0
  2 27  1  0
  7 28  1  0
  8 29  1  0
  9 30  1  0
 10 31  1  0
 15 32  1  0
 16 33  1  0
 16 34  1  0
 17 35  1  0
 17 36  1  0
 18 37  1  0
 18 38  1  0
 19 39  1  0
 19 40  1  0
 20 41  1  0
 20 42  1  0
 21 43  1  0
 21 44  1  0
 21 45  1  0
 25 46  1  0
 25 47  1  0
 25 48  1  0
M  END
>  <ScrubInfo>  (5) 
{"isomerGroup": 0, "isomerId": 4, "confId": 0, "nr_conformers:": 1, "nr_isomers:": 9}

$$$$
_i5
     RDKit          3D

 48 50  0  0  0  0  0  0  0  0999 V2000
   -0.6925   -1.0460    0.6451 N   0  0  0  0  0  0  0  0  0  0  0  0
   -0.4756   -0.3318   -0.5062 C   0  0  0  0  0  0  0  0  0  0  0  0
    0.7607   -0.4931   -1.0648 N   0  0  0  0  0  0  0  0  0  0  0  0
    1.9731   -0.2308   -0.2983 C   0  0  0  0  0  0  0  0  0  0  0  0
    3.1973   -0.4781   -1.1790 C   0  0  0  0  0  0  0  0  0  0  0  0
    4.4957   -0.2230   -0.4126 C   0  0  0  0  0  0  0  0  0  0  0  0
    5.7205   -0.4700   -1.2949 C   0  0  0  0  0  0  0  0  0  0  0  0
    7.0182   -0.2151   -0.5285 C   0  0  0  0  0  0  0  0  0  0  0  0
    8.2382   -0.4596   -1.4021 C   0  0  0  0  0  0  0  0  0  0  0  0
   -1.3433    0.4407   -1.0938 N   0  0  0  0  0  0  0  0  0  0  0  0
   -2.6005    0.6219   -0.5290 C   0  0  0  0  0  0  0  0  0  0  0  0
   -3.3653    1.4854   -1.1180 N   0  0  0  0  0  0  0  0  0  0  0  0
   -4.6425    1.8084   -0.6442 C   0  0  0  0  0  0  0  0  0  0  0  0
   -5.7505    1.2020   -1.2498 C   0  0  0  0  0  0  0  0  0  0  0  0
   -7.0491    1.5108   -0.8387 C   0  0  0  0  0  0  0  0  0  0  0  0
   -7.2557    2.4450    0.1745 C   0  0  0  0  0  0  0  0  0  0  0  0
   -6.1646    3.0775    0.7714 C   0  0  0  0  0  0  0  0  0  0  0  0
   -4.8646    2.7684    0.3592 C   0  0  0  0  0  0  0  0  0  0  0  0
   -3.5504    3.5845    1.1311 Cl  0  0  0  0  0  0  0  0  0  0  0  0
   -2.9073   -0.1813    0.6440 C   0  0  0  0  0  0  0  0  0  0  0  0
   -4.0147   -0.4386    1.4724 C   0  0  0  0  0  0  0  0  0  0  0  0
   -3.7459   -1.3253    2.4445 N   0  0  0  0  0  0  0  0  0  0  0  0
   -2.4468   -1.6399    2.2405 N   0  0  0  0  0  0  0  0  0  0  0  0
   -1.8064   -2.5823    3.1219 C   0  0  0  0  0  0  0  0  0  0  0  0
   -1.9254   -0.9797    1.1749 C   0  0  0  0  0  0  0  0  0  0  0  0
   -0.0229   -1.7710    0.8631 H   0  0  0  0  0  0  0  0  0  0  0  0
    0.7677    0.0445   -1.9318 H   0  0  0  0  0  0  0  0  0  0  0  0
    2.0180   -0.8847    0.5796 H   0  0  0  0  0  0  0  0  0  0  0  0
    1.9664    0.8074    0.0537 H   0  0  0  0  0  0  0  0  0  0  0  0
    3.1817   -1.5112   -1.5487 H   0  0  0  0  0  0  0  0  0  0  0  0
    3.1555    0.1728   -2.0615 H   0  0  0  0  0  0  0  0  0  0  0  0
    4.5090    0.8108   -0.0466 H   0  0  0  0  0  0  0  0  0  0  0  0
    4.5382   -0.8778    0.4663 H   0  0  0  0  0  0  0  0  0  0  0  0
    5.6783    0.1847   -2.1739 H   0  0  0  0  0  0  0  0  0  0  0  0
    5.7071   -1.5038   -1.6611 H   0  0  0  0  0  0  0  0  0  0  0  0
    7.0385    0.8184   -0.1636 H   0  0  0  0  0  0  0  0  0  0  0  0
    7.0673   -0.8702    0.3491 H   0  0  0  0  0  0  0  0  0  0  0  0
    8.2652   -1.4946   -1.7577 H   0  0  0  0  0  0  0  0  0  0  0  0
    9.1548   -0.2715   -0.8343 H   0  0  0  0  0  0  0  0  0  0  0  0
    8.2362    0.2034   -2.2732 H   0  0  0  0  0  0  0  0  0  0  0  0
   -5.5941    0.4850   -2.0525 H   0  0  0  0  0  0  0  0  0  0  0  0
   -7.8978    1.0270   -1.3164 H   0  0  0  0  0  0  0  0  0  0  0  0
   -8.2665    2.6886    0.4929 H   0  0  0  0  0  0  0  0  0  0  0  0
   -6.3317    3.8136    1.5534 H   0  0  0  0  0  0  0  0  0  0  0  0
   -5.0176   -0.0383    1.4220 H   0  0  0  0  0  0  0  0  0  0  0  0
   -2.0096   -2.2875    4.1547 H   0  0  0  0  0  0  0  0  0  0  0  0
   -2.2183   -3.5740    2.9193 H   0  0  0  0  0  0  0  0  0  0  0  0
   -0.7284   -2.5810    2.9475 H   0  0  0  0  0  0  0  0  0  0  0  0
  1  2  1  0
  2  3  1  0
  3  4  1  0
  4  5  1  0
  5  6  1  0
  6  7  1  0
  7  8  1  0
  8  9  1  0
  2 10  2  0
 10 11  1  0
 11 12  2  3
 12 13  1  0
 13 14  2  0
 14 15  1  0
 15 16  2  0
 16 17  1  0
 17 18  2  0
 18 19  1  0
 11 20  1  0
 20 21  1  0
 21 22  2  0
 22 23  1  0
 23 24  1  0
 23 25  1  0
 25  1  1  0
 18 13  1  0
 25 20  2  0
  1 26  1  0
  3 27  1  0
  4 28  1  0
  4 29  1  0
  5 30  1  0
  5 31  1  0
  6 32  1  0
  6 33  1  0
  7 34  1  0
  7 35  1  0
  8 36  1  0
  8 37  1  0
  9 38  1  0
  9 39  1  0
  9 40  1  0
 14 41  1  0
 15 42  1  0
 16 43  1  0
 17 44  1  0
 21 45  1  0
 24 46  1  0
 24 47  1  0
 24 48  1  0
M  END
>  <ScrubInfo>  (6) 
{"isomerGroup": 0, "isomerId": 5, "confId": 0, "nr_conformers:": 1, "nr_isomers:": 9}

$$$$
_i6
     RDKit          3D

 48 50  0  0  0  0  0  0  0  0999 V2000
    3.3605    3.0502   -0.0692 N   0  0  0  0  0  0  0  0  0  0  0  0
    3.2726    1.7972    0.5283 C   0  0  0  0  0  0  0  0  0  0  0  0
    2.2073    1.0953    0.1182 C   0  0  0  0  0  0  0  0  0  0  0  0
    1.5959   -0.2129    0.3434 C   0  0  0  0  0  0  0  0  0  0  0  0
    2.0998   -1.1528    1.2113 N   0  0  0  0  0  0  0  0  0  0  0  0
    3.4006   -1.7193    1.1822 C   0  0  0  0  0  0  0  0  0  0  0  0
    4.3264   -1.4442    0.1651 C   0  0  0  0  0  0  0  0  0  0  0  0
    5.6125   -1.9949    0.1911 C   0  0  0  0  0  0  0  0  0  0  0  0
    5.9987   -2.8303    1.2356 C   0  0  0  0  0  0  0  0  0  0  0  0
    5.0970   -3.1227    2.2555 C   0  0  0  0  0  0  0  0  0  0  0  0
    3.8120   -2.5728    2.2283 C   0  0  0  0  0  0  0  0  0  0  0  0
    2.7303   -2.9770    3.5184 Cl  0  0  0  0  0  0  0  0  0  0  0  0
    0.4769   -0.4850   -0.2702 N   0  0  0  0  0  0  0  0  0  0  0  0
   -0.0474    0.4398   -1.1511 C   0  0  0  0  0  0  0  0  0  0  0  0
   -1.0954    0.1445   -1.8332 N   0  0  0  0  0  0  0  0  0  0  0  0
   -1.7127   -1.1696   -1.6814 C   0  0  0  0  0  0  0  0  0  0  0  0
   -2.7477   -1.1586   -0.5561 C   0  0  0  0  0  0  0  0  0  0  0  0
   -3.9254   -0.2245   -0.8493 C   0  0  0  0  0  0  0  0  0  0  0  0
   -4.9648   -0.2742    0.2724 C   0  0  0  0  0  0  0  0  0  0  0  0
   -6.1409    0.6579   -0.0179 C   0  0  0  0  0  0  0  0  0  0  0  0
   -7.1762    0.6114    1.0946 C   0  0  0  0  0  0  0  0  0  0  0  0
    0.4309    1.7052   -1.3960 N   0  0  0  0  0  0  0  0  0  0  0  0
    1.5058    2.0414   -0.7744 C   0  0  0  0  0  0  0  0  0  0  0  0
    2.1936    3.2544   -0.7981 N   0  0  0  0  0  0  0  0  0  0  0  0
    2.2318    4.0699   -1.9963 C   0  0  0  0  0  0  0  0  0  0  0  0
    3.6117    3.7944    0.5862 H   0  0  0  0  0  0  0  0  0  0  0  0
    4.0259    1.5007    1.2444 H   0  0  0  0  0  0  0  0  0  0  0  0
    1.4194   -1.8812    1.4232 H   0  0  0  0  0  0  0  0  0  0  0  0
    4.0608   -0.8221   -0.6856 H   0  0  0  0  0  0  0  0  0  0  0  0
    6.3108   -1.7743   -0.6137 H   0  0  0  0  0  0  0  0  0  0  0  0
    6.9982   -3.2583    1.2516 H   0  0  0  0  0  0  0  0  0  0  0  0
    5.3981   -3.7792    3.0680 H   0  0  0  0  0  0  0  0  0  0  0  0
   -2.2034   -1.4262   -2.6277 H   0  0  0  0  0  0  0  0  0  0  0  0
   -0.9750   -1.9631   -1.5117 H   0  0  0  0  0  0  0  0  0  0  0  0
   -3.1243   -2.1798   -0.4211 H   0  0  0  0  0  0  0  0  0  0  0  0
   -2.2742   -0.8650    0.3883 H   0  0  0  0  0  0  0  0  0  0  0  0
   -4.3950   -0.5126   -1.7976 H   0  0  0  0  0  0  0  0  0  0  0  0
   -3.5664    0.8050   -0.9651 H   0  0  0  0  0  0  0  0  0  0  0  0
   -4.4950    0.0116    1.2214 H   0  0  0  0  0  0  0  0  0  0  0  0
   -5.3306   -1.3016    0.3894 H   0  0  0  0  0  0  0  0  0  0  0  0
   -6.6166    0.3739   -0.9638 H   0  0  0  0  0  0  0  0  0  0  0  0
   -5.7813    1.6872   -0.1315 H   0  0  0  0  0  0  0  0  0  0  0  0
   -8.0081    1.2852    0.8666 H   0  0  0  0  0  0  0  0  0  0  0  0
   -7.5800   -0.3991    1.2128 H   0  0  0  0  0  0  0  0  0  0  0  0
   -6.7400    0.9213    2.0496 H   0  0  0  0  0  0  0  0  0  0  0  0
    2.7299    5.0232   -1.7922 H   0  0  0  0  0  0  0  0  0  0  0  0
    2.7750    3.5581   -2.7975 H   0  0  0  0  0  0  0  0  0  0  0  0
    1.2180    4.2906   -2.3453 H   0  0  0  0  0  0  0  0  0  0  0  0
  1  2  1  0
  2  3  2  0
  3  4  1  0
  4  5  1  0
  5  6  1  0
  6  7  2  0
  7  8  1  0
  8  9  2  0
  9 10  1  0
 10 11  2  0
 11 12  1  0
  4 13  2  0
 13 14  1  0
 14 15  2  3
 15 16  1  0
 16 17  1  0
 17 18  1  0
 18 19  1  0
 19 20  1  0
 20 21  1  0
 14 22  1  0
 22 23  2  0
 23 24  1  0
 24 25  1  0
 24  1  1  0
 23  3  1  0
 11  6  1  0
  1 26  1  0
  2 27  1  0
  5 28  1  0
  7 29  1  0
  8 30  1  0
  9 31  1  0
 10 32  1  0
 16 33  1  0
 16 34  1  0
 17 35  1  0
 17 36  1  0
 18 37  1  0
 18 38  1  0
 19 39  1  0
 19 40  1  0
 20 41  1  0
 20 42  1  0
 21 43  1  0
 21 44  1  0
 21 45  1  0
 25 46  1  0
 25 47  1  0
 25 48  1  0
M  END
>  <ScrubInfo>  (7) 
{"isomerGroup": 0, "isomerId": 6, "confId": 0, "nr_conformers:": 1, "nr_isomers:": 9}

$$$$
_i7
     RDKit          3D

 48 50  0  0  0  0  0  0  0  0999 V2000
   -4.0688   -2.3321   -0.3580 N   0  0  0  0  0  0  0  0  0  0  0  0
   -3.7473   -0.9823   -0.2737 C   0  0  0  0  0  0  0  0  0  0  0  0
   -2.4278   -0.7467   -0.2426 C   0  0  0  0  0  0  0  0  0  0  0  0
   -1.4749    0.3772   -0.1937 C   0  0  0  0  0  0  0  0  0  0  0  0
   -1.7061    1.6555   -0.1244 N   0  0  0  0  0  0  0  0  0  0  0  0
   -3.0196    2.1507   -0.1120 C   0  0  0  0  0  0  0  0  0  0  0  0
   -3.6250    2.4150    1.1229 C   0  0  0  0  0  0  0  0  0  0  0  0
   -4.9202    2.9342    1.1873 C   0  0  0  0  0  0  0  0  0  0  0  0
   -5.6205    3.2089    0.0140 C   0  0  0  0  0  0  0  0  0  0  0  0
   -5.0242    2.9716   -1.2248 C   0  0  0  0  0  0  0  0  0  0  0  0
   -3.7277    2.4522   -1.2887 C   0  0  0  0  0  0  0  0  0  0  0  0
   -3.0347    2.1756   -2.8479 Cl  0  0  0  0  0  0  0  0  0  0  0  0
   -0.1695   -0.0369   -0.2303 N   0  0  0  0  0  0  0  0  0  0  0  0
    0.2926   -1.3269   -0.3049 C   0  0  0  0  0  0  0  0  0  0  0  0
    1.5232   -1.6937   -0.3796 N   0  0  0  0  0  0  0  0  0  0  0  0
    2.5715   -0.6804   -0.3949 C   0  0  0  0  0  0  0  0  0  0  0  0
    3.9210   -1.3932   -0.4898 C   0  0  0  0  0  0  0  0  0  0  0  0
    5.1132   -0.4360   -0.5911 C   0  0  0  0  0  0  0  0  0  0  0  0
    5.8095   -0.1336    0.7407 C   0  0  0  0  0  0  0  0  0  0  0  0
    4.9958    0.6432    1.7748 C   0  0  0  0  0  0  0  0  0  0  0  0
    4.5892    2.0321    1.3075 C   0  0  0  0  0  0  0  0  0  0  0  0
   -0.5839   -2.3914   -0.2986 N   0  0  0  0  0  0  0  0  0  0  0  0
   -1.8530   -2.1367   -0.2568 C   0  0  0  0  0  0  0  0  0  0  0  0
   -2.8979   -3.0633   -0.2252 N   0  0  0  0  0  0  0  0  0  0  0  0
   -2.7781   -4.3405   -0.9032 C   0  0  0  0  0  0  0  0  0  0  0  0
   -4.8429   -2.6076    0.2503 H   0  0  0  0  0  0  0  0  0  0  0  0
   -4.5574   -0.2696   -0.2424 H   0  0  0  0  0  0  0  0  0  0  0  0
   -3.0768    2.2184    2.0411 H   0  0  0  0  0  0  0  0  0  0  0  0
   -5.3767    3.1333    2.1541 H   0  0  0  0  0  0  0  0  0  0  0  0
   -6.6265    3.6192    0.0635 H   0  0  0  0  0  0  0  0  0  0  0  0
   -5.5701    3.1985   -2.1370 H   0  0  0  0  0  0  0  0  0  0  0  0
    0.5066    0.7087   -0.2354 H   0  0  0  0  0  0  0  0  0  0  0  0
    2.4494   -0.0197   -1.2614 H   0  0  0  0  0  0  0  0  0  0  0  0
    2.5237   -0.0778    0.5158 H   0  0  0  0  0  0  0  0  0  0  0  0
    4.0481   -2.0849    0.3519 H   0  0  0  0  0  0  0  0  0  0  0  0
    3.9075   -2.0171   -1.3937 H   0  0  0  0  0  0  0  0  0  0  0  0
    4.8315    0.4900   -1.1043 H   0  0  0  0  0  0  0  0  0  0  0  0
    5.8642   -0.9158   -1.2330 H   0  0  0  0  0  0  0  0  0  0  0  0
    6.1334   -1.0794    1.1931 H   0  0  0  0  0  0  0  0  0  0  0  0
    6.7273    0.4287    0.5258 H   0  0  0  0  0  0  0  0  0  0  0  0
    4.1108    0.0731    2.0738 H   0  0  0  0  0  0  0  0  0  0  0  0
    5.6069    0.7513    2.6795 H   0  0  0  0  0  0  0  0  0  0  0  0
    5.4659    2.6190    1.0155 H   0  0  0  0  0  0  0  0  0  0  0  0
    3.9048    1.9896    0.4558 H   0  0  0  0  0  0  0  0  0  0  0  0
    4.0798    2.5658    2.1163 H   0  0  0  0  0  0  0  0  0  0  0  0
   -3.6538   -4.9644   -0.6968 H   0  0  0  0  0  0  0  0  0  0  0  0
   -2.6988   -4.1999   -1.9862 H   0  0  0  0  0  0  0  0  0  0  0  0
   -1.8933   -4.8820   -0.5535 H   0  0  0  0  0  0  0  0  0  0  0  0
  1  2  1  0
  2  3  2  0
  3  4  1  0
  4  5  2  3
  5  6  1  0
  6  7  2  0
  7  8  1  0
  8  9  2  0
  9 10  1  0
 10 11  2  0
 11 12  1  0
  4 13  1  0
 13 14  1  0
 14 15  2  3
 15 16  1  0
 16 17  1  0
 17 18  1  0
 18 19  1  0
 19 20  1  0
 20 21  1  0
 14 22  1  0
 22 23  2  0
 23 24  1  0
 24 25  1  0
 24  1  1  0
 23  3  1  0
 11  6  1  0
  1 26  1  0
  2 27  1  0
  7 28  1  0
  8 29  1  0
  9 30  1  0
 10 31  1  0
 13 32  1  0
 16 33  1  0
 16 34  1  0
 17 35  1  0
 17 36  1  0
 18 37  1  0
 18 38  1  0
 19 39  1  0
 19 40  1  0
 20 41  1  0
 20 42  1  0
 21 43  1  0
 21 44  1  0
 21 45  1  0
 25 46  1  0
 25 47  1  0
 25 48  1  0
M  END
>  <ScrubInfo>  (8) 
{"isomerGroup": 0, "isomerId": 7, "confId": 0, "nr_conformers:": 1, "nr_isomers:": 9}

$$$$
_i8
     RDKit          3D

 48 50  0  0  0  0  0  0  0  0999 V2000
    0.8332   -2.2314    0.6022 N   0  0  0  0  0  0  0  0  0  0  0  0
    0.0177   -1.1483    0.3466 C   0  0  0  0  0  0  0  0  0  0  0  0
   -1.2603   -1.3275    0.3701 N   0  0  0  0  0  0  0  0  0  0  0  0
   -2.1216   -0.1795    0.1005 C   0  0  0  0  0  0  0  0  0  0  0  0
   -3.5751   -0.6438    0.1817 C   0  0  0  0  0  0  0  0  0  0  0  0
   -4.5457    0.5070   -0.0893 C   0  0  0  0  0  0  0  0  0  0  0  0
   -5.9994    0.0358   -0.0101 C   0  0  0  0  0  0  0  0  0  0  0  0
   -7.0140    1.1701   -0.1695 C   0  0  0  0  0  0  0  0  0  0  0  0
   -6.9948    1.8131   -1.5476 C   0  0  0  0  0  0  0  0  0  0  0  0
    0.7183    0.0148    0.0920 N   0  0  0  0  0  0  0  0  0  0  0  0
    2.0754    0.2702    0.0613 C   0  0  0  0  0  0  0  0  0  0  0  0
    2.5155    1.4661   -0.1946 N   0  0  0  0  0  0  0  0  0  0  0  0
    3.8829    1.7754   -0.1964 C   0  0  0  0  0  0  0  0  0  0  0  0
    4.5726    1.7634   -1.4152 C   0  0  0  0  0  0  0  0  0  0  0  0
    5.9281    2.0958   -1.4721 C   0  0  0  0  0  0  0  0  0  0  0  0
    6.6061    2.4607   -0.3103 C   0  0  0  0  0  0  0  0  0  0  0  0
    5.9281    2.5016    0.9084 C   0  0  0  0  0  0  0  0  0  0  0  0
    4.5715    2.1690    0.9649 C   0  0  0  0  0  0  0  0  0  0  0  0
    3.7755    2.2408    2.4978 Cl  0  0  0  0  0  0  0  0  0  0  0  0
    2.8441   -0.9324    0.3349 C   0  0  0  0  0  0  0  0  0  0  0  0
    4.1996   -1.3028    0.4126 C   0  0  0  0  0  0  0  0  0  0  0  0
    4.3712   -2.6025    0.6977 N   0  0  0  0  0  0  0  0  0  0  0  0
    3.1106   -3.0744    0.8181 N   0  0  0  0  0  0  0  0  0  0  0  0
    2.9054   -4.4663    1.1301 C   0  0  0  0  0  0  0  0  0  0  0  0
    2.1772   -2.1107    0.5930 C   0  0  0  0  0  0  0  0  0  0  0  0
    0.3330   -3.0921    0.7909 H   0  0  0  0  0  0  0  0  0  0  0  0
   -1.9227    0.2225   -0.9001 H   0  0  0  0  0  0  0  0  0  0  0  0
   -1.9497    0.6109    0.8408 H   0  0  0  0  0  0  0  0  0  0  0  0
   -3.7691   -1.0680    1.1750 H   0  0  0  0  0  0  0  0  0  0  0  0
   -3.7437   -1.4503   -0.5430 H   0  0  0  0  0  0  0  0  0  0  0  0
   -4.3393    0.9232   -1.0817 H   0  0  0  0  0  0  0  0  0  0  0  0
   -4.3783    1.3077    0.6411 H   0  0  0  0  0  0  0  0  0  0  0  0
   -6.1693   -0.4407    0.9634 H   0  0  0  0  0  0  0  0  0  0  0  0
   -6.1823   -0.7308   -0.7730 H   0  0  0  0  0  0  0  0  0  0  0  0
   -6.8392    1.9374    0.5936 H   0  0  0  0  0  0  0  0  0  0  0  0
   -8.0172    0.7661    0.0118 H   0  0  0  0  0  0  0  0  0  0  0  0
   -7.1347    1.0639   -2.3332 H   0  0  0  0  0  0  0  0  0  0  0  0
   -6.0532    2.3380   -1.7327 H   0  0  0  0  0  0  0  0  0  0  0  0
   -7.8037    2.5461   -1.6309 H   0  0  0  0  0  0  0  0  0  0  0  0
    0.1709    0.8421   -0.0843 H   0  0  0  0  0  0  0  0  0  0  0  0
    4.0459    1.4922   -2.3270 H   0  0  0  0  0  0  0  0  0  0  0  0
    6.4517    2.0750   -2.4250 H   0  0  0  0  0  0  0  0  0  0  0  0
    7.6610    2.7214   -0.3546 H   0  0  0  0  0  0  0  0  0  0  0  0
    6.4592    2.7964    1.8098 H   0  0  0  0  0  0  0  0  0  0  0  0
    5.0858   -0.7003    0.2719 H   0  0  0  0  0  0  0  0  0  0  0  0
    2.9471   -5.0335    0.1973 H   0  0  0  0  0  0  0  0  0  0  0  0
    3.6926   -4.7971    1.8128 H   0  0  0  0  0  0  0  0  0  0  0  0
    1.9330   -4.5944    1.6108 H   0  0  0  0  0  0  0  0  0  0  0  0
  1  2  1  0
  2  3  2  3
  3  4  1  0
  4  5  1  0
  5  6  1  0
  6  7  1  0
  7  8  1  0
  8  9  1  0
  2 10  1  0
 10 11  1  0
 11 12  2  3
 12 13  1  0
 13 14  2  0
 14 15  1  0
 15 16  2  0
 16 17  1  0
 17 18  2  0
 18 19  1  0
 11 20  1  0
 20 21  1  0
 21 22  2  0
 22 23  1  0
 23 24  1  0
 23 25  1  0
 25  1  1  0
 18 13  1  0
 25 20  2  0
  1 26  1  0
  4 27  1  0
  4 28  1  0
  5 29  1  0
  5 30  1  0
  6 31  1  0
  6 32  1  0
  7 33  1  0
  7 34  1  0
  8 35  1  0
  8 36  1  0
  9 37  1  0
  9 38  1  0
  9 39  1  0
 10 40  1  0
 14 41  1  0
 15 42  1  0
 16 43  1  0
 17 44  1  0
 21 45  1  0
 24 46  1  0
 24 47  1  0
 24 48  1  0
M  END
>  <ScrubInfo>  (9) 
{"isomerGroup": 0, "isomerId": 8, "confId": 0, "nr_conformers:": 1, "nr_isomers:": 9}

$$$$
