_i0
     RDKit          3D

 51 53  0  0  0  0  0  0  0  0999 V2000
    5.1708   -2.8997   -1.6111 C   0  0  0  0  0  0  0  0  0  0  0  0
    4.1189   -3.0627   -0.5250 C   0  0  0  0  0  0  0  0  0  0  0  0
    3.7712   -1.7553    0.1897 C   0  0  0  0  0  0  0  0  0  0  0  0
    3.1039   -0.7249   -0.7237 C   0  0  0  0  0  0  0  0  0  0  0  0
    2.6421    0.4993    0.0684 C   0  0  0  0  0  0  0  0  0  0  0  0
    1.9813    1.5361   -0.8412 C   0  0  0  0  0  0  0  0  0  0  0  0
    1.4139    2.6081   -0.0419 N   0  0  0  0  0  0  0  0  0  0  0  0
    0.0447    2.5418    0.1885 C   0  0  0  0  0  0  0  0  0  0  0  0
   -0.5734    1.3461    0.2367 N   0  0  0  0  0  0  0  0  0  0  0  0
   -1.9147    1.2551    0.4418 C   0  0  0  0  0  0  0  0  0  0  0  0
   -2.5881    0.0236    0.4373 N   0  0  0  0  0  0  0  0  0  0  0  0
   -2.1248   -1.3073    0.4135 C   0  0  0  0  0  0  0  0  0  0  0  0
   -0.7986   -1.6394    0.7232 C   0  0  0  0  0  0  0  0  0  0  0  0
   -0.3369   -2.9567    0.6608 C   0  0  0  0  0  0  0  0  0  0  0  0
   -1.1972   -3.9755    0.2758 C   0  0  0  0  0  0  0  0  0  0  0  0
   -2.5171   -3.6749   -0.0497 C   0  0  0  0  0  0  0  0  0  0  0  0
   -2.9903   -2.3505    0.0056 C   0  0  0  0  0  0  0  0  0  0  0  0
   -4.4223   -2.0876   -0.3791 C   0  0  0  0  0  0  0  0  0  0  0  0
   -2.6070    2.4612    0.6081 C   0  0  0  0  0  0  0  0  0  0  0  0
   -3.9303    2.8950    0.8346 C   0  0  0  0  0  0  0  0  0  0  0  0
   -4.0378    4.2261    0.9105 N   0  0  0  0  0  0  0  0  0  0  0  0
   -2.7631    4.6480    0.7369 N   0  0  0  0  0  0  0  0  0  0  0  0
   -2.4731    6.0595    0.7647 C   0  0  0  0  0  0  0  0  0  0  0  0
   -1.8717    3.6281    0.5440 C   0  0  0  0  0  0  0  0  0  0  0  0
   -0.5526    3.7314    0.3302 N   0  0  0  0  0  0  0  0  0  0  0  0
    6.0768   -2.4314   -1.2139 H   0  0  0  0  0  0  0  0  0  0  0  0
    4.8002   -2.2901   -2.4404 H   0  0  0  0  0  0  0  0  0  0  0  0
    5.4456   -3.8786   -2.0173 H   0  0  0  0  0  0  0  0  0  0  0  0
    4.4936   -3.7758    0.2189 H   0  0  0  0  0  0  0  0  0  0  0  0
    3.2131   -3.5034   -0.9575 H   0  0  0  0  0  0  0  0  0  0  0  0
    3.0957   -1.9904    1.0215 H   0  0  0  0  0  0  0  0  0  0  0  0
    4.6777   -1.3247    0.6321 H   0  0  0  0  0  0  0  0  0  0  0  0
    3.8031   -0.4055   -1.5045 H   0  0  0  0  0  0  0  0  0  0  0  0
    2.2418   -1.1822   -1.2242 H   0  0  0  0  0  0  0  0  0  0  0  0
    1.9485    0.1853    0.8560 H   0  0  0  0  0  0  0  0  0  0  0  0
    3.4989    0.9575    0.5786 H   0  0  0  0  0  0  0  0  0  0  0  0
    1.2438    1.0753   -1.5108 H   0  0  0  0  0  0  0  0  0  0  0  0
    2.7513    1.9668   -1.4931 H   0  0  0  0  0  0  0  0  0  0  0  0
    1.5991    3.5479   -0.3729 H   0  0  0  0  0  0  0  0  0  0  0  0
   -3.5907    0.1092    0.5054 H   0  0  0  0  0  0  0  0  0  0  0  0
   -0.1032   -0.8726    1.0484 H   0  0  0  0  0  0  0  0  0  0  0  0
    0.6951   -3.1790    0.9176 H   0  0  0  0  0  0  0  0  0  0  0  0
   -0.8419   -5.0010    0.2267 H   0  0  0  0  0  0  0  0  0  0  0  0
   -3.1780   -4.4829   -0.3559 H   0  0  0  0  0  0  0  0  0  0  0  0
   -4.9871   -1.7314    0.4883 H   0  0  0  0  0  0  0  0  0  0  0  0
   -4.4718   -1.3436   -1.1807 H   0  0  0  0  0  0  0  0  0  0  0  0
   -4.9153   -2.9940   -0.7465 H   0  0  0  0  0  0  0  0  0  0  0  0
   -4.8250    2.2976    0.9490 H   0  0  0  0  0  0  0  0  0  0  0  0
   -3.0212    6.5385   -0.0506 H   0  0  0  0  0  0  0  0  0  0  0  0
   -2.7973    6.4584    1.7293 H   0  0  0  0  0  0  0  0  0  0  0  0
   -1.4009    6.2248    0.6383 H   0  0  0  0  0  0  0  0  0  0  0  0
  1  2  1  0
  2  3  1  0
  3  4  1  0
  4  5  1  0
  5  6  1  0
  6  7  1  0
  7  8  1  0
  8  9  2  0
  9 10  1  0
 10 11  1  0
 11 12  1  0
 12 13  2  0
 13 14  1  0
 14 15  2  0
 15 16  1  0
 16 17  2  0
 17 18  1  0
 10 19  2  0
 19 20  1  0
 20 21  2  0
 21 22  1  0
 22 23  1  0
 22 24  1  0
 24 25  2  0
 25  8  1  0
 17 12  1  0
 24 19  1  0
  1 26  1  0
  1 27  1  0
  1 28  1  0
  2 29  1  0
  2 30  1  0
  3 31  1  0
  3 32  1  0
  4 33  1  0
  4 34  1  0
  5 35  1  0
  5 36  1  0
  6 37  1  0
  6 38  1  0
  7 39  1  0
 11 40  1  0
 13 41  1  0
 14 42  1  0
 15 43  1  0
 16 44  1  0
 18 45  1  0
 18 46  1  0
 18 47  1  0
 20 48  1  0
 23 49  1  0
 23 50  1  0
 23 51  1  0
M  END
>  <ScrubInfo>  (1) 
{"isomerGroup": 0, "isomerId": 0, "confId": 0, "nr_conformers:": 1, "nr_isomers:": 9}

$$$$
_i1
     RDKit          3D

 51 53  0  0  0  0  0  0  0  0999 V2000
   -1.4998   -0.1508   -0.0351 N   0  0  0  0  0  0  0  0  0  0  0  0
   -2.6181   -0.8690    0.3424 C   0  0  0  0  0  0  0  0  0  0  0  0
   -3.8886   -0.3110    0.4543 N   0  0  0  0  0  0  0  0  0  0  0  0
   -4.2075    1.0012    0.0340 C   0  0  0  0  0  0  0  0  0  0  0  0
   -4.8799    1.1755   -1.1862 C   0  0  0  0  0  0  0  0  0  0  0  0
   -5.1433    2.4523   -1.6827 C   0  0  0  0  0  0  0  0  0  0  0  0
   -4.7265    3.5720   -0.9710 C   0  0  0  0  0  0  0  0  0  0  0  0
   -4.0530    3.4158    0.2399 C   0  0  0  0  0  0  0  0  0  0  0  0
   -3.7954    2.1366    0.7606 C   0  0  0  0  0  0  0  0  0  0  0  0
   -3.0725    2.0261    2.0761 C   0  0  0  0  0  0  0  0  0  0  0  0
   -2.3879   -2.1626    0.5994 C   0  0  0  0  0  0  0  0  0  0  0  0
   -3.1466   -3.3305    1.0585 C   0  0  0  0  0  0  0  0  0  0  0  0
   -2.4109   -4.4061    1.1804 N   0  0  0  0  0  0  0  0  0  0  0  0
   -1.1230   -4.0262    0.7661 N   0  0  0  0  0  0  0  0  0  0  0  0
   -0.0071   -4.8861    1.0789 C   0  0  0  0  0  0  0  0  0  0  0  0
   -1.0093   -2.6806    0.4533 C   0  0  0  0  0  0  0  0  0  0  0  0
    0.0240   -1.9860    0.1172 N   0  0  0  0  0  0  0  0  0  0  0  0
   -0.2311   -0.6561   -0.1409 C   0  0  0  0  0  0  0  0  0  0  0  0
    0.7262    0.1383   -0.4913 N   0  0  0  0  0  0  0  0  0  0  0  0
    2.0671   -0.4416   -0.5945 C   0  0  0  0  0  0  0  0  0  0  0  0
    3.0286    0.6697   -1.0230 C   0  0  0  0  0  0  0  0  0  0  0  0
    4.4566    0.1733   -1.2729 C   0  0  0  0  0  0  0  0  0  0  0  0
    5.2244   -0.2619   -0.0191 C   0  0  0  0  0  0  0  0  0  0  0  0
    6.1069    0.8266    0.5999 C   0  0  0  0  0  0  0  0  0  0  0  0
    5.3429    2.0189    1.1484 C   0  0  0  0  0  0  0  0  0  0  0  0
   -1.6185    0.8259   -0.2616 H   0  0  0  0  0  0  0  0  0  0  0  0
   -4.6277   -0.9712    0.2277 H   0  0  0  0  0  0  0  0  0  0  0  0
   -5.1865    0.3128   -1.7723 H   0  0  0  0  0  0  0  0  0  0  0  0
   -5.6614    2.5718   -2.6306 H   0  0  0  0  0  0  0  0  0  0  0  0
   -4.9222    4.5685   -1.3590 H   0  0  0  0  0  0  0  0  0  0  0  0
   -3.7319    4.3026    0.7830 H   0  0  0  0  0  0  0  0  0  0  0  0
   -1.9942    1.9449    1.9116 H   0  0  0  0  0  0  0  0  0  0  0  0
   -3.2606    2.9082    2.6981 H   0  0  0  0  0  0  0  0  0  0  0  0
   -3.4181    1.1603    2.6497 H   0  0  0  0  0  0  0  0  0  0  0  0
   -4.2175   -3.2584    1.2872 H   0  0  0  0  0  0  0  0  0  0  0  0
   -0.2962   -5.9393    1.0028 H   0  0  0  0  0  0  0  0  0  0  0  0
    0.8224   -4.7172    0.3848 H   0  0  0  0  0  0  0  0  0  0  0  0
    0.3461   -4.6964    2.0972 H   0  0  0  0  0  0  0  0  0  0  0  0
    2.3771   -0.8515    0.3726 H   0  0  0  0  0  0  0  0  0  0  0  0
    2.0827   -1.2418   -1.3444 H   0  0  0  0  0  0  0  0  0  0  0  0
    2.6548    1.1148   -1.9545 H   0  0  0  0  0  0  0  0  0  0  0  0
    3.0168    1.4722   -0.2790 H   0  0  0  0  0  0  0  0  0  0  0  0
    4.4033   -0.6803   -1.9608 H   0  0  0  0  0  0  0  0  0  0  0  0
    5.0206    0.9523   -1.8000 H   0  0  0  0  0  0  0  0  0  0  0  0
    5.8919   -1.0844   -0.3078 H   0  0  0  0  0  0  0  0  0  0  0  0
    4.5530   -0.6709    0.7424 H   0  0  0  0  0  0  0  0  0  0  0  0
    6.8393    1.1745   -0.1382 H   0  0  0  0  0  0  0  0  0  0  0  0
    6.6804    0.3761    1.4193 H   0  0  0  0  0  0  0  0  0  0  0  0
    4.5500    1.7006    1.8323 H   0  0  0  0  0  0  0  0  0  0  0  0
    4.8984    2.6104    0.3431 H   0  0  0  0  0  0  0  0  0  0  0  0
    6.0217    2.6774    1.7002 H   0  0  0  0  0  0  0  0  0  0  0  0
  1  2  1  0
  2  3  1  0
  3  4  1  0
  4  5  2  0
  5  6  1  0
  6  7  2  0
  7  8  1  0
  8  9  2  0
  9 10  1  0
  2 11  2  0
 11 12  1  0
 12 13  2  0
 13 14  1  0
 14 15  1  0
 14 16  1  0
 16 17  2  0
 17 18  1  0
 18 19  2  3
 19 20  1  0
 20 21  1  0
 21 22  1  0
 22 23  1  0
 23 24  1  0
 24 25  1  0
 18  1  1  0
  9  4  1  0
 16 11  1  0
  1 26  1  0
  3 27  1  0
  5 28  1  0
  6 29  1  0
  7 30  1  0
  8 31  1  0
 10 32  1  0
 10 33  1  0
 10 34  1  0
 12 35  1  0
 15 36  1  0
 15 37  1  0
 15 38  1  0
 20 39  1  0
 20 40  1  0
 21 41  1  0
 21 42  1  0
 22 43  1  0
 22 44  1  0
 23 45  1  0
 23 46  1  0
 24 47  1  0
 24 48  1  0
 25 49  1  0
 25 50  1  0
 25 51  1  0
M  END
>  <ScrubInfo>  (2) 
{"isomerGroup": 0, "isomerId": 1, "confId": 0, "nr_conformers:": 1, "nr_isomers:": 9}

$$$$
_i2
     RDKit          3D

 51 53  0  0  0  0  0  0  0  0999 V2000
    0.4964    0.0270   -0.3434 N   0  0  0  0  0  0  0  0  0  0  0  0
   -0.1257   -1.1900   -0.4528 C   0  0  0  0  0  0  0  0  0  0  0  0
   -1.4759   -1.1666   -0.6625 N   0  0  0  0  0  0  0  0  0  0  0  0
   -2.3755   -0.3500    0.1404 C   0  0  0  0  0  0  0  0  0  0  0  0
   -3.8168   -0.5710   -0.3205 C   0  0  0  0  0  0  0  0  0  0  0  0
   -4.7949    0.2812    0.4898 C   0  0  0  0  0  0  0  0  0  0  0  0
   -6.2640    0.0143    0.1483 C   0  0  0  0  0  0  0  0  0  0  0  0
   -6.6686    0.2828   -1.3032 C   0  0  0  0  0  0  0  0  0  0  0  0
   -6.4396    1.7204   -1.7426 C   0  0  0  0  0  0  0  0  0  0  0  0
    0.4956   -2.3402   -0.3823 N   0  0  0  0  0  0  0  0  0  0  0  0
    1.8316   -2.1733   -0.1655 C   0  0  0  0  0  0  0  0  0  0  0  0
    2.5466   -0.9907   -0.0440 C   0  0  0  0  0  0  0  0  0  0  0  0
    3.8709   -1.4070    0.1797 C   0  0  0  0  0  0  0  0  0  0  0  0
    3.9996   -2.7401    0.1998 N   0  0  0  0  0  0  0  0  0  0  0  0
    2.7411   -3.1829   -0.0205 N   0  0  0  0  0  0  0  0  0  0  0  0
    2.4912   -4.6013   -0.0706 C   0  0  0  0  0  0  0  0  0  0  0  0
    1.8384    0.2692   -0.1636 C   0  0  0  0  0  0  0  0  0  0  0  0
    2.3107    1.4781   -0.1293 N   0  0  0  0  0  0  0  0  0  0  0  0
    3.6754    1.7355    0.0385 C   0  0  0  0  0  0  0  0  0  0  0  0
    4.4948    1.8286   -1.0934 C   0  0  0  0  0  0  0  0  0  0  0  0
    5.8564    2.1026   -0.9665 C   0  0  0  0  0  0  0  0  0  0  0  0
    6.4076    2.3007    0.2963 C   0  0  0  0  0  0  0  0  0  0  0  0
    5.5964    2.2371    1.4302 C   0  0  0  0  0  0  0  0  0  0  0  0
    4.2234    1.9700    1.3126 C   0  0  0  0  0  0  0  0  0  0  0  0
    3.3656    1.9085    2.5444 C   0  0  0  0  0  0  0  0  0  0  0  0
   -0.0416    0.8472   -0.5666 H   0  0  0  0  0  0  0  0  0  0  0  0
   -1.8022   -2.1297   -0.7241 H   0  0  0  0  0  0  0  0  0  0  0  0
   -2.1219    0.7107    0.0386 H   0  0  0  0  0  0  0  0  0  0  0  0
   -2.2725   -0.6233    1.1969 H   0  0  0  0  0  0  0  0  0  0  0  0
   -4.0789   -1.6316   -0.2189 H   0  0  0  0  0  0  0  0  0  0  0  0
   -3.8932   -0.3257   -1.3863 H   0  0  0  0  0  0  0  0  0  0  0  0
   -4.5643    1.3440    0.3532 H   0  0  0  0  0  0  0  0  0  0  0  0
   -4.6525    0.0711    1.5575 H   0  0  0  0  0  0  0  0  0  0  0  0
   -6.4998   -1.0305    0.3864 H   0  0  0  0  0  0  0  0  0  0  0  0
   -6.8889    0.6282    0.8090 H   0  0  0  0  0  0  0  0  0  0  0  0
   -6.1380   -0.3960   -1.9797 H   0  0  0  0  0  0  0  0  0  0  0  0
   -7.7355    0.0520   -1.4105 H   0  0  0  0  0  0  0  0  0  0  0  0
   -5.3739    1.9660   -1.7708 H   0  0  0  0  0  0  0  0  0  0  0  0
   -6.8412    1.8738   -2.7494 H   0  0  0  0  0  0  0  0  0  0  0  0
   -6.9399    2.4222   -1.0679 H   0  0  0  0  0  0  0  0  0  0  0  0
    4.7604   -0.8118    0.3330 H   0  0  0  0  0  0  0  0  0  0  0  0
    1.4492   -4.7914   -0.3368 H   0  0  0  0  0  0  0  0  0  0  0  0
    3.1490   -5.0411   -0.8247 H   0  0  0  0  0  0  0  0  0  0  0  0
    2.7060   -5.0217    0.9151 H   0  0  0  0  0  0  0  0  0  0  0  0
    4.0650    1.6809   -2.0805 H   0  0  0  0  0  0  0  0  0  0  0  0
    6.4834    2.1625   -1.8519 H   0  0  0  0  0  0  0  0  0  0  0  0
    7.4689    2.5123    0.3993 H   0  0  0  0  0  0  0  0  0  0  0  0
    6.0418    2.4029    2.4086 H   0  0  0  0  0  0  0  0  0  0  0  0
    3.0596    0.8762    2.7408 H   0  0  0  0  0  0  0  0  0  0  0  0
    3.9043    2.2746    3.4249 H   0  0  0  0  0  0  0  0  0  0  0  0
    2.4758    2.5353    2.4258 H   0  0  0  0  0  0  0  0  0  0  0  0
  1  2  1  0
  2  3  1  0
  3  4  1  0
  4  5  1  0
  5  6  1  0
  6  7  1  0
  7  8  1  0
  8  9  1  0
  2 10  2  0
 10 11  1  0
 11 12  2  0
 12 13  1  0
 13 14  2  0
 14 15  1  0
 15 16  1  0
 12 17  1  0
 17 18  2  3
 18 19  1  0
 19 20  2  0
 20 21  1  0
 21 22  2  0
 22 23  1  0
 23 24  2  0
 24 25  1  0
 17  1  1  0
 24 19  1  0
 15 11  1  0
  1 26  1  0
  3 27  1  0
  4 28  1  0
  4 29  1  0
  5 30  1  0
  5 31  1  0
  6 32  1  0
  6 33  1  0
  7 34  1  0
  7 35  1  0
  8 36  1  0
  8 37  1  0
  9 38  1  0
  9 39  1  0
  9 40  1  0
 13 41  1  0
 16 42  1  0
 16 43  1  0
 16 44  1  0
 20 45  1  0
 21 46  1  0
 22 47  1  0
 23 48  1  0
 25 49  1  0
 25 50  1  0
 25 51  1  0
M  END
>  <ScrubInfo>  (3) 
{"isomerGroup": 0, "isomerId": 2, "confId": 0, "nr_conformers:": 1, "nr_isomers:": 9}

$$$$
_i3
     RDKit          3D

 51 53  0  0  0  0  0  0  0  0999 V2000
    0.1573    0.9082    0.5479 N   0  0  0  0  0  0  0  0  0  0  0  0
    0.0333    0.1253   -0.5888 C   0  0  0  0  0  0  0  0  0  0  0  0
    0.9583   -0.5936   -1.1200 N   0  0  0  0  0  0  0  0  0  0  0  0
    2.2813   -0.6241   -0.5109 C   0  0  0  0  0  0  0  0  0  0  0  0
    3.1630   -1.5618   -1.3361 C   0  0  0  0  0  0  0  0  0  0  0  0
    4.5487   -1.7954   -0.7268 C   0  0  0  0  0  0  0  0  0  0  0  0
    5.4262   -0.5409   -0.7170 C   0  0  0  0  0  0  0  0  0  0  0  0
    6.8141   -0.7783   -0.1156 C   0  0  0  0  0  0  0  0  0  0  0  0
    7.6885   -1.7044   -0.9469 C   0  0  0  0  0  0  0  0  0  0  0  0
   -1.1668    0.0497   -1.2802 N   0  0  0  0  0  0  0  0  0  0  0  0
   -2.2072    0.7064   -0.8490 C   0  0  0  0  0  0  0  0  0  0  0  0
   -3.4135    0.6754   -1.5033 N   0  0  0  0  0  0  0  0  0  0  0  0
   -4.6488    0.3786   -0.8698 C   0  0  0  0  0  0  0  0  0  0  0  0
   -5.7529    1.1661   -1.2390 C   0  0  0  0  0  0  0  0  0  0  0  0
   -7.0189    0.9288   -0.7058 C   0  0  0  0  0  0  0  0  0  0  0  0
   -7.2046   -0.1199    0.1864 C   0  0  0  0  0  0  0  0  0  0  0  0
   -6.1301   -0.9421    0.5253 C   0  0  0  0  0  0  0  0  0  0  0  0
   -4.8502   -0.7246   -0.0162 C   0  0  0  0  0  0  0  0  0  0  0  0
   -3.7500   -1.6816    0.3551 C   0  0  0  0  0  0  0  0  0  0  0  0
   -2.1144    1.5468    0.3227 C   0  0  0  0  0  0  0  0  0  0  0  0
   -2.9412    2.4099    1.0576 C   0  0  0  0  0  0  0  0  0  0  0  0
   -2.3030    2.9624    2.1024 N   0  0  0  0  0  0  0  0  0  0  0  0
   -1.0525    2.4462    2.0278 N   0  0  0  0  0  0  0  0  0  0  0  0
   -0.0761    2.8355    3.0128 C   0  0  0  0  0  0  0  0  0  0  0  0
   -0.9122    1.6025    0.9725 C   0  0  0  0  0  0  0  0  0  0  0  0
    1.0594    0.9344    0.9972 H   0  0  0  0  0  0  0  0  0  0  0  0
    2.7136    0.3821   -0.5025 H   0  0  0  0  0  0  0  0  0  0  0  0
    2.2209   -0.9951    0.5190 H   0  0  0  0  0  0  0  0  0  0  0  0
    2.6602   -2.5332   -1.4291 H   0  0  0  0  0  0  0  0  0  0  0  0
    3.2660   -1.1713   -2.3563 H   0  0  0  0  0  0  0  0  0  0  0  0
    5.0393   -2.5813   -1.3121 H   0  0  0  0  0  0  0  0  0  0  0  0
    4.4410   -2.1809    0.2942 H   0  0  0  0  0  0  0  0  0  0  0  0
    5.5291   -0.1519   -1.7372 H   0  0  0  0  0  0  0  0  0  0  0  0
    4.9391    0.2427   -0.1259 H   0  0  0  0  0  0  0  0  0  0  0  0
    6.7178   -1.1801    0.8997 H   0  0  0  0  0  0  0  0  0  0  0  0
    7.3223    0.1894   -0.0263 H   0  0  0  0  0  0  0  0  0  0  0  0
    7.2917   -2.7234   -0.9653 H   0  0  0  0  0  0  0  0  0  0  0  0
    7.7726   -1.3458   -1.9776 H   0  0  0  0  0  0  0  0  0  0  0  0
    8.6962   -1.7505   -0.5214 H   0  0  0  0  0  0  0  0  0  0  0  0
   -3.3214    0.0607   -2.3104 H   0  0  0  0  0  0  0  0  0  0  0  0
   -5.6185    1.9907   -1.9363 H   0  0  0  0  0  0  0  0  0  0  0  0
   -7.8558    1.5624   -0.9866 H   0  0  0  0  0  0  0  0  0  0  0  0
   -8.1878   -0.3082    0.6099 H   0  0  0  0  0  0  0  0  0  0  0  0
   -6.3015   -1.7707    1.2102 H   0  0  0  0  0  0  0  0  0  0  0  0
   -3.1755   -1.9762   -0.5285 H   0  0  0  0  0  0  0  0  0  0  0  0
   -3.0864   -1.2319    1.0991 H   0  0  0  0  0  0  0  0  0  0  0  0
   -4.1556   -2.6047    0.7840 H   0  0  0  0  0  0  0  0  0  0  0  0
   -3.9784    2.6672    0.8872 H   0  0  0  0  0  0  0  0  0  0  0  0
    0.0922    3.9116    2.9233 H   0  0  0  0  0  0  0  0  0  0  0  0
   -0.4681    2.5906    4.0033 H   0  0  0  0  0  0  0  0  0  0  0  0
    0.8592    2.2981    2.8438 H   0  0  0  0  0  0  0  0  0  0  0  0
  1  2  1  0
  2  3  2  3
  3  4  1  0
  4  5  1  0
  5  6  1  0
  6  7  1  0
  7  8  1  0
  8  9  1  0
  2 10  1  0
 10 11  2  0
 11 12  1  0
 12 13  1  0
 13 14  2  0
 14 15  1  0
 15 16  2  0
 16 17  1  0
 17 18  2  0
 18 19  1  0
 11 20  1  0
 20 21  1  0
 21 22  2  0
 22 23  1  0
 23 24  1  0
 23 25  1  0
 25  1  1  0
 18 13  1  0
 25 20  2  0
  1 26  1  0
  4 27  1  0
  4 28  1  0
  5 29  1  0
  5 30  1  0
  6 31  1  0
  6 32  1  0
  7 33  1  0
  7 34  1  0
  8 35  1  0
  8 36  1  0
  9 37  1  0
  9 38  1  0
  9 39  1  0
 12 40  1  0
 14 41  1  0
 15 42  1  0
 16 43  1  0
 17 44  1  0
 19 45  1  0
 19 46  1  0
 19 47  1  0
 21 48  1  0
 24 49  1  0
 24 50  1  0
 24 51  1  0
M  END
>  <ScrubInfo>  (4) 
{"isomerGroup": 0, "isomerId": 3, "confId": 0, "nr_conformers:": 1, "nr_isomers:": 9}

$$$$
_i4
     RDKit          3D

 51 53  0  0  0  0  0  0  0  0999 V2000
   -3.0577    2.8443    0.5888 N   0  0  0  0  0  0  0  0  0  0  0  0
   -3.4217    1.5361    0.2859 C   0  0  0  0  0  0  0  0  0  0  0  0
   -2.3753    0.7086    0.1402 C   0  0  0  0  0  0  0  0  0  0  0  0
   -2.1071   -0.6855   -0.1902 C   0  0  0  0  0  0  0  0  0  0  0  0
   -2.9145   -1.6676   -0.4181 N   0  0  0  0  0  0  0  0  0  0  0  0
   -4.2999   -1.4806   -0.3589 C   0  0  0  0  0  0  0  0  0  0  0  0
   -4.9897   -1.1352   -1.5276 C   0  0  0  0  0  0  0  0  0  0  0  0
   -6.3712   -0.9445   -1.5099 C   0  0  0  0  0  0  0  0  0  0  0  0
   -7.0776   -1.1119   -0.3220 C   0  0  0  0  0  0  0  0  0  0  0  0
   -6.4057   -1.4833    0.8436 C   0  0  0  0  0  0  0  0  0  0  0  0
   -5.0168   -1.6863    0.8338 C   0  0  0  0  0  0  0  0  0  0  0  0
   -4.3112   -2.1021    2.0939 C   0  0  0  0  0  0  0  0  0  0  0  0
   -0.7737   -0.9887   -0.2740 N   0  0  0  0  0  0  0  0  0  0  0  0
    0.1709   -0.1282   -0.0343 C   0  0  0  0  0  0  0  0  0  0  0  0
    1.4476   -0.5931   -0.1608 N   0  0  0  0  0  0  0  0  0  0  0  0
    2.5771    0.2740   -0.4115 C   0  0  0  0  0  0  0  0  0  0  0  0
    3.8677   -0.5459   -0.4038 C   0  0  0  0  0  0  0  0  0  0  0  0
    5.0893    0.3404   -0.6518 C   0  0  0  0  0  0  0  0  0  0  0  0
    6.3990   -0.4453   -0.7691 C   0  0  0  0  0  0  0  0  0  0  0  0
    6.7936   -1.2673    0.4602 C   0  0  0  0  0  0  0  0  0  0  0  0
    6.9717   -0.4326    1.7186 C   0  0  0  0  0  0  0  0  0  0  0  0
   -0.0173    1.1794    0.3243 N   0  0  0  0  0  0  0  0  0  0  0  0
   -1.2313    1.5926    0.4316 C   0  0  0  0  0  0  0  0  0  0  0  0
   -1.6868    2.8598    0.7991 N   0  0  0  0  0  0  0  0  0  0  0  0
   -0.9332    4.0515    0.4619 C   0  0  0  0  0  0  0  0  0  0  0  0
   -3.6312    3.2601    1.3263 H   0  0  0  0  0  0  0  0  0  0  0  0
   -4.4734    1.3054    0.1994 H   0  0  0  0  0  0  0  0  0  0  0  0
   -4.4389   -1.0178   -2.4574 H   0  0  0  0  0  0  0  0  0  0  0  0
   -6.8935   -0.6747   -2.4238 H   0  0  0  0  0  0  0  0  0  0  0  0
   -8.1551   -0.9691   -0.3054 H   0  0  0  0  0  0  0  0  0  0  0  0
   -6.9747   -1.6278    1.7593 H   0  0  0  0  0  0  0  0  0  0  0  0
   -3.7027   -1.2769    2.4766 H   0  0  0  0  0  0  0  0  0  0  0  0
   -3.6714   -2.9710    1.9086 H   0  0  0  0  0  0  0  0  0  0  0  0
   -5.0244   -2.3861    2.8750 H   0  0  0  0  0  0  0  0  0  0  0  0
    1.4628   -1.4958   -0.6212 H   0  0  0  0  0  0  0  0  0  0  0  0
    2.4531    0.7678   -1.3822 H   0  0  0  0  0  0  0  0  0  0  0  0
    2.6362    1.0512    0.3593 H   0  0  0  0  0  0  0  0  0  0  0  0
    3.8143   -1.3258   -1.1737 H   0  0  0  0  0  0  0  0  0  0  0  0
    3.9608   -1.0581    0.5611 H   0  0  0  0  0  0  0  0  0  0  0  0
    5.1714    1.0918    0.1419 H   0  0  0  0  0  0  0  0  0  0  0  0
    4.9438    0.8963   -1.5868 H   0  0  0  0  0  0  0  0  0  0  0  0
    7.2066    0.2621   -0.9957 H   0  0  0  0  0  0  0  0  0  0  0  0
    6.3318   -1.1208   -1.6311 H   0  0  0  0  0  0  0  0  0  0  0  0
    7.7407   -1.7762    0.2432 H   0  0  0  0  0  0  0  0  0  0  0  0
    6.0564   -2.0562    0.6451 H   0  0  0  0  0  0  0  0  0  0  0  0
    7.6866    0.3797    1.5537 H   0  0  0  0  0  0  0  0  0  0  0  0
    6.0235    0.0013    2.0494 H   0  0  0  0  0  0  0  0  0  0  0  0
    7.3515   -1.0578    2.5331 H   0  0  0  0  0  0  0  0  0  0  0  0
    0.0897    3.9824    0.8457 H   0  0  0  0  0  0  0  0  0  0  0  0
   -0.8917    4.1919   -0.6233 H   0  0  0  0  0  0  0  0  0  0  0  0
   -1.3985    4.9357    0.9094 H   0  0  0  0  0  0  0  0  0  0  0  0
  1  2  1  0
  2  3  2  0
  3  4  1  0
  4  5  2  3
  5  6  1  0
  6  7  2  0
  7  8  1  0
  8  9  2  0
  9 10  1  0
 10 11  2  0
 11 12  1  0
  4 13  1  0
 13 14  2  0
 14 15  1  0
 15 16  1  0
 16 17  1  0
 17 18  1  0
 18 19  1  0
 19 20  1  0
 20 21  1  0
 14 22  1  0
 22 23  2  0
 23 24  1  0
 24 25  1  0
 24  1  1  0
 23  3  1  0
 11  6  1  0
  1 26  1  0
  2 27  1  0
  7 28  1  0
  8 29  1  0
  9 30  1  0
 10 31  1  0
 12 32  1  0
 12 33  1  0
 12 34  1  0
 15 35  1  0
 16 36  1  0
 16 37  1  0
 17 38  1  0
 17 39  1  0
 18 40  1  0
 18 41  1  0
 19 42  1  0
 19 43  1  0
 20 44  1  0
 20 45  1  0
 21 46  1  0
 21 47  1  0
 21 48  1  0
 25 49  1  0
 25 50  1  0
 25 51  1  0
M  END
>  <ScrubInfo>  (5) 
{"isomerGroup": 0, "isomerId": 4, "confId": 0, "nr_conformers:": 1, "nr_isomers:": 9}

$$$$
_i5
     RDKit          3D

 51 53  0  0  0  0  0  0  0  0999 V2000
   -0.3313   -1.5708   -0.0313 N   0  0  0  0  0  0  0  0  0  0  0  0
    0.2238   -0.3166   -0.0453 C   0  0  0  0  0  0  0  0  0  0  0  0
    1.5773   -0.2825   -0.2278 N   0  0  0  0  0  0  0  0  0  0  0  0
    2.4765   -1.0039    0.6657 C   0  0  0  0  0  0  0  0  0  0  0  0
    3.9278   -0.8736    0.1965 C   0  0  0  0  0  0  0  0  0  0  0  0
    4.4900    0.5380    0.3772 C   0  0  0  0  0  0  0  0  0  0  0  0
    6.0041    0.6431    0.1586 C   0  0  0  0  0  0  0  0  0  0  0  0
    6.4693    0.3352   -1.2676 C   0  0  0  0  0  0  0  0  0  0  0  0
    6.9389   -1.1009   -1.4508 C   0  0  0  0  0  0  0  0  0  0  0  0
   -0.4293    0.8030    0.0770 N   0  0  0  0  0  0  0  0  0  0  0  0
   -1.8081    0.7840    0.2584 C   0  0  0  0  0  0  0  0  0  0  0  0
   -2.3708    1.9376    0.4307 N   0  0  0  0  0  0  0  0  0  0  0  0
   -3.7462    2.0787    0.6313 C   0  0  0  0  0  0  0  0  0  0  0  0
   -4.2537    2.0331    1.9358 C   0  0  0  0  0  0  0  0  0  0  0  0
   -5.6192    2.1870    2.1750 C   0  0  0  0  0  0  0  0  0  0  0  0
   -6.4881    2.4044    1.1092 C   0  0  0  0  0  0  0  0  0  0  0  0
   -5.9911    2.4815   -0.1927 C   0  0  0  0  0  0  0  0  0  0  0  0
   -4.6177    2.3354   -0.4428 C   0  0  0  0  0  0  0  0  0  0  0  0
   -4.0970    2.4332   -1.8489 C   0  0  0  0  0  0  0  0  0  0  0  0
   -2.4490   -0.5215    0.2291 C   0  0  0  0  0  0  0  0  0  0  0  0
   -3.7533   -1.0448    0.2962 C   0  0  0  0  0  0  0  0  0  0  0  0
   -3.7849   -2.3838    0.1923 N   0  0  0  0  0  0  0  0  0  0  0  0
   -2.4841   -2.7254    0.0563 N   0  0  0  0  0  0  0  0  0  0  0  0
   -2.1363   -4.1164   -0.0826 C   0  0  0  0  0  0  0  0  0  0  0  0
   -1.6683   -1.6405    0.0802 C   0  0  0  0  0  0  0  0  0  0  0  0
    0.2498   -2.3303   -0.3583 H   0  0  0  0  0  0  0  0  0  0  0  0
    1.8403    0.7012   -0.2788 H   0  0  0  0  0  0  0  0  0  0  0  0
    2.2165   -2.0683    0.6764 H   0  0  0  0  0  0  0  0  0  0  0  0
    2.3685   -0.6271    1.6893 H   0  0  0  0  0  0  0  0  0  0  0  0
    3.9924   -1.1681   -0.8570 H   0  0  0  0  0  0  0  0  0  0  0  0
    4.5390   -1.5775    0.7742 H   0  0  0  0  0  0  0  0  0  0  0  0
    4.2729    0.8829    1.3959 H   0  0  0  0  0  0  0  0  0  0  0  0
    3.9834    1.2331   -0.3027 H   0  0  0  0  0  0  0  0  0  0  0  0
    6.2864    1.6794    0.3858 H   0  0  0  0  0  0  0  0  0  0  0  0
    6.5341    0.0157    0.8850 H   0  0  0  0  0  0  0  0  0  0  0  0
    7.3181    0.9896   -1.5022 H   0  0  0  0  0  0  0  0  0  0  0  0
    5.6833    0.5698   -1.9941 H   0  0  0  0  0  0  0  0  0  0  0  0
    7.2950   -1.2507   -2.4751 H   0  0  0  0  0  0  0  0  0  0  0  0
    6.1391   -1.8217   -1.2672 H   0  0  0  0  0  0  0  0  0  0  0  0
    7.7667   -1.3299   -0.7718 H   0  0  0  0  0  0  0  0  0  0  0  0
   -3.5738    1.8760    2.7690 H   0  0  0  0  0  0  0  0  0  0  0  0
   -6.0009    2.1426    3.1913 H   0  0  0  0  0  0  0  0  0  0  0  0
   -7.5528    2.5257    1.2917 H   0  0  0  0  0  0  0  0  0  0  0  0
   -6.6816    2.6655   -1.0127 H   0  0  0  0  0  0  0  0  0  0  0  0
   -4.8736    2.7795   -2.5392 H   0  0  0  0  0  0  0  0  0  0  0  0
   -3.2709    3.1496   -1.9041 H   0  0  0  0  0  0  0  0  0  0  0  0
   -3.7526    1.4533   -2.1939 H   0  0  0  0  0  0  0  0  0  0  0  0
   -4.6952   -0.5255    0.4089 H   0  0  0  0  0  0  0  0  0  0  0  0
   -1.0526   -4.2372   -0.0231 H   0  0  0  0  0  0  0  0  0  0  0  0
   -2.6120   -4.6765    0.7266 H   0  0  0  0  0  0  0  0  0  0  0  0
   -2.4989   -4.4644   -1.0530 H   0  0  0  0  0  0  0  0  0  0  0  0
  1  2  1  0
  2  3  1  0
  3  4  1  0
  4  5  1  0
  5  6  1  0
  6  7  1  0
  7  8  1  0
  8  9  1  0
  2 10  2  0
 10 11  1  0
 11 12  2  3
 12 13  1  0
 13 14  2  0
 14 15  1  0
 15 16  2  0
 16 17  1  0
 17 18  2  0
 18 19  1  0
 11 20  1  0
 20 21  1  0
 21 22  2  0
 22 23  1  0
 23 24  1  0
 23 25  1  0
 25  1  1  0
 18 13  1  0
 25 20  2  0
  1 26  1  0
  3 27  1  0
  4 28  1  0
  4 29  1  0
  5 30  1  0
  5 31  1  0
  6 32  1  0
  6 33  1  0
  7 34  1  0
  7 35  1  0
  8 36  1  0
  8 37  1  0
  9 38  1  0
  9 39  1  0
  9 40  1  0
 14 41  1  0
 15 42  1  0
 16 43  1  0
 17 44  1  0
 19 45  1  0
 19 46  1  0
 19 47  1  0
 21 48  1  0
 24 49  1  0
 24 50  1  0
 24 51  1  0
M  END
>  <ScrubInfo>  (6) 
{"isomerGroup": 0, "isomerId": 5, "confId": 0, "nr_conformers:": 1, "nr_isomers:": 9}

$$$$
_i6
     RDKit          3D

 51 53  0  0  0  0  0  0  0  0999 V2000
   -3.0631   -2.9006   -0.2370 N   0  0  0  0  0  0  0  0  0  0  0  0
   -3.0491   -1.6018    0.2610 C   0  0  0  0  0  0  0  0  0  0  0  0
   -1.8331   -1.0406    0.2265 C   0  0  0  0  0  0  0  0  0  0  0  0
   -1.1921    0.2300    0.5603 C   0  0  0  0  0  0  0  0  0  0  0  0
   -1.8475    1.3044    1.1264 N   0  0  0  0  0  0  0  0  0  0  0  0
   -3.1345    1.7211    0.7141 C   0  0  0  0  0  0  0  0  0  0  0  0
   -4.1047    1.8967    1.7134 C   0  0  0  0  0  0  0  0  0  0  0  0
   -5.3897    2.3363    1.3981 C   0  0  0  0  0  0  0  0  0  0  0  0
   -5.7142    2.6284    0.0783 C   0  0  0  0  0  0  0  0  0  0  0  0
   -4.7483    2.5012   -0.9199 C   0  0  0  0  0  0  0  0  0  0  0  0
   -3.4442    2.0745   -0.6143 C   0  0  0  0  0  0  0  0  0  0  0  0
   -2.4359    1.9947   -1.7287 C   0  0  0  0  0  0  0  0  0  0  0  0
    0.0851    0.3566    0.3261 N   0  0  0  0  0  0  0  0  0  0  0  0
    0.7694   -0.6924   -0.2480 C   0  0  0  0  0  0  0  0  0  0  0  0
    1.9950   -0.4155   -0.5207 N   0  0  0  0  0  0  0  0  0  0  0  0
    2.8156   -1.4628   -1.1196 C   0  0  0  0  0  0  0  0  0  0  0  0
    4.2480   -0.9502   -1.2906 C   0  0  0  0  0  0  0  0  0  0  0  0
    5.1017   -1.0074   -0.0172 C   0  0  0  0  0  0  0  0  0  0  0  0
    4.6473   -0.1315    1.1532 C   0  0  0  0  0  0  0  0  0  0  0  0
    4.6463    1.3632    0.8313 C   0  0  0  0  0  0  0  0  0  0  0  0
    4.2535    2.1902    2.0459 C   0  0  0  0  0  0  0  0  0  0  0  0
    0.2731   -1.9433   -0.5389 N   0  0  0  0  0  0  0  0  0  0  0  0
   -0.9791   -2.1265   -0.3006 C   0  0  0  0  0  0  0  0  0  0  0  0
   -1.7466   -3.2781   -0.4799 N   0  0  0  0  0  0  0  0  0  0  0  0
   -1.4642   -4.2026   -1.5610 C   0  0  0  0  0  0  0  0  0  0  0  0
   -3.6184   -3.5453    0.3303 H   0  0  0  0  0  0  0  0  0  0  0  0
   -3.9708   -1.1668    0.6205 H   0  0  0  0  0  0  0  0  0  0  0  0
   -1.2189    2.1046    1.1688 H   0  0  0  0  0  0  0  0  0  0  0  0
   -3.8592    1.6726    2.7494 H   0  0  0  0  0  0  0  0  0  0  0  0
   -6.1333    2.4522    2.1821 H   0  0  0  0  0  0  0  0  0  0  0  0
   -6.7149    2.9698   -0.1743 H   0  0  0  0  0  0  0  0  0  0  0  0
   -5.0161    2.7536   -1.9443 H   0  0  0  0  0  0  0  0  0  0  0  0
   -1.4673    2.3920   -1.4096 H   0  0  0  0  0  0  0  0  0  0  0  0
   -2.7510    2.5939   -2.5901 H   0  0  0  0  0  0  0  0  0  0  0  0
   -2.3185    0.9597   -2.0626 H   0  0  0  0  0  0  0  0  0  0  0  0
    2.8211   -2.3740   -0.5094 H   0  0  0  0  0  0  0  0  0  0  0  0
    2.4226   -1.7111   -2.1133 H   0  0  0  0  0  0  0  0  0  0  0  0
    4.7422   -1.5867   -2.0360 H   0  0  0  0  0  0  0  0  0  0  0  0
    4.2466    0.0639   -1.7062 H   0  0  0  0  0  0  0  0  0  0  0  0
    5.1481   -2.0478    0.3287 H   0  0  0  0  0  0  0  0  0  0  0  0
    6.1298   -0.7297   -0.2825 H   0  0  0  0  0  0  0  0  0  0  0  0
    5.3316   -0.3106    1.9926 H   0  0  0  0  0  0  0  0  0  0  0  0
    3.6572   -0.4458    1.5006 H   0  0  0  0  0  0  0  0  0  0  0  0
    5.6427    1.6707    0.4937 H   0  0  0  0  0  0  0  0  0  0  0  0
    3.9464    1.5829    0.0188 H   0  0  0  0  0  0  0  0  0  0  0  0
    4.2606    3.2560    1.7970 H   0  0  0  0  0  0  0  0  0  0  0  0
    3.2475    1.9282    2.3892 H   0  0  0  0  0  0  0  0  0  0  0  0
    4.9523    2.0301    2.8731 H   0  0  0  0  0  0  0  0  0  0  0  0
   -0.4242   -4.5412   -1.5167 H   0  0  0  0  0  0  0  0  0  0  0  0
   -2.1067   -5.0857   -1.4843 H   0  0  0  0  0  0  0  0  0  0  0  0
   -1.6379   -3.7292   -2.5330 H   0  0  0  0  0  0  0  0  0  0  0  0
  1  2  1  0
  2  3  2  0
  3  4  1  0
  4  5  1  0
  5  6  1  0
  6  7  2  0
  7  8  1  0
  8  9  2  0
  9 10  1  0
 10 11  2  0
 11 12  1  0
  4 13  2  0
 13 14  1  0
 14 15  2  3
 15 16  1  0
 16 17  1  0
 17 18  1  0
 18 19  1  0
 19 20  1  0
 20 21  1  0
 14 22  1  0
 22 23  2  0
 23 24  1  0
 24 25  1  0
 24  1  1  0
 23  3  1  0
 11  6  1  0
  1 26  1  0
  2 27  1  0
  5 28  1  0
  7 29  1  0
  8 30  1  0
  9 31  1  0
 10 32  1  0
 12 33  1  0
 12 34  1  0
 12 35  1  0
 16 36  1  0
 16 37  1  0
 17 38  1  0
 17 39  1  0
 18 40  1  0
 18 41  1  0
 19 42  1  0
 19 43  1  0
 20 44  1  0
 20 45  1  0
 21 46  1  0
 21 47  1  0
 21 48  1  0
 25 49  1  0
 25 50  1  0
 25 51  1  0
M  END
>  <ScrubInfo>  (7) 
{"isomerGroup": 0, "isomerId": 6, "confId": 0, "nr_conformers:": 1, "nr_isomers:": 9}

$$$$
_i7
     RDKit          3D

 51 53  0  0  0  0  0  0  0  0999 V2000
   -3.1560    2.3080   -1.6098 N   0  0  0  0  0  0  0  0  0  0  0  0
   -3.3252    1.2952   -0.6725 C   0  0  0  0  0  0  0  0  0  0  0  0
   -2.1721    0.7591   -0.2481 C   0  0  0  0  0  0  0  0  0  0  0  0
   -1.6784   -0.3059    0.6473 C   0  0  0  0  0  0  0  0  0  0  0  0
   -2.3484   -1.1081    1.4211 N   0  0  0  0  0  0  0  0  0  0  0  0
   -3.7444   -1.0280    1.4993 C   0  0  0  0  0  0  0  0  0  0  0  0
   -4.3249   -0.1807    2.4511 C   0  0  0  0  0  0  0  0  0  0  0  0
   -5.7114   -0.0816    2.5656 C   0  0  0  0  0  0  0  0  0  0  0  0
   -6.5302   -0.8416    1.7349 C   0  0  0  0  0  0  0  0  0  0  0  0
   -5.9636   -1.7091    0.8000 C   0  0  0  0  0  0  0  0  0  0  0  0
   -4.5694   -1.8225    0.6831 C   0  0  0  0  0  0  0  0  0  0  0  0
   -3.9768   -2.7696   -0.3216 C   0  0  0  0  0  0  0  0  0  0  0  0
   -0.3155   -0.4194    0.6095 N   0  0  0  0  0  0  0  0  0  0  0  0
    0.5614    0.3265   -0.1252 C   0  0  0  0  0  0  0  0  0  0  0  0
    1.8217    0.0487   -0.0448 N   0  0  0  0  0  0  0  0  0  0  0  0
    2.7386    0.8685   -0.8381 C   0  0  0  0  0  0  0  0  0  0  0  0
    4.1717    0.3919   -0.5901 C   0  0  0  0  0  0  0  0  0  0  0  0
    4.6383    0.6690    0.8426 C   0  0  0  0  0  0  0  0  0  0  0  0
    6.1150    0.3339    1.0757 C   0  0  0  0  0  0  0  0  0  0  0  0
    6.5090   -1.1268    0.8438 C   0  0  0  0  0  0  0  0  0  0  0  0
    5.7570   -2.1079    1.7293 C   0  0  0  0  0  0  0  0  0  0  0  0
    0.1305    1.3567   -0.9343 N   0  0  0  0  0  0  0  0  0  0  0  0
   -1.1464    1.5778   -0.9872 C   0  0  0  0  0  0  0  0  0  0  0  0
   -1.7985    2.5723   -1.7205 N   0  0  0  0  0  0  0  0  0  0  0  0
   -1.2699    3.0316   -2.9907 C   0  0  0  0  0  0  0  0  0  0  0  0
   -3.7615    3.1156   -1.4464 H   0  0  0  0  0  0  0  0  0  0  0  0
   -4.3314    1.0345   -0.3790 H   0  0  0  0  0  0  0  0  0  0  0  0
   -3.6859    0.4032    3.1085 H   0  0  0  0  0  0  0  0  0  0  0  0
   -6.1494    0.5808    3.3074 H   0  0  0  0  0  0  0  0  0  0  0  0
   -7.6114   -0.7704    1.8238 H   0  0  0  0  0  0  0  0  0  0  0  0
   -6.6176   -2.3070    0.1687 H   0  0  0  0  0  0  0  0  0  0  0  0
   -3.5101   -2.2109   -1.1388 H   0  0  0  0  0  0  0  0  0  0  0  0
   -4.7418   -3.4235   -0.7536 H   0  0  0  0  0  0  0  0  0  0  0  0
   -3.2293   -3.4146    0.1516 H   0  0  0  0  0  0  0  0  0  0  0  0
    0.1001   -1.1390    1.1813 H   0  0  0  0  0  0  0  0  0  0  0  0
    2.5187    0.7555   -1.9067 H   0  0  0  0  0  0  0  0  0  0  0  0
    2.6549    1.9291   -0.5716 H   0  0  0  0  0  0  0  0  0  0  0  0
    4.8381    0.9074   -1.2920 H   0  0  0  0  0  0  0  0  0  0  0  0
    4.2363   -0.6804   -0.8069 H   0  0  0  0  0  0  0  0  0  0  0  0
    4.0155    0.1194    1.5573 H   0  0  0  0  0  0  0  0  0  0  0  0
    4.4942    1.7338    1.0654 H   0  0  0  0  0  0  0  0  0  0  0  0
    6.3731    0.6106    2.1057 H   0  0  0  0  0  0  0  0  0  0  0  0
    6.7304    0.9670    0.4244 H   0  0  0  0  0  0  0  0  0  0  0  0
    7.5825   -1.2289    1.0446 H   0  0  0  0  0  0  0  0  0  0  0  0
    6.3660   -1.3987   -0.2077 H   0  0  0  0  0  0  0  0  0  0  0  0
    4.6914   -2.1349    1.4829 H   0  0  0  0  0  0  0  0  0  0  0  0
    5.8625   -1.8441    2.7863 H   0  0  0  0  0  0  0  0  0  0  0  0
    6.1540   -3.1188    1.5912 H   0  0  0  0  0  0  0  0  0  0  0  0
   -0.2378    3.3782   -2.8767 H   0  0  0  0  0  0  0  0  0  0  0  0
   -1.2902    2.2278   -3.7340 H   0  0  0  0  0  0  0  0  0  0  0  0
   -1.8633    3.8703   -3.3693 H   0  0  0  0  0  0  0  0  0  0  0  0
  1  2  1  0
  2  3  2  0
  3  4  1  0
  4  5  2  3
  5  6  1  0
  6  7  2  0
  7  8  1  0
  8  9  2  0
  9 10  1  0
 10 11  2  0
 11 12  1  0
  4 13  1  0
 13 14  1  0
 14 15  2  3
 15 16  1  0
 16 17  1  0
 17 18  1  0
 18 19  1  0
 19 20  1  0
 20 21  1  0
 14 22  1  0
 22 23  2  0
 23 24  1  0
 24 25  1  0
 24  1  1  0
 23  3  1  0
 11  6  1  0
  1 26  1  0
  2 27  1  0
  7 28  1  0
  8 29  1  0
  9 30  1  0
 10 31  1  0
 12 32  1  0
 12 33  1  0
 12 34  1  0
 13 35  1  0
 16 36  1  0
 16 37  1  0
 17 38  1  0
 17 39  1  0
 18 40  1  0
 18 41  1  0
 19 42  1  0
 19 43  1  0
 20 44  1  0
 20 45  1  0
 21 46  1  0
 21 47  1  0
 21 48  1  0
 25 49  1  0
 25 50  1  0
 25 51  1  0
M  END
>  <ScrubInfo>  (8) 
{"isomerGroup": 0, "isomerId": 7, "confId": 0, "nr_conformers:": 1, "nr_isomers:": 9}

$$$$
_i8
     RDKit          3D

 51 53  0  0  0  0  0  0  0  0999 V2000
    0.0401   -1.7801   -0.3326 N   0  0  0  0  0  0  0  0  0  0  0  0
    0.5975   -0.9994    0.6659 C   0  0  0  0  0  0  0  0  0  0  0  0
    1.7456   -1.1342    1.2354 N   0  0  0  0  0  0  0  0  0  0  0  0
    2.6350   -2.2282    0.8626 C   0  0  0  0  0  0  0  0  0  0  0  0
    3.4661   -1.8791   -0.3726 C   0  0  0  0  0  0  0  0  0  0  0  0
    4.6604   -0.9531   -0.1063 C   0  0  0  0  0  0  0  0  0  0  0  0
    4.2716    0.4740    0.2855 C   0  0  0  0  0  0  0  0  0  0  0  0
    5.4753    1.4083    0.4400 C   0  0  0  0  0  0  0  0  0  0  0  0
    6.1820    1.7143   -0.8717 C   0  0  0  0  0  0  0  0  0  0  0  0
   -0.2136    0.0425    1.0582 N   0  0  0  0  0  0  0  0  0  0  0  0
   -1.4647    0.4429    0.6422 C   0  0  0  0  0  0  0  0  0  0  0  0
   -2.0467    1.4785    1.1683 N   0  0  0  0  0  0  0  0  0  0  0  0
   -3.3134    1.9102    0.7622 C   0  0  0  0  0  0  0  0  0  0  0  0
   -3.4123    2.8490   -0.2722 C   0  0  0  0  0  0  0  0  0  0  0  0
   -4.6569    3.3177   -0.6922 C   0  0  0  0  0  0  0  0  0  0  0  0
   -5.8147    2.8607   -0.0689 C   0  0  0  0  0  0  0  0  0  0  0  0
   -5.7277    1.9462    0.9818 C   0  0  0  0  0  0  0  0  0  0  0  0
   -4.4794    1.4750    1.4177 C   0  0  0  0  0  0  0  0  0  0  0  0
   -4.4051    0.4964    2.5553 C   0  0  0  0  0  0  0  0  0  0  0  0
   -1.9655   -0.4350   -0.4026 C   0  0  0  0  0  0  0  0  0  0  0  0
   -3.1277   -0.5505   -1.1880 C   0  0  0  0  0  0  0  0  0  0  0  0
   -3.0818   -1.5875   -2.0383 N   0  0  0  0  0  0  0  0  0  0  0  0
   -1.8736   -2.1425   -1.8041 N   0  0  0  0  0  0  0  0  0  0  0  0
   -1.4770   -3.3088   -2.5522 C   0  0  0  0  0  0  0  0  0  0  0  0
   -1.1846   -1.4887   -0.8290 C   0  0  0  0  0  0  0  0  0  0  0  0
    0.5949   -2.5507   -0.6773 H   0  0  0  0  0  0  0  0  0  0  0  0
    3.2962   -2.4437    1.7098 H   0  0  0  0  0  0  0  0  0  0  0  0
    2.0719   -3.1529    0.6894 H   0  0  0  0  0  0  0  0  0  0  0  0
    3.8691   -2.8173   -0.7751 H   0  0  0  0  0  0  0  0  0  0  0  0
    2.8353   -1.4489   -1.1593 H   0  0  0  0  0  0  0  0  0  0  0  0
    5.2612   -0.9290   -1.0224 H   0  0  0  0  0  0  0  0  0  0  0  0
    5.2967   -1.3889    0.6736 H   0  0  0  0  0  0  0  0  0  0  0  0
    3.5755    0.8893   -0.4530 H   0  0  0  0  0  0  0  0  0  0  0  0
    3.7485    0.4572    1.2474 H   0  0  0  0  0  0  0  0  0  0  0  0
    6.1917    0.9817    1.1516 H   0  0  0  0  0  0  0  0  0  0  0  0
    5.1252    2.3538    0.8714 H   0  0  0  0  0  0  0  0  0  0  0  0
    6.6623    0.8245   -1.2881 H   0  0  0  0  0  0  0  0  0  0  0  0
    5.4806    2.1093   -1.6134 H   0  0  0  0  0  0  0  0  0  0  0  0
    6.9622    2.4652   -0.7105 H   0  0  0  0  0  0  0  0  0  0  0  0
    0.1852    0.6202    1.7841 H   0  0  0  0  0  0  0  0  0  0  0  0
   -2.5086    3.2135   -0.7533 H   0  0  0  0  0  0  0  0  0  0  0  0
   -4.7206    4.0402   -1.5013 H   0  0  0  0  0  0  0  0  0  0  0  0
   -6.7867    3.2232   -0.3939 H   0  0  0  0  0  0  0  0  0  0  0  0
   -6.6416    1.6079    1.4652 H   0  0  0  0  0  0  0  0  0  0  0  0
   -3.6843    0.8337    3.3072 H   0  0  0  0  0  0  0  0  0  0  0  0
   -5.3728    0.3942    3.0578 H   0  0  0  0  0  0  0  0  0  0  0  0
   -4.1106   -0.4909    2.1862 H   0  0  0  0  0  0  0  0  0  0  0  0
   -4.0173    0.0644   -1.1903 H   0  0  0  0  0  0  0  0  0  0  0  0
   -1.8135   -4.1932   -2.0063 H   0  0  0  0  0  0  0  0  0  0  0  0
   -1.9395   -3.2738   -3.5422 H   0  0  0  0  0  0  0  0  0  0  0  0
   -0.3900   -3.3175   -2.6614 H   0  0  0  0  0  0  0  0  0  0  0  0
  1  2  1  0
  2  3  2  3
  3  4  1  0
  4  5  1  0
  5  6  1  0
  6  7  1  0
  7  8  1  0
  8  9  1  0
  2 10  1  0
 10 11  1  0
 11 12  2  3
 12 13  1  0
 13 14  2  0
 14 15  1  0
 15 16  2  0
 16 17  1  0
 17 18  2  0
 18 19  1  0
 11 20  1  0
 20 21  1  0
 21 22  2  0
 22 23  1  0
 23 24  1  0
 23 25  1  0
 25  1  1  0
 18 13  1  0
 25 20  2  0
  1 26  1  0
  4 27  1  0
  4 28  1  0
  5 29  1  0
  5 30  1  0
  6 31  1  0
  6 32  1  0
  7 33  1  0
  7 34  1  0
  8 35  1  0
  8 36  1  0
  9 37  1  0
  9 38  1  0
  9 39  1  0
 10 40  1  0
 14 41  1  0
 15 42  1  0
 16 43  1  0
 17 44  1  0
 19 45  1  0
 19 46  1  0
 19 47  1  0
 21 48  1  0
 24 49  1  0
 24 50  1  0
 24 51  1  0
M  END
>  <ScrubInfo>  (9) 
{"isomerGroup": 0, "isomerId": 8, "confId": 0, "nr_conformers:": 1, "nr_isomers:": 9}

$$$$
