_i0
     RDKit          3D

 49 52  0  0  0  0  0  0  0  0999 V2000
    5.8991   -3.9621    1.2952 C   0  0  0  0  0  0  0  0  0  0  0  0
    5.0418   -2.7503    1.0865 C   0  0  0  0  0  0  0  0  0  0  0  0
    5.6103   -1.4769    1.0274 C   0  0  0  0  0  0  0  0  0  0  0  0
    4.8000   -0.3475    0.8647 C   0  0  0  0  0  0  0  0  0  0  0  0
    3.4028   -0.4526    0.7725 C   0  0  0  0  0  0  0  0  0  0  0  0
    2.6565    0.7165    0.5884 N   0  0  0  0  0  0  0  0  0  0  0  0
    1.3033    0.9812    0.3822 C   0  0  0  0  0  0  0  0  0  0  0  0
    0.4187    0.0079    0.2184 N   0  0  0  0  0  0  0  0  0  0  0  0
   -0.8331    0.3816    0.0174 C   0  0  0  0  0  0  0  0  0  0  0  0
   -1.7483   -0.6499   -0.1410 N   0  0  0  0  0  0  0  0  0  0  0  0
   -2.8260   -0.3565   -1.0629 C   0  0  0  0  0  0  0  0  0  0  0  0
   -3.6160   -1.6203   -1.3156 C   0  0  0  0  0  0  0  0  0  0  0  0
   -3.4951   -2.3120   -2.5295 C   0  0  0  0  0  0  0  0  0  0  0  0
   -4.2196   -3.4849   -2.7502 C   0  0  0  0  0  0  0  0  0  0  0  0
   -5.0658   -3.9806   -1.7597 C   0  0  0  0  0  0  0  0  0  0  0  0
   -5.1870   -3.3070   -0.5458 C   0  0  0  0  0  0  0  0  0  0  0  0
   -4.4642   -2.1342   -0.3232 C   0  0  0  0  0  0  0  0  0  0  0  0
   -1.2332    1.6415   -0.0365 N   0  0  0  0  0  0  0  0  0  0  0  0
   -0.2914    2.5594    0.1414 C   0  0  0  0  0  0  0  0  0  0  0  0
   -0.6632    3.9085    0.0825 N   0  0  0  0  0  0  0  0  0  0  0  0
   -1.9618    4.4123    0.4223 C   0  0  0  0  0  0  0  0  0  0  0  0
   -1.2906    5.7885    0.6022 C   0  0  0  0  0  0  0  0  0  0  0  0
   -1.7163    6.5791    1.7332 O   0  0  0  0  0  0  0  0  0  0  0  0
    0.0089    4.9731    0.7633 C   0  0  0  0  0  0  0  0  0  0  0  0
    0.9899    2.2707    0.3447 N   0  0  0  0  0  0  0  0  0  0  0  0
    2.8475   -1.7330    0.8399 C   0  0  0  0  0  0  0  0  0  0  0  0
    3.6525   -2.8679    1.0036 C   0  0  0  0  0  0  0  0  0  0  0  0
    5.4517   -4.8432    0.8234 H   0  0  0  0  0  0  0  0  0  0  0  0
    6.0188   -4.1561    2.3655 H   0  0  0  0  0  0  0  0  0  0  0  0
    6.8889   -3.8223    0.8480 H   0  0  0  0  0  0  0  0  0  0  0  0
    6.6877   -1.3513    1.1043 H   0  0  0  0  0  0  0  0  0  0  0  0
    5.2793    0.6270    0.8107 H   0  0  0  0  0  0  0  0  0  0  0  0
    3.1555    1.5897    0.6733 H   0  0  0  0  0  0  0  0  0  0  0  0
   -1.2193   -1.4866   -0.3603 H   0  0  0  0  0  0  0  0  0  0  0  0
   -3.5033    0.4042   -0.6535 H   0  0  0  0  0  0  0  0  0  0  0  0
   -2.4384    0.0282   -2.0157 H   0  0  0  0  0  0  0  0  0  0  0  0
   -2.8354   -1.9423   -3.3114 H   0  0  0  0  0  0  0  0  0  0  0  0
   -4.1220   -4.0139   -3.6948 H   0  0  0  0  0  0  0  0  0  0  0  0
   -5.6279   -4.8947   -1.9320 H   0  0  0  0  0  0  0  0  0  0  0  0
   -5.8407   -3.6965    0.2302 H   0  0  0  0  0  0  0  0  0  0  0  0
   -4.5552   -1.6211    0.6324 H   0  0  0  0  0  0  0  0  0  0  0  0
   -2.6792    4.3383   -0.3985 H   0  0  0  0  0  0  0  0  0  0  0  0
   -2.3737    3.9718    1.3367 H   0  0  0  0  0  0  0  0  0  0  0  0
   -1.3088    6.3935   -0.3139 H   0  0  0  0  0  0  0  0  0  0  0  0
   -1.1056    7.3358    1.7533 H   0  0  0  0  0  0  0  0  0  0  0  0
    0.2791    4.7280    1.7961 H   0  0  0  0  0  0  0  0  0  0  0  0
    0.8764    5.3526    0.2182 H   0  0  0  0  0  0  0  0  0  0  0  0
    1.7739   -1.8808    0.7805 H   0  0  0  0  0  0  0  0  0  0  0  0
    3.1783   -3.8450    1.0647 H   0  0  0  0  0  0  0  0  0  0  0  0
  1  2  1  0
  2  3  2  0
  3  4  1  0
  4  5  2  0
  5  6  1  0
  6  7  1  0
  7  8  2  0
  8  9  1  0
  9 10  1  0
 10 11  1  0
 11 12  1  0
 12 13  2  0
 13 14  1  0
 14 15  2  0
 15 16  1  0
 16 17  2  0
  9 18  2  0
 18 19  1  0
 19 20  1  0
 20 21  1  0
 21 22  1  0
 22 23  1  0
 22 24  1  0
 19 25  2  0
  5 26  1  0
 26 27  2  0
 27  2  1  0
 25  7  1  0
 17 12  1  0
 24 20  1  0
  1 28  1  0
  1 29  1  0
  1 30  1  0
  3 31  1  0
  4 32  1  0
  6 33  1  0
 10 34  1  0
 11 35  1  0
 11 36  1  0
 13 37  1  0
 14 38  1  0
 15 39  1  0
 16 40  1  0
 17 41  1  0
 21 42  1  0
 21 43  1  0
 22 44  1  0
 23 45  1  0
 24 46  1  0
 24 47  1  0
 26 48  1  0
 27 49  1  0
M  END
>  <ScrubInfo>  (1) 
{"isomerGroup": 0, "isomerId": 0, "confId": 0, "nr_conformers:": 1, "nr_isomers:": 9}

$$$$
_i1
     RDKit          3D

 49 52  0  0  0  0  0  0  0  0999 V2000
    1.0541   -1.5358   -0.5192 N   0  0  0  0  0  0  0  0  0  0  0  0
    1.8347   -0.4404   -0.5260 C   0  0  0  0  0  0  0  0  0  0  0  0
    3.1734   -0.7059   -0.5708 N   0  0  0  0  0  0  0  0  0  0  0  0
    4.1654    0.3379   -0.3727 C   0  0  0  0  0  0  0  0  0  0  0  0
    4.6096    0.3605    1.0696 C   0  0  0  0  0  0  0  0  0  0  0  0
    5.7760   -0.3072    1.4712 C   0  0  0  0  0  0  0  0  0  0  0  0
    6.1685   -0.3015    2.8109 C   0  0  0  0  0  0  0  0  0  0  0  0
    5.3973    0.3642    3.7620 C   0  0  0  0  0  0  0  0  0  0  0  0
    4.2319    1.0237    3.3762 C   0  0  0  0  0  0  0  0  0  0  0  0
    3.8383    1.0205    2.0375 C   0  0  0  0  0  0  0  0  0  0  0  0
    1.3129    0.7435   -0.5169 N   0  0  0  0  0  0  0  0  0  0  0  0
   -0.0665    0.8364   -0.4636 C   0  0  0  0  0  0  0  0  0  0  0  0
   -0.6074    2.1060   -0.3739 N   0  0  0  0  0  0  0  0  0  0  0  0
   -1.9061    2.3175   -0.9611 C   0  0  0  0  0  0  0  0  0  0  0  0
   -1.4261    3.7523   -1.2625 C   0  0  0  0  0  0  0  0  0  0  0  0
   -1.7442    4.7699   -0.2822 O   0  0  0  0  0  0  0  0  0  0  0  0
   -0.0149    3.1329   -1.1897 C   0  0  0  0  0  0  0  0  0  0  0  0
   -0.8555   -0.2027   -0.4665 N   0  0  0  0  0  0  0  0  0  0  0  0
   -0.2935   -1.4423   -0.5412 C   0  0  0  0  0  0  0  0  0  0  0  0
   -1.0159   -2.5198   -0.6444 N   0  0  0  0  0  0  0  0  0  0  0  0
   -2.4130   -2.3964   -0.6743 C   0  0  0  0  0  0  0  0  0  0  0  0
   -3.1507   -2.3616    0.5110 C   0  0  0  0  0  0  0  0  0  0  0  0
   -4.5448   -2.2679    0.4776 C   0  0  0  0  0  0  0  0  0  0  0  0
   -5.2226   -2.2310   -0.7468 C   0  0  0  0  0  0  0  0  0  0  0  0
   -6.7156   -2.0959   -0.7850 C   0  0  0  0  0  0  0  0  0  0  0  0
   -4.4826   -2.2682   -1.9346 C   0  0  0  0  0  0  0  0  0  0  0  0
   -3.0886   -2.3612   -1.8959 C   0  0  0  0  0  0  0  0  0  0  0  0
    1.4305   -2.4516   -0.6872 H   0  0  0  0  0  0  0  0  0  0  0  0
    3.4498   -1.5747   -0.1294 H   0  0  0  0  0  0  0  0  0  0  0  0
    3.8034    1.3268   -0.6787 H   0  0  0  0  0  0  0  0  0  0  0  0
    5.0261    0.1244   -1.0175 H   0  0  0  0  0  0  0  0  0  0  0  0
    6.3890   -0.8341    0.7433 H   0  0  0  0  0  0  0  0  0  0  0  0
    7.0762   -0.8171    3.1142 H   0  0  0  0  0  0  0  0  0  0  0  0
    5.7027    0.3675    4.8051 H   0  0  0  0  0  0  0  0  0  0  0  0
    3.6264    1.5386    4.1177 H   0  0  0  0  0  0  0  0  0  0  0  0
    2.9206    1.5316    1.7498 H   0  0  0  0  0  0  0  0  0  0  0  0
   -2.7186    2.2234   -0.2367 H   0  0  0  0  0  0  0  0  0  0  0  0
   -2.1097    1.7145   -1.8531 H   0  0  0  0  0  0  0  0  0  0  0  0
   -1.6996    4.1083   -2.2612 H   0  0  0  0  0  0  0  0  0  0  0  0
   -1.4933    4.3646    0.5686 H   0  0  0  0  0  0  0  0  0  0  0  0
    0.7392    3.7163   -0.6559 H   0  0  0  0  0  0  0  0  0  0  0  0
    0.3760    2.7806   -2.1509 H   0  0  0  0  0  0  0  0  0  0  0  0
   -2.6327   -2.3978    1.4647 H   0  0  0  0  0  0  0  0  0  0  0  0
   -5.0951   -2.2261    1.4142 H   0  0  0  0  0  0  0  0  0  0  0  0
   -6.9954   -1.0380   -0.7914 H   0  0  0  0  0  0  0  0  0  0  0  0
   -7.1288   -2.5770   -1.6778 H   0  0  0  0  0  0  0  0  0  0  0  0
   -7.1739   -2.5783    0.0848 H   0  0  0  0  0  0  0  0  0  0  0  0
   -4.9846   -2.2285   -2.8981 H   0  0  0  0  0  0  0  0  0  0  0  0
   -2.5222   -2.4008   -2.8214 H   0  0  0  0  0  0  0  0  0  0  0  0
  1  2  1  0
  2  3  1  0
  3  4  1  0
  4  5  1  0
  5  6  2  0
  6  7  1  0
  7  8  2  0
  8  9  1  0
  9 10  2  0
  2 11  2  0
 11 12  1  0
 12 13  1  0
 13 14  1  0
 14 15  1  0
 15 16  1  0
 15 17  1  0
 12 18  2  0
 18 19  1  0
 19 20  2  3
 20 21  1  0
 21 22  2  0
 22 23  1  0
 23 24  2  0
 24 25  1  0
 24 26  1  0
 26 27  2  0
 19  1  1  0
 27 21  1  0
 10  5  1  0
 17 13  1  0
  1 28  1  0
  3 29  1  0
  4 30  1  0
  4 31  1  0
  6 32  1  0
  7 33  1  0
  8 34  1  0
  9 35  1  0
 10 36  1  0
 14 37  1  0
 14 38  1  0
 15 39  1  0
 16 40  1  0
 17 41  1  0
 17 42  1  0
 22 43  1  0
 23 44  1  0
 25 45  1  0
 25 46  1  0
 25 47  1  0
 26 48  1  0
 27 49  1  0
M  END
>  <ScrubInfo>  (2) 
{"isomerGroup": 0, "isomerId": 1, "confId": 0, "nr_conformers:": 1, "nr_isomers:": 9}

$$$$
_i2
     RDKit          3D

 49 52  0  0  0  0  0  0  0  0999 V2000
   -0.5263   -0.7663   -0.3555 N   0  0  0  0  0  0  0  0  0  0  0  0
    0.7349   -0.2824   -0.4624 C   0  0  0  0  0  0  0  0  0  0  0  0
    1.6675   -1.2658   -0.6829 N   0  0  0  0  0  0  0  0  0  0  0  0
    3.0724   -1.1348   -0.7245 C   0  0  0  0  0  0  0  0  0  0  0  0
    3.8273   -2.1624   -1.3139 C   0  0  0  0  0  0  0  0  0  0  0  0
    5.2253   -2.1096   -1.3531 C   0  0  0  0  0  0  0  0  0  0  0  0
    5.9081   -1.0363   -0.7779 C   0  0  0  0  0  0  0  0  0  0  0  0
    7.4037   -0.9555   -0.8475 C   0  0  0  0  0  0  0  0  0  0  0  0
    5.1685   -0.0128   -0.1813 C   0  0  0  0  0  0  0  0  0  0  0  0
    3.7697   -0.0707   -0.1447 C   0  0  0  0  0  0  0  0  0  0  0  0
    0.9522    0.9883   -0.3559 N   0  0  0  0  0  0  0  0  0  0  0  0
   -0.1295    1.8227   -0.1611 C   0  0  0  0  0  0  0  0  0  0  0  0
    0.1227    3.1815   -0.1285 N   0  0  0  0  0  0  0  0  0  0  0  0
    1.3053    3.6189    0.5649 C   0  0  0  0  0  0  0  0  0  0  0  0
    0.5096    4.8936    0.9148 C   0  0  0  0  0  0  0  0  0  0  0  0
    0.6640    6.0249    0.0239 O   0  0  0  0  0  0  0  0  0  0  0  0
   -0.7278    3.9975    0.6992 C   0  0  0  0  0  0  0  0  0  0  0  0
   -1.3510    1.3861   -0.0379 N   0  0  0  0  0  0  0  0  0  0  0  0
   -1.5793    0.0456   -0.0872 C   0  0  0  0  0  0  0  0  0  0  0  0
   -2.7971   -0.2889    0.1418 N   0  0  0  0  0  0  0  0  0  0  0  0
   -3.1669   -1.6991    0.1033 C   0  0  0  0  0  0  0  0  0  0  0  0
   -4.6520   -1.9271    0.2748 C   0  0  0  0  0  0  0  0  0  0  0  0
   -5.1169   -3.1127    0.8644 C   0  0  0  0  0  0  0  0  0  0  0  0
   -6.4865   -3.3560    0.9895 C   0  0  0  0  0  0  0  0  0  0  0  0
   -7.4074   -2.4227    0.5182 C   0  0  0  0  0  0  0  0  0  0  0  0
   -6.9600   -1.2472   -0.0807 C   0  0  0  0  0  0  0  0  0  0  0  0
   -5.5910   -1.0036   -0.2066 C   0  0  0  0  0  0  0  0  0  0  0  0
   -0.6532   -1.7520   -0.2215 H   0  0  0  0  0  0  0  0  0  0  0  0
    1.3416   -2.0541   -1.2249 H   0  0  0  0  0  0  0  0  0  0  0  0
    3.3356   -3.0217   -1.7629 H   0  0  0  0  0  0  0  0  0  0  0  0
    5.7752   -2.9154   -1.8342 H   0  0  0  0  0  0  0  0  0  0  0  0
    7.8068   -0.4210    0.0191 H   0  0  0  0  0  0  0  0  0  0  0  0
    7.8496   -1.9558   -0.8476 H   0  0  0  0  0  0  0  0  0  0  0  0
    7.7082   -0.4324   -1.7591 H   0  0  0  0  0  0  0  0  0  0  0  0
    5.6724    0.8405    0.2675 H   0  0  0  0  0  0  0  0  0  0  0  0
    3.2428    0.7365    0.3550 H   0  0  0  0  0  0  0  0  0  0  0  0
    1.5790    3.0037    1.4294 H   0  0  0  0  0  0  0  0  0  0  0  0
    2.1617    3.7540   -0.1001 H   0  0  0  0  0  0  0  0  0  0  0  0
    0.6401    5.2234    1.9507 H   0  0  0  0  0  0  0  0  0  0  0  0
    0.5143    5.6487   -0.8635 H   0  0  0  0  0  0  0  0  0  0  0  0
   -1.0908    3.5048    1.6081 H   0  0  0  0  0  0  0  0  0  0  0  0
   -1.5555    4.4454    0.1443 H   0  0  0  0  0  0  0  0  0  0  0  0
   -2.8777   -2.1469   -0.8559 H   0  0  0  0  0  0  0  0  0  0  0  0
   -2.6380   -2.2277    0.9064 H   0  0  0  0  0  0  0  0  0  0  0  0
   -4.4143   -3.8549    1.2351 H   0  0  0  0  0  0  0  0  0  0  0  0
   -6.8351   -4.2738    1.4552 H   0  0  0  0  0  0  0  0  0  0  0  0
   -8.4730   -2.6101    0.6173 H   0  0  0  0  0  0  0  0  0  0  0  0
   -7.6744   -0.5162   -0.4496 H   0  0  0  0  0  0  0  0  0  0  0  0
   -5.2549   -0.0804   -0.6757 H   0  0  0  0  0  0  0  0  0  0  0  0
  1  2  1  0
  2  3  1  0
  3  4  1  0
  4  5  2  0
  5  6  1  0
  6  7  2  0
  7  8  1  0
  7  9  1  0
  9 10  2  0
  2 11  2  0
 11 12  1  0
 12 13  1  0
 13 14  1  0
 14 15  1  0
 15 16  1  0
 15 17  1  0
 12 18  2  0
 18 19  1  0
 19 20  2  3
 20 21  1  0
 21 22  1  0
 22 23  2  0
 23 24  1  0
 24 25  2  0
 25 26  1  0
 26 27  2  0
 19  1  1  0
 27 22  1  0
 10  4  1  0
 17 13  1  0
  1 28  1  0
  3 29  1  0
  5 30  1  0
  6 31  1  0
  8 32  1  0
  8 33  1  0
  8 34  1  0
  9 35  1  0
 10 36  1  0
 14 37  1  0
 14 38  1  0
 15 39  1  0
 16 40  1  0
 17 41  1  0
 17 42  1  0
 21 43  1  0
 21 44  1  0
 23 45  1  0
 24 46  1  0
 25 47  1  0
 26 48  1  0
 27 49  1  0
M  END
>  <ScrubInfo>  (3) 
{"isomerGroup": 0, "isomerId": 2, "confId": 0, "nr_conformers:": 1, "nr_isomers:": 9}

$$$$
_i3
     RDKit          3D

 49 52  0  0  0  0  0  0  0  0999 V2000
   -1.1551    1.6252   -0.6621 N   0  0  0  0  0  0  0  0  0  0  0  0
   -0.1521    2.5275   -0.6345 C   0  0  0  0  0  0  0  0  0  0  0  0
   -0.5723    3.7980   -0.9734 N   0  0  0  0  0  0  0  0  0  0  0  0
   -0.1872    4.8269   -0.0222 C   0  0  0  0  0  0  0  0  0  0  0  0
    0.0875    5.7487   -1.2180 C   0  0  0  0  0  0  0  0  0  0  0  0
    1.2454    6.6087   -1.1431 O   0  0  0  0  0  0  0  0  0  0  0  0
    0.2303    4.4374   -2.0024 C   0  0  0  0  0  0  0  0  0  0  0  0
    1.0528    2.1735   -0.3153 N   0  0  0  0  0  0  0  0  0  0  0  0
    1.2621    0.8407   -0.0078 C   0  0  0  0  0  0  0  0  0  0  0  0
    2.5655    0.5692    0.3150 N   0  0  0  0  0  0  0  0  0  0  0  0
    3.2068   -0.6256    0.6744 C   0  0  0  0  0  0  0  0  0  0  0  0
    4.5808   -0.5804    0.9678 C   0  0  0  0  0  0  0  0  0  0  0  0
    5.2913   -1.7287    1.3366 C   0  0  0  0  0  0  0  0  0  0  0  0
    4.6407   -2.9593    1.4335 C   0  0  0  0  0  0  0  0  0  0  0  0
    5.3991   -4.2008    1.7943 C   0  0  0  0  0  0  0  0  0  0  0  0
    3.2789   -3.0215    1.1309 C   0  0  0  0  0  0  0  0  0  0  0  0
    2.5735   -1.8680    0.7623 C   0  0  0  0  0  0  0  0  0  0  0  0
    0.3170   -0.0484   -0.0251 N   0  0  0  0  0  0  0  0  0  0  0  0
   -0.9493    0.3228   -0.3602 C   0  0  0  0  0  0  0  0  0  0  0  0
   -1.8031   -0.6354   -0.3441 N   0  0  0  0  0  0  0  0  0  0  0  0
   -3.1916   -0.3425   -0.6834 C   0  0  0  0  0  0  0  0  0  0  0  0
   -4.0963   -1.5498   -0.5729 C   0  0  0  0  0  0  0  0  0  0  0  0
   -3.8540   -2.5594    0.3695 C   0  0  0  0  0  0  0  0  0  0  0  0
   -4.7221   -3.6464    0.4893 C   0  0  0  0  0  0  0  0  0  0  0  0
   -5.8498   -3.7318   -0.3242 C   0  0  0  0  0  0  0  0  0  0  0  0
   -6.1113   -2.7296   -1.2560 C   0  0  0  0  0  0  0  0  0  0  0  0
   -5.2429   -1.6423   -1.3767 C   0  0  0  0  0  0  0  0  0  0  0  0
   -2.0716    1.9474   -0.9146 H   0  0  0  0  0  0  0  0  0  0  0  0
   -1.0202    5.1254    0.6199 H   0  0  0  0  0  0  0  0  0  0  0  0
    0.6901    4.5916    0.5905 H   0  0  0  0  0  0  0  0  0  0  0  0
   -0.7921    6.3322   -1.5182 H   0  0  0  0  0  0  0  0  0  0  0  0
    1.9840    6.0341   -0.8746 H   0  0  0  0  0  0  0  0  0  0  0  0
    1.2561    4.0638   -2.0943 H   0  0  0  0  0  0  0  0  0  0  0  0
   -0.2617    4.4176   -2.9786 H   0  0  0  0  0  0  0  0  0  0  0  0
    3.1556    1.3856    0.2799 H   0  0  0  0  0  0  0  0  0  0  0  0
    5.1223    0.3606    0.9098 H   0  0  0  0  0  0  0  0  0  0  0  0
    6.3551   -1.6511    1.5479 H   0  0  0  0  0  0  0  0  0  0  0  0
    5.7897   -4.6771    0.8899 H   0  0  0  0  0  0  0  0  0  0  0  0
    6.2359   -3.9675    2.4611 H   0  0  0  0  0  0  0  0  0  0  0  0
    4.7547   -4.9134    2.3199 H   0  0  0  0  0  0  0  0  0  0  0  0
    2.7457   -3.9687    1.1781 H   0  0  0  0  0  0  0  0  0  0  0  0
    1.5153   -1.9787    0.5432 H   0  0  0  0  0  0  0  0  0  0  0  0
   -3.2373    0.0334   -1.7135 H   0  0  0  0  0  0  0  0  0  0  0  0
   -3.5945    0.4279   -0.0138 H   0  0  0  0  0  0  0  0  0  0  0  0
   -2.9760   -2.5052    1.0109 H   0  0  0  0  0  0  0  0  0  0  0  0
   -4.5139   -4.4254    1.2176 H   0  0  0  0  0  0  0  0  0  0  0  0
   -6.5236   -4.5790   -0.2312 H   0  0  0  0  0  0  0  0  0  0  0  0
   -6.9919   -2.7944   -1.8894 H   0  0  0  0  0  0  0  0  0  0  0  0
   -5.4660   -0.8680   -2.1067 H   0  0  0  0  0  0  0  0  0  0  0  0
  1  2  1  0
  2  3  1  0
  3  4  1  0
  4  5  1  0
  5  6  1  0
  5  7  1  0
  2  8  2  0
  8  9  1  0
  9 10  1  0
 10 11  1  0
 11 12  2  0
 12 13  1  0
 13 14  2  0
 14 15  1  0
 14 16  1  0
 16 17  2  0
  9 18  2  0
 18 19  1  0
 19 20  2  3
 20 21  1  0
 21 22  1  0
 22 23  2  0
 23 24  1  0
 24 25  2  0
 25 26  1  0
 26 27  2  0
 19  1  1  0
 27 22  1  0
  7  3  1  0
 17 11  1  0
  1 28  1  0
  4 29  1  0
  4 30  1  0
  5 31  1  0
  6 32  1  0
  7 33  1  0
  7 34  1  0
 10 35  1  0
 12 36  1  0
 13 37  1  0
 15 38  1  0
 15 39  1  0
 15 40  1  0
 16 41  1  0
 17 42  1  0
 21 43  1  0
 21 44  1  0
 23 45  1  0
 24 46  1  0
 25 47  1  0
 26 48  1  0
 27 49  1  0
M  END
>  <ScrubInfo>  (4) 
{"isomerGroup": 0, "isomerId": 3, "confId": 0, "nr_conformers:": 1, "nr_isomers:": 9}

$$$$
_i4
     RDKit          3D

 49 52  0  0  0  0  0  0  0  0999 V2000
    1.1523    0.4261    0.1088 N   0  0  0  0  0  0  0  0  0  0  0  0
    0.1882    1.3589    0.2723 C   0  0  0  0  0  0  0  0  0  0  0  0
    0.6775    2.6188    0.5380 N   0  0  0  0  0  0  0  0  0  0  0  0
   -0.2839    3.6752    0.7466 C   0  0  0  0  0  0  0  0  0  0  0  0
    0.6777    4.6115   -0.0047 C   0  0  0  0  0  0  0  0  0  0  0  0
    1.5782    5.4242    0.7843 O   0  0  0  0  0  0  0  0  0  0  0  0
    1.2536    3.3134   -0.5926 C   0  0  0  0  0  0  0  0  0  0  0  0
   -1.0635    1.0272    0.2012 N   0  0  0  0  0  0  0  0  0  0  0  0
   -1.3488   -0.2882   -0.0752 C   0  0  0  0  0  0  0  0  0  0  0  0
   -2.6790   -0.5679   -0.1792 N   0  0  0  0  0  0  0  0  0  0  0  0
   -3.1852   -1.9138   -0.0556 C   0  0  0  0  0  0  0  0  0  0  0  0
   -4.6917   -1.8924   -0.1567 C   0  0  0  0  0  0  0  0  0  0  0  0
   -5.4885   -1.9774    0.9941 C   0  0  0  0  0  0  0  0  0  0  0  0
   -6.8804   -1.9379    0.8949 C   0  0  0  0  0  0  0  0  0  0  0  0
   -7.4885   -1.8063   -0.3524 C   0  0  0  0  0  0  0  0  0  0  0  0
   -6.7067   -1.7108   -1.5021 C   0  0  0  0  0  0  0  0  0  0  0  0
   -5.3151   -1.7504   -1.4054 C   0  0  0  0  0  0  0  0  0  0  0  0
   -0.4571   -1.2202   -0.2273 N   0  0  0  0  0  0  0  0  0  0  0  0
    0.8589   -0.8794   -0.1099 C   0  0  0  0  0  0  0  0  0  0  0  0
    1.6928   -1.8661   -0.2194 N   0  0  0  0  0  0  0  0  0  0  0  0
    3.0635   -1.6051   -0.1143 C   0  0  0  0  0  0  0  0  0  0  0  0
    3.8122   -1.2972   -1.2515 C   0  0  0  0  0  0  0  0  0  0  0  0
    5.1771   -1.0188   -1.1466 C   0  0  0  0  0  0  0  0  0  0  0  0
    5.8108   -1.0462    0.1016 C   0  0  0  0  0  0  0  0  0  0  0  0
    7.2843   -0.7866    0.2113 C   0  0  0  0  0  0  0  0  0  0  0  0
    5.0651   -1.3890    1.2359 C   0  0  0  0  0  0  0  0  0  0  0  0
    3.7005   -1.6670    1.1263 C   0  0  0  0  0  0  0  0  0  0  0  0
    2.1091    0.6822    0.2855 H   0  0  0  0  0  0  0  0  0  0  0  0
   -1.2483    3.5421    0.2448 H   0  0  0  0  0  0  0  0  0  0  0  0
   -0.4355    3.8948    1.8064 H   0  0  0  0  0  0  0  0  0  0  0  0
    0.1778    5.2402   -0.7501 H   0  0  0  0  0  0  0  0  0  0  0  0
    1.0021    6.0379    1.2711 H   0  0  0  0  0  0  0  0  0  0  0  0
    0.8298    3.0229   -1.5607 H   0  0  0  0  0  0  0  0  0  0  0  0
    2.3439    3.2396   -0.6160 H   0  0  0  0  0  0  0  0  0  0  0  0
   -3.2650    0.1573    0.2120 H   0  0  0  0  0  0  0  0  0  0  0  0
   -2.7801   -2.5583   -0.8452 H   0  0  0  0  0  0  0  0  0  0  0  0
   -2.8815   -2.3489    0.9044 H   0  0  0  0  0  0  0  0  0  0  0  0
   -5.0290   -2.0763    1.9753 H   0  0  0  0  0  0  0  0  0  0  0  0
   -7.4909   -2.0093    1.7914 H   0  0  0  0  0  0  0  0  0  0  0  0
   -8.5723   -1.7759   -0.4284 H   0  0  0  0  0  0  0  0  0  0  0  0
   -7.1799   -1.6032   -2.4747 H   0  0  0  0  0  0  0  0  0  0  0  0
   -4.7124   -1.6657   -2.3078 H   0  0  0  0  0  0  0  0  0  0  0  0
    3.3279   -1.2831   -2.2245 H   0  0  0  0  0  0  0  0  0  0  0  0
    5.7429   -0.7897   -2.0468 H   0  0  0  0  0  0  0  0  0  0  0  0
    7.6141   -0.0790   -0.5566 H   0  0  0  0  0  0  0  0  0  0  0  0
    7.8391   -1.7224    0.0924 H   0  0  0  0  0  0  0  0  0  0  0  0
    7.5320   -0.3487    1.1840 H   0  0  0  0  0  0  0  0  0  0  0  0
    5.5426   -1.4504    2.2113 H   0  0  0  0  0  0  0  0  0  0  0  0
    3.1294   -1.9409    2.0096 H   0  0  0  0  0  0  0  0  0  0  0  0
  1  2  1  0
  2  3  1  0
  3  4  1  0
  4  5  1  0
  5  6  1  0
  5  7  1  0
  2  8  2  0
  8  9  1  0
  9 10  1  0
 10 11  1  0
 11 12  1  0
 12 13  2  0
 13 14  1  0
 14 15  2  0
 15 16  1  0
 16 17  2  0
  9 18  2  0
 18 19  1  0
 19 20  2  3
 20 21  1  0
 21 22  2  0
 22 23  1  0
 23 24  2  0
 24 25  1  0
 24 26  1  0
 26 27  2  0
 19  1  1  0
 27 21  1  0
  7  3  1  0
 17 12  1  0
  1 28  1  0
  4 29  1  0
  4 30  1  0
  5 31  1  0
  6 32  1  0
  7 33  1  0
  7 34  1  0
 10 35  1  0
 11 36  1  0
 11 37  1  0
 13 38  1  0
 14 39  1  0
 15 40  1  0
 16 41  1  0
 17 42  1  0
 22 43  1  0
 23 44  1  0
 25 45  1  0
 25 46  1  0
 25 47  1  0
 26 48  1  0
 27 49  1  0
M  END
>  <ScrubInfo>  (5) 
{"isomerGroup": 0, "isomerId": 4, "confId": 0, "nr_conformers:": 1, "nr_isomers:": 9}

$$$$
_i5
     RDKit          3D

 49 52  0  0  0  0  0  0  0  0999 V2000
   -1.0454    0.4633    0.6435 N   0  0  0  0  0  0  0  0  0  0  0  0
   -1.1795   -0.8684    0.4527 C   0  0  0  0  0  0  0  0  0  0  0  0
   -2.3848   -1.4203    0.7668 N   0  0  0  0  0  0  0  0  0  0  0  0
   -3.6280   -0.8790    0.2448 C   0  0  0  0  0  0  0  0  0  0  0  0
   -4.7757   -1.7735    0.6405 C   0  0  0  0  0  0  0  0  0  0  0  0
   -5.2361   -1.7939    1.9657 C   0  0  0  0  0  0  0  0  0  0  0  0
   -6.2905   -2.6295    2.3368 C   0  0  0  0  0  0  0  0  0  0  0  0
   -6.8916   -3.4563    1.3898 C   0  0  0  0  0  0  0  0  0  0  0  0
   -6.4368   -3.4520    0.0725 C   0  0  0  0  0  0  0  0  0  0  0  0
   -5.3820   -2.6174   -0.3012 C   0  0  0  0  0  0  0  0  0  0  0  0
   -0.2064   -1.5947    0.0084 N   0  0  0  0  0  0  0  0  0  0  0  0
    0.9576   -0.9062   -0.2665 C   0  0  0  0  0  0  0  0  0  0  0  0
    1.8967   -1.6281   -0.7942 N   0  0  0  0  0  0  0  0  0  0  0  0
    3.1232   -1.0297   -1.1113 C   0  0  0  0  0  0  0  0  0  0  0  0
    3.3444   -0.5038   -2.3860 C   0  0  0  0  0  0  0  0  0  0  0  0
    4.5760    0.0695   -2.7144 C   0  0  0  0  0  0  0  0  0  0  0  0
    5.6069    0.1219   -1.7686 C   0  0  0  0  0  0  0  0  0  0  0  0
    6.9414    0.7025   -2.1303 C   0  0  0  0  0  0  0  0  0  0  0  0
    5.3956   -0.4352   -0.5017 C   0  0  0  0  0  0  0  0  0  0  0  0
    4.1622   -1.0074   -0.1783 C   0  0  0  0  0  0  0  0  0  0  0  0
    1.1668    0.4377   -0.0216 N   0  0  0  0  0  0  0  0  0  0  0  0
    0.1464    1.0847    0.4440 C   0  0  0  0  0  0  0  0  0  0  0  0
    0.1126    2.4252    0.7774 N   0  0  0  0  0  0  0  0  0  0  0  0
    1.2605    2.8743    1.5557 C   0  0  0  0  0  0  0  0  0  0  0  0
    1.1937    4.1833    0.7549 C   0  0  0  0  0  0  0  0  0  0  0  0
    0.4026    5.2589    1.3157 O   0  0  0  0  0  0  0  0  0  0  0  0
    0.5211    3.3050   -0.3107 C   0  0  0  0  0  0  0  0  0  0  0  0
   -1.7129    0.9334    1.2322 H   0  0  0  0  0  0  0  0  0  0  0  0
   -2.3384   -2.4254    0.5997 H   0  0  0  0  0  0  0  0  0  0  0  0
   -3.8101    0.1289    0.6363 H   0  0  0  0  0  0  0  0  0  0  0  0
   -3.5711   -0.7949   -0.8473 H   0  0  0  0  0  0  0  0  0  0  0  0
   -4.7665   -1.1639    2.7182 H   0  0  0  0  0  0  0  0  0  0  0  0
   -6.6392   -2.6402    3.3663 H   0  0  0  0  0  0  0  0  0  0  0  0
   -7.7107   -4.1093    1.6799 H   0  0  0  0  0  0  0  0  0  0  0  0
   -6.9016   -4.1031   -0.6637 H   0  0  0  0  0  0  0  0  0  0  0  0
   -5.0360   -2.6344   -1.3328 H   0  0  0  0  0  0  0  0  0  0  0  0
    2.5503   -0.5467   -3.1255 H   0  0  0  0  0  0  0  0  0  0  0  0
    4.7245    0.4685   -3.7147 H   0  0  0  0  0  0  0  0  0  0  0  0
    6.8314    1.5041   -2.8682 H   0  0  0  0  0  0  0  0  0  0  0  0
    7.4300    1.1357   -1.2512 H   0  0  0  0  0  0  0  0  0  0  0  0
    7.5879   -0.0760   -2.5470 H   0  0  0  0  0  0  0  0  0  0  0  0
    6.1894   -0.4336    0.2412 H   0  0  0  0  0  0  0  0  0  0  0  0
    4.0056   -1.4425    0.8044 H   0  0  0  0  0  0  0  0  0  0  0  0
    1.0271    2.9528    2.6209 H   0  0  0  0  0  0  0  0  0  0  0  0
    2.1832    2.3008    1.4141 H   0  0  0  0  0  0  0  0  0  0  0  0
    2.1738    4.5681    0.4551 H   0  0  0  0  0  0  0  0  0  0  0  0
   -0.4402    4.8372    1.5613 H   0  0  0  0  0  0  0  0  0  0  0  0
   -0.3366    3.7476   -0.8241 H   0  0  0  0  0  0  0  0  0  0  0  0
    1.2094    2.8620   -1.0393 H   0  0  0  0  0  0  0  0  0  0  0  0
  1  2  1  0
  2  3  1  0
  3  4  1  0
  4  5  1  0
  5  6  2  0
  6  7  1  0
  7  8  2  0
  8  9  1  0
  9 10  2  0
  2 11  2  0
 11 12  1  0
 12 13  2  3
 13 14  1  0
 14 15  2  0
 15 16  1  0
 16 17  2  0
 17 18  1  0
 17 19  1  0
 19 20  2  0
 12 21  1  0
 21 22  2  0
 22 23  1  0
 23 24  1  0
 24 25  1  0
 25 26  1  0
 25 27  1  0
 22  1  1  0
 27 23  1  0
 10  5  1  0
 20 14  1  0
  1 28  1  0
  3 29  1  0
  4 30  1  0
  4 31  1  0
  6 32  1  0
  7 33  1  0
  8 34  1  0
  9 35  1  0
 10 36  1  0
 15 37  1  0
 16 38  1  0
 18 39  1  0
 18 40  1  0
 18 41  1  0
 19 42  1  0
 20 43  1  0
 24 44  1  0
 24 45  1  0
 25 46  1  0
 26 47  1  0
 27 48  1  0
 27 49  1  0
M  END
>  <ScrubInfo>  (6) 
{"isomerGroup": 0, "isomerId": 5, "confId": 0, "nr_conformers:": 1, "nr_isomers:": 9}

$$$$
_i6
     RDKit          3D

 49 52  0  0  0  0  0  0  0  0999 V2000
   -1.3481    0.4493    0.2855 N   0  0  0  0  0  0  0  0  0  0  0  0
   -1.0730   -0.7376    0.8774 C   0  0  0  0  0  0  0  0  0  0  0  0
   -2.1274   -1.5333    1.2210 N   0  0  0  0  0  0  0  0  0  0  0  0
   -3.2757   -1.8166    0.4513 C   0  0  0  0  0  0  0  0  0  0  0  0
   -3.3741   -1.5490   -0.9187 C   0  0  0  0  0  0  0  0  0  0  0  0
   -4.5484   -1.8349   -1.6237 C   0  0  0  0  0  0  0  0  0  0  0  0
   -5.6472   -2.4045   -0.9737 C   0  0  0  0  0  0  0  0  0  0  0  0
   -6.9168   -2.6813   -1.7230 C   0  0  0  0  0  0  0  0  0  0  0  0
   -5.5601   -2.6649    0.3963 C   0  0  0  0  0  0  0  0  0  0  0  0
   -4.3844   -2.3801    1.0971 C   0  0  0  0  0  0  0  0  0  0  0  0
    0.1456   -1.0687    1.1712 N   0  0  0  0  0  0  0  0  0  0  0  0
    1.1085   -0.1565    0.8008 C   0  0  0  0  0  0  0  0  0  0  0  0
    2.3139   -0.5334    1.0417 N   0  0  0  0  0  0  0  0  0  0  0  0
    3.3853    0.3903    0.6731 C   0  0  0  0  0  0  0  0  0  0  0  0
    4.7630   -0.1660    0.9707 C   0  0  0  0  0  0  0  0  0  0  0  0
    5.0400   -1.5340    0.8364 C   0  0  0  0  0  0  0  0  0  0  0  0
    6.3246   -2.0278    1.0717 C   0  0  0  0  0  0  0  0  0  0  0  0
    7.3511   -1.1579    1.4331 C   0  0  0  0  0  0  0  0  0  0  0  0
    7.0943    0.2060    1.5570 C   0  0  0  0  0  0  0  0  0  0  0  0
    5.8093    0.7003    1.3223 C   0  0  0  0  0  0  0  0  0  0  0  0
    0.8724    1.0741    0.2208 N   0  0  0  0  0  0  0  0  0  0  0  0
   -0.3742    1.3440   -0.0126 C   0  0  0  0  0  0  0  0  0  0  0  0
   -0.8699    2.5026   -0.5757 N   0  0  0  0  0  0  0  0  0  0  0  0
   -0.2865    2.8251   -1.8671 C   0  0  0  0  0  0  0  0  0  0  0  0
   -0.2873    4.2977   -1.4368 C   0  0  0  0  0  0  0  0  0  0  0  0
    0.8571    5.0984   -1.8046 O   0  0  0  0  0  0  0  0  0  0  0  0
   -0.3222    3.7258   -0.0135 C   0  0  0  0  0  0  0  0  0  0  0  0
   -2.3093    0.7478    0.2183 H   0  0  0  0  0  0  0  0  0  0  0  0
   -1.8248   -2.3530    1.7420 H   0  0  0  0  0  0  0  0  0  0  0  0
   -2.5305   -1.1455   -1.4727 H   0  0  0  0  0  0  0  0  0  0  0  0
   -4.5933   -1.6191   -2.6893 H   0  0  0  0  0  0  0  0  0  0  0  0
   -7.4492   -3.5336   -1.2881 H   0  0  0  0  0  0  0  0  0  0  0  0
   -6.7070   -2.9293   -2.7688 H   0  0  0  0  0  0  0  0  0  0  0  0
   -7.5688   -1.8030   -1.6914 H   0  0  0  0  0  0  0  0  0  0  0  0
   -6.4065   -3.0921    0.9300 H   0  0  0  0  0  0  0  0  0  0  0  0
   -4.3461   -2.5894    2.1641 H   0  0  0  0  0  0  0  0  0  0  0  0
    3.2651    1.3285    1.2304 H   0  0  0  0  0  0  0  0  0  0  0  0
    3.3541    0.6127   -0.4014 H   0  0  0  0  0  0  0  0  0  0  0  0
    4.2456   -2.2226    0.5546 H   0  0  0  0  0  0  0  0  0  0  0  0
    6.5201   -3.0920    0.9731 H   0  0  0  0  0  0  0  0  0  0  0  0
    8.3500   -1.5432    1.6174 H   0  0  0  0  0  0  0  0  0  0  0  0
    7.8945    0.8860    1.8361 H   0  0  0  0  0  0  0  0  0  0  0  0
    5.6269    1.7678    1.4186 H   0  0  0  0  0  0  0  0  0  0  0  0
    0.7057    2.3972   -2.0494 H   0  0  0  0  0  0  0  0  0  0  0  0
   -0.9567    2.5763   -2.6943 H   0  0  0  0  0  0  0  0  0  0  0  0
   -1.2124    4.8214   -1.7093 H   0  0  0  0  0  0  0  0  0  0  0  0
    1.6375    4.5814   -1.5355 H   0  0  0  0  0  0  0  0  0  0  0  0
   -1.0225    4.2121    0.6711 H   0  0  0  0  0  0  0  0  0  0  0  0
    0.6573    3.6246    0.4665 H   0  0  0  0  0  0  0  0  0  0  0  0
  1  2  1  0
  2  3  1  0
  3  4  1  0
  4  5  2  0
  5  6  1  0
  6  7  2  0
  7  8  1  0
  7  9  1  0
  9 10  2  0
  2 11  2  0
 11 12  1  0
 12 13  2  3
 13 14  1  0
 14 15  1  0
 15 16  2  0
 16 17  1  0
 17 18  2  0
 18 19  1  0
 19 20  2  0
 12 21  1  0
 21 22  2  0
 22 23  1  0
 23 24  1  0
 24 25  1  0
 25 26  1  0
 25 27  1  0
 22  1  1  0
 27 23  1  0
 10  4  1  0
 20 15  1  0
  1 28  1  0
  3 29  1  0
  5 30  1  0
  6 31  1  0
  8 32  1  0
  8 33  1  0
  8 34  1  0
  9 35  1  0
 10 36  1  0
 14 37  1  0
 14 38  1  0
 16 39  1  0
 17 40  1  0
 18 41  1  0
 19 42  1  0
 20 43  1  0
 24 44  1  0
 24 45  1  0
 25 46  1  0
 26 47  1  0
 27 48  1  0
 27 49  1  0
M  END
>  <ScrubInfo>  (7) 
{"isomerGroup": 0, "isomerId": 6, "confId": 0, "nr_conformers:": 1, "nr_isomers:": 9}

$$$$
_i7
     RDKit          3D

 49 52  0  0  0  0  0  0  0  0999 V2000
    0.6433    2.0783   -0.7242 N   0  0  0  0  0  0  0  0  0  0  0  0
   -0.4613    2.8871   -0.6773 C   0  0  0  0  0  0  0  0  0  0  0  0
   -0.1776    4.1949   -1.0185 N   0  0  0  0  0  0  0  0  0  0  0  0
    0.5035    4.9705   -0.0063 C   0  0  0  0  0  0  0  0  0  0  0  0
   -0.2703    6.1911   -0.5420 C   0  0  0  0  0  0  0  0  0  0  0  0
   -0.7302    7.1554    0.4282 O   0  0  0  0  0  0  0  0  0  0  0  0
   -1.2838    5.1316   -1.0145 C   0  0  0  0  0  0  0  0  0  0  0  0
   -1.6415    2.4326   -0.3706 N   0  0  0  0  0  0  0  0  0  0  0  0
   -1.7163    1.0892   -0.0728 C   0  0  0  0  0  0  0  0  0  0  0  0
   -2.9087    0.6833    0.2417 N   0  0  0  0  0  0  0  0  0  0  0  0
   -3.1096   -0.6632    0.5633 C   0  0  0  0  0  0  0  0  0  0  0  0
   -2.9913   -1.0981    1.8845 C   0  0  0  0  0  0  0  0  0  0  0  0
   -3.1633   -2.4472    2.2035 C   0  0  0  0  0  0  0  0  0  0  0  0
   -3.4787   -3.3758    1.2043 C   0  0  0  0  0  0  0  0  0  0  0  0
   -3.6380   -4.8292    1.5404 C   0  0  0  0  0  0  0  0  0  0  0  0
   -3.6034   -2.9362   -0.1191 C   0  0  0  0  0  0  0  0  0  0  0  0
   -3.4307   -1.5862   -0.4337 C   0  0  0  0  0  0  0  0  0  0  0  0
   -0.5823    0.3123   -0.1266 N   0  0  0  0  0  0  0  0  0  0  0  0
    0.6690    0.7403   -0.4655 C   0  0  0  0  0  0  0  0  0  0  0  0
    1.7699    0.0821   -0.5618 N   0  0  0  0  0  0  0  0  0  0  0  0
    1.7356   -1.3491   -0.2743 C   0  0  0  0  0  0  0  0  0  0  0  0
    3.1030   -1.9657   -0.4352 C   0  0  0  0  0  0  0  0  0  0  0  0
    3.5688   -2.3335   -1.7053 C   0  0  0  0  0  0  0  0  0  0  0  0
    4.8373   -2.8954   -1.8595 C   0  0  0  0  0  0  0  0  0  0  0  0
    5.6556   -3.0861   -0.7477 C   0  0  0  0  0  0  0  0  0  0  0  0
    5.2095   -2.7090    0.5178 C   0  0  0  0  0  0  0  0  0  0  0  0
    3.9411   -2.1468    0.6736 C   0  0  0  0  0  0  0  0  0  0  0  0
    1.5114    2.4795   -1.0445 H   0  0  0  0  0  0  0  0  0  0  0  0
    1.5863    4.9970   -0.1514 H   0  0  0  0  0  0  0  0  0  0  0  0
    0.2607    4.6789    1.0221 H   0  0  0  0  0  0  0  0  0  0  0  0
    0.2378    6.6982   -1.3729 H   0  0  0  0  0  0  0  0  0  0  0  0
    0.0600    7.6668    0.6723 H   0  0  0  0  0  0  0  0  0  0  0  0
   -2.0788    4.9181   -0.2916 H   0  0  0  0  0  0  0  0  0  0  0  0
   -1.7037    5.2876   -2.0111 H   0  0  0  0  0  0  0  0  0  0  0  0
   -2.7666   -0.3791    2.6681 H   0  0  0  0  0  0  0  0  0  0  0  0
   -3.0612   -2.7652    3.2388 H   0  0  0  0  0  0  0  0  0  0  0  0
   -2.6724   -5.3384    1.4643 H   0  0  0  0  0  0  0  0  0  0  0  0
   -4.3477   -5.3121    0.8604 H   0  0  0  0  0  0  0  0  0  0  0  0
   -4.0257   -4.9550    2.5568 H   0  0  0  0  0  0  0  0  0  0  0  0
   -3.8477   -3.6392   -0.9125 H   0  0  0  0  0  0  0  0  0  0  0  0
   -3.5489   -1.2482   -1.4600 H   0  0  0  0  0  0  0  0  0  0  0  0
   -0.7130   -0.6610    0.0904 H   0  0  0  0  0  0  0  0  0  0  0  0
    1.3807   -1.5273    0.7491 H   0  0  0  0  0  0  0  0  0  0  0  0
    1.0392   -1.8633   -0.9496 H   0  0  0  0  0  0  0  0  0  0  0  0
    2.9444   -2.1749   -2.5815 H   0  0  0  0  0  0  0  0  0  0  0  0
    5.1886   -3.1779   -2.8483 H   0  0  0  0  0  0  0  0  0  0  0  0
    6.6443   -3.5205   -0.8686 H   0  0  0  0  0  0  0  0  0  0  0  0
    5.8517   -2.8469    1.3835 H   0  0  0  0  0  0  0  0  0  0  0  0
    3.6112   -1.8444    1.6645 H   0  0  0  0  0  0  0  0  0  0  0  0
  1  2  1  0
  2  3  1  0
  3  4  1  0
  4  5  1  0
  5  6  1  0
  5  7  1  0
  2  8  2  0
  8  9  1  0
  9 10  2  3
 10 11  1  0
 11 12  2  0
 12 13  1  0
 13 14  2  0
 14 15  1  0
 14 16  1  0
 16 17  2  0
  9 18  1  0
 18 19  1  0
 19 20  2  3
 20 21  1  0
 21 22  1  0
 22 23  2  0
 23 24  1  0
 24 25  2  0
 25 26  1  0
 26 27  2  0
 19  1  1  0
 27 22  1  0
  7  3  1  0
 17 11  1  0
  1 28  1  0
  4 29  1  0
  4 30  1  0
  5 31  1  0
  6 32  1  0
  7 33  1  0
  7 34  1  0
 12 35  1  0
 13 36  1  0
 15 37  1  0
 15 38  1  0
 15 39  1  0
 16 40  1  0
 17 41  1  0
 18 42  1  0
 21 43  1  0
 21 44  1  0
 23 45  1  0
 24 46  1  0
 25 47  1  0
 26 48  1  0
 27 49  1  0
M  END
>  <ScrubInfo>  (8) 
{"isomerGroup": 0, "isomerId": 7, "confId": 0, "nr_conformers:": 1, "nr_isomers:": 9}

$$$$
_i8
     RDKit          3D

 49 52  0  0  0  0  0  0  0  0999 V2000
    0.8444    0.5414    0.0878 N   0  0  0  0  0  0  0  0  0  0  0  0
    0.4117    1.7345    0.5983 C   0  0  0  0  0  0  0  0  0  0  0  0
    1.2156    2.7823    0.1929 N   0  0  0  0  0  0  0  0  0  0  0  0
    0.5130    4.0150   -0.1111 C   0  0  0  0  0  0  0  0  0  0  0  0
    1.6454    4.7748    0.5911 C   0  0  0  0  0  0  0  0  0  0  0  0
    2.7072    5.3083   -0.2354 O   0  0  0  0  0  0  0  0  0  0  0  0
    1.9138    3.4359    1.2873 C   0  0  0  0  0  0  0  0  0  0  0  0
   -0.6295    1.8355    1.3719 N   0  0  0  0  0  0  0  0  0  0  0  0
   -1.2892    0.6575    1.6565 C   0  0  0  0  0  0  0  0  0  0  0  0
   -2.3040    0.8264    2.4274 N   0  0  0  0  0  0  0  0  0  0  0  0
   -3.0880   -0.3276    2.8601 C   0  0  0  0  0  0  0  0  0  0  0  0
   -3.9260   -0.9651    1.7756 C   0  0  0  0  0  0  0  0  0  0  0  0
   -4.5943   -0.1778    0.8274 C   0  0  0  0  0  0  0  0  0  0  0  0
   -5.3742   -0.7715   -0.1658 C   0  0  0  0  0  0  0  0  0  0  0  0
   -5.5035   -2.1579   -0.2149 C   0  0  0  0  0  0  0  0  0  0  0  0
   -4.8586   -2.9509    0.7324 C   0  0  0  0  0  0  0  0  0  0  0  0
   -4.0782   -2.3583    1.7268 C   0  0  0  0  0  0  0  0  0  0  0  0
   -0.8282   -0.5183    1.1247 N   0  0  0  0  0  0  0  0  0  0  0  0
    0.2484   -0.6706    0.3010 C   0  0  0  0  0  0  0  0  0  0  0  0
    0.5758   -1.8376   -0.1622 N   0  0  0  0  0  0  0  0  0  0  0  0
    1.6892   -1.9261   -1.0075 C   0  0  0  0  0  0  0  0  0  0  0  0
    1.5354   -1.8059   -2.3896 C   0  0  0  0  0  0  0  0  0  0  0  0
    2.6454   -1.8805   -3.2345 C   0  0  0  0  0  0  0  0  0  0  0  0
    3.9234   -2.0983   -2.7059 C   0  0  0  0  0  0  0  0  0  0  0  0
    5.1206   -2.1487   -3.6086 C   0  0  0  0  0  0  0  0  0  0  0  0
    4.0748   -2.2220   -1.3196 C   0  0  0  0  0  0  0  0  0  0  0  0
    2.9619   -2.1468   -0.4784 C   0  0  0  0  0  0  0  0  0  0  0  0
    1.6497    0.5789   -0.5199 H   0  0  0  0  0  0  0  0  0  0  0  0
    0.4277    4.1795   -1.1889 H   0  0  0  0  0  0  0  0  0  0  0  0
   -0.4681    4.1346    0.3605 H   0  0  0  0  0  0  0  0  0  0  0  0
    1.2887    5.5536    1.2744 H   0  0  0  0  0  0  0  0  0  0  0  0
    2.2919    6.0259   -0.7434 H   0  0  0  0  0  0  0  0  0  0  0  0
    1.4385    3.3298    2.2690 H   0  0  0  0  0  0  0  0  0  0  0  0
    2.9616    3.1288    1.3444 H   0  0  0  0  0  0  0  0  0  0  0  0
   -2.4269   -1.0702    3.3255 H   0  0  0  0  0  0  0  0  0  0  0  0
   -3.7695    0.0030    3.6533 H   0  0  0  0  0  0  0  0  0  0  0  0
   -4.5026    0.9068    0.8598 H   0  0  0  0  0  0  0  0  0  0  0  0
   -5.8819   -0.1503   -0.8988 H   0  0  0  0  0  0  0  0  0  0  0  0
   -6.1119   -2.6197   -0.9879 H   0  0  0  0  0  0  0  0  0  0  0  0
   -4.9673   -4.0319    0.6989 H   0  0  0  0  0  0  0  0  0  0  0  0
   -3.5924   -2.9937    2.4641 H   0  0  0  0  0  0  0  0  0  0  0  0
   -1.3659   -1.3555    1.2762 H   0  0  0  0  0  0  0  0  0  0  0  0
    0.5446   -1.6525   -2.8090 H   0  0  0  0  0  0  0  0  0  0  0  0
    2.5038   -1.7754   -4.3078 H   0  0  0  0  0  0  0  0  0  0  0  0
    4.8523   -2.5503   -4.5914 H   0  0  0  0  0  0  0  0  0  0  0  0
    5.5340   -1.1437   -3.7376 H   0  0  0  0  0  0  0  0  0  0  0  0
    5.8964   -2.8002   -3.1927 H   0  0  0  0  0  0  0  0  0  0  0  0
    5.0586   -2.3855   -0.8856 H   0  0  0  0  0  0  0  0  0  0  0  0
    3.0862   -2.2598    0.5952 H   0  0  0  0  0  0  0  0  0  0  0  0
  1  2  1  0
  2  3  1  0
  3  4  1  0
  4  5  1  0
  5  6  1  0
  5  7  1  0
  2  8  2  0
  8  9  1  0
  9 10  2  3
 10 11  1  0
 11 12  1  0
 12 13  2  0
 13 14  1  0
 14 15  2  0
 15 16  1  0
 16 17  2  0
  9 18  1  0
 18 19  1  0
 19 20  2  3
 20 21  1  0
 21 22  2  0
 22 23  1  0
 23 24  2  0
 24 25  1  0
 24 26  1  0
 26 27  2  0
 19  1  1  0
 27 21  1  0
  7  3  1  0
 17 12  1  0
  1 28  1  0
  4 29  1  0
  4 30  1  0
  5 31  1  0
  6 32  1  0
  7 33  1  0
  7 34  1  0
 11 35  1  0
 11 36  1  0
 13 37  1  0
 14 38  1  0
 15 39  1  0
 16 40  1  0
 17 41  1  0
 18 42  1  0
 22 43  1  0
 23 44  1  0
 25 45  1  0
 25 46  1  0
 25 47  1  0
 26 48  1  0
 27 49  1  0
M  END
>  <ScrubInfo>  (9) 
{"isomerGroup": 0, "isomerId": 8, "confId": 0, "nr_conformers:": 1, "nr_isomers:": 9}

$$$$
