REMARK SMILES Cc1ccc(Nc2nc(NCc3ccccc3)nc(N3CC(O)C3)n2)cc1
REMARK SMILES IDX 7 1 8 2 9 3 18 4 19 5 25 6 6 7 5 9 2 10 3 11 27 12 4 13
REMARK SMILES IDX 26 14 1 15 10 16 11 18 12 19 13 20 17 21 14 22 16 23 15 24
REMARK SMILES IDX 20 25 21 26 24 27 22 28 23 29
REMARK H PARENT 6 8 10 17 23 30
ROOT
ATOM      1  C   UNL     1       1.303   0.981   0.382  1.00  0.00     0.233 A 
ATOM      2  N   UNL     1       0.419   0.008   0.218  1.00  0.00    -0.177 NA
ATOM      3  C   UNL     1      -0.833   0.382   0.017  1.00  0.00     0.229 A 
ATOM      4  N   UNL     1      -1.233   1.641  -0.036  1.00  0.00    -0.177 NA
ATOM      5  C   UNL     1      -0.291   2.559   0.141  1.00  0.00     0.232 A 
ATOM      6  N   UNL     1       0.990   2.271   0.345  1.00  0.00    -0.176 NA
ENDROOT
BRANCH   1   7
ATOM      7  N   UNL     1       2.656   0.717   0.588  1.00  0.00    -0.324 N 
ATOM      8  H   UNL     1       3.155   1.590   0.673  1.00  0.00     0.170 HD
BRANCH   7   9
ATOM      9  C   UNL     1       3.403  -0.453   0.772  1.00  0.00     0.041 A 
ATOM     10  C   UNL     1       5.042  -2.750   1.087  1.00  0.00    -0.051 A 
ATOM     11  C   UNL     1       5.610  -1.477   1.027  1.00  0.00     0.005 A 
ATOM     12  C   UNL     1       3.652  -2.868   1.004  1.00  0.00     0.005 A 
ATOM     13  C   UNL     1       4.800  -0.347   0.865  1.00  0.00     0.026 A 
ATOM     14  C   UNL     1       2.848  -1.733   0.840  1.00  0.00     0.026 A 
ATOM     15  C   UNL     1       5.899  -3.962   1.295  1.00  0.00     0.044 C 
ENDBRANCH   7   9
ENDBRANCH   1   7
BRANCH   3  16
ATOM     16  N   UNL     1      -1.748  -0.650  -0.141  1.00  0.00    -0.350 N 
ATOM     17  H   UNL     1      -1.219  -1.487  -0.360  1.00  0.00     0.164 HD
BRANCH  16  18
ATOM     18  C   UNL     1      -2.826  -0.356  -1.063  1.00  0.00     0.152 C 
BRANCH  18  19
ATOM     19  C   UNL     1      -3.616  -1.620  -1.316  1.00  0.00    -0.029 A 
ATOM     20  C   UNL     1      -3.495  -2.312  -2.530  1.00  0.00     0.005 A 
ATOM     21  C   UNL     1      -4.464  -2.134  -0.323  1.00  0.00     0.005 A 
ATOM     22  C   UNL     1      -4.220  -3.485  -2.750  1.00  0.00     0.000 A 
ATOM     23  C   UNL     1      -5.187  -3.307  -0.546  1.00  0.00     0.000 A 
ATOM     24  C   UNL     1      -5.066  -3.981  -1.760  1.00  0.00     0.000 A 
ENDBRANCH  18  19
ENDBRANCH  16  18
ENDBRANCH   3  16
BRANCH   5  25
ATOM     25  N   UNL     1      -0.663   3.909   0.083  1.00  0.00    -0.335 N 
ATOM     26  C   UNL     1      -1.962   4.412   0.422  1.00  0.00     0.153 C 
ATOM     27  C   UNL     1       0.009   4.973   0.763  1.00  0.00     0.153 C 
ATOM     28  C   UNL     1      -1.291   5.788   0.602  1.00  0.00     0.153 C 
BRANCH  28  29
ATOM     29  O   UNL     1      -1.716   6.579   1.733  1.00  0.00    -0.389 OA
ATOM     30  H   UNL     1      -1.106   7.336   1.753  1.00  0.00     0.211 HD
ENDBRANCH  28  29
ENDBRANCH   5  25
TORSDOF 7
