_i0
     RDKit          3D

 51 54  0  0  0  0  0  0  0  0999 V2000
    5.3813    4.8435   -1.8979 C   0  0  0  0  0  0  0  0  0  0  0  0
    5.0094    3.3730   -1.9636 C   0  0  0  0  0  0  0  0  0  0  0  0
    3.8751    3.1683   -1.1237 O   0  0  0  0  0  0  0  0  0  0  0  0
    3.3869    1.8949   -1.0369 C   0  0  0  0  0  0  0  0  0  0  0  0
    3.8797    0.7770   -1.7029 C   0  0  0  0  0  0  0  0  0  0  0  0
    3.2752   -0.4747   -1.5178 C   0  0  0  0  0  0  0  0  0  0  0  0
    2.1739   -0.6424   -0.6628 C   0  0  0  0  0  0  0  0  0  0  0  0
    1.5964   -1.9189   -0.5538 N   0  0  0  0  0  0  0  0  0  0  0  0
    0.3947   -2.3592    0.0216 C   0  0  0  0  0  0  0  0  0  0  0  0
   -0.5486   -1.4883    0.4652 N   0  0  0  0  0  0  0  0  0  0  0  0
   -1.7066   -1.9247    0.9959 C   0  0  0  0  0  0  0  0  0  0  0  0
   -2.6392   -1.0031    1.4399 N   0  0  0  0  0  0  0  0  0  0  0  0
   -2.6296    0.2863    0.7617 C   0  0  0  0  0  0  0  0  0  0  0  0
   -3.9283    1.0702    1.0498 C   0  0  0  0  0  0  0  0  0  0  0  0
   -3.9681    2.4065    0.3209 C   0  0  0  0  0  0  0  0  0  0  0  0
   -3.3315    3.3441    1.3161 C   0  0  0  0  0  0  0  0  0  0  0  0
   -3.8323    2.7939    2.6329 C   0  0  0  0  0  0  0  0  0  0  0  0
   -4.0253    1.3848    2.4541 O   0  0  0  0  0  0  0  0  0  0  0  0
   -2.0654   -3.2067    1.1299 N   0  0  0  0  0  0  0  0  0  0  0  0
   -1.1273   -4.0564    0.6887 C   0  0  0  0  0  0  0  0  0  0  0  0
    0.0928   -3.7221    0.1344 C   0  0  0  0  0  0  0  0  0  0  0  0
    0.6916   -4.9639   -0.1648 C   0  0  0  0  0  0  0  0  0  0  0  0
   -0.0767   -6.0076    0.1660 N   0  0  0  0  0  0  0  0  0  0  0  0
   -1.1787   -5.4236    0.6934 N   0  0  0  0  0  0  0  0  0  0  0  0
   -2.2526   -6.2490    1.1860 C   0  0  0  0  0  0  0  0  0  0  0  0
    1.6870    0.4926   -0.0118 C   0  0  0  0  0  0  0  0  0  0  0  0
    2.2885    1.7445   -0.1922 C   0  0  0  0  0  0  0  0  0  0  0  0
    5.6116    5.1373   -0.8684 H   0  0  0  0  0  0  0  0  0  0  0  0
    4.5445    5.4679   -2.2281 H   0  0  0  0  0  0  0  0  0  0  0  0
    6.2498    5.0545   -2.5282 H   0  0  0  0  0  0  0  0  0  0  0  0
    5.8571    2.7737   -1.6118 H   0  0  0  0  0  0  0  0  0  0  0  0
    4.7672    3.1115   -3.0001 H   0  0  0  0  0  0  0  0  0  0  0  0
    4.7274    0.8386   -2.3763 H   0  0  0  0  0  0  0  0  0  0  0  0
    3.6776   -1.3251   -2.0631 H   0  0  0  0  0  0  0  0  0  0  0  0
    2.1803   -2.6657   -0.9018 H   0  0  0  0  0  0  0  0  0  0  0  0
   -3.5339   -1.4659    1.5353 H   0  0  0  0  0  0  0  0  0  0  0  0
   -1.7632    0.8605    1.1106 H   0  0  0  0  0  0  0  0  0  0  0  0
   -2.5448    0.1477   -0.3239 H   0  0  0  0  0  0  0  0  0  0  0  0
   -4.7938    0.4552    0.7780 H   0  0  0  0  0  0  0  0  0  0  0  0
   -5.0116    2.7053    0.1618 H   0  0  0  0  0  0  0  0  0  0  0  0
   -3.4692    2.3980   -0.6522 H   0  0  0  0  0  0  0  0  0  0  0  0
   -3.5996    4.3929    1.1641 H   0  0  0  0  0  0  0  0  0  0  0  0
   -2.2397    3.2621    1.2647 H   0  0  0  0  0  0  0  0  0  0  0  0
   -3.1323    2.9691    3.4546 H   0  0  0  0  0  0  0  0  0  0  0  0
   -4.8002    3.2308    2.9008 H   0  0  0  0  0  0  0  0  0  0  0  0
    1.6581   -5.1560   -0.6113 H   0  0  0  0  0  0  0  0  0  0  0  0
   -1.8553   -6.8981    1.9705 H   0  0  0  0  0  0  0  0  0  0  0  0
   -3.0504   -5.6237    1.5926 H   0  0  0  0  0  0  0  0  0  0  0  0
   -2.6362   -6.8455    0.3543 H   0  0  0  0  0  0  0  0  0  0  0  0
    0.8425    0.4287    0.6671 H   0  0  0  0  0  0  0  0  0  0  0  0
    1.8921    2.6074    0.3370 H   0  0  0  0  0  0  0  0  0  0  0  0
  1  2  1  0
  2  3  1  0
  3  4  1  0
  4  5  2  0
  5  6  1  0
  6  7  2  0
  7  8  1  0
  8  9  1  0
  9 10  2  0
 10 11  1  0
 11 12  1  0
 12 13  1  0
 13 14  1  0
 14 15  1  0
 15 16  1  0
 16 17  1  0
 17 18  1  0
 11 19  2  0
 19 20  1  0
 20 21  2  0
 21 22  1  0
 22 23  2  0
 23 24  1  0
 24 25  1  0
  7 26  1  0
 26 27  2  0
 27  4  1  0
 21  9  1  0
 18 14  1  0
 24 20  1  0
  1 28  1  0
  1 29  1  0
  1 30  1  0
  2 31  1  0
  2 32  1  0
  5 33  1  0
  6 34  1  0
  8 35  1  0
 12 36  1  0
 13 37  1  0
 13 38  1  0
 14 39  1  0
 15 40  1  0
 15 41  1  0
 16 42  1  0
 16 43  1  0
 17 44  1  0
 17 45  1  0
 22 46  1  0
 25 47  1  0
 25 48  1  0
 25 49  1  0
 26 50  1  0
 27 51  1  0
M  END
>  <ScrubInfo>  (1) 
{"isomerGroup": 0, "isomerId": 0, "confId": 0, "nr_conformers:": 1, "nr_isomers:": 9}

$$$$
_i1
     RDKit          3D

 51 54  0  0  0  0  0  0  0  0999 V2000
   -0.0167   -1.3203    0.1548 N   0  0  0  0  0  0  0  0  0  0  0  0
   -1.3793   -1.3619   -0.0545 C   0  0  0  0  0  0  0  0  0  0  0  0
   -1.9301   -0.1098   -0.1523 N   0  0  0  0  0  0  0  0  0  0  0  0
   -3.3790    0.0434   -0.2857 C   0  0  0  0  0  0  0  0  0  0  0  0
   -3.7626    1.4868   -0.6293 C   0  0  0  0  0  0  0  0  0  0  0  0
   -3.4353    2.4962    0.4618 C   0  0  0  0  0  0  0  0  0  0  0  0
   -4.4222    3.5969    0.1636 C   0  0  0  0  0  0  0  0  0  0  0  0
   -5.6488    2.8153   -0.2539 C   0  0  0  0  0  0  0  0  0  0  0  0
   -5.1849    1.5906   -0.8409 O   0  0  0  0  0  0  0  0  0  0  0  0
   -2.0711   -2.4681   -0.1553 N   0  0  0  0  0  0  0  0  0  0  0  0
   -1.2833   -3.5706   -0.0134 C   0  0  0  0  0  0  0  0  0  0  0  0
    0.0804   -3.6214    0.1964 C   0  0  0  0  0  0  0  0  0  0  0  0
    0.3943   -4.9849    0.2707 C   0  0  0  0  0  0  0  0  0  0  0  0
   -0.6872   -5.7622    0.1233 N   0  0  0  0  0  0  0  0  0  0  0  0
   -1.6972   -4.8730   -0.0530 N   0  0  0  0  0  0  0  0  0  0  0  0
   -3.0388   -5.3585   -0.2547 C   0  0  0  0  0  0  0  0  0  0  0  0
    0.8354   -2.3985    0.2788 C   0  0  0  0  0  0  0  0  0  0  0  0
    2.1157   -2.4639    0.4344 N   0  0  0  0  0  0  0  0  0  0  0  0
    2.8247   -1.2598    0.5053 C   0  0  0  0  0  0  0  0  0  0  0  0
    3.3978   -0.7143   -0.6449 C   0  0  0  0  0  0  0  0  0  0  0  0
    4.0957    0.4975   -0.5884 C   0  0  0  0  0  0  0  0  0  0  0  0
    4.2331    1.1683    0.6270 C   0  0  0  0  0  0  0  0  0  0  0  0
    4.8801    2.3566    0.8219 O   0  0  0  0  0  0  0  0  0  0  0  0
    5.5607    2.9174   -0.2997 C   0  0  0  0  0  0  0  0  0  0  0  0
    6.2502    4.1896    0.1594 C   0  0  0  0  0  0  0  0  0  0  0  0
    3.6727    0.6137    1.7807 C   0  0  0  0  0  0  0  0  0  0  0  0
    2.9790   -0.5972    1.7231 C   0  0  0  0  0  0  0  0  0  0  0  0
    0.4298   -0.4235    0.0604 H   0  0  0  0  0  0  0  0  0  0  0  0
   -1.5276    0.5552    0.4973 H   0  0  0  0  0  0  0  0  0  0  0  0
   -3.7579   -0.6127   -1.0793 H   0  0  0  0  0  0  0  0  0  0  0  0
   -3.8767   -0.2687    0.6407 H   0  0  0  0  0  0  0  0  0  0  0  0
   -3.2774    1.7852   -1.5675 H   0  0  0  0  0  0  0  0  0  0  0  0
   -2.3953    2.8330    0.4349 H   0  0  0  0  0  0  0  0  0  0  0  0
   -3.6380    2.0791    1.4557 H   0  0  0  0  0  0  0  0  0  0  0  0
   -4.6082    4.2631    1.0101 H   0  0  0  0  0  0  0  0  0  0  0  0
   -4.0608    4.2026   -0.6759 H   0  0  0  0  0  0  0  0  0  0  0  0
   -6.2677    3.3581   -0.9738 H   0  0  0  0  0  0  0  0  0  0  0  0
   -6.2667    2.5552    0.6120 H   0  0  0  0  0  0  0  0  0  0  0  0
    1.3615   -5.4453    0.4251 H   0  0  0  0  0  0  0  0  0  0  0  0
   -3.0460   -5.9875   -1.1485 H   0  0  0  0  0  0  0  0  0  0  0  0
   -3.3293   -5.9400    0.6239 H   0  0  0  0  0  0  0  0  0  0  0  0
   -3.7263   -4.5203   -0.3873 H   0  0  0  0  0  0  0  0  0  0  0  0
    3.3032   -1.2402   -1.5919 H   0  0  0  0  0  0  0  0  0  0  0  0
    4.5213    0.8830   -1.5087 H   0  0  0  0  0  0  0  0  0  0  0  0
    6.3152    2.2178   -0.6778 H   0  0  0  0  0  0  0  0  0  0  0  0
    4.8450    3.1647   -1.0921 H   0  0  0  0  0  0  0  0  0  0  0  0
    6.7882    4.6618   -0.6674 H   0  0  0  0  0  0  0  0  0  0  0  0
    6.9592    3.9743    0.9657 H   0  0  0  0  0  0  0  0  0  0  0  0
    5.5201    4.9014    0.5587 H   0  0  0  0  0  0  0  0  0  0  0  0
    3.7881    1.1230    2.7345 H   0  0  0  0  0  0  0  0  0  0  0  0
    2.5631   -1.0275    2.6302 H   0  0  0  0  0  0  0  0  0  0  0  0
  1  2  1  0
  2  3  1  0
  3  4  1  0
  4  5  1  0
  5  6  1  0
  6  7  1  0
  7  8  1  0
  8  9  1  0
  2 10  2  0
 10 11  1  0
 11 12  2  0
 12 13  1  0
 13 14  2  0
 14 15  1  0
 15 16  1  0
 12 17  1  0
 17 18  2  3
 18 19  1  0
 19 20  2  0
 20 21  1  0
 21 22  2  0
 22 23  1  0
 23 24  1  0
 24 25  1  0
 22 26  1  0
 26 27  2  0
 17  1  1  0
 27 19  1  0
  9  5  1  0
 15 11  1  0
  1 28  1  0
  3 29  1  0
  4 30  1  0
  4 31  1  0
  5 32  1  0
  6 33  1  0
  6 34  1  0
  7 35  1  0
  7 36  1  0
  8 37  1  0
  8 38  1  0
 13 39  1  0
 16 40  1  0
 16 41  1  0
 16 42  1  0
 20 43  1  0
 21 44  1  0
 24 45  1  0
 24 46  1  0
 25 47  1  0
 25 48  1  0
 25 49  1  0
 26 50  1  0
 27 51  1  0
M  END
>  <ScrubInfo>  (2) 
{"isomerGroup": 0, "isomerId": 1, "confId": 0, "nr_conformers:": 1, "nr_isomers:": 9}

$$$$
_i2
     RDKit          3D

 51 54  0  0  0  0  0  0  0  0999 V2000
   -0.3514   -1.0820   -0.1546 N   0  0  0  0  0  0  0  0  0  0  0  0
    0.3297   -2.2720    0.0147 C   0  0  0  0  0  0  0  0  0  0  0  0
    1.7066   -2.3642   -0.0752 N   0  0  0  0  0  0  0  0  0  0  0  0
    2.6770   -1.4030    0.2699 C   0  0  0  0  0  0  0  0  0  0  0  0
    3.9656   -1.5364   -0.2619 C   0  0  0  0  0  0  0  0  0  0  0  0
    4.9576   -0.5881    0.0083 C   0  0  0  0  0  0  0  0  0  0  0  0
    4.6869    0.5185    0.8131 C   0  0  0  0  0  0  0  0  0  0  0  0
    5.7445    1.3635    0.9900 O   0  0  0  0  0  0  0  0  0  0  0  0
    5.6051    2.4666    1.8841 C   0  0  0  0  0  0  0  0  0  0  0  0
    5.0588    3.6844    1.1592 C   0  0  0  0  0  0  0  0  0  0  0  0
    3.4069    0.6684    1.3386 C   0  0  0  0  0  0  0  0  0  0  0  0
    2.4126   -0.2825    1.0650 C   0  0  0  0  0  0  0  0  0  0  0  0
   -0.4548   -3.3394    0.2102 C   0  0  0  0  0  0  0  0  0  0  0  0
   -0.3004   -4.7852    0.4040 C   0  0  0  0  0  0  0  0  0  0  0  0
   -1.4405   -5.4099    0.5548 N   0  0  0  0  0  0  0  0  0  0  0  0
   -2.4220   -4.4061    0.5210 N   0  0  0  0  0  0  0  0  0  0  0  0
   -3.8060   -4.7843    0.3700 C   0  0  0  0  0  0  0  0  0  0  0  0
   -1.9214   -3.1398    0.2637 C   0  0  0  0  0  0  0  0  0  0  0  0
   -2.5362   -2.0197    0.0880 N   0  0  0  0  0  0  0  0  0  0  0  0
   -1.7138   -0.9415   -0.1560 C   0  0  0  0  0  0  0  0  0  0  0  0
   -2.2141    0.2229   -0.4054 N   0  0  0  0  0  0  0  0  0  0  0  0
   -3.6800    0.3362   -0.3753 C   0  0  0  0  0  0  0  0  0  0  0  0
   -4.1157    1.7814   -0.6469 C   0  0  0  0  0  0  0  0  0  0  0  0
   -3.5951    2.3775   -1.9485 C   0  0  0  0  0  0  0  0  0  0  0  0
   -3.5683    3.8501   -1.6238 C   0  0  0  0  0  0  0  0  0  0  0  0
   -3.1257    3.8371   -0.1774 C   0  0  0  0  0  0  0  0  0  0  0  0
   -3.7029    2.6678    0.4160 O   0  0  0  0  0  0  0  0  0  0  0  0
    0.1826   -0.2780   -0.4502 H   0  0  0  0  0  0  0  0  0  0  0  0
    2.0885   -3.3029   -0.1269 H   0  0  0  0  0  0  0  0  0  0  0  0
    4.2105   -2.3752   -0.9086 H   0  0  0  0  0  0  0  0  0  0  0  0
    5.9501   -0.7121   -0.4184 H   0  0  0  0  0  0  0  0  0  0  0  0
    5.0227    2.2138    2.7768 H   0  0  0  0  0  0  0  0  0  0  0  0
    6.6137    2.7027    2.2422 H   0  0  0  0  0  0  0  0  0  0  0  0
    5.0227    4.5485    1.8288 H   0  0  0  0  0  0  0  0  0  0  0  0
    4.0520    3.5022    0.7718 H   0  0  0  0  0  0  0  0  0  0  0  0
    5.6891    3.9323    0.2987 H   0  0  0  0  0  0  0  0  0  0  0  0
    3.1368    1.5127    1.9636 H   0  0  0  0  0  0  0  0  0  0  0  0
    1.4359   -0.1397    1.5210 H   0  0  0  0  0  0  0  0  0  0  0  0
    0.6902   -5.2572    0.3981 H   0  0  0  0  0  0  0  0  0  0  0  0
   -4.0472   -4.9313   -0.6874 H   0  0  0  0  0  0  0  0  0  0  0  0
   -4.0142   -5.7162    0.9056 H   0  0  0  0  0  0  0  0  0  0  0  0
   -4.4682   -4.0122    0.7746 H   0  0  0  0  0  0  0  0  0  0  0  0
   -4.1251   -0.3140   -1.1381 H   0  0  0  0  0  0  0  0  0  0  0  0
   -4.0524    0.0440    0.6143 H   0  0  0  0  0  0  0  0  0  0  0  0
   -5.2127    1.8128   -0.6514 H   0  0  0  0  0  0  0  0  0  0  0  0
   -2.5784    2.0385   -2.1763 H   0  0  0  0  0  0  0  0  0  0  0  0
   -4.2299    2.1349   -2.8055 H   0  0  0  0  0  0  0  0  0  0  0  0
   -2.9041    4.4305   -2.2692 H   0  0  0  0  0  0  0  0  0  0  0  0
   -4.5797    4.2659   -1.7038 H   0  0  0  0  0  0  0  0  0  0  0  0
   -3.4493    4.7268    0.3698 H   0  0  0  0  0  0  0  0  0  0  0  0
   -2.0365    3.7528   -0.0961 H   0  0  0  0  0  0  0  0  0  0  0  0
  1  2  1  0
  2  3  1  0
  3  4  1  0
  4  5  2  0
  5  6  1  0
  6  7  2  0
  7  8  1  0
  8  9  1  0
  9 10  1  0
  7 11  1  0
 11 12  2  0
  2 13  2  0
 13 14  1  0
 14 15  2  0
 15 16  1  0
 16 17  1  0
 16 18  1  0
 18 19  2  0
 19 20  1  0
 20 21  2  3
 21 22  1  0
 22 23  1  0
 23 24  1  0
 24 25  1  0
 25 26  1  0
 26 27  1  0
 20  1  1  0
 27 23  1  0
 12  4  1  0
 18 13  1  0
  1 28  1  0
  3 29  1  0
  5 30  1  0
  6 31  1  0
  9 32  1  0
  9 33  1  0
 10 34  1  0
 10 35  1  0
 10 36  1  0
 11 37  1  0
 12 38  1  0
 14 39  1  0
 17 40  1  0
 17 41  1  0
 17 42  1  0
 22 43  1  0
 22 44  1  0
 23 45  1  0
 24 46  1  0
 24 47  1  0
 25 48  1  0
 25 49  1  0
 26 50  1  0
 26 51  1  0
M  END
>  <ScrubInfo>  (3) 
{"isomerGroup": 0, "isomerId": 2, "confId": 0, "nr_conformers:": 1, "nr_isomers:": 9}

$$$$
_i3
     RDKit          3D

 51 54  0  0  0  0  0  0  0  0999 V2000
   -1.7156   -1.0626   -2.3108 N   0  0  0  0  0  0  0  0  0  0  0  0
   -2.1318   -0.7284   -1.0403 C   0  0  0  0  0  0  0  0  0  0  0  0
   -3.3004   -0.1919   -0.9085 N   0  0  0  0  0  0  0  0  0  0  0  0
   -3.7147    0.1818    0.4508 C   0  0  0  0  0  0  0  0  0  0  0  0
   -5.0786    0.8787    0.3886 C   0  0  0  0  0  0  0  0  0  0  0  0
   -5.7398    0.9962    1.7536 C   0  0  0  0  0  0  0  0  0  0  0  0
   -6.6593    2.1728    1.5463 C   0  0  0  0  0  0  0  0  0  0  0  0
   -5.8156    3.0784    0.6758 C   0  0  0  0  0  0  0  0  0  0  0  0
   -4.9511    2.2339   -0.0953 O   0  0  0  0  0  0  0  0  0  0  0  0
   -1.3370   -0.9579    0.0749 N   0  0  0  0  0  0  0  0  0  0  0  0
   -0.1494   -1.4729   -0.0907 C   0  0  0  0  0  0  0  0  0  0  0  0
    0.6947   -1.7462    0.9558 N   0  0  0  0  0  0  0  0  0  0  0  0
    1.9792   -1.1640    1.1145 C   0  0  0  0  0  0  0  0  0  0  0  0
    2.8403   -1.7130    2.0716 C   0  0  0  0  0  0  0  0  0  0  0  0
    4.1083   -1.1664    2.2875 C   0  0  0  0  0  0  0  0  0  0  0  0
    4.5373   -0.0555    1.5606 C   0  0  0  0  0  0  0  0  0  0  0  0
    5.7965    0.3777    1.8682 O   0  0  0  0  0  0  0  0  0  0  0  0
    6.2983    1.4914    1.1313 C   0  0  0  0  0  0  0  0  0  0  0  0
    7.7073    1.7783    1.6183 C   0  0  0  0  0  0  0  0  0  0  0  0
    3.6802    0.5092    0.6181 C   0  0  0  0  0  0  0  0  0  0  0  0
    2.4085   -0.0384    0.4014 C   0  0  0  0  0  0  0  0  0  0  0  0
    0.3174   -1.8554   -1.4050 C   0  0  0  0  0  0  0  0  0  0  0  0
    1.4472   -2.4630   -1.9736 C   0  0  0  0  0  0  0  0  0  0  0  0
    1.3450   -2.5822   -3.3076 N   0  0  0  0  0  0  0  0  0  0  0  0
    0.1267   -2.0555   -3.5885 N   0  0  0  0  0  0  0  0  0  0  0  0
   -0.3291   -2.0271   -4.9546 C   0  0  0  0  0  0  0  0  0  0  0  0
   -0.5076   -1.6213   -2.4697 C   0  0  0  0  0  0  0  0  0  0  0  0
   -2.3795   -0.8455   -3.0421 H   0  0  0  0  0  0  0  0  0  0  0  0
   -2.9814    0.8648    0.8972 H   0  0  0  0  0  0  0  0  0  0  0  0
   -3.8000   -0.7215    1.0668 H   0  0  0  0  0  0  0  0  0  0  0  0
   -5.7460    0.3525   -0.3057 H   0  0  0  0  0  0  0  0  0  0  0  0
   -6.2636    0.0837    2.0514 H   0  0  0  0  0  0  0  0  0  0  0  0
   -5.0010    1.2381    2.5275 H   0  0  0  0  0  0  0  0  0  0  0  0
   -6.9795    2.6511    2.4755 H   0  0  0  0  0  0  0  0  0  0  0  0
   -7.5541    1.8539    0.9987 H   0  0  0  0  0  0  0  0  0  0  0  0
   -5.1836    3.7350    1.2832 H   0  0  0  0  0  0  0  0  0  0  0  0
   -6.4193    3.6980    0.0067 H   0  0  0  0  0  0  0  0  0  0  0  0
    0.1920   -1.6094    1.8306 H   0  0  0  0  0  0  0  0  0  0  0  0
    2.5360   -2.5831    2.6486 H   0  0  0  0  0  0  0  0  0  0  0  0
    4.7681   -1.6125    3.0278 H   0  0  0  0  0  0  0  0  0  0  0  0
    6.3306    1.2570    0.0609 H   0  0  0  0  0  0  0  0  0  0  0  0
    5.6731    2.3747    1.3052 H   0  0  0  0  0  0  0  0  0  0  0  0
    7.7070    1.9991    2.6909 H   0  0  0  0  0  0  0  0  0  0  0  0
    8.3509    0.9043    1.4730 H   0  0  0  0  0  0  0  0  0  0  0  0
    8.1395    2.6282    1.0827 H   0  0  0  0  0  0  0  0  0  0  0  0
    3.9632    1.3797    0.0355 H   0  0  0  0  0  0  0  0  0  0  0  0
    1.7608    0.4434   -0.3276 H   0  0  0  0  0  0  0  0  0  0  0  0
    2.3424   -2.8233   -1.4831 H   0  0  0  0  0  0  0  0  0  0  0  0
    0.3946   -1.4624   -5.5480 H   0  0  0  0  0  0  0  0  0  0  0  0
   -0.3995   -3.0563   -5.3152 H   0  0  0  0  0  0  0  0  0  0  0  0
   -1.3079   -1.5463   -5.0110 H   0  0  0  0  0  0  0  0  0  0  0  0
  1  2  1  0
  2  3  2  3
  3  4  1  0
  4  5  1  0
  5  6  1  0
  6  7  1  0
  7  8  1  0
  8  9  1  0
  2 10  1  0
 10 11  2  0
 11 12  1  0
 12 13  1  0
 13 14  2  0
 14 15  1  0
 15 16  2  0
 16 17  1  0
 17 18  1  0
 18 19  1  0
 16 20  1  0
 20 21  2  0
 11 22  1  0
 22 23  1  0
 23 24  2  0
 24 25  1  0
 25 26  1  0
 25 27  1  0
 27  1  1  0
  9  5  1  0
 21 13  1  0
 27 22  2  0
  1 28  1  0
  4 29  1  0
  4 30  1  0
  5 31  1  0
  6 32  1  0
  6 33  1  0
  7 34  1  0
  7 35  1  0
  8 36  1  0
  8 37  1  0
 12 38  1  0
 14 39  1  0
 15 40  1  0
 18 41  1  0
 18 42  1  0
 19 43  1  0
 19 44  1  0
 19 45  1  0
 20 46  1  0
 21 47  1  0
 23 48  1  0
 26 49  1  0
 26 50  1  0
 26 51  1  0
M  END
>  <ScrubInfo>  (4) 
{"isomerGroup": 0, "isomerId": 3, "confId": 0, "nr_conformers:": 1, "nr_isomers:": 9}

$$$$
_i4
     RDKit          3D

 51 54  0  0  0  0  0  0  0  0999 V2000
   -1.8059    2.6363    0.0654 N   0  0  0  0  0  0  0  0  0  0  0  0
   -1.1752    1.4736   -0.3180 C   0  0  0  0  0  0  0  0  0  0  0  0
   -2.0093    0.4970   -0.7810 N   0  0  0  0  0  0  0  0  0  0  0  0
   -3.1226    0.0037    0.0304 C   0  0  0  0  0  0  0  0  0  0  0  0
   -3.7564   -1.2136   -0.6516 C   0  0  0  0  0  0  0  0  0  0  0  0
   -4.9475   -1.7750    0.1055 C   0  0  0  0  0  0  0  0  0  0  0  0
   -4.9549   -3.2083   -0.3646 C   0  0  0  0  0  0  0  0  0  0  0  0
   -3.4759   -3.5234   -0.4424 C   0  0  0  0  0  0  0  0  0  0  0  0
   -2.7998   -2.2915   -0.7359 O   0  0  0  0  0  0  0  0  0  0  0  0
    0.1108    1.2582   -0.2838 N   0  0  0  0  0  0  0  0  0  0  0  0
    0.9524    2.2600    0.1821 C   0  0  0  0  0  0  0  0  0  0  0  0
    2.2379    2.1478    0.2887 N   0  0  0  0  0  0  0  0  0  0  0  0
    2.8291    0.9363   -0.0914 C   0  0  0  0  0  0  0  0  0  0  0  0
    3.2540    0.7351   -1.4046 C   0  0  0  0  0  0  0  0  0  0  0  0
    3.8741   -0.4631   -1.7690 C   0  0  0  0  0  0  0  0  0  0  0  0
    4.0856   -1.4728   -0.8261 C   0  0  0  0  0  0  0  0  0  0  0  0
    4.7047   -2.5868   -1.3191 O   0  0  0  0  0  0  0  0  0  0  0  0
    4.8305   -3.7318   -0.4782 C   0  0  0  0  0  0  0  0  0  0  0  0
    6.1308   -3.6846    0.3052 C   0  0  0  0  0  0  0  0  0  0  0  0
    3.6819   -1.2645    0.4923 C   0  0  0  0  0  0  0  0  0  0  0  0
    3.0609   -0.0631    0.8557 C   0  0  0  0  0  0  0  0  0  0  0  0
    0.3381    3.5058    0.5655 C   0  0  0  0  0  0  0  0  0  0  0  0
    0.7872    4.7477    1.0331 C   0  0  0  0  0  0  0  0  0  0  0  0
   -0.2223    5.6139    1.2253 N   0  0  0  0  0  0  0  0  0  0  0  0
   -1.3256    4.9085    0.8703 N   0  0  0  0  0  0  0  0  0  0  0  0
   -2.6170    5.5407    0.9526 C   0  0  0  0  0  0  0  0  0  0  0  0
   -1.0196    3.6431    0.4833 C   0  0  0  0  0  0  0  0  0  0  0  0
   -2.7672    2.7520   -0.2226 H   0  0  0  0  0  0  0  0  0  0  0  0
   -1.4358   -0.3033   -1.0643 H   0  0  0  0  0  0  0  0  0  0  0  0
   -3.8745    0.7895    0.1584 H   0  0  0  0  0  0  0  0  0  0  0  0
   -2.7392   -0.2801    1.0178 H   0  0  0  0  0  0  0  0  0  0  0  0
   -4.0445   -0.9638   -1.6808 H   0  0  0  0  0  0  0  0  0  0  0  0
   -4.7756   -1.7439    1.1882 H   0  0  0  0  0  0  0  0  0  0  0  0
   -5.8777   -1.2423   -0.1104 H   0  0  0  0  0  0  0  0  0  0  0  0
   -5.4032   -3.2694   -1.3634 H   0  0  0  0  0  0  0  0  0  0  0  0
   -5.5011   -3.8859    0.2966 H   0  0  0  0  0  0  0  0  0  0  0  0
   -3.0976   -3.8888    0.5182 H   0  0  0  0  0  0  0  0  0  0  0  0
   -3.2444   -4.2638   -1.2132 H   0  0  0  0  0  0  0  0  0  0  0  0
    3.0982    1.5125   -2.1463 H   0  0  0  0  0  0  0  0  0  0  0  0
    4.1942   -0.6092   -2.7973 H   0  0  0  0  0  0  0  0  0  0  0  0
    3.9577   -3.8800    0.1672 H   0  0  0  0  0  0  0  0  0  0  0  0
    4.8608   -4.6021   -1.1439 H   0  0  0  0  0  0  0  0  0  0  0  0
    6.9834   -3.5824   -0.3743 H   0  0  0  0  0  0  0  0  0  0  0  0
    6.2595   -4.5963    0.8955 H   0  0  0  0  0  0  0  0  0  0  0  0
    6.1604   -2.8250    0.9812 H   0  0  0  0  0  0  0  0  0  0  0  0
    3.8416   -2.0040    1.2681 H   0  0  0  0  0  0  0  0  0  0  0  0
    2.7543    0.0971    1.8854 H   0  0  0  0  0  0  0  0  0  0  0  0
    1.8029    5.0621    1.2368 H   0  0  0  0  0  0  0  0  0  0  0  0
   -2.7607    5.9031    1.9737 H   0  0  0  0  0  0  0  0  0  0  0  0
   -2.6376    6.3731    0.2447 H   0  0  0  0  0  0  0  0  0  0  0  0
   -3.4001    4.8215    0.7037 H   0  0  0  0  0  0  0  0  0  0  0  0
  1  2  1  0
  2  3  1  0
  3  4  1  0
  4  5  1  0
  5  6  1  0
  6  7  1  0
  7  8  1  0
  8  9  1  0
  2 10  2  0
 10 11  1  0
 11 12  2  3
 12 13  1  0
 13 14  2  0
 14 15  1  0
 15 16  2  0
 16 17  1  0
 17 18  1  0
 18 19  1  0
 16 20  1  0
 20 21  2  0
 11 22  1  0
 22 23  1  0
 23 24  2  0
 24 25  1  0
 25 26  1  0
 25 27  1  0
 27  1  1  0
  9  5  1  0
 21 13  1  0
 27 22  2  0
  1 28  1  0
  3 29  1  0
  4 30  1  0
  4 31  1  0
  5 32  1  0
  6 33  1  0
  6 34  1  0
  7 35  1  0
  7 36  1  0
  8 37  1  0
  8 38  1  0
 14 39  1  0
 15 40  1  0
 18 41  1  0
 18 42  1  0
 19 43  1  0
 19 44  1  0
 19 45  1  0
 20 46  1  0
 21 47  1  0
 23 48  1  0
 26 49  1  0
 26 50  1  0
 26 51  1  0
M  END
>  <ScrubInfo>  (5) 
{"isomerGroup": 0, "isomerId": 4, "confId": 0, "nr_conformers:": 1, "nr_isomers:": 9}

$$$$
_i5
     RDKit          3D

 51 54  0  0  0  0  0  0  0  0999 V2000
    0.8960   -2.5770   -1.3170 N   0  0  0  0  0  0  0  0  0  0  0  0
    1.2140   -1.4233   -0.6080 C   0  0  0  0  0  0  0  0  0  0  0  0
    0.1916   -0.9402    0.1146 C   0  0  0  0  0  0  0  0  0  0  0  0
   -0.0950    0.1582    1.0289 C   0  0  0  0  0  0  0  0  0  0  0  0
    0.6329    1.1609    1.3942 N   0  0  0  0  0  0  0  0  0  0  0  0
    1.9244    1.3240    0.8920 C   0  0  0  0  0  0  0  0  0  0  0  0
    2.1422    2.0306   -0.2907 C   0  0  0  0  0  0  0  0  0  0  0  0
    3.4398    2.1961   -0.7813 C   0  0  0  0  0  0  0  0  0  0  0  0
    4.5369    1.6794   -0.0861 C   0  0  0  0  0  0  0  0  0  0  0  0
    5.7436    1.9056   -0.6851 O   0  0  0  0  0  0  0  0  0  0  0  0
    6.9363    1.6066    0.0388 C   0  0  0  0  0  0  0  0  0  0  0  0
    7.3937    0.1864   -0.2444 C   0  0  0  0  0  0  0  0  0  0  0  0
    4.3219    0.9919    1.1080 C   0  0  0  0  0  0  0  0  0  0  0  0
    3.0210    0.8245    1.5972 C   0  0  0  0  0  0  0  0  0  0  0  0
   -1.3465    0.1053    1.5826 N   0  0  0  0  0  0  0  0  0  0  0  0
   -2.2300   -0.7949    1.2683 C   0  0  0  0  0  0  0  0  0  0  0  0
   -3.4283   -0.7125    1.9116 N   0  0  0  0  0  0  0  0  0  0  0  0
   -4.6831   -1.1860    1.3542 C   0  0  0  0  0  0  0  0  0  0  0  0
   -5.4224   -0.0790    0.5921 C   0  0  0  0  0  0  0  0  0  0  0  0
   -4.7744    0.3856   -0.7037 C   0  0  0  0  0  0  0  0  0  0  0  0
   -5.3209    1.7864   -0.8290 C   0  0  0  0  0  0  0  0  0  0  0  0
   -5.3105    2.2522    0.6109 C   0  0  0  0  0  0  0  0  0  0  0  0
   -5.5718    1.0961    1.4212 O   0  0  0  0  0  0  0  0  0  0  0  0
   -2.0523   -1.7921    0.3469 N   0  0  0  0  0  0  0  0  0  0  0  0
   -0.8985   -1.8766   -0.2165 C   0  0  0  0  0  0  0  0  0  0  0  0
   -0.4660   -2.7988   -1.1717 N   0  0  0  0  0  0  0  0  0  0  0  0
   -0.9570   -4.1640   -1.1585 C   0  0  0  0  0  0  0  0  0  0  0  0
    1.2547   -2.5745   -2.2748 H   0  0  0  0  0  0  0  0  0  0  0  0
    2.2144   -1.0268   -0.7009 H   0  0  0  0  0  0  0  0  0  0  0  0
    1.2997    2.4556   -0.8288 H   0  0  0  0  0  0  0  0  0  0  0  0
    3.5976    2.7437   -1.7073 H   0  0  0  0  0  0  0  0  0  0  0  0
    7.7035    2.2967   -0.3308 H   0  0  0  0  0  0  0  0  0  0  0  0
    6.8422    1.8100    1.1112 H   0  0  0  0  0  0  0  0  0  0  0  0
    7.5225    0.0334   -1.3211 H   0  0  0  0  0  0  0  0  0  0  0  0
    6.6555   -0.5471    0.0929 H   0  0  0  0  0  0  0  0  0  0  0  0
    8.3442   -0.0205    0.2557 H   0  0  0  0  0  0  0  0  0  0  0  0
    5.1367    0.5700    1.6854 H   0  0  0  0  0  0  0  0  0  0  0  0
    2.8584    0.3007    2.5359 H   0  0  0  0  0  0  0  0  0  0  0  0
   -3.5237    0.1622    2.4212 H   0  0  0  0  0  0  0  0  0  0  0  0
   -5.3066   -1.4919    2.2023 H   0  0  0  0  0  0  0  0  0  0  0  0
   -4.5493   -2.0709    0.7229 H   0  0  0  0  0  0  0  0  0  0  0  0
   -6.4383   -0.4322    0.3729 H   0  0  0  0  0  0  0  0  0  0  0  0
   -5.0249   -0.2551   -1.5538 H   0  0  0  0  0  0  0  0  0  0  0  0
   -3.6846    0.4359   -0.6268 H   0  0  0  0  0  0  0  0  0  0  0  0
   -6.3502    1.7514   -1.2053 H   0  0  0  0  0  0  0  0  0  0  0  0
   -4.7345    2.4297   -1.4901 H   0  0  0  0  0  0  0  0  0  0  0  0
   -4.3272    2.6425    0.8945 H   0  0  0  0  0  0  0  0  0  0  0  0
   -6.0631    3.0199    0.8107 H   0  0  0  0  0  0  0  0  0  0  0  0
   -0.5737   -4.7145   -2.0238 H   0  0  0  0  0  0  0  0  0  0  0  0
   -2.0504   -4.1806   -1.2100 H   0  0  0  0  0  0  0  0  0  0  0  0
   -0.6406   -4.6831   -0.2477 H   0  0  0  0  0  0  0  0  0  0  0  0
  1  2  1  0
  2  3  2  0
  3  4  1  0
  4  5  2  3
  5  6  1  0
  6  7  2  0
  7  8  1  0
  8  9  2  0
  9 10  1  0
 10 11  1  0
 11 12  1  0
  9 13  1  0
 13 14  2  0
  4 15  1  0
 15 16  2  0
 16 17  1  0
 17 18  1  0
 18 19  1  0
 19 20  1  0
 20 21  1  0
 21 22  1  0
 22 23  1  0
 16 24  1  0
 24 25  2  0
 25 26  1  0
 26 27  1  0
 26  1  1  0
 25  3  1  0
 14  6  1  0
 23 19  1  0
  1 28  1  0
  2 29  1  0
  7 30  1  0
  8 31  1  0
 11 32  1  0
 11 33  1  0
 12 34  1  0
 12 35  1  0
 12 36  1  0
 13 37  1  0
 14 38  1  0
 17 39  1  0
 18 40  1  0
 18 41  1  0
 19 42  1  0
 20 43  1  0
 20 44  1  0
 21 45  1  0
 21 46  1  0
 22 47  1  0
 22 48  1  0
 27 49  1  0
 27 50  1  0
 27 51  1  0
M  END
>  <ScrubInfo>  (6) 
{"isomerGroup": 0, "isomerId": 5, "confId": 0, "nr_conformers:": 1, "nr_isomers:": 9}

$$$$
_i6
     RDKit          3D

 51 54  0  0  0  0  0  0  0  0999 V2000
    0.3609   -3.5277    0.9271 N   0  0  0  0  0  0  0  0  0  0  0  0
    0.9842   -2.3059    1.1555 C   0  0  0  0  0  0  0  0  0  0  0  0
    0.2252   -1.2594    0.8046 C   0  0  0  0  0  0  0  0  0  0  0  0
    0.2901    0.1999    0.8140 C   0  0  0  0  0  0  0  0  0  0  0  0
    1.3892    0.9188    1.2332 N   0  0  0  0  0  0  0  0  0  0  0  0
    2.7118    0.6789    0.7993 C   0  0  0  0  0  0  0  0  0  0  0  0
    3.0166    0.0896   -0.4307 C   0  0  0  0  0  0  0  0  0  0  0  0
    4.3475   -0.0833   -0.8240 C   0  0  0  0  0  0  0  0  0  0  0  0
    5.3978    0.3427   -0.0085 C   0  0  0  0  0  0  0  0  0  0  0  0
    6.6419    0.1101   -0.5207 O   0  0  0  0  0  0  0  0  0  0  0  0
    7.7859    0.4175    0.2743 C   0  0  0  0  0  0  0  0  0  0  0  0
    8.2255    1.8548    0.0556 C   0  0  0  0  0  0  0  0  0  0  0  0
    5.1012    0.9625    1.2026 C   0  0  0  0  0  0  0  0  0  0  0  0
    3.7681    1.1359    1.5964 C   0  0  0  0  0  0  0  0  0  0  0  0
   -0.7670    0.8654    0.4398 N   0  0  0  0  0  0  0  0  0  0  0  0
   -1.8899    0.1728    0.0402 C   0  0  0  0  0  0  0  0  0  0  0  0
   -2.8923    0.9313   -0.2296 N   0  0  0  0  0  0  0  0  0  0  0  0
   -4.1377    0.2854   -0.6583 C   0  0  0  0  0  0  0  0  0  0  0  0
   -5.2413    1.3431   -0.7720 C   0  0  0  0  0  0  0  0  0  0  0  0
   -6.4216    0.8724   -1.6085 C   0  0  0  0  0  0  0  0  0  0  0  0
   -7.5307    1.7522   -1.0903 C   0  0  0  0  0  0  0  0  0  0  0  0
   -7.2146    1.8166    0.3884 C   0  0  0  0  0  0  0  0  0  0  0  0
   -5.7965    1.6583    0.5240 O   0  0  0  0  0  0  0  0  0  0  0  0
   -2.0115   -1.1926   -0.1007 N   0  0  0  0  0  0  0  0  0  0  0  0
   -0.9954   -1.8938    0.2656 C   0  0  0  0  0  0  0  0  0  0  0  0
   -0.8329   -3.2805    0.2543 N   0  0  0  0  0  0  0  0  0  0  0  0
   -1.9635   -4.1606    0.4839 C   0  0  0  0  0  0  0  0  0  0  0  0
    0.9781   -4.2277    0.5089 H   0  0  0  0  0  0  0  0  0  0  0  0
    1.9826   -2.2903    1.5695 H   0  0  0  0  0  0  0  0  0  0  0  0
    1.1880    1.9164    1.1820 H   0  0  0  0  0  0  0  0  0  0  0  0
    2.2308   -0.2271   -1.1117 H   0  0  0  0  0  0  0  0  0  0  0  0
    4.5669   -0.5465   -1.7835 H   0  0  0  0  0  0  0  0  0  0  0  0
    7.6380    0.1810    1.3337 H   0  0  0  0  0  0  0  0  0  0  0  0
    8.5884   -0.2445   -0.0707 H   0  0  0  0  0  0  0  0  0  0  0  0
    8.4044    2.0427   -1.0083 H   0  0  0  0  0  0  0  0  0  0  0  0
    7.4558    2.5627    0.3768 H   0  0  0  0  0  0  0  0  0  0  0  0
    9.1450    2.0659    0.6091 H   0  0  0  0  0  0  0  0  0  0  0  0
    5.8759    1.3347    1.8638 H   0  0  0  0  0  0  0  0  0  0  0  0
    3.5578    1.6243    2.5458 H   0  0  0  0  0  0  0  0  0  0  0  0
   -4.4472   -0.4790    0.0652 H   0  0  0  0  0  0  0  0  0  0  0  0
   -3.9800   -0.1791   -1.6391 H   0  0  0  0  0  0  0  0  0  0  0  0
   -4.8399    2.2769   -1.1862 H   0  0  0  0  0  0  0  0  0  0  0  0
   -6.6563   -0.1783   -1.3986 H   0  0  0  0  0  0  0  0  0  0  0  0
   -6.2499    0.9792   -2.6832 H   0  0  0  0  0  0  0  0  0  0  0  0
   -8.5324    1.3662   -1.2961 H   0  0  0  0  0  0  0  0  0  0  0  0
   -7.4514    2.7518   -1.5340 H   0  0  0  0  0  0  0  0  0  0  0  0
   -7.5256    2.7618    0.8421 H   0  0  0  0  0  0  0  0  0  0  0  0
   -7.6939    0.9954    0.9316 H   0  0  0  0  0  0  0  0  0  0  0  0
   -1.6646   -5.2056    0.3532 H   0  0  0  0  0  0  0  0  0  0  0  0
   -2.7661   -3.9507   -0.2304 H   0  0  0  0  0  0  0  0  0  0  0  0
   -2.3552   -4.0347    1.4988 H   0  0  0  0  0  0  0  0  0  0  0  0
  1  2  1  0
  2  3  2  0
  3  4  1  0
  4  5  1  0
  5  6  1  0
  6  7  2  0
  7  8  1  0
  8  9  2  0
  9 10  1  0
 10 11  1  0
 11 12  1  0
  9 13  1  0
 13 14  2  0
  4 15  2  0
 15 16  1  0
 16 17  2  3
 17 18  1  0
 18 19  1  0
 19 20  1  0
 20 21  1  0
 21 22  1  0
 22 23  1  0
 16 24  1  0
 24 25  2  0
 25 26  1  0
 26 27  1  0
 26  1  1  0
 25  3  1  0
 14  6  1  0
 23 19  1  0
  1 28  1  0
  2 29  1  0
  5 30  1  0
  7 31  1  0
  8 32  1  0
 11 33  1  0
 11 34  1  0
 12 35  1  0
 12 36  1  0
 12 37  1  0
 13 38  1  0
 14 39  1  0
 18 40  1  0
 18 41  1  0
 19 42  1  0
 20 43  1  0
 20 44  1  0
 21 45  1  0
 21 46  1  0
 22 47  1  0
 22 48  1  0
 27 49  1  0
 27 50  1  0
 27 51  1  0
M  END
>  <ScrubInfo>  (7) 
{"isomerGroup": 0, "isomerId": 6, "confId": 0, "nr_conformers:": 1, "nr_isomers:": 9}

$$$$
_i7
     RDKit          3D

 51 54  0  0  0  0  0  0  0  0999 V2000
   -1.6711   -1.8167    0.5288 N   0  0  0  0  0  0  0  0  0  0  0  0
   -2.1494   -0.5317    0.3737 C   0  0  0  0  0  0  0  0  0  0  0  0
   -3.4230   -0.3402    0.4652 N   0  0  0  0  0  0  0  0  0  0  0  0
   -3.9205    1.0256    0.2986 C   0  0  0  0  0  0  0  0  0  0  0  0
   -5.4410    1.0484    0.4584 C   0  0  0  0  0  0  0  0  0  0  0  0
   -6.1876    0.2603   -0.6070 C   0  0  0  0  0  0  0  0  0  0  0  0
   -7.5303    0.9462   -0.6030 C   0  0  0  0  0  0  0  0  0  0  0  0
   -7.1418    2.3952   -0.4018 C   0  0  0  0  0  0  0  0  0  0  0  0
   -5.9251    2.4036    0.3599 O   0  0  0  0  0  0  0  0  0  0  0  0
   -1.1544    0.3963    0.1332 N   0  0  0  0  0  0  0  0  0  0  0  0
    0.2157    0.2531    0.0261 C   0  0  0  0  0  0  0  0  0  0  0  0
    0.9711    1.2851   -0.2045 N   0  0  0  0  0  0  0  0  0  0  0  0
    2.3575    1.1829   -0.3187 C   0  0  0  0  0  0  0  0  0  0  0  0
    3.1721    1.3509    0.8030 C   0  0  0  0  0  0  0  0  0  0  0  0
    4.5660    1.2789    0.6912 C   0  0  0  0  0  0  0  0  0  0  0  0
    5.1578    1.0570   -0.5517 C   0  0  0  0  0  0  0  0  0  0  0  0
    6.4955    0.9561   -0.8085 O   0  0  0  0  0  0  0  0  0  0  0  0
    7.4225    1.1851    0.2512 C   0  0  0  0  0  0  0  0  0  0  0  0
    7.7013   -0.0988    1.0134 C   0  0  0  0  0  0  0  0  0  0  0  0
    4.3415    0.9117   -1.6772 C   0  0  0  0  0  0  0  0  0  0  0  0
    2.9508    0.9839   -1.5649 C   0  0  0  0  0  0  0  0  0  0  0  0
    0.6157   -1.1325    0.2043 C   0  0  0  0  0  0  0  0  0  0  0  0
    1.8122   -1.8738    0.2107 C   0  0  0  0  0  0  0  0  0  0  0  0
    1.6147   -3.1812    0.4396 N   0  0  0  0  0  0  0  0  0  0  0  0
    0.2743   -3.2866    0.5708 N   0  0  0  0  0  0  0  0  0  0  0  0
   -0.3076   -4.5788    0.8323 C   0  0  0  0  0  0  0  0  0  0  0  0
   -0.3512   -2.0852    0.4433 C   0  0  0  0  0  0  0  0  0  0  0  0
   -2.3875   -2.5097    0.7103 H   0  0  0  0  0  0  0  0  0  0  0  0
   -3.6512    1.4254   -0.6873 H   0  0  0  0  0  0  0  0  0  0  0  0
   -3.4803    1.6930    1.0503 H   0  0  0  0  0  0  0  0  0  0  0  0
   -5.7165    0.6806    1.4551 H   0  0  0  0  0  0  0  0  0  0  0  0
   -5.7153    0.3816   -1.5894 H   0  0  0  0  0  0  0  0  0  0  0  0
   -6.2478   -0.8086   -0.3837 H   0  0  0  0  0  0  0  0  0  0  0  0
   -8.1114    0.7827   -1.5143 H   0  0  0  0  0  0  0  0  0  0  0  0
   -8.1242    0.5961    0.2497 H   0  0  0  0  0  0  0  0  0  0  0  0
   -7.9107    2.9663    0.1259 H   0  0  0  0  0  0  0  0  0  0  0  0
   -6.9374    2.8867   -1.3589 H   0  0  0  0  0  0  0  0  0  0  0  0
   -1.4460    1.3542    0.0151 H   0  0  0  0  0  0  0  0  0  0  0  0
    2.7182    1.5362    1.7730 H   0  0  0  0  0  0  0  0  0  0  0  0
    5.1517    1.3980    1.5956 H   0  0  0  0  0  0  0  0  0  0  0  0
    8.3552    1.5147   -0.2208 H   0  0  0  0  0  0  0  0  0  0  0  0
    7.1150    2.0052    0.9091 H   0  0  0  0  0  0  0  0  0  0  0  0
    8.0458   -0.8823    0.3303 H   0  0  0  0  0  0  0  0  0  0  0  0
    6.7994   -0.4792    1.5020 H   0  0  0  0  0  0  0  0  0  0  0  0
    8.4678    0.0639    1.7765 H   0  0  0  0  0  0  0  0  0  0  0  0
    4.7933    0.7462   -2.6523 H   0  0  0  0  0  0  0  0  0  0  0  0
    2.3308    0.8832   -2.4510 H   0  0  0  0  0  0  0  0  0  0  0  0
    2.8292   -1.5371    0.0633 H   0  0  0  0  0  0  0  0  0  0  0  0
   -1.3487   -4.5863    0.5020 H   0  0  0  0  0  0  0  0  0  0  0  0
    0.2524   -5.3384    0.2803 H   0  0  0  0  0  0  0  0  0  0  0  0
   -0.2478   -4.7673    1.9068 H   0  0  0  0  0  0  0  0  0  0  0  0
  1  2  1  0
  2  3  2  3
  3  4  1  0
  4  5  1  0
  5  6  1  0
  6  7  1  0
  7  8  1  0
  8  9  1  0
  2 10  1  0
 10 11  1  0
 11 12  2  3
 12 13  1  0
 13 14  2  0
 14 15  1  0
 15 16  2  0
 16 17  1  0
 17 18  1  0
 18 19  1  0
 16 20  1  0
 20 21  2  0
 11 22  1  0
 22 23  1  0
 23 24  2  0
 24 25  1  0
 25 26  1  0
 25 27  1  0
 27  1  1  0
  9  5  1  0
 21 13  1  0
 27 22  2  0
  1 28  1  0
  4 29  1  0
  4 30  1  0
  5 31  1  0
  6 32  1  0
  6 33  1  0
  7 34  1  0
  7 35  1  0
  8 36  1  0
  8 37  1  0
 10 38  1  0
 14 39  1  0
 15 40  1  0
 18 41  1  0
 18 42  1  0
 19 43  1  0
 19 44  1  0
 19 45  1  0
 20 46  1  0
 21 47  1  0
 23 48  1  0
 26 49  1  0
 26 50  1  0
 26 51  1  0
M  END
>  <ScrubInfo>  (8) 
{"isomerGroup": 0, "isomerId": 7, "confId": 0, "nr_conformers:": 1, "nr_isomers:": 9}

$$$$
_i8
     RDKit          3D

 51 54  0  0  0  0  0  0  0  0999 V2000
    1.1145   -3.0565   -0.2560 N   0  0  0  0  0  0  0  0  0  0  0  0
    1.4627   -1.7113   -0.2102 C   0  0  0  0  0  0  0  0  0  0  0  0
    0.4134   -0.8906   -0.0590 C   0  0  0  0  0  0  0  0  0  0  0  0
    0.1018    0.5506    0.0185 C   0  0  0  0  0  0  0  0  0  0  0  0
    0.9092    1.5701    0.0026 N   0  0  0  0  0  0  0  0  0  0  0  0
    2.2907    1.3880   -0.0906 C   0  0  0  0  0  0  0  0  0  0  0  0
    2.9188    1.3655   -1.3357 C   0  0  0  0  0  0  0  0  0  0  0  0
    4.3033    1.1998   -1.4215 C   0  0  0  0  0  0  0  0  0  0  0  0
    5.0781    1.0751   -0.2653 C   0  0  0  0  0  0  0  0  0  0  0  0
    6.4170    0.9152   -0.4905 O   0  0  0  0  0  0  0  0  0  0  0  0
    7.2663    0.8571    0.6543 C   0  0  0  0  0  0  0  0  0  0  0  0
    8.6980    0.7195    0.1684 C   0  0  0  0  0  0  0  0  0  0  0  0
    4.4548    1.1226    0.9818 C   0  0  0  0  0  0  0  0  0  0  0  0
    3.0671    1.2858    1.0658 C   0  0  0  0  0  0  0  0  0  0  0  0
   -1.2430    0.7818    0.1174 N   0  0  0  0  0  0  0  0  0  0  0  0
   -2.2453   -0.1443    0.1691 C   0  0  0  0  0  0  0  0  0  0  0  0
   -3.4651    0.2757    0.2478 N   0  0  0  0  0  0  0  0  0  0  0  0
   -4.5194   -0.7468    0.3284 C   0  0  0  0  0  0  0  0  0  0  0  0
   -5.8981   -0.0912    0.4766 C   0  0  0  0  0  0  0  0  0  0  0  0
   -6.2547    0.9146   -0.6103 C   0  0  0  0  0  0  0  0  0  0  0  0
   -7.2156    1.8234    0.1148 C   0  0  0  0  0  0  0  0  0  0  0  0
   -6.5993    1.8831    1.4950 C   0  0  0  0  0  0  0  0  0  0  0  0
   -6.0234    0.5944    1.7412 O   0  0  0  0  0  0  0  0  0  0  0  0
   -1.9794   -1.4971    0.1387 N   0  0  0  0  0  0  0  0  0  0  0  0
   -0.7368   -1.8576    0.0503 C   0  0  0  0  0  0  0  0  0  0  0  0
   -0.2390   -3.1627    0.0275 N   0  0  0  0  0  0  0  0  0  0  0  0
   -1.0025   -4.2452   -0.5628 C   0  0  0  0  0  0  0  0  0  0  0  0
    1.7391   -3.6560    0.2881 H   0  0  0  0  0  0  0  0  0  0  0  0
    2.5075   -1.4528   -0.2999 H   0  0  0  0  0  0  0  0  0  0  0  0
    2.3293    1.4778   -2.2412 H   0  0  0  0  0  0  0  0  0  0  0  0
    4.7826    1.1774   -2.3972 H   0  0  0  0  0  0  0  0  0  0  0  0
    7.1754    1.7767    1.2439 H   0  0  0  0  0  0  0  0  0  0  0  0
    7.0129   -0.0129    1.2709 H   0  0  0  0  0  0  0  0  0  0  0  0
    8.8138   -0.1841   -0.4393 H   0  0  0  0  0  0  0  0  0  0  0  0
    8.9728    1.5681   -0.4667 H   0  0  0  0  0  0  0  0  0  0  0  0
    9.3928    0.6696    1.0115 H   0  0  0  0  0  0  0  0  0  0  0  0
    5.0145    1.0428    1.9074 H   0  0  0  0  0  0  0  0  0  0  0  0
    2.5869    1.3374    2.0395 H   0  0  0  0  0  0  0  0  0  0  0  0
   -1.5404    1.7442    0.1726 H   0  0  0  0  0  0  0  0  0  0  0  0
   -4.3475   -1.3873    1.2022 H   0  0  0  0  0  0  0  0  0  0  0  0
   -4.5180   -1.3618   -0.5796 H   0  0  0  0  0  0  0  0  0  0  0  0
   -6.6548   -0.8859    0.4925 H   0  0  0  0  0  0  0  0  0  0  0  0
   -6.6906    0.4411   -1.4946 H   0  0  0  0  0  0  0  0  0  0  0  0
   -5.3830    1.4940   -0.9342 H   0  0  0  0  0  0  0  0  0  0  0  0
   -8.2047    1.3530    0.1648 H   0  0  0  0  0  0  0  0  0  0  0  0
   -7.3241    2.8075   -0.3483 H   0  0  0  0  0  0  0  0  0  0  0  0
   -5.7945    2.6250    1.5388 H   0  0  0  0  0  0  0  0  0  0  0  0
   -7.3315    2.1151    2.2732 H   0  0  0  0  0  0  0  0  0  0  0  0
   -0.4932   -5.2013   -0.4041 H   0  0  0  0  0  0  0  0  0  0  0  0
   -1.9932   -4.3148   -0.1024 H   0  0  0  0  0  0  0  0  0  0  0  0
   -1.1261   -4.0916   -1.6399 H   0  0  0  0  0  0  0  0  0  0  0  0
  1  2  1  0
  2  3  2  0
  3  4  1  0
  4  5  2  3
  5  6  1  0
  6  7  2  0
  7  8  1  0
  8  9  2  0
  9 10  1  0
 10 11  1  0
 11 12  1  0
  9 13  1  0
 13 14  2  0
  4 15  1  0
 15 16  1  0
 16 17  2  3
 17 18  1  0
 18 19  1  0
 19 20  1  0
 20 21  1  0
 21 22  1  0
 22 23  1  0
 16 24  1  0
 24 25  2  0
 25 26  1  0
 26 27  1  0
 26  1  1  0
 25  3  1  0
 14  6  1  0
 23 19  1  0
  1 28  1  0
  2 29  1  0
  7 30  1  0
  8 31  1  0
 11 32  1  0
 11 33  1  0
 12 34  1  0
 12 35  1  0
 12 36  1  0
 13 37  1  0
 14 38  1  0
 15 39  1  0
 18 40  1  0
 18 41  1  0
 19 42  1  0
 20 43  1  0
 20 44  1  0
 21 45  1  0
 21 46  1  0
 22 47  1  0
 22 48  1  0
 27 49  1  0
 27 50  1  0
 27 51  1  0
M  END
>  <ScrubInfo>  (9) 
{"isomerGroup": 0, "isomerId": 8, "confId": 0, "nr_conformers:": 1, "nr_isomers:": 9}

$$$$
