REMARK SMILES CCOc1ccc(Nc2nc(NC[C@@H]3CCCO3)nc3c2cnn3C)cc1
REMARK SMILES IDX 8 1 7 3 4 4 5 5 27 6 6 7 26 8 3 9 2 10 1 11 9 12 10 13 21 14
REMARK SMILES IDX 11 15 20 16 22 17 19 18 24 19 23 20 25 21 12 22 13 24 14 25
REMARK SMILES IDX 15 26 18 27 16 28 17 29
REMARK H PARENT 8 2 12 23
ROOT
ATOM      1  N   UNL     1       1.596  -1.919  -0.554  1.00  0.00    -0.339 N 
ATOM      2  H   UNL     1       2.180  -2.666  -0.902  1.00  0.00     0.168 HD
ENDROOT
BRANCH   1   3
ATOM      3  C   UNL     1       2.174  -0.642  -0.663  1.00  0.00     0.040 A 
ATOM      4  C   UNL     1       3.387   1.895  -1.037  1.00  0.00     0.119 A 
ATOM      5  C   UNL     1       3.880   0.777  -1.703  1.00  0.00     0.048 A 
ATOM      6  C   UNL     1       2.288   1.744  -0.192  1.00  0.00     0.048 A 
ATOM      7  C   UNL     1       3.275  -0.475  -1.518  1.00  0.00     0.030 A 
ATOM      8  C   UNL     1       1.687   0.493  -0.012  1.00  0.00     0.030 A 
BRANCH   4   9
ATOM      9  O   UNL     1       3.875   3.168  -1.124  1.00  0.00    -0.494 OA
BRANCH   9  10
ATOM     10  C   UNL     1       5.009   3.373  -1.964  1.00  0.00     0.226 C 
ATOM     11  C   UNL     1       5.381   4.843  -1.898  1.00  0.00     0.049 C 
ENDBRANCH   9  10
ENDBRANCH   4   9
ENDBRANCH   1   3
BRANCH   1  12
ATOM     12  C   UNL     1       0.395  -2.359   0.022  1.00  0.00     0.147 A 
ATOM     13  N   UNL     1      -0.549  -1.488   0.465  1.00  0.00    -0.195 NA
ATOM     14  C   UNL     1       0.093  -3.722   0.134  1.00  0.00     0.082 A 
ATOM     15  C   UNL     1      -1.707  -1.925   0.996  1.00  0.00     0.226 A 
ATOM     16  C   UNL     1      -1.127  -4.056   0.689  1.00  0.00     0.165 A 
ATOM     17  C   UNL     1       0.692  -4.964  -0.165  1.00  0.00     0.149 A 
ATOM     18  N   UNL     1      -2.065  -3.207   1.130  1.00  0.00    -0.193 NA
ATOM     19  N   UNL     1      -1.179  -5.424   0.693  1.00  0.00    -0.250 N 
ATOM     20  N   UNL     1      -0.077  -6.008   0.166  1.00  0.00    -0.179 NA
ATOM     21  C   UNL     1      -2.253  -6.249   1.186  1.00  0.00     0.176 C 
BRANCH  15  22
ATOM     22  N   UNL     1      -2.639  -1.003   1.440  1.00  0.00    -0.351 N 
ATOM     23  H   UNL     1      -3.534  -1.466   1.535  1.00  0.00     0.163 HD
BRANCH  22  24
ATOM     24  C   UNL     1      -2.630   0.286   0.762  1.00  0.00     0.148 C 
BRANCH  24  25
ATOM     25  C   UNL     1      -3.928   1.070   1.050  1.00  0.00     0.137 C 
ATOM     26  C   UNL     1      -3.968   2.406   0.321  1.00  0.00     0.036 C 
ATOM     27  O   UNL     1      -4.025   1.385   2.454  1.00  0.00    -0.376 OA
ATOM     28  C   UNL     1      -3.332   3.344   1.316  1.00  0.00     0.031 C 
ATOM     29  C   UNL     1      -3.832   2.794   2.633  1.00  0.00     0.160 C 
ENDBRANCH  24  25
ENDBRANCH  22  24
ENDBRANCH  15  22
ENDBRANCH   1  12
TORSDOF 7
