REMARK SMILES Cc1c(Cl)cccc1Nc1nc(NCCCNC=O)nc2c1cnn2C
REMARK SMILES IDX 13 1 12 3 10 4 11 5 22 6 21 7 23 8 20 9 25 10 24 11 26 12
REMARK SMILES IDX 9 13 8 15 2 16 3 17 5 18 7 19 6 20 1 21 4 22 14 23 15 24
REMARK SMILES IDX 16 25 17 26 18 27 19 29
REMARK H PARENT 13 2 9 14 17 28
ROOT
ATOM      1  N   UNL     1       1.937   0.274  -0.673  1.00  0.00    -0.354 N 
ATOM      2  H   UNL     1       1.629  -0.675  -0.476  1.00  0.00     0.163 HD
ENDROOT
BRANCH   1   3
ATOM      3  C   UNL     1       0.841   1.067  -0.344  1.00  0.00     0.226 A 
ATOM      4  C   UNL     1      -1.473   1.031   0.086  1.00  0.00     0.147 A 
ATOM      5  N   UNL     1      -0.313   0.390  -0.218  1.00  0.00    -0.195 NA
ATOM      6  C   UNL     1      -1.395   2.416   0.275  1.00  0.00     0.082 A 
ATOM      7  C   UNL     1      -0.155   3.007   0.125  1.00  0.00     0.165 A 
ATOM      8  C   UNL     1      -2.255   3.487   0.596  1.00  0.00     0.149 A 
ATOM      9  N   UNL     1       0.994   2.387  -0.178  1.00  0.00    -0.193 NA
ATOM     10  N   UNL     1      -0.344   4.343   0.350  1.00  0.00    -0.250 N 
ATOM     11  N   UNL     1      -1.624   4.665   0.649  1.00  0.00    -0.179 NA
ATOM     12  C   UNL     1       0.656   5.380   0.299  1.00  0.00     0.176 C 
BRANCH   4  13
ATOM     13  N   UNL     1      -2.681   0.335   0.247  1.00  0.00    -0.339 N 
ATOM     14  H   UNL     1      -3.454   0.926   0.513  1.00  0.00     0.168 HD
BRANCH  13  15
ATOM     15  C   UNL     1      -3.054  -0.993  -0.061  1.00  0.00     0.044 A 
ATOM     16  C   UNL     1      -4.202  -1.568   0.546  1.00  0.00    -0.009 A 
ATOM     17  C   UNL     1      -4.569  -2.887   0.202  1.00  0.00     0.046 A 
ATOM     18  C   UNL     1      -3.788  -3.650  -0.667  1.00  0.00     0.021 A 
ATOM     19  C   UNL     1      -2.276  -1.794  -0.913  1.00  0.00     0.026 A 
ATOM     20  C   UNL     1      -2.636  -3.107  -1.217  1.00  0.00     0.004 A 
ATOM     21  C   UNL     1      -5.044  -0.768   1.511  1.00  0.00     0.048 C 
ATOM     22  Cl  UNL     1      -6.004  -3.636   0.818  1.00  0.00    -0.084 Cl
ENDBRANCH  13  15
ENDBRANCH   4  13
ENDBRANCH   1   3
BRANCH   1  23
ATOM     23  C   UNL     1       3.184   0.684  -0.053  1.00  0.00     0.118 C 
BRANCH  23  24
ATOM     24  C   UNL     1       4.322  -0.248  -0.471  1.00  0.00     0.042 C 
BRANCH  24  25
ATOM     25  C   UNL     1       4.243  -1.609   0.210  1.00  0.00     0.117 C 
BRANCH  25  26
ATOM     26  N   UNL     1       5.357  -2.458  -0.165  1.00  0.00    -0.359 N 
ATOM     27  C   UNL     1       5.328  -3.807   0.080  1.00  0.00     0.337 C 
ATOM     28  H   UNL     1       6.253  -2.038  -0.379  1.00  0.00     0.163 HD
ATOM     29  O   UNL     1       4.382  -4.429   0.540  1.00  0.00    -0.279 OA
ENDBRANCH  25  26
ENDBRANCH  24  25
ENDBRANCH  23  24
ENDBRANCH   1  23
TORSDOF 7
