_i0
     RDKit          3D

 46 48  0  0  0  0  0  0  0  0999 V2000
   -5.0441   -0.7676    1.5107 C   0  0  0  0  0  0  0  0  0  0  0  0
   -4.2025   -1.5678    0.5463 C   0  0  0  0  0  0  0  0  0  0  0  0
   -4.5695   -2.8871    0.2022 C   0  0  0  0  0  0  0  0  0  0  0  0
   -6.0042   -3.6361    0.8184 Cl  0  0  0  0  0  0  0  0  0  0  0  0
   -3.7882   -3.6497   -0.6671 C   0  0  0  0  0  0  0  0  0  0  0  0
   -2.6357   -3.1069   -1.2167 C   0  0  0  0  0  0  0  0  0  0  0  0
   -2.2764   -1.7939   -0.9134 C   0  0  0  0  0  0  0  0  0  0  0  0
   -3.0537   -0.9929   -0.0606 C   0  0  0  0  0  0  0  0  0  0  0  0
   -2.6809    0.3345    0.2469 N   0  0  0  0  0  0  0  0  0  0  0  0
   -1.4728    1.0307    0.0859 C   0  0  0  0  0  0  0  0  0  0  0  0
   -0.3128    0.3899   -0.2178 N   0  0  0  0  0  0  0  0  0  0  0  0
    0.8410    1.0675   -0.3439 C   0  0  0  0  0  0  0  0  0  0  0  0
    1.9367    0.2740   -0.6730 N   0  0  0  0  0  0  0  0  0  0  0  0
    3.1842    0.6841   -0.0533 C   0  0  0  0  0  0  0  0  0  0  0  0
    4.3225   -0.2480   -0.4713 C   0  0  0  0  0  0  0  0  0  0  0  0
    4.2430   -1.6094    0.2099 C   0  0  0  0  0  0  0  0  0  0  0  0
    5.3569   -2.4575   -0.1647 N   0  0  0  0  0  0  0  0  0  0  0  0
    5.3282   -3.8073    0.0801 C   0  0  0  0  0  0  0  0  0  0  0  0
    4.3823   -4.4292    0.5397 O   0  0  0  0  0  0  0  0  0  0  0  0
    0.9937    2.3874   -0.1781 N   0  0  0  0  0  0  0  0  0  0  0  0
   -0.1555    3.0067    0.1254 C   0  0  0  0  0  0  0  0  0  0  0  0
   -1.3951    2.4163    0.2745 C   0  0  0  0  0  0  0  0  0  0  0  0
   -2.2551    3.4874    0.5959 C   0  0  0  0  0  0  0  0  0  0  0  0
   -1.6240    4.6655    0.6487 N   0  0  0  0  0  0  0  0  0  0  0  0
   -0.3436    4.3431    0.3502 N   0  0  0  0  0  0  0  0  0  0  0  0
    0.6558    5.3803    0.2994 C   0  0  0  0  0  0  0  0  0  0  0  0
   -5.5648   -1.4007    2.2346 H   0  0  0  0  0  0  0  0  0  0  0  0
   -5.7824   -0.1772    0.9595 H   0  0  0  0  0  0  0  0  0  0  0  0
   -4.4278   -0.0956    2.1169 H   0  0  0  0  0  0  0  0  0  0  0  0
   -4.0733   -4.6681   -0.9182 H   0  0  0  0  0  0  0  0  0  0  0  0
   -2.0186   -3.6959   -1.8901 H   0  0  0  0  0  0  0  0  0  0  0  0
   -1.3835   -1.3951   -1.3875 H   0  0  0  0  0  0  0  0  0  0  0  0
   -3.4544    0.9264    0.5128 H   0  0  0  0  0  0  0  0  0  0  0  0
    1.6293   -0.6746   -0.4763 H   0  0  0  0  0  0  0  0  0  0  0  0
    3.0928    0.7000    1.0400 H   0  0  0  0  0  0  0  0  0  0  0  0
    3.4505    1.6960   -0.3838 H   0  0  0  0  0  0  0  0  0  0  0  0
    4.3300   -0.3754   -1.5612 H   0  0  0  0  0  0  0  0  0  0  0  0
    5.2766    0.2246   -0.2050 H   0  0  0  0  0  0  0  0  0  0  0  0
    4.2729   -1.4985    1.2998 H   0  0  0  0  0  0  0  0  0  0  0  0
    3.3122   -2.1270   -0.0457 H   0  0  0  0  0  0  0  0  0  0  0  0
    6.2526   -2.0377   -0.3787 H   0  0  0  0  0  0  0  0  0  0  0  0
    6.2818   -4.2923   -0.1875 H   0  0  0  0  0  0  0  0  0  0  0  0
   -3.3184    3.4625    0.7946 H   0  0  0  0  0  0  0  0  0  0  0  0
    0.7114    5.8521    1.2837 H   0  0  0  0  0  0  0  0  0  0  0  0
    0.3563    6.1094   -0.4577 H   0  0  0  0  0  0  0  0  0  0  0  0
    1.6266    4.9533    0.0381 H   0  0  0  0  0  0  0  0  0  0  0  0
  1  2  1  0
  2  3  2  0
  3  4  1  0
  3  5  1  0
  5  6  2  0
  6  7  1  0
  7  8  2  0
  8  9  1  0
  9 10  1  0
 10 11  2  0
 11 12  1  0
 12 13  1  0
 13 14  1  0
 14 15  1  0
 15 16  1  0
 16 17  1  0
 17 18  1  0
 18 19  2  0
 12 20  2  0
 20 21  1  0
 21 22  2  0
 22 23  1  0
 23 24  2  0
 24 25  1  0
 25 26  1  0
  8  2  1  0
 22 10  1  0
 25 21  1  0
  1 27  1  0
  1 28  1  0
  1 29  1  0
  5 30  1  0
  6 31  1  0
  7 32  1  0
  9 33  1  0
 13 34  1  0
 14 35  1  0
 14 36  1  0
 15 37  1  0
 15 38  1  0
 16 39  1  0
 16 40  1  0
 17 41  1  0
 18 42  1  0
 23 43  1  0
 26 44  1  0
 26 45  1  0
 26 46  1  0
M  END
>  <ScrubInfo>  (1) 
{"isomerGroup": 0, "isomerId": 0, "confId": 0, "nr_conformers:": 1, "nr_isomers:": 9}

$$$$
_i1
     RDKit          3D

 46 48  0  0  0  0  0  0  0  0999 V2000
   -0.8402    0.2629   -0.0018 N   0  0  0  0  0  0  0  0  0  0  0  0
    0.4906    0.5055   -0.2707 C   0  0  0  0  0  0  0  0  0  0  0  0
    1.2597   -0.6243   -0.1651 N   0  0  0  0  0  0  0  0  0  0  0  0
    2.7091   -0.5425   -0.3073 C   0  0  0  0  0  0  0  0  0  0  0  0
    3.3023   -1.9485   -0.3271 C   0  0  0  0  0  0  0  0  0  0  0  0
    4.8146   -1.9359   -0.5407 C   0  0  0  0  0  0  0  0  0  0  0  0
    5.5456   -1.2863    0.5280 N   0  0  0  0  0  0  0  0  0  0  0  0
    5.7018   -1.8669    1.7608 C   0  0  0  0  0  0  0  0  0  0  0  0
    5.2083   -2.9266    2.1158 O   0  0  0  0  0  0  0  0  0  0  0  0
    0.9701    1.6780   -0.6028 N   0  0  0  0  0  0  0  0  0  0  0  0
   -0.0048    2.6295   -0.6347 C   0  0  0  0  0  0  0  0  0  0  0  0
   -1.3537    2.4753   -0.3834 C   0  0  0  0  0  0  0  0  0  0  0  0
   -1.9114    3.7497   -0.5510 C   0  0  0  0  0  0  0  0  0  0  0  0
   -0.9910    4.6651   -0.8827 N   0  0  0  0  0  0  0  0  0  0  0  0
    0.1632    3.9536   -0.9311 N   0  0  0  0  0  0  0  0  0  0  0  0
    1.3915    4.6246   -1.2730 C   0  0  0  0  0  0  0  0  0  0  0  0
   -1.8731    1.1759   -0.0455 C   0  0  0  0  0  0  0  0  0  0  0  0
   -3.1437    1.0442    0.1449 N   0  0  0  0  0  0  0  0  0  0  0  0
   -3.6309   -0.2314    0.4675 C   0  0  0  0  0  0  0  0  0  0  0  0
   -3.7123   -0.5867    1.8211 C   0  0  0  0  0  0  0  0  0  0  0  0
   -4.1664   -1.8459    2.2035 C   0  0  0  0  0  0  0  0  0  0  0  0
   -4.5469   -2.7623    1.2284 C   0  0  0  0  0  0  0  0  0  0  0  0
   -4.4889   -2.4129   -0.1245 C   0  0  0  0  0  0  0  0  0  0  0  0
   -4.9607   -3.6156   -1.2747 Cl  0  0  0  0  0  0  0  0  0  0  0  0
   -4.0502   -1.1379   -0.5264 C   0  0  0  0  0  0  0  0  0  0  0  0
   -3.9962   -0.7618   -1.9838 C   0  0  0  0  0  0  0  0  0  0  0  0
   -1.1121   -0.7007    0.0970 H   0  0  0  0  0  0  0  0  0  0  0  0
    0.9840   -1.2425    0.5900 H   0  0  0  0  0  0  0  0  0  0  0  0
    3.1218    0.0364    0.5265 H   0  0  0  0  0  0  0  0  0  0  0  0
    2.9636   -0.0266   -1.2407 H   0  0  0  0  0  0  0  0  0  0  0  0
    2.8386   -2.5262   -1.1367 H   0  0  0  0  0  0  0  0  0  0  0  0
    3.0515   -2.4673    0.6059 H   0  0  0  0  0  0  0  0  0  0  0  0
    5.0679   -1.4176   -1.4716 H   0  0  0  0  0  0  0  0  0  0  0  0
    5.1789   -2.9665   -0.6197 H   0  0  0  0  0  0  0  0  0  0  0  0
    6.0598   -0.4367    0.3290 H   0  0  0  0  0  0  0  0  0  0  0  0
    6.3331   -1.2542    2.4261 H   0  0  0  0  0  0  0  0  0  0  0  0
   -2.9458    4.0507   -0.4467 H   0  0  0  0  0  0  0  0  0  0  0  0
    1.5718    5.4093   -0.5338 H   0  0  0  0  0  0  0  0  0  0  0  0
    1.2805    5.0578   -2.2703 H   0  0  0  0  0  0  0  0  0  0  0  0
    2.2217    3.9150   -1.2686 H   0  0  0  0  0  0  0  0  0  0  0  0
   -3.4197    0.1345    2.5815 H   0  0  0  0  0  0  0  0  0  0  0  0
   -4.2257   -2.1091    3.2564 H   0  0  0  0  0  0  0  0  0  0  0  0
   -4.8967   -3.7479    1.5269 H   0  0  0  0  0  0  0  0  0  0  0  0
   -4.9297   -1.0302   -2.4893 H   0  0  0  0  0  0  0  0  0  0  0  0
   -3.1586   -1.2716   -2.4705 H   0  0  0  0  0  0  0  0  0  0  0  0
   -3.8711    0.3147   -2.1342 H   0  0  0  0  0  0  0  0  0  0  0  0
  1  2  1  0
  2  3  1  0
  3  4  1  0
  4  5  1  0
  5  6  1  0
  6  7  1  0
  7  8  1  0
  8  9  2  0
  2 10  2  0
 10 11  1  0
 11 12  2  0
 12 13  1  0
 13 14  2  0
 14 15  1  0
 15 16  1  0
 12 17  1  0
 17 18  2  3
 18 19  1  0
 19 20  2  0
 20 21  1  0
 21 22  2  0
 22 23  1  0
 23 24  1  0
 23 25  2  0
 25 26  1  0
 17  1  1  0
 25 19  1  0
 15 11  1  0
  1 27  1  0
  3 28  1  0
  4 29  1  0
  4 30  1  0
  5 31  1  0
  5 32  1  0
  6 33  1  0
  6 34  1  0
  7 35  1  0
  8 36  1  0
 13 37  1  0
 16 38  1  0
 16 39  1  0
 16 40  1  0
 20 41  1  0
 21 42  1  0
 22 43  1  0
 26 44  1  0
 26 45  1  0
 26 46  1  0
M  END
>  <ScrubInfo>  (2) 
{"isomerGroup": 0, "isomerId": 1, "confId": 0, "nr_conformers:": 1, "nr_isomers:": 9}

$$$$
_i2
     RDKit          3D

 46 48  0  0  0  0  0  0  0  0999 V2000
   -0.1503    0.9860   -0.7929 N   0  0  0  0  0  0  0  0  0  0  0  0
   -1.3440    0.2957   -0.7367 C   0  0  0  0  0  0  0  0  0  0  0  0
   -2.5557    0.9534   -0.8705 N   0  0  0  0  0  0  0  0  0  0  0  0
   -3.6792    0.8074   -0.0121 C   0  0  0  0  0  0  0  0  0  0  0  0
   -3.5200    0.4181    1.3307 C   0  0  0  0  0  0  0  0  0  0  0  0
   -4.6145    0.3174    2.1879 C   0  0  0  0  0  0  0  0  0  0  0  0
   -5.8866    0.6235    1.7203 C   0  0  0  0  0  0  0  0  0  0  0  0
   -6.0644    1.0313    0.3968 C   0  0  0  0  0  0  0  0  0  0  0  0
   -7.6759    1.4176   -0.1023 Cl  0  0  0  0  0  0  0  0  0  0  0  0
   -4.9716    1.1282   -0.4889 C   0  0  0  0  0  0  0  0  0  0  0  0
   -5.1973    1.5642   -1.9155 C   0  0  0  0  0  0  0  0  0  0  0  0
   -1.2255   -1.0310   -0.5933 C   0  0  0  0  0  0  0  0  0  0  0  0
   -2.1061   -2.2015   -0.4984 C   0  0  0  0  0  0  0  0  0  0  0  0
   -1.4504   -3.3229   -0.3284 N   0  0  0  0  0  0  0  0  0  0  0  0
   -0.0927   -2.9687   -0.3555 N   0  0  0  0  0  0  0  0  0  0  0  0
    0.8968   -3.9368    0.0479 C   0  0  0  0  0  0  0  0  0  0  0  0
    0.1318   -1.6079   -0.4745 C   0  0  0  0  0  0  0  0  0  0  0  0
    1.2353   -0.9399   -0.4796 N   0  0  0  0  0  0  0  0  0  0  0  0
    1.0898    0.4190   -0.6438 C   0  0  0  0  0  0  0  0  0  0  0  0
    2.1245    1.1947   -0.6574 N   0  0  0  0  0  0  0  0  0  0  0  0
    3.4322    0.5506   -0.5032 C   0  0  0  0  0  0  0  0  0  0  0  0
    4.5037    1.6380   -0.5824 C   0  0  0  0  0  0  0  0  0  0  0  0
    5.9119    1.0703   -0.4513 C   0  0  0  0  0  0  0  0  0  0  0  0
    6.1840    0.5712    0.8811 N   0  0  0  0  0  0  0  0  0  0  0  0
    7.2183   -0.2975    1.1178 C   0  0  0  0  0  0  0  0  0  0  0  0
    7.9385   -0.8034    0.2704 O   0  0  0  0  0  0  0  0  0  0  0  0
   -0.1614    1.9895   -0.8805 H   0  0  0  0  0  0  0  0  0  0  0  0
   -2.4357    1.9371   -1.1014 H   0  0  0  0  0  0  0  0  0  0  0  0
   -2.5330    0.2054    1.7359 H   0  0  0  0  0  0  0  0  0  0  0  0
   -4.4716    0.0119    3.2215 H   0  0  0  0  0  0  0  0  0  0  0  0
   -6.7376    0.5504    2.3933 H   0  0  0  0  0  0  0  0  0  0  0  0
   -4.2988    1.4850   -2.5339 H   0  0  0  0  0  0  0  0  0  0  0  0
   -5.9546    0.9330   -2.3924 H   0  0  0  0  0  0  0  0  0  0  0  0
   -5.5230    2.6092   -1.9410 H   0  0  0  0  0  0  0  0  0  0  0  0
   -3.1974   -2.1013   -0.5526 H   0  0  0  0  0  0  0  0  0  0  0  0
    1.0342   -3.9100    1.1332 H   0  0  0  0  0  0  0  0  0  0  0  0
    0.5900   -4.9484   -0.2373 H   0  0  0  0  0  0  0  0  0  0  0  0
    1.8602   -3.7334   -0.4304 H   0  0  0  0  0  0  0  0  0  0  0  0
    3.4938    0.0416    0.4660 H   0  0  0  0  0  0  0  0  0  0  0  0
    3.6007   -0.1806   -1.3032 H   0  0  0  0  0  0  0  0  0  0  0  0
    4.3259    2.3910    0.1958 H   0  0  0  0  0  0  0  0  0  0  0  0
    4.4181    2.1556   -1.5460 H   0  0  0  0  0  0  0  0  0  0  0  0
    6.6466    1.8593   -0.6476 H   0  0  0  0  0  0  0  0  0  0  0  0
    6.0841    0.2725   -1.1825 H   0  0  0  0  0  0  0  0  0  0  0  0
    5.7866    1.0575    1.6749 H   0  0  0  0  0  0  0  0  0  0  0  0
    7.3404   -0.5024    2.1946 H   0  0  0  0  0  0  0  0  0  0  0  0
  1  2  1  0
  2  3  1  0
  3  4  1  0
  4  5  2  0
  5  6  1  0
  6  7  2  0
  7  8  1  0
  8  9  1  0
  8 10  2  0
 10 11  1  0
  2 12  2  0
 12 13  1  0
 13 14  2  0
 14 15  1  0
 15 16  1  0
 15 17  1  0
 17 18  2  0
 18 19  1  0
 19 20  2  3
 20 21  1  0
 21 22  1  0
 22 23  1  0
 23 24  1  0
 24 25  1  0
 25 26  2  0
 19  1  1  0
 10  4  1  0
 17 12  1  0
  1 27  1  0
  3 28  1  0
  5 29  1  0
  6 30  1  0
  7 31  1  0
 11 32  1  0
 11 33  1  0
 11 34  1  0
 13 35  1  0
 16 36  1  0
 16 37  1  0
 16 38  1  0
 21 39  1  0
 21 40  1  0
 22 41  1  0
 22 42  1  0
 23 43  1  0
 23 44  1  0
 24 45  1  0
 25 46  1  0
M  END
>  <ScrubInfo>  (3) 
{"isomerGroup": 0, "isomerId": 2, "confId": 0, "nr_conformers:": 1, "nr_isomers:": 9}

$$$$
_i3
     RDKit          3D

 46 48  0  0  0  0  0  0  0  0999 V2000
    0.9117   -0.3486   -1.1512 N   0  0  0  0  0  0  0  0  0  0  0  0
    1.0859    0.0313    0.1708 C   0  0  0  0  0  0  0  0  0  0  0  0
    2.1738   -0.0591    0.8495 N   0  0  0  0  0  0  0  0  0  0  0  0
    3.3756   -0.6004    0.2306 C   0  0  0  0  0  0  0  0  0  0  0  0
    4.5029   -0.5608    1.2625 C   0  0  0  0  0  0  0  0  0  0  0  0
    5.7774   -1.2392    0.7658 C   0  0  0  0  0  0  0  0  0  0  0  0
    6.3965   -0.5457   -0.3455 N   0  0  0  0  0  0  0  0  0  0  0  0
    7.2231    0.5327   -0.1570 C   0  0  0  0  0  0  0  0  0  0  0  0
    7.5349    1.0181    0.9195 O   0  0  0  0  0  0  0  0  0  0  0  0
    0.0391    0.5666    0.9078 N   0  0  0  0  0  0  0  0  0  0  0  0
   -1.1335    0.7071    0.3593 C   0  0  0  0  0  0  0  0  0  0  0  0
   -2.2054    1.2480    1.0242 N   0  0  0  0  0  0  0  0  0  0  0  0
   -3.4345    0.5577    1.2349 C   0  0  0  0  0  0  0  0  0  0  0  0
   -3.4736   -0.8480    1.2772 C   0  0  0  0  0  0  0  0  0  0  0  0
   -4.6598   -1.5272    1.5486 C   0  0  0  0  0  0  0  0  0  0  0  0
   -5.8218   -0.8096    1.8062 C   0  0  0  0  0  0  0  0  0  0  0  0
   -5.7968    0.5867    1.7989 C   0  0  0  0  0  0  0  0  0  0  0  0
   -7.2791    1.4074    2.1514 Cl  0  0  0  0  0  0  0  0  0  0  0  0
   -4.6087    1.2921    1.5209 C   0  0  0  0  0  0  0  0  0  0  0  0
   -4.6104    2.8005    1.5211 C   0  0  0  0  0  0  0  0  0  0  0  0
   -1.3495    0.3471   -1.0219 C   0  0  0  0  0  0  0  0  0  0  0  0
   -2.3946    0.3890   -1.9563 C   0  0  0  0  0  0  0  0  0  0  0  0
   -2.0247   -0.0915   -3.1543 N   0  0  0  0  0  0  0  0  0  0  0  0
   -0.7237   -0.4298   -2.9816 N   0  0  0  0  0  0  0  0  0  0  0  0
    0.0083   -0.9799   -4.0937 C   0  0  0  0  0  0  0  0  0  0  0  0
   -0.2949   -0.1749   -1.7178 C   0  0  0  0  0  0  0  0  0  0  0  0
    1.7151   -0.7119   -1.6390 H   0  0  0  0  0  0  0  0  0  0  0  0
    3.2054   -1.6364   -0.0854 H   0  0  0  0  0  0  0  0  0  0  0  0
    3.6583   -0.0057   -0.6459 H   0  0  0  0  0  0  0  0  0  0  0  0
    4.1710   -1.0703    2.1760 H   0  0  0  0  0  0  0  0  0  0  0  0
    4.7080    0.4800    1.5420 H   0  0  0  0  0  0  0  0  0  0  0  0
    5.5689   -2.2627    0.4368 H   0  0  0  0  0  0  0  0  0  0  0  0
    6.5022   -1.2925    1.5861 H   0  0  0  0  0  0  0  0  0  0  0  0
    6.2215   -0.8614   -1.2897 H   0  0  0  0  0  0  0  0  0  0  0  0
    7.5969    0.9323   -1.1145 H   0  0  0  0  0  0  0  0  0  0  0  0
   -1.8808    1.5658    1.9374 H   0  0  0  0  0  0  0  0  0  0  0  0
   -2.5726   -1.4352    1.1091 H   0  0  0  0  0  0  0  0  0  0  0  0
   -4.6731   -2.6141    1.5688 H   0  0  0  0  0  0  0  0  0  0  0  0
   -6.7446   -1.3427    2.0219 H   0  0  0  0  0  0  0  0  0  0  0  0
   -3.6484    3.2295    1.2273 H   0  0  0  0  0  0  0  0  0  0  0  0
   -4.8408    3.1761    2.5235 H   0  0  0  0  0  0  0  0  0  0  0  0
   -5.3513    3.1792    0.8090 H   0  0  0  0  0  0  0  0  0  0  0  0
   -3.4086    0.7447   -1.8255 H   0  0  0  0  0  0  0  0  0  0  0  0
    0.0472   -0.2276   -4.8856 H   0  0  0  0  0  0  0  0  0  0  0  0
    1.0209   -1.2418   -3.7804 H   0  0  0  0  0  0  0  0  0  0  0  0
   -0.5133   -1.8751   -4.4416 H   0  0  0  0  0  0  0  0  0  0  0  0
  1  2  1  0
  2  3  2  3
  3  4  1  0
  4  5  1  0
  5  6  1  0
  6  7  1  0
  7  8  1  0
  8  9  2  0
  2 10  1  0
 10 11  2  0
 11 12  1  0
 12 13  1  0
 13 14  2  0
 14 15  1  0
 15 16  2  0
 16 17  1  0
 17 18  1  0
 17 19  2  0
 19 20  1  0
 11 21  1  0
 21 22  1  0
 22 23  2  0
 23 24  1  0
 24 25  1  0
 24 26  1  0
 26  1  1  0
 19 13  1  0
 26 21  2  0
  1 27  1  0
  4 28  1  0
  4 29  1  0
  5 30  1  0
  5 31  1  0
  6 32  1  0
  6 33  1  0
  7 34  1  0
  8 35  1  0
 12 36  1  0
 14 37  1  0
 15 38  1  0
 16 39  1  0
 20 40  1  0
 20 41  1  0
 20 42  1  0
 22 43  1  0
 25 44  1  0
 25 45  1  0
 25 46  1  0
M  END
>  <ScrubInfo>  (4) 
{"isomerGroup": 0, "isomerId": 3, "confId": 0, "nr_conformers:": 1, "nr_isomers:": 9}

$$$$
_i4
     RDKit          3D

 46 48  0  0  0  0  0  0  0  0999 V2000
    0.5140    2.2268   -0.0783 N   0  0  0  0  0  0  0  0  0  0  0  0
    0.9760    1.3193   -0.9967 C   0  0  0  0  0  0  0  0  0  0  0  0
    2.2053    1.5938   -1.5224 N   0  0  0  0  0  0  0  0  0  0  0  0
    3.3766    1.8615   -0.6954 C   0  0  0  0  0  0  0  0  0  0  0  0
    3.6965    0.7132    0.2609 C   0  0  0  0  0  0  0  0  0  0  0  0
    4.1079   -0.5634   -0.4689 C   0  0  0  0  0  0  0  0  0  0  0  0
    4.4852   -1.6126    0.4553 N   0  0  0  0  0  0  0  0  0  0  0  0
    5.7191   -1.6462    1.0505 C   0  0  0  0  0  0  0  0  0  0  0  0
    6.6113   -0.8280    0.8808 O   0  0  0  0  0  0  0  0  0  0  0  0
    0.3444    0.2511   -1.3914 N   0  0  0  0  0  0  0  0  0  0  0  0
   -0.9028   -0.0511   -0.8569 C   0  0  0  0  0  0  0  0  0  0  0  0
   -1.4247   -1.1716   -1.2445 N   0  0  0  0  0  0  0  0  0  0  0  0
   -2.6682   -1.6207   -0.7918 C   0  0  0  0  0  0  0  0  0  0  0  0
   -3.8013   -1.3077   -1.5566 C   0  0  0  0  0  0  0  0  0  0  0  0
   -5.0676   -1.7376   -1.1688 C   0  0  0  0  0  0  0  0  0  0  0  0
   -5.2086   -2.4978   -0.0125 C   0  0  0  0  0  0  0  0  0  0  0  0
   -4.0832   -2.8415    0.7434 C   0  0  0  0  0  0  0  0  0  0  0  0
   -4.3445   -3.7817    2.1721 Cl  0  0  0  0  0  0  0  0  0  0  0  0
   -2.7948   -2.4287    0.3563 C   0  0  0  0  0  0  0  0  0  0  0  0
   -1.5859   -2.8093    1.1687 C   0  0  0  0  0  0  0  0  0  0  0  0
   -1.4627    0.9142    0.0750 C   0  0  0  0  0  0  0  0  0  0  0  0
   -2.6546    1.0948    0.7996 C   0  0  0  0  0  0  0  0  0  0  0  0
   -2.6549    2.2203    1.5318 N   0  0  0  0  0  0  0  0  0  0  0  0
   -1.4473    2.7711    1.2755 N   0  0  0  0  0  0  0  0  0  0  0  0
   -1.0960    4.0160    1.9099 C   0  0  0  0  0  0  0  0  0  0  0  0
   -0.7166    2.0144    0.4170 C   0  0  0  0  0  0  0  0  0  0  0  0
    1.0011    3.1108   -0.0211 H   0  0  0  0  0  0  0  0  0  0  0  0
    2.4082    0.9034   -2.2437 H   0  0  0  0  0  0  0  0  0  0  0  0
    3.2200    2.7815   -0.1211 H   0  0  0  0  0  0  0  0  0  0  0  0
    4.2324    2.0499   -1.3536 H   0  0  0  0  0  0  0  0  0  0  0  0
    2.8412    0.5034    0.9148 H   0  0  0  0  0  0  0  0  0  0  0  0
    4.5117    1.0353    0.9207 H   0  0  0  0  0  0  0  0  0  0  0  0
    3.2839   -0.9558   -1.0728 H   0  0  0  0  0  0  0  0  0  0  0  0
    4.9560   -0.3650   -1.1339 H   0  0  0  0  0  0  0  0  0  0  0  0
    3.8031   -2.3207    0.6976 H   0  0  0  0  0  0  0  0  0  0  0  0
    5.8270   -2.5114    1.7256 H   0  0  0  0  0  0  0  0  0  0  0  0
   -3.6862   -0.7201   -2.4649 H   0  0  0  0  0  0  0  0  0  0  0  0
   -5.9380   -1.4815   -1.7670 H   0  0  0  0  0  0  0  0  0  0  0  0
   -6.1983   -2.8279    0.2941 H   0  0  0  0  0  0  0  0  0  0  0  0
   -1.5714   -2.2431    2.1055 H   0  0  0  0  0  0  0  0  0  0  0  0
   -0.6470   -2.6140    0.6423 H   0  0  0  0  0  0  0  0  0  0  0  0
   -1.5901   -3.8815    1.3909 H   0  0  0  0  0  0  0  0  0  0  0  0
   -3.5375    0.4720    0.8362 H   0  0  0  0  0  0  0  0  0  0  0  0
   -1.7251    4.8040    1.4886 H   0  0  0  0  0  0  0  0  0  0  0  0
   -0.0429    4.2416    1.7296 H   0  0  0  0  0  0  0  0  0  0  0  0
   -1.2710    3.9204    2.9846 H   0  0  0  0  0  0  0  0  0  0  0  0
  1  2  1  0
  2  3  1  0
  3  4  1  0
  4  5  1  0
  5  6  1  0
  6  7  1  0
  7  8  1  0
  8  9  2  0
  2 10  2  0
 10 11  1  0
 11 12  2  3
 12 13  1  0
 13 14  2  0
 14 15  1  0
 15 16  2  0
 16 17  1  0
 17 18  1  0
 17 19  2  0
 19 20  1  0
 11 21  1  0
 21 22  1  0
 22 23  2  0
 23 24  1  0
 24 25  1  0
 24 26  1  0
 26  1  1  0
 19 13  1  0
 26 21  2  0
  1 27  1  0
  3 28  1  0
  4 29  1  0
  4 30  1  0
  5 31  1  0
  5 32  1  0
  6 33  1  0
  6 34  1  0
  7 35  1  0
  8 36  1  0
 14 37  1  0
 15 38  1  0
 16 39  1  0
 20 40  1  0
 20 41  1  0
 20 42  1  0
 22 43  1  0
 25 44  1  0
 25 45  1  0
 25 46  1  0
M  END
>  <ScrubInfo>  (5) 
{"isomerGroup": 0, "isomerId": 4, "confId": 0, "nr_conformers:": 1, "nr_isomers:": 9}

$$$$
_i5
     RDKit          3D

 46 48  0  0  0  0  0  0  0  0999 V2000
   -1.8887    3.0719    0.3205 N   0  0  0  0  0  0  0  0  0  0  0  0
   -2.4012    1.7874    0.1696 C   0  0  0  0  0  0  0  0  0  0  0  0
   -1.4598    0.8585   -0.0583 C   0  0  0  0  0  0  0  0  0  0  0  0
   -1.3577   -0.5723   -0.3169 C   0  0  0  0  0  0  0  0  0  0  0  0
   -2.2661   -1.4905   -0.3461 N   0  0  0  0  0  0  0  0  0  0  0  0
   -3.6081   -1.1803   -0.0985 C   0  0  0  0  0  0  0  0  0  0  0  0
   -4.4312   -0.8877   -1.1953 C   0  0  0  0  0  0  0  0  0  0  0  0
   -5.7752   -0.5710   -1.0171 C   0  0  0  0  0  0  0  0  0  0  0  0
   -6.3096   -0.5517    0.2671 C   0  0  0  0  0  0  0  0  0  0  0  0
   -5.5056   -0.8674    1.3671 C   0  0  0  0  0  0  0  0  0  0  0  0
   -6.2420   -0.8021    2.9312 Cl  0  0  0  0  0  0  0  0  0  0  0  0
   -4.1510   -1.2095    1.2019 C   0  0  0  0  0  0  0  0  0  0  0  0
   -3.2914   -1.5623    2.3868 C   0  0  0  0  0  0  0  0  0  0  0  0
   -0.0820   -1.0012   -0.5721 N   0  0  0  0  0  0  0  0  0  0  0  0
    0.9546   -0.2176   -0.5350 C   0  0  0  0  0  0  0  0  0  0  0  0
    2.1552   -0.8066   -0.8106 N   0  0  0  0  0  0  0  0  0  0  0  0
    3.2899   -0.0686   -1.3253 C   0  0  0  0  0  0  0  0  0  0  0  0
    4.5514   -0.9247   -1.2612 C   0  0  0  0  0  0  0  0  0  0  0  0
    5.0170   -1.1407    0.1776 C   0  0  0  0  0  0  0  0  0  0  0  0
    6.2279   -1.9360    0.2360 N   0  0  0  0  0  0  0  0  0  0  0  0
    7.4650   -1.3952    0.0007 C   0  0  0  0  0  0  0  0  0  0  0  0
    7.6920   -0.2274   -0.2787 O   0  0  0  0  0  0  0  0  0  0  0  0
    0.9301    1.1189   -0.2459 N   0  0  0  0  0  0  0  0  0  0  0  0
   -0.2157    1.6491    0.0022 C   0  0  0  0  0  0  0  0  0  0  0  0
   -0.5057    2.9722    0.3367 N   0  0  0  0  0  0  0  0  0  0  0  0
    0.2901    4.0679   -0.1815 C   0  0  0  0  0  0  0  0  0  0  0  0
   -2.3121    3.5878    1.0958 H   0  0  0  0  0  0  0  0  0  0  0  0
   -3.4699    1.6540    0.2473 H   0  0  0  0  0  0  0  0  0  0  0  0
   -4.0104   -0.9111   -2.1983 H   0  0  0  0  0  0  0  0  0  0  0  0
   -6.4009   -0.3434   -1.8760 H   0  0  0  0  0  0  0  0  0  0  0  0
   -7.3578   -0.2983    0.4071 H   0  0  0  0  0  0  0  0  0  0  0  0
   -3.8008   -2.2822    3.0358 H   0  0  0  0  0  0  0  0  0  0  0  0
   -3.0553   -0.6596    2.9593 H   0  0  0  0  0  0  0  0  0  0  0  0
   -2.3487   -2.0348    2.0952 H   0  0  0  0  0  0  0  0  0  0  0  0
    2.0123   -1.7275   -1.2106 H   0  0  0  0  0  0  0  0  0  0  0  0
    3.4485    0.8589   -0.7633 H   0  0  0  0  0  0  0  0  0  0  0  0
    3.0916    0.2051   -2.3678 H   0  0  0  0  0  0  0  0  0  0  0  0
    5.3438   -0.4238   -1.8307 H   0  0  0  0  0  0  0  0  0  0  0  0
    4.3825   -1.8940   -1.7472 H   0  0  0  0  0  0  0  0  0  0  0  0
    4.2590   -1.6735    0.7608 H   0  0  0  0  0  0  0  0  0  0  0  0
    5.2101   -0.1781    0.6646 H   0  0  0  0  0  0  0  0  0  0  0  0
    6.1554   -2.9266    0.4293 H   0  0  0  0  0  0  0  0  0  0  0  0
    8.2650   -2.1494    0.0865 H   0  0  0  0  0  0  0  0  0  0  0  0
    0.1883    4.1424   -1.2692 H   0  0  0  0  0  0  0  0  0  0  0  0
   -0.0306    5.0154    0.2636 H   0  0  0  0  0  0  0  0  0  0  0  0
    1.3477    3.9255    0.0627 H   0  0  0  0  0  0  0  0  0  0  0  0
  1  2  1  0
  2  3  2  0
  3  4  1  0
  4  5  2  3
  5  6  1  0
  6  7  2  0
  7  8  1  0
  8  9  2  0
  9 10  1  0
 10 11  1  0
 10 12  2  0
 12 13  1  0
  4 14  1  0
 14 15  2  0
 15 16  1  0
 16 17  1  0
 17 18  1  0
 18 19  1  0
 19 20  1  0
 20 21  1  0
 21 22  2  0
 15 23  1  0
 23 24  2  0
 24 25  1  0
 25 26  1  0
 25  1  1  0
 24  3  1  0
 12  6  1  0
  1 27  1  0
  2 28  1  0
  7 29  1  0
  8 30  1  0
  9 31  1  0
 13 32  1  0
 13 33  1  0
 13 34  1  0
 16 35  1  0
 17 36  1  0
 17 37  1  0
 18 38  1  0
 18 39  1  0
 19 40  1  0
 19 41  1  0
 20 42  1  0
 21 43  1  0
 26 44  1  0
 26 45  1  0
 26 46  1  0
M  END
>  <ScrubInfo>  (6) 
{"isomerGroup": 0, "isomerId": 5, "confId": 0, "nr_conformers:": 1, "nr_isomers:": 9}

$$$$
_i6
     RDKit          3D

 46 48  0  0  0  0  0  0  0  0999 V2000
   -2.2038   -3.4795    0.0546 N   0  0  0  0  0  0  0  0  0  0  0  0
   -2.4012   -2.1143    0.2337 C   0  0  0  0  0  0  0  0  0  0  0  0
   -1.2574   -1.4406    0.4145 C   0  0  0  0  0  0  0  0  0  0  0  0
   -0.8086   -0.0643    0.6158 C   0  0  0  0  0  0  0  0  0  0  0  0
   -1.6619    1.0158    0.7027 N   0  0  0  0  0  0  0  0  0  0  0  0
   -2.7071    1.2814   -0.2201 C   0  0  0  0  0  0  0  0  0  0  0  0
   -2.5765    0.9224   -1.5740 C   0  0  0  0  0  0  0  0  0  0  0  0
   -3.5674    1.2374   -2.5020 C   0  0  0  0  0  0  0  0  0  0  0  0
   -4.6950    1.9399   -2.0943 C   0  0  0  0  0  0  0  0  0  0  0  0
   -4.8278    2.3346   -0.7613 C   0  0  0  0  0  0  0  0  0  0  0  0
   -6.2500    3.2241   -0.3365 Cl  0  0  0  0  0  0  0  0  0  0  0  0
   -3.8384    2.0217    0.1926 C   0  0  0  0  0  0  0  0  0  0  0  0
   -4.0066    2.4643    1.6250 C   0  0  0  0  0  0  0  0  0  0  0  0
    0.4707    0.1569    0.7510 N   0  0  0  0  0  0  0  0  0  0  0  0
    1.3449   -0.9090    0.6713 C   0  0  0  0  0  0  0  0  0  0  0  0
    2.6114   -0.6931    0.7393 N   0  0  0  0  0  0  0  0  0  0  0  0
    3.0627    0.6853    0.9114 C   0  0  0  0  0  0  0  0  0  0  0  0
    4.5813    0.6997    1.0892 C   0  0  0  0  0  0  0  0  0  0  0  0
    5.3492    0.1261   -0.1007 C   0  0  0  0  0  0  0  0  0  0  0  0
    5.1246    0.8601   -1.3299 N   0  0  0  0  0  0  0  0  0  0  0  0
    5.7787    2.0265   -1.6217 C   0  0  0  0  0  0  0  0  0  0  0  0
    6.6283    2.5679   -0.9304 O   0  0  0  0  0  0  0  0  0  0  0  0
    1.0185   -2.2347    0.5169 N   0  0  0  0  0  0  0  0  0  0  0  0
   -0.2350   -2.5079    0.4155 C   0  0  0  0  0  0  0  0  0  0  0  0
   -0.8590   -3.7481    0.2857 N   0  0  0  0  0  0  0  0  0  0  0  0
   -0.2176   -4.8417   -0.4176 C   0  0  0  0  0  0  0  0  0  0  0  0
   -2.8710   -4.0574    0.5718 H   0  0  0  0  0  0  0  0  0  0  0  0
   -3.4077   -1.7208    0.2148 H   0  0  0  0  0  0  0  0  0  0  0  0
   -1.1297    1.8700    0.8612 H   0  0  0  0  0  0  0  0  0  0  0  0
   -1.6886    0.4018   -1.9276 H   0  0  0  0  0  0  0  0  0  0  0  0
   -3.4528    0.9454   -3.5431 H   0  0  0  0  0  0  0  0  0  0  0  0
   -5.4643    2.1886   -2.8215 H   0  0  0  0  0  0  0  0  0  0  0  0
   -4.9383    2.0638    2.0384 H   0  0  0  0  0  0  0  0  0  0  0  0
   -3.2004    2.1176    2.2774 H   0  0  0  0  0  0  0  0  0  0  0  0
   -4.0210    3.5577    1.6816 H   0  0  0  0  0  0  0  0  0  0  0  0
    2.6138    1.1304    1.8081 H   0  0  0  0  0  0  0  0  0  0  0  0
    2.7829    1.2970    0.0457 H   0  0  0  0  0  0  0  0  0  0  0  0
    4.8448    0.1211    1.9832 H   0  0  0  0  0  0  0  0  0  0  0  0
    4.9016    1.7326    1.2714 H   0  0  0  0  0  0  0  0  0  0  0  0
    5.0710   -0.9160   -0.2876 H   0  0  0  0  0  0  0  0  0  0  0  0
    6.4225    0.1477    0.1205 H   0  0  0  0  0  0  0  0  0  0  0  0
    4.3801    0.5455   -1.9381 H   0  0  0  0  0  0  0  0  0  0  0  0
    5.4460    2.4500   -2.5840 H   0  0  0  0  0  0  0  0  0  0  0  0
   -0.8140   -5.7552   -0.3258 H   0  0  0  0  0  0  0  0  0  0  0  0
   -0.1035   -4.6061   -1.4808 H   0  0  0  0  0  0  0  0  0  0  0  0
    0.7716   -5.0446    0.0049 H   0  0  0  0  0  0  0  0  0  0  0  0
  1  2  1  0
  2  3  2  0
  3  4  1  0
  4  5  1  0
  5  6  1  0
  6  7  2  0
  7  8  1  0
  8  9  2  0
  9 10  1  0
 10 11  1  0
 10 12  2  0
 12 13  1  0
  4 14  2  0
 14 15  1  0
 15 16  2  3
 16 17  1  0
 17 18  1  0
 18 19  1  0
 19 20  1  0
 20 21  1  0
 21 22  2  0
 15 23  1  0
 23 24  2  0
 24 25  1  0
 25 26  1  0
 25  1  1  0
 24  3  1  0
 12  6  1  0
  1 27  1  0
  2 28  1  0
  5 29  1  0
  7 30  1  0
  8 31  1  0
  9 32  1  0
 13 33  1  0
 13 34  1  0
 13 35  1  0
 17 36  1  0
 17 37  1  0
 18 38  1  0
 18 39  1  0
 19 40  1  0
 19 41  1  0
 20 42  1  0
 21 43  1  0
 26 44  1  0
 26 45  1  0
 26 46  1  0
M  END
>  <ScrubInfo>  (7) 
{"isomerGroup": 0, "isomerId": 6, "confId": 0, "nr_conformers:": 1, "nr_isomers:": 9}

$$$$
_i7
     RDKit          3D

 46 48  0  0  0  0  0  0  0  0999 V2000
    0.8351   -0.5316   -0.8826 N   0  0  0  0  0  0  0  0  0  0  0  0
    1.0969   -0.4149    0.4722 C   0  0  0  0  0  0  0  0  0  0  0  0
    2.2432   -0.4383    1.0624 N   0  0  0  0  0  0  0  0  0  0  0  0
    3.4501   -0.6011    0.2576 C   0  0  0  0  0  0  0  0  0  0  0  0
    4.6561   -0.5697    1.1960 C   0  0  0  0  0  0  0  0  0  0  0  0
    5.9697   -0.8607    0.4739 C   0  0  0  0  0  0  0  0  0  0  0  0
    6.3347    0.1633   -0.4836 N   0  0  0  0  0  0  0  0  0  0  0  0
    6.9401    1.3325   -0.0983 C   0  0  0  0  0  0  0  0  0  0  0  0
    7.2291    1.6461    1.0462 O   0  0  0  0  0  0  0  0  0  0  0  0
   -0.0382   -0.2582    1.2359 N   0  0  0  0  0  0  0  0  0  0  0  0
   -1.3725   -0.1933    0.8984 C   0  0  0  0  0  0  0  0  0  0  0  0
   -2.2878   -0.0329    1.8067 N   0  0  0  0  0  0  0  0  0  0  0  0
   -3.6502    0.0369    1.4973 C   0  0  0  0  0  0  0  0  0  0  0  0
   -4.3917   -1.1535    1.5012 C   0  0  0  0  0  0  0  0  0  0  0  0
   -5.7552   -1.1478    1.2192 C   0  0  0  0  0  0  0  0  0  0  0  0
   -6.3923    0.0570    0.9407 C   0  0  0  0  0  0  0  0  0  0  0  0
   -5.6698    1.2542    0.9607 C   0  0  0  0  0  0  0  0  0  0  0  0
   -6.5338    2.7077    0.5946 Cl  0  0  0  0  0  0  0  0  0  0  0  0
   -4.2945    1.2675    1.2589 C   0  0  0  0  0  0  0  0  0  0  0  0
   -3.5237    2.5605    1.2850 C   0  0  0  0  0  0  0  0  0  0  0  0
   -1.5475   -0.3232   -0.5388 C   0  0  0  0  0  0  0  0  0  0  0  0
   -2.6164   -0.3285   -1.4541 C   0  0  0  0  0  0  0  0  0  0  0  0
   -2.2145   -0.4833   -2.7244 N   0  0  0  0  0  0  0  0  0  0  0  0
   -0.8718   -0.5833   -2.6281 N   0  0  0  0  0  0  0  0  0  0  0  0
   -0.0927   -0.7540   -3.8285 C   0  0  0  0  0  0  0  0  0  0  0  0
   -0.4375   -0.4865   -1.3415 C   0  0  0  0  0  0  0  0  0  0  0  0
    1.6301   -0.6426   -1.4955 H   0  0  0  0  0  0  0  0  0  0  0  0
    3.4240   -1.5600   -0.2736 H   0  0  0  0  0  0  0  0  0  0  0  0
    3.5325    0.2081   -0.4772 H   0  0  0  0  0  0  0  0  0  0  0  0
    4.5176   -1.3214    1.9834 H   0  0  0  0  0  0  0  0  0  0  0  0
    4.7038    0.4039    1.6991 H   0  0  0  0  0  0  0  0  0  0  0  0
    5.9116   -1.8101   -0.0689 H   0  0  0  0  0  0  0  0  0  0  0  0
    6.7768   -0.9450    1.2106 H   0  0  0  0  0  0  0  0  0  0  0  0
    6.1666    0.0076   -1.4683 H   0  0  0  0  0  0  0  0  0  0  0  0
    7.1500    1.9870   -0.9607 H   0  0  0  0  0  0  0  0  0  0  0  0
    0.1445   -0.1668    2.2252 H   0  0  0  0  0  0  0  0  0  0  0  0
   -3.8928   -2.0934    1.7261 H   0  0  0  0  0  0  0  0  0  0  0  0
   -6.3166   -2.0783    1.2177 H   0  0  0  0  0  0  0  0  0  0  0  0
   -7.4557    0.0608    0.7139 H   0  0  0  0  0  0  0  0  0  0  0  0
   -3.3976    2.9414    0.2664 H   0  0  0  0  0  0  0  0  0  0  0  0
   -2.5296    2.4490    1.7275 H   0  0  0  0  0  0  0  0  0  0  0  0
   -4.0437    3.3088    1.8922 H   0  0  0  0  0  0  0  0  0  0  0  0
   -3.6771   -0.2261   -1.2721 H   0  0  0  0  0  0  0  0  0  0  0  0
    0.1260    0.2361   -4.2352 H   0  0  0  0  0  0  0  0  0  0  0  0
    0.8335   -1.2818   -3.5901 H   0  0  0  0  0  0  0  0  0  0  0  0
   -0.6690   -1.3423   -4.5476 H   0  0  0  0  0  0  0  0  0  0  0  0
  1  2  1  0
  2  3  2  3
  3  4  1  0
  4  5  1  0
  5  6  1  0
  6  7  1  0
  7  8  1  0
  8  9  2  0
  2 10  1  0
 10 11  1  0
 11 12  2  3
 12 13  1  0
 13 14  2  0
 14 15  1  0
 15 16  2  0
 16 17  1  0
 17 18  1  0
 17 19  2  0
 19 20  1  0
 11 21  1  0
 21 22  1  0
 22 23  2  0
 23 24  1  0
 24 25  1  0
 24 26  1  0
 26  1  1  0
 19 13  1  0
 26 21  2  0
  1 27  1  0
  4 28  1  0
  4 29  1  0
  5 30  1  0
  5 31  1  0
  6 32  1  0
  6 33  1  0
  7 34  1  0
  8 35  1  0
 10 36  1  0
 14 37  1  0
 15 38  1  0
 16 39  1  0
 20 40  1  0
 20 41  1  0
 20 42  1  0
 22 43  1  0
 25 44  1  0
 25 45  1  0
 25 46  1  0
M  END
>  <ScrubInfo>  (8) 
{"isomerGroup": 0, "isomerId": 7, "confId": 0, "nr_conformers:": 1, "nr_isomers:": 9}

$$$$
_i8
     RDKit          3D

 46 48  0  0  0  0  0  0  0  0999 V2000
   -2.2560    2.5824    1.2065 N   0  0  0  0  0  0  0  0  0  0  0  0
   -2.5463    1.5349    0.3397 C   0  0  0  0  0  0  0  0  0  0  0  0
   -1.4677    0.8287   -0.0281 C   0  0  0  0  0  0  0  0  0  0  0  0
   -1.0954   -0.3069   -0.8949 C   0  0  0  0  0  0  0  0  0  0  0  0
   -1.8554   -1.0742   -1.6201 N   0  0  0  0  0  0  0  0  0  0  0  0
   -3.2429   -0.8855   -1.6571 C   0  0  0  0  0  0  0  0  0  0  0  0
   -3.7709   -0.0622   -2.6619 C   0  0  0  0  0  0  0  0  0  0  0  0
   -5.1418    0.1623   -2.7558 C   0  0  0  0  0  0  0  0  0  0  0  0
   -5.9993   -0.4447   -1.8442 C   0  0  0  0  0  0  0  0  0  0  0  0
   -5.4873   -1.2879   -0.8528 C   0  0  0  0  0  0  0  0  0  0  0  0
   -6.6182   -1.9893    0.2525 Cl  0  0  0  0  0  0  0  0  0  0  0  0
   -4.1064   -1.5405   -0.7563 C   0  0  0  0  0  0  0  0  0  0  0  0
   -3.5612   -2.4572    0.3063 C   0  0  0  0  0  0  0  0  0  0  0  0
    0.2537   -0.5357   -0.8953 N   0  0  0  0  0  0  0  0  0  0  0  0
    1.2126    0.1452   -0.2009 C   0  0  0  0  0  0  0  0  0  0  0  0
    2.4489   -0.2060   -0.3516 N   0  0  0  0  0  0  0  0  0  0  0  0
    3.4493    0.5464    0.4102 C   0  0  0  0  0  0  0  0  0  0  0  0
    4.8341   -0.0188    0.1030 C   0  0  0  0  0  0  0  0  0  0  0  0
    5.0054   -1.4363    0.6431 C   0  0  0  0  0  0  0  0  0  0  0  0
    6.3305   -1.9558    0.3633 N   0  0  0  0  0  0  0  0  0  0  0  0
    7.4058   -1.6825    1.1672 C   0  0  0  0  0  0  0  0  0  0  0  0
    7.3839   -1.0274    2.1984 O   0  0  0  0  0  0  0  0  0  0  0  0
    0.8876    1.1800    0.6493 N   0  0  0  0  0  0  0  0  0  0  0  0
   -0.3654    1.4979    0.7511 C   0  0  0  0  0  0  0  0  0  0  0  0
   -0.9189    2.4904    1.5627 N   0  0  0  0  0  0  0  0  0  0  0  0
   -0.1836    3.7011    1.8749 C   0  0  0  0  0  0  0  0  0  0  0  0
   -2.9232    2.6697    1.9769 H   0  0  0  0  0  0  0  0  0  0  0  0
   -3.5754    1.3878    0.0481 H   0  0  0  0  0  0  0  0  0  0  0  0
   -3.0982    0.4068   -3.3765 H   0  0  0  0  0  0  0  0  0  0  0  0
   -5.5375    0.8059   -3.5371 H   0  0  0  0  0  0  0  0  0  0  0  0
   -7.0695   -0.2645   -1.9137 H   0  0  0  0  0  0  0  0  0  0  0  0
   -4.1265   -3.3945    0.3376 H   0  0  0  0  0  0  0  0  0  0  0  0
   -3.6123   -1.9682    1.2844 H   0  0  0  0  0  0  0  0  0  0  0  0
   -2.5201   -2.7391    0.1235 H   0  0  0  0  0  0  0  0  0  0  0  0
    0.5895   -1.2860   -1.4798 H   0  0  0  0  0  0  0  0  0  0  0  0
    3.2581    0.4813    1.4882 H   0  0  0  0  0  0  0  0  0  0  0  0
    3.4349    1.6021    0.1126 H   0  0  0  0  0  0  0  0  0  0  0  0
    5.5908    0.6377    0.5497 H   0  0  0  0  0  0  0  0  0  0  0  0
    5.0116   -0.0122   -0.9798 H   0  0  0  0  0  0  0  0  0  0  0  0
    4.2921   -2.1240    0.1779 H   0  0  0  0  0  0  0  0  0  0  0  0
    4.8423   -1.4542    1.7265 H   0  0  0  0  0  0  0  0  0  0  0  0
    6.4845   -2.4427   -0.5095 H   0  0  0  0  0  0  0  0  0  0  0  0
    8.3333   -2.1306    0.7734 H   0  0  0  0  0  0  0  0  0  0  0  0
   -0.0152    4.2972    0.9720 H   0  0  0  0  0  0  0  0  0  0  0  0
   -0.7401    4.3098    2.5949 H   0  0  0  0  0  0  0  0  0  0  0  0
    0.7861    3.4594    2.3217 H   0  0  0  0  0  0  0  0  0  0  0  0
  1  2  1  0
  2  3  2  0
  3  4  1  0
  4  5  2  3
  5  6  1  0
  6  7  2  0
  7  8  1  0
  8  9  2  0
  9 10  1  0
 10 11  1  0
 10 12  2  0
 12 13  1  0
  4 14  1  0
 14 15  1  0
 15 16  2  3
 16 17  1  0
 17 18  1  0
 18 19  1  0
 19 20  1  0
 20 21  1  0
 21 22  2  0
 15 23  1  0
 23 24  2  0
 24 25  1  0
 25 26  1  0
 25  1  1  0
 24  3  1  0
 12  6  1  0
  1 27  1  0
  2 28  1  0
  7 29  1  0
  8 30  1  0
  9 31  1  0
 13 32  1  0
 13 33  1  0
 13 34  1  0
 14 35  1  0
 17 36  1  0
 17 37  1  0
 18 38  1  0
 18 39  1  0
 19 40  1  0
 19 41  1  0
 20 42  1  0
 21 43  1  0
 26 44  1  0
 26 45  1  0
 26 46  1  0
M  END
>  <ScrubInfo>  (9) 
{"isomerGroup": 0, "isomerId": 8, "confId": 0, "nr_conformers:": 1, "nr_isomers:": 9}

$$$$
