_i0
     RDKit          3D

 47 49  0  0  0  0  0  0  0  0999 V2000
   -7.2188    1.9103    2.3558 C   0  0  0  0  0  0  0  0  0  0  0  0
   -5.9828    2.4215    1.8739 O   0  0  0  0  0  0  0  0  0  0  0  0
   -5.1524    1.5378    1.2436 C   0  0  0  0  0  0  0  0  0  0  0  0
   -5.4060    0.1886    1.0173 C   0  0  0  0  0  0  0  0  0  0  0  0
   -4.4581   -0.6028    0.3527 C   0  0  0  0  0  0  0  0  0  0  0  0
   -3.2424   -0.0691   -0.1060 C   0  0  0  0  0  0  0  0  0  0  0  0
   -2.3285   -0.9294   -0.7382 N   0  0  0  0  0  0  0  0  0  0  0  0
   -0.9917   -0.7619   -1.1294 C   0  0  0  0  0  0  0  0  0  0  0  0
   -0.2721    0.3379   -0.7822 N   0  0  0  0  0  0  0  0  0  0  0  0
    1.0124    0.4722   -1.1523 C   0  0  0  0  0  0  0  0  0  0  0  0
    1.6137    1.6449   -0.7211 N   0  0  0  0  0  0  0  0  0  0  0  0
    3.0302    1.5736   -0.4021 C   0  0  0  0  0  0  0  0  0  0  0  0
    3.3228    0.7301    0.8471 C   0  0  0  0  0  0  0  0  0  0  0  0
    4.7418    0.7002    1.1671 N   0  0  0  0  0  0  0  0  0  0  0  0
    5.1661    0.4444    2.4525 C   0  0  0  0  0  0  0  0  0  0  0  0
    6.6572    0.2862    2.5854 C   0  0  0  0  0  0  0  0  0  0  0  0
    4.4126    0.3419    3.4139 O   0  0  0  0  0  0  0  0  0  0  0  0
    1.7196   -0.4183   -1.8599 N   0  0  0  0  0  0  0  0  0  0  0  0
    0.9997   -1.4979   -2.1968 C   0  0  0  0  0  0  0  0  0  0  0  0
   -0.3219   -1.7397   -1.8764 C   0  0  0  0  0  0  0  0  0  0  0  0
   -0.5958   -2.9977   -2.4534 C   0  0  0  0  0  0  0  0  0  0  0  0
    0.4580   -3.5205   -3.0900 N   0  0  0  0  0  0  0  0  0  0  0  0
    1.4166   -2.5798   -2.9230 N   0  0  0  0  0  0  0  0  0  0  0  0
    2.7224   -2.7896   -3.4956 C   0  0  0  0  0  0  0  0  0  0  0  0
   -3.0017    1.2838    0.1393 C   0  0  0  0  0  0  0  0  0  0  0  0
   -3.9465    2.0785    0.8011 C   0  0  0  0  0  0  0  0  0  0  0  0
   -7.0577    1.1349    3.1120 H   0  0  0  0  0  0  0  0  0  0  0  0
   -7.8396    1.5387    1.5338 H   0  0  0  0  0  0  0  0  0  0  0  0
   -7.7579    2.7341    2.8336 H   0  0  0  0  0  0  0  0  0  0  0  0
   -6.3253   -0.2843    1.3451 H   0  0  0  0  0  0  0  0  0  0  0  0
   -4.6840   -1.6558    0.2029 H   0  0  0  0  0  0  0  0  0  0  0  0
   -2.7226   -1.8202   -1.0049 H   0  0  0  0  0  0  0  0  0  0  0  0
    1.0152    2.0235    0.0068 H   0  0  0  0  0  0  0  0  0  0  0  0
    3.3828    2.5968   -0.2225 H   0  0  0  0  0  0  0  0  0  0  0  0
    3.6120    1.2109   -1.2592 H   0  0  0  0  0  0  0  0  0  0  0  0
    3.0091   -0.3102    0.7070 H   0  0  0  0  0  0  0  0  0  0  0  0
    2.7643    1.1244    1.7041 H   0  0  0  0  0  0  0  0  0  0  0  0
    5.3834    0.4790    0.4161 H   0  0  0  0  0  0  0  0  0  0  0  0
    7.1827    0.6784    1.7102 H   0  0  0  0  0  0  0  0  0  0  0  0
    6.8958   -0.7742    2.7009 H   0  0  0  0  0  0  0  0  0  0  0  0
    6.9989    0.8398    3.4644 H   0  0  0  0  0  0  0  0  0  0  0  0
   -1.5206   -3.5590   -2.4392 H   0  0  0  0  0  0  0  0  0  0  0  0
    3.3736   -1.9438   -3.2640 H   0  0  0  0  0  0  0  0  0  0  0  0
    3.1407   -3.7058   -3.0712 H   0  0  0  0  0  0  0  0  0  0  0  0
    2.6113   -2.8859   -4.5786 H   0  0  0  0  0  0  0  0  0  0  0  0
   -2.0839    1.7586   -0.1914 H   0  0  0  0  0  0  0  0  0  0  0  0
   -3.7327    3.1310    0.9706 H   0  0  0  0  0  0  0  0  0  0  0  0
  1  2  1  0
  2  3  1  0
  3  4  2  0
  4  5  1  0
  5  6  2  0
  6  7  1  0
  7  8  1  0
  8  9  2  0
  9 10  1  0
 10 11  1  0
 11 12  1  0
 12 13  1  0
 13 14  1  0
 14 15  1  0
 15 16  1  0
 15 17  2  0
 10 18  2  0
 18 19  1  0
 19 20  2  0
 20 21  1  0
 21 22  2  0
 22 23  1  0
 23 24  1  0
  6 25  1  0
 25 26  2  0
 26  3  1  0
 20  8  1  0
 23 19  1  0
  1 27  1  0
  1 28  1  0
  1 29  1  0
  4 30  1  0
  5 31  1  0
  7 32  1  0
 11 33  1  0
 12 34  1  0
 12 35  1  0
 13 36  1  0
 13 37  1  0
 14 38  1  0
 16 39  1  0
 16 40  1  0
 16 41  1  0
 21 42  1  0
 24 43  1  0
 24 44  1  0
 24 45  1  0
 25 46  1  0
 26 47  1  0
M  END
>  <ScrubInfo>  (1) 
{"isomerGroup": 0, "isomerId": 0, "confId": 0, "nr_conformers:": 1, "nr_isomers:": 9}

$$$$
_i1
     RDKit          3D

 47 49  0  0  0  0  0  0  0  0999 V2000
   -0.2932   -1.6475    1.1046 N   0  0  0  0  0  0  0  0  0  0  0  0
   -1.5293   -1.7078    0.5078 C   0  0  0  0  0  0  0  0  0  0  0  0
   -2.3995   -2.5349    1.1665 N   0  0  0  0  0  0  0  0  0  0  0  0
   -3.7322   -2.8543    0.6482 C   0  0  0  0  0  0  0  0  0  0  0  0
   -4.7512   -1.7461    0.9467 C   0  0  0  0  0  0  0  0  0  0  0  0
   -4.5329   -0.5472    0.1626 N   0  0  0  0  0  0  0  0  0  0  0  0
   -5.4108    0.5061    0.2097 C   0  0  0  0  0  0  0  0  0  0  0  0
   -4.9495    1.7218   -0.5472 C   0  0  0  0  0  0  0  0  0  0  0  0
   -6.4945    0.4611    0.7826 O   0  0  0  0  0  0  0  0  0  0  0  0
   -1.8500   -1.0249   -0.5622 N   0  0  0  0  0  0  0  0  0  0  0  0
   -0.8039   -0.2826   -1.0236 C   0  0  0  0  0  0  0  0  0  0  0  0
    0.4681   -0.1562   -0.4860 C   0  0  0  0  0  0  0  0  0  0  0  0
    1.1264    0.7311   -1.3556 C   0  0  0  0  0  0  0  0  0  0  0  0
    0.3499    1.1332   -2.3700 N   0  0  0  0  0  0  0  0  0  0  0  0
   -0.8194    0.4941   -2.1486 N   0  0  0  0  0  0  0  0  0  0  0  0
   -1.9111    0.6840   -3.0705 C   0  0  0  0  0  0  0  0  0  0  0  0
    0.7897   -0.8883    0.7227 C   0  0  0  0  0  0  0  0  0  0  0  0
    1.8904   -0.8869    1.4105 N   0  0  0  0  0  0  0  0  0  0  0  0
    2.9929   -0.1153    1.0418 C   0  0  0  0  0  0  0  0  0  0  0  0
    3.9959   -0.6592    0.2362 C   0  0  0  0  0  0  0  0  0  0  0  0
    5.1198    0.0985   -0.1135 C   0  0  0  0  0  0  0  0  0  0  0  0
    5.2557    1.4050    0.3566 C   0  0  0  0  0  0  0  0  0  0  0  0
    6.2961    2.2515    0.0920 O   0  0  0  0  0  0  0  0  0  0  0  0
    7.3180    1.7654   -0.7691 C   0  0  0  0  0  0  0  0  0  0  0  0
    4.2648    1.9392    1.1844 C   0  0  0  0  0  0  0  0  0  0  0  0
    3.1436    1.1819    1.5325 C   0  0  0  0  0  0  0  0  0  0  0  0
   -0.1752   -2.0938    1.9993 H   0  0  0  0  0  0  0  0  0  0  0  0
   -1.9626   -3.3327    1.6134 H   0  0  0  0  0  0  0  0  0  0  0  0
   -3.6839   -3.0698   -0.4256 H   0  0  0  0  0  0  0  0  0  0  0  0
   -4.0706   -3.7709    1.1449 H   0  0  0  0  0  0  0  0  0  0  0  0
   -5.7634   -2.1065    0.7311 H   0  0  0  0  0  0  0  0  0  0  0  0
   -4.7165   -1.4627    2.0051 H   0  0  0  0  0  0  0  0  0  0  0  0
   -3.5789   -0.3837   -0.1585 H   0  0  0  0  0  0  0  0  0  0  0  0
   -3.8583    1.7633   -0.6060 H   0  0  0  0  0  0  0  0  0  0  0  0
   -5.2955    2.6207   -0.0294 H   0  0  0  0  0  0  0  0  0  0  0  0
   -5.3655    1.6960   -1.5576 H   0  0  0  0  0  0  0  0  0  0  0  0
    2.1370    1.1131   -1.3125 H   0  0  0  0  0  0  0  0  0  0  0  0
   -1.5636    0.4284   -4.0747 H   0  0  0  0  0  0  0  0  0  0  0  0
   -2.2173    1.7322   -3.0270 H   0  0  0  0  0  0  0  0  0  0  0  0
   -2.7504    0.0407   -2.7971 H   0  0  0  0  0  0  0  0  0  0  0  0
    3.9016   -1.6805   -0.1230 H   0  0  0  0  0  0  0  0  0  0  0  0
    5.8687   -0.3640   -0.7473 H   0  0  0  0  0  0  0  0  0  0  0  0
    8.0588    2.5614   -0.8913 H   0  0  0  0  0  0  0  0  0  0  0  0
    6.9192    1.5265   -1.7605 H   0  0  0  0  0  0  0  0  0  0  0  0
    7.8269    0.9018   -0.3283 H   0  0  0  0  0  0  0  0  0  0  0  0
    4.3687    2.9525    1.5648 H   0  0  0  0  0  0  0  0  0  0  0  0
    2.3872    1.6062    2.1864 H   0  0  0  0  0  0  0  0  0  0  0  0
  1  2  1  0
  2  3  1  0
  3  4  1  0
  4  5  1  0
  5  6  1  0
  6  7  1  0
  7  8  1  0
  7  9  2  0
  2 10  2  0
 10 11  1  0
 11 12  2  0
 12 13  1  0
 13 14  2  0
 14 15  1  0
 15 16  1  0
 12 17  1  0
 17 18  2  3
 18 19  1  0
 19 20  2  0
 20 21  1  0
 21 22  2  0
 22 23  1  0
 23 24  1  0
 22 25  1  0
 25 26  2  0
 17  1  1  0
 26 19  1  0
 15 11  1  0
  1 27  1  0
  3 28  1  0
  4 29  1  0
  4 30  1  0
  5 31  1  0
  5 32  1  0
  6 33  1  0
  8 34  1  0
  8 35  1  0
  8 36  1  0
 13 37  1  0
 16 38  1  0
 16 39  1  0
 16 40  1  0
 20 41  1  0
 21 42  1  0
 24 43  1  0
 24 44  1  0
 24 45  1  0
 25 46  1  0
 26 47  1  0
M  END
>  <ScrubInfo>  (2) 
{"isomerGroup": 0, "isomerId": 1, "confId": 0, "nr_conformers:": 1, "nr_isomers:": 9}

$$$$
_i2
     RDKit          3D

 47 49  0  0  0  0  0  0  0  0999 V2000
    0.5683   -0.1712   -1.6539 N   0  0  0  0  0  0  0  0  0  0  0  0
   -0.7284   -0.5730   -1.4036 C   0  0  0  0  0  0  0  0  0  0  0  0
   -1.8028    0.1357   -1.9055 N   0  0  0  0  0  0  0  0  0  0  0  0
   -2.8734    0.6860   -1.1641 C   0  0  0  0  0  0  0  0  0  0  0  0
   -3.9743    1.1909   -1.8673 C   0  0  0  0  0  0  0  0  0  0  0  0
   -5.0812    1.7123   -1.1907 C   0  0  0  0  0  0  0  0  0  0  0  0
   -5.1169    1.7347    0.2031 C   0  0  0  0  0  0  0  0  0  0  0  0
   -6.2544    2.2698    0.7389 O   0  0  0  0  0  0  0  0  0  0  0  0
   -6.3461    2.2978    2.1580 C   0  0  0  0  0  0  0  0  0  0  0  0
   -4.0314    1.2289    0.9145 C   0  0  0  0  0  0  0  0  0  0  0  0
   -2.9222    0.7054    0.2348 C   0  0  0  0  0  0  0  0  0  0  0  0
   -0.8474   -1.7081   -0.7033 C   0  0  0  0  0  0  0  0  0  0  0  0
   -1.9224   -2.5713   -0.2014 C   0  0  0  0  0  0  0  0  0  0  0  0
   -1.4771   -3.5990    0.4781 N   0  0  0  0  0  0  0  0  0  0  0  0
   -0.0767   -3.5094    0.4169 N   0  0  0  0  0  0  0  0  0  0  0  0
    0.7178   -4.3269    1.3008 C   0  0  0  0  0  0  0  0  0  0  0  0
    0.3850   -2.3814   -0.2405 C   0  0  0  0  0  0  0  0  0  0  0  0
    1.5883   -1.9575   -0.4312 N   0  0  0  0  0  0  0  0  0  0  0  0
    1.6860   -0.7873   -1.1496 C   0  0  0  0  0  0  0  0  0  0  0  0
    2.8395   -0.2397   -1.3600 N   0  0  0  0  0  0  0  0  0  0  0  0
    4.0048   -0.9459   -0.7955 C   0  0  0  0  0  0  0  0  0  0  0  0
    5.2763   -0.1765   -1.1688 C   0  0  0  0  0  0  0  0  0  0  0  0
    5.2589    1.1771   -0.6401 N   0  0  0  0  0  0  0  0  0  0  0  0
    5.6736    1.4426    0.6440 C   0  0  0  0  0  0  0  0  0  0  0  0
    5.3969    2.8512    1.0961 C   0  0  0  0  0  0  0  0  0  0  0  0
    6.2154    0.6200    1.3750 O   0  0  0  0  0  0  0  0  0  0  0  0
    0.7211    0.7202   -2.0978 H   0  0  0  0  0  0  0  0  0  0  0  0
   -1.5569    0.7400   -2.6848 H   0  0  0  0  0  0  0  0  0  0  0  0
   -3.9889    1.1711   -2.9544 H   0  0  0  0  0  0  0  0  0  0  0  0
   -5.9258    2.0980   -1.7567 H   0  0  0  0  0  0  0  0  0  0  0  0
   -6.3216    1.2857    2.5754 H   0  0  0  0  0  0  0  0  0  0  0  0
   -5.5596    2.9242    2.5916 H   0  0  0  0  0  0  0  0  0  0  0  0
   -7.3100    2.7435    2.4219 H   0  0  0  0  0  0  0  0  0  0  0  0
   -4.0096    1.2269    1.9994 H   0  0  0  0  0  0  0  0  0  0  0  0
   -2.0897    0.3397    0.8300 H   0  0  0  0  0  0  0  0  0  0  0  0
   -2.9779   -2.3331   -0.3849 H   0  0  0  0  0  0  0  0  0  0  0  0
    0.8238   -3.8411    2.2757 H   0  0  0  0  0  0  0  0  0  0  0  0
    0.2495   -5.3052    1.4504 H   0  0  0  0  0  0  0  0  0  0  0  0
    1.7163   -4.4953    0.8849 H   0  0  0  0  0  0  0  0  0  0  0  0
    3.9218   -1.0064    0.2966 H   0  0  0  0  0  0  0  0  0  0  0  0
    4.0788   -1.9588   -1.2088 H   0  0  0  0  0  0  0  0  0  0  0  0
    6.1591   -0.7041   -0.7929 H   0  0  0  0  0  0  0  0  0  0  0  0
    5.3616   -0.0888   -2.2572 H   0  0  0  0  0  0  0  0  0  0  0  0
    4.5543    1.7807   -1.0431 H   0  0  0  0  0  0  0  0  0  0  0  0
    5.1499    3.5033    0.2535 H   0  0  0  0  0  0  0  0  0  0  0  0
    4.5597    2.8434    1.7988 H   0  0  0  0  0  0  0  0  0  0  0  0
    6.2884    3.2511    1.5872 H   0  0  0  0  0  0  0  0  0  0  0  0
  1  2  1  0
  2  3  1  0
  3  4  1  0
  4  5  2  0
  5  6  1  0
  6  7  2  0
  7  8  1  0
  8  9  1  0
  7 10  1  0
 10 11  2  0
  2 12  2  0
 12 13  1  0
 13 14  2  0
 14 15  1  0
 15 16  1  0
 15 17  1  0
 17 18  2  0
 18 19  1  0
 19 20  2  3
 20 21  1  0
 21 22  1  0
 22 23  1  0
 23 24  1  0
 24 25  1  0
 24 26  2  0
 19  1  1  0
 11  4  1  0
 17 12  1  0
  1 27  1  0
  3 28  1  0
  5 29  1  0
  6 30  1  0
  9 31  1  0
  9 32  1  0
  9 33  1  0
 10 34  1  0
 11 35  1  0
 13 36  1  0
 16 37  1  0
 16 38  1  0
 16 39  1  0
 21 40  1  0
 21 41  1  0
 22 42  1  0
 22 43  1  0
 23 44  1  0
 25 45  1  0
 25 46  1  0
 25 47  1  0
M  END
>  <ScrubInfo>  (3) 
{"isomerGroup": 0, "isomerId": 2, "confId": 0, "nr_conformers:": 1, "nr_isomers:": 9}

$$$$
_i3
     RDKit          3D

 47 49  0  0  0  0  0  0  0  0999 V2000
    1.8224   -1.8475    0.2502 N   0  0  0  0  0  0  0  0  0  0  0  0
    1.8186   -1.3078   -1.0264 C   0  0  0  0  0  0  0  0  0  0  0  0
    2.8420   -0.9265   -1.7033 N   0  0  0  0  0  0  0  0  0  0  0  0
    4.1945   -1.0363   -1.1568 C   0  0  0  0  0  0  0  0  0  0  0  0
    4.5272    0.2020   -0.3226 C   0  0  0  0  0  0  0  0  0  0  0  0
    4.2574    1.4187   -1.0609 N   0  0  0  0  0  0  0  0  0  0  0  0
    4.5702    2.6482   -0.5373 C   0  0  0  0  0  0  0  0  0  0  0  0
    4.0815    3.8107   -1.3579 C   0  0  0  0  0  0  0  0  0  0  0  0
    5.1860    2.8008    0.5131 O   0  0  0  0  0  0  0  0  0  0  0  0
    0.6322   -1.1103   -1.7185 N   0  0  0  0  0  0  0  0  0  0  0  0
   -0.5038   -1.4202   -1.1609 C   0  0  0  0  0  0  0  0  0  0  0  0
   -1.7101   -1.2736   -1.7962 N   0  0  0  0  0  0  0  0  0  0  0  0
   -2.7631   -0.4433   -1.3327 C   0  0  0  0  0  0  0  0  0  0  0  0
   -2.6025    0.5207   -0.3305 C   0  0  0  0  0  0  0  0  0  0  0  0
   -3.6765    1.3254    0.0738 C   0  0  0  0  0  0  0  0  0  0  0  0
   -4.9260    1.1836   -0.5267 C   0  0  0  0  0  0  0  0  0  0  0  0
   -6.0504    1.9009   -0.2279 O   0  0  0  0  0  0  0  0  0  0  0  0
   -5.9428    2.8601    0.8165 C   0  0  0  0  0  0  0  0  0  0  0  0
   -5.0887    0.2357   -1.5373 C   0  0  0  0  0  0  0  0  0  0  0  0
   -4.0181   -0.5671   -1.9404 C   0  0  0  0  0  0  0  0  0  0  0  0
   -0.5397   -2.0128    0.1549 C   0  0  0  0  0  0  0  0  0  0  0  0
   -1.5015   -2.5226    1.0396 C   0  0  0  0  0  0  0  0  0  0  0  0
   -0.9544   -2.9730    2.1800 N   0  0  0  0  0  0  0  0  0  0  0  0
    0.3735   -2.7596    2.0111 N   0  0  0  0  0  0  0  0  0  0  0  0
    1.2820   -3.1416    3.0620 C   0  0  0  0  0  0  0  0  0  0  0  0
    0.6483   -2.1941    0.8062 C   0  0  0  0  0  0  0  0  0  0  0  0
    2.7112   -1.9817    0.7060 H   0  0  0  0  0  0  0  0  0  0  0  0
    4.3460   -1.9548   -0.5798 H   0  0  0  0  0  0  0  0  0  0  0  0
    4.8866   -1.0940   -2.0053 H   0  0  0  0  0  0  0  0  0  0  0  0
    5.5802    0.1943   -0.0213 H   0  0  0  0  0  0  0  0  0  0  0  0
    3.9185    0.2310    0.5881 H   0  0  0  0  0  0  0  0  0  0  0  0
    3.5182    1.3505   -1.7551 H   0  0  0  0  0  0  0  0  0  0  0  0
    4.8953    4.5314   -1.4772 H   0  0  0  0  0  0  0  0  0  0  0  0
    3.7570    3.4932   -2.3528 H   0  0  0  0  0  0  0  0  0  0  0  0
    3.2410    4.2836   -0.8434 H   0  0  0  0  0  0  0  0  0  0  0  0
   -1.5422   -1.0354   -2.7724 H   0  0  0  0  0  0  0  0  0  0  0  0
   -1.6386    0.6759    0.1482 H   0  0  0  0  0  0  0  0  0  0  0  0
   -3.4976    2.0549    0.8569 H   0  0  0  0  0  0  0  0  0  0  0  0
   -5.2263    3.6465    0.5570 H   0  0  0  0  0  0  0  0  0  0  0  0
   -6.9229    3.3307    0.9405 H   0  0  0  0  0  0  0  0  0  0  0  0
   -5.6800    2.3827    1.7663 H   0  0  0  0  0  0  0  0  0  0  0  0
   -6.0588    0.1190   -2.0146 H   0  0  0  0  0  0  0  0  0  0  0  0
   -4.1773   -1.3022   -2.7259 H   0  0  0  0  0  0  0  0  0  0  0  0
   -2.5747   -2.5866    0.9120 H   0  0  0  0  0  0  0  0  0  0  0  0
    0.9713   -2.6455    3.9851 H   0  0  0  0  0  0  0  0  0  0  0  0
    1.2366   -4.2274    3.1770 H   0  0  0  0  0  0  0  0  0  0  0  0
    2.2984   -2.8367    2.8047 H   0  0  0  0  0  0  0  0  0  0  0  0
  1  2  1  0
  2  3  2  3
  3  4  1  0
  4  5  1  0
  5  6  1  0
  6  7  1  0
  7  8  1  0
  7  9  2  0
  2 10  1  0
 10 11  2  0
 11 12  1  0
 12 13  1  0
 13 14  2  0
 14 15  1  0
 15 16  2  0
 16 17  1  0
 17 18  1  0
 16 19  1  0
 19 20  2  0
 11 21  1  0
 21 22  1  0
 22 23  2  0
 23 24  1  0
 24 25  1  0
 24 26  1  0
 26  1  1  0
 20 13  1  0
 26 21  2  0
  1 27  1  0
  4 28  1  0
  4 29  1  0
  5 30  1  0
  5 31  1  0
  6 32  1  0
  8 33  1  0
  8 34  1  0
  8 35  1  0
 12 36  1  0
 14 37  1  0
 15 38  1  0
 18 39  1  0
 18 40  1  0
 18 41  1  0
 19 42  1  0
 20 43  1  0
 22 44  1  0
 25 45  1  0
 25 46  1  0
 25 47  1  0
M  END
>  <ScrubInfo>  (4) 
{"isomerGroup": 0, "isomerId": 3, "confId": 0, "nr_conformers:": 1, "nr_isomers:": 9}

$$$$
_i4
     RDKit          3D

 47 49  0  0  0  0  0  0  0  0999 V2000
   -1.2574   -2.2529   -0.6180 N   0  0  0  0  0  0  0  0  0  0  0  0
   -0.4852   -1.1441   -0.8767 C   0  0  0  0  0  0  0  0  0  0  0  0
   -0.9541   -0.3437   -1.8783 N   0  0  0  0  0  0  0  0  0  0  0  0
   -2.2899    0.2541   -1.8089 C   0  0  0  0  0  0  0  0  0  0  0  0
   -2.3910    1.2730   -0.6591 C   0  0  0  0  0  0  0  0  0  0  0  0
   -3.7316    1.7955   -0.4536 N   0  0  0  0  0  0  0  0  0  0  0  0
   -4.3284    2.6153   -1.3841 C   0  0  0  0  0  0  0  0  0  0  0  0
   -5.6450    3.1968   -0.9447 C   0  0  0  0  0  0  0  0  0  0  0  0
   -3.8384    2.8604   -2.4808 O   0  0  0  0  0  0  0  0  0  0  0  0
    0.6157   -0.8178   -0.2593 N   0  0  0  0  0  0  0  0  0  0  0  0
    1.0826   -1.6354    0.7629 C   0  0  0  0  0  0  0  0  0  0  0  0
    2.1377   -1.3897    1.4716 N   0  0  0  0  0  0  0  0  0  0  0  0
    2.8607   -0.2218    1.1974 C   0  0  0  0  0  0  0  0  0  0  0  0
    3.8540   -0.2122    0.2152 C   0  0  0  0  0  0  0  0  0  0  0  0
    4.5963    0.9470   -0.0404 C   0  0  0  0  0  0  0  0  0  0  0  0
    4.3572    2.1067    0.6975 C   0  0  0  0  0  0  0  0  0  0  0  0
    5.0056    3.3021    0.5511 O   0  0  0  0  0  0  0  0  0  0  0  0
    6.0193    3.3637   -0.4441 C   0  0  0  0  0  0  0  0  0  0  0  0
    3.3762    2.0926    1.6922 C   0  0  0  0  0  0  0  0  0  0  0  0
    2.6366    0.9344    1.9453 C   0  0  0  0  0  0  0  0  0  0  0  0
    0.3287   -2.8315    1.0411 C   0  0  0  0  0  0  0  0  0  0  0  0
    0.4515   -3.9184    1.9165 C   0  0  0  0  0  0  0  0  0  0  0  0
   -0.5411   -4.8109    1.7607 N   0  0  0  0  0  0  0  0  0  0  0  0
   -1.2999   -4.2821    0.7680 N   0  0  0  0  0  0  0  0  0  0  0  0
   -2.4730   -4.9930    0.3284 C   0  0  0  0  0  0  0  0  0  0  0  0
   -0.8102   -3.0931    0.3309 C   0  0  0  0  0  0  0  0  0  0  0  0
   -1.9505   -2.4988   -1.3127 H   0  0  0  0  0  0  0  0  0  0  0  0
   -0.2615    0.3834   -2.0588 H   0  0  0  0  0  0  0  0  0  0  0  0
   -3.0520   -0.5250   -1.6919 H   0  0  0  0  0  0  0  0  0  0  0  0
   -2.4910    0.7392   -2.7693 H   0  0  0  0  0  0  0  0  0  0  0  0
   -1.7172    2.1179   -0.8436 H   0  0  0  0  0  0  0  0  0  0  0  0
   -2.0912    0.8119    0.2883 H   0  0  0  0  0  0  0  0  0  0  0  0
   -4.0783    1.8247    0.4973 H   0  0  0  0  0  0  0  0  0  0  0  0
   -5.5108    4.2588   -0.7233 H   0  0  0  0  0  0  0  0  0  0  0  0
   -6.3753    3.0762   -1.7496 H   0  0  0  0  0  0  0  0  0  0  0  0
   -6.0317    2.6930   -0.0544 H   0  0  0  0  0  0  0  0  0  0  0  0
    4.0468   -1.1148   -0.3578 H   0  0  0  0  0  0  0  0  0  0  0  0
    5.3506    0.9054   -0.8180 H   0  0  0  0  0  0  0  0  0  0  0  0
    6.8335    2.6658   -0.2224 H   0  0  0  0  0  0  0  0  0  0  0  0
    6.4366    4.3753   -0.4339 H   0  0  0  0  0  0  0  0  0  0  0  0
    5.6048    3.1850   -1.4418 H   0  0  0  0  0  0  0  0  0  0  0  0
    3.1887    2.9886    2.2779 H   0  0  0  0  0  0  0  0  0  0  0  0
    1.8832    0.9322    2.7270 H   0  0  0  0  0  0  0  0  0  0  0  0
    1.2202   -4.1031    2.6561 H   0  0  0  0  0  0  0  0  0  0  0  0
   -2.1556   -5.9452   -0.1038 H   0  0  0  0  0  0  0  0  0  0  0  0
   -3.1197   -5.1618    1.1932 H   0  0  0  0  0  0  0  0  0  0  0  0
   -3.0061   -4.4039   -0.4207 H   0  0  0  0  0  0  0  0  0  0  0  0
  1  2  1  0
  2  3  1  0
  3  4  1  0
  4  5  1  0
  5  6  1  0
  6  7  1  0
  7  8  1  0
  7  9  2  0
  2 10  2  0
 10 11  1  0
 11 12  2  3
 12 13  1  0
 13 14  2  0
 14 15  1  0
 15 16  2  0
 16 17  1  0
 17 18  1  0
 16 19  1  0
 19 20  2  0
 11 21  1  0
 21 22  1  0
 22 23  2  0
 23 24  1  0
 24 25  1  0
 24 26  1  0
 26  1  1  0
 20 13  1  0
 26 21  2  0
  1 27  1  0
  3 28  1  0
  4 29  1  0
  4 30  1  0
  5 31  1  0
  5 32  1  0
  6 33  1  0
  8 34  1  0
  8 35  1  0
  8 36  1  0
 14 37  1  0
 15 38  1  0
 18 39  1  0
 18 40  1  0
 18 41  1  0
 19 42  1  0
 20 43  1  0
 22 44  1  0
 25 45  1  0
 25 46  1  0
 25 47  1  0
M  END
>  <ScrubInfo>  (5) 
{"isomerGroup": 0, "isomerId": 4, "confId": 0, "nr_conformers:": 1, "nr_isomers:": 9}

$$$$
_i5
     RDKit          3D

 47 49  0  0  0  0  0  0  0  0999 V2000
    1.5503   -2.7126    0.5063 N   0  0  0  0  0  0  0  0  0  0  0  0
    1.8872   -1.4573    0.0113 C   0  0  0  0  0  0  0  0  0  0  0  0
    0.8249   -0.7257   -0.3591 C   0  0  0  0  0  0  0  0  0  0  0  0
    0.5285    0.5757   -0.9448 C   0  0  0  0  0  0  0  0  0  0  0  0
    1.3086    1.5552   -1.2611 N   0  0  0  0  0  0  0  0  0  0  0  0
    2.6846    1.4688   -1.0460 C   0  0  0  0  0  0  0  0  0  0  0  0
    3.5279    0.9849   -2.0464 C   0  0  0  0  0  0  0  0  0  0  0  0
    4.9061    0.9122   -1.8299 C   0  0  0  0  0  0  0  0  0  0  0  0
    5.4600    1.3417   -0.6210 C   0  0  0  0  0  0  0  0  0  0  0  0
    6.8187    1.2132   -0.5375 O   0  0  0  0  0  0  0  0  0  0  0  0
    7.4415    1.7219    0.6354 C   0  0  0  0  0  0  0  0  0  0  0  0
    4.6213    1.8507    0.3711 C   0  0  0  0  0  0  0  0  0  0  0  0
    3.2403    1.9195    0.1535 C   0  0  0  0  0  0  0  0  0  0  0  0
   -0.8025    0.7787   -1.1987 N   0  0  0  0  0  0  0  0  0  0  0  0
   -1.7274   -0.0823   -0.8961 C   0  0  0  0  0  0  0  0  0  0  0  0
   -3.0028    0.2733   -1.2190 N   0  0  0  0  0  0  0  0  0  0  0  0
   -4.1064   -0.6650   -1.3351 C   0  0  0  0  0  0  0  0  0  0  0  0
   -4.7038   -0.9962    0.0404 C   0  0  0  0  0  0  0  0  0  0  0  0
   -5.1327    0.1940    0.7596 N   0  0  0  0  0  0  0  0  0  0  0  0
   -6.3072    0.8294    0.4327 C   0  0  0  0  0  0  0  0  0  0  0  0
   -6.5212    2.1349    1.1493 C   0  0  0  0  0  0  0  0  0  0  0  0
   -7.1124    0.3892   -0.3815 O   0  0  0  0  0  0  0  0  0  0  0  0
   -1.5190   -1.2903   -0.2885 N   0  0  0  0  0  0  0  0  0  0  0  0
   -0.3033   -1.6106   -0.0124 C   0  0  0  0  0  0  0  0  0  0  0  0
    0.1684   -2.7686    0.6079 N   0  0  0  0  0  0  0  0  0  0  0  0
   -0.5001   -4.0420    0.4196 C   0  0  0  0  0  0  0  0  0  0  0  0
    2.0784   -2.9746    1.3420 H   0  0  0  0  0  0  0  0  0  0  0  0
    2.9328   -1.1890   -0.0300 H   0  0  0  0  0  0  0  0  0  0  0  0
    3.1101    0.6664   -2.9975 H   0  0  0  0  0  0  0  0  0  0  0  0
    5.5537    0.5283   -2.6144 H   0  0  0  0  0  0  0  0  0  0  0  0
    7.2588    2.7958    0.7470 H   0  0  0  0  0  0  0  0  0  0  0  0
    7.1168    1.1705    1.5239 H   0  0  0  0  0  0  0  0  0  0  0  0
    8.5211    1.5771    0.5302 H   0  0  0  0  0  0  0  0  0  0  0  0
    5.0054    2.2088    1.3200 H   0  0  0  0  0  0  0  0  0  0  0  0
    2.5912    2.3330    0.9210 H   0  0  0  0  0  0  0  0  0  0  0  0
   -3.0332    1.0701   -1.8445 H   0  0  0  0  0  0  0  0  0  0  0  0
   -4.8766   -0.2093   -1.9677 H   0  0  0  0  0  0  0  0  0  0  0  0
   -3.7829   -1.5821   -1.8405 H   0  0  0  0  0  0  0  0  0  0  0  0
   -5.5642   -1.6628   -0.0851 H   0  0  0  0  0  0  0  0  0  0  0  0
   -3.9754   -1.5038    0.6796 H   0  0  0  0  0  0  0  0  0  0  0  0
   -4.3913    0.7477    1.1712 H   0  0  0  0  0  0  0  0  0  0  0  0
   -5.8464    2.2394    2.0036 H   0  0  0  0  0  0  0  0  0  0  0  0
   -7.5495    2.1758    1.5191 H   0  0  0  0  0  0  0  0  0  0  0  0
   -6.3455    2.9586    0.4526 H   0  0  0  0  0  0  0  0  0  0  0  0
   -1.5560   -3.9676    0.6988 H   0  0  0  0  0  0  0  0  0  0  0  0
   -0.4354   -4.3651   -0.6246 H   0  0  0  0  0  0  0  0  0  0  0  0
   -0.0411   -4.8099    1.0507 H   0  0  0  0  0  0  0  0  0  0  0  0
  1  2  1  0
  2  3  2  0
  3  4  1  0
  4  5  2  3
  5  6  1  0
  6  7  2  0
  7  8  1  0
  8  9  2  0
  9 10  1  0
 10 11  1  0
  9 12  1  0
 12 13  2  0
  4 14  1  0
 14 15  2  0
 15 16  1  0
 16 17  1  0
 17 18  1  0
 18 19  1  0
 19 20  1  0
 20 21  1  0
 20 22  2  0
 15 23  1  0
 23 24  2  0
 24 25  1  0
 25 26  1  0
 25  1  1  0
 24  3  1  0
 13  6  1  0
  1 27  1  0
  2 28  1  0
  7 29  1  0
  8 30  1  0
 11 31  1  0
 11 32  1  0
 11 33  1  0
 12 34  1  0
 13 35  1  0
 16 36  1  0
 17 37  1  0
 17 38  1  0
 18 39  1  0
 18 40  1  0
 19 41  1  0
 21 42  1  0
 21 43  1  0
 21 44  1  0
 26 45  1  0
 26 46  1  0
 26 47  1  0
M  END
>  <ScrubInfo>  (6) 
{"isomerGroup": 0, "isomerId": 5, "confId": 0, "nr_conformers:": 1, "nr_isomers:": 9}

$$$$
_i6
     RDKit          3D

 47 49  0  0  0  0  0  0  0  0999 V2000
    0.8014   -5.1245    0.9382 N   0  0  0  0  0  0  0  0  0  0  0  0
   -0.2888   -4.2646    1.0150 C   0  0  0  0  0  0  0  0  0  0  0  0
   -0.0126   -3.0297    0.5722 C   0  0  0  0  0  0  0  0  0  0  0  0
   -0.7052   -1.7500    0.3864 C   0  0  0  0  0  0  0  0  0  0  0  0
   -2.0340   -1.6449    0.7550 N   0  0  0  0  0  0  0  0  0  0  0  0
   -2.8670   -0.5114    0.8132 C   0  0  0  0  0  0  0  0  0  0  0  0
   -2.4130    0.8056    0.7023 C   0  0  0  0  0  0  0  0  0  0  0  0
   -3.2990    1.8935    0.7388 C   0  0  0  0  0  0  0  0  0  0  0  0
   -4.6671    1.6819    0.8807 C   0  0  0  0  0  0  0  0  0  0  0  0
   -5.6335    2.6465    0.9304 O   0  0  0  0  0  0  0  0  0  0  0  0
   -5.2004    3.9950    0.7981 C   0  0  0  0  0  0  0  0  0  0  0  0
   -5.1372    0.3747    0.9862 C   0  0  0  0  0  0  0  0  0  0  0  0
   -4.2503   -0.7071    0.9493 C   0  0  0  0  0  0  0  0  0  0  0  0
   -0.0152   -0.7790   -0.1416 N   0  0  0  0  0  0  0  0  0  0  0  0
    1.2969   -0.9834   -0.5078 C   0  0  0  0  0  0  0  0  0  0  0  0
    1.9414   -0.0460   -1.1093 N   0  0  0  0  0  0  0  0  0  0  0  0
    1.2196    1.2044   -1.3778 C   0  0  0  0  0  0  0  0  0  0  0  0
    2.1384    2.1388   -2.1676 C   0  0  0  0  0  0  0  0  0  0  0  0
    3.4081    2.3165   -1.4875 N   0  0  0  0  0  0  0  0  0  0  0  0
    4.2924    3.2944   -1.8679 C   0  0  0  0  0  0  0  0  0  0  0  0
    5.6332    3.2058   -1.1900 C   0  0  0  0  0  0  0  0  0  0  0  0
    4.0339    4.1713   -2.6863 O   0  0  0  0  0  0  0  0  0  0  0  0
    2.0447   -2.1153   -0.2973 N   0  0  0  0  0  0  0  0  0  0  0  0
    1.4242   -3.1102    0.2314 C   0  0  0  0  0  0  0  0  0  0  0  0
    1.9105   -4.3749    0.5625 N   0  0  0  0  0  0  0  0  0  0  0  0
    2.9572   -4.9997   -0.2245 C   0  0  0  0  0  0  0  0  0  0  0  0
    0.9207   -5.7166    1.7639 H   0  0  0  0  0  0  0  0  0  0  0  0
   -1.2196   -4.6440    1.4096 H   0  0  0  0  0  0  0  0  0  0  0  0
   -2.4967   -2.4934    1.0522 H   0  0  0  0  0  0  0  0  0  0  0  0
   -1.3548    1.0260    0.6031 H   0  0  0  0  0  0  0  0  0  0  0  0
   -2.8783    2.8900    0.6537 H   0  0  0  0  0  0  0  0  0  0  0  0
   -6.0857    4.6364    0.8455 H   0  0  0  0  0  0  0  0  0  0  0  0
   -4.7195    4.1623   -0.1714 H   0  0  0  0  0  0  0  0  0  0  0  0
   -4.5387    4.2793    1.6229 H   0  0  0  0  0  0  0  0  0  0  0  0
   -6.2041    0.1943    1.0923 H   0  0  0  0  0  0  0  0  0  0  0  0
   -4.6638   -1.7098    1.0214 H   0  0  0  0  0  0  0  0  0  0  0  0
    0.3115    1.0247   -1.9650 H   0  0  0  0  0  0  0  0  0  0  0  0
    0.9482    1.6896   -0.4323 H   0  0  0  0  0  0  0  0  0  0  0  0
    1.6644    3.1152   -2.3143 H   0  0  0  0  0  0  0  0  0  0  0  0
    2.3584    1.7163   -3.1547 H   0  0  0  0  0  0  0  0  0  0  0  0
    3.7667    1.4722   -1.0530 H   0  0  0  0  0  0  0  0  0  0  0  0
    5.6159    2.5045   -0.3510 H   0  0  0  0  0  0  0  0  0  0  0  0
    5.9050    4.1927   -0.8054 H   0  0  0  0  0  0  0  0  0  0  0  0
    6.3797    2.8734   -1.9160 H   0  0  0  0  0  0  0  0  0  0  0  0
    3.8349   -4.3483   -0.2849 H   0  0  0  0  0  0  0  0  0  0  0  0
    2.6064   -5.2114   -1.2400 H   0  0  0  0  0  0  0  0  0  0  0  0
    3.2707   -5.9409    0.2387 H   0  0  0  0  0  0  0  0  0  0  0  0
  1  2  1  0
  2  3  2  0
  3  4  1  0
  4  5  1  0
  5  6  1  0
  6  7  2  0
  7  8  1  0
  8  9  2  0
  9 10  1  0
 10 11  1  0
  9 12  1  0
 12 13  2  0
  4 14  2  0
 14 15  1  0
 15 16  2  3
 16 17  1  0
 17 18  1  0
 18 19  1  0
 19 20  1  0
 20 21  1  0
 20 22  2  0
 15 23  1  0
 23 24  2  0
 24 25  1  0
 25 26  1  0
 25  1  1  0
 24  3  1  0
 13  6  1  0
  1 27  1  0
  2 28  1  0
  5 29  1  0
  7 30  1  0
  8 31  1  0
 11 32  1  0
 11 33  1  0
 11 34  1  0
 12 35  1  0
 13 36  1  0
 17 37  1  0
 17 38  1  0
 18 39  1  0
 18 40  1  0
 19 41  1  0
 21 42  1  0
 21 43  1  0
 21 44  1  0
 26 45  1  0
 26 46  1  0
 26 47  1  0
M  END
>  <ScrubInfo>  (7) 
{"isomerGroup": 0, "isomerId": 6, "confId": 0, "nr_conformers:": 1, "nr_isomers:": 9}

$$$$
_i7
     RDKit          3D

 47 49  0  0  0  0  0  0  0  0999 V2000
    1.6513   -1.4617    0.1446 N   0  0  0  0  0  0  0  0  0  0  0  0
    1.8194   -0.8697   -1.0962 C   0  0  0  0  0  0  0  0  0  0  0  0
    2.9013   -0.7550   -1.7895 N   0  0  0  0  0  0  0  0  0  0  0  0
    4.1576   -1.3203   -1.2838 C   0  0  0  0  0  0  0  0  0  0  0  0
    4.8675   -0.3211   -0.3691 C   0  0  0  0  0  0  0  0  0  0  0  0
    5.0523    0.9581   -1.0236 N   0  0  0  0  0  0  0  0  0  0  0  0
    5.7916    1.9522   -0.4306 C   0  0  0  0  0  0  0  0  0  0  0  0
    5.7564    3.2670   -1.1613 C   0  0  0  0  0  0  0  0  0  0  0  0
    6.4235    1.7979    0.6097 O   0  0  0  0  0  0  0  0  0  0  0  0
    0.6541   -0.3436   -1.6095 N   0  0  0  0  0  0  0  0  0  0  0  0
   -0.6334   -0.3033   -1.1193 C   0  0  0  0  0  0  0  0  0  0  0  0
   -1.5894    0.2576   -1.7969 N   0  0  0  0  0  0  0  0  0  0  0  0
   -2.9017    0.3157   -1.3280 C   0  0  0  0  0  0  0  0  0  0  0  0
   -3.3366    1.4133   -0.5816 C   0  0  0  0  0  0  0  0  0  0  0  0
   -4.6605    1.4926   -0.1339 C   0  0  0  0  0  0  0  0  0  0  0  0
   -5.5657    0.4779   -0.4461 C   0  0  0  0  0  0  0  0  0  0  0  0
   -6.8801    0.4288   -0.0729 O   0  0  0  0  0  0  0  0  0  0  0  0
   -7.3629    1.5031    0.7240 C   0  0  0  0  0  0  0  0  0  0  0  0
   -5.1369   -0.6067   -1.2158 C   0  0  0  0  0  0  0  0  0  0  0  0
   -3.8153   -0.6843   -1.6620 C   0  0  0  0  0  0  0  0  0  0  0  0
   -0.7101   -0.9463    0.1813 C   0  0  0  0  0  0  0  0  0  0  0  0
   -1.7003   -1.2203    1.1431 C   0  0  0  0  0  0  0  0  0  0  0  0
   -1.2200   -1.8684    2.2150 N   0  0  0  0  0  0  0  0  0  0  0  0
    0.0948   -2.0099    1.9448 N   0  0  0  0  0  0  0  0  0  0  0  0
    0.9421   -2.6785    2.9002 C   0  0  0  0  0  0  0  0  0  0  0  0
    0.4335   -1.4816    0.7362 C   0  0  0  0  0  0  0  0  0  0  0  0
    2.4647   -1.8673    0.5854 H   0  0  0  0  0  0  0  0  0  0  0  0
    4.0098   -2.2804   -0.7774 H   0  0  0  0  0  0  0  0  0  0  0  0
    4.7941   -1.5300   -2.1517 H   0  0  0  0  0  0  0  0  0  0  0  0
    5.8460   -0.7084   -0.0651 H   0  0  0  0  0  0  0  0  0  0  0  0
    4.2821   -0.1408    0.5394 H   0  0  0  0  0  0  0  0  0  0  0  0
    4.3422    1.2114   -1.7023 H   0  0  0  0  0  0  0  0  0  0  0  0
    6.7762    3.6499   -1.2576 H   0  0  0  0  0  0  0  0  0  0  0  0
    5.3353    3.1590   -2.1648 H   0  0  0  0  0  0  0  0  0  0  0  0
    5.1473    3.9754   -0.5940 H   0  0  0  0  0  0  0  0  0  0  0  0
    0.7576    0.0799   -2.5204 H   0  0  0  0  0  0  0  0  0  0  0  0
   -2.6393    2.2131   -0.3469 H   0  0  0  0  0  0  0  0  0  0  0  0
   -4.9498    2.3605    0.4488 H   0  0  0  0  0  0  0  0  0  0  0  0
   -7.3048    2.4530    0.1824 H   0  0  0  0  0  0  0  0  0  0  0  0
   -8.4173    1.3090    0.9432 H   0  0  0  0  0  0  0  0  0  0  0  0
   -6.8290    1.5581    1.6785 H   0  0  0  0  0  0  0  0  0  0  0  0
   -5.8391   -1.3954   -1.4746 H   0  0  0  0  0  0  0  0  0  0  0  0
   -3.4987   -1.5262   -2.2709 H   0  0  0  0  0  0  0  0  0  0  0  0
   -2.7560   -0.9862    1.1280 H   0  0  0  0  0  0  0  0  0  0  0  0
    0.5487   -2.5119    3.9065 H   0  0  0  0  0  0  0  0  0  0  0  0
    0.9440   -3.7452    2.6644 H   0  0  0  0  0  0  0  0  0  0  0  0
    1.9535   -2.2707    2.8356 H   0  0  0  0  0  0  0  0  0  0  0  0
  1  2  1  0
  2  3  2  3
  3  4  1  0
  4  5  1  0
  5  6  1  0
  6  7  1  0
  7  8  1  0
  7  9  2  0
  2 10  1  0
 10 11  1  0
 11 12  2  3
 12 13  1  0
 13 14  2  0
 14 15  1  0
 15 16  2  0
 16 17  1  0
 17 18  1  0
 16 19  1  0
 19 20  2  0
 11 21  1  0
 21 22  1  0
 22 23  2  0
 23 24  1  0
 24 25  1  0
 24 26  1  0
 26  1  1  0
 20 13  1  0
 26 21  2  0
  1 27  1  0
  4 28  1  0
  4 29  1  0
  5 30  1  0
  5 31  1  0
  6 32  1  0
  8 33  1  0
  8 34  1  0
  8 35  1  0
 10 36  1  0
 14 37  1  0
 15 38  1  0
 18 39  1  0
 18 40  1  0
 18 41  1  0
 19 42  1  0
 20 43  1  0
 22 44  1  0
 25 45  1  0
 25 46  1  0
 25 47  1  0
M  END
>  <ScrubInfo>  (8) 
{"isomerGroup": 0, "isomerId": 7, "confId": 0, "nr_conformers:": 1, "nr_isomers:": 9}

$$$$
_i8
     RDKit          3D

 47 49  0  0  0  0  0  0  0  0999 V2000
    1.4622   -3.0782    0.2530 N   0  0  0  0  0  0  0  0  0  0  0  0
    1.8719   -1.7500    0.2621 C   0  0  0  0  0  0  0  0  0  0  0  0
    0.8845   -0.8833   -0.0048 C   0  0  0  0  0  0  0  0  0  0  0  0
    0.6465    0.5701   -0.1061 C   0  0  0  0  0  0  0  0  0  0  0  0
    1.4876    1.5544    0.0152 N   0  0  0  0  0  0  0  0  0  0  0  0
    2.8389    1.3129    0.2733 C   0  0  0  0  0  0  0  0  0  0  0  0
    3.3091    1.2554    1.5853 C   0  0  0  0  0  0  0  0  0  0  0  0
    4.6648    1.0302    1.8367 C   0  0  0  0  0  0  0  0  0  0  0  0
    5.5689    0.8801    0.7819 C   0  0  0  0  0  0  0  0  0  0  0  0
    6.8628    0.6617    1.1655 O   0  0  0  0  0  0  0  0  0  0  0  0
    7.8355    0.5791    0.1312 C   0  0  0  0  0  0  0  0  0  0  0  0
    5.1047    0.9623   -0.5312 C   0  0  0  0  0  0  0  0  0  0  0  0
    3.7456    1.1850   -0.7813 C   0  0  0  0  0  0  0  0  0  0  0  0
   -0.6658    0.8619   -0.3632 N   0  0  0  0  0  0  0  0  0  0  0  0
   -1.6946   -0.0193   -0.5369 C   0  0  0  0  0  0  0  0  0  0  0  0
   -2.8818    0.4507   -0.7495 N   0  0  0  0  0  0  0  0  0  0  0  0
   -3.9548   -0.5400   -0.9457 C   0  0  0  0  0  0  0  0  0  0  0  0
   -5.2627    0.1970   -1.2418 C   0  0  0  0  0  0  0  0  0  0  0  0
   -5.5865    1.1396   -0.1864 N   0  0  0  0  0  0  0  0  0  0  0  0
   -6.8253    1.7272   -0.1128 C   0  0  0  0  0  0  0  0  0  0  0  0
   -6.9297    2.8098    0.9274 C   0  0  0  0  0  0  0  0  0  0  0  0
   -7.7744    1.4151   -0.8246 O   0  0  0  0  0  0  0  0  0  0  0  0
   -1.4909   -1.3817   -0.4937 N   0  0  0  0  0  0  0  0  0  0  0  0
   -0.2849   -1.7982   -0.2602 C   0  0  0  0  0  0  0  0  0  0  0  0
    0.1493   -3.1241   -0.1916 N   0  0  0  0  0  0  0  0  0  0  0  0
   -0.7248   -4.1739    0.2967 C   0  0  0  0  0  0  0  0  0  0  0  0
    2.1218   -3.7053   -0.2134 H   0  0  0  0  0  0  0  0  0  0  0  0
    2.9089   -1.5385    0.4780 H   0  0  0  0  0  0  0  0  0  0  0  0
    2.6193    1.3869    2.4141 H   0  0  0  0  0  0  0  0  0  0  0  0
    5.0204    0.9809    2.8631 H   0  0  0  0  0  0  0  0  0  0  0  0
    7.6479   -0.2829   -0.5173 H   0  0  0  0  0  0  0  0  0  0  0  0
    8.8126    0.4349    0.6021 H   0  0  0  0  0  0  0  0  0  0  0  0
    7.8781    1.5080   -0.4471 H   0  0  0  0  0  0  0  0  0  0  0  0
    5.7697    0.8646   -1.3825 H   0  0  0  0  0  0  0  0  0  0  0  0
    3.3907    1.2636   -1.8056 H   0  0  0  0  0  0  0  0  0  0  0  0
   -0.9062    1.8386   -0.4376 H   0  0  0  0  0  0  0  0  0  0  0  0
   -3.7285   -1.2029   -1.7892 H   0  0  0  0  0  0  0  0  0  0  0  0
   -4.0815   -1.1412   -0.0368 H   0  0  0  0  0  0  0  0  0  0  0  0
   -6.0877   -0.5144   -1.3549 H   0  0  0  0  0  0  0  0  0  0  0  0
   -5.1786    0.7701   -2.1722 H   0  0  0  0  0  0  0  0  0  0  0  0
   -4.7897    1.6276    0.2054 H   0  0  0  0  0  0  0  0  0  0  0  0
   -6.9813    3.7812    0.4288 H   0  0  0  0  0  0  0  0  0  0  0  0
   -6.0712    2.8025    1.6049 H   0  0  0  0  0  0  0  0  0  0  0  0
   -7.8345    2.6498    1.5203 H   0  0  0  0  0  0  0  0  0  0  0  0
   -0.9671   -4.0181    1.3531 H   0  0  0  0  0  0  0  0  0  0  0  0
   -0.2424   -5.1511    0.1908 H   0  0  0  0  0  0  0  0  0  0  0  0
   -1.6567   -4.1982   -0.2772 H   0  0  0  0  0  0  0  0  0  0  0  0
  1  2  1  0
  2  3  2  0
  3  4  1  0
  4  5  2  3
  5  6  1  0
  6  7  2  0
  7  8  1  0
  8  9  2  0
  9 10  1  0
 10 11  1  0
  9 12  1  0
 12 13  2  0
  4 14  1  0
 14 15  1  0
 15 16  2  3
 16 17  1  0
 17 18  1  0
 18 19  1  0
 19 20  1  0
 20 21  1  0
 20 22  2  0
 15 23  1  0
 23 24  2  0
 24 25  1  0
 25 26  1  0
 25  1  1  0
 24  3  1  0
 13  6  1  0
  1 27  1  0
  2 28  1  0
  7 29  1  0
  8 30  1  0
 11 31  1  0
 11 32  1  0
 11 33  1  0
 12 34  1  0
 13 35  1  0
 14 36  1  0
 17 37  1  0
 17 38  1  0
 18 39  1  0
 18 40  1  0
 19 41  1  0
 21 42  1  0
 21 43  1  0
 21 44  1  0
 26 45  1  0
 26 46  1  0
 26 47  1  0
M  END
>  <ScrubInfo>  (9) 
{"isomerGroup": 0, "isomerId": 8, "confId": 0, "nr_conformers:": 1, "nr_isomers:": 9}

$$$$
