REMARK SMILES COc1ccc(Nc2nc(NCCNC(C)=O)nc3c2cnn3C)cc1
REMARK SMILES IDX 8 1 9 2 10 3 18 4 19 5 20 6 21 7 22 8 23 9 24 10 7 11 6 13
REMARK SMILES IDX 3 14 4 15 26 16 5 17 25 18 2 19 1 20 11 21 12 23 13 24 14 25
REMARK SMILES IDX 15 26 16 28 17 29
REMARK H PARENT 7 12 11 22 14 27
ROOT
ATOM      1  C   UNL     1      -0.992  -0.762  -1.129  1.00  0.00     0.147 A 
ATOM      2  N   UNL     1      -0.272   0.338  -0.782  1.00  0.00    -0.195 NA
ATOM      3  C   UNL     1       1.012   0.472  -1.152  1.00  0.00     0.226 A 
ATOM      4  N   UNL     1       1.720  -0.418  -1.860  1.00  0.00    -0.193 NA
ATOM      5  C   UNL     1       1.000  -1.498  -2.197  1.00  0.00     0.165 A 
ATOM      6  C   UNL     1      -0.322  -1.740  -1.876  1.00  0.00     0.082 A 
ATOM      7  C   UNL     1      -0.596  -2.998  -2.453  1.00  0.00     0.149 A 
ATOM      8  N   UNL     1       0.458  -3.521  -3.090  1.00  0.00    -0.179 NA
ATOM      9  N   UNL     1       1.417  -2.580  -2.923  1.00  0.00    -0.250 N 
ATOM     10  C   UNL     1       2.722  -2.790  -3.496  1.00  0.00     0.176 C 
ENDROOT
BRANCH   1  11
ATOM     11  N   UNL     1      -2.329  -0.929  -0.738  1.00  0.00    -0.339 N 
ATOM     12  H   UNL     1      -2.723  -1.820  -1.005  1.00  0.00     0.168 HD
BRANCH  11  13
ATOM     13  C   UNL     1      -3.242  -0.069  -0.106  1.00  0.00     0.040 A 
ATOM     14  C   UNL     1      -5.152   1.538   1.244  1.00  0.00     0.119 A 
ATOM     15  C   UNL     1      -5.406   0.189   1.017  1.00  0.00     0.048 A 
ATOM     16  C   UNL     1      -3.946   2.079   0.801  1.00  0.00     0.048 A 
ATOM     17  C   UNL     1      -4.458  -0.603   0.353  1.00  0.00     0.030 A 
ATOM     18  C   UNL     1      -3.002   1.284   0.139  1.00  0.00     0.030 A 
BRANCH  14  19
ATOM     19  O   UNL     1      -5.983   2.421   1.874  1.00  0.00    -0.497 OA
ATOM     20  C   UNL     1      -7.219   1.910   2.356  1.00  0.00     0.278 C 
ENDBRANCH  14  19
ENDBRANCH  11  13
ENDBRANCH   1  11
BRANCH   3  21
ATOM     21  N   UNL     1       1.614   1.645  -0.721  1.00  0.00    -0.352 N 
ATOM     22  H   UNL     1       1.015   2.023   0.007  1.00  0.00     0.163 HD
BRANCH  21  23
ATOM     23  C   UNL     1       3.030   1.574  -0.402  1.00  0.00     0.137 C 
BRANCH  23  24
ATOM     24  C   UNL     1       3.323   0.730   0.847  1.00  0.00     0.137 C 
BRANCH  24  25
ATOM     25  N   UNL     1       4.742   0.700   1.167  1.00  0.00    -0.355 N 
ATOM     26  C   UNL     1       5.166   0.444   2.453  1.00  0.00     0.216 C 
ATOM     27  H   UNL     1       5.383   0.479   0.416  1.00  0.00     0.163 HD
ATOM     28  C   UNL     1       6.657   0.286   2.585  1.00  0.00     0.114 C 
ATOM     29  O   UNL     1       4.413   0.342   3.414  1.00  0.00    -0.275 OA
ENDBRANCH  24  25
ENDBRANCH  23  24
ENDBRANCH  21  23
ENDBRANCH   3  21
TORSDOF 7
