REMARK SMILES Cc1cc(Br)ccc1Nc1nc(NCCOC(C)C)nc2c1cnn2C
REMARK SMILES IDX 13 1 12 3 10 4 11 5 22 6 21 7 23 8 20 9 25 10 24 11 26 12
REMARK SMILES IDX 9 13 8 15 2 16 3 17 4 18 7 19 6 20 1 21 5 22 14 23 15 24
REMARK SMILES IDX 16 25 17 26 18 27 19 28
REMARK H PARENT 13 2 9 14
ROOT
ATOM      1  N   UNL     1       0.713  -1.029   1.944  1.00  0.00    -0.352 N 
ATOM      2  H   UNL     1       0.672  -0.011   1.965  1.00  0.00     0.163 HD
ENDROOT
BRANCH   1   3
ATOM      3  C   UNL     1       0.049  -1.390   0.778  1.00  0.00     0.226 A 
ATOM      4  C   UNL     1      -1.404  -0.634  -0.907  1.00  0.00     0.147 A 
ATOM      5  N   UNL     1      -0.689  -0.412   0.227  1.00  0.00    -0.195 NA
ATOM      6  C   UNL     1      -1.319  -1.909  -1.474  1.00  0.00     0.082 A 
ATOM      7  C   UNL     1      -0.524  -2.833  -0.826  1.00  0.00     0.165 A 
ATOM      8  C   UNL     1      -1.825  -2.603  -2.592  1.00  0.00     0.149 A 
ATOM      9  N   UNL     1       0.185  -2.632   0.294  1.00  0.00    -0.193 NA
ATOM     10  N   UNL     1      -0.612  -3.985  -1.558  1.00  0.00    -0.250 N 
ATOM     11  N   UNL     1      -1.400  -3.870  -2.654  1.00  0.00    -0.179 NA
ATOM     12  C   UNL     1       0.031  -5.243  -1.276  1.00  0.00     0.176 C 
BRANCH   4  13
ATOM     13  N   UNL     1      -2.164   0.396  -1.486  1.00  0.00    -0.339 N 
ATOM     14  H   UNL     1      -2.833   0.065  -2.169  1.00  0.00     0.168 HD
BRANCH  13  15
ATOM     15  C   UNL     1      -2.608   1.571  -0.844  1.00  0.00     0.043 A 
ATOM     16  C   UNL     1      -3.413   1.571   0.313  1.00  0.00    -0.026 A 
ATOM     17  C   UNL     1      -3.855   2.798   0.843  1.00  0.00     0.021 A 
ATOM     18  C   UNL     1      -3.554   3.999   0.201  1.00  0.00     0.018 A 
ATOM     19  C   UNL     1      -2.357   2.790  -1.497  1.00  0.00     0.027 A 
ATOM     20  C   UNL     1      -2.814   4.000  -0.974  1.00  0.00     0.018 A 
ATOM     21  C   UNL     1      -3.793   0.309   1.038  1.00  0.00     0.046 C 
ATOM     22  Br  UNL     1      -4.171   5.632   0.925  1.00  0.00    -0.051 Br
ENDBRANCH  13  15
ENDBRANCH   4  13
ENDBRANCH   1   3
BRANCH   1  23
ATOM     23  C   UNL     1       2.084  -1.522   2.056  1.00  0.00     0.144 C 
BRANCH  23  24
ATOM     24  C   UNL     1       3.023  -0.822   1.063  1.00  0.00     0.181 C 
BRANCH  24  25
ATOM     25  O   UNL     1       2.999   0.587   1.322  1.00  0.00    -0.377 OA
BRANCH  25  26
ATOM     26  C   UNL     1       3.589   1.373   0.284  1.00  0.00     0.112 C 
ATOM     27  C   UNL     1       3.164   2.817   0.527  1.00  0.00     0.038 C 
ATOM     28  C   UNL     1       5.109   1.256   0.302  1.00  0.00     0.038 C 
ENDBRANCH  25  26
ENDBRANCH  24  25
ENDBRANCH  23  24
ENDBRANCH   1  23
TORSDOF 7
