_i0
     RDKit          3D

 49 51  0  0  0  0  0  0  0  0999 V2000
   -3.7935    0.3087    1.0382 C   0  0  0  0  0  0  0  0  0  0  0  0
   -3.4129    1.5709    0.3134 C   0  0  0  0  0  0  0  0  0  0  0  0
   -3.8551    2.7984    0.8427 C   0  0  0  0  0  0  0  0  0  0  0  0
   -3.5542    3.9987    0.2014 C   0  0  0  0  0  0  0  0  0  0  0  0
   -4.1709    5.6323    0.9255 Br  0  0  0  0  0  0  0  0  0  0  0  0
   -2.8140    4.0003   -0.9738 C   0  0  0  0  0  0  0  0  0  0  0  0
   -2.3568    2.7900   -1.4966 C   0  0  0  0  0  0  0  0  0  0  0  0
   -2.6083    1.5712   -0.8438 C   0  0  0  0  0  0  0  0  0  0  0  0
   -2.1639    0.3961   -1.4856 N   0  0  0  0  0  0  0  0  0  0  0  0
   -1.4043   -0.6341   -0.9069 C   0  0  0  0  0  0  0  0  0  0  0  0
   -0.6890   -0.4116    0.2267 N   0  0  0  0  0  0  0  0  0  0  0  0
    0.0487   -1.3896    0.7780 C   0  0  0  0  0  0  0  0  0  0  0  0
    0.7126   -1.0294    1.9440 N   0  0  0  0  0  0  0  0  0  0  0  0
    2.0839   -1.5216    2.0559 C   0  0  0  0  0  0  0  0  0  0  0  0
    3.0234   -0.8220    1.0627 C   0  0  0  0  0  0  0  0  0  0  0  0
    2.9991    0.5866    1.3223 O   0  0  0  0  0  0  0  0  0  0  0  0
    3.5886    1.3734    0.2839 C   0  0  0  0  0  0  0  0  0  0  0  0
    3.1642    2.8173    0.5267 C   0  0  0  0  0  0  0  0  0  0  0  0
    5.1089    1.2559    0.3018 C   0  0  0  0  0  0  0  0  0  0  0  0
    0.1846   -2.6323    0.2939 N   0  0  0  0  0  0  0  0  0  0  0  0
   -0.5243   -2.8329   -0.8260 C   0  0  0  0  0  0  0  0  0  0  0  0
   -1.3193   -1.9085   -1.4742 C   0  0  0  0  0  0  0  0  0  0  0  0
   -1.8246   -2.6030   -2.5923 C   0  0  0  0  0  0  0  0  0  0  0  0
   -1.4000   -3.8701   -2.6536 N   0  0  0  0  0  0  0  0  0  0  0  0
   -0.6120   -3.9850   -1.5584 N   0  0  0  0  0  0  0  0  0  0  0  0
    0.0312   -5.2433   -1.2756 C   0  0  0  0  0  0  0  0  0  0  0  0
   -2.9898   -0.0009    1.7121 H   0  0  0  0  0  0  0  0  0  0  0  0
   -4.6988    0.4592    1.6371 H   0  0  0  0  0  0  0  0  0  0  0  0
   -4.0201   -0.4997    0.3362 H   0  0  0  0  0  0  0  0  0  0  0  0
   -4.4446    2.8101    1.7570 H   0  0  0  0  0  0  0  0  0  0  0  0
   -2.5827    4.9292   -1.4870 H   0  0  0  0  0  0  0  0  0  0  0  0
   -1.7706    2.7974   -2.4130 H   0  0  0  0  0  0  0  0  0  0  0  0
   -2.8333    0.0653   -2.1691 H   0  0  0  0  0  0  0  0  0  0  0  0
    0.6721   -0.0106    1.9647 H   0  0  0  0  0  0  0  0  0  0  0  0
    2.1359   -2.6104    1.9407 H   0  0  0  0  0  0  0  0  0  0  0  0
    2.4211   -1.2941    3.0740 H   0  0  0  0  0  0  0  0  0  0  0  0
    4.0414   -1.1976    1.2066 H   0  0  0  0  0  0  0  0  0  0  0  0
    2.7143   -1.0226    0.0309 H   0  0  0  0  0  0  0  0  0  0  0  0
    3.1955    1.0566   -0.6896 H   0  0  0  0  0  0  0  0  0  0  0  0
    2.0716    2.8979    0.5263 H   0  0  0  0  0  0  0  0  0  0  0  0
    3.5049    3.1680    1.5073 H   0  0  0  0  0  0  0  0  0  0  0  0
    3.5624    3.4852   -0.2432 H   0  0  0  0  0  0  0  0  0  0  0  0
    5.5069    1.4757    1.2985 H   0  0  0  0  0  0  0  0  0  0  0  0
    5.5676    1.9391   -0.4199 H   0  0  0  0  0  0  0  0  0  0  0  0
    5.4275    0.2395    0.0503 H   0  0  0  0  0  0  0  0  0  0  0  0
   -2.4857   -2.2408   -3.3686 H   0  0  0  0  0  0  0  0  0  0  0  0
    0.6848   -5.4914   -2.1158 H   0  0  0  0  0  0  0  0  0  0  0  0
   -0.7427   -6.0056   -1.1553 H   0  0  0  0  0  0  0  0  0  0  0  0
    0.6199   -5.1659   -0.3589 H   0  0  0  0  0  0  0  0  0  0  0  0
  1  2  1  0
  2  3  2  0
  3  4  1  0
  4  5  1  0
  4  6  2  0
  6  7  1  0
  7  8  2  0
  8  9  1  0
  9 10  1  0
 10 11  2  0
 11 12  1  0
 12 13  1  0
 13 14  1  0
 14 15  1  0
 15 16  1  0
 16 17  1  0
 17 18  1  0
 17 19  1  0
 12 20  2  0
 20 21  1  0
 21 22  2  0
 22 23  1  0
 23 24  2  0
 24 25  1  0
 25 26  1  0
  8  2  1  0
 22 10  1  0
 25 21  1  0
  1 27  1  0
  1 28  1  0
  1 29  1  0
  3 30  1  0
  6 31  1  0
  7 32  1  0
  9 33  1  0
 13 34  1  0
 14 35  1  0
 14 36  1  0
 15 37  1  0
 15 38  1  0
 17 39  1  0
 18 40  1  0
 18 41  1  0
 18 42  1  0
 19 43  1  0
 19 44  1  0
 19 45  1  0
 23 46  1  0
 26 47  1  0
 26 48  1  0
 26 49  1  0
M  END
>  <ScrubInfo>  (1) 
{"isomerGroup": 0, "isomerId": 0, "confId": 0, "nr_conformers:": 1, "nr_isomers:": 9}

$$$$
_i1
     RDKit          3D

 49 51  0  0  0  0  0  0  0  0999 V2000
   -0.2137    0.3357   -1.2601 N   0  0  0  0  0  0  0  0  0  0  0  0
    0.5934   -0.7309   -1.5606 C   0  0  0  0  0  0  0  0  0  0  0  0
    1.8441   -0.4391   -2.0246 N   0  0  0  0  0  0  0  0  0  0  0  0
    2.7189    0.5467   -1.4008 C   0  0  0  0  0  0  0  0  0  0  0  0
    3.0975    0.1566    0.0339 C   0  0  0  0  0  0  0  0  0  0  0  0
    3.9942    1.1163    0.5965 O   0  0  0  0  0  0  0  0  0  0  0  0
    5.3774    0.8413    0.3551 C   0  0  0  0  0  0  0  0  0  0  0  0
    6.1203    2.1699    0.4284 C   0  0  0  0  0  0  0  0  0  0  0  0
    5.9069   -0.1228    1.4118 C   0  0  0  0  0  0  0  0  0  0  0  0
    0.2342   -1.9830   -1.4319 N   0  0  0  0  0  0  0  0  0  0  0  0
   -1.0351   -2.0902   -0.9452 C   0  0  0  0  0  0  0  0  0  0  0  0
   -1.9230   -1.0763   -0.6161 C   0  0  0  0  0  0  0  0  0  0  0  0
   -3.0669   -1.7523   -0.1567 C   0  0  0  0  0  0  0  0  0  0  0  0
   -2.9306   -3.0841   -0.1890 N   0  0  0  0  0  0  0  0  0  0  0  0
   -1.6841   -3.2635   -0.6807 N   0  0  0  0  0  0  0  0  0  0  0  0
   -1.1835   -4.6028   -0.8615 C   0  0  0  0  0  0  0  0  0  0  0  0
   -1.5105    0.3015   -0.8022 C   0  0  0  0  0  0  0  0  0  0  0  0
   -2.1896    1.3900   -0.6042 N   0  0  0  0  0  0  0  0  0  0  0  0
   -3.5113    1.3701   -0.1498 C   0  0  0  0  0  0  0  0  0  0  0  0
   -4.5521    1.3205   -1.0862 C   0  0  0  0  0  0  0  0  0  0  0  0
   -5.8848    1.3260   -0.6724 C   0  0  0  0  0  0  0  0  0  0  0  0
   -6.1800    1.3966    0.6857 C   0  0  0  0  0  0  0  0  0  0  0  0
   -7.9830    1.3992    1.2538 Br  0  0  0  0  0  0  0  0  0  0  0  0
   -5.1566    1.4713    1.6308 C   0  0  0  0  0  0  0  0  0  0  0  0
   -3.8133    1.4742    1.2207 C   0  0  0  0  0  0  0  0  0  0  0  0
   -2.7189    1.5620    2.2468 C   0  0  0  0  0  0  0  0  0  0  0  0
    0.1016    1.2535   -1.5274 H   0  0  0  0  0  0  0  0  0  0  0  0
    2.3355   -1.3098   -2.2176 H   0  0  0  0  0  0  0  0  0  0  0  0
    3.6238    0.6385   -2.0117 H   0  0  0  0  0  0  0  0  0  0  0  0
    2.2620    1.5429   -1.4109 H   0  0  0  0  0  0  0  0  0  0  0  0
    2.1994    0.1561    0.6611 H   0  0  0  0  0  0  0  0  0  0  0  0
    3.5161   -0.8553    0.0744 H   0  0  0  0  0  0  0  0  0  0  0  0
    5.5160    0.4165   -0.6458 H   0  0  0  0  0  0  0  0  0  0  0  0
    5.9816    2.6461    1.4054 H   0  0  0  0  0  0  0  0  0  0  0  0
    7.1919    2.0377    0.2506 H   0  0  0  0  0  0  0  0  0  0  0  0
    5.7266    2.8669   -0.3195 H   0  0  0  0  0  0  0  0  0  0  0  0
    6.9795   -0.2991    1.2844 H   0  0  0  0  0  0  0  0  0  0  0  0
    5.7324    0.2683    2.4203 H   0  0  0  0  0  0  0  0  0  0  0  0
    5.3941   -1.0881    1.3578 H   0  0  0  0  0  0  0  0  0  0  0  0
   -4.0027   -1.3508    0.2060 H   0  0  0  0  0  0  0  0  0  0  0  0
   -1.8833   -5.1495   -1.4988 H   0  0  0  0  0  0  0  0  0  0  0  0
   -1.1114   -5.0768    0.1206 H   0  0  0  0  0  0  0  0  0  0  0  0
   -0.1996   -4.5767   -1.3347 H   0  0  0  0  0  0  0  0  0  0  0  0
   -4.3180    1.2747   -2.1468 H   0  0  0  0  0  0  0  0  0  0  0  0
   -6.6774    1.2779   -1.4139 H   0  0  0  0  0  0  0  0  0  0  0  0
   -5.4010    1.5339    2.6887 H   0  0  0  0  0  0  0  0  0  0  0  0
   -2.0121    2.3572    1.9883 H   0  0  0  0  0  0  0  0  0  0  0  0
   -2.1855    0.6087    2.3131 H   0  0  0  0  0  0  0  0  0  0  0  0
   -3.1192    1.7945    3.2393 H   0  0  0  0  0  0  0  0  0  0  0  0
  1  2  1  0
  2  3  1  0
  3  4  1  0
  4  5  1  0
  5  6  1  0
  6  7  1  0
  7  8  1  0
  7  9  1  0
  2 10  2  0
 10 11  1  0
 11 12  2  0
 12 13  1  0
 13 14  2  0
 14 15  1  0
 15 16  1  0
 12 17  1  0
 17 18  2  3
 18 19  1  0
 19 20  2  0
 20 21  1  0
 21 22  2  0
 22 23  1  0
 22 24  1  0
 24 25  2  0
 25 26  1  0
 17  1  1  0
 25 19  1  0
 15 11  1  0
  1 27  1  0
  3 28  1  0
  4 29  1  0
  4 30  1  0
  5 31  1  0
  5 32  1  0
  7 33  1  0
  8 34  1  0
  8 35  1  0
  8 36  1  0
  9 37  1  0
  9 38  1  0
  9 39  1  0
 13 40  1  0
 16 41  1  0
 16 42  1  0
 16 43  1  0
 20 44  1  0
 21 45  1  0
 24 46  1  0
 26 47  1  0
 26 48  1  0
 26 49  1  0
M  END
>  <ScrubInfo>  (2) 
{"isomerGroup": 0, "isomerId": 1, "confId": 0, "nr_conformers:": 1, "nr_isomers:": 9}

$$$$
_i2
     RDKit          3D

 49 51  0  0  0  0  0  0  0  0999 V2000
   -0.8068    0.1757   -0.1649 N   0  0  0  0  0  0  0  0  0  0  0  0
   -1.7904    0.0134    0.7908 C   0  0  0  0  0  0  0  0  0  0  0  0
   -2.7717    0.9674    1.0150 N   0  0  0  0  0  0  0  0  0  0  0  0
   -3.2020    1.9064    0.0509 C   0  0  0  0  0  0  0  0  0  0  0  0
   -3.1432    3.2641    0.4036 C   0  0  0  0  0  0  0  0  0  0  0  0
   -3.5993    4.2554   -0.4660 C   0  0  0  0  0  0  0  0  0  0  0  0
   -4.1437    3.8911   -1.6913 C   0  0  0  0  0  0  0  0  0  0  0  0
   -4.7574    5.2259   -2.8804 Br  0  0  0  0  0  0  0  0  0  0  0  0
   -4.2511    2.5464   -2.0435 C   0  0  0  0  0  0  0  0  0  0  0  0
   -3.8093    1.5385   -1.1669 C   0  0  0  0  0  0  0  0  0  0  0  0
   -3.9756    0.1032   -1.5869 C   0  0  0  0  0  0  0  0  0  0  0  0
   -1.7107   -1.1264    1.4879 C   0  0  0  0  0  0  0  0  0  0  0  0
   -2.4509   -1.8060    2.5562 C   0  0  0  0  0  0  0  0  0  0  0  0
   -1.9516   -2.9759    2.8644 N   0  0  0  0  0  0  0  0  0  0  0  0
   -0.8144   -3.1211    2.0536 N   0  0  0  0  0  0  0  0  0  0  0  0
   -0.2024   -4.4220    1.9329 C   0  0  0  0  0  0  0  0  0  0  0  0
   -0.6216   -2.0761    1.1641 C   0  0  0  0  0  0  0  0  0  0  0  0
    0.2693   -1.9176    0.2449 N   0  0  0  0  0  0  0  0  0  0  0  0
    0.1764   -0.7323   -0.4532 C   0  0  0  0  0  0  0  0  0  0  0  0
    1.0186   -0.4553   -1.3903 N   0  0  0  0  0  0  0  0  0  0  0  0
    2.0773   -1.4292   -1.6935 C   0  0  0  0  0  0  0  0  0  0  0  0
    3.2566   -1.2926   -0.7258 C   0  0  0  0  0  0  0  0  0  0  0  0
    3.9895   -0.0978   -1.0189 O   0  0  0  0  0  0  0  0  0  0  0  0
    5.0391    0.1650   -0.0863 C   0  0  0  0  0  0  0  0  0  0  0  0
    4.4882    0.8783    1.1446 C   0  0  0  0  0  0  0  0  0  0  0  0
    6.0587    1.0486   -0.7960 C   0  0  0  0  0  0  0  0  0  0  0  0
   -0.8048    1.0326   -0.6996 H   0  0  0  0  0  0  0  0  0  0  0  0
   -3.5438    0.6607    1.6000 H   0  0  0  0  0  0  0  0  0  0  0  0
   -2.7146    3.5552    1.3606 H   0  0  0  0  0  0  0  0  0  0  0  0
   -3.5221    5.3003   -0.1782 H   0  0  0  0  0  0  0  0  0  0  0  0
   -4.6909    2.2760   -3.0015 H   0  0  0  0  0  0  0  0  0  0  0  0
   -3.0386   -0.2836   -1.9982 H   0  0  0  0  0  0  0  0  0  0  0  0
   -4.2930   -0.5192   -0.7444 H   0  0  0  0  0  0  0  0  0  0  0  0
   -4.7499    0.0048   -2.3558 H   0  0  0  0  0  0  0  0  0  0  0  0
   -3.3422   -1.3527    3.0080 H   0  0  0  0  0  0  0  0  0  0  0  0
   -0.2534   -4.9645    2.8825 H   0  0  0  0  0  0  0  0  0  0  0  0
   -0.7145   -5.0140    1.1679 H   0  0  0  0  0  0  0  0  0  0  0  0
    0.8530   -4.3328    1.6561 H   0  0  0  0  0  0  0  0  0  0  0  0
    1.6911   -2.4554   -1.6889 H   0  0  0  0  0  0  0  0  0  0  0  0
    2.4195   -1.2305   -2.7157 H   0  0  0  0  0  0  0  0  0  0  0  0
    3.9297   -2.1462   -0.8640 H   0  0  0  0  0  0  0  0  0  0  0  0
    2.9121   -1.2847    0.3123 H   0  0  0  0  0  0  0  0  0  0  0  0
    5.5300   -0.7716    0.2048 H   0  0  0  0  0  0  0  0  0  0  0  0
    3.7891    0.2398    1.6930 H   0  0  0  0  0  0  0  0  0  0  0  0
    5.2928    1.1639    1.8294 H   0  0  0  0  0  0  0  0  0  0  0  0
    3.9330    1.7785    0.8587 H   0  0  0  0  0  0  0  0  0  0  0  0
    5.6007    1.9844   -1.1354 H   0  0  0  0  0  0  0  0  0  0  0  0
    6.4421    0.5444   -1.6898 H   0  0  0  0  0  0  0  0  0  0  0  0
    6.9031    1.2873   -0.1422 H   0  0  0  0  0  0  0  0  0  0  0  0
  1  2  1  0
  2  3  1  0
  3  4  1  0
  4  5  2  0
  5  6  1  0
  6  7  2  0
  7  8  1  0
  7  9  1  0
  9 10  2  0
 10 11  1  0
  2 12  2  0
 12 13  1  0
 13 14  2  0
 14 15  1  0
 15 16  1  0
 15 17  1  0
 17 18  2  0
 18 19  1  0
 19 20  2  3
 20 21  1  0
 21 22  1  0
 22 23  1  0
 23 24  1  0
 24 25  1  0
 24 26  1  0
 19  1  1  0
 10  4  1  0
 17 12  1  0
  1 27  1  0
  3 28  1  0
  5 29  1  0
  6 30  1  0
  9 31  1  0
 11 32  1  0
 11 33  1  0
 11 34  1  0
 13 35  1  0
 16 36  1  0
 16 37  1  0
 16 38  1  0
 21 39  1  0
 21 40  1  0
 22 41  1  0
 22 42  1  0
 24 43  1  0
 25 44  1  0
 25 45  1  0
 25 46  1  0
 26 47  1  0
 26 48  1  0
 26 49  1  0
M  END
>  <ScrubInfo>  (3) 
{"isomerGroup": 0, "isomerId": 2, "confId": 0, "nr_conformers:": 1, "nr_isomers:": 9}

$$$$
_i3
     RDKit          3D

 49 51  0  0  0  0  0  0  0  0999 V2000
    0.8687   -0.5939    0.7426 N   0  0  0  0  0  0  0  0  0  0  0  0
    0.3080    0.6414    0.4681 C   0  0  0  0  0  0  0  0  0  0  0  0
    0.9130    1.7746    0.4702 N   0  0  0  0  0  0  0  0  0  0  0  0
    2.3312    1.8723    0.7878 C   0  0  0  0  0  0  0  0  0  0  0  0
    3.1769    1.7204   -0.4788 C   0  0  0  0  0  0  0  0  0  0  0  0
    4.5695    1.6928   -0.1579 O   0  0  0  0  0  0  0  0  0  0  0  0
    5.0839    0.3925    0.1342 C   0  0  0  0  0  0  0  0  0  0  0  0
    5.4646   -0.3211   -1.1590 C   0  0  0  0  0  0  0  0  0  0  0  0
    6.3112    0.5806    1.0178 C   0  0  0  0  0  0  0  0  0  0  0  0
   -1.0310    0.7560    0.1378 N   0  0  0  0  0  0  0  0  0  0  0  0
   -1.8021   -0.2881    0.0696 C   0  0  0  0  0  0  0  0  0  0  0  0
   -3.1414   -0.3387   -0.2392 N   0  0  0  0  0  0  0  0  0  0  0  0
   -4.0150    0.7034   -0.6251 C   0  0  0  0  0  0  0  0  0  0  0  0
   -3.5732    2.0164   -0.8544 C   0  0  0  0  0  0  0  0  0  0  0  0
   -4.4559    3.0385   -1.2201 C   0  0  0  0  0  0  0  0  0  0  0  0
   -5.8078    2.7639   -1.3584 C   0  0  0  0  0  0  0  0  0  0  0  0
   -7.0049    4.1393   -1.8536 Br  0  0  0  0  0  0  0  0  0  0  0  0
   -6.2845    1.4771   -1.1307 C   0  0  0  0  0  0  0  0  0  0  0  0
   -5.4035    0.4423   -0.7593 C   0  0  0  0  0  0  0  0  0  0  0  0
   -5.9870   -0.9259   -0.5165 C   0  0  0  0  0  0  0  0  0  0  0  0
   -1.2425   -1.5990    0.3513 C   0  0  0  0  0  0  0  0  0  0  0  0
   -1.6833   -2.9326    0.3967 C   0  0  0  0  0  0  0  0  0  0  0  0
   -0.7040   -3.7864    0.7296 N   0  0  0  0  0  0  0  0  0  0  0  0
    0.3782   -2.9892    0.8993 N   0  0  0  0  0  0  0  0  0  0  0  0
    1.6356   -3.5857    1.2724 C   0  0  0  0  0  0  0  0  0  0  0  0
    0.0837   -1.6814    0.6785 C   0  0  0  0  0  0  0  0  0  0  0  0
    1.8443   -0.6217    0.9912 H   0  0  0  0  0  0  0  0  0  0  0  0
    2.6393    1.1704    1.5703 H   0  0  0  0  0  0  0  0  0  0  0  0
    2.5237    2.8610    1.2221 H   0  0  0  0  0  0  0  0  0  0  0  0
    3.0090    2.5869   -1.1281 H   0  0  0  0  0  0  0  0  0  0  0  0
    2.8885    0.8332   -1.0530 H   0  0  0  0  0  0  0  0  0  0  0  0
    4.3433   -0.1990    0.6851 H   0  0  0  0  0  0  0  0  0  0  0  0
    4.5876   -0.4844   -1.7929 H   0  0  0  0  0  0  0  0  0  0  0  0
    5.9219   -1.2941   -0.9539 H   0  0  0  0  0  0  0  0  0  0  0  0
    6.1674    0.2810   -1.7454 H   0  0  0  0  0  0  0  0  0  0  0  0
    6.7600   -0.3805    1.2866 H   0  0  0  0  0  0  0  0  0  0  0  0
    6.0389    1.1075    1.9388 H   0  0  0  0  0  0  0  0  0  0  0  0
    7.0678    1.1945    0.5165 H   0  0  0  0  0  0  0  0  0  0  0  0
   -3.5796   -1.2455   -0.2323 H   0  0  0  0  0  0  0  0  0  0  0  0
   -2.5239    2.2836   -0.7630 H   0  0  0  0  0  0  0  0  0  0  0  0
   -4.0675    4.0392   -1.3907 H   0  0  0  0  0  0  0  0  0  0  0  0
   -7.3479    1.2745   -1.2377 H   0  0  0  0  0  0  0  0  0  0  0  0
   -5.5839   -1.6428   -1.2390 H   0  0  0  0  0  0  0  0  0  0  0  0
   -5.7606   -1.2608    0.5010 H   0  0  0  0  0  0  0  0  0  0  0  0
   -7.0769   -0.9274   -0.6243 H   0  0  0  0  0  0  0  0  0  0  0  0
   -2.6683   -3.3370    0.2058 H   0  0  0  0  0  0  0  0  0  0  0  0
    1.8919   -4.3449    0.5291 H   0  0  0  0  0  0  0  0  0  0  0  0
    1.5204   -4.0401    2.2596 H   0  0  0  0  0  0  0  0  0  0  0  0
    2.4161   -2.8226    1.3031 H   0  0  0  0  0  0  0  0  0  0  0  0
  1  2  1  0
  2  3  2  3
  3  4  1  0
  4  5  1  0
  5  6  1  0
  6  7  1  0
  7  8  1  0
  7  9  1  0
  2 10  1  0
 10 11  2  0
 11 12  1  0
 12 13  1  0
 13 14  2  0
 14 15  1  0
 15 16  2  0
 16 17  1  0
 16 18  1  0
 18 19  2  0
 19 20  1  0
 11 21  1  0
 21 22  1  0
 22 23  2  0
 23 24  1  0
 24 25  1  0
 24 26  1  0
 26  1  1  0
 19 13  1  0
 26 21  2  0
  1 27  1  0
  4 28  1  0
  4 29  1  0
  5 30  1  0
  5 31  1  0
  7 32  1  0
  8 33  1  0
  8 34  1  0
  8 35  1  0
  9 36  1  0
  9 37  1  0
  9 38  1  0
 12 39  1  0
 14 40  1  0
 15 41  1  0
 18 42  1  0
 20 43  1  0
 20 44  1  0
 20 45  1  0
 22 46  1  0
 25 47  1  0
 25 48  1  0
 25 49  1  0
M  END
>  <ScrubInfo>  (4) 
{"isomerGroup": 0, "isomerId": 3, "confId": 0, "nr_conformers:": 1, "nr_isomers:": 9}

$$$$
_i4
     RDKit          3D

 49 51  0  0  0  0  0  0  0  0999 V2000
    0.0352    1.8918   -0.8582 N   0  0  0  0  0  0  0  0  0  0  0  0
    0.6422    0.6616   -0.8093 C   0  0  0  0  0  0  0  0  0  0  0  0
    1.9578    0.6679   -1.1777 N   0  0  0  0  0  0  0  0  0  0  0  0
    2.9442    1.4556   -0.4321 C   0  0  0  0  0  0  0  0  0  0  0  0
    3.4377    0.6796    0.7974 C   0  0  0  0  0  0  0  0  0  0  0  0
    4.0455   -0.5549    0.4001 O   0  0  0  0  0  0  0  0  0  0  0  0
    5.4371   -0.4583    0.0867 C   0  0  0  0  0  0  0  0  0  0  0  0
    5.7606   -1.5921   -0.8786 C   0  0  0  0  0  0  0  0  0  0  0  0
    6.2650   -0.5907    1.3606 C   0  0  0  0  0  0  0  0  0  0  0  0
    0.0641   -0.4544   -0.4740 N   0  0  0  0  0  0  0  0  0  0  0  0
   -1.2763   -0.4575   -0.1058 C   0  0  0  0  0  0  0  0  0  0  0  0
   -1.7577   -1.5989    0.2724 N   0  0  0  0  0  0  0  0  0  0  0  0
   -3.0834   -1.7613    0.6779 C   0  0  0  0  0  0  0  0  0  0  0  0
   -3.4096   -1.5823    2.0286 C   0  0  0  0  0  0  0  0  0  0  0  0
   -4.7193   -1.7607    2.4761 C   0  0  0  0  0  0  0  0  0  0  0  0
   -5.7071   -2.1366    1.5706 C   0  0  0  0  0  0  0  0  0  0  0  0
   -7.4846   -2.3747    2.1688 Br  0  0  0  0  0  0  0  0  0  0  0  0
   -5.3952   -2.3461    0.2271 C   0  0  0  0  0  0  0  0  0  0  0  0
   -4.0776   -2.1754   -0.2280 C   0  0  0  0  0  0  0  0  0  0  0  0
   -3.7465   -2.4183   -1.6738 C   0  0  0  0  0  0  0  0  0  0  0  0
   -1.9767    0.8145   -0.1929 C   0  0  0  0  0  0  0  0  0  0  0  0
   -3.2836    1.3005   -0.0065 C   0  0  0  0  0  0  0  0  0  0  0  0
   -3.3922    2.6159   -0.2554 N   0  0  0  0  0  0  0  0  0  0  0  0
   -2.1395    2.9798   -0.6096 N   0  0  0  0  0  0  0  0  0  0  0  0
   -1.8810    4.3540   -0.9556 C   0  0  0  0  0  0  0  0  0  0  0  0
   -1.2768    1.9322   -0.5733 C   0  0  0  0  0  0  0  0  0  0  0  0
    0.5311    2.6192   -1.3553 H   0  0  0  0  0  0  0  0  0  0  0  0
    2.2792   -0.3055   -1.1875 H   0  0  0  0  0  0  0  0  0  0  0  0
    2.5329    2.4233   -0.1262 H   0  0  0  0  0  0  0  0  0  0  0  0
    3.7808    1.6545   -1.1093 H   0  0  0  0  0  0  0  0  0  0  0  0
    4.1302    1.2887    1.3876 H   0  0  0  0  0  0  0  0  0  0  0  0
    2.5886    0.4257    1.4411 H   0  0  0  0  0  0  0  0  0  0  0  0
    5.6565    0.4956   -0.4066 H   0  0  0  0  0  0  0  0  0  0  0  0
    5.5264   -2.5665   -0.4354 H   0  0  0  0  0  0  0  0  0  0  0  0
    6.8162   -1.5815   -1.1667 H   0  0  0  0  0  0  0  0  0  0  0  0
    5.1511   -1.5047   -1.7847 H   0  0  0  0  0  0  0  0  0  0  0  0
    7.3367   -0.5817    1.1387 H   0  0  0  0  0  0  0  0  0  0  0  0
    6.0536    0.2284    2.0549 H   0  0  0  0  0  0  0  0  0  0  0  0
    6.0234   -1.5195    1.8892 H   0  0  0  0  0  0  0  0  0  0  0  0
   -2.6308   -1.3037    2.7343 H   0  0  0  0  0  0  0  0  0  0  0  0
   -4.9525   -1.6103    3.5264 H   0  0  0  0  0  0  0  0  0  0  0  0
   -6.1737   -2.6514   -0.4682 H   0  0  0  0  0  0  0  0  0  0  0  0
   -4.5920   -2.8645   -2.2079 H   0  0  0  0  0  0  0  0  0  0  0  0
   -2.9035   -3.1111   -1.7637 H   0  0  0  0  0  0  0  0  0  0  0  0
   -3.4966   -1.4745   -2.1685 H   0  0  0  0  0  0  0  0  0  0  0  0
   -4.1769    0.7698    0.2922 H   0  0  0  0  0  0  0  0  0  0  0  0
   -0.8068    4.5136   -1.0704 H   0  0  0  0  0  0  0  0  0  0  0  0
   -2.2623    4.9921   -0.1541 H   0  0  0  0  0  0  0  0  0  0  0  0
   -2.3941    4.5727   -1.8952 H   0  0  0  0  0  0  0  0  0  0  0  0
  1  2  1  0
  2  3  1  0
  3  4  1  0
  4  5  1  0
  5  6  1  0
  6  7  1  0
  7  8  1  0
  7  9  1  0
  2 10  2  0
 10 11  1  0
 11 12  2  3
 12 13  1  0
 13 14  2  0
 14 15  1  0
 15 16  2  0
 16 17  1  0
 16 18  1  0
 18 19  2  0
 19 20  1  0
 11 21  1  0
 21 22  1  0
 22 23  2  0
 23 24  1  0
 24 25  1  0
 24 26  1  0
 26  1  1  0
 19 13  1  0
 26 21  2  0
  1 27  1  0
  3 28  1  0
  4 29  1  0
  4 30  1  0
  5 31  1  0
  5 32  1  0
  7 33  1  0
  8 34  1  0
  8 35  1  0
  8 36  1  0
  9 37  1  0
  9 38  1  0
  9 39  1  0
 14 40  1  0
 15 41  1  0
 18 42  1  0
 20 43  1  0
 20 44  1  0
 20 45  1  0
 22 46  1  0
 25 47  1  0
 25 48  1  0
 25 49  1  0
M  END
>  <ScrubInfo>  (5) 
{"isomerGroup": 0, "isomerId": 4, "confId": 0, "nr_conformers:": 1, "nr_isomers:": 9}

$$$$
_i5
     RDKit          3D

 49 51  0  0  0  0  0  0  0  0999 V2000
   -0.1466   -0.0710   -4.1157 N   0  0  0  0  0  0  0  0  0  0  0  0
    1.1160    0.1083   -3.5589 C   0  0  0  0  0  0  0  0  0  0  0  0
    1.0930    0.1425   -2.2204 C   0  0  0  0  0  0  0  0  0  0  0  0
    2.0376    0.3281   -1.1439 C   0  0  0  0  0  0  0  0  0  0  0  0
    3.3087    0.4694   -1.3581 N   0  0  0  0  0  0  0  0  0  0  0  0
    4.1581    0.6481   -0.2544 C   0  0  0  0  0  0  0  0  0  0  0  0
    4.4341    1.9486    0.1873 C   0  0  0  0  0  0  0  0  0  0  0  0
    5.2886    2.1704    1.2681 C   0  0  0  0  0  0  0  0  0  0  0  0
    5.8793    1.0847    1.9072 C   0  0  0  0  0  0  0  0  0  0  0  0
    7.0320    1.3765    3.3773 Br  0  0  0  0  0  0  0  0  0  0  0  0
    5.6307   -0.2166    1.4706 C   0  0  0  0  0  0  0  0  0  0  0  0
    4.7789   -0.4455    0.3775 C   0  0  0  0  0  0  0  0  0  0  0  0
    4.5128   -1.8511   -0.0812 C   0  0  0  0  0  0  0  0  0  0  0  0
    1.4747    0.3454    0.1049 N   0  0  0  0  0  0  0  0  0  0  0  0
    0.1997    0.1696    0.2998 C   0  0  0  0  0  0  0  0  0  0  0  0
   -0.2172    0.2113    1.5975 N   0  0  0  0  0  0  0  0  0  0  0  0
   -1.5910    0.4382    1.9920 C   0  0  0  0  0  0  0  0  0  0  0  0
   -2.4179   -0.8515    1.9363 C   0  0  0  0  0  0  0  0  0  0  0  0
   -3.7907   -0.5938    2.2512 O   0  0  0  0  0  0  0  0  0  0  0  0
   -4.5748   -0.1930    1.1227 C   0  0  0  0  0  0  0  0  0  0  0  0
   -5.0816   -1.4230    0.3761 C   0  0  0  0  0  0  0  0  0  0  0  0
   -5.7457    0.6235    1.6562 C   0  0  0  0  0  0  0  0  0  0  0  0
   -0.7360   -0.0481   -0.6801 N   0  0  0  0  0  0  0  0  0  0  0  0
   -0.3201   -0.0844   -1.8978 C   0  0  0  0  0  0  0  0  0  0  0  0
   -1.0395   -0.3095   -3.0727 N   0  0  0  0  0  0  0  0  0  0  0  0
   -2.4128    0.1356   -3.2053 C   0  0  0  0  0  0  0  0  0  0  0  0
   -0.1557   -0.7506   -4.8801 H   0  0  0  0  0  0  0  0  0  0  0  0
    1.9796    0.2002   -4.2028 H   0  0  0  0  0  0  0  0  0  0  0  0
    3.9709    2.7921   -0.3170 H   0  0  0  0  0  0  0  0  0  0  0  0
    5.4827    3.1866    1.5984 H   0  0  0  0  0  0  0  0  0  0  0  0
    6.1003   -1.0566    1.9764 H   0  0  0  0  0  0  0  0  0  0  0  0
    3.4923   -2.1471    0.1811 H   0  0  0  0  0  0  0  0  0  0  0  0
    4.6492   -1.9360   -1.1643 H   0  0  0  0  0  0  0  0  0  0  0  0
    5.2024   -2.5612    0.3875 H   0  0  0  0  0  0  0  0  0  0  0  0
    0.4960    0.5678    2.2225 H   0  0  0  0  0  0  0  0  0  0  0  0
   -1.6107    0.8202    3.0199 H   0  0  0  0  0  0  0  0  0  0  0  0
   -2.0416    1.2291    1.3816 H   0  0  0  0  0  0  0  0  0  0  0  0
   -2.0409   -1.5466    2.6952 H   0  0  0  0  0  0  0  0  0  0  0  0
   -2.3291   -1.3644    0.9736 H   0  0  0  0  0  0  0  0  0  0  0  0
   -3.9868    0.4387    0.4468 H   0  0  0  0  0  0  0  0  0  0  0  0
   -5.7412   -1.1399   -0.4501 H   0  0  0  0  0  0  0  0  0  0  0  0
   -4.2515   -2.0048   -0.0364 H   0  0  0  0  0  0  0  0  0  0  0  0
   -5.6288   -2.0915    1.0500 H   0  0  0  0  0  0  0  0  0  0  0  0
   -6.3464    0.0377    2.3610 H   0  0  0  0  0  0  0  0  0  0  0  0
   -6.3935    0.9690    0.8447 H   0  0  0  0  0  0  0  0  0  0  0  0
   -5.3800    1.4976    2.2060 H   0  0  0  0  0  0  0  0  0  0  0  0
   -2.8364   -0.2128   -4.1528 H   0  0  0  0  0  0  0  0  0  0  0  0
   -2.4723    1.2286   -3.1781 H   0  0  0  0  0  0  0  0  0  0  0  0
   -3.0286   -0.2687   -2.3953 H   0  0  0  0  0  0  0  0  0  0  0  0
  1  2  1  0
  2  3  2  0
  3  4  1  0
  4  5  2  3
  5  6  1  0
  6  7  2  0
  7  8  1  0
  8  9  2  0
  9 10  1  0
  9 11  1  0
 11 12  2  0
 12 13  1  0
  4 14  1  0
 14 15  2  0
 15 16  1  0
 16 17  1  0
 17 18  1  0
 18 19  1  0
 19 20  1  0
 20 21  1  0
 20 22  1  0
 15 23  1  0
 23 24  2  0
 24 25  1  0
 25 26  1  0
 25  1  1  0
 24  3  1  0
 12  6  1  0
  1 27  1  0
  2 28  1  0
  7 29  1  0
  8 30  1  0
 11 31  1  0
 13 32  1  0
 13 33  1  0
 13 34  1  0
 16 35  1  0
 17 36  1  0
 17 37  1  0
 18 38  1  0
 18 39  1  0
 20 40  1  0
 21 41  1  0
 21 42  1  0
 21 43  1  0
 22 44  1  0
 22 45  1  0
 22 46  1  0
 26 47  1  0
 26 48  1  0
 26 49  1  0
M  END
>  <ScrubInfo>  (6) 
{"isomerGroup": 0, "isomerId": 5, "confId": 0, "nr_conformers:": 1, "nr_isomers:": 9}

$$$$
_i6
     RDKit          3D

 49 51  0  0  0  0  0  0  0  0999 V2000
   -1.2530   -3.7584   -3.1747 N   0  0  0  0  0  0  0  0  0  0  0  0
   -1.9195   -2.7164   -2.5387 C   0  0  0  0  0  0  0  0  0  0  0  0
   -1.1796   -2.1244   -1.5903 C   0  0  0  0  0  0  0  0  0  0  0  0
   -1.3102   -1.0378   -0.6148 C   0  0  0  0  0  0  0  0  0  0  0  0
   -2.4922   -0.3210   -0.5593 N   0  0  0  0  0  0  0  0  0  0  0  0
   -2.7814    0.8742    0.1331 C   0  0  0  0  0  0  0  0  0  0  0  0
   -1.7724    1.7478    0.5668 C   0  0  0  0  0  0  0  0  0  0  0  0
   -2.0660    2.9139    1.2797 C   0  0  0  0  0  0  0  0  0  0  0  0
   -3.3855    3.2207    1.5791 C   0  0  0  0  0  0  0  0  0  0  0  0
   -3.7916    4.7967    2.5393 Br  0  0  0  0  0  0  0  0  0  0  0  0
   -4.4107    2.3702    1.1755 C   0  0  0  0  0  0  0  0  0  0  0  0
   -4.1220    1.1912    0.4619 C   0  0  0  0  0  0  0  0  0  0  0  0
   -5.2684    0.2957    0.0714 C   0  0  0  0  0  0  0  0  0  0  0  0
   -0.2943   -0.8234    0.1732 N   0  0  0  0  0  0  0  0  0  0  0  0
    0.8275   -1.6218    0.0836 C   0  0  0  0  0  0  0  0  0  0  0  0
    1.7722   -1.4908    0.9441 N   0  0  0  0  0  0  0  0  0  0  0  0
    1.6303   -0.5047    2.0211 C   0  0  0  0  0  0  0  0  0  0  0  0
    2.0929    0.8820    1.5662 C   0  0  0  0  0  0  0  0  0  0  0  0
    3.5228    0.9372    1.5445 O   0  0  0  0  0  0  0  0  0  0  0  0
    4.0359    2.1577    1.0092 C   0  0  0  0  0  0  0  0  0  0  0  0
    5.4442    2.3345    1.5652 C   0  0  0  0  0  0  0  0  0  0  0  0
    4.0738    2.0949   -0.5146 C   0  0  0  0  0  0  0  0  0  0  0  0
    1.0717   -2.5880   -0.8618 N   0  0  0  0  0  0  0  0  0  0  0  0
    0.1115   -2.8380   -1.6787 C   0  0  0  0  0  0  0  0  0  0  0  0
    0.0631   -3.7579   -2.7259 N   0  0  0  0  0  0  0  0  0  0  0  0
    0.7914   -5.0105   -2.6486 C   0  0  0  0  0  0  0  0  0  0  0  0
   -1.3770   -3.7706   -4.1900 H   0  0  0  0  0  0  0  0  0  0  0  0
   -2.9247   -2.4779   -2.8526 H   0  0  0  0  0  0  0  0  0  0  0  0
   -3.2639   -0.6668   -1.1117 H   0  0  0  0  0  0  0  0  0  0  0  0
   -0.7311    1.5489    0.3322 H   0  0  0  0  0  0  0  0  0  0  0  0
   -1.2562    3.5684    1.5902 H   0  0  0  0  0  0  0  0  0  0  0  0
   -5.4406    2.6179    1.4233 H   0  0  0  0  0  0  0  0  0  0  0  0
   -6.2169    0.6455    0.4928 H   0  0  0  0  0  0  0  0  0  0  0  0
   -5.3763    0.2742   -1.0177 H   0  0  0  0  0  0  0  0  0  0  0  0
   -5.1033   -0.7204    0.4442 H   0  0  0  0  0  0  0  0  0  0  0  0
    2.2499   -0.8421    2.8600 H   0  0  0  0  0  0  0  0  0  0  0  0
    0.6009   -0.4609    2.3961 H   0  0  0  0  0  0  0  0  0  0  0  0
    1.6868    1.1240    0.5800 H   0  0  0  0  0  0  0  0  0  0  0  0
    1.7375    1.6288    2.2851 H   0  0  0  0  0  0  0  0  0  0  0  0
    3.4205    3.0034    1.3394 H   0  0  0  0  0  0  0  0  0  0  0  0
    5.9025    3.2600    1.2036 H   0  0  0  0  0  0  0  0  0  0  0  0
    6.0865    1.4915    1.2869 H   0  0  0  0  0  0  0  0  0  0  0  0
    5.4200    2.3627    2.6601 H   0  0  0  0  0  0  0  0  0  0  0  0
    3.0659    2.0164   -0.9334 H   0  0  0  0  0  0  0  0  0  0  0  0
    4.5454    2.9883   -0.9357 H   0  0  0  0  0  0  0  0  0  0  0  0
    4.6251    1.2116   -0.8556 H   0  0  0  0  0  0  0  0  0  0  0  0
    0.3949   -5.6419   -1.8466 H   0  0  0  0  0  0  0  0  0  0  0  0
    0.7097   -5.5566   -3.5939 H   0  0  0  0  0  0  0  0  0  0  0  0
    1.8539   -4.8278   -2.4590 H   0  0  0  0  0  0  0  0  0  0  0  0
  1  2  1  0
  2  3  2  0
  3  4  1  0
  4  5  1  0
  5  6  1  0
  6  7  2  0
  7  8  1  0
  8  9  2  0
  9 10  1  0
  9 11  1  0
 11 12  2  0
 12 13  1  0
  4 14  2  0
 14 15  1  0
 15 16  2  3
 16 17  1  0
 17 18  1  0
 18 19  1  0
 19 20  1  0
 20 21  1  0
 20 22  1  0
 15 23  1  0
 23 24  2  0
 24 25  1  0
 25 26  1  0
 25  1  1  0
 24  3  1  0
 12  6  1  0
  1 27  1  0
  2 28  1  0
  5 29  1  0
  7 30  1  0
  8 31  1  0
 11 32  1  0
 13 33  1  0
 13 34  1  0
 13 35  1  0
 17 36  1  0
 17 37  1  0
 18 38  1  0
 18 39  1  0
 20 40  1  0
 21 41  1  0
 21 42  1  0
 21 43  1  0
 22 44  1  0
 22 45  1  0
 22 46  1  0
 26 47  1  0
 26 48  1  0
 26 49  1  0
M  END
>  <ScrubInfo>  (7) 
{"isomerGroup": 0, "isomerId": 6, "confId": 0, "nr_conformers:": 1, "nr_isomers:": 9}

$$$$
_i7
     RDKit          3D

 49 51  0  0  0  0  0  0  0  0999 V2000
    0.1953   -2.3899    0.1780 N   0  0  0  0  0  0  0  0  0  0  0  0
    0.8282   -1.1997   -0.1167 C   0  0  0  0  0  0  0  0  0  0  0  0
    2.0992   -1.2239   -0.3414 N   0  0  0  0  0  0  0  0  0  0  0  0
    2.7631    0.0408   -0.6547 C   0  0  0  0  0  0  0  0  0  0  0  0
    4.2418   -0.2228   -0.9497 C   0  0  0  0  0  0  0  0  0  0  0  0
    4.9185    0.9967   -1.2634 O   0  0  0  0  0  0  0  0  0  0  0  0
    5.4407    1.6841   -0.1229 C   0  0  0  0  0  0  0  0  0  0  0  0
    6.8205    1.1357    0.2261 C   0  0  0  0  0  0  0  0  0  0  0  0
    5.5335    3.1603   -0.4902 C   0  0  0  0  0  0  0  0  0  0  0  0
   -0.0267   -0.1142   -0.1265 N   0  0  0  0  0  0  0  0  0  0  0  0
   -1.3859   -0.0258    0.1044 C   0  0  0  0  0  0  0  0  0  0  0  0
   -1.9923    1.1219    0.0424 N   0  0  0  0  0  0  0  0  0  0  0  0
   -3.3645    1.2562    0.2723 C   0  0  0  0  0  0  0  0  0  0  0  0
   -3.8131    1.5145    1.5740 C   0  0  0  0  0  0  0  0  0  0  0  0
   -5.1728    1.6813    1.8401 C   0  0  0  0  0  0  0  0  0  0  0  0
   -6.0895    1.6043    0.7960 C   0  0  0  0  0  0  0  0  0  0  0  0
   -7.9334    1.8232    1.1499 Br  0  0  0  0  0  0  0  0  0  0  0  0
   -5.6583    1.3729   -0.5104 C   0  0  0  0  0  0  0  0  0  0  0  0
   -4.2905    1.2127   -0.7865 C   0  0  0  0  0  0  0  0  0  0  0  0
   -3.8370    0.9720   -2.1989 C   0  0  0  0  0  0  0  0  0  0  0  0
   -1.9560   -1.3292    0.3989 C   0  0  0  0  0  0  0  0  0  0  0  0
   -3.2244   -1.8635    0.6918 C   0  0  0  0  0  0  0  0  0  0  0  0
   -3.1999   -3.1912    0.8829 N   0  0  0  0  0  0  0  0  0  0  0  0
   -1.8993   -3.5171    0.7168 N   0  0  0  0  0  0  0  0  0  0  0  0
   -1.4969   -4.8949    0.8460 C   0  0  0  0  0  0  0  0  0  0  0  0
   -1.1316   -2.4335    0.4206 C   0  0  0  0  0  0  0  0  0  0  0  0
    0.8066   -3.1980    0.1822 H   0  0  0  0  0  0  0  0  0  0  0  0
    2.6727    0.7400    0.1845 H   0  0  0  0  0  0  0  0  0  0  0  0
    2.3099    0.5193   -1.5317 H   0  0  0  0  0  0  0  0  0  0  0  0
    4.3223   -0.8714   -1.8293 H   0  0  0  0  0  0  0  0  0  0  0  0
    4.7269   -0.7491   -0.1200 H   0  0  0  0  0  0  0  0  0  0  0  0
    4.7661    1.5784    0.7346 H   0  0  0  0  0  0  0  0  0  0  0  0
    6.7654    0.0801    0.5097 H   0  0  0  0  0  0  0  0  0  0  0  0
    7.2675    1.6892    1.0578 H   0  0  0  0  0  0  0  0  0  0  0  0
    7.4937    1.1933   -0.6365 H   0  0  0  0  0  0  0  0  0  0  0  0
    5.9271    3.7538    0.3405 H   0  0  0  0  0  0  0  0  0  0  0  0
    4.5444    3.5480   -0.7574 H   0  0  0  0  0  0  0  0  0  0  0  0
    6.1762    3.3095   -1.3650 H   0  0  0  0  0  0  0  0  0  0  0  0
    0.3808    0.7826   -0.3397 H   0  0  0  0  0  0  0  0  0  0  0  0
   -3.0934    1.5843    2.3858 H   0  0  0  0  0  0  0  0  0  0  0  0
   -5.5013    1.8727    2.8579 H   0  0  0  0  0  0  0  0  0  0  0  0
   -6.3843    1.3235   -1.3187 H   0  0  0  0  0  0  0  0  0  0  0  0
   -3.0306    1.6622   -2.4672 H   0  0  0  0  0  0  0  0  0  0  0  0
   -4.6517    1.1329   -2.9129 H   0  0  0  0  0  0  0  0  0  0  0  0
   -3.4868   -0.0586   -2.3130 H   0  0  0  0  0  0  0  0  0  0  0  0
   -4.1782   -1.3613    0.7757 H   0  0  0  0  0  0  0  0  0  0  0  0
   -1.6861   -5.3950   -0.1068 H   0  0  0  0  0  0  0  0  0  0  0  0
   -2.0808   -5.3615    1.6439 H   0  0  0  0  0  0  0  0  0  0  0  0
   -0.4354   -4.9454    1.0981 H   0  0  0  0  0  0  0  0  0  0  0  0
  1  2  1  0
  2  3  2  3
  3  4  1  0
  4  5  1  0
  5  6  1  0
  6  7  1  0
  7  8  1  0
  7  9  1  0
  2 10  1  0
 10 11  1  0
 11 12  2  3
 12 13  1  0
 13 14  2  0
 14 15  1  0
 15 16  2  0
 16 17  1  0
 16 18  1  0
 18 19  2  0
 19 20  1  0
 11 21  1  0
 21 22  1  0
 22 23  2  0
 23 24  1  0
 24 25  1  0
 24 26  1  0
 26  1  1  0
 19 13  1  0
 26 21  2  0
  1 27  1  0
  4 28  1  0
  4 29  1  0
  5 30  1  0
  5 31  1  0
  7 32  1  0
  8 33  1  0
  8 34  1  0
  8 35  1  0
  9 36  1  0
  9 37  1  0
  9 38  1  0
 10 39  1  0
 14 40  1  0
 15 41  1  0
 18 42  1  0
 20 43  1  0
 20 44  1  0
 20 45  1  0
 22 46  1  0
 25 47  1  0
 25 48  1  0
 25 49  1  0
M  END
>  <ScrubInfo>  (8) 
{"isomerGroup": 0, "isomerId": 7, "confId": 0, "nr_conformers:": 1, "nr_isomers:": 9}

$$$$
_i8
     RDKit          3D

 49 51  0  0  0  0  0  0  0  0999 V2000
   -0.1850   -3.9641   -1.5882 N   0  0  0  0  0  0  0  0  0  0  0  0
    1.0892   -3.4358   -1.4099 C   0  0  0  0  0  0  0  0  0  0  0  0
    1.0963   -2.3431   -0.6374 C   0  0  0  0  0  0  0  0  0  0  0  0
    2.0674   -1.3652   -0.1413 C   0  0  0  0  0  0  0  0  0  0  0  0
    3.3251   -1.5101   -0.4357 N   0  0  0  0  0  0  0  0  0  0  0  0
    4.2410   -0.5626    0.0446 C   0  0  0  0  0  0  0  0  0  0  0  0
    4.8330   -0.7631    1.2976 C   0  0  0  0  0  0  0  0  0  0  0  0
    5.7426    0.1612    1.8126 C   0  0  0  0  0  0  0  0  0  0  0  0
    6.0694    1.2894    1.0662 C   0  0  0  0  0  0  0  0  0  0  0  0
    7.2969    2.5487    1.7596 Br  0  0  0  0  0  0  0  0  0  0  0  0
    5.5018    1.4962   -0.1912 C   0  0  0  0  0  0  0  0  0  0  0  0
    4.5923    0.5654   -0.7188 C   0  0  0  0  0  0  0  0  0  0  0  0
    3.9905    0.7948   -2.0767 C   0  0  0  0  0  0  0  0  0  0  0  0
    1.4720   -0.3752    0.5993 N   0  0  0  0  0  0  0  0  0  0  0  0
    0.1376   -0.2575    0.8844 C   0  0  0  0  0  0  0  0  0  0  0  0
   -0.2508    0.7705    1.5651 N   0  0  0  0  0  0  0  0  0  0  0  0
   -1.6770    0.8869    1.8919 C   0  0  0  0  0  0  0  0  0  0  0  0
   -2.4524    1.5468    0.7522 C   0  0  0  0  0  0  0  0  0  0  0  0
   -3.8193    1.6997    1.1437 O   0  0  0  0  0  0  0  0  0  0  0  0
   -4.6253    2.3407    0.1519 C   0  0  0  0  0  0  0  0  0  0  0  0
   -5.0371    1.3487   -0.9315 C   0  0  0  0  0  0  0  0  0  0  0  0
   -5.8585    2.8855    0.8639 C   0  0  0  0  0  0  0  0  0  0  0  0
   -0.7818   -1.1940    0.4590 N   0  0  0  0  0  0  0  0  0  0  0  0
   -0.3387   -2.1890   -0.2438 C   0  0  0  0  0  0  0  0  0  0  0  0
   -1.0645   -3.2620   -0.7665 N   0  0  0  0  0  0  0  0  0  0  0  0
   -2.4451   -3.1010   -1.1803 C   0  0  0  0  0  0  0  0  0  0  0  0
   -0.2138   -4.9834   -1.5098 H   0  0  0  0  0  0  0  0  0  0  0  0
    1.9385   -3.9132   -1.8782 H   0  0  0  0  0  0  0  0  0  0  0  0
    4.5815   -1.6502    1.8739 H   0  0  0  0  0  0  0  0  0  0  0  0
    6.1891   -0.0108    2.7882 H   0  0  0  0  0  0  0  0  0  0  0  0
    5.7715    2.3783   -0.7676 H   0  0  0  0  0  0  0  0  0  0  0  0
    4.0922   -0.1001   -2.6992 H   0  0  0  0  0  0  0  0  0  0  0  0
    2.9312    1.0533   -1.9814 H   0  0  0  0  0  0  0  0  0  0  0  0
    4.4924    1.6138   -2.6029 H   0  0  0  0  0  0  0  0  0  0  0  0
    2.0448    0.3657    0.9745 H   0  0  0  0  0  0  0  0  0  0  0  0
   -2.1303   -0.0718    2.1741 H   0  0  0  0  0  0  0  0  0  0  0  0
   -1.7692    1.5088    2.7909 H   0  0  0  0  0  0  0  0  0  0  0  0
   -2.3882    0.9361   -0.1533 H   0  0  0  0  0  0  0  0  0  0  0  0
   -2.0224    2.5318    0.5351 H   0  0  0  0  0  0  0  0  0  0  0  0
   -4.0786    3.1818   -0.2913 H   0  0  0  0  0  0  0  0  0  0  0  0
   -5.5044    0.4608   -0.4917 H   0  0  0  0  0  0  0  0  0  0  0  0
   -5.7390    1.8030   -1.6380 H   0  0  0  0  0  0  0  0  0  0  0  0
   -4.1692    0.9995   -1.4992 H   0  0  0  0  0  0  0  0  0  0  0  0
   -6.4194    2.0805    1.3518 H   0  0  0  0  0  0  0  0  0  0  0  0
   -6.5237    3.4057    0.1680 H   0  0  0  0  0  0  0  0  0  0  0  0
   -5.5639    3.5860    1.6530 H   0  0  0  0  0  0  0  0  0  0  0  0
   -2.8712   -4.0671   -1.4695 H   0  0  0  0  0  0  0  0  0  0  0  0
   -2.5179   -2.4188   -2.0338 H   0  0  0  0  0  0  0  0  0  0  0  0
   -3.0497   -2.7012   -0.3599 H   0  0  0  0  0  0  0  0  0  0  0  0
  1  2  1  0
  2  3  2  0
  3  4  1  0
  4  5  2  3
  5  6  1  0
  6  7  2  0
  7  8  1  0
  8  9  2  0
  9 10  1  0
  9 11  1  0
 11 12  2  0
 12 13  1  0
  4 14  1  0
 14 15  1  0
 15 16  2  3
 16 17  1  0
 17 18  1  0
 18 19  1  0
 19 20  1  0
 20 21  1  0
 20 22  1  0
 15 23  1  0
 23 24  2  0
 24 25  1  0
 25 26  1  0
 25  1  1  0
 24  3  1  0
 12  6  1  0
  1 27  1  0
  2 28  1  0
  7 29  1  0
  8 30  1  0
 11 31  1  0
 13 32  1  0
 13 33  1  0
 13 34  1  0
 14 35  1  0
 17 36  1  0
 17 37  1  0
 18 38  1  0
 18 39  1  0
 20 40  1  0
 21 41  1  0
 21 42  1  0
 21 43  1  0
 22 44  1  0
 22 45  1  0
 22 46  1  0
 26 47  1  0
 26 48  1  0
 26 49  1  0
M  END
>  <ScrubInfo>  (9) 
{"isomerGroup": 0, "isomerId": 8, "confId": 0, "nr_conformers:": 1, "nr_isomers:": 9}

$$$$
