REMARK SMILES CC(C)CCNc1nc(Nc2ccccc2)c2cnn(C)c2n1
REMARK SMILES IDX 5 1 4 2 2 3 1 4 3 5 6 6 7 8 8 9 23 10 9 11 22 12 17 13 20 14
REMARK SMILES IDX 18 15 19 16 21 17 10 18 11 20 12 21 16 22 13 23 15 24 14 25
REMARK H PARENT 6 7 10 19
ROOT
ATOM      1  C   UNL     1       1.820  -0.898  -0.429  1.00  0.00     0.116 C 
ENDROOT
BRANCH   1   2
ATOM      2  C   UNL     1       3.202  -1.456  -0.070  1.00  0.00     0.024 C 
BRANCH   2   3
ATOM      3  C   UNL     1       3.404  -1.766   1.428  1.00  0.00    -0.016 C 
ATOM      4  C   UNL     1       4.761  -2.447   1.632  1.00  0.00     0.007 C 
ATOM      5  C   UNL     1       3.314  -0.528   2.320  1.00  0.00     0.007 C 
ENDBRANCH   2   3
ENDBRANCH   1   2
BRANCH   1   6
ATOM      6  N   UNL     1       1.770   0.533  -0.181  1.00  0.00    -0.354 N 
ATOM      7  H   UNL     1       2.499   1.077  -0.629  1.00  0.00     0.163 HD
BRANCH   6   8
ATOM      8  C   UNL     1       0.570   1.139  -0.539  1.00  0.00     0.226 A 
ATOM      9  N   UNL     1      -0.585   0.465  -0.395  1.00  0.00    -0.195 NA
ATOM     10  N   UNL     1       0.691   2.385  -1.014  1.00  0.00    -0.193 NA
ATOM     11  C   UNL     1      -1.776   1.030  -0.726  1.00  0.00     0.147 A 
ATOM     12  C   UNL     1      -0.489   2.930  -1.341  1.00  0.00     0.165 A 
ATOM     13  C   UNL     1      -1.731   2.335  -1.233  1.00  0.00     0.082 A 
ATOM     14  N   UNL     1      -0.713   4.182  -1.846  1.00  0.00    -0.250 N 
ATOM     15  C   UNL     1      -2.630   3.314  -1.706  1.00  0.00     0.149 A 
ATOM     16  N   UNL     1      -2.020   4.442  -2.087  1.00  0.00    -0.179 NA
ATOM     17  C   UNL     1       0.275   5.192  -2.130  1.00  0.00     0.176 C 
BRANCH  11  18
ATOM     18  N   UNL     1      -2.988   0.335  -0.601  1.00  0.00    -0.339 N 
ATOM     19  H   UNL     1      -3.789   0.844  -0.946  1.00  0.00     0.168 HD
BRANCH  18  20
ATOM     20  C   UNL     1      -3.311  -0.898  -0.007  1.00  0.00     0.040 A 
ATOM     21  C   UNL     1      -4.585  -1.442  -0.245  1.00  0.00     0.026 A 
ATOM     22  C   UNL     1      -2.422  -1.647   0.770  1.00  0.00     0.026 A 
ATOM     23  C   UNL     1      -4.960  -2.679   0.290  1.00  0.00     0.002 A 
ATOM     24  C   UNL     1      -2.793  -2.885   1.309  1.00  0.00     0.002 A 
ATOM     25  C   UNL     1      -4.062  -3.400   1.069  1.00  0.00     0.000 A 
ENDBRANCH  18  20
ENDBRANCH  11  18
ENDBRANCH   6   8
ENDBRANCH   1   6
TORSDOF 6
