_i0
     RDKit          3D

 45 47  0  0  0  0  0  0  0  0999 V2000
    4.7608   -2.4472    1.6319 C   0  0  0  0  0  0  0  0  0  0  0  0
    3.4043   -1.7658    1.4277 C   0  0  0  0  0  0  0  0  0  0  0  0
    3.3142   -0.5279    2.3195 C   0  0  0  0  0  0  0  0  0  0  0  0
    3.2023   -1.4558   -0.0702 C   0  0  0  0  0  0  0  0  0  0  0  0
    1.8196   -0.8981   -0.4286 C   0  0  0  0  0  0  0  0  0  0  0  0
    1.7697    0.5326   -0.1813 N   0  0  0  0  0  0  0  0  0  0  0  0
    0.5701    1.1394   -0.5386 C   0  0  0  0  0  0  0  0  0  0  0  0
   -0.5853    0.4647   -0.3945 N   0  0  0  0  0  0  0  0  0  0  0  0
   -1.7757    1.0297   -0.7261 C   0  0  0  0  0  0  0  0  0  0  0  0
   -2.9879    0.3347   -0.6006 N   0  0  0  0  0  0  0  0  0  0  0  0
   -3.3109   -0.8983   -0.0069 C   0  0  0  0  0  0  0  0  0  0  0  0
   -4.5848   -1.4425   -0.2446 C   0  0  0  0  0  0  0  0  0  0  0  0
   -4.9604   -2.6790    0.2897 C   0  0  0  0  0  0  0  0  0  0  0  0
   -4.0624   -3.4003    1.0690 C   0  0  0  0  0  0  0  0  0  0  0  0
   -2.7926   -2.8845    1.3086 C   0  0  0  0  0  0  0  0  0  0  0  0
   -2.4217   -1.6470    0.7701 C   0  0  0  0  0  0  0  0  0  0  0  0
   -1.7309    2.3347   -1.2330 C   0  0  0  0  0  0  0  0  0  0  0  0
   -2.6296    3.3142   -1.7055 C   0  0  0  0  0  0  0  0  0  0  0  0
   -2.0198    4.4420   -2.0868 N   0  0  0  0  0  0  0  0  0  0  0  0
   -0.7131    4.1819   -1.8462 N   0  0  0  0  0  0  0  0  0  0  0  0
    0.2749    5.1920   -2.1300 C   0  0  0  0  0  0  0  0  0  0  0  0
   -0.4895    2.9303   -1.3408 C   0  0  0  0  0  0  0  0  0  0  0  0
    0.6907    2.3847   -1.0139 N   0  0  0  0  0  0  0  0  0  0  0  0
    4.8305   -3.3637    1.0365 H   0  0  0  0  0  0  0  0  0  0  0  0
    4.9046   -2.7227    2.6822 H   0  0  0  0  0  0  0  0  0  0  0  0
    5.5847   -1.7878    1.3383 H   0  0  0  0  0  0  0  0  0  0  0  0
    2.6265   -2.4717    1.7459 H   0  0  0  0  0  0  0  0  0  0  0  0
    3.9984    0.2574    1.9811 H   0  0  0  0  0  0  0  0  0  0  0  0
    2.2989   -0.1211    2.3332 H   0  0  0  0  0  0  0  0  0  0  0  0
    3.5714   -0.7752    3.3554 H   0  0  0  0  0  0  0  0  0  0  0  0
    3.3287   -2.3951   -0.6248 H   0  0  0  0  0  0  0  0  0  0  0  0
    3.9898   -0.7779   -0.4239 H   0  0  0  0  0  0  0  0  0  0  0  0
    1.6400   -1.0868   -1.4949 H   0  0  0  0  0  0  0  0  0  0  0  0
    1.0524   -1.4345    0.1424 H   0  0  0  0  0  0  0  0  0  0  0  0
    2.4987    1.0771   -0.6289 H   0  0  0  0  0  0  0  0  0  0  0  0
   -3.7890    0.8435   -0.9456 H   0  0  0  0  0  0  0  0  0  0  0  0
   -5.3036   -0.9071   -0.8596 H   0  0  0  0  0  0  0  0  0  0  0  0
   -5.9520   -3.0775    0.0927 H   0  0  0  0  0  0  0  0  0  0  0  0
   -4.3486   -4.3615    1.4868 H   0  0  0  0  0  0  0  0  0  0  0  0
   -2.0835   -3.4402    1.9164 H   0  0  0  0  0  0  0  0  0  0  0  0
   -1.4259   -1.2752    0.9906 H   0  0  0  0  0  0  0  0  0  0  0  0
   -3.7067    3.2563   -1.7891 H   0  0  0  0  0  0  0  0  0  0  0  0
    1.2703    4.8277   -1.8664 H   0  0  0  0  0  0  0  0  0  0  0  0
    0.2348    5.4212   -3.1979 H   0  0  0  0  0  0  0  0  0  0  0  0
    0.0378    6.0805   -1.5393 H   0  0  0  0  0  0  0  0  0  0  0  0
  1  2  1  0
  2  3  1  0
  2  4  1  0
  4  5  1  0
  5  6  1  0
  6  7  1  0
  7  8  2  0
  8  9  1  0
  9 10  1  0
 10 11  1  0
 11 12  2  0
 12 13  1  0
 13 14  2  0
 14 15  1  0
 15 16  2  0
  9 17  2  0
 17 18  1  0
 18 19  2  0
 19 20  1  0
 20 21  1  0
 20 22  1  0
 22 23  2  0
 23  7  1  0
 16 11  1  0
 22 17  1  0
  1 24  1  0
  1 25  1  0
  1 26  1  0
  2 27  1  0
  3 28  1  0
  3 29  1  0
  3 30  1  0
  4 31  1  0
  4 32  1  0
  5 33  1  0
  5 34  1  0
  6 35  1  0
 10 36  1  0
 12 37  1  0
 13 38  1  0
 14 39  1  0
 15 40  1  0
 16 41  1  0
 18 42  1  0
 21 43  1  0
 21 44  1  0
 21 45  1  0
M  END
>  <ScrubInfo>  (1) 
{"isomerGroup": 0, "isomerId": 0, "confId": 0, "nr_conformers:": 1, "nr_isomers:": 9}

$$$$
_i1
     RDKit          3D

 45 47  0  0  0  0  0  0  0  0999 V2000
   -0.8283   -0.1393   -0.3401 N   0  0  0  0  0  0  0  0  0  0  0  0
   -1.9510   -0.1778    0.4651 C   0  0  0  0  0  0  0  0  0  0  0  0
   -3.0662    0.6059    0.2328 N   0  0  0  0  0  0  0  0  0  0  0  0
   -3.5768    1.0747   -0.9943 C   0  0  0  0  0  0  0  0  0  0  0  0
   -4.4535    2.1706   -0.9750 C   0  0  0  0  0  0  0  0  0  0  0  0
   -4.9593    2.7134   -2.1595 C   0  0  0  0  0  0  0  0  0  0  0  0
   -4.5895    2.1707   -3.3862 C   0  0  0  0  0  0  0  0  0  0  0  0
   -3.7156    1.0881   -3.4262 C   0  0  0  0  0  0  0  0  0  0  0  0
   -3.2101    0.5485   -2.2389 C   0  0  0  0  0  0  0  0  0  0  0  0
   -1.8475   -0.9874    1.5266 C   0  0  0  0  0  0  0  0  0  0  0  0
   -2.6625   -1.3824    2.6805 C   0  0  0  0  0  0  0  0  0  0  0  0
   -2.0656   -2.2461    3.4619 N   0  0  0  0  0  0  0  0  0  0  0  0
   -0.8334   -2.5174    2.8446 N   0  0  0  0  0  0  0  0  0  0  0  0
    0.1950   -3.1883    3.6028 C   0  0  0  0  0  0  0  0  0  0  0  0
   -0.5979   -1.7605    1.7077 C   0  0  0  0  0  0  0  0  0  0  0  0
    0.4463   -1.6905    0.9545 N   0  0  0  0  0  0  0  0  0  0  0  0
    0.3411   -0.8123   -0.1009 C   0  0  0  0  0  0  0  0  0  0  0  0
    1.3482   -0.5912   -0.8778 N   0  0  0  0  0  0  0  0  0  0  0  0
    2.6007   -1.3062   -0.6339 C   0  0  0  0  0  0  0  0  0  0  0  0
    3.4887   -0.5351    0.3460 C   0  0  0  0  0  0  0  0  0  0  0  0
    3.8458    0.9008   -0.0874 C   0  0  0  0  0  0  0  0  0  0  0  0
    4.6198    0.9382   -1.4056 C   0  0  0  0  0  0  0  0  0  0  0  0
    4.6646    1.5829    1.0120 C   0  0  0  0  0  0  0  0  0  0  0  0
   -0.7920    0.5808   -1.0471 H   0  0  0  0  0  0  0  0  0  0  0  0
   -3.7502    0.6434    0.9810 H   0  0  0  0  0  0  0  0  0  0  0  0
   -4.7411    2.6251   -0.0300 H   0  0  0  0  0  0  0  0  0  0  0  0
   -5.6355    3.5635   -2.1226 H   0  0  0  0  0  0  0  0  0  0  0  0
   -4.9802    2.5904   -4.3096 H   0  0  0  0  0  0  0  0  0  0  0  0
   -3.4270    0.6570   -4.3817 H   0  0  0  0  0  0  0  0  0  0  0  0
   -2.5541   -0.3150   -2.3101 H   0  0  0  0  0  0  0  0  0  0  0  0
   -3.6609   -0.9576    2.8436 H   0  0  0  0  0  0  0  0  0  0  0  0
    0.7470   -2.4689    4.2155 H   0  0  0  0  0  0  0  0  0  0  0  0
    0.9019   -3.6953    2.9383 H   0  0  0  0  0  0  0  0  0  0  0  0
   -0.2416   -3.9438    4.2641 H   0  0  0  0  0  0  0  0  0  0  0  0
    2.4358   -2.3272   -0.2685 H   0  0  0  0  0  0  0  0  0  0  0  0
    3.1154   -1.4303   -1.5928 H   0  0  0  0  0  0  0  0  0  0  0  0
    4.4118   -1.1089    0.4988 H   0  0  0  0  0  0  0  0  0  0  0  0
    2.9870   -0.4928    1.3211 H   0  0  0  0  0  0  0  0  0  0  0  0
    2.9215    1.4774   -0.2158 H   0  0  0  0  0  0  0  0  0  0  0  0
    4.9226    1.9625   -1.6490 H   0  0  0  0  0  0  0  0  0  0  0  0
    4.0078    0.5767   -2.2374 H   0  0  0  0  0  0  0  0  0  0  0  0
    5.5240    0.3226   -1.3529 H   0  0  0  0  0  0  0  0  0  0  0  0
    4.8946    2.6187    0.7403 H   0  0  0  0  0  0  0  0  0  0  0  0
    5.6112    1.0599    1.1857 H   0  0  0  0  0  0  0  0  0  0  0  0
    4.1091    1.6025    1.9556 H   0  0  0  0  0  0  0  0  0  0  0  0
  1  2  1  0
  2  3  1  0
  3  4  1  0
  4  5  2  0
  5  6  1  0
  6  7  2  0
  7  8  1  0
  8  9  2  0
  2 10  2  0
 10 11  1  0
 11 12  2  0
 12 13  1  0
 13 14  1  0
 13 15  1  0
 15 16  2  0
 16 17  1  0
 17 18  2  3
 18 19  1  0
 19 20  1  0
 20 21  1  0
 21 22  1  0
 21 23  1  0
 17  1  1  0
  9  4  1  0
 15 10  1  0
  1 24  1  0
  3 25  1  0
  5 26  1  0
  6 27  1  0
  7 28  1  0
  8 29  1  0
  9 30  1  0
 11 31  1  0
 14 32  1  0
 14 33  1  0
 14 34  1  0
 19 35  1  0
 19 36  1  0
 20 37  1  0
 20 38  1  0
 21 39  1  0
 22 40  1  0
 22 41  1  0
 22 42  1  0
 23 43  1  0
 23 44  1  0
 23 45  1  0
M  END
>  <ScrubInfo>  (2) 
{"isomerGroup": 0, "isomerId": 1, "confId": 0, "nr_conformers:": 1, "nr_isomers:": 9}

$$$$
_i2
     RDKit          3D

 45 47  0  0  0  0  0  0  0  0999 V2000
   -0.0087    0.5499    1.0139 N   0  0  0  0  0  0  0  0  0  0  0  0
   -0.6118   -0.5836    1.4951 C   0  0  0  0  0  0  0  0  0  0  0  0
   -1.8820   -0.4452    1.9782 N   0  0  0  0  0  0  0  0  0  0  0  0
   -2.9307    0.3206    1.3196 C   0  0  0  0  0  0  0  0  0  0  0  0
   -3.3569   -0.3544    0.0135 C   0  0  0  0  0  0  0  0  0  0  0  0
   -4.4042    0.4501   -0.7780 C   0  0  0  0  0  0  0  0  0  0  0  0
   -4.6585   -0.2193   -2.1309 C   0  0  0  0  0  0  0  0  0  0  0  0
   -5.7239    0.5972   -0.0193 C   0  0  0  0  0  0  0  0  0  0  0  0
   -0.0405   -1.7617    1.5221 N   0  0  0  0  0  0  0  0  0  0  0  0
    1.2155   -1.7207    0.9930 C   0  0  0  0  0  0  0  0  0  0  0  0
    1.9044   -0.6290    0.4850 C   0  0  0  0  0  0  0  0  0  0  0  0
    3.1389   -1.1597    0.0707 C   0  0  0  0  0  0  0  0  0  0  0  0
    3.2381   -2.4771    0.2918 N   0  0  0  0  0  0  0  0  0  0  0  0
    2.0525   -2.7927    0.8605 N   0  0  0  0  0  0  0  0  0  0  0  0
    1.7964   -4.1575    1.2459 C   0  0  0  0  0  0  0  0  0  0  0  0
    1.2615    0.6707    0.5001 C   0  0  0  0  0  0  0  0  0  0  0  0
    1.7333    1.8197    0.1217 N   0  0  0  0  0  0  0  0  0  0  0  0
    3.0244    1.9563   -0.3907 C   0  0  0  0  0  0  0  0  0  0  0  0
    3.2449    1.8939   -1.7693 C   0  0  0  0  0  0  0  0  0  0  0  0
    4.5310    2.0586   -2.2873 C   0  0  0  0  0  0  0  0  0  0  0  0
    5.6013    2.3035   -1.4276 C   0  0  0  0  0  0  0  0  0  0  0  0
    5.3850    2.3927   -0.0530 C   0  0  0  0  0  0  0  0  0  0  0  0
    4.0978    2.2277    0.4622 C   0  0  0  0  0  0  0  0  0  0  0  0
   -0.4695    1.4293    1.1738 H   0  0  0  0  0  0  0  0  0  0  0  0
   -2.2177   -1.3538    2.2919 H   0  0  0  0  0  0  0  0  0  0  0  0
   -3.7789    0.3765    2.0094 H   0  0  0  0  0  0  0  0  0  0  0  0
   -2.6053    1.3499    1.1360 H   0  0  0  0  0  0  0  0  0  0  0  0
   -2.4727   -0.4983   -0.6211 H   0  0  0  0  0  0  0  0  0  0  0  0
   -3.7429   -1.3590    0.2311 H   0  0  0  0  0  0  0  0  0  0  0  0
   -4.0046    1.4539   -0.9702 H   0  0  0  0  0  0  0  0  0  0  0  0
   -5.3732    0.3608   -2.7243 H   0  0  0  0  0  0  0  0  0  0  0  0
   -3.7312   -0.2947   -2.7086 H   0  0  0  0  0  0  0  0  0  0  0  0
   -5.0632   -1.2294   -2.0050 H   0  0  0  0  0  0  0  0  0  0  0  0
   -6.1331   -0.3800    0.2586 H   0  0  0  0  0  0  0  0  0  0  0  0
   -5.5955    1.1862    0.8937 H   0  0  0  0  0  0  0  0  0  0  0  0
   -6.4695    1.1129   -0.6341 H   0  0  0  0  0  0  0  0  0  0  0  0
    3.9822   -0.6601   -0.3854 H   0  0  0  0  0  0  0  0  0  0  0  0
    0.8286   -4.2328    1.7463 H   0  0  0  0  0  0  0  0  0  0  0  0
    2.5886   -4.4776    1.9276 H   0  0  0  0  0  0  0  0  0  0  0  0
    1.7970   -4.7741    0.3436 H   0  0  0  0  0  0  0  0  0  0  0  0
    2.4098    1.7141   -2.4406 H   0  0  0  0  0  0  0  0  0  0  0  0
    4.6956    2.0003   -3.3599 H   0  0  0  0  0  0  0  0  0  0  0  0
    6.6030    2.4332   -1.8298 H   0  0  0  0  0  0  0  0  0  0  0  0
    6.2160    2.5946    0.6178 H   0  0  0  0  0  0  0  0  0  0  0  0
    3.9288    2.3081    1.5324 H   0  0  0  0  0  0  0  0  0  0  0  0
  1  2  1  0
  2  3  1  0
  3  4  1  0
  4  5  1  0
  5  6  1  0
  6  7  1  0
  6  8  1  0
  2  9  2  0
  9 10  1  0
 10 11  2  0
 11 12  1  0
 12 13  2  0
 13 14  1  0
 14 15  1  0
 11 16  1  0
 16 17  2  3
 17 18  1  0
 18 19  2  0
 19 20  1  0
 20 21  2  0
 21 22  1  0
 22 23  2  0
 16  1  1  0
 23 18  1  0
 14 10  1  0
  1 24  1  0
  3 25  1  0
  4 26  1  0
  4 27  1  0
  5 28  1  0
  5 29  1  0
  6 30  1  0
  7 31  1  0
  7 32  1  0
  7 33  1  0
  8 34  1  0
  8 35  1  0
  8 36  1  0
 12 37  1  0
 15 38  1  0
 15 39  1  0
 15 40  1  0
 19 41  1  0
 20 42  1  0
 21 43  1  0
 22 44  1  0
 23 45  1  0
M  END
>  <ScrubInfo>  (3) 
{"isomerGroup": 0, "isomerId": 2, "confId": 0, "nr_conformers:": 1, "nr_isomers:": 9}

$$$$
_i3
     RDKit          3D

 45 47  0  0  0  0  0  0  0  0999 V2000
    0.5010   -1.7555    0.6245 N   0  0  0  0  0  0  0  0  0  0  0  0
    0.7946   -0.4542    0.2776 C   0  0  0  0  0  0  0  0  0  0  0  0
    2.0012   -0.0323    0.4752 N   0  0  0  0  0  0  0  0  0  0  0  0
    2.2945    1.3497    0.0974 C   0  0  0  0  0  0  0  0  0  0  0  0
    3.7717    1.6418    0.3760 C   0  0  0  0  0  0  0  0  0  0  0  0
    4.7683    0.7717   -0.4160 C   0  0  0  0  0  0  0  0  0  0  0  0
    6.1996    1.1080    0.0114 C   0  0  0  0  0  0  0  0  0  0  0  0
    4.6265    0.9485   -1.9283 C   0  0  0  0  0  0  0  0  0  0  0  0
   -0.1616    0.3916   -0.2677 N   0  0  0  0  0  0  0  0  0  0  0  0
   -1.3760   -0.0537   -0.4407 C   0  0  0  0  0  0  0  0  0  0  0  0
   -2.3747    0.7074   -0.9931 N   0  0  0  0  0  0  0  0  0  0  0  0
   -3.5858    1.0371   -0.3293 C   0  0  0  0  0  0  0  0  0  0  0  0
   -3.7720    0.8889    1.0510 C   0  0  0  0  0  0  0  0  0  0  0  0
   -4.9799    1.2571    1.6499 C   0  0  0  0  0  0  0  0  0  0  0  0
   -6.0106    1.7883    0.8781 C   0  0  0  0  0  0  0  0  0  0  0  0
   -5.8335    1.9573   -0.4926 C   0  0  0  0  0  0  0  0  0  0  0  0
   -4.6262    1.5892   -1.0904 C   0  0  0  0  0  0  0  0  0  0  0  0
   -1.7168   -1.4221   -0.1202 C   0  0  0  0  0  0  0  0  0  0  0  0
   -2.8339   -2.2663   -0.2115 C   0  0  0  0  0  0  0  0  0  0  0  0
   -2.5777   -3.5025    0.2474 N   0  0  0  0  0  0  0  0  0  0  0  0
   -1.2757   -3.4459    0.6239 N   0  0  0  0  0  0  0  0  0  0  0  0
   -0.6488   -4.6243    1.1653 C   0  0  0  0  0  0  0  0  0  0  0  0
   -0.7392   -2.2173    0.4102 C   0  0  0  0  0  0  0  0  0  0  0  0
    1.2814   -2.2803    0.9956 H   0  0  0  0  0  0  0  0  0  0  0  0
    2.0680    1.5340   -0.9586 H   0  0  0  0  0  0  0  0  0  0  0  0
    1.6920    2.0403    0.7006 H   0  0  0  0  0  0  0  0  0  0  0  0
    3.9619    2.7011    0.1606 H   0  0  0  0  0  0  0  0  0  0  0  0
    3.9575    1.5030    1.4493 H   0  0  0  0  0  0  0  0  0  0  0  0
    4.5918   -0.2843   -0.1770 H   0  0  0  0  0  0  0  0  0  0  0  0
    6.9217    0.4711   -0.5106 H   0  0  0  0  0  0  0  0  0  0  0  0
    6.4462    2.1520   -0.2103 H   0  0  0  0  0  0  0  0  0  0  0  0
    6.3324    0.9486    1.0868 H   0  0  0  0  0  0  0  0  0  0  0  0
    5.3968    0.3791   -2.4598 H   0  0  0  0  0  0  0  0  0  0  0  0
    3.6566    0.5865   -2.2824 H   0  0  0  0  0  0  0  0  0  0  0  0
    4.7256    2.0005   -2.2162 H   0  0  0  0  0  0  0  0  0  0  0  0
   -1.9748    1.5775   -1.3390 H   0  0  0  0  0  0  0  0  0  0  0  0
   -2.9813    0.4966    1.6858 H   0  0  0  0  0  0  0  0  0  0  0  0
   -5.1127    1.1319    2.7217 H   0  0  0  0  0  0  0  0  0  0  0  0
   -6.9495    2.0735    1.3458 H   0  0  0  0  0  0  0  0  0  0  0  0
   -6.6346    2.3742   -1.0975 H   0  0  0  0  0  0  0  0  0  0  0  0
   -4.5059    1.7224   -2.1632 H   0  0  0  0  0  0  0  0  0  0  0  0
   -3.8237   -2.0424   -0.5883 H   0  0  0  0  0  0  0  0  0  0  0  0
   -0.6564   -5.4015    0.3970 H   0  0  0  0  0  0  0  0  0  0  0  0
    0.3795   -4.3994    1.4557 H   0  0  0  0  0  0  0  0  0  0  0  0
   -1.2177   -4.9465    2.0411 H   0  0  0  0  0  0  0  0  0  0  0  0
  1  2  1  0
  2  3  2  3
  3  4  1  0
  4  5  1  0
  5  6  1  0
  6  7  1  0
  6  8  1  0
  2  9  1  0
  9 10  2  0
 10 11  1  0
 11 12  1  0
 12 13  2  0
 13 14  1  0
 14 15  2  0
 15 16  1  0
 16 17  2  0
 10 18  1  0
 18 19  1  0
 19 20  2  0
 20 21  1  0
 21 22  1  0
 21 23  1  0
 23  1  1  0
 17 12  1  0
 23 18  2  0
  1 24  1  0
  4 25  1  0
  4 26  1  0
  5 27  1  0
  5 28  1  0
  6 29  1  0
  7 30  1  0
  7 31  1  0
  7 32  1  0
  8 33  1  0
  8 34  1  0
  8 35  1  0
 11 36  1  0
 13 37  1  0
 14 38  1  0
 15 39  1  0
 16 40  1  0
 17 41  1  0
 19 42  1  0
 22 43  1  0
 22 44  1  0
 22 45  1  0
M  END
>  <ScrubInfo>  (4) 
{"isomerGroup": 0, "isomerId": 3, "confId": 0, "nr_conformers:": 1, "nr_isomers:": 9}

$$$$
_i4
     RDKit          3D

 45 47  0  0  0  0  0  0  0  0999 V2000
   -2.4957   -0.0881    2.7459 N   0  0  0  0  0  0  0  0  0  0  0  0
   -2.8325   -0.0289    1.3973 C   0  0  0  0  0  0  0  0  0  0  0  0
   -1.7738   -0.1091    0.5764 C   0  0  0  0  0  0  0  0  0  0  0  0
   -1.4828   -0.1389   -0.8515 C   0  0  0  0  0  0  0  0  0  0  0  0
   -2.2652   -0.0272   -1.8732 N   0  0  0  0  0  0  0  0  0  0  0  0
   -3.6367    0.1691   -1.7022 C   0  0  0  0  0  0  0  0  0  0  0  0
   -4.5071   -0.9238   -1.6745 C   0  0  0  0  0  0  0  0  0  0  0  0
   -5.8810   -0.7294   -1.5193 C   0  0  0  0  0  0  0  0  0  0  0  0
   -6.3927    0.5631   -1.4069 C   0  0  0  0  0  0  0  0  0  0  0  0
   -5.5332    1.6601   -1.4597 C   0  0  0  0  0  0  0  0  0  0  0  0
   -4.1599    1.4622   -1.6148 C   0  0  0  0  0  0  0  0  0  0  0  0
   -0.1569   -0.3228   -1.1433 N   0  0  0  0  0  0  0  0  0  0  0  0
    0.7686   -0.4137   -0.2347 C   0  0  0  0  0  0  0  0  0  0  0  0
    2.0401   -0.5918   -0.6951 N   0  0  0  0  0  0  0  0  0  0  0  0
    3.0969   -1.1675    0.1034 C   0  0  0  0  0  0  0  0  0  0  0  0
    4.4394   -1.1106   -0.6318 C   0  0  0  0  0  0  0  0  0  0  0  0
    5.1335    0.2653   -0.7192 C   0  0  0  0  0  0  0  0  0  0  0  0
    5.4516    0.8492    0.6577 C   0  0  0  0  0  0  0  0  0  0  0  0
    4.3639    1.2807   -1.5625 C   0  0  0  0  0  0  0  0  0  0  0  0
    0.5644   -0.3467    1.1171 N   0  0  0  0  0  0  0  0  0  0  0  0
   -0.6454   -0.1819    1.5234 C   0  0  0  0  0  0  0  0  0  0  0  0
   -1.1116   -0.0639    2.8337 N   0  0  0  0  0  0  0  0  0  0  0  0
   -0.4600   -0.7623    3.9244 C   0  0  0  0  0  0  0  0  0  0  0  0
   -2.9951    0.5992    3.3153 H   0  0  0  0  0  0  0  0  0  0  0  0
   -3.8754    0.0735    1.1355 H   0  0  0  0  0  0  0  0  0  0  0  0
   -4.1086   -1.9293   -1.7801 H   0  0  0  0  0  0  0  0  0  0  0  0
   -6.5504   -1.5853   -1.4981 H   0  0  0  0  0  0  0  0  0  0  0  0
   -7.4632    0.7160   -1.2950 H   0  0  0  0  0  0  0  0  0  0  0  0
   -5.9314    2.6691   -1.3932 H   0  0  0  0  0  0  0  0  0  0  0  0
   -3.4907    2.3164   -1.6756 H   0  0  0  0  0  0  0  0  0  0  0  0
    2.0442   -0.8222   -1.6818 H   0  0  0  0  0  0  0  0  0  0  0  0
    3.1717   -0.6731    1.0769 H   0  0  0  0  0  0  0  0  0  0  0  0
    2.8518   -2.2190    0.2951 H   0  0  0  0  0  0  0  0  0  0  0  0
    5.1267   -1.7947   -0.1162 H   0  0  0  0  0  0  0  0  0  0  0  0
    4.3188   -1.5120   -1.6465 H   0  0  0  0  0  0  0  0  0  0  0  0
    6.0933    0.0932   -1.2253 H   0  0  0  0  0  0  0  0  0  0  0  0
    6.0821    1.7397    0.5593 H   0  0  0  0  0  0  0  0  0  0  0  0
    5.9937    0.1244    1.2739 H   0  0  0  0  0  0  0  0  0  0  0  0
    4.5449    1.1463    1.1941 H   0  0  0  0  0  0  0  0  0  0  0  0
    3.4544    1.6243   -1.0605 H   0  0  0  0  0  0  0  0  0  0  0  0
    4.9831    2.1646   -1.7520 H   0  0  0  0  0  0  0  0  0  0  0  0
    4.0873    0.8560   -2.5329 H   0  0  0  0  0  0  0  0  0  0  0  0
    0.6037   -0.5067    3.9651 H   0  0  0  0  0  0  0  0  0  0  0  0
   -0.9086   -0.4769    4.8815 H   0  0  0  0  0  0  0  0  0  0  0  0
   -0.5557   -1.8465    3.8048 H   0  0  0  0  0  0  0  0  0  0  0  0
  1  2  1  0
  2  3  2  0
  3  4  1  0
  4  5  2  3
  5  6  1  0
  6  7  2  0
  7  8  1  0
  8  9  2  0
  9 10  1  0
 10 11  2  0
  4 12  1  0
 12 13  2  0
 13 14  1  0
 14 15  1  0
 15 16  1  0
 16 17  1  0
 17 18  1  0
 17 19  1  0
 13 20  1  0
 20 21  2  0
 21 22  1  0
 22 23  1  0
 22  1  1  0
 21  3  1  0
 11  6  1  0
  1 24  1  0
  2 25  1  0
  7 26  1  0
  8 27  1  0
  9 28  1  0
 10 29  1  0
 11 30  1  0
 14 31  1  0
 15 32  1  0
 15 33  1  0
 16 34  1  0
 16 35  1  0
 17 36  1  0
 18 37  1  0
 18 38  1  0
 18 39  1  0
 19 40  1  0
 19 41  1  0
 19 42  1  0
 23 43  1  0
 23 44  1  0
 23 45  1  0
M  END
>  <ScrubInfo>  (5) 
{"isomerGroup": 0, "isomerId": 4, "confId": 0, "nr_conformers:": 1, "nr_isomers:": 9}

$$$$
_i5
     RDKit          3D

 45 47  0  0  0  0  0  0  0  0999 V2000
   -0.1219    2.0445    0.0035 N   0  0  0  0  0  0  0  0  0  0  0  0
    0.5113    0.8234    0.0179 C   0  0  0  0  0  0  0  0  0  0  0  0
    1.8729    0.9631    0.0802 N   0  0  0  0  0  0  0  0  0  0  0  0
    2.7223   -0.2195    0.1866 C   0  0  0  0  0  0  0  0  0  0  0  0
    4.1909    0.1997    0.0913 C   0  0  0  0  0  0  0  0  0  0  0  0
    5.1665   -0.9901    0.0448 C   0  0  0  0  0  0  0  0  0  0  0  0
    6.5917   -0.4841   -0.1910 C   0  0  0  0  0  0  0  0  0  0  0  0
    5.1218   -1.8313    1.3211 C   0  0  0  0  0  0  0  0  0  0  0  0
   -0.0877   -0.3306   -0.0271 N   0  0  0  0  0  0  0  0  0  0  0  0
   -1.4739   -0.3994   -0.0856 C   0  0  0  0  0  0  0  0  0  0  0  0
   -1.9826   -1.5905   -0.0729 N   0  0  0  0  0  0  0  0  0  0  0  0
   -3.3568   -1.8191   -0.1211 C   0  0  0  0  0  0  0  0  0  0  0  0
   -4.1025   -1.8994    1.0584 C   0  0  0  0  0  0  0  0  0  0  0  0
   -5.4744   -2.1550    1.0111 C   0  0  0  0  0  0  0  0  0  0  0  0
   -6.1040   -2.3498   -0.2179 C   0  0  0  0  0  0  0  0  0  0  0  0
   -5.3615   -2.2995   -1.3973 C   0  0  0  0  0  0  0  0  0  0  0  0
   -3.9899   -2.0435   -1.3467 C   0  0  0  0  0  0  0  0  0  0  0  0
   -2.1831    0.8677   -0.1554 C   0  0  0  0  0  0  0  0  0  0  0  0
   -3.5112    1.3143   -0.2824 C   0  0  0  0  0  0  0  0  0  0  0  0
   -3.6103    2.6534   -0.3202 N   0  0  0  0  0  0  0  0  0  0  0  0
   -2.3296    3.0726   -0.2156 N   0  0  0  0  0  0  0  0  0  0  0  0
   -2.0538    4.4865   -0.2193 C   0  0  0  0  0  0  0  0  0  0  0  0
   -1.4612    2.0339   -0.1105 C   0  0  0  0  0  0  0  0  0  0  0  0
    0.4475    2.8558   -0.1940 H   0  0  0  0  0  0  0  0  0  0  0  0
    2.1685    1.7054    0.7024 H   0  0  0  0  0  0  0  0  0  0  0  0
    2.4888   -0.9200   -0.6236 H   0  0  0  0  0  0  0  0  0  0  0  0
    2.5260   -0.7169    1.1422 H   0  0  0  0  0  0  0  0  0  0  0  0
    4.4398    0.8542    0.9371 H   0  0  0  0  0  0  0  0  0  0  0  0
    4.3260    0.8065   -0.8142 H   0  0  0  0  0  0  0  0  0  0  0  0
    4.8951   -1.6347   -0.8008 H   0  0  0  0  0  0  0  0  0  0  0  0
    6.9234    0.1655    0.6262 H   0  0  0  0  0  0  0  0  0  0  0  0
    6.6532    0.0861   -1.1241 H   0  0  0  0  0  0  0  0  0  0  0  0
    7.2946   -1.3206   -0.2659 H   0  0  0  0  0  0  0  0  0  0  0  0
    5.8715   -2.6292    1.2865 H   0  0  0  0  0  0  0  0  0  0  0  0
    4.1463   -2.3102    1.4488 H   0  0  0  0  0  0  0  0  0  0  0  0
    5.3210   -1.2192    2.2073 H   0  0  0  0  0  0  0  0  0  0  0  0
   -3.6083   -1.7639    2.0165 H   0  0  0  0  0  0  0  0  0  0  0  0
   -6.0478   -2.2097    1.9325 H   0  0  0  0  0  0  0  0  0  0  0  0
   -7.1712   -2.5530   -0.2558 H   0  0  0  0  0  0  0  0  0  0  0  0
   -5.8467   -2.4671   -2.3552 H   0  0  0  0  0  0  0  0  0  0  0  0
   -3.4073   -2.0201   -2.2637 H   0  0  0  0  0  0  0  0  0  0  0  0
   -4.4239    0.7391   -0.3573 H   0  0  0  0  0  0  0  0  0  0  0  0
   -2.2657    4.8736   -1.2190 H   0  0  0  0  0  0  0  0  0  0  0  0
   -1.0068    4.6625    0.0358 H   0  0  0  0  0  0  0  0  0  0  0  0
   -2.6969    4.9686    0.5216 H   0  0  0  0  0  0  0  0  0  0  0  0
  1  2  1  0
  2  3  1  0
  3  4  1  0
  4  5  1  0
  5  6  1  0
  6  7  1  0
  6  8  1  0
  2  9  2  0
  9 10  1  0
 10 11  2  3
 11 12  1  0
 12 13  2  0
 13 14  1  0
 14 15  2  0
 15 16  1  0
 16 17  2  0
 10 18  1  0
 18 19  1  0
 19 20  2  0
 20 21  1  0
 21 22  1  0
 21 23  1  0
 23  1  1  0
 17 12  1  0
 23 18  2  0
  1 24  1  0
  3 25  1  0
  4 26  1  0
  4 27  1  0
  5 28  1  0
  5 29  1  0
  6 30  1  0
  7 31  1  0
  7 32  1  0
  7 33  1  0
  8 34  1  0
  8 35  1  0
  8 36  1  0
 13 37  1  0
 14 38  1  0
 15 39  1  0
 16 40  1  0
 17 41  1  0
 19 42  1  0
 22 43  1  0
 22 44  1  0
 22 45  1  0
M  END
>  <ScrubInfo>  (6) 
{"isomerGroup": 0, "isomerId": 5, "confId": 0, "nr_conformers:": 1, "nr_isomers:": 9}

$$$$
_i6
     RDKit          3D

 45 47  0  0  0  0  0  0  0  0999 V2000
   -2.7913    1.1729    2.9961 N   0  0  0  0  0  0  0  0  0  0  0  0
   -2.8977    0.2563    1.9552 C   0  0  0  0  0  0  0  0  0  0  0  0
   -1.7541    0.1031    1.2743 C   0  0  0  0  0  0  0  0  0  0  0  0
   -1.2444   -0.6505    0.1303 C   0  0  0  0  0  0  0  0  0  0  0  0
   -1.9972   -1.5535   -0.5905 N   0  0  0  0  0  0  0  0  0  0  0  0
   -3.2809   -1.2792   -1.1169 C   0  0  0  0  0  0  0  0  0  0  0  0
   -3.7145    0.0142   -1.4344 C   0  0  0  0  0  0  0  0  0  0  0  0
   -4.9759    0.2243   -1.9980 C   0  0  0  0  0  0  0  0  0  0  0  0
   -5.8099   -0.8580   -2.2687 C   0  0  0  0  0  0  0  0  0  0  0  0
   -5.3799   -2.1518   -1.9852 C   0  0  0  0  0  0  0  0  0  0  0  0
   -4.1188   -2.3601   -1.4222 C   0  0  0  0  0  0  0  0  0  0  0  0
    0.0060   -0.4908   -0.2091 N   0  0  0  0  0  0  0  0  0  0  0  0
    0.7787    0.4127    0.4946 C   0  0  0  0  0  0  0  0  0  0  0  0
    1.9807    0.6530    0.1055 N   0  0  0  0  0  0  0  0  0  0  0  0
    2.4737   -0.0559   -1.0707 C   0  0  0  0  0  0  0  0  0  0  0  0
    3.9263    0.3540   -1.3306 C   0  0  0  0  0  0  0  0  0  0  0  0
    4.9123    0.0138   -0.1950 C   0  0  0  0  0  0  0  0  0  0  0  0
    4.9876   -1.4877    0.0846 C   0  0  0  0  0  0  0  0  0  0  0  0
    6.3052    0.5446   -0.5451 C   0  0  0  0  0  0  0  0  0  0  0  0
    0.4068    1.1210    1.6123 N   0  0  0  0  0  0  0  0  0  0  0  0
   -0.8076    0.9681    2.0089 C   0  0  0  0  0  0  0  0  0  0  0  0
   -1.4523    1.5333    3.1093 N   0  0  0  0  0  0  0  0  0  0  0  0
   -1.1092    2.8639    3.5724 C   0  0  0  0  0  0  0  0  0  0  0  0
   -3.2449    0.8613    3.8581 H   0  0  0  0  0  0  0  0  0  0  0  0
   -3.8424   -0.2402    1.7837 H   0  0  0  0  0  0  0  0  0  0  0  0
   -1.4261   -1.9866   -1.3139 H   0  0  0  0  0  0  0  0  0  0  0  0
   -3.0742    0.8764   -1.2646 H   0  0  0  0  0  0  0  0  0  0  0  0
   -5.3017    1.2342   -2.2353 H   0  0  0  0  0  0  0  0  0  0  0  0
   -6.7897   -0.6936   -2.7100 H   0  0  0  0  0  0  0  0  0  0  0  0
   -6.0235   -2.9998   -2.2049 H   0  0  0  0  0  0  0  0  0  0  0  0
   -3.7960   -3.3765   -1.2079 H   0  0  0  0  0  0  0  0  0  0  0  0
    2.4080   -1.1421   -0.9430 H   0  0  0  0  0  0  0  0  0  0  0  0
    1.8812    0.2188   -1.9523 H   0  0  0  0  0  0  0  0  0  0  0  0
    4.2607   -0.1261   -2.2592 H   0  0  0  0  0  0  0  0  0  0  0  0
    3.9555    1.4368   -1.5107 H   0  0  0  0  0  0  0  0  0  0  0  0
    4.5886    0.5172    0.7244 H   0  0  0  0  0  0  0  0  0  0  0  0
    5.7509   -1.7042    0.8400 H   0  0  0  0  0  0  0  0  0  0  0  0
    4.0369   -1.8695    0.4688 H   0  0  0  0  0  0  0  0  0  0  0  0
    5.2410   -2.0482   -0.8215 H   0  0  0  0  0  0  0  0  0  0  0  0
    6.6944    0.0720   -1.4535 H   0  0  0  0  0  0  0  0  0  0  0  0
    7.0122    0.3489    0.2682 H   0  0  0  0  0  0  0  0  0  0  0  0
    6.2793    1.6270   -0.7096 H   0  0  0  0  0  0  0  0  0  0  0  0
   -1.3689    3.6163    2.8204 H   0  0  0  0  0  0  0  0  0  0  0  0
   -1.6479    3.0957    4.4969 H   0  0  0  0  0  0  0  0  0  0  0  0
   -0.0374    2.9344    3.7837 H   0  0  0  0  0  0  0  0  0  0  0  0
  1  2  1  0
  2  3  2  0
  3  4  1  0
  4  5  1  0
  5  6  1  0
  6  7  2  0
  7  8  1  0
  8  9  2  0
  9 10  1  0
 10 11  2  0
  4 12  2  0
 12 13  1  0
 13 14  2  3
 14 15  1  0
 15 16  1  0
 16 17  1  0
 17 18  1  0
 17 19  1  0
 13 20  1  0
 20 21  2  0
 21 22  1  0
 22 23  1  0
 22  1  1  0
 21  3  1  0
 11  6  1  0
  1 24  1  0
  2 25  1  0
  5 26  1  0
  7 27  1  0
  8 28  1  0
  9 29  1  0
 10 30  1  0
 11 31  1  0
 15 32  1  0
 15 33  1  0
 16 34  1  0
 16 35  1  0
 17 36  1  0
 18 37  1  0
 18 38  1  0
 18 39  1  0
 19 40  1  0
 19 41  1  0
 19 42  1  0
 23 43  1  0
 23 44  1  0
 23 45  1  0
M  END
>  <ScrubInfo>  (7) 
{"isomerGroup": 0, "isomerId": 6, "confId": 0, "nr_conformers:": 1, "nr_isomers:": 9}

$$$$
_i7
     RDKit          3D

 45 47  0  0  0  0  0  0  0  0999 V2000
   -2.9461    1.6428    2.2445 N   0  0  0  0  0  0  0  0  0  0  0  0
   -3.0762    0.7634    1.1754 C   0  0  0  0  0  0  0  0  0  0  0  0
   -1.9109    0.4622    0.5848 C   0  0  0  0  0  0  0  0  0  0  0  0
   -1.3811   -0.3218   -0.5456 C   0  0  0  0  0  0  0  0  0  0  0  0
   -2.0104   -1.0923   -1.3837 N   0  0  0  0  0  0  0  0  0  0  0  0
   -3.3917   -1.2792   -1.2822 C   0  0  0  0  0  0  0  0  0  0  0  0
   -3.9076   -2.3239   -0.5105 C   0  0  0  0  0  0  0  0  0  0  0  0
   -5.2867   -2.5241   -0.4242 C   0  0  0  0  0  0  0  0  0  0  0  0
   -6.1564   -1.6875   -1.1230 C   0  0  0  0  0  0  0  0  0  0  0  0
   -5.6480   -0.6578   -1.9141 C   0  0  0  0  0  0  0  0  0  0  0  0
   -4.2684   -0.4602   -1.9987 C   0  0  0  0  0  0  0  0  0  0  0  0
   -0.0263   -0.1810   -0.6945 N   0  0  0  0  0  0  0  0  0  0  0  0
    0.8216    0.5722    0.0780 C   0  0  0  0  0  0  0  0  0  0  0  0
    2.0877    0.7151   -0.0958 N   0  0  0  0  0  0  0  0  0  0  0  0
    2.7415    0.0330   -1.2037 C   0  0  0  0  0  0  0  0  0  0  0  0
    4.2384    0.3528   -1.1800 C   0  0  0  0  0  0  0  0  0  0  0  0
    4.9827   -0.1075    0.0896 C   0  0  0  0  0  0  0  0  0  0  0  0
    4.9168   -1.6220    0.2900 C   0  0  0  0  0  0  0  0  0  0  0  0
    6.4450    0.3414    0.0216 C   0  0  0  0  0  0  0  0  0  0  0  0
    0.3492    1.2713    1.1688 N   0  0  0  0  0  0  0  0  0  0  0  0
   -0.9191    1.2173    1.4257 C   0  0  0  0  0  0  0  0  0  0  0  0
   -1.5928    1.8329    2.4832 N   0  0  0  0  0  0  0  0  0  0  0  0
   -1.1372    3.1020    3.0180 C   0  0  0  0  0  0  0  0  0  0  0  0
   -3.5138    1.3835    3.0544 H   0  0  0  0  0  0  0  0  0  0  0  0
   -4.0656    0.4132    0.9208 H   0  0  0  0  0  0  0  0  0  0  0  0
   -3.2296   -2.9856    0.0214 H   0  0  0  0  0  0  0  0  0  0  0  0
   -5.6802   -3.3381    0.1791 H   0  0  0  0  0  0  0  0  0  0  0  0
   -7.2303   -1.8465   -1.0622 H   0  0  0  0  0  0  0  0  0  0  0  0
   -6.3232   -0.0147   -2.4725 H   0  0  0  0  0  0  0  0  0  0  0  0
   -3.8720    0.3331   -2.6265 H   0  0  0  0  0  0  0  0  0  0  0  0
    0.3648   -0.6885   -1.4706 H   0  0  0  0  0  0  0  0  0  0  0  0
    2.5858   -1.0499   -1.1519 H   0  0  0  0  0  0  0  0  0  0  0  0
    2.3314    0.3878   -2.1571 H   0  0  0  0  0  0  0  0  0  0  0  0
    4.7045   -0.1056   -2.0616 H   0  0  0  0  0  0  0  0  0  0  0  0
    4.3643    1.4382   -1.2888 H   0  0  0  0  0  0  0  0  0  0  0  0
    4.5300    0.3736    0.9654 H   0  0  0  0  0  0  0  0  0  0  0  0
    5.2949   -2.1557   -0.5884 H   0  0  0  0  0  0  0  0  0  0  0  0
    3.8914   -1.9547    0.4776 H   0  0  0  0  0  0  0  0  0  0  0  0
    5.5176   -1.9259    1.1541 H   0  0  0  0  0  0  0  0  0  0  0  0
    6.9817    0.0594    0.9337 H   0  0  0  0  0  0  0  0  0  0  0  0
    6.9618   -0.1139   -0.8301 H   0  0  0  0  0  0  0  0  0  0  0  0
    6.5138    1.4295   -0.0815 H   0  0  0  0  0  0  0  0  0  0  0  0
   -1.2282    3.8950    2.2685 H   0  0  0  0  0  0  0  0  0  0  0  0
   -1.7321    3.3815    3.8937 H   0  0  0  0  0  0  0  0  0  0  0  0
   -0.0911    3.0351    3.3335 H   0  0  0  0  0  0  0  0  0  0  0  0
  1  2  1  0
  2  3  2  0
  3  4  1  0
  4  5  2  3
  5  6  1  0
  6  7  2  0
  7  8  1  0
  8  9  2  0
  9 10  1  0
 10 11  2  0
  4 12  1  0
 12 13  1  0
 13 14  2  3
 14 15  1  0
 15 16  1  0
 16 17  1  0
 17 18  1  0
 17 19  1  0
 13 20  1  0
 20 21  2  0
 21 22  1  0
 22 23  1  0
 22  1  1  0
 21  3  1  0
 11  6  1  0
  1 24  1  0
  2 25  1  0
  7 26  1  0
  8 27  1  0
  9 28  1  0
 10 29  1  0
 11 30  1  0
 12 31  1  0
 15 32  1  0
 15 33  1  0
 16 34  1  0
 16 35  1  0
 17 36  1  0
 18 37  1  0
 18 38  1  0
 18 39  1  0
 19 40  1  0
 19 41  1  0
 19 42  1  0
 23 43  1  0
 23 44  1  0
 23 45  1  0
M  END
>  <ScrubInfo>  (8) 
{"isomerGroup": 0, "isomerId": 7, "confId": 0, "nr_conformers:": 1, "nr_isomers:": 9}

$$$$
_i8
     RDKit          3D

 45 47  0  0  0  0  0  0  0  0999 V2000
    0.0860   -2.8542    0.0655 N   0  0  0  0  0  0  0  0  0  0  0  0
    0.2817   -1.4908   -0.0531 C   0  0  0  0  0  0  0  0  0  0  0  0
    1.4419   -1.0711   -0.4341 N   0  0  0  0  0  0  0  0  0  0  0  0
    1.6477    0.3707   -0.5594 C   0  0  0  0  0  0  0  0  0  0  0  0
    3.0870    0.6089   -1.0195 C   0  0  0  0  0  0  0  0  0  0  0  0
    3.3954    2.0841   -1.3324 C   0  0  0  0  0  0  0  0  0  0  0  0
    4.8081    2.2082   -1.9083 C   0  0  0  0  0  0  0  0  0  0  0  0
    3.2579    2.9834   -0.1030 C   0  0  0  0  0  0  0  0  0  0  0  0
   -0.8373   -0.7386    0.2659 N   0  0  0  0  0  0  0  0  0  0  0  0
   -2.0983   -1.1351    0.6788 C   0  0  0  0  0  0  0  0  0  0  0  0
   -3.1456   -0.4394    0.9792 N   0  0  0  0  0  0  0  0  0  0  0  0
   -3.0489    0.9546    0.8917 C   0  0  0  0  0  0  0  0  0  0  0  0
   -2.6381    1.7039    1.9972 C   0  0  0  0  0  0  0  0  0  0  0  0
   -2.5196    3.0916    1.9045 C   0  0  0  0  0  0  0  0  0  0  0  0
   -2.8222    3.7374    0.7061 C   0  0  0  0  0  0  0  0  0  0  0  0
   -3.2507    2.9977   -0.3956 C   0  0  0  0  0  0  0  0  0  0  0  0
   -3.3682    1.6101   -0.3001 C   0  0  0  0  0  0  0  0  0  0  0  0
   -2.1891   -2.5725    0.7672 C   0  0  0  0  0  0  0  0  0  0  0  0
   -3.1920   -3.4869    1.1201 C   0  0  0  0  0  0  0  0  0  0  0  0
   -2.7714   -4.7591    1.0413 N   0  0  0  0  0  0  0  0  0  0  0  0
   -1.4828   -4.6506    0.6324 N   0  0  0  0  0  0  0  0  0  0  0  0
   -0.7098   -5.8512    0.4402 C   0  0  0  0  0  0  0  0  0  0  0  0
   -1.1037   -3.3547    0.4594 C   0  0  0  0  0  0  0  0  0  0  0  0
    0.8984   -3.4137   -0.1656 H   0  0  0  0  0  0  0  0  0  0  0  0
    0.9547    0.7919   -1.2973 H   0  0  0  0  0  0  0  0  0  0  0  0
    1.4802    0.8573    0.4076 H   0  0  0  0  0  0  0  0  0  0  0  0
    3.7795    0.2342   -0.2543 H   0  0  0  0  0  0  0  0  0  0  0  0
    3.2726    0.0073   -1.9194 H   0  0  0  0  0  0  0  0  0  0  0  0
    2.6899    2.4365   -2.0955 H   0  0  0  0  0  0  0  0  0  0  0  0
    4.9135    1.6031   -2.8151 H   0  0  0  0  0  0  0  0  0  0  0  0
    5.0304    3.2470   -2.1745 H   0  0  0  0  0  0  0  0  0  0  0  0
    5.5622    1.8739   -1.1875 H   0  0  0  0  0  0  0  0  0  0  0  0
    3.5497    4.0123   -0.3402 H   0  0  0  0  0  0  0  0  0  0  0  0
    3.8926    2.6333    0.7180 H   0  0  0  0  0  0  0  0  0  0  0  0
    2.2240    3.0154    0.2537 H   0  0  0  0  0  0  0  0  0  0  0  0
   -0.7271    0.2596    0.1893 H   0  0  0  0  0  0  0  0  0  0  0  0
   -2.4142    1.2019    2.9349 H   0  0  0  0  0  0  0  0  0  0  0  0
   -2.2013    3.6683    2.7692 H   0  0  0  0  0  0  0  0  0  0  0  0
   -2.7377    4.8191    0.6351 H   0  0  0  0  0  0  0  0  0  0  0  0
   -3.5028    3.5011   -1.3255 H   0  0  0  0  0  0  0  0  0  0  0  0
   -3.7140    1.0349   -1.1551 H   0  0  0  0  0  0  0  0  0  0  0  0
   -4.2087   -3.2826    1.4306 H   0  0  0  0  0  0  0  0  0  0  0  0
    0.2995   -5.5985    0.1095 H   0  0  0  0  0  0  0  0  0  0  0  0
   -0.6639   -6.3869    1.3918 H   0  0  0  0  0  0  0  0  0  0  0  0
   -1.2055   -6.4619   -0.3187 H   0  0  0  0  0  0  0  0  0  0  0  0
  1  2  1  0
  2  3  2  3
  3  4  1  0
  4  5  1  0
  5  6  1  0
  6  7  1  0
  6  8  1  0
  2  9  1  0
  9 10  1  0
 10 11  2  3
 11 12  1  0
 12 13  2  0
 13 14  1  0
 14 15  2  0
 15 16  1  0
 16 17  2  0
 10 18  1  0
 18 19  1  0
 19 20  2  0
 20 21  1  0
 21 22  1  0
 21 23  1  0
 23  1  1  0
 17 12  1  0
 23 18  2  0
  1 24  1  0
  4 25  1  0
  4 26  1  0
  5 27  1  0
  5 28  1  0
  6 29  1  0
  7 30  1  0
  7 31  1  0
  7 32  1  0
  8 33  1  0
  8 34  1  0
  8 35  1  0
  9 36  1  0
 13 37  1  0
 14 38  1  0
 15 39  1  0
 16 40  1  0
 17 41  1  0
 19 42  1  0
 22 43  1  0
 22 44  1  0
 22 45  1  0
M  END
>  <ScrubInfo>  (9) 
{"isomerGroup": 0, "isomerId": 8, "confId": 0, "nr_conformers:": 1, "nr_isomers:": 9}

$$$$
