_i0
     RDKit          3D

 47 49  0  0  0  0  0  0  0  0999 V2000
    6.6081    0.8560   -0.0713 C   0  0  0  0  0  0  0  0  0  0  0  0
    5.4726    0.0200    0.4844 C   0  0  0  0  0  0  0  0  0  0  0  0
    4.2717    0.7853    0.4088 O   0  0  0  0  0  0  0  0  0  0  0  0
    3.1505    0.0610    0.9109 C   0  0  0  0  0  0  0  0  0  0  0  0
    1.9027    0.9319    0.8228 C   0  0  0  0  0  0  0  0  0  0  0  0
    1.5738    1.4026   -0.5967 C   0  0  0  0  0  0  0  0  0  0  0  0
    1.2921    0.3160   -1.5203 N   0  0  0  0  0  0  0  0  0  0  0  0
    0.1640   -0.4527   -1.3055 C   0  0  0  0  0  0  0  0  0  0  0  0
   -0.9113    0.0972   -0.7114 N   0  0  0  0  0  0  0  0  0  0  0  0
   -2.0367   -0.6282   -0.4850 C   0  0  0  0  0  0  0  0  0  0  0  0
   -3.1582   -0.0743    0.1542 N   0  0  0  0  0  0  0  0  0  0  0  0
   -3.4673    1.2485    0.5445 C   0  0  0  0  0  0  0  0  0  0  0  0
   -2.7289    2.3537    0.0947 C   0  0  0  0  0  0  0  0  0  0  0  0
   -3.0206    3.6554    0.5186 C   0  0  0  0  0  0  0  0  0  0  0  0
   -4.0579    3.8852    1.4143 C   0  0  0  0  0  0  0  0  0  0  0  0
   -4.8051    2.8107    1.8871 C   0  0  0  0  0  0  0  0  0  0  0  0
   -4.5138    1.5035    1.4621 C   0  0  0  0  0  0  0  0  0  0  0  0
   -5.3095    0.4316    1.9864 C   0  0  0  0  0  0  0  0  0  0  0  0
   -5.9372   -0.4642    2.3750 N   0  0  0  0  0  0  0  0  0  0  0  0
   -2.0117   -1.9698   -0.8861 C   0  0  0  0  0  0  0  0  0  0  0  0
   -2.8662   -3.0927   -0.8705 C   0  0  0  0  0  0  0  0  0  0  0  0
   -2.3074   -4.1798   -1.4137 N   0  0  0  0  0  0  0  0  0  0  0  0
   -1.0815   -3.7443   -1.7859 N   0  0  0  0  0  0  0  0  0  0  0  0
   -0.1713   -4.6559   -2.4322 C   0  0  0  0  0  0  0  0  0  0  0  0
   -0.8544   -2.4295   -1.4833 C   0  0  0  0  0  0  0  0  0  0  0  0
    0.2610   -1.7228   -1.7148 N   0  0  0  0  0  0  0  0  0  0  0  0
    6.7168    1.7854    0.4974 H   0  0  0  0  0  0  0  0  0  0  0  0
    7.5525    0.3061   -0.0333 H   0  0  0  0  0  0  0  0  0  0  0  0
    6.4056    1.1397   -1.1094 H   0  0  0  0  0  0  0  0  0  0  0  0
    5.6789   -0.2428    1.5277 H   0  0  0  0  0  0  0  0  0  0  0  0
    5.3637   -0.8980   -0.1035 H   0  0  0  0  0  0  0  0  0  0  0  0
    3.0201   -0.8645    0.3392 H   0  0  0  0  0  0  0  0  0  0  0  0
    3.3314   -0.2036    1.9592 H   0  0  0  0  0  0  0  0  0  0  0  0
    1.0560    0.3898    1.2583 H   0  0  0  0  0  0  0  0  0  0  0  0
    2.0590    1.8273    1.4375 H   0  0  0  0  0  0  0  0  0  0  0  0
    2.4170    1.9765   -0.9984 H   0  0  0  0  0  0  0  0  0  0  0  0
    0.7308    2.1039   -0.5652 H   0  0  0  0  0  0  0  0  0  0  0  0
    2.0677   -0.2969   -1.7378 H   0  0  0  0  0  0  0  0  0  0  0  0
   -3.8833   -0.7578    0.3363 H   0  0  0  0  0  0  0  0  0  0  0  0
   -1.9182    2.2286   -0.6180 H   0  0  0  0  0  0  0  0  0  0  0  0
   -2.4306    4.4876    0.1412 H   0  0  0  0  0  0  0  0  0  0  0  0
   -4.2821    4.8970    1.7426 H   0  0  0  0  0  0  0  0  0  0  0  0
   -5.6146    2.9949    2.5913 H   0  0  0  0  0  0  0  0  0  0  0  0
   -3.8754   -3.1679   -0.4862 H   0  0  0  0  0  0  0  0  0  0  0  0
    0.7610   -4.1432   -2.6787 H   0  0  0  0  0  0  0  0  0  0  0  0
   -0.6442   -5.0236   -3.3464 H   0  0  0  0  0  0  0  0  0  0  0  0
    0.0304   -5.4831   -1.7469 H   0  0  0  0  0  0  0  0  0  0  0  0
  1  2  1  0
  2  3  1  0
  3  4  1  0
  4  5  1  0
  5  6  1  0
  6  7  1  0
  7  8  1  0
  8  9  2  0
  9 10  1  0
 10 11  1  0
 11 12  1  0
 12 13  2  0
 13 14  1  0
 14 15  2  0
 15 16  1  0
 16 17  2  0
 17 18  1  0
 18 19  3  0
 10 20  2  0
 20 21  1  0
 21 22  2  0
 22 23  1  0
 23 24  1  0
 23 25  1  0
 25 26  2  0
 26  8  1  0
 17 12  1  0
 25 20  1  0
  1 27  1  0
  1 28  1  0
  1 29  1  0
  2 30  1  0
  2 31  1  0
  4 32  1  0
  4 33  1  0
  5 34  1  0
  5 35  1  0
  6 36  1  0
  6 37  1  0
  7 38  1  0
 11 39  1  0
 13 40  1  0
 14 41  1  0
 15 42  1  0
 16 43  1  0
 21 44  1  0
 24 45  1  0
 24 46  1  0
 24 47  1  0
M  END
>  <ScrubInfo>  (1) 
{"isomerGroup": 0, "isomerId": 0, "confId": 0, "nr_conformers:": 1, "nr_isomers:": 9}

$$$$
_i1
     RDKit          3D

 47 49  0  0  0  0  0  0  0  0999 V2000
   -0.8840    1.1354    0.4026 N   0  0  0  0  0  0  0  0  0  0  0  0
   -2.0872    0.9151   -0.2349 C   0  0  0  0  0  0  0  0  0  0  0  0
   -3.2325    1.5789    0.1640 N   0  0  0  0  0  0  0  0  0  0  0  0
   -4.4798    1.0029    0.5248 C   0  0  0  0  0  0  0  0  0  0  0  0
   -4.6377   -0.3831    0.6971 C   0  0  0  0  0  0  0  0  0  0  0  0
   -5.8830   -0.9398    1.0053 C   0  0  0  0  0  0  0  0  0  0  0  0
   -7.0005   -0.1238    1.1424 C   0  0  0  0  0  0  0  0  0  0  0  0
   -6.8739    1.2528    0.9741 C   0  0  0  0  0  0  0  0  0  0  0  0
   -5.6263    1.8173    0.6649 C   0  0  0  0  0  0  0  0  0  0  0  0
   -5.5477    3.2401    0.4959 C   0  0  0  0  0  0  0  0  0  0  0  0
   -5.4648    4.3920    0.3809 N   0  0  0  0  0  0  0  0  0  0  0  0
   -2.0312    0.0754   -1.2769 C   0  0  0  0  0  0  0  0  0  0  0  0
   -2.9430   -0.4705   -2.2891 C   0  0  0  0  0  0  0  0  0  0  0  0
   -2.3595   -1.3152   -3.1025 N   0  0  0  0  0  0  0  0  0  0  0  0
   -1.0115   -1.3354   -2.7129 N   0  0  0  0  0  0  0  0  0  0  0  0
   -0.1328   -2.3407   -3.2564 C   0  0  0  0  0  0  0  0  0  0  0  0
   -0.7331   -0.5551   -1.6037 C   0  0  0  0  0  0  0  0  0  0  0  0
    0.3695   -0.3833   -0.9574 N   0  0  0  0  0  0  0  0  0  0  0  0
    0.2911    0.4948    0.1004 C   0  0  0  0  0  0  0  0  0  0  0  0
    1.3239    0.7308    0.8410 N   0  0  0  0  0  0  0  0  0  0  0  0
    2.5666    0.0382    0.4836 C   0  0  0  0  0  0  0  0  0  0  0  0
    3.6460    0.4619    1.4796 C   0  0  0  0  0  0  0  0  0  0  0  0
    4.9492   -0.3015    1.2732 C   0  0  0  0  0  0  0  0  0  0  0  0
    5.4804   -0.0003   -0.0154 O   0  0  0  0  0  0  0  0  0  0  0  0
    6.6717   -0.7209   -0.3212 C   0  0  0  0  0  0  0  0  0  0  0  0
    7.8874   -0.0983    0.3416 C   0  0  0  0  0  0  0  0  0  0  0  0
   -0.8597    1.7174    1.2252 H   0  0  0  0  0  0  0  0  0  0  0  0
   -3.0320    2.4252    0.6942 H   0  0  0  0  0  0  0  0  0  0  0  0
   -3.7884   -1.0583    0.6225 H   0  0  0  0  0  0  0  0  0  0  0  0
   -5.9757   -2.0155    1.1415 H   0  0  0  0  0  0  0  0  0  0  0  0
   -7.9682   -0.5591    1.3818 H   0  0  0  0  0  0  0  0  0  0  0  0
   -7.7541    1.8850    1.0821 H   0  0  0  0  0  0  0  0  0  0  0  0
   -4.0023   -0.1855   -2.3155 H   0  0  0  0  0  0  0  0  0  0  0  0
    0.9041   -1.9898   -3.2660 H   0  0  0  0  0  0  0  0  0  0  0  0
   -0.4115   -2.5854   -4.2865 H   0  0  0  0  0  0  0  0  0  0  0  0
   -0.1854   -3.2551   -2.6574 H   0  0  0  0  0  0  0  0  0  0  0  0
    2.4275   -1.0483    0.5415 H   0  0  0  0  0  0  0  0  0  0  0  0
    2.8781    0.3055   -0.5332 H   0  0  0  0  0  0  0  0  0  0  0  0
    3.8272    1.5383    1.3690 H   0  0  0  0  0  0  0  0  0  0  0  0
    3.2906    0.2965    2.5038 H   0  0  0  0  0  0  0  0  0  0  0  0
    5.6629   -0.0000    2.0466 H   0  0  0  0  0  0  0  0  0  0  0  0
    4.7723   -1.3798    1.3599 H   0  0  0  0  0  0  0  0  0  0  0  0
    6.8000   -0.6744   -1.4077 H   0  0  0  0  0  0  0  0  0  0  0  0
    6.5663   -1.7774   -0.0503 H   0  0  0  0  0  0  0  0  0  0  0  0
    7.8386   -0.1910    1.4306 H   0  0  0  0  0  0  0  0  0  0  0  0
    8.8047   -0.5862   -0.0008 H   0  0  0  0  0  0  0  0  0  0  0  0
    7.9474    0.9704    0.1117 H   0  0  0  0  0  0  0  0  0  0  0  0
  1  2  1  0
  2  3  1  0
  3  4  1  0
  4  5  2  0
  5  6  1  0
  6  7  2  0
  7  8  1  0
  8  9  2  0
  9 10  1  0
 10 11  3  0
  2 12  2  0
 12 13  1  0
 13 14  2  0
 14 15  1  0
 15 16  1  0
 15 17  1  0
 17 18  2  0
 18 19  1  0
 19 20  2  3
 20 21  1  0
 21 22  1  0
 22 23  1  0
 23 24  1  0
 24 25  1  0
 25 26  1  0
 19  1  1  0
  9  4  1  0
 17 12  1  0
  1 27  1  0
  3 28  1  0
  5 29  1  0
  6 30  1  0
  7 31  1  0
  8 32  1  0
 13 33  1  0
 16 34  1  0
 16 35  1  0
 16 36  1  0
 21 37  1  0
 21 38  1  0
 22 39  1  0
 22 40  1  0
 23 41  1  0
 23 42  1  0
 25 43  1  0
 25 44  1  0
 26 45  1  0
 26 46  1  0
 26 47  1  0
M  END
>  <ScrubInfo>  (2) 
{"isomerGroup": 0, "isomerId": 1, "confId": 0, "nr_conformers:": 1, "nr_isomers:": 9}

$$$$
_i2
     RDKit          3D

 47 49  0  0  0  0  0  0  0  0999 V2000
   -0.6967    0.2085    0.6597 N   0  0  0  0  0  0  0  0  0  0  0  0
    0.3928   -0.4948    0.2150 C   0  0  0  0  0  0  0  0  0  0  0  0
    1.5611   -0.2828    0.8925 N   0  0  0  0  0  0  0  0  0  0  0  0
    2.1286    1.0573    1.0316 C   0  0  0  0  0  0  0  0  0  0  0  0
    3.1674    1.0872    2.1525 C   0  0  0  0  0  0  0  0  0  0  0  0
    4.4205    0.2700    1.8552 C   0  0  0  0  0  0  0  0  0  0  0  0
    5.0133    0.7484    0.6507 O   0  0  0  0  0  0  0  0  0  0  0  0
    6.1773    0.0206    0.2623 C   0  0  0  0  0  0  0  0  0  0  0  0
    7.3991    0.4617    1.0481 C   0  0  0  0  0  0  0  0  0  0  0  0
    0.3586   -1.3549   -0.7707 N   0  0  0  0  0  0  0  0  0  0  0  0
   -0.8859   -1.4307   -1.3230 C   0  0  0  0  0  0  0  0  0  0  0  0
   -2.0401   -0.7567   -0.9500 C   0  0  0  0  0  0  0  0  0  0  0  0
   -3.0137   -1.2111   -1.8569 C   0  0  0  0  0  0  0  0  0  0  0  0
   -2.5325   -2.0994   -2.7352 N   0  0  0  0  0  0  0  0  0  0  0  0
   -1.2295   -2.2120   -2.3902 N   0  0  0  0  0  0  0  0  0  0  0  0
   -0.3745   -3.0967   -3.1407 C   0  0  0  0  0  0  0  0  0  0  0  0
   -1.9817    0.1580    0.1747 C   0  0  0  0  0  0  0  0  0  0  0  0
   -2.9409    0.8520    0.7094 N   0  0  0  0  0  0  0  0  0  0  0  0
   -4.2517    0.8228    0.2174 C   0  0  0  0  0  0  0  0  0  0  0  0
   -5.1408   -0.1415    0.7109 C   0  0  0  0  0  0  0  0  0  0  0  0
   -6.4643   -0.1849    0.2685 C   0  0  0  0  0  0  0  0  0  0  0  0
   -6.9191    0.7486   -0.6601 C   0  0  0  0  0  0  0  0  0  0  0  0
   -6.0533    1.7328   -1.1389 C   0  0  0  0  0  0  0  0  0  0  0  0
   -4.7231    1.7801   -0.6963 C   0  0  0  0  0  0  0  0  0  0  0  0
   -3.8599    2.8137   -1.1890 C   0  0  0  0  0  0  0  0  0  0  0  0
   -3.1843    3.6592   -1.6105 N   0  0  0  0  0  0  0  0  0  0  0  0
   -0.5839    0.7536    1.4981 H   0  0  0  0  0  0  0  0  0  0  0  0
    2.2588   -0.9033    0.4830 H   0  0  0  0  0  0  0  0  0  0  0  0
    1.3437    1.7798    1.2819 H   0  0  0  0  0  0  0  0  0  0  0  0
    2.5629    1.3744    0.0769 H   0  0  0  0  0  0  0  0  0  0  0  0
    3.4631    2.1329    2.3037 H   0  0  0  0  0  0  0  0  0  0  0  0
    2.7198    0.7344    3.0891 H   0  0  0  0  0  0  0  0  0  0  0  0
    5.1229    0.3829    2.6873 H   0  0  0  0  0  0  0  0  0  0  0  0
    4.1735   -0.7924    1.7525 H   0  0  0  0  0  0  0  0  0  0  0  0
    6.0092   -1.0581    0.3566 H   0  0  0  0  0  0  0  0  0  0  0  0
    6.3442    0.2334   -0.7988 H   0  0  0  0  0  0  0  0  0  0  0  0
    8.3019   -0.0157    0.6562 H   0  0  0  0  0  0  0  0  0  0  0  0
    7.3077    0.2005    2.1065 H   0  0  0  0  0  0  0  0  0  0  0  0
    7.5208    1.5484    0.9941 H   0  0  0  0  0  0  0  0  0  0  0  0
   -4.0592   -0.9491   -1.9338 H   0  0  0  0  0  0  0  0  0  0  0  0
   -0.7730   -4.1111   -3.0580 H   0  0  0  0  0  0  0  0  0  0  0  0
    0.6424   -3.0655   -2.7438 H   0  0  0  0  0  0  0  0  0  0  0  0
   -0.3739   -2.7708   -4.1840 H   0  0  0  0  0  0  0  0  0  0  0  0
   -4.7951   -0.8661    1.4446 H   0  0  0  0  0  0  0  0  0  0  0  0
   -7.1399   -0.9455    0.6531 H   0  0  0  0  0  0  0  0  0  0  0  0
   -7.9505    0.7158   -1.0042 H   0  0  0  0  0  0  0  0  0  0  0  0
   -6.4220    2.4661   -1.8542 H   0  0  0  0  0  0  0  0  0  0  0  0
  1  2  1  0
  2  3  1  0
  3  4  1  0
  4  5  1  0
  5  6  1  0
  6  7  1  0
  7  8  1  0
  8  9  1  0
  2 10  2  0
 10 11  1  0
 11 12  2  0
 12 13  1  0
 13 14  2  0
 14 15  1  0
 15 16  1  0
 12 17  1  0
 17 18  2  3
 18 19  1  0
 19 20  2  0
 20 21  1  0
 21 22  2  0
 22 23  1  0
 23 24  2  0
 24 25  1  0
 25 26  3  0
 17  1  1  0
 24 19  1  0
 15 11  1  0
  1 27  1  0
  3 28  1  0
  4 29  1  0
  4 30  1  0
  5 31  1  0
  5 32  1  0
  6 33  1  0
  6 34  1  0
  8 35  1  0
  8 36  1  0
  9 37  1  0
  9 38  1  0
  9 39  1  0
 13 40  1  0
 16 41  1  0
 16 42  1  0
 16 43  1  0
 20 44  1  0
 21 45  1  0
 22 46  1  0
 23 47  1  0
M  END
>  <ScrubInfo>  (3) 
{"isomerGroup": 0, "isomerId": 2, "confId": 0, "nr_conformers:": 1, "nr_isomers:": 9}

$$$$
_i3
     RDKit          3D

 47 49  0  0  0  0  0  0  0  0999 V2000
   -0.0183   -2.0220    1.1046 N   0  0  0  0  0  0  0  0  0  0  0  0
    0.4448   -1.3011    0.0251 C   0  0  0  0  0  0  0  0  0  0  0  0
    1.7221   -1.2567   -0.1724 N   0  0  0  0  0  0  0  0  0  0  0  0
    2.1951   -0.4939   -1.3268 C   0  0  0  0  0  0  0  0  0  0  0  0
    3.7188   -0.5656   -1.3839 C   0  0  0  0  0  0  0  0  0  0  0  0
    4.3784    0.1298   -0.1948 C   0  0  0  0  0  0  0  0  0  0  0  0
    5.8028    0.0857   -0.3164 O   0  0  0  0  0  0  0  0  0  0  0  0
    6.3574    1.1587   -1.0734 C   0  0  0  0  0  0  0  0  0  0  0  0
    6.5926    2.3713   -0.1902 C   0  0  0  0  0  0  0  0  0  0  0  0
   -0.4176   -0.6331   -0.8337 N   0  0  0  0  0  0  0  0  0  0  0  0
   -1.7012   -0.6865   -0.6078 C   0  0  0  0  0  0  0  0  0  0  0  0
   -2.6238   -0.0719   -1.4161 N   0  0  0  0  0  0  0  0  0  0  0  0
   -3.5132    0.9570   -0.9868 C   0  0  0  0  0  0  0  0  0  0  0  0
   -3.3401    1.6231    0.2387 C   0  0  0  0  0  0  0  0  0  0  0  0
   -4.2172    2.6348    0.6397 C   0  0  0  0  0  0  0  0  0  0  0  0
   -5.2785    3.0073   -0.1790 C   0  0  0  0  0  0  0  0  0  0  0  0
   -5.4621    2.3716   -1.4051 C   0  0  0  0  0  0  0  0  0  0  0  0
   -4.5859    1.3546   -1.8142 C   0  0  0  0  0  0  0  0  0  0  0  0
   -4.8122    0.7299   -3.0863 C   0  0  0  0  0  0  0  0  0  0  0  0
   -4.9845    0.2407   -4.1247 N   0  0  0  0  0  0  0  0  0  0  0  0
   -2.2310   -1.4661    0.4885 C   0  0  0  0  0  0  0  0  0  0  0  0
   -3.4866   -1.8202    1.0044 C   0  0  0  0  0  0  0  0  0  0  0  0
   -3.3887   -2.6047    2.0898 N   0  0  0  0  0  0  0  0  0  0  0  0
   -2.0522   -2.7726    2.2510 N   0  0  0  0  0  0  0  0  0  0  0  0
   -1.5720   -3.5951    3.3318 C   0  0  0  0  0  0  0  0  0  0  0  0
   -1.3411   -2.1036    1.3077 C   0  0  0  0  0  0  0  0  0  0  0  0
    0.7004   -2.4889    1.6419 H   0  0  0  0  0  0  0  0  0  0  0  0
    1.8825    0.5554   -1.2616 H   0  0  0  0  0  0  0  0  0  0  0  0
    1.7954   -0.9221   -2.2541 H   0  0  0  0  0  0  0  0  0  0  0  0
    4.0616   -0.1090   -2.3194 H   0  0  0  0  0  0  0  0  0  0  0  0
    4.0522   -1.6104   -1.4209 H   0  0  0  0  0  0  0  0  0  0  0  0
    4.0256    1.1612   -0.0862 H   0  0  0  0  0  0  0  0  0  0  0  0
    4.1272   -0.4004    0.7298 H   0  0  0  0  0  0  0  0  0  0  0  0
    5.7271    1.4121   -1.9321 H   0  0  0  0  0  0  0  0  0  0  0  0
    7.3201    0.8122   -1.4630 H   0  0  0  0  0  0  0  0  0  0  0  0
    7.0921    3.1666   -0.7510 H   0  0  0  0  0  0  0  0  0  0  0  0
    7.2127    2.1042    0.6719 H   0  0  0  0  0  0  0  0  0  0  0  0
    5.6513    2.7651    0.2045 H   0  0  0  0  0  0  0  0  0  0  0  0
   -2.1588    0.2427   -2.2676 H   0  0  0  0  0  0  0  0  0  0  0  0
   -2.5125    1.3765    0.9010 H   0  0  0  0  0  0  0  0  0  0  0  0
   -4.0663    3.1341    1.5947 H   0  0  0  0  0  0  0  0  0  0  0  0
   -5.9598    3.7946    0.1360 H   0  0  0  0  0  0  0  0  0  0  0  0
   -6.2932    2.6729   -2.0412 H   0  0  0  0  0  0  0  0  0  0  0  0
   -4.4705   -1.5452    0.6470 H   0  0  0  0  0  0  0  0  0  0  0  0
   -0.4801   -3.5895    3.3473 H   0  0  0  0  0  0  0  0  0  0  0  0
   -1.9567   -3.1899    4.2711 H   0  0  0  0  0  0  0  0  0  0  0  0
   -1.9364   -4.6137    3.1767 H   0  0  0  0  0  0  0  0  0  0  0  0
  1  2  1  0
  2  3  2  3
  3  4  1  0
  4  5  1  0
  5  6  1  0
  6  7  1  0
  7  8  1  0
  8  9  1  0
  2 10  1  0
 10 11  2  0
 11 12  1  0
 12 13  1  0
 13 14  2  0
 14 15  1  0
 15 16  2  0
 16 17  1  0
 17 18  2  0
 18 19  1  0
 19 20  3  0
 11 21  1  0
 21 22  1  0
 22 23  2  0
 23 24  1  0
 24 25  1  0
 24 26  1  0
 26  1  1  0
 18 13  1  0
 26 21  2  0
  1 27  1  0
  4 28  1  0
  4 29  1  0
  5 30  1  0
  5 31  1  0
  6 32  1  0
  6 33  1  0
  8 34  1  0
  8 35  1  0
  9 36  1  0
  9 37  1  0
  9 38  1  0
 12 39  1  0
 14 40  1  0
 15 41  1  0
 16 42  1  0
 17 43  1  0
 22 44  1  0
 25 45  1  0
 25 46  1  0
 25 47  1  0
M  END
>  <ScrubInfo>  (4) 
{"isomerGroup": 0, "isomerId": 3, "confId": 0, "nr_conformers:": 1, "nr_isomers:": 9}

$$$$
_i4
     RDKit          3D

 47 49  0  0  0  0  0  0  0  0999 V2000
   -1.1886   -3.1960   -1.6297 N   0  0  0  0  0  0  0  0  0  0  0  0
   -1.9419   -2.0337   -1.7620 C   0  0  0  0  0  0  0  0  0  0  0  0
   -1.6742   -1.1125   -0.8233 C   0  0  0  0  0  0  0  0  0  0  0  0
   -2.1148    0.2169   -0.4208 C   0  0  0  0  0  0  0  0  0  0  0  0
   -2.9621    1.0251   -0.9672 N   0  0  0  0  0  0  0  0  0  0  0  0
   -3.6352    0.6847   -2.1466 C   0  0  0  0  0  0  0  0  0  0  0  0
   -4.8870    0.0620   -2.0470 C   0  0  0  0  0  0  0  0  0  0  0  0
   -5.6138   -0.2727   -3.1910 C   0  0  0  0  0  0  0  0  0  0  0  0
   -5.1033    0.0274   -4.4513 C   0  0  0  0  0  0  0  0  0  0  0  0
   -3.8698    0.6699   -4.5665 C   0  0  0  0  0  0  0  0  0  0  0  0
   -3.1364    1.0084   -3.4187 C   0  0  0  0  0  0  0  0  0  0  0  0
   -1.8739    1.6700   -3.5746 C   0  0  0  0  0  0  0  0  0  0  0  0
   -0.8443    2.1742   -3.7595 N   0  0  0  0  0  0  0  0  0  0  0  0
   -1.5289    0.6729    0.7289 N   0  0  0  0  0  0  0  0  0  0  0  0
   -0.6169    0.0100    1.3764 C   0  0  0  0  0  0  0  0  0  0  0  0
   -0.1297    0.6093    2.5012 N   0  0  0  0  0  0  0  0  0  0  0  0
    1.1575    0.2997    3.0842 C   0  0  0  0  0  0  0  0  0  0  0  0
    2.2907    0.8910    2.2519 C   0  0  0  0  0  0  0  0  0  0  0  0
    3.6424    0.6315    2.9095 C   0  0  0  0  0  0  0  0  0  0  0  0
    4.7287    1.0324    2.0757 O   0  0  0  0  0  0  0  0  0  0  0  0
    4.9364    2.4422    2.0438 C   0  0  0  0  0  0  0  0  0  0  0  0
    6.1802    2.7205    1.2223 C   0  0  0  0  0  0  0  0  0  0  0  0
   -0.1165   -1.2112    1.0151 N   0  0  0  0  0  0  0  0  0  0  0  0
   -0.6013   -1.7586   -0.0433 C   0  0  0  0  0  0  0  0  0  0  0  0
   -0.2591   -2.9804   -0.6231 N   0  0  0  0  0  0  0  0  0  0  0  0
    0.1783   -4.0981    0.1903 C   0  0  0  0  0  0  0  0  0  0  0  0
   -0.8135   -3.5387   -2.5177 H   0  0  0  0  0  0  0  0  0  0  0  0
   -2.6478   -1.9777   -2.5768 H   0  0  0  0  0  0  0  0  0  0  0  0
   -5.2987   -0.1557   -1.0636 H   0  0  0  0  0  0  0  0  0  0  0  0
   -6.5832   -0.7563   -3.0948 H   0  0  0  0  0  0  0  0  0  0  0  0
   -5.6718   -0.2258   -5.3435 H   0  0  0  0  0  0  0  0  0  0  0  0
   -3.4859    0.9139   -5.5558 H   0  0  0  0  0  0  0  0  0  0  0  0
   -0.4252    1.5769    2.5623 H   0  0  0  0  0  0  0  0  0  0  0  0
    1.2807   -0.7837    3.1973 H   0  0  0  0  0  0  0  0  0  0  0  0
    1.1842    0.7238    4.0946 H   0  0  0  0  0  0  0  0  0  0  0  0
    2.2910    0.4703    1.2388 H   0  0  0  0  0  0  0  0  0  0  0  0
    2.1318    1.9682    2.1243 H   0  0  0  0  0  0  0  0  0  0  0  0
    3.7151    1.1226    3.8870 H   0  0  0  0  0  0  0  0  0  0  0  0
    3.7630   -0.4442    3.0790 H   0  0  0  0  0  0  0  0  0  0  0  0
    5.0730    2.8224    3.0620 H   0  0  0  0  0  0  0  0  0  0  0  0
    4.0780    2.9412    1.5845 H   0  0  0  0  0  0  0  0  0  0  0  0
    7.0505    2.2185    1.6579 H   0  0  0  0  0  0  0  0  0  0  0  0
    6.3814    3.7942    1.1704 H   0  0  0  0  0  0  0  0  0  0  0  0
    6.0649    2.3328    0.2047 H   0  0  0  0  0  0  0  0  0  0  0  0
   -0.6287   -4.4417    0.8458 H   0  0  0  0  0  0  0  0  0  0  0  0
    1.0352   -3.8128    0.8090 H   0  0  0  0  0  0  0  0  0  0  0  0
    0.4892   -4.9333   -0.4458 H   0  0  0  0  0  0  0  0  0  0  0  0
  1  2  1  0
  2  3  2  0
  3  4  1  0
  4  5  2  3
  5  6  1  0
  6  7  2  0
  7  8  1  0
  8  9  2  0
  9 10  1  0
 10 11  2  0
 11 12  1  0
 12 13  3  0
  4 14  1  0
 14 15  2  0
 15 16  1  0
 16 17  1  0
 17 18  1  0
 18 19  1  0
 19 20  1  0
 20 21  1  0
 21 22  1  0
 15 23  1  0
 23 24  2  0
 24 25  1  0
 25 26  1  0
 25  1  1  0
 24  3  1  0
 11  6  1  0
  1 27  1  0
  2 28  1  0
  7 29  1  0
  8 30  1  0
  9 31  1  0
 10 32  1  0
 16 33  1  0
 17 34  1  0
 17 35  1  0
 18 36  1  0
 18 37  1  0
 19 38  1  0
 19 39  1  0
 21 40  1  0
 21 41  1  0
 22 42  1  0
 22 43  1  0
 22 44  1  0
 26 45  1  0
 26 46  1  0
 26 47  1  0
M  END
>  <ScrubInfo>  (5) 
{"isomerGroup": 0, "isomerId": 4, "confId": 0, "nr_conformers:": 1, "nr_isomers:": 9}

$$$$
_i5
     RDKit          3D

 47 49  0  0  0  0  0  0  0  0999 V2000
    0.0279   -1.7944    1.1229 N   0  0  0  0  0  0  0  0  0  0  0  0
   -0.4769   -0.5142    1.1591 C   0  0  0  0  0  0  0  0  0  0  0  0
    0.2444    0.3807    1.8969 N   0  0  0  0  0  0  0  0  0  0  0  0
    1.6856    0.5479    1.7680 C   0  0  0  0  0  0  0  0  0  0  0  0
    2.0497    1.1588    0.4199 C   0  0  0  0  0  0  0  0  0  0  0  0
    3.5515    1.3910    0.3067 C   0  0  0  0  0  0  0  0  0  0  0  0
    3.8160    1.9683   -0.9693 O   0  0  0  0  0  0  0  0  0  0  0  0
    5.1904    2.2871   -1.1776 C   0  0  0  0  0  0  0  0  0  0  0  0
    5.9973    1.0575   -1.5542 C   0  0  0  0  0  0  0  0  0  0  0  0
   -1.5664   -0.1073    0.5652 N   0  0  0  0  0  0  0  0  0  0  0  0
   -2.3042   -1.0161   -0.1824 C   0  0  0  0  0  0  0  0  0  0  0  0
   -3.3862   -0.7113   -0.8265 N   0  0  0  0  0  0  0  0  0  0  0  0
   -3.8389    0.6191   -0.7660 C   0  0  0  0  0  0  0  0  0  0  0  0
   -3.5505    1.4686   -1.8426 C   0  0  0  0  0  0  0  0  0  0  0  0
   -3.9957    2.7922   -1.8519 C   0  0  0  0  0  0  0  0  0  0  0  0
   -4.7466    3.2808   -0.7858 C   0  0  0  0  0  0  0  0  0  0  0  0
   -5.0556    2.4437    0.2870 C   0  0  0  0  0  0  0  0  0  0  0  0
   -4.6096    1.1126    0.2996 C   0  0  0  0  0  0  0  0  0  0  0  0
   -4.9561    0.2772    1.4122 C   0  0  0  0  0  0  0  0  0  0  0  0
   -5.2594   -0.3611    2.3345 N   0  0  0  0  0  0  0  0  0  0  0  0
   -1.8283   -2.3736   -0.2280 C   0  0  0  0  0  0  0  0  0  0  0  0
   -2.2611   -3.5748   -0.8043 C   0  0  0  0  0  0  0  0  0  0  0  0
   -1.4396   -4.5995   -0.5198 N   0  0  0  0  0  0  0  0  0  0  0  0
   -0.4803   -4.0389    0.2586 N   0  0  0  0  0  0  0  0  0  0  0  0
    0.5841   -4.8675    0.7633 C   0  0  0  0  0  0  0  0  0  0  0  0
   -0.6811   -2.7073    0.4362 C   0  0  0  0  0  0  0  0  0  0  0  0
    0.7264   -2.0342    1.8125 H   0  0  0  0  0  0  0  0  0  0  0  0
   -0.2349    1.2797    1.8689 H   0  0  0  0  0  0  0  0  0  0  0  0
    2.0211    1.2097    2.5747 H   0  0  0  0  0  0  0  0  0  0  0  0
    2.2024   -0.4072    1.9124 H   0  0  0  0  0  0  0  0  0  0  0  0
    1.7190    0.5102   -0.4012 H   0  0  0  0  0  0  0  0  0  0  0  0
    1.5194    2.1088    0.2745 H   0  0  0  0  0  0  0  0  0  0  0  0
    4.0841    0.4396    0.4058 H   0  0  0  0  0  0  0  0  0  0  0  0
    3.8883    2.0739    1.0949 H   0  0  0  0  0  0  0  0  0  0  0  0
    5.6100    2.7858   -0.2967 H   0  0  0  0  0  0  0  0  0  0  0  0
    5.2280    3.0017   -2.0064 H   0  0  0  0  0  0  0  0  0  0  0  0
    5.5340    0.5355   -2.3977 H   0  0  0  0  0  0  0  0  0  0  0  0
    7.0188    1.3365   -1.8283 H   0  0  0  0  0  0  0  0  0  0  0  0
    6.0494    0.3459   -0.7249 H   0  0  0  0  0  0  0  0  0  0  0  0
   -2.9694    1.0897   -2.6799 H   0  0  0  0  0  0  0  0  0  0  0  0
   -3.7570    3.4374   -2.6937 H   0  0  0  0  0  0  0  0  0  0  0  0
   -5.0955    4.3106   -0.7922 H   0  0  0  0  0  0  0  0  0  0  0  0
   -5.6492    2.8313    1.1128 H   0  0  0  0  0  0  0  0  0  0  0  0
   -3.1383   -3.7518   -1.4136 H   0  0  0  0  0  0  0  0  0  0  0  0
    1.3101   -4.2541    1.3011 H   0  0  0  0  0  0  0  0  0  0  0  0
    0.1509   -5.6095    1.4385 H   0  0  0  0  0  0  0  0  0  0  0  0
    1.0718   -5.3585   -0.0827 H   0  0  0  0  0  0  0  0  0  0  0  0
  1  2  1  0
  2  3  1  0
  3  4  1  0
  4  5  1  0
  5  6  1  0
  6  7  1  0
  7  8  1  0
  8  9  1  0
  2 10  2  0
 10 11  1  0
 11 12  2  3
 12 13  1  0
 13 14  2  0
 14 15  1  0
 15 16  2  0
 16 17  1  0
 17 18  2  0
 18 19  1  0
 19 20  3  0
 11 21  1  0
 21 22  1  0
 22 23  2  0
 23 24  1  0
 24 25  1  0
 24 26  1  0
 26  1  1  0
 18 13  1  0
 26 21  2  0
  1 27  1  0
  3 28  1  0
  4 29  1  0
  4 30  1  0
  5 31  1  0
  5 32  1  0
  6 33  1  0
  6 34  1  0
  8 35  1  0
  8 36  1  0
  9 37  1  0
  9 38  1  0
  9 39  1  0
 14 40  1  0
 15 41  1  0
 16 42  1  0
 17 43  1  0
 22 44  1  0
 25 45  1  0
 25 46  1  0
 25 47  1  0
M  END
>  <ScrubInfo>  (6) 
{"isomerGroup": 0, "isomerId": 5, "confId": 0, "nr_conformers:": 1, "nr_isomers:": 9}

$$$$
_i6
     RDKit          3D

 47 49  0  0  0  0  0  0  0  0999 V2000
    0.6219   -3.5824    2.6193 N   0  0  0  0  0  0  0  0  0  0  0  0
   -0.6163   -2.9516    2.5605 C   0  0  0  0  0  0  0  0  0  0  0  0
   -0.6543   -1.9592    1.6598 C   0  0  0  0  0  0  0  0  0  0  0  0
   -1.6224   -0.9884    1.1370 C   0  0  0  0  0  0  0  0  0  0  0  0
   -2.8979   -0.9582    1.6750 N   0  0  0  0  0  0  0  0  0  0  0  0
   -4.0229   -0.1709    1.3228 C   0  0  0  0  0  0  0  0  0  0  0  0
   -4.0456    0.6681    0.1988 C   0  0  0  0  0  0  0  0  0  0  0  0
   -5.1634    1.4527   -0.1126 C   0  0  0  0  0  0  0  0  0  0  0  0
   -6.2917    1.4236    0.6974 C   0  0  0  0  0  0  0  0  0  0  0  0
   -6.3032    0.6082    1.8238 C   0  0  0  0  0  0  0  0  0  0  0  0
   -5.1829   -0.1794    2.1380 C   0  0  0  0  0  0  0  0  0  0  0  0
   -5.2461   -0.9984    3.3136 C   0  0  0  0  0  0  0  0  0  0  0  0
   -5.2341   -1.6910    4.2450 N   0  0  0  0  0  0  0  0  0  0  0  0
   -1.2067   -0.1998    0.1901 N   0  0  0  0  0  0  0  0  0  0  0  0
    0.0777   -0.3067   -0.2920 C   0  0  0  0  0  0  0  0  0  0  0  0
    0.3207    0.4729   -1.2865 N   0  0  0  0  0  0  0  0  0  0  0  0
    1.6641    0.4313   -1.8647 C   0  0  0  0  0  0  0  0  0  0  0  0
    1.7131    1.4428   -3.0088 C   0  0  0  0  0  0  0  0  0  0  0  0
    3.0478    1.4153   -3.7484 C   0  0  0  0  0  0  0  0  0  0  0  0
    4.1739    1.6085   -2.8938 O   0  0  0  0  0  0  0  0  0  0  0  0
    4.3259    2.9554   -2.4525 C   0  0  0  0  0  0  0  0  0  0  0  0
    5.6085    3.0491   -1.6492 C   0  0  0  0  0  0  0  0  0  0  0  0
    1.0675   -1.1365    0.1812 N   0  0  0  0  0  0  0  0  0  0  0  0
    0.7274   -1.9311    1.1339 C   0  0  0  0  0  0  0  0  0  0  0  0
    1.5034   -2.8681    1.8158 N   0  0  0  0  0  0  0  0  0  0  0  0
    2.5861   -3.5680    1.1507 C   0  0  0  0  0  0  0  0  0  0  0  0
    0.9402   -3.7774    3.5720 H   0  0  0  0  0  0  0  0  0  0  0  0
   -1.4039   -3.2966    3.2146 H   0  0  0  0  0  0  0  0  0  0  0  0
   -3.0672   -1.6123    2.4303 H   0  0  0  0  0  0  0  0  0  0  0  0
   -3.1979    0.7324   -0.4783 H   0  0  0  0  0  0  0  0  0  0  0  0
   -5.1408    2.0882   -0.9956 H   0  0  0  0  0  0  0  0  0  0  0  0
   -7.1559    2.0357    0.4517 H   0  0  0  0  0  0  0  0  0  0  0  0
   -7.1879    0.5905    2.4579 H   0  0  0  0  0  0  0  0  0  0  0  0
    1.8828   -0.5694   -2.2570 H   0  0  0  0  0  0  0  0  0  0  0  0
    2.4164    0.6927   -1.1110 H   0  0  0  0  0  0  0  0  0  0  0  0
    1.5208    2.4448   -2.6080 H   0  0  0  0  0  0  0  0  0  0  0  0
    0.9068    1.2355   -3.7233 H   0  0  0  0  0  0  0  0  0  0  0  0
    3.0587    2.1586   -4.5541 H   0  0  0  0  0  0  0  0  0  0  0  0
    3.1755    0.4348   -4.2207 H   0  0  0  0  0  0  0  0  0  0  0  0
    3.4804    3.2450   -1.8213 H   0  0  0  0  0  0  0  0  0  0  0  0
    4.3797    3.6275   -3.3157 H   0  0  0  0  0  0  0  0  0  0  0  0
    5.7694    4.0688   -1.2883 H   0  0  0  0  0  0  0  0  0  0  0  0
    6.4679    2.7500   -2.2584 H   0  0  0  0  0  0  0  0  0  0  0  0
    5.5755    2.3710   -0.7899 H   0  0  0  0  0  0  0  0  0  0  0  0
    3.2923   -2.8564    0.7110 H   0  0  0  0  0  0  0  0  0  0  0  0
    2.2003   -4.2158    0.3566 H   0  0  0  0  0  0  0  0  0  0  0  0
    3.1367   -4.1859    1.8674 H   0  0  0  0  0  0  0  0  0  0  0  0
  1  2  1  0
  2  3  2  0
  3  4  1  0
  4  5  1  0
  5  6  1  0
  6  7  2  0
  7  8  1  0
  8  9  2  0
  9 10  1  0
 10 11  2  0
 11 12  1  0
 12 13  3  0
  4 14  2  0
 14 15  1  0
 15 16  2  3
 16 17  1  0
 17 18  1  0
 18 19  1  0
 19 20  1  0
 20 21  1  0
 21 22  1  0
 15 23  1  0
 23 24  2  0
 24 25  1  0
 25 26  1  0
 25  1  1  0
 24  3  1  0
 11  6  1  0
  1 27  1  0
  2 28  1  0
  5 29  1  0
  7 30  1  0
  8 31  1  0
  9 32  1  0
 10 33  1  0
 17 34  1  0
 17 35  1  0
 18 36  1  0
 18 37  1  0
 19 38  1  0
 19 39  1  0
 21 40  1  0
 21 41  1  0
 22 42  1  0
 22 43  1  0
 22 44  1  0
 26 45  1  0
 26 46  1  0
 26 47  1  0
M  END
>  <ScrubInfo>  (7) 
{"isomerGroup": 0, "isomerId": 6, "confId": 0, "nr_conformers:": 1, "nr_isomers:": 9}

$$$$
_i7
     RDKit          3D

 47 49  0  0  0  0  0  0  0  0999 V2000
    1.5908   -3.2326   -2.2152 N   0  0  0  0  0  0  0  0  0  0  0  0
    0.2474   -2.8842   -2.2886 C   0  0  0  0  0  0  0  0  0  0  0  0
   -0.0997   -1.9097   -1.4355 C   0  0  0  0  0  0  0  0  0  0  0  0
   -1.2708   -1.1013   -1.0503 C   0  0  0  0  0  0  0  0  0  0  0  0
   -2.4945   -1.1606   -1.4899 N   0  0  0  0  0  0  0  0  0  0  0  0
   -2.8677   -2.0838   -2.4771 C   0  0  0  0  0  0  0  0  0  0  0  0
   -3.3107   -3.3534   -2.0826 C   0  0  0  0  0  0  0  0  0  0  0  0
   -3.7185   -4.2941   -3.0303 C   0  0  0  0  0  0  0  0  0  0  0  0
   -3.7027   -3.9694   -4.3848 C   0  0  0  0  0  0  0  0  0  0  0  0
   -3.2881   -2.7004   -4.7913 C   0  0  0  0  0  0  0  0  0  0  0  0
   -2.8788   -1.7524   -3.8419 C   0  0  0  0  0  0  0  0  0  0  0  0
   -2.4679   -0.4529   -4.2864 C   0  0  0  0  0  0  0  0  0  0  0  0
   -2.1238    0.5838   -4.6805 N   0  0  0  0  0  0  0  0  0  0  0  0
   -0.9750   -0.1660   -0.0938 N   0  0  0  0  0  0  0  0  0  0  0  0
    0.2411    0.0573    0.5017 C   0  0  0  0  0  0  0  0  0  0  0  0
    0.5103    0.9631    1.3740 N   0  0  0  0  0  0  0  0  0  0  0  0
   -0.5373    1.8783    1.8058 C   0  0  0  0  0  0  0  0  0  0  0  0
    0.0327    2.8243    2.8582 C   0  0  0  0  0  0  0  0  0  0  0  0
    1.1066    3.7477    2.2873 C   0  0  0  0  0  0  0  0  0  0  0  0
    1.5000    4.7300    3.2499 O   0  0  0  0  0  0  0  0  0  0  0  0
    2.4745    4.2439    4.1705 C   0  0  0  0  0  0  0  0  0  0  0  0
    2.8394    5.3719    5.1158 C   0  0  0  0  0  0  0  0  0  0  0  0
    1.3328   -0.7262    0.1933 N   0  0  0  0  0  0  0  0  0  0  0  0
    1.1866   -1.6533   -0.6990 C   0  0  0  0  0  0  0  0  0  0  0  0
    2.1547   -2.5567   -1.1436 N   0  0  0  0  0  0  0  0  0  0  0  0
    3.5539   -2.1760   -1.2027 C   0  0  0  0  0  0  0  0  0  0  0  0
    1.7581   -4.2407   -2.2506 H   0  0  0  0  0  0  0  0  0  0  0  0
   -0.3725   -3.4083   -3.0000 H   0  0  0  0  0  0  0  0  0  0  0  0
   -3.3423   -3.6066   -1.0252 H   0  0  0  0  0  0  0  0  0  0  0  0
   -4.0584   -5.2760   -2.7086 H   0  0  0  0  0  0  0  0  0  0  0  0
   -4.0264   -4.6995   -5.1236 H   0  0  0  0  0  0  0  0  0  0  0  0
   -3.2935   -2.4510   -5.8513 H   0  0  0  0  0  0  0  0  0  0  0  0
   -1.7439    0.4304    0.1647 H   0  0  0  0  0  0  0  0  0  0  0  0
   -0.9250    2.4574    0.9594 H   0  0  0  0  0  0  0  0  0  0  0  0
   -1.3674    1.3204    2.2553 H   0  0  0  0  0  0  0  0  0  0  0  0
   -0.7771    3.4340    3.2774 H   0  0  0  0  0  0  0  0  0  0  0  0
    0.4400    2.2459    3.6954 H   0  0  0  0  0  0  0  0  0  0  0  0
    1.9810    3.1936    1.9269 H   0  0  0  0  0  0  0  0  0  0  0  0
    0.6953    4.2971    1.4334 H   0  0  0  0  0  0  0  0  0  0  0  0
    3.3668    3.9152    3.6266 H   0  0  0  0  0  0  0  0  0  0  0  0
    2.0718    3.4026    4.7427 H   0  0  0  0  0  0  0  0  0  0  0  0
    3.5899    5.0457    5.8413 H   0  0  0  0  0  0  0  0  0  0  0  0
    1.9542    5.7232    5.6565 H   0  0  0  0  0  0  0  0  0  0  0  0
    3.2341    6.2288    4.5598 H   0  0  0  0  0  0  0  0  0  0  0  0
    4.1698   -3.0343   -1.4905 H   0  0  0  0  0  0  0  0  0  0  0  0
    3.9015   -1.8295   -0.2242 H   0  0  0  0  0  0  0  0  0  0  0  0
    3.7087   -1.3760   -1.9342 H   0  0  0  0  0  0  0  0  0  0  0  0
  1  2  1  0
  2  3  2  0
  3  4  1  0
  4  5  2  3
  5  6  1  0
  6  7  2  0
  7  8  1  0
  8  9  2  0
  9 10  1  0
 10 11  2  0
 11 12  1  0
 12 13  3  0
  4 14  1  0
 14 15  1  0
 15 16  2  3
 16 17  1  0
 17 18  1  0
 18 19  1  0
 19 20  1  0
 20 21  1  0
 21 22  1  0
 15 23  1  0
 23 24  2  0
 24 25  1  0
 25 26  1  0
 25  1  1  0
 24  3  1  0
 11  6  1  0
  1 27  1  0
  2 28  1  0
  7 29  1  0
  8 30  1  0
  9 31  1  0
 10 32  1  0
 14 33  1  0
 17 34  1  0
 17 35  1  0
 18 36  1  0
 18 37  1  0
 19 38  1  0
 19 39  1  0
 21 40  1  0
 21 41  1  0
 22 42  1  0
 22 43  1  0
 22 44  1  0
 26 45  1  0
 26 46  1  0
 26 47  1  0
M  END
>  <ScrubInfo>  (8) 
{"isomerGroup": 0, "isomerId": 7, "confId": 0, "nr_conformers:": 1, "nr_isomers:": 9}

$$$$
_i8
     RDKit          3D

 47 49  0  0  0  0  0  0  0  0999 V2000
   -0.9496   -3.1253    0.4109 N   0  0  0  0  0  0  0  0  0  0  0  0
   -0.2290   -1.9462    0.4328 C   0  0  0  0  0  0  0  0  0  0  0  0
    1.0421   -2.0131    0.6381 N   0  0  0  0  0  0  0  0  0  0  0  0
    1.8474   -0.7925    0.6909 C   0  0  0  0  0  0  0  0  0  0  0  0
    2.3035   -0.4075   -0.7155 C   0  0  0  0  0  0  0  0  0  0  0  0
    3.0208    0.9385   -0.7410 C   0  0  0  0  0  0  0  0  0  0  0  0
    4.1584    0.8883    0.1139 O   0  0  0  0  0  0  0  0  0  0  0  0
    4.8856    2.1136    0.1676 C   0  0  0  0  0  0  0  0  0  0  0  0
    5.8017    2.2702   -1.0328 C   0  0  0  0  0  0  0  0  0  0  0  0
   -1.0035   -0.8186    0.2101 N   0  0  0  0  0  0  0  0  0  0  0  0
   -2.3604   -0.6955   -0.0364 C   0  0  0  0  0  0  0  0  0  0  0  0
   -3.0846    0.3508   -0.2683 N   0  0  0  0  0  0  0  0  0  0  0  0
   -2.4585    1.6078   -0.2878 C   0  0  0  0  0  0  0  0  0  0  0  0
   -1.8417    2.0385   -1.4710 C   0  0  0  0  0  0  0  0  0  0  0  0
   -1.2019    3.2774   -1.5340 C   0  0  0  0  0  0  0  0  0  0  0  0
   -1.1827    4.1072   -0.4158 C   0  0  0  0  0  0  0  0  0  0  0  0
   -1.8111    3.7014    0.7624 C   0  0  0  0  0  0  0  0  0  0  0  0
   -2.4559    2.4572    0.8298 C   0  0  0  0  0  0  0  0  0  0  0  0
   -3.0932    2.0706    2.0547 C   0  0  0  0  0  0  0  0  0  0  0  0
   -3.5736    1.7898    3.0737 N   0  0  0  0  0  0  0  0  0  0  0  0
   -3.0111   -1.9829   -0.0271 C   0  0  0  0  0  0  0  0  0  0  0  0
   -4.3263   -2.4363   -0.2045 C   0  0  0  0  0  0  0  0  0  0  0  0
   -4.4212   -3.7717   -0.1099 N   0  0  0  0  0  0  0  0  0  0  0  0
   -3.1509   -4.1706    0.1477 N   0  0  0  0  0  0  0  0  0  0  0  0
   -2.8835   -5.5754    0.3247 C   0  0  0  0  0  0  0  0  0  0  0  0
   -2.2814   -3.1243    0.1943 C   0  0  0  0  0  0  0  0  0  0  0  0
   -0.3944   -3.9562    0.5799 H   0  0  0  0  0  0  0  0  0  0  0  0
    2.7208   -0.9965    1.3210 H   0  0  0  0  0  0  0  0  0  0  0  0
    1.3134    0.0299    1.1805 H   0  0  0  0  0  0  0  0  0  0  0  0
    1.4474   -0.3662   -1.3988 H   0  0  0  0  0  0  0  0  0  0  0  0
    2.9763   -1.1887   -1.0905 H   0  0  0  0  0  0  0  0  0  0  0  0
    2.3412    1.7299   -0.4039 H   0  0  0  0  0  0  0  0  0  0  0  0
    3.3310    1.1572   -1.7677 H   0  0  0  0  0  0  0  0  0  0  0  0
    5.4963    2.0804    1.0759 H   0  0  0  0  0  0  0  0  0  0  0  0
    4.2032    2.9656    0.2633 H   0  0  0  0  0  0  0  0  0  0  0  0
    6.4381    3.1526   -0.9189 H   0  0  0  0  0  0  0  0  0  0  0  0
    5.2300    2.3795   -1.9590 H   0  0  0  0  0  0  0  0  0  0  0  0
    6.4382    1.3871   -1.1500 H   0  0  0  0  0  0  0  0  0  0  0  0
   -0.4993    0.0506    0.2052 H   0  0  0  0  0  0  0  0  0  0  0  0
   -1.8706    1.4028   -2.3538 H   0  0  0  0  0  0  0  0  0  0  0  0
   -0.7317    3.5994   -2.4606 H   0  0  0  0  0  0  0  0  0  0  0  0
   -0.6924    5.0772   -0.4651 H   0  0  0  0  0  0  0  0  0  0  0  0
   -1.8028    4.3638    1.6270 H   0  0  0  0  0  0  0  0  0  0  0  0
   -5.2180   -1.8548   -0.4010 H   0  0  0  0  0  0  0  0  0  0  0  0
   -3.0608   -6.0803   -0.6282 H   0  0  0  0  0  0  0  0  0  0  0  0
   -3.5574   -5.9622    1.0935 H   0  0  0  0  0  0  0  0  0  0  0  0
   -1.8480   -5.7226    0.6376 H   0  0  0  0  0  0  0  0  0  0  0  0
  1  2  1  0
  2  3  2  3
  3  4  1  0
  4  5  1  0
  5  6  1  0
  6  7  1  0
  7  8  1  0
  8  9  1  0
  2 10  1  0
 10 11  1  0
 11 12  2  3
 12 13  1  0
 13 14  2  0
 14 15  1  0
 15 16  2  0
 16 17  1  0
 17 18  2  0
 18 19  1  0
 19 20  3  0
 11 21  1  0
 21 22  1  0
 22 23  2  0
 23 24  1  0
 24 25  1  0
 24 26  1  0
 26  1  1  0
 18 13  1  0
 26 21  2  0
  1 27  1  0
  4 28  1  0
  4 29  1  0
  5 30  1  0
  5 31  1  0
  6 32  1  0
  6 33  1  0
  8 34  1  0
  8 35  1  0
  9 36  1  0
  9 37  1  0
  9 38  1  0
 10 39  1  0
 14 40  1  0
 15 41  1  0
 16 42  1  0
 17 43  1  0
 22 44  1  0
 25 45  1  0
 25 46  1  0
 25 47  1  0
M  END
>  <ScrubInfo>  (9) 
{"isomerGroup": 0, "isomerId": 8, "confId": 0, "nr_conformers:": 1, "nr_isomers:": 9}

$$$$
