_i0
     RDKit          3D

 52 55  0  0  0  0  0  0  0  0999 V2000
    4.9997    4.3920    0.0812 C   0  0  0  0  0  0  0  0  0  0  0  0
    5.4258    3.1026    0.5048 O   0  0  0  0  0  0  0  0  0  0  0  0
    4.5086    2.0906    0.4190 C   0  0  0  0  0  0  0  0  0  0  0  0
    3.1992    2.2101   -0.0385 C   0  0  0  0  0  0  0  0  0  0  0  0
    2.3595    1.0901   -0.0753 C   0  0  0  0  0  0  0  0  0  0  0  0
    2.8095   -0.1649    0.3416 C   0  0  0  0  0  0  0  0  0  0  0  0
    2.0105   -1.3268    0.3318 N   0  0  0  0  0  0  0  0  0  0  0  0
    0.6794   -1.5789   -0.0116 C   0  0  0  0  0  0  0  0  0  0  0  0
   -0.1612   -0.5927   -0.4222 N   0  0  0  0  0  0  0  0  0  0  0  0
   -1.4397   -0.8609   -0.7413 C   0  0  0  0  0  0  0  0  0  0  0  0
   -2.1794    0.2412   -1.1526 N   0  0  0  0  0  0  0  0  0  0  0  0
   -3.5572    0.2484   -0.6757 C   0  0  0  0  0  0  0  0  0  0  0  0
   -4.1883    1.6237   -0.9676 C   0  0  0  0  0  0  0  0  0  0  0  0
   -5.6515    1.6973   -0.5540 C   0  0  0  0  0  0  0  0  0  0  0  0
   -5.5751    2.2307    0.8547 C   0  0  0  0  0  0  0  0  0  0  0  0
   -4.4078    3.1867    0.7635 C   0  0  0  0  0  0  0  0  0  0  0  0
   -3.4955    2.6313   -0.1926 O   0  0  0  0  0  0  0  0  0  0  0  0
   -2.0229   -2.0668   -0.6912 N   0  0  0  0  0  0  0  0  0  0  0  0
   -1.1815   -3.0295   -0.2889 C   0  0  0  0  0  0  0  0  0  0  0  0
    0.1447   -2.8712    0.0607 C   0  0  0  0  0  0  0  0  0  0  0  0
    0.5717   -4.1703    0.4083 C   0  0  0  0  0  0  0  0  0  0  0  0
   -0.3965   -5.0865    0.2925 N   0  0  0  0  0  0  0  0  0  0  0  0
   -1.4544   -4.3620   -0.1421 N   0  0  0  0  0  0  0  0  0  0  0  0
   -2.7089   -5.0230   -0.3989 C   0  0  0  0  0  0  0  0  0  0  0  0
    4.1420   -0.2794    0.8047 C   0  0  0  0  0  0  0  0  0  0  0  0
    4.5118   -1.5488    1.1968 O   0  0  0  0  0  0  0  0  0  0  0  0
    5.8440   -1.7130    1.6681 C   0  0  0  0  0  0  0  0  0  0  0  0
    4.9763    0.8429    0.8399 C   0  0  0  0  0  0  0  0  0  0  0  0
    4.7301    4.3899   -0.9801 H   0  0  0  0  0  0  0  0  0  0  0  0
    5.8408    5.0803    0.2093 H   0  0  0  0  0  0  0  0  0  0  0  0
    4.1734    4.7576    0.6997 H   0  0  0  0  0  0  0  0  0  0  0  0
    2.7913    3.1567   -0.3768 H   0  0  0  0  0  0  0  0  0  0  0  0
    1.3476    1.2252   -0.4430 H   0  0  0  0  0  0  0  0  0  0  0  0
    2.5384   -2.1328    0.6486 H   0  0  0  0  0  0  0  0  0  0  0  0
   -1.6530    1.0584   -0.8496 H   0  0  0  0  0  0  0  0  0  0  0  0
   -3.5768    0.0592    0.4053 H   0  0  0  0  0  0  0  0  0  0  0  0
   -4.1360   -0.5323   -1.1834 H   0  0  0  0  0  0  0  0  0  0  0  0
   -4.0703    1.8684   -2.0295 H   0  0  0  0  0  0  0  0  0  0  0  0
   -6.1840    0.7454   -0.6326 H   0  0  0  0  0  0  0  0  0  0  0  0
   -6.1731    2.4257   -1.1871 H   0  0  0  0  0  0  0  0  0  0  0  0
   -6.4962    2.7139    1.1909 H   0  0  0  0  0  0  0  0  0  0  0  0
   -5.3417    1.4166    1.5504 H   0  0  0  0  0  0  0  0  0  0  0  0
   -3.8995    3.3239    1.7218 H   0  0  0  0  0  0  0  0  0  0  0  0
   -4.7261    4.1668    0.3925 H   0  0  0  0  0  0  0  0  0  0  0  0
    1.5503   -4.4893    0.7425 H   0  0  0  0  0  0  0  0  0  0  0  0
   -3.0491   -5.4873    0.5302 H   0  0  0  0  0  0  0  0  0  0  0  0
   -3.4506   -4.2994   -0.7442 H   0  0  0  0  0  0  0  0  0  0  0  0
   -2.5463   -5.7821   -1.1682 H   0  0  0  0  0  0  0  0  0  0  0  0
    6.0201   -1.1178    2.5701 H   0  0  0  0  0  0  0  0  0  0  0  0
    5.9752   -2.7662    1.9350 H   0  0  0  0  0  0  0  0  0  0  0  0
    6.5720   -1.4759    0.8854 H   0  0  0  0  0  0  0  0  0  0  0  0
    6.0008    0.7821    1.1904 H   0  0  0  0  0  0  0  0  0  0  0  0
  1  2  1  0
  2  3  1  0
  3  4  2  0
  4  5  1  0
  5  6  2  0
  6  7  1  0
  7  8  1  0
  8  9  2  0
  9 10  1  0
 10 11  1  0
 11 12  1  0
 12 13  1  0
 13 14  1  0
 14 15  1  0
 15 16  1  0
 16 17  1  0
 10 18  2  0
 18 19  1  0
 19 20  2  0
 20 21  1  0
 21 22  2  0
 22 23  1  0
 23 24  1  0
  6 25  1  0
 25 26  1  0
 26 27  1  0
 25 28  2  0
 28  3  1  0
 20  8  1  0
 17 13  1  0
 23 19  1  0
  1 29  1  0
  1 30  1  0
  1 31  1  0
  4 32  1  0
  5 33  1  0
  7 34  1  0
 11 35  1  0
 12 36  1  0
 12 37  1  0
 13 38  1  0
 14 39  1  0
 14 40  1  0
 15 41  1  0
 15 42  1  0
 16 43  1  0
 16 44  1  0
 21 45  1  0
 24 46  1  0
 24 47  1  0
 24 48  1  0
 27 49  1  0
 27 50  1  0
 27 51  1  0
 28 52  1  0
M  END
>  <ScrubInfo>  (1) 
{"isomerGroup": 0, "isomerId": 0, "confId": 0, "nr_conformers:": 1, "nr_isomers:": 9}

$$$$
_i1
     RDKit          3D

 52 55  0  0  0  0  0  0  0  0999 V2000
   -0.0811   -0.9167   -0.4406 N   0  0  0  0  0  0  0  0  0  0  0  0
   -0.9091   -0.7763   -1.5302 C   0  0  0  0  0  0  0  0  0  0  0  0
   -1.0805    0.4935   -2.0045 N   0  0  0  0  0  0  0  0  0  0  0  0
   -1.3167    1.6356   -1.1264 C   0  0  0  0  0  0  0  0  0  0  0  0
   -1.4917    2.9392   -1.9252 C   0  0  0  0  0  0  0  0  0  0  0  0
   -2.8212    3.0348   -2.6663 C   0  0  0  0  0  0  0  0  0  0  0  0
   -3.6990    3.7790   -1.6911 C   0  0  0  0  0  0  0  0  0  0  0  0
   -2.7171    4.7384   -1.0616 C   0  0  0  0  0  0  0  0  0  0  0  0
   -1.4615    4.0498   -1.0024 O   0  0  0  0  0  0  0  0  0  0  0  0
   -1.5249   -1.7674   -2.1286 N   0  0  0  0  0  0  0  0  0  0  0  0
   -1.2389   -2.9594   -1.5329 C   0  0  0  0  0  0  0  0  0  0  0  0
   -0.4129   -3.1938   -0.4512 C   0  0  0  0  0  0  0  0  0  0  0  0
   -0.4590   -4.5790   -0.2431 C   0  0  0  0  0  0  0  0  0  0  0  0
   -1.2582   -5.1978   -1.1227 N   0  0  0  0  0  0  0  0  0  0  0  0
   -1.7191   -4.1857   -1.9003 N   0  0  0  0  0  0  0  0  0  0  0  0
   -2.6208   -4.4832   -2.9840 C   0  0  0  0  0  0  0  0  0  0  0  0
    0.2712   -2.0944    0.1835 C   0  0  0  0  0  0  0  0  0  0  0  0
    1.0631   -2.3572    1.1682 N   0  0  0  0  0  0  0  0  0  0  0  0
    1.7204   -1.3087    1.8351 C   0  0  0  0  0  0  0  0  0  0  0  0
    1.5132   -1.1851    3.2115 C   0  0  0  0  0  0  0  0  0  0  0  0
    2.1286   -0.1657    3.9496 C   0  0  0  0  0  0  0  0  0  0  0  0
    2.9679    0.7499    3.3152 C   0  0  0  0  0  0  0  0  0  0  0  0
    3.6173    1.7940    3.9129 O   0  0  0  0  0  0  0  0  0  0  0  0
    3.4260    1.9554    5.3129 C   0  0  0  0  0  0  0  0  0  0  0  0
    3.1957    0.6288    1.9436 C   0  0  0  0  0  0  0  0  0  0  0  0
    2.6008   -0.4058    1.2179 C   0  0  0  0  0  0  0  0  0  0  0  0
    2.8368   -0.4368   -0.1350 O   0  0  0  0  0  0  0  0  0  0  0  0
    3.7702   -1.4746   -0.4462 C   0  0  0  0  0  0  0  0  0  0  0  0
    0.5280   -0.1368   -0.2471 H   0  0  0  0  0  0  0  0  0  0  0  0
   -1.7351    0.4545   -2.7821 H   0  0  0  0  0  0  0  0  0  0  0  0
   -0.4714    1.7645   -0.4401 H   0  0  0  0  0  0  0  0  0  0  0  0
   -2.1978    1.4514   -0.4998 H   0  0  0  0  0  0  0  0  0  0  0  0
   -0.6543    3.0547   -2.6230 H   0  0  0  0  0  0  0  0  0  0  0  0
   -2.6898    3.6442   -3.5693 H   0  0  0  0  0  0  0  0  0  0  0  0
   -3.2400    2.0737   -2.9750 H   0  0  0  0  0  0  0  0  0  0  0  0
   -4.0864    3.0863   -0.9351 H   0  0  0  0  0  0  0  0  0  0  0  0
   -4.5469    4.2836   -2.1614 H   0  0  0  0  0  0  0  0  0  0  0  0
   -2.5818    5.6323   -1.6800 H   0  0  0  0  0  0  0  0  0  0  0  0
   -3.0154    5.0494   -0.0567 H   0  0  0  0  0  0  0  0  0  0  0  0
    0.0545   -5.1632    0.5093 H   0  0  0  0  0  0  0  0  0  0  0  0
   -2.1125   -5.1565   -3.6788 H   0  0  0  0  0  0  0  0  0  0  0  0
   -2.9046   -3.5638   -3.5006 H   0  0  0  0  0  0  0  0  0  0  0  0
   -3.5105   -4.9635   -2.5689 H   0  0  0  0  0  0  0  0  0  0  0  0
    0.8577   -1.8919    3.7155 H   0  0  0  0  0  0  0  0  0  0  0  0
    1.9262   -0.1172    5.0144 H   0  0  0  0  0  0  0  0  0  0  0  0
    2.3753    2.1562    5.5470 H   0  0  0  0  0  0  0  0  0  0  0  0
    3.7953    1.0847    5.8648 H   0  0  0  0  0  0  0  0  0  0  0  0
    4.0100    2.8241    5.6321 H   0  0  0  0  0  0  0  0  0  0  0  0
    3.8447    1.3395    1.4389 H   0  0  0  0  0  0  0  0  0  0  0  0
    4.0333   -1.3775   -1.5038 H   0  0  0  0  0  0  0  0  0  0  0  0
    4.6898   -1.3729    0.1412 H   0  0  0  0  0  0  0  0  0  0  0  0
    3.3323   -2.4666   -0.2995 H   0  0  0  0  0  0  0  0  0  0  0  0
  1  2  1  0
  2  3  1  0
  3  4  1  0
  4  5  1  0
  5  6  1  0
  6  7  1  0
  7  8  1  0
  8  9  1  0
  2 10  2  0
 10 11  1  0
 11 12  2  0
 12 13  1  0
 13 14  2  0
 14 15  1  0
 15 16  1  0
 12 17  1  0
 17 18  2  3
 18 19  1  0
 19 20  2  0
 20 21  1  0
 21 22  2  0
 22 23  1  0
 23 24  1  0
 22 25  1  0
 25 26  2  0
 26 27  1  0
 27 28  1  0
 17  1  1  0
 26 19  1  0
  9  5  1  0
 15 11  1  0
  1 29  1  0
  3 30  1  0
  4 31  1  0
  4 32  1  0
  5 33  1  0
  6 34  1  0
  6 35  1  0
  7 36  1  0
  7 37  1  0
  8 38  1  0
  8 39  1  0
 13 40  1  0
 16 41  1  0
 16 42  1  0
 16 43  1  0
 20 44  1  0
 21 45  1  0
 24 46  1  0
 24 47  1  0
 24 48  1  0
 25 49  1  0
 28 50  1  0
 28 51  1  0
 28 52  1  0
M  END
>  <ScrubInfo>  (2) 
{"isomerGroup": 0, "isomerId": 1, "confId": 0, "nr_conformers:": 1, "nr_isomers:": 9}

$$$$
_i2
     RDKit          3D

 52 55  0  0  0  0  0  0  0  0999 V2000
    0.1031   -0.5647    0.0247 N   0  0  0  0  0  0  0  0  0  0  0  0
   -0.7674   -1.2853   -0.7713 C   0  0  0  0  0  0  0  0  0  0  0  0
   -2.0677   -0.9019   -1.0221 N   0  0  0  0  0  0  0  0  0  0  0  0
   -2.9234   -0.0141   -0.3352 C   0  0  0  0  0  0  0  0  0  0  0  0
   -2.7292    0.3584    0.9974 C   0  0  0  0  0  0  0  0  0  0  0  0
   -3.5873    1.2733    1.6119 C   0  0  0  0  0  0  0  0  0  0  0  0
   -4.6550    1.8333    0.9107 C   0  0  0  0  0  0  0  0  0  0  0  0
   -5.4112    2.7113    1.6375 O   0  0  0  0  0  0  0  0  0  0  0  0
   -6.4975    3.3412    0.9708 C   0  0  0  0  0  0  0  0  0  0  0  0
   -4.8706    1.4659   -0.4186 C   0  0  0  0  0  0  0  0  0  0  0  0
   -4.0128    0.5493   -1.0426 C   0  0  0  0  0  0  0  0  0  0  0  0
   -4.1422    0.1104   -2.3434 O   0  0  0  0  0  0  0  0  0  0  0  0
   -5.1387    0.7355   -3.1432 C   0  0  0  0  0  0  0  0  0  0  0  0
   -0.2306   -2.3731   -1.3384 C   0  0  0  0  0  0  0  0  0  0  0  0
   -0.6521   -3.4426   -2.2490 C   0  0  0  0  0  0  0  0  0  0  0  0
    0.2977   -4.3074   -2.5019 N   0  0  0  0  0  0  0  0  0  0  0  0
    1.3961   -3.8915   -1.7299 N   0  0  0  0  0  0  0  0  0  0  0  0
    2.6998   -4.4354   -2.0241 C   0  0  0  0  0  0  0  0  0  0  0  0
    1.1817   -2.7043   -1.0469 C   0  0  0  0  0  0  0  0  0  0  0  0
    1.9862   -1.9988   -0.3269 N   0  0  0  0  0  0  0  0  0  0  0  0
    1.4333   -0.8491    0.1946 C   0  0  0  0  0  0  0  0  0  0  0  0
    2.1641   -0.0092    0.8495 N   0  0  0  0  0  0  0  0  0  0  0  0
    3.5905   -0.3349    0.9890 C   0  0  0  0  0  0  0  0  0  0  0  0
    4.2993    0.8078    1.7246 C   0  0  0  0  0  0  0  0  0  0  0  0
    5.6810    0.4144    2.2253 C   0  0  0  0  0  0  0  0  0  0  0  0
    6.3623    1.7555    2.3241 C   0  0  0  0  0  0  0  0  0  0  0  0
    5.8209    2.4709    1.1056 C   0  0  0  0  0  0  0  0  0  0  0  0
    4.5146    1.9384    0.8512 O   0  0  0  0  0  0  0  0  0  0  0  0
   -0.1761    0.3704    0.2832 H   0  0  0  0  0  0  0  0  0  0  0  0
   -2.5048   -1.2657   -1.8659 H   0  0  0  0  0  0  0  0  0  0  0  0
   -1.9365   -0.0820    1.5950 H   0  0  0  0  0  0  0  0  0  0  0  0
   -3.4240    1.5456    2.6524 H   0  0  0  0  0  0  0  0  0  0  0  0
   -6.9788    4.0192    1.6823 H   0  0  0  0  0  0  0  0  0  0  0  0
   -7.2445    2.6061    0.6538 H   0  0  0  0  0  0  0  0  0  0  0  0
   -6.1474    3.9407    0.1240 H   0  0  0  0  0  0  0  0  0  0  0  0
   -5.7046    1.8863   -0.9635 H   0  0  0  0  0  0  0  0  0  0  0  0
   -4.9718    1.8154   -3.2135 H   0  0  0  0  0  0  0  0  0  0  0  0
   -5.0635    0.3213   -4.1532 H   0  0  0  0  0  0  0  0  0  0  0  0
   -6.1418    0.5113   -2.7664 H   0  0  0  0  0  0  0  0  0  0  0  0
   -1.6666   -3.4667   -2.6666 H   0  0  0  0  0  0  0  0  0  0  0  0
    3.3572   -4.3672   -1.1515 H   0  0  0  0  0  0  0  0  0  0  0  0
    2.6250   -5.4914   -2.3033 H   0  0  0  0  0  0  0  0  0  0  0  0
    3.1622   -3.8899   -2.8526 H   0  0  0  0  0  0  0  0  0  0  0  0
    3.6975   -1.2583    1.5710 H   0  0  0  0  0  0  0  0  0  0  0  0
    4.0485   -0.4664    0.0009 H   0  0  0  0  0  0  0  0  0  0  0  0
    3.6858    1.1628    2.5625 H   0  0  0  0  0  0  0  0  0  0  0  0
    5.6500   -0.1273    3.1747 H   0  0  0  0  0  0  0  0  0  0  0  0
    6.2017   -0.2098    1.4888 H   0  0  0  0  0  0  0  0  0  0  0  0
    7.4537    1.6958    2.3343 H   0  0  0  0  0  0  0  0  0  0  0  0
    6.0387    2.2711    3.2360 H   0  0  0  0  0  0  0  0  0  0  0  0
    6.4384    2.2725    0.2232 H   0  0  0  0  0  0  0  0  0  0  0  0
    5.7568    3.5532    1.2491 H   0  0  0  0  0  0  0  0  0  0  0  0
  1  2  1  0
  2  3  1  0
  3  4  1  0
  4  5  2  0
  5  6  1  0
  6  7  2  0
  7  8  1  0
  8  9  1  0
  7 10  1  0
 10 11  2  0
 11 12  1  0
 12 13  1  0
  2 14  2  0
 14 15  1  0
 15 16  2  0
 16 17  1  0
 17 18  1  0
 17 19  1  0
 19 20  2  0
 20 21  1  0
 21 22  2  3
 22 23  1  0
 23 24  1  0
 24 25  1  0
 25 26  1  0
 26 27  1  0
 27 28  1  0
 21  1  1  0
 28 24  1  0
 11  4  1  0
 19 14  1  0
  1 29  1  0
  3 30  1  0
  5 31  1  0
  6 32  1  0
  9 33  1  0
  9 34  1  0
  9 35  1  0
 10 36  1  0
 13 37  1  0
 13 38  1  0
 13 39  1  0
 15 40  1  0
 18 41  1  0
 18 42  1  0
 18 43  1  0
 23 44  1  0
 23 45  1  0
 24 46  1  0
 25 47  1  0
 25 48  1  0
 26 49  1  0
 26 50  1  0
 27 51  1  0
 27 52  1  0
M  END
>  <ScrubInfo>  (3) 
{"isomerGroup": 0, "isomerId": 2, "confId": 0, "nr_conformers:": 1, "nr_isomers:": 9}

$$$$
_i3
     RDKit          3D

 52 55  0  0  0  0  0  0  0  0999 V2000
   -1.4242   -0.7943    0.7509 N   0  0  0  0  0  0  0  0  0  0  0  0
   -1.5794    0.4355    0.1292 C   0  0  0  0  0  0  0  0  0  0  0  0
   -2.6329    0.8504   -0.4794 N   0  0  0  0  0  0  0  0  0  0  0  0
   -3.8164   -0.0049   -0.5585 C   0  0  0  0  0  0  0  0  0  0  0  0
   -4.9972    0.8149   -1.1147 C   0  0  0  0  0  0  0  0  0  0  0  0
   -6.0976   -0.0673   -1.6938 C   0  0  0  0  0  0  0  0  0  0  0  0
   -7.0076   -0.2885   -0.5123 C   0  0  0  0  0  0  0  0  0  0  0  0
   -6.9359    1.0508    0.1833 C   0  0  0  0  0  0  0  0  0  0  0  0
   -5.6125    1.5520   -0.0331 O   0  0  0  0  0  0  0  0  0  0  0  0
   -0.5493    1.3638    0.1096 N   0  0  0  0  0  0  0  0  0  0  0  0
    0.5912    1.0820    0.6755 C   0  0  0  0  0  0  0  0  0  0  0  0
    1.6355    1.9739    0.7032 N   0  0  0  0  0  0  0  0  0  0  0  0
    2.9661    1.6619    0.3089 C   0  0  0  0  0  0  0  0  0  0  0  0
    4.0008    2.3631    0.9419 C   0  0  0  0  0  0  0  0  0  0  0  0
    5.3311    2.1587    0.5729 C   0  0  0  0  0  0  0  0  0  0  0  0
    5.6536    1.2797   -0.4607 C   0  0  0  0  0  0  0  0  0  0  0  0
    6.9914    1.1833   -0.7280 O   0  0  0  0  0  0  0  0  0  0  0  0
    7.3828    0.2834   -1.7571 C   0  0  0  0  0  0  0  0  0  0  0  0
    4.6304    0.6085   -1.1318 C   0  0  0  0  0  0  0  0  0  0  0  0
    3.2921    0.7940   -0.7518 C   0  0  0  0  0  0  0  0  0  0  0  0
    2.2566    0.2134   -1.4409 O   0  0  0  0  0  0  0  0  0  0  0  0
    2.4696   -1.1471   -1.8055 C   0  0  0  0  0  0  0  0  0  0  0  0
    0.7774   -0.1720    1.3700 C   0  0  0  0  0  0  0  0  0  0  0  0
    1.7736   -0.8086    2.1256 C   0  0  0  0  0  0  0  0  0  0  0  0
    1.3960   -2.0271    2.5461 N   0  0  0  0  0  0  0  0  0  0  0  0
    0.1324   -2.1548    2.0721 N   0  0  0  0  0  0  0  0  0  0  0  0
   -0.6041   -3.3583    2.3621 C   0  0  0  0  0  0  0  0  0  0  0  0
   -0.2598   -1.0630    1.3658 C   0  0  0  0  0  0  0  0  0  0  0  0
   -2.2174   -1.4151    0.7534 H   0  0  0  0  0  0  0  0  0  0  0  0
   -4.0795   -0.3947    0.4319 H   0  0  0  0  0  0  0  0  0  0  0  0
   -3.5947   -0.8409   -1.2316 H   0  0  0  0  0  0  0  0  0  0  0  0
   -4.6438    1.5300   -1.8662 H   0  0  0  0  0  0  0  0  0  0  0  0
   -5.7365   -0.9947   -2.1469 H   0  0  0  0  0  0  0  0  0  0  0  0
   -6.6413    0.4902   -2.4668 H   0  0  0  0  0  0  0  0  0  0  0  0
   -6.5964   -1.0724    0.1342 H   0  0  0  0  0  0  0  0  0  0  0  0
   -8.0265   -0.5711   -0.7895 H   0  0  0  0  0  0  0  0  0  0  0  0
   -7.1333    0.9793    1.2564 H   0  0  0  0  0  0  0  0  0  0  0  0
   -7.6415    1.7645   -0.2554 H   0  0  0  0  0  0  0  0  0  0  0  0
    1.3460    2.7948    0.1734 H   0  0  0  0  0  0  0  0  0  0  0  0
    3.7734    3.0636    1.7425 H   0  0  0  0  0  0  0  0  0  0  0  0
    6.1219    2.6980    1.0892 H   0  0  0  0  0  0  0  0  0  0  0  0
    8.4749    0.3050   -1.8227 H   0  0  0  0  0  0  0  0  0  0  0  0
    7.0836   -0.7430   -1.5202 H   0  0  0  0  0  0  0  0  0  0  0  0
    6.9847    0.5981   -2.7273 H   0  0  0  0  0  0  0  0  0  0  0  0
    4.8560   -0.0344   -1.9732 H   0  0  0  0  0  0  0  0  0  0  0  0
    3.0553   -1.2100   -2.7277 H   0  0  0  0  0  0  0  0  0  0  0  0
    1.4912   -1.5970   -1.9999 H   0  0  0  0  0  0  0  0  0  0  0  0
    2.9468   -1.7179   -1.0010 H   0  0  0  0  0  0  0  0  0  0  0  0
    2.7594   -0.4486    2.3893 H   0  0  0  0  0  0  0  0  0  0  0  0
   -1.5800   -3.3255    1.8734 H   0  0  0  0  0  0  0  0  0  0  0  0
   -0.0328   -4.2115    1.9876 H   0  0  0  0  0  0  0  0  0  0  0  0
   -0.7332   -3.4299    3.4449 H   0  0  0  0  0  0  0  0  0  0  0  0
  1  2  1  0
  2  3  2  3
  3  4  1  0
  4  5  1  0
  5  6  1  0
  6  7  1  0
  7  8  1  0
  8  9  1  0
  2 10  1  0
 10 11  2  0
 11 12  1  0
 12 13  1  0
 13 14  2  0
 14 15  1  0
 15 16  2  0
 16 17  1  0
 17 18  1  0
 16 19  1  0
 19 20  2  0
 20 21  1  0
 21 22  1  0
 11 23  1  0
 23 24  1  0
 24 25  2  0
 25 26  1  0
 26 27  1  0
 26 28  1  0
 28  1  1  0
  9  5  1  0
 20 13  1  0
 28 23  2  0
  1 29  1  0
  4 30  1  0
  4 31  1  0
  5 32  1  0
  6 33  1  0
  6 34  1  0
  7 35  1  0
  7 36  1  0
  8 37  1  0
  8 38  1  0
 12 39  1  0
 14 40  1  0
 15 41  1  0
 18 42  1  0
 18 43  1  0
 18 44  1  0
 19 45  1  0
 22 46  1  0
 22 47  1  0
 22 48  1  0
 24 49  1  0
 27 50  1  0
 27 51  1  0
 27 52  1  0
M  END
>  <ScrubInfo>  (4) 
{"isomerGroup": 0, "isomerId": 3, "confId": 0, "nr_conformers:": 1, "nr_isomers:": 9}

$$$$
_i4
     RDKit          3D

 52 55  0  0  0  0  0  0  0  0999 V2000
    1.5641    0.8281   -0.4513 N   0  0  0  0  0  0  0  0  0  0  0  0
    1.6401   -0.5385   -0.5449 C   0  0  0  0  0  0  0  0  0  0  0  0
    2.9026   -1.0591   -0.5366 N   0  0  0  0  0  0  0  0  0  0  0  0
    3.8585   -0.7278    0.5172 C   0  0  0  0  0  0  0  0  0  0  0  0
    5.2012   -1.4455    0.2979 C   0  0  0  0  0  0  0  0  0  0  0  0
    5.9569   -0.9671   -0.9374 C   0  0  0  0  0  0  0  0  0  0  0  0
    6.8827    0.0851   -0.3802 C   0  0  0  0  0  0  0  0  0  0  0  0
    7.2305   -0.4950    0.9705 C   0  0  0  0  0  0  0  0  0  0  0  0
    6.0562   -1.1767    1.4298 O   0  0  0  0  0  0  0  0  0  0  0  0
    0.6277   -1.3484   -0.6637 N   0  0  0  0  0  0  0  0  0  0  0  0
   -0.6684   -0.8413   -0.6648 C   0  0  0  0  0  0  0  0  0  0  0  0
   -1.6183   -1.7205   -0.6940 N   0  0  0  0  0  0  0  0  0  0  0  0
   -2.9721   -1.3664   -0.6449 C   0  0  0  0  0  0  0  0  0  0  0  0
   -3.7184   -1.4400   -1.8236 C   0  0  0  0  0  0  0  0  0  0  0  0
   -5.0786   -1.1340   -1.8190 C   0  0  0  0  0  0  0  0  0  0  0  0
   -5.7165   -0.7640   -0.6344 C   0  0  0  0  0  0  0  0  0  0  0  0
   -7.0490   -0.4850   -0.7735 O   0  0  0  0  0  0  0  0  0  0  0  0
   -7.7584   -0.1039    0.3981 C   0  0  0  0  0  0  0  0  0  0  0  0
   -4.9843   -0.7083    0.5556 C   0  0  0  0  0  0  0  0  0  0  0  0
   -3.6160   -1.0175    0.5617 C   0  0  0  0  0  0  0  0  0  0  0  0
   -2.8134   -0.9780    1.6761 O   0  0  0  0  0  0  0  0  0  0  0  0
   -3.4419   -0.7870    2.9346 C   0  0  0  0  0  0  0  0  0  0  0  0
   -0.7953    0.6078   -0.6541 C   0  0  0  0  0  0  0  0  0  0  0  0
   -1.8201    1.5653   -0.7636 C   0  0  0  0  0  0  0  0  0  0  0  0
   -1.3643    2.8281   -0.7139 N   0  0  0  0  0  0  0  0  0  0  0  0
   -0.0278    2.6793   -0.5743 N   0  0  0  0  0  0  0  0  0  0  0  0
    0.8024    3.8530   -0.4843 C   0  0  0  0  0  0  0  0  0  0  0  0
    0.3390    1.3725   -0.5437 C   0  0  0  0  0  0  0  0  0  0  0  0
    2.4202    1.3467   -0.5869 H   0  0  0  0  0  0  0  0  0  0  0  0
    2.8034   -2.0708   -0.6253 H   0  0  0  0  0  0  0  0  0  0  0  0
    3.4471   -1.0231    1.4905 H   0  0  0  0  0  0  0  0  0  0  0  0
    4.0256    0.3543    0.5703 H   0  0  0  0  0  0  0  0  0  0  0  0
    5.0327   -2.5275    0.2469 H   0  0  0  0  0  0  0  0  0  0  0  0
    5.3177   -0.5982   -1.7441 H   0  0  0  0  0  0  0  0  0  0  0  0
    6.5540   -1.7948   -1.3404 H   0  0  0  0  0  0  0  0  0  0  0  0
    7.7608    0.2711   -1.0039 H   0  0  0  0  0  0  0  0  0  0  0  0
    6.3408    1.0299   -0.2566 H   0  0  0  0  0  0  0  0  0  0  0  0
    8.0383   -1.2306    0.8921 H   0  0  0  0  0  0  0  0  0  0  0  0
    7.5213    0.2693    1.6963 H   0  0  0  0  0  0  0  0  0  0  0  0
   -3.2332   -1.7427   -2.7477 H   0  0  0  0  0  0  0  0  0  0  0  0
   -5.6456   -1.1903   -2.7449 H   0  0  0  0  0  0  0  0  0  0  0  0
   -8.7990    0.0802    0.1139 H   0  0  0  0  0  0  0  0  0  0  0  0
   -7.7536   -0.9079    1.1415 H   0  0  0  0  0  0  0  0  0  0  0  0
   -7.3583    0.8255    0.8168 H   0  0  0  0  0  0  0  0  0  0  0  0
   -5.4752   -0.4208    1.4754 H   0  0  0  0  0  0  0  0  0  0  0  0
   -2.6731   -0.8712    3.7087 H   0  0  0  0  0  0  0  0  0  0  0  0
   -3.8770    0.2150    3.0072 H   0  0  0  0  0  0  0  0  0  0  0  0
   -4.1931   -1.5603    3.1266 H   0  0  0  0  0  0  0  0  0  0  0  0
   -2.8838    1.4178   -0.8890 H   0  0  0  0  0  0  0  0  0  0  0  0
    0.3683    4.5320    0.2543 H   0  0  0  0  0  0  0  0  0  0  0  0
    0.8318    4.3271   -1.4684 H   0  0  0  0  0  0  0  0  0  0  0  0
    1.8106    3.5719   -0.1727 H   0  0  0  0  0  0  0  0  0  0  0  0
  1  2  1  0
  2  3  1  0
  3  4  1  0
  4  5  1  0
  5  6  1  0
  6  7  1  0
  7  8  1  0
  8  9  1  0
  2 10  2  0
 10 11  1  0
 11 12  2  3
 12 13  1  0
 13 14  2  0
 14 15  1  0
 15 16  2  0
 16 17  1  0
 17 18  1  0
 16 19  1  0
 19 20  2  0
 20 21  1  0
 21 22  1  0
 11 23  1  0
 23 24  1  0
 24 25  2  0
 25 26  1  0
 26 27  1  0
 26 28  1  0
 28  1  1  0
  9  5  1  0
 20 13  1  0
 28 23  2  0
  1 29  1  0
  3 30  1  0
  4 31  1  0
  4 32  1  0
  5 33  1  0
  6 34  1  0
  6 35  1  0
  7 36  1  0
  7 37  1  0
  8 38  1  0
  8 39  1  0
 14 40  1  0
 15 41  1  0
 18 42  1  0
 18 43  1  0
 18 44  1  0
 19 45  1  0
 22 46  1  0
 22 47  1  0
 22 48  1  0
 24 49  1  0
 27 50  1  0
 27 51  1  0
 27 52  1  0
M  END
>  <ScrubInfo>  (5) 
{"isomerGroup": 0, "isomerId": 4, "confId": 0, "nr_conformers:": 1, "nr_isomers:": 9}

$$$$
_i5
     RDKit          3D

 52 55  0  0  0  0  0  0  0  0999 V2000
    1.7320   -5.2113    1.2329 N   0  0  0  0  0  0  0  0  0  0  0  0
    0.8890   -4.2431    1.7699 C   0  0  0  0  0  0  0  0  0  0  0  0
    0.7452   -3.1788    0.9705 C   0  0  0  0  0  0  0  0  0  0  0  0
    0.0274   -1.9264    0.9820 C   0  0  0  0  0  0  0  0  0  0  0  0
   -0.6475   -1.5165    2.0107 N   0  0  0  0  0  0  0  0  0  0  0  0
   -1.3156   -0.2811    1.9010 C   0  0  0  0  0  0  0  0  0  0  0  0
   -0.7219    0.8492    2.4739 C   0  0  0  0  0  0  0  0  0  0  0  0
   -1.3313    2.1031    2.3855 C   0  0  0  0  0  0  0  0  0  0  0  0
   -2.5535    2.2351    1.7297 C   0  0  0  0  0  0  0  0  0  0  0  0
   -3.2543    3.3999    1.5677 O   0  0  0  0  0  0  0  0  0  0  0  0
   -2.7008    4.5705    2.1556 C   0  0  0  0  0  0  0  0  0  0  0  0
   -3.1639    1.1059    1.1698 C   0  0  0  0  0  0  0  0  0  0  0  0
   -2.5580   -0.1537    1.2495 C   0  0  0  0  0  0  0  0  0  0  0  0
   -3.0999   -1.3104    0.7437 O   0  0  0  0  0  0  0  0  0  0  0  0
   -4.1722   -1.1702   -0.1764 C   0  0  0  0  0  0  0  0  0  0  0  0
    0.1473   -1.2030   -0.1738 N   0  0  0  0  0  0  0  0  0  0  0  0
    0.9061   -1.5724   -1.1619 C   0  0  0  0  0  0  0  0  0  0  0  0
    0.9785   -0.8033   -2.2888 N   0  0  0  0  0  0  0  0  0  0  0  0
    0.5056    0.5730   -2.3171 C   0  0  0  0  0  0  0  0  0  0  0  0
    1.4516    1.5027   -1.5508 C   0  0  0  0  0  0  0  0  0  0  0  0
    0.9083    2.9151   -1.4104 C   0  0  0  0  0  0  0  0  0  0  0  0
    2.1775    3.7066   -1.2200 C   0  0  0  0  0  0  0  0  0  0  0  0
    3.1322    3.0052   -2.1634 C   0  0  0  0  0  0  0  0  0  0  0  0
    2.7062    1.6376   -2.2577 O   0  0  0  0  0  0  0  0  0  0  0  0
    1.6879   -2.6986   -1.1860 N   0  0  0  0  0  0  0  0  0  0  0  0
    1.6216   -3.4843   -0.1674 C   0  0  0  0  0  0  0  0  0  0  0  0
    2.2910   -4.6879    0.0673 N   0  0  0  0  0  0  0  0  0  0  0  0
    2.6002   -5.5877   -1.0274 C   0  0  0  0  0  0  0  0  0  0  0  0
    2.3914   -5.5926    1.9148 H   0  0  0  0  0  0  0  0  0  0  0  0
    0.4404   -4.3977    2.7412 H   0  0  0  0  0  0  0  0  0  0  0  0
    0.2306    0.7445    2.9861 H   0  0  0  0  0  0  0  0  0  0  0  0
   -0.8256    2.9476    2.8398 H   0  0  0  0  0  0  0  0  0  0  0  0
   -1.7330    4.8171    1.7064 H   0  0  0  0  0  0  0  0  0  0  0  0
   -2.6183    4.4662    3.2426 H   0  0  0  0  0  0  0  0  0  0  0  0
   -3.3832    5.4014    1.9519 H   0  0  0  0  0  0  0  0  0  0  0  0
   -4.1246    1.2398    0.6842 H   0  0  0  0  0  0  0  0  0  0  0  0
   -5.0780   -0.8207    0.3293 H   0  0  0  0  0  0  0  0  0  0  0  0
   -4.3862   -2.1591   -0.5934 H   0  0  0  0  0  0  0  0  0  0  0  0
   -3.9032   -0.5103   -1.0082 H   0  0  0  0  0  0  0  0  0  0  0  0
    1.8439   -0.9553   -2.7950 H   0  0  0  0  0  0  0  0  0  0  0  0
    0.4551    0.8821   -3.3674 H   0  0  0  0  0  0  0  0  0  0  0  0
   -0.5113    0.6322   -1.9120 H   0  0  0  0  0  0  0  0  0  0  0  0
    1.6890    1.0978   -0.5594 H   0  0  0  0  0  0  0  0  0  0  0  0
    0.2033    3.0187   -0.5809 H   0  0  0  0  0  0  0  0  0  0  0  0
    0.4078    3.2373   -2.3316 H   0  0  0  0  0  0  0  0  0  0  0  0
    2.5291    3.6028   -0.1866 H   0  0  0  0  0  0  0  0  0  0  0  0
    2.0690    4.7723   -1.4376 H   0  0  0  0  0  0  0  0  0  0  0  0
    4.1685    3.0451   -1.8163 H   0  0  0  0  0  0  0  0  0  0  0  0
    3.0841    3.4372   -3.1685 H   0  0  0  0  0  0  0  0  0  0  0  0
    1.6835   -5.9777   -1.4821 H   0  0  0  0  0  0  0  0  0  0  0  0
    3.1970   -6.4325   -0.6684 H   0  0  0  0  0  0  0  0  0  0  0  0
    3.1817   -5.0715   -1.7979 H   0  0  0  0  0  0  0  0  0  0  0  0
  1  2  1  0
  2  3  2  0
  3  4  1  0
  4  5  2  3
  5  6  1  0
  6  7  2  0
  7  8  1  0
  8  9  2  0
  9 10  1  0
 10 11  1  0
  9 12  1  0
 12 13  2  0
 13 14  1  0
 14 15  1  0
  4 16  1  0
 16 17  2  0
 17 18  1  0
 18 19  1  0
 19 20  1  0
 20 21  1  0
 21 22  1  0
 22 23  1  0
 23 24  1  0
 17 25  1  0
 25 26  2  0
 26 27  1  0
 27 28  1  0
 27  1  1  0
 26  3  1  0
 13  6  1  0
 24 20  1  0
  1 29  1  0
  2 30  1  0
  7 31  1  0
  8 32  1  0
 11 33  1  0
 11 34  1  0
 11 35  1  0
 12 36  1  0
 15 37  1  0
 15 38  1  0
 15 39  1  0
 18 40  1  0
 19 41  1  0
 19 42  1  0
 20 43  1  0
 21 44  1  0
 21 45  1  0
 22 46  1  0
 22 47  1  0
 23 48  1  0
 23 49  1  0
 28 50  1  0
 28 51  1  0
 28 52  1  0
M  END
>  <ScrubInfo>  (6) 
{"isomerGroup": 0, "isomerId": 5, "confId": 0, "nr_conformers:": 1, "nr_isomers:": 9}

$$$$
_i6
     RDKit          3D

 52 55  0  0  0  0  0  0  0  0999 V2000
    0.7184   -2.3588    2.9362 N   0  0  0  0  0  0  0  0  0  0  0  0
   -0.2574   -2.1072    1.9788 C   0  0  0  0  0  0  0  0  0  0  0  0
    0.2447   -1.6067    0.8422 C   0  0  0  0  0  0  0  0  0  0  0  0
   -0.2240   -1.1937   -0.4781 C   0  0  0  0  0  0  0  0  0  0  0  0
   -1.5463   -1.1899   -0.8482 N   0  0  0  0  0  0  0  0  0  0  0  0
   -2.6021   -0.4639   -0.2366 C   0  0  0  0  0  0  0  0  0  0  0  0
   -2.4241    0.3510    0.8878 C   0  0  0  0  0  0  0  0  0  0  0  0
   -3.5087    1.0049    1.4841 C   0  0  0  0  0  0  0  0  0  0  0  0
   -4.7918    0.8480    0.9671 C   0  0  0  0  0  0  0  0  0  0  0  0
   -5.9311    1.4270    1.4551 O   0  0  0  0  0  0  0  0  0  0  0  0
   -5.7865    2.2969    2.5711 C   0  0  0  0  0  0  0  0  0  0  0  0
   -4.9858    0.0371   -0.1547 C   0  0  0  0  0  0  0  0  0  0  0  0
   -3.9071   -0.6168   -0.7588 C   0  0  0  0  0  0  0  0  0  0  0  0
   -3.9998   -1.4191   -1.8724 O   0  0  0  0  0  0  0  0  0  0  0  0
   -5.2964   -1.6271   -2.4185 C   0  0  0  0  0  0  0  0  0  0  0  0
    0.6711   -0.8741   -1.3711 N   0  0  0  0  0  0  0  0  0  0  0  0
    2.0055   -0.8901   -1.0275 C   0  0  0  0  0  0  0  0  0  0  0  0
    2.7882   -0.5892   -1.9992 N   0  0  0  0  0  0  0  0  0  0  0  0
    4.2404   -0.5739   -1.8014 C   0  0  0  0  0  0  0  0  0  0  0  0
    4.8006    0.8526   -1.7543 C   0  0  0  0  0  0  0  0  0  0  0  0
    4.1788    1.7811   -0.7200 C   0  0  0  0  0  0  0  0  0  0  0  0
    4.4320    3.1355   -1.3349 C   0  0  0  0  0  0  0  0  0  0  0  0
    4.2118    2.8478   -2.8040 C   0  0  0  0  0  0  0  0  0  0  0  0
    4.6813    1.5138   -3.0325 O   0  0  0  0  0  0  0  0  0  0  0  0
    2.5330   -1.1677    0.2142 N   0  0  0  0  0  0  0  0  0  0  0  0
    1.6914   -1.5145    1.1248 C   0  0  0  0  0  0  0  0  0  0  0  0
    1.9295   -1.8704    2.4541 N   0  0  0  0  0  0  0  0  0  0  0  0
    3.1573   -2.5472    2.8297 C   0  0  0  0  0  0  0  0  0  0  0  0
    0.4543   -2.0694    3.8805 H   0  0  0  0  0  0  0  0  0  0  0  0
   -1.2922   -2.3220    2.2060 H   0  0  0  0  0  0  0  0  0  0  0  0
   -1.6730   -1.1528   -1.8593 H   0  0  0  0  0  0  0  0  0  0  0  0
   -1.4370    0.5245    1.3051 H   0  0  0  0  0  0  0  0  0  0  0  0
   -3.3118    1.6332    2.3466 H   0  0  0  0  0  0  0  0  0  0  0  0
   -5.1479    3.1519    2.3254 H   0  0  0  0  0  0  0  0  0  0  0  0
   -5.4069    1.7571    3.4448 H   0  0  0  0  0  0  0  0  0  0  0  0
   -6.7784    2.6839    2.8239 H   0  0  0  0  0  0  0  0  0  0  0  0
   -5.9967   -0.0601   -0.5367 H   0  0  0  0  0  0  0  0  0  0  0  0
   -5.1929   -2.2963   -3.2781 H   0  0  0  0  0  0  0  0  0  0  0  0
   -5.7275   -0.6874   -2.7790 H   0  0  0  0  0  0  0  0  0  0  0  0
   -5.9567   -2.1158   -1.6944 H   0  0  0  0  0  0  0  0  0  0  0  0
    4.6816   -1.0944   -2.6600 H   0  0  0  0  0  0  0  0  0  0  0  0
    4.5667   -1.1269   -0.9140 H   0  0  0  0  0  0  0  0  0  0  0  0
    5.8793    0.7819   -1.5636 H   0  0  0  0  0  0  0  0  0  0  0  0
    4.6225    1.6646    0.2727 H   0  0  0  0  0  0  0  0  0  0  0  0
    3.0982    1.6333   -0.6283 H   0  0  0  0  0  0  0  0  0  0  0  0
    5.4725    3.4339   -1.1610 H   0  0  0  0  0  0  0  0  0  0  0  0
    3.7776    3.9220   -0.9505 H   0  0  0  0  0  0  0  0  0  0  0  0
    4.7480    3.5445   -3.4541 H   0  0  0  0  0  0  0  0  0  0  0  0
    3.1471    2.8783   -3.0597 H   0  0  0  0  0  0  0  0  0  0  0  0
    3.2150   -3.5365    2.3638 H   0  0  0  0  0  0  0  0  0  0  0  0
    3.2061   -2.6707    3.9165 H   0  0  0  0  0  0  0  0  0  0  0  0
    4.0293   -1.9622    2.5204 H   0  0  0  0  0  0  0  0  0  0  0  0
  1  2  1  0
  2  3  2  0
  3  4  1  0
  4  5  1  0
  5  6  1  0
  6  7  2  0
  7  8  1  0
  8  9  2  0
  9 10  1  0
 10 11  1  0
  9 12  1  0
 12 13  2  0
 13 14  1  0
 14 15  1  0
  4 16  2  0
 16 17  1  0
 17 18  2  3
 18 19  1  0
 19 20  1  0
 20 21  1  0
 21 22  1  0
 22 23  1  0
 23 24  1  0
 17 25  1  0
 25 26  2  0
 26 27  1  0
 27 28  1  0
 27  1  1  0
 26  3  1  0
 13  6  1  0
 24 20  1  0
  1 29  1  0
  2 30  1  0
  5 31  1  0
  7 32  1  0
  8 33  1  0
 11 34  1  0
 11 35  1  0
 11 36  1  0
 12 37  1  0
 15 38  1  0
 15 39  1  0
 15 40  1  0
 19 41  1  0
 19 42  1  0
 20 43  1  0
 21 44  1  0
 21 45  1  0
 22 46  1  0
 22 47  1  0
 23 48  1  0
 23 49  1  0
 28 50  1  0
 28 51  1  0
 28 52  1  0
M  END
>  <ScrubInfo>  (7) 
{"isomerGroup": 0, "isomerId": 6, "confId": 0, "nr_conformers:": 1, "nr_isomers:": 9}

$$$$
_i7
     RDKit          3D

 52 55  0  0  0  0  0  0  0  0999 V2000
   -1.5110    0.6621   -1.2617 N   0  0  0  0  0  0  0  0  0  0  0  0
   -0.9253    0.6986   -0.0079 C   0  0  0  0  0  0  0  0  0  0  0  0
   -1.5120    0.7690    1.1395 N   0  0  0  0  0  0  0  0  0  0  0  0
   -2.9738    0.9091    1.2063 C   0  0  0  0  0  0  0  0  0  0  0  0
   -3.7112   -0.3588    0.7641 C   0  0  0  0  0  0  0  0  0  0  0  0
   -5.0941   -0.4899    1.3811 C   0  0  0  0  0  0  0  0  0  0  0  0
   -5.7815   -1.3951    0.3910 C   0  0  0  0  0  0  0  0  0  0  0  0
   -5.2385   -0.8906   -0.9284 C   0  0  0  0  0  0  0  0  0  0  0  0
   -3.9398   -0.3297   -0.6692 O   0  0  0  0  0  0  0  0  0  0  0  0
    0.4563    0.6497   -0.0413 N   0  0  0  0  0  0  0  0  0  0  0  0
    1.3358    0.5559   -1.1031 C   0  0  0  0  0  0  0  0  0  0  0  0
    2.6271    0.5166   -1.1486 N   0  0  0  0  0  0  0  0  0  0  0  0
    3.3304    0.5868    0.0651 C   0  0  0  0  0  0  0  0  0  0  0  0
    3.9370    1.7979    0.4066 C   0  0  0  0  0  0  0  0  0  0  0  0
    4.6085    1.9398    1.6234 C   0  0  0  0  0  0  0  0  0  0  0  0
    4.6861    0.8738    2.5216 C   0  0  0  0  0  0  0  0  0  0  0  0
    5.3563    1.1511    3.6807 O   0  0  0  0  0  0  0  0  0  0  0  0
    5.4666    0.0954    4.6277 C   0  0  0  0  0  0  0  0  0  0  0  0
    4.0990   -0.3449    2.1839 C   0  0  0  0  0  0  0  0  0  0  0  0
    3.4504   -0.4979    0.9519 C   0  0  0  0  0  0  0  0  0  0  0  0
    2.8938   -1.7342    0.7322 O   0  0  0  0  0  0  0  0  0  0  0  0
    3.2970   -2.3120   -0.5102 C   0  0  0  0  0  0  0  0  0  0  0  0
    0.6204    0.4863   -2.3556 C   0  0  0  0  0  0  0  0  0  0  0  0
    0.9785    0.3487   -3.7050 C   0  0  0  0  0  0  0  0  0  0  0  0
   -0.0912    0.3016   -4.5156 N   0  0  0  0  0  0  0  0  0  0  0  0
   -1.1432    0.4206   -3.6678 N   0  0  0  0  0  0  0  0  0  0  0  0
   -2.4858    0.3984   -4.1905 C   0  0  0  0  0  0  0  0  0  0  0  0
   -0.7503    0.5378   -2.3708 C   0  0  0  0  0  0  0  0  0  0  0  0
   -2.5226    0.5264   -1.2792 H   0  0  0  0  0  0  0  0  0  0  0  0
   -3.2942    1.7813    0.6234 H   0  0  0  0  0  0  0  0  0  0  0  0
   -3.2119    1.1197    2.2553 H   0  0  0  0  0  0  0  0  0  0  0  0
   -3.1154   -1.2546    0.9799 H   0  0  0  0  0  0  0  0  0  0  0  0
   -5.6045    0.4806    1.4090 H   0  0  0  0  0  0  0  0  0  0  0  0
   -5.0696   -0.8968    2.3957 H   0  0  0  0  0  0  0  0  0  0  0  0
   -5.4664   -2.4327    0.5531 H   0  0  0  0  0  0  0  0  0  0  0  0
   -6.8727   -1.3588    0.4445 H   0  0  0  0  0  0  0  0  0  0  0  0
   -5.8664   -0.0922   -1.3372 H   0  0  0  0  0  0  0  0  0  0  0  0
   -5.1521   -1.6834   -1.6768 H   0  0  0  0  0  0  0  0  0  0  0  0
    0.8712    0.6622    0.8787 H   0  0  0  0  0  0  0  0  0  0  0  0
    3.8763    2.6412   -0.2766 H   0  0  0  0  0  0  0  0  0  0  0  0
    5.0689    2.8924    1.8751 H   0  0  0  0  0  0  0  0  0  0  0  0
    6.0271   -0.7493    4.2137 H   0  0  0  0  0  0  0  0  0  0  0  0
    6.0253    0.4757    5.4883 H   0  0  0  0  0  0  0  0  0  0  0  0
    4.4803   -0.2198    4.9839 H   0  0  0  0  0  0  0  0  0  0  0  0
    4.1354   -1.2011    2.8487 H   0  0  0  0  0  0  0  0  0  0  0  0
    3.3434   -3.3965   -0.3694 H   0  0  0  0  0  0  0  0  0  0  0  0
    4.2886   -1.9770   -0.8360 H   0  0  0  0  0  0  0  0  0  0  0  0
    2.5479   -2.1132   -1.2814 H   0  0  0  0  0  0  0  0  0  0  0  0
    1.9702    0.2721   -4.1318 H   0  0  0  0  0  0  0  0  0  0  0  0
   -2.4843    0.8218   -5.1982 H   0  0  0  0  0  0  0  0  0  0  0  0
   -2.8237   -0.6403   -4.2146 H   0  0  0  0  0  0  0  0  0  0  0  0
   -3.1359    0.9962   -3.5473 H   0  0  0  0  0  0  0  0  0  0  0  0
  1  2  1  0
  2  3  2  3
  3  4  1  0
  4  5  1  0
  5  6  1  0
  6  7  1  0
  7  8  1  0
  8  9  1  0
  2 10  1  0
 10 11  1  0
 11 12  2  3
 12 13  1  0
 13 14  2  0
 14 15  1  0
 15 16  2  0
 16 17  1  0
 17 18  1  0
 16 19  1  0
 19 20  2  0
 20 21  1  0
 21 22  1  0
 11 23  1  0
 23 24  1  0
 24 25  2  0
 25 26  1  0
 26 27  1  0
 26 28  1  0
 28  1  1  0
  9  5  1  0
 20 13  1  0
 28 23  2  0
  1 29  1  0
  4 30  1  0
  4 31  1  0
  5 32  1  0
  6 33  1  0
  6 34  1  0
  7 35  1  0
  7 36  1  0
  8 37  1  0
  8 38  1  0
 10 39  1  0
 14 40  1  0
 15 41  1  0
 18 42  1  0
 18 43  1  0
 18 44  1  0
 19 45  1  0
 22 46  1  0
 22 47  1  0
 22 48  1  0
 24 49  1  0
 27 50  1  0
 27 51  1  0
 27 52  1  0
M  END
>  <ScrubInfo>  (8) 
{"isomerGroup": 0, "isomerId": 7, "confId": 0, "nr_conformers:": 1, "nr_isomers:": 9}

$$$$
_i8
     RDKit          3D

 52 55  0  0  0  0  0  0  0  0999 V2000
    0.0431   -5.1822    0.8916 N   0  0  0  0  0  0  0  0  0  0  0  0
   -0.8865   -4.3393    0.2923 C   0  0  0  0  0  0  0  0  0  0  0  0
   -0.4339   -3.0892    0.1400 C   0  0  0  0  0  0  0  0  0  0  0  0
   -0.9311   -1.8062   -0.3629 C   0  0  0  0  0  0  0  0  0  0  0  0
   -2.1305   -1.7434   -0.8618 N   0  0  0  0  0  0  0  0  0  0  0  0
   -2.5921   -0.5058   -1.3420 C   0  0  0  0  0  0  0  0  0  0  0  0
   -2.5887   -0.2897   -2.7220 C   0  0  0  0  0  0  0  0  0  0  0  0
   -2.9900    0.9396   -3.2509 C   0  0  0  0  0  0  0  0  0  0  0  0
   -3.4014    1.9756   -2.4103 C   0  0  0  0  0  0  0  0  0  0  0  0
   -3.7516    3.1294   -3.0550 O   0  0  0  0  0  0  0  0  0  0  0  0
   -4.1701    4.2188   -2.2419 C   0  0  0  0  0  0  0  0  0  0  0  0
   -3.4248    1.7656   -1.0322 C   0  0  0  0  0  0  0  0  0  0  0  0
   -3.0507    0.5243   -0.5018 C   0  0  0  0  0  0  0  0  0  0  0  0
   -3.0934    0.4346    0.8682 O   0  0  0  0  0  0  0  0  0  0  0  0
   -3.8534   -0.6844    1.3255 C   0  0  0  0  0  0  0  0  0  0  0  0
   -0.0052   -0.8044   -0.2203 N   0  0  0  0  0  0  0  0  0  0  0  0
    1.2497   -0.9190    0.3158 C   0  0  0  0  0  0  0  0  0  0  0  0
    1.9732    0.1487    0.4020 N   0  0  0  0  0  0  0  0  0  0  0  0
    3.3261   -0.0038    0.9584 C   0  0  0  0  0  0  0  0  0  0  0  0
    4.0703    1.3373    0.9419 C   0  0  0  0  0  0  0  0  0  0  0  0
    3.3577    2.4790    1.6556 C   0  0  0  0  0  0  0  0  0  0  0  0
    3.8906    3.6831    0.9199 C   0  0  0  0  0  0  0  0  0  0  0  0
    3.9702    3.1650   -0.4990 C   0  0  0  0  0  0  0  0  0  0  0  0
    4.3284    1.7807   -0.4080 O   0  0  0  0  0  0  0  0  0  0  0  0
    1.7462   -2.1299    0.7590 N   0  0  0  0  0  0  0  0  0  0  0  0
    0.9660   -3.1610    0.6634 C   0  0  0  0  0  0  0  0  0  0  0  0
    1.2426   -4.4841    1.0189 N   0  0  0  0  0  0  0  0  0  0  0  0
    2.1249   -4.7918    2.1275 C   0  0  0  0  0  0  0  0  0  0  0  0
    0.1043   -6.0986    0.4416 H   0  0  0  0  0  0  0  0  0  0  0  0
   -1.8540   -4.7257    0.0047 H   0  0  0  0  0  0  0  0  0  0  0  0
   -2.2591   -1.0812   -3.3900 H   0  0  0  0  0  0  0  0  0  0  0  0
   -2.9736    1.0925   -4.3275 H   0  0  0  0  0  0  0  0  0  0  0  0
   -3.3675    4.5415   -1.5705 H   0  0  0  0  0  0  0  0  0  0  0  0
   -5.0776    3.9680   -1.6828 H   0  0  0  0  0  0  0  0  0  0  0  0
   -4.4080    5.0574   -2.9034 H   0  0  0  0  0  0  0  0  0  0  0  0
   -3.7385    2.5400   -0.3407 H   0  0  0  0  0  0  0  0  0  0  0  0
   -3.1938   -1.5316    1.5322 H   0  0  0  0  0  0  0  0  0  0  0  0
   -4.6501   -0.9732    0.6301 H   0  0  0  0  0  0  0  0  0  0  0  0
   -4.3259   -0.3979    2.2703 H   0  0  0  0  0  0  0  0  0  0  0  0
   -0.2506    0.1337   -0.4988 H   0  0  0  0  0  0  0  0  0  0  0  0
    3.8955   -0.7210    0.3545 H   0  0  0  0  0  0  0  0  0  0  0  0
    3.2701   -0.3624    1.9932 H   0  0  0  0  0  0  0  0  0  0  0  0
    5.0563    1.1873    1.3997 H   0  0  0  0  0  0  0  0  0  0  0  0
    3.5677    2.4999    2.7288 H   0  0  0  0  0  0  0  0  0  0  0  0
    2.2709    2.4280    1.5267 H   0  0  0  0  0  0  0  0  0  0  0  0
    4.8941    3.9279    1.2876 H   0  0  0  0  0  0  0  0  0  0  0  0
    3.2609    4.5712    1.0164 H   0  0  0  0  0  0  0  0  0  0  0  0
    4.7103    3.6989   -1.1013 H   0  0  0  0  0  0  0  0  0  0  0  0
    2.9983    3.2288   -1.0004 H   0  0  0  0  0  0  0  0  0  0  0  0
    3.0979   -4.3088    1.9919 H   0  0  0  0  0  0  0  0  0  0  0  0
    2.2943   -5.8716    2.1912 H   0  0  0  0  0  0  0  0  0  0  0  0
    1.6930   -4.4510    3.0743 H   0  0  0  0  0  0  0  0  0  0  0  0
  1  2  1  0
  2  3  2  0
  3  4  1  0
  4  5  2  3
  5  6  1  0
  6  7  2  0
  7  8  1  0
  8  9  2  0
  9 10  1  0
 10 11  1  0
  9 12  1  0
 12 13  2  0
 13 14  1  0
 14 15  1  0
  4 16  1  0
 16 17  1  0
 17 18  2  3
 18 19  1  0
 19 20  1  0
 20 21  1  0
 21 22  1  0
 22 23  1  0
 23 24  1  0
 17 25  1  0
 25 26  2  0
 26 27  1  0
 27 28  1  0
 27  1  1  0
 26  3  1  0
 13  6  1  0
 24 20  1  0
  1 29  1  0
  2 30  1  0
  7 31  1  0
  8 32  1  0
 11 33  1  0
 11 34  1  0
 11 35  1  0
 12 36  1  0
 15 37  1  0
 15 38  1  0
 15 39  1  0
 16 40  1  0
 19 41  1  0
 19 42  1  0
 20 43  1  0
 21 44  1  0
 21 45  1  0
 22 46  1  0
 22 47  1  0
 23 48  1  0
 23 49  1  0
 28 50  1  0
 28 51  1  0
 28 52  1  0
M  END
>  <ScrubInfo>  (9) 
{"isomerGroup": 0, "isomerId": 8, "confId": 0, "nr_conformers:": 1, "nr_isomers:": 9}

$$$$
