REMARK SMILES COc1ccc(Nc2nc(NC[C@H]3CCCO3)nc3c2cnn3C)c(OC)c1
REMARK SMILES IDX 8 1 9 2 10 3 18 4 19 5 20 6 21 7 22 8 23 9 24 10 7 11 6 13
REMARK SMILES IDX 3 14 4 15 28 16 5 17 25 18 2 19 1 20 26 21 27 22 11 23 12 25
REMARK SMILES IDX 13 26 14 27 17 28 15 29 16 30
REMARK H PARENT 7 12 11 24
ROOT
ATOM      1  C   UNL     1       0.679  -1.579  -0.012  1.00  0.00     0.147 A 
ATOM      2  N   UNL     1      -0.161  -0.593  -0.422  1.00  0.00    -0.195 NA
ATOM      3  C   UNL     1      -1.440  -0.861  -0.741  1.00  0.00     0.226 A 
ATOM      4  N   UNL     1      -2.023  -2.067  -0.691  1.00  0.00    -0.193 NA
ATOM      5  C   UNL     1      -1.181  -3.030  -0.289  1.00  0.00     0.165 A 
ATOM      6  C   UNL     1       0.145  -2.871   0.061  1.00  0.00     0.082 A 
ATOM      7  C   UNL     1       0.572  -4.170   0.408  1.00  0.00     0.149 A 
ATOM      8  N   UNL     1      -0.397  -5.087   0.292  1.00  0.00    -0.179 NA
ATOM      9  N   UNL     1      -1.454  -4.362  -0.142  1.00  0.00    -0.250 N 
ATOM     10  C   UNL     1      -2.709  -5.023  -0.399  1.00  0.00     0.176 C 
ENDROOT
BRANCH   1  11
ATOM     11  N   UNL     1       2.010  -1.327   0.332  1.00  0.00    -0.336 N 
ATOM     12  H   UNL     1       2.538  -2.133   0.649  1.00  0.00     0.168 HD
BRANCH  11  13
ATOM     13  C   UNL     1       2.809  -0.165   0.342  1.00  0.00     0.083 A 
ATOM     14  C   UNL     1       4.509   2.091   0.419  1.00  0.00     0.122 A 
ATOM     15  C   UNL     1       3.199   2.210  -0.038  1.00  0.00     0.049 A 
ATOM     16  C   UNL     1       4.976   0.843   0.840  1.00  0.00     0.095 A 
ATOM     17  C   UNL     1       2.360   1.090  -0.075  1.00  0.00     0.034 A 
ATOM     18  C   UNL     1       4.142  -0.279   0.805  1.00  0.00     0.146 A 
BRANCH  14  19
ATOM     19  O   UNL     1       5.426   3.103   0.505  1.00  0.00    -0.497 OA
ATOM     20  C   UNL     1       5.000   4.392   0.081  1.00  0.00     0.278 C 
ENDBRANCH  14  19
BRANCH  18  21
ATOM     21  O   UNL     1       4.512  -1.549   1.197  1.00  0.00    -0.494 OA
ATOM     22  C   UNL     1       5.844  -1.713   1.668  1.00  0.00     0.278 C 
ENDBRANCH  18  21
ENDBRANCH  11  13
ENDBRANCH   1  11
BRANCH   3  23
ATOM     23  N   UNL     1      -2.179   0.241  -1.153  1.00  0.00    -0.351 N 
ATOM     24  H   UNL     1      -1.653   1.058  -0.850  1.00  0.00     0.163 HD
BRANCH  23  25
ATOM     25  C   UNL     1      -3.557   0.248  -0.676  1.00  0.00     0.148 C 
BRANCH  25  26
ATOM     26  C   UNL     1      -4.188   1.624  -0.968  1.00  0.00     0.137 C 
ATOM     27  C   UNL     1      -5.652   1.697  -0.554  1.00  0.00     0.036 C 
ATOM     28  O   UNL     1      -3.495   2.631  -0.193  1.00  0.00    -0.376 OA
ATOM     29  C   UNL     1      -5.575   2.231   0.855  1.00  0.00     0.031 C 
ATOM     30  C   UNL     1      -4.408   3.187   0.763  1.00  0.00     0.160 C 
ENDBRANCH  25  26
ENDBRANCH  23  25
ENDBRANCH   3  23
TORSDOF 7
