_i0
     RDKit          3D

 46 48  0  0  0  0  0  0  0  0999 V2000
   -5.3371   -1.4551    0.5264 C   0  0  0  0  0  0  0  0  0  0  0  0
   -5.4731   -0.8434   -0.8646 C   0  0  0  0  0  0  0  0  0  0  0  0
   -6.8884   -0.3161   -1.0725 C   0  0  0  0  0  0  0  0  0  0  0  0
   -4.5863    0.2689   -1.0161 O   0  0  0  0  0  0  0  0  0  0  0  0
   -3.2395   -0.1167   -1.3129 C   0  0  0  0  0  0  0  0  0  0  0  0
   -2.3895    1.1469   -1.4838 C   0  0  0  0  0  0  0  0  0  0  0  0
   -1.0304    0.8430   -1.9128 N   0  0  0  0  0  0  0  0  0  0  0  0
   -0.1156    0.6287   -0.8880 C   0  0  0  0  0  0  0  0  0  0  0  0
    1.1241    1.0851   -1.1440 N   0  0  0  0  0  0  0  0  0  0  0  0
    2.1220    0.9070   -0.2401 C   0  0  0  0  0  0  0  0  0  0  0  0
    3.3775    1.4148   -0.5842 N   0  0  0  0  0  0  0  0  0  0  0  0
    4.6749    0.8775   -0.4381 C   0  0  0  0  0  0  0  0  0  0  0  0
    4.9045   -0.4391   -0.0152 C   0  0  0  0  0  0  0  0  0  0  0  0
    6.2041   -0.9269    0.1621 C   0  0  0  0  0  0  0  0  0  0  0  0
    7.3016   -0.1053   -0.0788 C   0  0  0  0  0  0  0  0  0  0  0  0
    7.1020    1.2054   -0.5042 C   0  0  0  0  0  0  0  0  0  0  0  0
    5.8025    1.6905   -0.6813 C   0  0  0  0  0  0  0  0  0  0  0  0
    5.6159    3.3264   -1.2193 Cl  0  0  0  0  0  0  0  0  0  0  0  0
    1.7911    0.3119    0.9797 C   0  0  0  0  0  0  0  0  0  0  0  0
    2.4000    0.0098    2.2159 C   0  0  0  0  0  0  0  0  0  0  0  0
    1.5690   -0.5949    3.0735 N   0  0  0  0  0  0  0  0  0  0  0  0
    0.4049   -0.6505    2.3859 N   0  0  0  0  0  0  0  0  0  0  0  0
   -0.7597   -1.2291    3.0070 C   0  0  0  0  0  0  0  0  0  0  0  0
    0.4844   -0.1064    1.1334 C   0  0  0  0  0  0  0  0  0  0  0  0
   -0.5026    0.0108    0.2343 N   0  0  0  0  0  0  0  0  0  0  0  0
   -6.0832   -2.2394    0.6884 H   0  0  0  0  0  0  0  0  0  0  0  0
   -5.4543   -0.6911    1.3027 H   0  0  0  0  0  0  0  0  0  0  0  0
   -4.3474   -1.8996    0.6686 H   0  0  0  0  0  0  0  0  0  0  0  0
   -5.2654   -1.5976   -1.6333 H   0  0  0  0  0  0  0  0  0  0  0  0
   -6.9833    0.1381   -2.0649 H   0  0  0  0  0  0  0  0  0  0  0  0
   -7.6294   -1.1165   -0.9842 H   0  0  0  0  0  0  0  0  0  0  0  0
   -7.1278    0.4670   -0.3444 H   0  0  0  0  0  0  0  0  0  0  0  0
   -2.8469   -0.7424   -0.5073 H   0  0  0  0  0  0  0  0  0  0  0  0
   -3.2263   -0.6997   -2.2415 H   0  0  0  0  0  0  0  0  0  0  0  0
   -2.4137    1.7617   -0.5741 H   0  0  0  0  0  0  0  0  0  0  0  0
   -2.8585    1.7681   -2.2575 H   0  0  0  0  0  0  0  0  0  0  0  0
   -0.6071    1.5545   -2.5006 H   0  0  0  0  0  0  0  0  0  0  0  0
    3.2961    1.9848   -1.4231 H   0  0  0  0  0  0  0  0  0  0  0  0
    4.0783   -1.1245    0.1529 H   0  0  0  0  0  0  0  0  0  0  0  0
    6.3555   -1.9549    0.4841 H   0  0  0  0  0  0  0  0  0  0  0  0
    8.3103   -0.4868    0.0595 H   0  0  0  0  0  0  0  0  0  0  0  0
    7.9592    1.8454   -0.6960 H   0  0  0  0  0  0  0  0  0  0  0  0
    3.4180    0.2066    2.5273 H   0  0  0  0  0  0  0  0  0  0  0  0
   -0.5173   -2.2512    3.3087 H   0  0  0  0  0  0  0  0  0  0  0  0
   -1.0193   -0.6243    3.8795 H   0  0  0  0  0  0  0  0  0  0  0  0
   -1.5939   -1.2412    2.3017 H   0  0  0  0  0  0  0  0  0  0  0  0
  1  2  1  0
  2  3  1  0
  2  4  1  0
  4  5  1  0
  5  6  1  0
  6  7  1  0
  7  8  1  0
  8  9  2  0
  9 10  1  0
 10 11  1  0
 11 12  1  0
 12 13  2  0
 13 14  1  0
 14 15  2  0
 15 16  1  0
 16 17  2  0
 17 18  1  0
 10 19  2  0
 19 20  1  0
 20 21  2  0
 21 22  1  0
 22 23  1  0
 22 24  1  0
 24 25  2  0
 25  8  1  0
 17 12  1  0
 24 19  1  0
  1 26  1  0
  1 27  1  0
  1 28  1  0
  2 29  1  0
  3 30  1  0
  3 31  1  0
  3 32  1  0
  5 33  1  0
  5 34  1  0
  6 35  1  0
  6 36  1  0
  7 37  1  0
 11 38  1  0
 13 39  1  0
 14 40  1  0
 15 41  1  0
 16 42  1  0
 20 43  1  0
 23 44  1  0
 23 45  1  0
 23 46  1  0
M  END
>  <ScrubInfo>  (1) 
{"isomerGroup": 0, "isomerId": 0, "confId": 0, "nr_conformers:": 1, "nr_isomers:": 9}

$$$$
_i1
     RDKit          3D

 46 48  0  0  0  0  0  0  0  0999 V2000
    1.5811    0.1441   -0.5329 N   0  0  0  0  0  0  0  0  0  0  0  0
    2.4765   -0.7398    0.0408 C   0  0  0  0  0  0  0  0  0  0  0  0
    3.8322   -0.4716    0.2069 N   0  0  0  0  0  0  0  0  0  0  0  0
    4.4403    0.7928    0.0196 C   0  0  0  0  0  0  0  0  0  0  0  0
    4.8874    1.4905    1.1544 C   0  0  0  0  0  0  0  0  0  0  0  0
    5.4450    2.7670    1.0419 C   0  0  0  0  0  0  0  0  0  0  0  0
    5.5600    3.3710   -0.2071 C   0  0  0  0  0  0  0  0  0  0  0  0
    5.1188    2.6989   -1.3456 C   0  0  0  0  0  0  0  0  0  0  0  0
    4.5602    1.4211   -1.2355 C   0  0  0  0  0  0  0  0  0  0  0  0
    4.0795    0.6327   -2.6983 Cl  0  0  0  0  0  0  0  0  0  0  0  0
    1.9332   -1.8968    0.4422 C   0  0  0  0  0  0  0  0  0  0  0  0
    2.3781   -3.1537    1.0539 C   0  0  0  0  0  0  0  0  0  0  0  0
    1.4050   -4.0086    1.2412 N   0  0  0  0  0  0  0  0  0  0  0  0
    0.2424   -3.3530    0.8017 N   0  0  0  0  0  0  0  0  0  0  0  0
   -0.9459   -4.1344    0.5526 C   0  0  0  0  0  0  0  0  0  0  0  0
    0.4807   -2.1041    0.2498 C   0  0  0  0  0  0  0  0  0  0  0  0
   -0.3277   -1.2764   -0.3185 N   0  0  0  0  0  0  0  0  0  0  0  0
    0.2534   -0.1090   -0.7591 C   0  0  0  0  0  0  0  0  0  0  0  0
   -0.4478    0.7756   -1.3866 N   0  0  0  0  0  0  0  0  0  0  0  0
   -1.8620    0.4832   -1.6448 C   0  0  0  0  0  0  0  0  0  0  0  0
   -2.7331    0.8731   -0.4516 C   0  0  0  0  0  0  0  0  0  0  0  0
   -4.1077    0.6612   -0.7869 O   0  0  0  0  0  0  0  0  0  0  0  0
   -5.0087    1.0223    0.2627 C   0  0  0  0  0  0  0  0  0  0  0  0
   -5.0897   -0.0855    1.3084 C   0  0  0  0  0  0  0  0  0  0  0  0
   -6.3743    1.2425   -0.3785 C   0  0  0  0  0  0  0  0  0  0  0  0
    1.9496    0.9785   -0.9636 H   0  0  0  0  0  0  0  0  0  0  0  0
    4.2562   -0.9966    0.9662 H   0  0  0  0  0  0  0  0  0  0  0  0
    4.7895    1.0499    2.1439 H   0  0  0  0  0  0  0  0  0  0  0  0
    5.7829    3.2925    1.9323 H   0  0  0  0  0  0  0  0  0  0  0  0
    5.9928    4.3648   -0.2952 H   0  0  0  0  0  0  0  0  0  0  0  0
    5.2166    3.1735   -2.3191 H   0  0  0  0  0  0  0  0  0  0  0  0
    3.4346   -3.3258    1.2953 H   0  0  0  0  0  0  0  0  0  0  0  0
   -1.8429   -3.5096    0.6111 H   0  0  0  0  0  0  0  0  0  0  0  0
   -1.0467   -4.9329    1.2948 H   0  0  0  0  0  0  0  0  0  0  0  0
   -0.9015   -4.5891   -0.4419 H   0  0  0  0  0  0  0  0  0  0  0  0
   -2.0366   -0.5605   -1.9356 H   0  0  0  0  0  0  0  0  0  0  0  0
   -2.1746    1.0674   -2.5191 H   0  0  0  0  0  0  0  0  0  0  0  0
   -2.4641    0.2761    0.4249 H   0  0  0  0  0  0  0  0  0  0  0  0
   -2.5766    1.9311   -0.2099 H   0  0  0  0  0  0  0  0  0  0  0  0
   -4.6870    1.9616    0.7287 H   0  0  0  0  0  0  0  0  0  0  0  0
   -5.3238   -1.0482    0.8409 H   0  0  0  0  0  0  0  0  0  0  0  0
   -5.8532    0.1357    2.0609 H   0  0  0  0  0  0  0  0  0  0  0  0
   -4.1344   -0.2109    1.8269 H   0  0  0  0  0  0  0  0  0  0  0  0
   -7.1214    1.5367    0.3650 H   0  0  0  0  0  0  0  0  0  0  0  0
   -6.3147    2.0268   -1.1410 H   0  0  0  0  0  0  0  0  0  0  0  0
   -6.7216    0.3360   -0.8868 H   0  0  0  0  0  0  0  0  0  0  0  0
  1  2  1  0
  2  3  1  0
  3  4  1  0
  4  5  2  0
  5  6  1  0
  6  7  2  0
  7  8  1  0
  8  9  2  0
  9 10  1  0
  2 11  2  0
 11 12  1  0
 12 13  2  0
 13 14  1  0
 14 15  1  0
 14 16  1  0
 16 17  2  0
 17 18  1  0
 18 19  2  3
 19 20  1  0
 20 21  1  0
 21 22  1  0
 22 23  1  0
 23 24  1  0
 23 25  1  0
 18  1  1  0
  9  4  1  0
 16 11  1  0
  1 26  1  0
  3 27  1  0
  5 28  1  0
  6 29  1  0
  7 30  1  0
  8 31  1  0
 12 32  1  0
 15 33  1  0
 15 34  1  0
 15 35  1  0
 20 36  1  0
 20 37  1  0
 21 38  1  0
 21 39  1  0
 23 40  1  0
 24 41  1  0
 24 42  1  0
 24 43  1  0
 25 44  1  0
 25 45  1  0
 25 46  1  0
M  END
>  <ScrubInfo>  (2) 
{"isomerGroup": 0, "isomerId": 1, "confId": 0, "nr_conformers:": 1, "nr_isomers:": 9}

$$$$
_i2
     RDKit          3D

 46 48  0  0  0  0  0  0  0  0999 V2000
   -0.4992   -1.5553    0.6321 N   0  0  0  0  0  0  0  0  0  0  0  0
    0.6407   -1.3822   -0.1101 C   0  0  0  0  0  0  0  0  0  0  0  0
    1.7165   -2.1259    0.2869 N   0  0  0  0  0  0  0  0  0  0  0  0
    2.2758   -1.9763    1.6355 C   0  0  0  0  0  0  0  0  0  0  0  0
    2.9976   -0.6305    1.7690 C   0  0  0  0  0  0  0  0  0  0  0  0
    4.0714   -0.5972    0.8216 O   0  0  0  0  0  0  0  0  0  0  0  0
    4.6479    0.7030    0.6697 C   0  0  0  0  0  0  0  0  0  0  0  0
    6.0726    0.5061    0.1654 C   0  0  0  0  0  0  0  0  0  0  0  0
    3.8400    1.5212   -0.3334 C   0  0  0  0  0  0  0  0  0  0  0  0
    0.7372   -0.5727   -1.1322 N   0  0  0  0  0  0  0  0  0  0  0  0
   -0.4329    0.0901   -1.3540 C   0  0  0  0  0  0  0  0  0  0  0  0
   -1.6340   -0.0222   -0.6686 C   0  0  0  0  0  0  0  0  0  0  0  0
   -2.4810    0.9033   -1.3034 C   0  0  0  0  0  0  0  0  0  0  0  0
   -1.8804    1.5554   -2.3072 N   0  0  0  0  0  0  0  0  0  0  0  0
   -0.6355    1.0273   -2.3270 N   0  0  0  0  0  0  0  0  0  0  0  0
    0.3146    1.4910   -3.3065 C   0  0  0  0  0  0  0  0  0  0  0  0
   -1.7242   -0.9624    0.4331 C   0  0  0  0  0  0  0  0  0  0  0  0
   -2.7523   -1.2621    1.1674 N   0  0  0  0  0  0  0  0  0  0  0  0
   -4.0166   -0.6996    0.9413 C   0  0  0  0  0  0  0  0  0  0  0  0
   -4.3985    0.4177    1.6947 C   0  0  0  0  0  0  0  0  0  0  0  0
   -5.6592    0.9954    1.5269 C   0  0  0  0  0  0  0  0  0  0  0  0
   -6.5600    0.4507    0.6134 C   0  0  0  0  0  0  0  0  0  0  0  0
   -6.2049   -0.6771   -0.1271 C   0  0  0  0  0  0  0  0  0  0  0  0
   -4.9433   -1.2553    0.0413 C   0  0  0  0  0  0  0  0  0  0  0  0
   -4.5559   -2.6573   -0.8929 Cl  0  0  0  0  0  0  0  0  0  0  0  0
   -0.5115   -2.3350    1.2694 H   0  0  0  0  0  0  0  0  0  0  0  0
    2.4760   -1.9550   -0.3777 H   0  0  0  0  0  0  0  0  0  0  0  0
    1.4961   -2.0716    2.3981 H   0  0  0  0  0  0  0  0  0  0  0  0
    2.9921   -2.7914    1.7866 H   0  0  0  0  0  0  0  0  0  0  0  0
    3.4149   -0.5314    2.7769 H   0  0  0  0  0  0  0  0  0  0  0  0
    2.2981    0.1934    1.5946 H   0  0  0  0  0  0  0  0  0  0  0  0
    4.6852    1.2152    1.6389 H   0  0  0  0  0  0  0  0  0  0  0  0
    6.0822   -0.0357   -0.7870 H   0  0  0  0  0  0  0  0  0  0  0  0
    6.5837    1.4642    0.0301 H   0  0  0  0  0  0  0  0  0  0  0  0
    6.6474   -0.0979    0.8760 H   0  0  0  0  0  0  0  0  0  0  0  0
    4.3124    2.4896   -0.5259 H   0  0  0  0  0  0  0  0  0  0  0  0
    2.8252    1.7068    0.0315 H   0  0  0  0  0  0  0  0  0  0  0  0
    3.7375    0.9845   -1.2832 H   0  0  0  0  0  0  0  0  0  0  0  0
   -3.5109    1.1515   -1.0900 H   0  0  0  0  0  0  0  0  0  0  0  0
   -0.1401    1.4055   -4.2968 H   0  0  0  0  0  0  0  0  0  0  0  0
    1.2225    0.8851   -3.2669 H   0  0  0  0  0  0  0  0  0  0  0  0
    0.5526    2.5342   -3.0844 H   0  0  0  0  0  0  0  0  0  0  0  0
   -3.7046    0.8397    2.4173 H   0  0  0  0  0  0  0  0  0  0  0  0
   -5.9384    1.8675    2.1135 H   0  0  0  0  0  0  0  0  0  0  0  0
   -7.5421    0.8993    0.4831 H   0  0  0  0  0  0  0  0  0  0  0  0
   -6.9146   -1.1039   -0.8312 H   0  0  0  0  0  0  0  0  0  0  0  0
  1  2  1  0
  2  3  1  0
  3  4  1  0
  4  5  1  0
  5  6  1  0
  6  7  1  0
  7  8  1  0
  7  9  1  0
  2 10  2  0
 10 11  1  0
 11 12  2  0
 12 13  1  0
 13 14  2  0
 14 15  1  0
 15 16  1  0
 12 17  1  0
 17 18  2  3
 18 19  1  0
 19 20  2  0
 20 21  1  0
 21 22  2  0
 22 23  1  0
 23 24  2  0
 24 25  1  0
 17  1  1  0
 24 19  1  0
 15 11  1  0
  1 26  1  0
  3 27  1  0
  4 28  1  0
  4 29  1  0
  5 30  1  0
  5 31  1  0
  7 32  1  0
  8 33  1  0
  8 34  1  0
  8 35  1  0
  9 36  1  0
  9 37  1  0
  9 38  1  0
 13 39  1  0
 16 40  1  0
 16 41  1  0
 16 42  1  0
 20 43  1  0
 21 44  1  0
 22 45  1  0
 23 46  1  0
M  END
>  <ScrubInfo>  (3) 
{"isomerGroup": 0, "isomerId": 2, "confId": 0, "nr_conformers:": 1, "nr_isomers:": 9}

$$$$
_i3
     RDKit          3D

 46 48  0  0  0  0  0  0  0  0999 V2000
   -0.3207   -2.5071   -0.6958 N   0  0  0  0  0  0  0  0  0  0  0  0
    0.3477   -1.3776   -0.2729 C   0  0  0  0  0  0  0  0  0  0  0  0
    1.5460   -1.5199    0.1939 N   0  0  0  0  0  0  0  0  0  0  0  0
    2.2286   -0.3026    0.6426 C   0  0  0  0  0  0  0  0  0  0  0  0
    3.6145   -0.6759    1.1762 C   0  0  0  0  0  0  0  0  0  0  0  0
    4.3131    0.4741    1.6603 O   0  0  0  0  0  0  0  0  0  0  0  0
    5.0207    1.1964    0.6492 C   0  0  0  0  0  0  0  0  0  0  0  0
    6.4045    0.5864    0.4497 C   0  0  0  0  0  0  0  0  0  0  0  0
    5.1406    2.6387    1.1267 C   0  0  0  0  0  0  0  0  0  0  0  0
   -0.2304   -0.1177   -0.3401 N   0  0  0  0  0  0  0  0  0  0  0  0
   -1.4489   -0.0028   -0.7895 C   0  0  0  0  0  0  0  0  0  0  0  0
   -2.0962    1.1966   -0.9159 N   0  0  0  0  0  0  0  0  0  0  0  0
   -3.1853    1.6214   -0.0968 C   0  0  0  0  0  0  0  0  0  0  0  0
   -3.8385    0.7677    0.8049 C   0  0  0  0  0  0  0  0  0  0  0  0
   -4.9394    1.2097    1.5470 C   0  0  0  0  0  0  0  0  0  0  0  0
   -5.4145    2.5097    1.3954 C   0  0  0  0  0  0  0  0  0  0  0  0
   -4.7892    3.3740    0.5006 C   0  0  0  0  0  0  0  0  0  0  0  0
   -3.6894    2.9323   -0.2403 C   0  0  0  0  0  0  0  0  0  0  0  0
   -2.9457    4.0496   -1.3342 Cl  0  0  0  0  0  0  0  0  0  0  0  0
   -2.1701   -1.1565   -1.2772 C   0  0  0  0  0  0  0  0  0  0  0  0
   -3.4057   -1.4304   -1.8823 C   0  0  0  0  0  0  0  0  0  0  0  0
   -3.5675   -2.7386   -2.1388 N   0  0  0  0  0  0  0  0  0  0  0  0
   -2.4083   -3.3001   -1.7120 N   0  0  0  0  0  0  0  0  0  0  0  0
   -2.2226   -4.7217   -1.8519 C   0  0  0  0  0  0  0  0  0  0  0  0
   -1.5568   -2.3756   -1.1987 C   0  0  0  0  0  0  0  0  0  0  0  0
    0.2045   -3.3673   -0.6147 H   0  0  0  0  0  0  0  0  0  0  0  0
    2.3333    0.4107   -0.1831 H   0  0  0  0  0  0  0  0  0  0  0  0
    1.6675    0.1955    1.4433 H   0  0  0  0  0  0  0  0  0  0  0  0
    3.4985   -1.3592    2.0251 H   0  0  0  0  0  0  0  0  0  0  0  0
    4.2018   -1.2083    0.4197 H   0  0  0  0  0  0  0  0  0  0  0  0
    4.4672    1.1860   -0.2965 H   0  0  0  0  0  0  0  0  0  0  0  0
    6.9901    1.1621   -0.2737 H   0  0  0  0  0  0  0  0  0  0  0  0
    6.3327   -0.4437    0.0871 H   0  0  0  0  0  0  0  0  0  0  0  0
    6.9549    0.5476    1.3962 H   0  0  0  0  0  0  0  0  0  0  0  0
    4.1462    3.0699    1.2859 H   0  0  0  0  0  0  0  0  0  0  0  0
    5.6646    2.6940    2.0875 H   0  0  0  0  0  0  0  0  0  0  0  0
    5.6752    3.2566    0.3988 H   0  0  0  0  0  0  0  0  0  0  0  0
   -1.4255    1.9645   -0.9349 H   0  0  0  0  0  0  0  0  0  0  0  0
   -3.4989   -0.2521    0.9666 H   0  0  0  0  0  0  0  0  0  0  0  0
   -5.4258    0.5324    2.2460 H   0  0  0  0  0  0  0  0  0  0  0  0
   -6.2707    2.8485    1.9738 H   0  0  0  0  0  0  0  0  0  0  0  0
   -5.1620    4.3882    0.3827 H   0  0  0  0  0  0  0  0  0  0  0  0
   -4.1984   -0.7421   -2.1464 H   0  0  0  0  0  0  0  0  0  0  0  0
   -2.2458   -4.9683   -2.9163 H   0  0  0  0  0  0  0  0  0  0  0  0
   -3.0337   -5.2294   -1.3237 H   0  0  0  0  0  0  0  0  0  0  0  0
   -1.2623   -5.0158   -1.4233 H   0  0  0  0  0  0  0  0  0  0  0  0
  1  2  1  0
  2  3  2  3
  3  4  1  0
  4  5  1  0
  5  6  1  0
  6  7  1  0
  7  8  1  0
  7  9  1  0
  2 10  1  0
 10 11  2  0
 11 12  1  0
 12 13  1  0
 13 14  2  0
 14 15  1  0
 15 16  2  0
 16 17  1  0
 17 18  2  0
 18 19  1  0
 11 20  1  0
 20 21  1  0
 21 22  2  0
 22 23  1  0
 23 24  1  0
 23 25  1  0
 25  1  1  0
 18 13  1  0
 25 20  2  0
  1 26  1  0
  4 27  1  0
  4 28  1  0
  5 29  1  0
  5 30  1  0
  7 31  1  0
  8 32  1  0
  8 33  1  0
  8 34  1  0
  9 35  1  0
  9 36  1  0
  9 37  1  0
 12 38  1  0
 14 39  1  0
 15 40  1  0
 16 41  1  0
 17 42  1  0
 21 43  1  0
 24 44  1  0
 24 45  1  0
 24 46  1  0
M  END
>  <ScrubInfo>  (4) 
{"isomerGroup": 0, "isomerId": 3, "confId": 0, "nr_conformers:": 1, "nr_isomers:": 9}

$$$$
_i4
     RDKit          3D

 46 48  0  0  0  0  0  0  0  0999 V2000
    2.5606   -4.2961   -1.6148 N   0  0  0  0  0  0  0  0  0  0  0  0
    3.1137   -3.1756   -1.0025 C   0  0  0  0  0  0  0  0  0  0  0  0
    2.2525   -2.1543   -0.9136 C   0  0  0  0  0  0  0  0  0  0  0  0
    2.2564   -0.7987   -0.4166 C   0  0  0  0  0  0  0  0  0  0  0  0
    3.2765   -0.2866    0.1990 N   0  0  0  0  0  0  0  0  0  0  0  0
    3.1639    1.0346    0.6759 C   0  0  0  0  0  0  0  0  0  0  0  0
    3.7488    2.0649   -0.0710 C   0  0  0  0  0  0  0  0  0  0  0  0
    3.6815    3.3915    0.3617 C   0  0  0  0  0  0  0  0  0  0  0  0
    3.0349    3.7032    1.5561 C   0  0  0  0  0  0  0  0  0  0  0  0
    2.4603    2.6880    2.3213 C   0  0  0  0  0  0  0  0  0  0  0  0
    2.5285    1.3597    1.8878 C   0  0  0  0  0  0  0  0  0  0  0  0
    1.8164    0.1415    2.8902 Cl  0  0  0  0  0  0  0  0  0  0  0  0
    1.0976   -0.1085   -0.6513 N   0  0  0  0  0  0  0  0  0  0  0  0
    0.0552   -0.6609   -1.2014 C   0  0  0  0  0  0  0  0  0  0  0  0
   -1.0350    0.1430   -1.3549 N   0  0  0  0  0  0  0  0  0  0  0  0
   -2.3854   -0.3850   -1.2737 C   0  0  0  0  0  0  0  0  0  0  0  0
   -3.3861    0.7725   -1.1552 C   0  0  0  0  0  0  0  0  0  0  0  0
   -3.0196    1.6816   -0.1082 O   0  0  0  0  0  0  0  0  0  0  0  0
   -3.3548    1.2435    1.2111 C   0  0  0  0  0  0  0  0  0  0  0  0
   -4.7829    1.6605    1.5443 C   0  0  0  0  0  0  0  0  0  0  0  0
   -2.3673    1.9033    2.1665 C   0  0  0  0  0  0  0  0  0  0  0  0
   -0.0347   -1.9659   -1.6175 N   0  0  0  0  0  0  0  0  0  0  0  0
    1.0143   -2.7003   -1.4821 C   0  0  0  0  0  0  0  0  0  0  0  0
    1.2038   -4.0435   -1.8151 N   0  0  0  0  0  0  0  0  0  0  0  0
    0.5472   -4.6197   -2.9728 C   0  0  0  0  0  0  0  0  0  0  0  0
    2.7873   -5.1688   -1.1321 H   0  0  0  0  0  0  0  0  0  0  0  0
    4.1354   -3.2040   -0.6505 H   0  0  0  0  0  0  0  0  0  0  0  0
    4.2543    1.8258   -1.0029 H   0  0  0  0  0  0  0  0  0  0  0  0
    4.1336    4.1788   -0.2360 H   0  0  0  0  0  0  0  0  0  0  0  0
    2.9808    4.7354    1.8928 H   0  0  0  0  0  0  0  0  0  0  0  0
    1.9628    2.9348    3.2551 H   0  0  0  0  0  0  0  0  0  0  0  0
   -0.9211    1.0124   -0.8368 H   0  0  0  0  0  0  0  0  0  0  0  0
   -2.4670   -1.0362   -0.3969 H   0  0  0  0  0  0  0  0  0  0  0  0
   -2.6162   -0.9825   -2.1621 H   0  0  0  0  0  0  0  0  0  0  0  0
   -3.3751    1.3519   -2.0850 H   0  0  0  0  0  0  0  0  0  0  0  0
   -4.4053    0.3991   -1.0122 H   0  0  0  0  0  0  0  0  0  0  0  0
   -3.2535    0.1570    1.3018 H   0  0  0  0  0  0  0  0  0  0  0  0
   -4.9153    2.7405    1.4164 H   0  0  0  0  0  0  0  0  0  0  0  0
   -5.4996    1.1753    0.8744 H   0  0  0  0  0  0  0  0  0  0  0  0
   -5.0431    1.3942    2.5734 H   0  0  0  0  0  0  0  0  0  0  0  0
   -2.4148    2.9953    2.0911 H   0  0  0  0  0  0  0  0  0  0  0  0
   -2.5616    1.6135    3.2036 H   0  0  0  0  0  0  0  0  0  0  0  0
   -1.3416    1.6153    1.9106 H   0  0  0  0  0  0  0  0  0  0  0  0
    0.7429   -5.6956   -3.0251 H   0  0  0  0  0  0  0  0  0  0  0  0
    0.9076   -4.1550   -3.8966 H   0  0  0  0  0  0  0  0  0  0  0  0
   -0.5368   -4.4800   -2.9099 H   0  0  0  0  0  0  0  0  0  0  0  0
  1  2  1  0
  2  3  2  0
  3  4  1  0
  4  5  2  3
  5  6  1  0
  6  7  2  0
  7  8  1  0
  8  9  2  0
  9 10  1  0
 10 11  2  0
 11 12  1  0
  4 13  1  0
 13 14  2  0
 14 15  1  0
 15 16  1  0
 16 17  1  0
 17 18  1  0
 18 19  1  0
 19 20  1  0
 19 21  1  0
 14 22  1  0
 22 23  2  0
 23 24  1  0
 24 25  1  0
 24  1  1  0
 23  3  1  0
 11  6  1  0
  1 26  1  0
  2 27  1  0
  7 28  1  0
  8 29  1  0
  9 30  1  0
 10 31  1  0
 15 32  1  0
 16 33  1  0
 16 34  1  0
 17 35  1  0
 17 36  1  0
 19 37  1  0
 20 38  1  0
 20 39  1  0
 20 40  1  0
 21 41  1  0
 21 42  1  0
 21 43  1  0
 25 44  1  0
 25 45  1  0
 25 46  1  0
M  END
>  <ScrubInfo>  (5) 
{"isomerGroup": 0, "isomerId": 4, "confId": 0, "nr_conformers:": 1, "nr_isomers:": 9}

$$$$
_i5
     RDKit          3D

 46 48  0  0  0  0  0  0  0  0999 V2000
   -0.8910   -1.4797    0.6666 N   0  0  0  0  0  0  0  0  0  0  0  0
    0.1040   -0.7335    0.0849 C   0  0  0  0  0  0  0  0  0  0  0  0
    1.3611   -1.2457    0.2307 N   0  0  0  0  0  0  0  0  0  0  0  0
    1.9196   -1.5036    1.5592 C   0  0  0  0  0  0  0  0  0  0  0  0
    3.3906   -1.9131    1.4292 C   0  0  0  0  0  0  0  0  0  0  0  0
    4.1231   -0.8197    0.8675 O   0  0  0  0  0  0  0  0  0  0  0  0
    5.5169   -1.0912    0.6966 C   0  0  0  0  0  0  0  0  0  0  0  0
    6.2257    0.2556    0.6083 C   0  0  0  0  0  0  0  0  0  0  0  0
    5.7547   -1.8977   -0.5759 C   0  0  0  0  0  0  0  0  0  0  0  0
   -0.0713    0.3663   -0.5890 N   0  0  0  0  0  0  0  0  0  0  0  0
   -1.3487    0.8948   -0.7310 C   0  0  0  0  0  0  0  0  0  0  0  0
   -1.4241    2.0436   -1.3242 N   0  0  0  0  0  0  0  0  0  0  0  0
   -2.6353    2.7216   -1.5060 C   0  0  0  0  0  0  0  0  0  0  0  0
   -3.2676    2.6314   -2.7527 C   0  0  0  0  0  0  0  0  0  0  0  0
   -4.4615    3.3126   -3.0009 C   0  0  0  0  0  0  0  0  0  0  0  0
   -5.0295    4.1076   -2.0074 C   0  0  0  0  0  0  0  0  0  0  0  0
   -4.3999    4.2291   -0.7682 C   0  0  0  0  0  0  0  0  0  0  0  0
   -3.2044    3.5473   -0.5202 C   0  0  0  0  0  0  0  0  0  0  0  0
   -2.4670    3.7365    1.0320 Cl  0  0  0  0  0  0  0  0  0  0  0  0
   -2.4443    0.0937   -0.2077 C   0  0  0  0  0  0  0  0  0  0  0  0
   -3.8506    0.1255   -0.2018 C   0  0  0  0  0  0  0  0  0  0  0  0
   -4.3950   -0.9256    0.4328 N   0  0  0  0  0  0  0  0  0  0  0  0
   -3.3237   -1.6409    0.8436 N   0  0  0  0  0  0  0  0  0  0  0  0
   -3.5356   -2.8600    1.5809 C   0  0  0  0  0  0  0  0  0  0  0  0
   -2.1532   -1.0623    0.4721 C   0  0  0  0  0  0  0  0  0  0  0  0
   -0.6443   -2.4153    0.9568 H   0  0  0  0  0  0  0  0  0  0  0  0
    2.0091   -0.6301   -0.2697 H   0  0  0  0  0  0  0  0  0  0  0  0
    1.8429   -0.5914    2.1621 H   0  0  0  0  0  0  0  0  0  0  0  0
    1.3624   -2.3036    2.0573 H   0  0  0  0  0  0  0  0  0  0  0  0
    3.4764   -2.7955    0.7870 H   0  0  0  0  0  0  0  0  0  0  0  0
    3.7935   -2.1477    2.4205 H   0  0  0  0  0  0  0  0  0  0  0  0
    5.9033   -1.6334    1.5681 H   0  0  0  0  0  0  0  0  0  0  0  0
    5.8441    0.8471   -0.2315 H   0  0  0  0  0  0  0  0  0  0  0  0
    6.0420    0.8424    1.5149 H   0  0  0  0  0  0  0  0  0  0  0  0
    7.3062    0.1306    0.4880 H   0  0  0  0  0  0  0  0  0  0  0  0
    6.8244   -2.0245   -0.7701 H   0  0  0  0  0  0  0  0  0  0  0  0
    5.2949   -1.4075   -1.4411 H   0  0  0  0  0  0  0  0  0  0  0  0
    5.3065   -2.8931   -0.5027 H   0  0  0  0  0  0  0  0  0  0  0  0
   -2.8181    2.0256   -3.5361 H   0  0  0  0  0  0  0  0  0  0  0  0
   -4.9412    3.2276   -3.9730 H   0  0  0  0  0  0  0  0  0  0  0  0
   -5.9570    4.6413   -2.2008 H   0  0  0  0  0  0  0  0  0  0  0  0
   -4.8411    4.8595   -0.0005 H   0  0  0  0  0  0  0  0  0  0  0  0
   -4.5226    0.8529   -0.6352 H   0  0  0  0  0  0  0  0  0  0  0  0
   -2.5898   -3.2107    1.9992 H   0  0  0  0  0  0  0  0  0  0  0  0
   -3.9430   -3.6074    0.8958 H   0  0  0  0  0  0  0  0  0  0  0  0
   -4.2412   -2.6594    2.3914 H   0  0  0  0  0  0  0  0  0  0  0  0
  1  2  1  0
  2  3  1  0
  3  4  1  0
  4  5  1  0
  5  6  1  0
  6  7  1  0
  7  8  1  0
  7  9  1  0
  2 10  2  0
 10 11  1  0
 11 12  2  3
 12 13  1  0
 13 14  2  0
 14 15  1  0
 15 16  2  0
 16 17  1  0
 17 18  2  0
 18 19  1  0
 11 20  1  0
 20 21  1  0
 21 22  2  0
 22 23  1  0
 23 24  1  0
 23 25  1  0
 25  1  1  0
 18 13  1  0
 25 20  2  0
  1 26  1  0
  3 27  1  0
  4 28  1  0
  4 29  1  0
  5 30  1  0
  5 31  1  0
  7 32  1  0
  8 33  1  0
  8 34  1  0
  8 35  1  0
  9 36  1  0
  9 37  1  0
  9 38  1  0
 14 39  1  0
 15 40  1  0
 16 41  1  0
 17 42  1  0
 21 43  1  0
 24 44  1  0
 24 45  1  0
 24 46  1  0
M  END
>  <ScrubInfo>  (6) 
{"isomerGroup": 0, "isomerId": 5, "confId": 0, "nr_conformers:": 1, "nr_isomers:": 9}

$$$$
_i6
     RDKit          3D

 46 48  0  0  0  0  0  0  0  0999 V2000
    3.0994   -4.5760    0.5332 N   0  0  0  0  0  0  0  0  0  0  0  0
    3.3788   -3.2184    0.4188 C   0  0  0  0  0  0  0  0  0  0  0  0
    2.2780   -2.4705    0.2570 C   0  0  0  0  0  0  0  0  0  0  0  0
    1.9311   -1.0590    0.0604 C   0  0  0  0  0  0  0  0  0  0  0  0
    2.9411   -0.1179    0.0636 N   0  0  0  0  0  0  0  0  0  0  0  0
    2.9070    1.2818   -0.1291 C   0  0  0  0  0  0  0  0  0  0  0  0
    1.7508    1.9963   -0.4610 C   0  0  0  0  0  0  0  0  0  0  0  0
    1.7770    3.3864   -0.6326 C   0  0  0  0  0  0  0  0  0  0  0  0
    2.9643    4.0945   -0.4738 C   0  0  0  0  0  0  0  0  0  0  0  0
    4.1313    3.4132   -0.1437 C   0  0  0  0  0  0  0  0  0  0  0  0
    4.0995    2.0256    0.0257 C   0  0  0  0  0  0  0  0  0  0  0  0
    5.5827    1.2243    0.4360 Cl  0  0  0  0  0  0  0  0  0  0  0  0
    0.6697   -0.7807   -0.1028 N   0  0  0  0  0  0  0  0  0  0  0  0
   -0.2685   -1.7911   -0.0984 C   0  0  0  0  0  0  0  0  0  0  0  0
   -1.5021   -1.5121   -0.3350 N   0  0  0  0  0  0  0  0  0  0  0  0
   -1.8393   -0.1158   -0.6026 C   0  0  0  0  0  0  0  0  0  0  0  0
   -3.3437   -0.0028   -0.8600 C   0  0  0  0  0  0  0  0  0  0  0  0
   -3.7184    1.3544   -1.1174 O   0  0  0  0  0  0  0  0  0  0  0  0
   -3.9917    2.1138    0.0632 C   0  0  0  0  0  0  0  0  0  0  0  0
   -5.4512    1.9315    0.4665 C   0  0  0  0  0  0  0  0  0  0  0  0
   -3.7085    3.5748   -0.2653 C   0  0  0  0  0  0  0  0  0  0  0  0
   -0.0416   -3.1233    0.1455 N   0  0  0  0  0  0  0  0  0  0  0  0
    1.1848   -3.4629    0.3296 C   0  0  0  0  0  0  0  0  0  0  0  0
    1.7183   -4.7231    0.6004 N   0  0  0  0  0  0  0  0  0  0  0  0
    1.1037   -5.9219    0.0617 C   0  0  0  0  0  0  0  0  0  0  0  0
    3.6360   -5.0483    1.2648 H   0  0  0  0  0  0  0  0  0  0  0  0
    4.4085   -2.8958    0.4668 H   0  0  0  0  0  0  0  0  0  0  0  0
    3.8839   -0.4473    0.2449 H   0  0  0  0  0  0  0  0  0  0  0  0
    0.7994    1.4955   -0.6045 H   0  0  0  0  0  0  0  0  0  0  0  0
    0.8602    3.9111   -0.8937 H   0  0  0  0  0  0  0  0  0  0  0  0
    2.9785    5.1731   -0.6086 H   0  0  0  0  0  0  0  0  0  0  0  0
    5.0597    3.9642   -0.0199 H   0  0  0  0  0  0  0  0  0  0  0  0
   -1.3064    0.2603   -1.4851 H   0  0  0  0  0  0  0  0  0  0  0  0
   -1.5650    0.5212    0.2463 H   0  0  0  0  0  0  0  0  0  0  0  0
   -3.5994   -0.5817   -1.7545 H   0  0  0  0  0  0  0  0  0  0  0  0
   -3.9240   -0.4246   -0.0314 H   0  0  0  0  0  0  0  0  0  0  0  0
   -3.3352    1.8069    0.8854 H   0  0  0  0  0  0  0  0  0  0  0  0
   -5.6622    0.8878    0.7194 H   0  0  0  0  0  0  0  0  0  0  0  0
   -5.7024    2.5505    1.3334 H   0  0  0  0  0  0  0  0  0  0  0  0
   -6.1211    2.1952   -0.3595 H   0  0  0  0  0  0  0  0  0  0  0  0
   -4.3243    3.9171   -1.1045 H   0  0  0  0  0  0  0  0  0  0  0  0
   -3.8984    4.2213    0.5969 H   0  0  0  0  0  0  0  0  0  0  0  0
   -2.6638    3.6995   -0.5706 H   0  0  0  0  0  0  0  0  0  0  0  0
    1.6026   -6.8141    0.4539 H   0  0  0  0  0  0  0  0  0  0  0  0
    1.1723   -5.9368   -1.0310 H   0  0  0  0  0  0  0  0  0  0  0  0
    0.0485   -5.9762    0.3481 H   0  0  0  0  0  0  0  0  0  0  0  0
  1  2  1  0
  2  3  2  0
  3  4  1  0
  4  5  1  0
  5  6  1  0
  6  7  2  0
  7  8  1  0
  8  9  2  0
  9 10  1  0
 10 11  2  0
 11 12  1  0
  4 13  2  0
 13 14  1  0
 14 15  2  3
 15 16  1  0
 16 17  1  0
 17 18  1  0
 18 19  1  0
 19 20  1  0
 19 21  1  0
 14 22  1  0
 22 23  2  0
 23 24  1  0
 24 25  1  0
 24  1  1  0
 23  3  1  0
 11  6  1  0
  1 26  1  0
  2 27  1  0
  5 28  1  0
  7 29  1  0
  8 30  1  0
  9 31  1  0
 10 32  1  0
 16 33  1  0
 16 34  1  0
 17 35  1  0
 17 36  1  0
 19 37  1  0
 20 38  1  0
 20 39  1  0
 20 40  1  0
 21 41  1  0
 21 42  1  0
 21 43  1  0
 25 44  1  0
 25 45  1  0
 25 46  1  0
M  END
>  <ScrubInfo>  (7) 
{"isomerGroup": 0, "isomerId": 6, "confId": 0, "nr_conformers:": 1, "nr_isomers:": 9}

$$$$
_i7
     RDKit          3D

 46 48  0  0  0  0  0  0  0  0999 V2000
    3.0335   -2.2486    0.5666 N   0  0  0  0  0  0  0  0  0  0  0  0
    3.2344   -0.8958    0.3178 C   0  0  0  0  0  0  0  0  0  0  0  0
    2.1299   -0.2555   -0.0914 C   0  0  0  0  0  0  0  0  0  0  0  0
    1.6896    1.0850   -0.5271 C   0  0  0  0  0  0  0  0  0  0  0  0
    2.3725    2.1879   -0.6181 N   0  0  0  0  0  0  0  0  0  0  0  0
    3.7395    2.2212   -0.3028 C   0  0  0  0  0  0  0  0  0  0  0  0
    4.1194    2.6203    0.9848 C   0  0  0  0  0  0  0  0  0  0  0  0
    5.4679    2.6981    1.3407 C   0  0  0  0  0  0  0  0  0  0  0  0
    6.4546    2.3906    0.4057 C   0  0  0  0  0  0  0  0  0  0  0  0
    6.0942    2.0119   -0.8878 C   0  0  0  0  0  0  0  0  0  0  0  0
    4.7442    1.9344   -1.2437 C   0  0  0  0  0  0  0  0  0  0  0  0
    4.3524    1.4571   -2.8582 Cl  0  0  0  0  0  0  0  0  0  0  0  0
    0.3659    1.1051   -0.8718 N   0  0  0  0  0  0  0  0  0  0  0  0
   -0.5167    0.0637   -0.8474 C   0  0  0  0  0  0  0  0  0  0  0  0
   -1.7275    0.2755   -1.2449 N   0  0  0  0  0  0  0  0  0  0  0  0
   -2.6622   -0.8554   -1.1890 C   0  0  0  0  0  0  0  0  0  0  0  0
   -4.0590   -0.3839   -1.6179 C   0  0  0  0  0  0  0  0  0  0  0  0
   -4.6603    0.4958   -0.6616 O   0  0  0  0  0  0  0  0  0  0  0  0
   -5.2751   -0.1623    0.4469 C   0  0  0  0  0  0  0  0  0  0  0  0
   -6.7146   -0.5247    0.0962 C   0  0  0  0  0  0  0  0  0  0  0  0
   -5.2424    0.8078    1.6218 C   0  0  0  0  0  0  0  0  0  0  0  0
   -0.1427   -1.1896   -0.4096 N   0  0  0  0  0  0  0  0  0  0  0  0
    1.0901   -1.3452   -0.0379 C   0  0  0  0  0  0  0  0  0  0  0  0
    1.6759   -2.5116    0.4612 N   0  0  0  0  0  0  0  0  0  0  0  0
    1.2451   -3.8180    0.0003 C   0  0  0  0  0  0  0  0  0  0  0  0
    3.4932   -2.5796    1.4178 H   0  0  0  0  0  0  0  0  0  0  0  0
    4.2250   -0.4944    0.4693 H   0  0  0  0  0  0  0  0  0  0  0  0
    3.3536    2.8791    1.7121 H   0  0  0  0  0  0  0  0  0  0  0  0
    5.7460    3.0103    2.3447 H   0  0  0  0  0  0  0  0  0  0  0  0
    7.5049    2.4580    0.6799 H   0  0  0  0  0  0  0  0  0  0  0  0
    6.8677    1.7848   -1.6171 H   0  0  0  0  0  0  0  0  0  0  0  0
   -0.0100    1.9808   -1.2039 H   0  0  0  0  0  0  0  0  0  0  0  0
   -2.7017   -1.2660   -0.1746 H   0  0  0  0  0  0  0  0  0  0  0  0
   -2.3351   -1.6387   -1.8830 H   0  0  0  0  0  0  0  0  0  0  0  0
   -3.9843    0.1725   -2.5587 H   0  0  0  0  0  0  0  0  0  0  0  0
   -4.7105   -1.2454   -1.7999 H   0  0  0  0  0  0  0  0  0  0  0  0
   -4.7218   -1.0661    0.7242 H   0  0  0  0  0  0  0  0  0  0  0  0
   -7.2739    0.3609   -0.2251 H   0  0  0  0  0  0  0  0  0  0  0  0
   -6.7496   -1.2358   -0.7350 H   0  0  0  0  0  0  0  0  0  0  0  0
   -7.2292   -0.9738    0.9513 H   0  0  0  0  0  0  0  0  0  0  0  0
   -5.7643    1.7400    1.3785 H   0  0  0  0  0  0  0  0  0  0  0  0
   -5.7018    0.3700    2.5132 H   0  0  0  0  0  0  0  0  0  0  0  0
   -4.2084    1.0797    1.8607 H   0  0  0  0  0  0  0  0  0  0  0  0
    1.7527   -4.6072    0.5644 H   0  0  0  0  0  0  0  0  0  0  0  0
    1.4716   -3.9495   -1.0629 H   0  0  0  0  0  0  0  0  0  0  0  0
    0.1676   -3.9433    0.1477 H   0  0  0  0  0  0  0  0  0  0  0  0
  1  2  1  0
  2  3  2  0
  3  4  1  0
  4  5  2  3
  5  6  1  0
  6  7  2  0
  7  8  1  0
  8  9  2  0
  9 10  1  0
 10 11  2  0
 11 12  1  0
  4 13  1  0
 13 14  1  0
 14 15  2  3
 15 16  1  0
 16 17  1  0
 17 18  1  0
 18 19  1  0
 19 20  1  0
 19 21  1  0
 14 22  1  0
 22 23  2  0
 23 24  1  0
 24 25  1  0
 24  1  1  0
 23  3  1  0
 11  6  1  0
  1 26  1  0
  2 27  1  0
  7 28  1  0
  8 29  1  0
  9 30  1  0
 10 31  1  0
 13 32  1  0
 16 33  1  0
 16 34  1  0
 17 35  1  0
 17 36  1  0
 19 37  1  0
 20 38  1  0
 20 39  1  0
 20 40  1  0
 21 41  1  0
 21 42  1  0
 21 43  1  0
 25 44  1  0
 25 45  1  0
 25 46  1  0
M  END
>  <ScrubInfo>  (8) 
{"isomerGroup": 0, "isomerId": 7, "confId": 0, "nr_conformers:": 1, "nr_isomers:": 9}

$$$$
_i8
     RDKit          3D

 46 48  0  0  0  0  0  0  0  0999 V2000
   -0.1201   -1.2114   -1.0486 N   0  0  0  0  0  0  0  0  0  0  0  0
    0.4920   -0.0234   -0.6855 C   0  0  0  0  0  0  0  0  0  0  0  0
    1.7413    0.2846   -0.7682 N   0  0  0  0  0  0  0  0  0  0  0  0
    2.6800   -0.7120   -1.2919 C   0  0  0  0  0  0  0  0  0  0  0  0
    4.1142   -0.2305   -1.0517 C   0  0  0  0  0  0  0  0  0  0  0  0
    4.4833   -0.5037    0.3039 O   0  0  0  0  0  0  0  0  0  0  0  0
    5.7559    0.0385    0.6633 C   0  0  0  0  0  0  0  0  0  0  0  0
    6.2780   -0.7831    1.8365 C   0  0  0  0  0  0  0  0  0  0  0  0
    5.6138    1.5029    1.0657 C   0  0  0  0  0  0  0  0  0  0  0  0
   -0.3876    0.9122   -0.1877 N   0  0  0  0  0  0  0  0  0  0  0  0
   -1.7518    0.8836    0.0029 C   0  0  0  0  0  0  0  0  0  0  0  0
   -2.3836    1.9121    0.4840 N   0  0  0  0  0  0  0  0  0  0  0  0
   -3.7743    1.9259    0.6570 C   0  0  0  0  0  0  0  0  0  0  0  0
   -4.2967    1.6013    1.9153 C   0  0  0  0  0  0  0  0  0  0  0  0
   -5.6738    1.6328    2.1470 C   0  0  0  0  0  0  0  0  0  0  0  0
   -6.5446    2.0063    1.1249 C   0  0  0  0  0  0  0  0  0  0  0  0
   -6.0392    2.3563   -0.1276 C   0  0  0  0  0  0  0  0  0  0  0  0
   -4.6607    2.3247   -0.3592 C   0  0  0  0  0  0  0  0  0  0  0  0
   -4.0858    2.7707   -1.9273 Cl  0  0  0  0  0  0  0  0  0  0  0  0
   -2.3011   -0.4027   -0.3946 C   0  0  0  0  0  0  0  0  0  0  0  0
   -3.5622   -1.0269   -0.4217 C   0  0  0  0  0  0  0  0  0  0  0  0
   -3.5158   -2.2790   -0.9007 N   0  0  0  0  0  0  0  0  0  0  0  0
   -2.2082   -2.4681   -1.1797 N   0  0  0  0  0  0  0  0  0  0  0  0
   -1.7790   -3.7299   -1.7281 C   0  0  0  0  0  0  0  0  0  0  0  0
   -1.4549   -1.3710   -0.8932 C   0  0  0  0  0  0  0  0  0  0  0  0
    0.4742   -1.9398   -1.4187 H   0  0  0  0  0  0  0  0  0  0  0  0
    2.5174   -0.8212   -2.3699 H   0  0  0  0  0  0  0  0  0  0  0  0
    2.5391   -1.6813   -0.8001 H   0  0  0  0  0  0  0  0  0  0  0  0
    4.7945   -0.7875   -1.7057 H   0  0  0  0  0  0  0  0  0  0  0  0
    4.2024    0.8379   -1.2743 H   0  0  0  0  0  0  0  0  0  0  0  0
    6.4585   -0.0598   -0.1732 H   0  0  0  0  0  0  0  0  0  0  0  0
    7.2603   -0.4300    2.1649 H   0  0  0  0  0  0  0  0  0  0  0  0
    6.3639   -1.8380    1.5537 H   0  0  0  0  0  0  0  0  0  0  0  0
    5.5867   -0.7410    2.6857 H   0  0  0  0  0  0  0  0  0  0  0  0
    5.2823    2.1152    0.2217 H   0  0  0  0  0  0  0  0  0  0  0  0
    4.8614    1.6204    1.8535 H   0  0  0  0  0  0  0  0  0  0  0  0
    6.5649    1.9087    1.4244 H   0  0  0  0  0  0  0  0  0  0  0  0
    0.0498    1.7843    0.0729 H   0  0  0  0  0  0  0  0  0  0  0  0
   -3.6209    1.3229    2.7203 H   0  0  0  0  0  0  0  0  0  0  0  0
   -6.0642    1.3719    3.1278 H   0  0  0  0  0  0  0  0  0  0  0  0
   -7.6166    2.0335    1.3056 H   0  0  0  0  0  0  0  0  0  0  0  0
   -6.7218    2.6566   -0.9184 H   0  0  0  0  0  0  0  0  0  0  0  0
   -4.5255   -0.6430   -0.1168 H   0  0  0  0  0  0  0  0  0  0  0  0
   -1.8177   -3.6574   -2.8175 H   0  0  0  0  0  0  0  0  0  0  0  0
   -2.4470   -4.5203   -1.3757 H   0  0  0  0  0  0  0  0  0  0  0  0
   -0.7606   -3.9423   -1.3948 H   0  0  0  0  0  0  0  0  0  0  0  0
  1  2  1  0
  2  3  2  3
  3  4  1  0
  4  5  1  0
  5  6  1  0
  6  7  1  0
  7  8  1  0
  7  9  1  0
  2 10  1  0
 10 11  1  0
 11 12  2  3
 12 13  1  0
 13 14  2  0
 14 15  1  0
 15 16  2  0
 16 17  1  0
 17 18  2  0
 18 19  1  0
 11 20  1  0
 20 21  1  0
 21 22  2  0
 22 23  1  0
 23 24  1  0
 23 25  1  0
 25  1  1  0
 18 13  1  0
 25 20  2  0
  1 26  1  0
  4 27  1  0
  4 28  1  0
  5 29  1  0
  5 30  1  0
  7 31  1  0
  8 32  1  0
  8 33  1  0
  8 34  1  0
  9 35  1  0
  9 36  1  0
  9 37  1  0
 10 38  1  0
 14 39  1  0
 15 40  1  0
 16 41  1  0
 17 42  1  0
 21 43  1  0
 24 44  1  0
 24 45  1  0
 24 46  1  0
M  END
>  <ScrubInfo>  (9) 
{"isomerGroup": 0, "isomerId": 8, "confId": 0, "nr_conformers:": 1, "nr_isomers:": 9}

$$$$
