_i0
     RDKit          3D

 51 53  0  0  0  0  0  0  0  0999 V2000
    4.7058    0.5480   -2.6543 C   0  0  0  0  0  0  0  0  0  0  0  0
    5.6363    1.1999   -1.6430 C   0  0  0  0  0  0  0  0  0  0  0  0
    5.4472    0.6821   -0.2155 C   0  0  0  0  0  0  0  0  0  0  0  0
    4.0806    1.0294    0.3786 C   0  0  0  0  0  0  0  0  0  0  0  0
    3.9809    0.5782    1.8393 C   0  0  0  0  0  0  0  0  0  0  0  0
    2.7100    0.9604    2.4311 N   0  0  0  0  0  0  0  0  0  0  0  0
    1.5908    0.2558    2.0129 C   0  0  0  0  0  0  0  0  0  0  0  0
    0.4679    0.9920    1.9300 N   0  0  0  0  0  0  0  0  0  0  0  0
   -0.6968    0.4250    1.5214 C   0  0  0  0  0  0  0  0  0  0  0  0
   -1.8122    1.2901    1.4584 N   0  0  0  0  0  0  0  0  0  0  0  0
   -2.8319    1.1994    0.4826 C   0  0  0  0  0  0  0  0  0  0  0  0
   -4.0395    0.5822    0.8375 C   0  0  0  0  0  0  0  0  0  0  0  0
   -5.0807    0.4128   -0.0908 C   0  0  0  0  0  0  0  0  0  0  0  0
   -6.3536   -0.2592    0.3474 C   0  0  0  0  0  0  0  0  0  0  0  0
   -4.9069    0.8690   -1.4113 C   0  0  0  0  0  0  0  0  0  0  0  0
   -5.9886    0.7101   -2.4452 C   0  0  0  0  0  0  0  0  0  0  0  0
   -3.6995    1.4892   -1.7697 C   0  0  0  0  0  0  0  0  0  0  0  0
   -2.6730    1.6510   -0.8346 C   0  0  0  0  0  0  0  0  0  0  0  0
   -1.0779    2.5124   -1.4043 Br  0  0  0  0  0  0  0  0  0  0  0  0
   -0.6810   -0.9347    1.1993 C   0  0  0  0  0  0  0  0  0  0  0  0
   -1.5652   -1.9380    0.7507 C   0  0  0  0  0  0  0  0  0  0  0  0
   -0.9747   -3.1305    0.6030 N   0  0  0  0  0  0  0  0  0  0  0  0
    0.3053   -2.8849    0.9635 N   0  0  0  0  0  0  0  0  0  0  0  0
    1.2674   -3.9573    0.9372 C   0  0  0  0  0  0  0  0  0  0  0  0
    0.5316   -1.5853    1.3237 C   0  0  0  0  0  0  0  0  0  0  0  0
    1.6937   -1.0457    1.7181 N   0  0  0  0  0  0  0  0  0  0  0  0
    3.6611    0.8137   -2.4685 H   0  0  0  0  0  0  0  0  0  0  0  0
    4.7969   -0.5424   -2.6268 H   0  0  0  0  0  0  0  0  0  0  0  0
    4.9570    0.8835   -3.6657 H   0  0  0  0  0  0  0  0  0  0  0  0
    6.6717    1.0060   -1.9477 H   0  0  0  0  0  0  0  0  0  0  0  0
    5.4974    2.2869   -1.6673 H   0  0  0  0  0  0  0  0  0  0  0  0
    6.2333    1.1177    0.4136 H   0  0  0  0  0  0  0  0  0  0  0  0
    5.5932   -0.4048   -0.1965 H   0  0  0  0  0  0  0  0  0  0  0  0
    3.9145    2.1122    0.3166 H   0  0  0  0  0  0  0  0  0  0  0  0
    3.2884    0.5534   -0.2098 H   0  0  0  0  0  0  0  0  0  0  0  0
    4.1625   -0.4996    1.9329 H   0  0  0  0  0  0  0  0  0  0  0  0
    4.7728    1.0695    2.4171 H   0  0  0  0  0  0  0  0  0  0  0  0
    2.4746    1.9443    2.3638 H   0  0  0  0  0  0  0  0  0  0  0  0
   -1.3838    2.2169    1.4415 H   0  0  0  0  0  0  0  0  0  0  0  0
   -4.1640    0.2296    1.8606 H   0  0  0  0  0  0  0  0  0  0  0  0
   -6.3226   -0.5267    1.4090 H   0  0  0  0  0  0  0  0  0  0  0  0
   -6.5109   -1.1813   -0.2210 H   0  0  0  0  0  0  0  0  0  0  0  0
   -7.2072    0.4105    0.2026 H   0  0  0  0  0  0  0  0  0  0  0  0
   -6.2333   -0.3481   -2.5806 H   0  0  0  0  0  0  0  0  0  0  0  0
   -6.8865    1.2578   -2.1423 H   0  0  0  0  0  0  0  0  0  0  0  0
   -5.6754    1.1018   -3.4188 H   0  0  0  0  0  0  0  0  0  0  0  0
   -3.5595    1.8473   -2.7876 H   0  0  0  0  0  0  0  0  0  0  0  0
   -2.6186   -1.8559    0.5214 H   0  0  0  0  0  0  0  0  0  0  0  0
    0.9306   -4.7381    1.6238 H   0  0  0  0  0  0  0  0  0  0  0  0
    2.2481   -3.5897    1.2473 H   0  0  0  0  0  0  0  0  0  0  0  0
    1.3234   -4.3441   -0.0835 H   0  0  0  0  0  0  0  0  0  0  0  0
  1  2  1  0
  2  3  1  0
  3  4  1  0
  4  5  1  0
  5  6  1  0
  6  7  1  0
  7  8  2  0
  8  9  1  0
  9 10  1  0
 10 11  1  0
 11 12  2  0
 12 13  1  0
 13 14  1  0
 13 15  2  0
 15 16  1  0
 15 17  1  0
 17 18  2  0
 18 19  1  0
  9 20  2  0
 20 21  1  0
 21 22  2  0
 22 23  1  0
 23 24  1  0
 23 25  1  0
 25 26  2  0
 26  7  1  0
 18 11  1  0
 25 20  1  0
  1 27  1  0
  1 28  1  0
  1 29  1  0
  2 30  1  0
  2 31  1  0
  3 32  1  0
  3 33  1  0
  4 34  1  0
  4 35  1  0
  5 36  1  0
  5 37  1  0
  6 38  1  0
 10 39  1  0
 12 40  1  0
 14 41  1  0
 14 42  1  0
 14 43  1  0
 16 44  1  0
 16 45  1  0
 16 46  1  0
 17 47  1  0
 21 48  1  0
 24 49  1  0
 24 50  1  0
 24 51  1  0
M  END
>  <ScrubInfo>  (1) 
{"isomerGroup": 0, "isomerId": 0, "confId": 0, "nr_conformers:": 1, "nr_isomers:": 9}

$$$$
_i1
     RDKit          3D

 51 53  0  0  0  0  0  0  0  0999 V2000
    0.1888   -0.3056   -1.6079 N   0  0  0  0  0  0  0  0  0  0  0  0
   -0.9600   -0.9472   -1.1941 C   0  0  0  0  0  0  0  0  0  0  0  0
   -2.1312   -0.8377   -1.9135 N   0  0  0  0  0  0  0  0  0  0  0  0
   -3.3897   -0.3654   -1.4611 C   0  0  0  0  0  0  0  0  0  0  0  0
   -3.5986    0.1017   -0.1547 C   0  0  0  0  0  0  0  0  0  0  0  0
   -4.8689    0.5077    0.2984 C   0  0  0  0  0  0  0  0  0  0  0  0
   -5.0185    1.0096    1.7102 C   0  0  0  0  0  0  0  0  0  0  0  0
   -5.9694    0.4446   -0.5754 C   0  0  0  0  0  0  0  0  0  0  0  0
   -7.3461    0.8666   -0.1393 C   0  0  0  0  0  0  0  0  0  0  0  0
   -5.7754   -0.0250   -1.8811 C   0  0  0  0  0  0  0  0  0  0  0  0
   -4.5075   -0.4262   -2.3133 C   0  0  0  0  0  0  0  0  0  0  0  0
   -4.3417   -1.0506   -4.1041 Br  0  0  0  0  0  0  0  0  0  0  0  0
   -0.8217   -1.7125   -0.1044 C   0  0  0  0  0  0  0  0  0  0  0  0
   -1.6524   -2.6029    0.7139 C   0  0  0  0  0  0  0  0  0  0  0  0
   -1.0059   -3.1114    1.7337 N   0  0  0  0  0  0  0  0  0  0  0  0
    0.3094   -2.6332    1.6174 N   0  0  0  0  0  0  0  0  0  0  0  0
    1.2157   -2.7907    2.7277 C   0  0  0  0  0  0  0  0  0  0  0  0
    0.4979   -1.7567    0.5619 C   0  0  0  0  0  0  0  0  0  0  0  0
    1.5456   -1.0975    0.1986 N   0  0  0  0  0  0  0  0  0  0  0  0
    1.3795   -0.3199   -0.9266 C   0  0  0  0  0  0  0  0  0  0  0  0
    2.3444    0.4216   -1.3627 N   0  0  0  0  0  0  0  0  0  0  0  0
    3.6014    0.3813   -0.6115 C   0  0  0  0  0  0  0  0  0  0  0  0
    4.5950    1.3141   -1.3051 C   0  0  0  0  0  0  0  0  0  0  0  0
    5.9991    1.2719   -0.6972 C   0  0  0  0  0  0  0  0  0  0  0  0
    6.0562    1.8001    0.7367 C   0  0  0  0  0  0  0  0  0  0  0  0
    7.4857    1.8434    1.2549 C   0  0  0  0  0  0  0  0  0  0  0  0
    0.1302    0.3550   -2.3672 H   0  0  0  0  0  0  0  0  0  0  0  0
   -1.9916   -0.6076   -2.8953 H   0  0  0  0  0  0  0  0  0  0  0  0
   -2.7605    0.1848    0.5332 H   0  0  0  0  0  0  0  0  0  0  0  0
   -5.7441    0.3988    2.2565 H   0  0  0  0  0  0  0  0  0  0  0  0
   -5.3461    2.0539    1.7084 H   0  0  0  0  0  0  0  0  0  0  0  0
   -4.0714    0.9607    2.2580 H   0  0  0  0  0  0  0  0  0  0  0  0
   -7.3413    1.9149    0.1756 H   0  0  0  0  0  0  0  0  0  0  0  0
   -7.6920    0.2376    0.6870 H   0  0  0  0  0  0  0  0  0  0  0  0
   -8.0728    0.7718   -0.9532 H   0  0  0  0  0  0  0  0  0  0  0  0
   -6.6197   -0.0812   -2.5653 H   0  0  0  0  0  0  0  0  0  0  0  0
   -2.7072   -2.7824    0.4699 H   0  0  0  0  0  0  0  0  0  0  0  0
    2.2553   -2.8024    2.3850 H   0  0  0  0  0  0  0  0  0  0  0  0
    1.0272   -3.7329    3.2526 H   0  0  0  0  0  0  0  0  0  0  0  0
    1.0926   -1.9679    3.4387 H   0  0  0  0  0  0  0  0  0  0  0  0
    3.4365    0.7167    0.4185 H   0  0  0  0  0  0  0  0  0  0  0  0
    4.0099   -0.6364   -0.5980 H   0  0  0  0  0  0  0  0  0  0  0  0
    4.2123    2.3423   -1.2861 H   0  0  0  0  0  0  0  0  0  0  0  0
    4.6689    1.0342   -2.3639 H   0  0  0  0  0  0  0  0  0  0  0  0
    6.6630    1.8759   -1.3282 H   0  0  0  0  0  0  0  0  0  0  0  0
    6.3828    0.2448   -0.7292 H   0  0  0  0  0  0  0  0  0  0  0  0
    5.4627    1.1633    1.4013 H   0  0  0  0  0  0  0  0  0  0  0  0
    5.6275    2.8079    0.7803 H   0  0  0  0  0  0  0  0  0  0  0  0
    8.1065    2.5029    0.6401 H   0  0  0  0  0  0  0  0  0  0  0  0
    7.9348    0.8451    1.2504 H   0  0  0  0  0  0  0  0  0  0  0  0
    7.5049    2.2202    2.2824 H   0  0  0  0  0  0  0  0  0  0  0  0
  1  2  1  0
  2  3  1  0
  3  4  1  0
  4  5  2  0
  5  6  1  0
  6  7  1  0
  6  8  2  0
  8  9  1  0
  8 10  1  0
 10 11  2  0
 11 12  1  0
  2 13  2  0
 13 14  1  0
 14 15  2  0
 15 16  1  0
 16 17  1  0
 16 18  1  0
 18 19  2  0
 19 20  1  0
 20 21  2  3
 21 22  1  0
 22 23  1  0
 23 24  1  0
 24 25  1  0
 25 26  1  0
 20  1  1  0
 11  4  1  0
 18 13  1  0
  1 27  1  0
  3 28  1  0
  5 29  1  0
  7 30  1  0
  7 31  1  0
  7 32  1  0
  9 33  1  0
  9 34  1  0
  9 35  1  0
 10 36  1  0
 14 37  1  0
 17 38  1  0
 17 39  1  0
 17 40  1  0
 22 41  1  0
 22 42  1  0
 23 43  1  0
 23 44  1  0
 24 45  1  0
 24 46  1  0
 25 47  1  0
 25 48  1  0
 26 49  1  0
 26 50  1  0
 26 51  1  0
M  END
>  <ScrubInfo>  (2) 
{"isomerGroup": 0, "isomerId": 1, "confId": 0, "nr_conformers:": 1, "nr_isomers:": 9}

$$$$
_i2
     RDKit          3D

 51 53  0  0  0  0  0  0  0  0999 V2000
   -0.6865   -1.0142   -0.3180 N   0  0  0  0  0  0  0  0  0  0  0  0
   -1.4071   -1.5662    0.7093 C   0  0  0  0  0  0  0  0  0  0  0  0
   -2.6606   -2.0171    0.4065 N   0  0  0  0  0  0  0  0  0  0  0  0
   -3.6204   -1.2795   -0.4032 C   0  0  0  0  0  0  0  0  0  0  0  0
   -4.0907   -0.0196    0.3250 C   0  0  0  0  0  0  0  0  0  0  0  0
   -5.0472    0.8407   -0.5052 C   0  0  0  0  0  0  0  0  0  0  0  0
   -6.3865    0.1597   -0.7890 C   0  0  0  0  0  0  0  0  0  0  0  0
   -7.3408    1.0952   -1.5157 C   0  0  0  0  0  0  0  0  0  0  0  0
   -0.9599   -1.6877    1.9341 N   0  0  0  0  0  0  0  0  0  0  0  0
    0.2965   -1.1733    2.0612 C   0  0  0  0  0  0  0  0  0  0  0  0
    1.0954   -0.5917    1.0875 C   0  0  0  0  0  0  0  0  0  0  0  0
    2.2745   -0.2433    1.7698 C   0  0  0  0  0  0  0  0  0  0  0  0
    2.2399   -0.5703    3.0680 N   0  0  0  0  0  0  0  0  0  0  0  0
    1.0206   -1.1352    3.2194 N   0  0  0  0  0  0  0  0  0  0  0  0
    0.6236   -1.6183    4.5178 C   0  0  0  0  0  0  0  0  0  0  0  0
    0.5870   -0.4983   -0.2676 C   0  0  0  0  0  0  0  0  0  0  0  0
    1.1711   -0.0308   -1.3290 N   0  0  0  0  0  0  0  0  0  0  0  0
    2.4599    0.5177   -1.2853 C   0  0  0  0  0  0  0  0  0  0  0  0
    3.5551   -0.3162   -1.5415 C   0  0  0  0  0  0  0  0  0  0  0  0
    4.8715    0.1762   -1.5356 C   0  0  0  0  0  0  0  0  0  0  0  0
    6.0107   -0.7706   -1.7989 C   0  0  0  0  0  0  0  0  0  0  0  0
    5.0946    1.5432   -1.2805 C   0  0  0  0  0  0  0  0  0  0  0  0
    6.4836    2.1215   -1.2618 C   0  0  0  0  0  0  0  0  0  0  0  0
    3.9960    2.3872   -1.0531 C   0  0  0  0  0  0  0  0  0  0  0  0
    2.6927    1.8813   -1.0627 C   0  0  0  0  0  0  0  0  0  0  0  0
    1.2611    3.0912   -0.7523 Br  0  0  0  0  0  0  0  0  0  0  0  0
   -1.0648   -1.0825   -1.2471 H   0  0  0  0  0  0  0  0  0  0  0  0
   -3.0895   -2.3908    1.2510 H   0  0  0  0  0  0  0  0  0  0  0  0
   -4.4698   -1.9435   -0.5936 H   0  0  0  0  0  0  0  0  0  0  0  0
   -3.1942   -1.0270   -1.3798 H   0  0  0  0  0  0  0  0  0  0  0  0
   -4.5684   -0.2951    1.2736 H   0  0  0  0  0  0  0  0  0  0  0  0
   -3.2217    0.5971    0.5869 H   0  0  0  0  0  0  0  0  0  0  0  0
   -4.5648    1.1191   -1.4501 H   0  0  0  0  0  0  0  0  0  0  0  0
   -5.2294    1.7739    0.0423 H   0  0  0  0  0  0  0  0  0  0  0  0
   -6.2371   -0.7339   -1.4043 H   0  0  0  0  0  0  0  0  0  0  0  0
   -6.8472   -0.1639    0.1514 H   0  0  0  0  0  0  0  0  0  0  0  0
   -6.9211    1.4159   -2.4746 H   0  0  0  0  0  0  0  0  0  0  0  0
   -7.5495    1.9868   -0.9159 H   0  0  0  0  0  0  0  0  0  0  0  0
   -8.2909    0.5889   -1.7128 H   0  0  0  0  0  0  0  0  0  0  0  0
    3.1698    0.2331    1.3962 H   0  0  0  0  0  0  0  0  0  0  0  0
    1.3287   -2.3947    4.8255 H   0  0  0  0  0  0  0  0  0  0  0  0
    0.6488   -0.7802    5.2189 H   0  0  0  0  0  0  0  0  0  0  0  0
   -0.3860   -2.0323    4.4740 H   0  0  0  0  0  0  0  0  0  0  0  0
    3.3690   -1.3690   -1.7447 H   0  0  0  0  0  0  0  0  0  0  0  0
    6.5866   -0.4410   -2.6694 H   0  0  0  0  0  0  0  0  0  0  0  0
    5.6517   -1.7840   -2.0075 H   0  0  0  0  0  0  0  0  0  0  0  0
    6.6674   -0.8260   -0.9249 H   0  0  0  0  0  0  0  0  0  0  0  0
    7.0991    1.6112   -0.5143 H   0  0  0  0  0  0  0  0  0  0  0  0
    6.9484    2.0231   -2.2478 H   0  0  0  0  0  0  0  0  0  0  0  0
    6.4727    3.1861   -1.0048 H   0  0  0  0  0  0  0  0  0  0  0  0
    4.1583    3.4471   -0.8684 H   0  0  0  0  0  0  0  0  0  0  0  0
  1  2  1  0
  2  3  1  0
  3  4  1  0
  4  5  1  0
  5  6  1  0
  6  7  1  0
  7  8  1  0
  2  9  2  0
  9 10  1  0
 10 11  2  0
 11 12  1  0
 12 13  2  0
 13 14  1  0
 14 15  1  0
 11 16  1  0
 16 17  2  3
 17 18  1  0
 18 19  2  0
 19 20  1  0
 20 21  1  0
 20 22  2  0
 22 23  1  0
 22 24  1  0
 24 25  2  0
 25 26  1  0
 16  1  1  0
 25 18  1  0
 14 10  1  0
  1 27  1  0
  3 28  1  0
  4 29  1  0
  4 30  1  0
  5 31  1  0
  5 32  1  0
  6 33  1  0
  6 34  1  0
  7 35  1  0
  7 36  1  0
  8 37  1  0
  8 38  1  0
  8 39  1  0
 12 40  1  0
 15 41  1  0
 15 42  1  0
 15 43  1  0
 19 44  1  0
 21 45  1  0
 21 46  1  0
 21 47  1  0
 23 48  1  0
 23 49  1  0
 23 50  1  0
 24 51  1  0
M  END
>  <ScrubInfo>  (3) 
{"isomerGroup": 0, "isomerId": 2, "confId": 0, "nr_conformers:": 1, "nr_isomers:": 9}

$$$$
_i3
     RDKit          3D

 51 53  0  0  0  0  0  0  0  0999 V2000
    1.4667   -1.2321   -1.4079 N   0  0  0  0  0  0  0  0  0  0  0  0
    1.7470   -0.0768   -0.7118 C   0  0  0  0  0  0  0  0  0  0  0  0
    2.9123    0.4576   -0.8756 N   0  0  0  0  0  0  0  0  0  0  0  0
    3.2330    1.6906   -0.1576 C   0  0  0  0  0  0  0  0  0  0  0  0
    3.8353    1.3829    1.2141 C   0  0  0  0  0  0  0  0  0  0  0  0
    5.1006    0.5177    1.1874 C   0  0  0  0  0  0  0  0  0  0  0  0
    6.2692    1.1693    0.4476 C   0  0  0  0  0  0  0  0  0  0  0  0
    7.5319    0.3279    0.5557 C   0  0  0  0  0  0  0  0  0  0  0  0
    0.8228    0.4996    0.1458 N   0  0  0  0  0  0  0  0  0  0  0  0
   -0.3507   -0.0568    0.2853 C   0  0  0  0  0  0  0  0  0  0  0  0
   -1.3027    0.4701    1.1241 N   0  0  0  0  0  0  0  0  0  0  0  0
   -2.6658    0.6517    0.7731 C   0  0  0  0  0  0  0  0  0  0  0  0
   -3.6190    0.2510    1.7249 C   0  0  0  0  0  0  0  0  0  0  0  0
   -4.9979    0.4187    1.5135 C   0  0  0  0  0  0  0  0  0  0  0  0
   -5.9670   -0.0654    2.5577 C   0  0  0  0  0  0  0  0  0  0  0  0
   -5.4402    1.0237    0.3243 C   0  0  0  0  0  0  0  0  0  0  0  0
   -6.9039    1.2277    0.0419 C   0  0  0  0  0  0  0  0  0  0  0  0
   -4.4916    1.4768   -0.6051 C   0  0  0  0  0  0  0  0  0  0  0  0
   -3.1196    1.3089   -0.3801 C   0  0  0  0  0  0  0  0  0  0  0  0
   -1.9449    2.0570   -1.6736 Br  0  0  0  0  0  0  0  0  0  0  0  0
   -0.6746   -1.2876   -0.4043 C   0  0  0  0  0  0  0  0  0  0  0  0
   -1.7394   -2.1992   -0.4816 C   0  0  0  0  0  0  0  0  0  0  0  0
   -1.4822   -3.2202   -1.3156 N   0  0  0  0  0  0  0  0  0  0  0  0
   -0.2334   -2.9570   -1.7730 N   0  0  0  0  0  0  0  0  0  0  0  0
    0.3783   -3.8656   -2.7085 C   0  0  0  0  0  0  0  0  0  0  0  0
    0.2731   -1.8178   -1.2367 C   0  0  0  0  0  0  0  0  0  0  0  0
    2.2203   -1.5647   -1.9937 H   0  0  0  0  0  0  0  0  0  0  0  0
    3.9459    2.2614   -0.7625 H   0  0  0  0  0  0  0  0  0  0  0  0
    2.3639    2.3507   -0.0481 H   0  0  0  0  0  0  0  0  0  0  0  0
    3.0869    0.8717    1.8320 H   0  0  0  0  0  0  0  0  0  0  0  0
    4.0599    2.3304    1.7190 H   0  0  0  0  0  0  0  0  0  0  0  0
    4.8775   -0.4586    0.7407 H   0  0  0  0  0  0  0  0  0  0  0  0
    5.3987    0.3223    2.2253 H   0  0  0  0  0  0  0  0  0  0  0  0
    6.4644    2.1652    0.8617 H   0  0  0  0  0  0  0  0  0  0  0  0
    6.0251    1.2974   -0.6123 H   0  0  0  0  0  0  0  0  0  0  0  0
    7.8351    0.2071    1.6006 H   0  0  0  0  0  0  0  0  0  0  0  0
    8.3546    0.8084    0.0171 H   0  0  0  0  0  0  0  0  0  0  0  0
    7.3783   -0.6666    0.1248 H   0  0  0  0  0  0  0  0  0  0  0  0
   -0.9470    1.3483    1.4972 H   0  0  0  0  0  0  0  0  0  0  0  0
   -3.2728   -0.2215    2.6438 H   0  0  0  0  0  0  0  0  0  0  0  0
   -5.4475   -0.4318    3.4496 H   0  0  0  0  0  0  0  0  0  0  0  0
   -6.5696   -0.8886    2.1615 H   0  0  0  0  0  0  0  0  0  0  0  0
   -6.6248    0.7495    2.8762 H   0  0  0  0  0  0  0  0  0  0  0  0
   -7.3282    1.9475    0.7489 H   0  0  0  0  0  0  0  0  0  0  0  0
   -7.0678    1.6149   -0.9694 H   0  0  0  0  0  0  0  0  0  0  0  0
   -7.4447    0.2791    0.1169 H   0  0  0  0  0  0  0  0  0  0  0  0
   -4.8283    1.9768   -1.5118 H   0  0  0  0  0  0  0  0  0  0  0  0
   -2.6936   -2.1780    0.0276 H   0  0  0  0  0  0  0  0  0  0  0  0
    0.5063   -4.8322   -2.2148 H   0  0  0  0  0  0  0  0  0  0  0  0
   -0.2794   -3.9633   -3.5759 H   0  0  0  0  0  0  0  0  0  0  0  0
    1.3490   -3.4780   -3.0244 H   0  0  0  0  0  0  0  0  0  0  0  0
  1  2  1  0
  2  3  2  3
  3  4  1  0
  4  5  1  0
  5  6  1  0
  6  7  1  0
  7  8  1  0
  2  9  1  0
  9 10  2  0
 10 11  1  0
 11 12  1  0
 12 13  2  0
 13 14  1  0
 14 15  1  0
 14 16  2  0
 16 17  1  0
 16 18  1  0
 18 19  2  0
 19 20  1  0
 10 21  1  0
 21 22  1  0
 22 23  2  0
 23 24  1  0
 24 25  1  0
 24 26  1  0
 26  1  1  0
 19 12  1  0
 26 21  2  0
  1 27  1  0
  4 28  1  0
  4 29  1  0
  5 30  1  0
  5 31  1  0
  6 32  1  0
  6 33  1  0
  7 34  1  0
  7 35  1  0
  8 36  1  0
  8 37  1  0
  8 38  1  0
 11 39  1  0
 13 40  1  0
 15 41  1  0
 15 42  1  0
 15 43  1  0
 17 44  1  0
 17 45  1  0
 17 46  1  0
 18 47  1  0
 22 48  1  0
 25 49  1  0
 25 50  1  0
 25 51  1  0
M  END
>  <ScrubInfo>  (4) 
{"isomerGroup": 0, "isomerId": 3, "confId": 0, "nr_conformers:": 1, "nr_isomers:": 9}

$$$$
_i4
     RDKit          3D

 51 53  0  0  0  0  0  0  0  0999 V2000
   -1.5394   -2.6700    1.9469 N   0  0  0  0  0  0  0  0  0  0  0  0
   -1.8549   -1.4592    1.3395 C   0  0  0  0  0  0  0  0  0  0  0  0
   -0.8119   -0.6202    1.2438 C   0  0  0  0  0  0  0  0  0  0  0  0
   -0.5118    0.7227    0.7635 C   0  0  0  0  0  0  0  0  0  0  0  0
   -1.2571    1.5885    0.1607 N   0  0  0  0  0  0  0  0  0  0  0  0
   -2.5991    1.3042   -0.1261 C   0  0  0  0  0  0  0  0  0  0  0  0
   -2.9139    0.7612   -1.3780 C   0  0  0  0  0  0  0  0  0  0  0  0
   -4.2390    0.4655   -1.7415 C   0  0  0  0  0  0  0  0  0  0  0  0
   -4.5146   -0.1190   -3.1000 C   0  0  0  0  0  0  0  0  0  0  0  0
   -5.2786    0.7343   -0.8307 C   0  0  0  0  0  0  0  0  0  0  0  0
   -6.7155    0.4477   -1.1723 C   0  0  0  0  0  0  0  0  0  0  0  0
   -4.9689    1.3042    0.4146 C   0  0  0  0  0  0  0  0  0  0  0  0
   -3.6447    1.5924    0.7604 C   0  0  0  0  0  0  0  0  0  0  0  0
   -3.3165    2.3609    2.4661 Br  0  0  0  0  0  0  0  0  0  0  0  0
    0.7787    1.1164    0.9931 N   0  0  0  0  0  0  0  0  0  0  0  0
    1.6729    0.3573    1.5463 C   0  0  0  0  0  0  0  0  0  0  0  0
    2.9423    0.8108    1.7574 N   0  0  0  0  0  0  0  0  0  0  0  0
    3.5022    1.9697    1.0967 C   0  0  0  0  0  0  0  0  0  0  0  0
    3.8551    1.6796   -0.3631 C   0  0  0  0  0  0  0  0  0  0  0  0
    4.9784    0.6488   -0.5106 C   0  0  0  0  0  0  0  0  0  0  0  0
    5.3482    0.4399   -1.9795 C   0  0  0  0  0  0  0  0  0  0  0  0
    6.4616   -0.5840   -2.1333 C   0  0  0  0  0  0  0  0  0  0  0  0
    1.4717   -0.9330    1.9561 N   0  0  0  0  0  0  0  0  0  0  0  0
    0.2893   -1.4208    1.8115 C   0  0  0  0  0  0  0  0  0  0  0  0
   -0.1660   -2.6994    2.1396 N   0  0  0  0  0  0  0  0  0  0  0  0
    0.3666   -3.4029    3.2912 C   0  0  0  0  0  0  0  0  0  0  0  0
   -1.9467   -3.4797    1.4736 H   0  0  0  0  0  0  0  0  0  0  0  0
   -2.8708   -1.3064    1.0074 H   0  0  0  0  0  0  0  0  0  0  0  0
   -2.1014    0.5760   -2.0785 H   0  0  0  0  0  0  0  0  0  0  0  0
   -5.1668    0.5460   -3.6748 H   0  0  0  0  0  0  0  0  0  0  0  0
   -4.9877   -1.1012   -3.0021 H   0  0  0  0  0  0  0  0  0  0  0  0
   -3.5921   -0.2539   -3.6748 H   0  0  0  0  0  0  0  0  0  0  0  0
   -7.0320    1.0592   -2.0232 H   0  0  0  0  0  0  0  0  0  0  0  0
   -7.3817    0.6755   -0.3334 H   0  0  0  0  0  0  0  0  0  0  0  0
   -6.8460   -0.6118   -1.4143 H   0  0  0  0  0  0  0  0  0  0  0  0
   -5.7672    1.5316    1.1182 H   0  0  0  0  0  0  0  0  0  0  0  0
    3.5882    0.0706    1.9969 H   0  0  0  0  0  0  0  0  0  0  0  0
    2.8017    2.8114    1.1481 H   0  0  0  0  0  0  0  0  0  0  0  0
    4.4012    2.2829    1.6395 H   0  0  0  0  0  0  0  0  0  0  0  0
    2.9673    1.3340   -0.9062 H   0  0  0  0  0  0  0  0  0  0  0  0
    4.1691    2.6194   -0.8339 H   0  0  0  0  0  0  0  0  0  0  0  0
    5.8614    0.9854    0.0459 H   0  0  0  0  0  0  0  0  0  0  0  0
    4.6677   -0.3091   -0.0773 H   0  0  0  0  0  0  0  0  0  0  0  0
    5.6701    1.3899   -2.4217 H   0  0  0  0  0  0  0  0  0  0  0  0
    4.4690    0.1020   -2.5403 H   0  0  0  0  0  0  0  0  0  0  0  0
    7.3668   -0.2609   -1.6096 H   0  0  0  0  0  0  0  0  0  0  0  0
    6.1593   -1.5558   -1.7301 H   0  0  0  0  0  0  0  0  0  0  0  0
    6.7102   -0.7175   -3.1908 H   0  0  0  0  0  0  0  0  0  0  0  0
    1.4555   -3.4896    3.2201 H   0  0  0  0  0  0  0  0  0  0  0  0
    0.1161   -2.8776    4.2189 H   0  0  0  0  0  0  0  0  0  0  0  0
   -0.0461   -4.4158    3.3426 H   0  0  0  0  0  0  0  0  0  0  0  0
  1  2  1  0
  2  3  2  0
  3  4  1  0
  4  5  2  3
  5  6  1  0
  6  7  2  0
  7  8  1  0
  8  9  1  0
  8 10  2  0
 10 11  1  0
 10 12  1  0
 12 13  2  0
 13 14  1  0
  4 15  1  0
 15 16  2  0
 16 17  1  0
 17 18  1  0
 18 19  1  0
 19 20  1  0
 20 21  1  0
 21 22  1  0
 16 23  1  0
 23 24  2  0
 24 25  1  0
 25 26  1  0
 25  1  1  0
 24  3  1  0
 13  6  1  0
  1 27  1  0
  2 28  1  0
  7 29  1  0
  9 30  1  0
  9 31  1  0
  9 32  1  0
 11 33  1  0
 11 34  1  0
 11 35  1  0
 12 36  1  0
 17 37  1  0
 18 38  1  0
 18 39  1  0
 19 40  1  0
 19 41  1  0
 20 42  1  0
 20 43  1  0
 21 44  1  0
 21 45  1  0
 22 46  1  0
 22 47  1  0
 22 48  1  0
 26 49  1  0
 26 50  1  0
 26 51  1  0
M  END
>  <ScrubInfo>  (5) 
{"isomerGroup": 0, "isomerId": 4, "confId": 0, "nr_conformers:": 1, "nr_isomers:": 9}

$$$$
_i5
     RDKit          3D

 51 53  0  0  0  0  0  0  0  0999 V2000
   -1.1245   -1.7992   -1.5618 N   0  0  0  0  0  0  0  0  0  0  0  0
   -1.5491   -1.4707   -0.2991 C   0  0  0  0  0  0  0  0  0  0  0  0
   -2.8052   -1.8936    0.0281 N   0  0  0  0  0  0  0  0  0  0  0  0
   -3.9694   -1.6718   -0.8179 C   0  0  0  0  0  0  0  0  0  0  0  0
   -4.2674   -0.1851   -1.0268 C   0  0  0  0  0  0  0  0  0  0  0  0
   -4.5460    0.6191    0.2484 C   0  0  0  0  0  0  0  0  0  0  0  0
   -5.7555    0.1153    1.0359 C   0  0  0  0  0  0  0  0  0  0  0  0
   -6.0608    1.0192    2.2207 C   0  0  0  0  0  0  0  0  0  0  0  0
   -0.8535   -0.8166    0.5867 N   0  0  0  0  0  0  0  0  0  0  0  0
    0.4188   -0.3580    0.2669 C   0  0  0  0  0  0  0  0  0  0  0  0
    1.0009    0.3675    1.1682 N   0  0  0  0  0  0  0  0  0  0  0  0
    2.2677    0.9305    0.9766 C   0  0  0  0  0  0  0  0  0  0  0  0
    3.3815    0.2565    1.4924 C   0  0  0  0  0  0  0  0  0  0  0  0
    4.6820    0.7719    1.3580 C   0  0  0  0  0  0  0  0  0  0  0  0
    5.8410   -0.0043    1.9213 C   0  0  0  0  0  0  0  0  0  0  0  0
    4.8699    2.0036    0.7018 C   0  0  0  0  0  0  0  0  0  0  0  0
    6.2398    2.6021    0.5331 C   0  0  0  0  0  0  0  0  0  0  0  0
    3.7518    2.6972    0.2116 C   0  0  0  0  0  0  0  0  0  0  0  0
    2.4642    2.1707    0.3545 C   0  0  0  0  0  0  0  0  0  0  0  0
    1.0077    3.1793   -0.3320 Br  0  0  0  0  0  0  0  0  0  0  0  0
    0.9414   -0.7469   -1.0334 C   0  0  0  0  0  0  0  0  0  0  0  0
    2.1448   -0.6291   -1.7525 C   0  0  0  0  0  0  0  0  0  0  0  0
    2.0921   -1.2162   -2.9593 N   0  0  0  0  0  0  0  0  0  0  0  0
    0.8368   -1.7146   -3.0183 N   0  0  0  0  0  0  0  0  0  0  0  0
    0.4175   -2.4201   -4.2022 C   0  0  0  0  0  0  0  0  0  0  0  0
    0.1325   -1.4538   -1.8874 C   0  0  0  0  0  0  0  0  0  0  0  0
   -1.6645   -2.4918   -2.0610 H   0  0  0  0  0  0  0  0  0  0  0  0
   -2.9910   -1.6155    0.9908 H   0  0  0  0  0  0  0  0  0  0  0  0
   -4.8310   -2.1731   -0.3646 H   0  0  0  0  0  0  0  0  0  0  0  0
   -3.8228   -2.1520   -1.7920 H   0  0  0  0  0  0  0  0  0  0  0  0
   -3.4260    0.2851   -1.5510 H   0  0  0  0  0  0  0  0  0  0  0  0
   -5.1327   -0.0972   -1.6956 H   0  0  0  0  0  0  0  0  0  0  0  0
   -4.7177    1.6634   -0.0420 H   0  0  0  0  0  0  0  0  0  0  0  0
   -3.6593    0.6220    0.8930 H   0  0  0  0  0  0  0  0  0  0  0  0
   -5.5720   -0.8980    1.4086 H   0  0  0  0  0  0  0  0  0  0  0  0
   -6.6341    0.0702    0.3823 H   0  0  0  0  0  0  0  0  0  0  0  0
   -6.2893    2.0372    1.8894 H   0  0  0  0  0  0  0  0  0  0  0  0
   -5.2106    1.0639    2.9089 H   0  0  0  0  0  0  0  0  0  0  0  0
   -6.9260    0.6400    2.7735 H   0  0  0  0  0  0  0  0  0  0  0  0
    3.2195   -0.6881    2.0088 H   0  0  0  0  0  0  0  0  0  0  0  0
    6.3759    0.5955    2.6644 H   0  0  0  0  0  0  0  0  0  0  0  0
    6.5288   -0.2936    1.1205 H   0  0  0  0  0  0  0  0  0  0  0  0
    5.5077   -0.9218    2.4178 H   0  0  0  0  0  0  0  0  0  0  0  0
    6.2039    3.5334   -0.0421 H   0  0  0  0  0  0  0  0  0  0  0  0
    6.8946    1.9105   -0.0064 H   0  0  0  0  0  0  0  0  0  0  0  0
    6.6758    2.8320    1.5104 H   0  0  0  0  0  0  0  0  0  0  0  0
    3.8860    3.6574   -0.2822 H   0  0  0  0  0  0  0  0  0  0  0  0
    3.0725   -0.1538   -1.4654 H   0  0  0  0  0  0  0  0  0  0  0  0
    0.9454   -3.3763   -4.2351 H   0  0  0  0  0  0  0  0  0  0  0  0
   -0.6611   -2.5881   -4.1726 H   0  0  0  0  0  0  0  0  0  0  0  0
    0.6689   -1.8142   -5.0766 H   0  0  0  0  0  0  0  0  0  0  0  0
  1  2  1  0
  2  3  1  0
  3  4  1  0
  4  5  1  0
  5  6  1  0
  6  7  1  0
  7  8  1  0
  2  9  2  0
  9 10  1  0
 10 11  2  3
 11 12  1  0
 12 13  2  0
 13 14  1  0
 14 15  1  0
 14 16  2  0
 16 17  1  0
 16 18  1  0
 18 19  2  0
 19 20  1  0
 10 21  1  0
 21 22  1  0
 22 23  2  0
 23 24  1  0
 24 25  1  0
 24 26  1  0
 26  1  1  0
 19 12  1  0
 26 21  2  0
  1 27  1  0
  3 28  1  0
  4 29  1  0
  4 30  1  0
  5 31  1  0
  5 32  1  0
  6 33  1  0
  6 34  1  0
  7 35  1  0
  7 36  1  0
  8 37  1  0
  8 38  1  0
  8 39  1  0
 13 40  1  0
 15 41  1  0
 15 42  1  0
 15 43  1  0
 17 44  1  0
 17 45  1  0
 17 46  1  0
 18 47  1  0
 22 48  1  0
 25 49  1  0
 25 50  1  0
 25 51  1  0
M  END
>  <ScrubInfo>  (6) 
{"isomerGroup": 0, "isomerId": 5, "confId": 0, "nr_conformers:": 1, "nr_isomers:": 9}

$$$$
_i6
     RDKit          3D

 51 53  0  0  0  0  0  0  0  0999 V2000
   -1.6540   -3.5166    0.0631 N   0  0  0  0  0  0  0  0  0  0  0  0
   -1.9737   -2.2175   -0.3180 C   0  0  0  0  0  0  0  0  0  0  0  0
   -0.8966   -1.4691   -0.5938 C   0  0  0  0  0  0  0  0  0  0  0  0
   -0.5652   -0.1041   -1.0037 C   0  0  0  0  0  0  0  0  0  0  0  0
   -1.4919    0.8853   -1.2780 N   0  0  0  0  0  0  0  0  0  0  0  0
   -2.6872    1.0277   -0.5345 C   0  0  0  0  0  0  0  0  0  0  0  0
   -3.9014    0.8354   -1.2105 C   0  0  0  0  0  0  0  0  0  0  0  0
   -5.1381    0.9627   -0.5560 C   0  0  0  0  0  0  0  0  0  0  0  0
   -6.4076    0.7319   -1.3303 C   0  0  0  0  0  0  0  0  0  0  0  0
   -5.1616    1.2996    0.8102 C   0  0  0  0  0  0  0  0  0  0  0  0
   -6.4575    1.4516    1.5600 C   0  0  0  0  0  0  0  0  0  0  0  0
   -3.9495    1.5221    1.4824 C   0  0  0  0  0  0  0  0  0  0  0  0
   -2.7257    1.3954    0.8176 C   0  0  0  0  0  0  0  0  0  0  0  0
   -1.1465    1.7677    1.8055 Br  0  0  0  0  0  0  0  0  0  0  0  0
    0.6950    0.2140   -1.1352 N   0  0  0  0  0  0  0  0  0  0  0  0
    1.6586   -0.7337   -0.8542 C   0  0  0  0  0  0  0  0  0  0  0  0
    2.9002   -0.3986   -0.8788 N   0  0  0  0  0  0  0  0  0  0  0  0
    3.2261    0.9876   -1.2002 C   0  0  0  0  0  0  0  0  0  0  0  0
    4.7432    1.1717   -1.1310 C   0  0  0  0  0  0  0  0  0  0  0  0
    5.2845    1.0405    0.2958 C   0  0  0  0  0  0  0  0  0  0  0  0
    6.7952    1.2718    0.3386 C   0  0  0  0  0  0  0  0  0  0  0  0
    7.3385    1.1436    1.7528 C   0  0  0  0  0  0  0  0  0  0  0  0
    1.4473   -2.0538   -0.5388 N   0  0  0  0  0  0  0  0  0  0  0  0
    0.2207   -2.4236   -0.4193 C   0  0  0  0  0  0  0  0  0  0  0  0
   -0.2865   -3.6875   -0.1155 N   0  0  0  0  0  0  0  0  0  0  0  0
    0.4378   -4.5854    0.7640 C   0  0  0  0  0  0  0  0  0  0  0  0
   -2.2535   -4.2260   -0.3643 H   0  0  0  0  0  0  0  0  0  0  0  0
   -3.0143   -1.9320   -0.3613 H   0  0  0  0  0  0  0  0  0  0  0  0
   -1.0046    1.7787   -1.3288 H   0  0  0  0  0  0  0  0  0  0  0  0
   -3.8756    0.5753   -2.2682 H   0  0  0  0  0  0  0  0  0  0  0  0
   -6.9476   -0.1292   -0.9243 H   0  0  0  0  0  0  0  0  0  0  0  0
   -7.0473    1.6190   -1.2871 H   0  0  0  0  0  0  0  0  0  0  0  0
   -6.2030    0.5270   -2.3865 H   0  0  0  0  0  0  0  0  0  0  0  0
   -7.0324    2.2906    1.1557 H   0  0  0  0  0  0  0  0  0  0  0  0
   -6.2861    1.6470    2.6239 H   0  0  0  0  0  0  0  0  0  0  0  0
   -7.0499    0.5339    1.4890 H   0  0  0  0  0  0  0  0  0  0  0  0
   -3.9618    1.8036    2.5339 H   0  0  0  0  0  0  0  0  0  0  0  0
    2.8969    1.2268   -2.2188 H   0  0  0  0  0  0  0  0  0  0  0  0
    2.7435    1.6831   -0.5028 H   0  0  0  0  0  0  0  0  0  0  0  0
    5.2353    0.4376   -1.7809 H   0  0  0  0  0  0  0  0  0  0  0  0
    4.9923    2.1665   -1.5200 H   0  0  0  0  0  0  0  0  0  0  0  0
    4.7836    1.7677    0.9464 H   0  0  0  0  0  0  0  0  0  0  0  0
    5.0584    0.0434    0.6919 H   0  0  0  0  0  0  0  0  0  0  0  0
    7.0305    2.2703   -0.0476 H   0  0  0  0  0  0  0  0  0  0  0  0
    7.3014    0.5458   -0.3083 H   0  0  0  0  0  0  0  0  0  0  0  0
    8.4197    1.3129    1.7602 H   0  0  0  0  0  0  0  0  0  0  0  0
    7.1483    0.1443    2.1571 H   0  0  0  0  0  0  0  0  0  0  0  0
    6.8750    1.8782    2.4191 H   0  0  0  0  0  0  0  0  0  0  0  0
    1.4533   -4.7541    0.3916 H   0  0  0  0  0  0  0  0  0  0  0  0
    0.4991   -4.1728    1.7765 H   0  0  0  0  0  0  0  0  0  0  0  0
   -0.0652   -5.5565    0.8140 H   0  0  0  0  0  0  0  0  0  0  0  0
  1  2  1  0
  2  3  2  0
  3  4  1  0
  4  5  1  0
  5  6  1  0
  6  7  2  0
  7  8  1  0
  8  9  1  0
  8 10  2  0
 10 11  1  0
 10 12  1  0
 12 13  2  0
 13 14  1  0
  4 15  2  0
 15 16  1  0
 16 17  2  3
 17 18  1  0
 18 19  1  0
 19 20  1  0
 20 21  1  0
 21 22  1  0
 16 23  1  0
 23 24  2  0
 24 25  1  0
 25 26  1  0
 25  1  1  0
 24  3  1  0
 13  6  1  0
  1 27  1  0
  2 28  1  0
  5 29  1  0
  7 30  1  0
  9 31  1  0
  9 32  1  0
  9 33  1  0
 11 34  1  0
 11 35  1  0
 11 36  1  0
 12 37  1  0
 18 38  1  0
 18 39  1  0
 19 40  1  0
 19 41  1  0
 20 42  1  0
 20 43  1  0
 21 44  1  0
 21 45  1  0
 22 46  1  0
 22 47  1  0
 22 48  1  0
 26 49  1  0
 26 50  1  0
 26 51  1  0
M  END
>  <ScrubInfo>  (7) 
{"isomerGroup": 0, "isomerId": 6, "confId": 0, "nr_conformers:": 1, "nr_isomers:": 9}

$$$$
_i7
     RDKit          3D

 51 53  0  0  0  0  0  0  0  0999 V2000
   -1.0725   -2.5031   -1.4700 N   0  0  0  0  0  0  0  0  0  0  0  0
   -1.6517   -1.4391   -0.7873 C   0  0  0  0  0  0  0  0  0  0  0  0
   -0.8023   -0.4306   -0.5450 C   0  0  0  0  0  0  0  0  0  0  0  0
   -0.7821    0.9168    0.0582 C   0  0  0  0  0  0  0  0  0  0  0  0
   -1.7368    1.5655    0.6576 N   0  0  0  0  0  0  0  0  0  0  0  0
   -3.0035    0.9866    0.8287 C   0  0  0  0  0  0  0  0  0  0  0  0
   -3.9966    1.2608   -0.1194 C   0  0  0  0  0  0  0  0  0  0  0  0
   -5.2930    0.7305   -0.0026 C   0  0  0  0  0  0  0  0  0  0  0  0
   -6.3165    1.0548   -1.0566 C   0  0  0  0  0  0  0  0  0  0  0  0
   -5.6063   -0.0855    1.1015 C   0  0  0  0  0  0  0  0  0  0  0  0
   -6.9809   -0.6708    1.2799 C   0  0  0  0  0  0  0  0  0  0  0  0
   -4.6202   -0.3401    2.0679 C   0  0  0  0  0  0  0  0  0  0  0  0
   -3.3350    0.1952    1.9363 C   0  0  0  0  0  0  0  0  0  0  0  0
   -2.0619   -0.1985    3.2901 Br  0  0  0  0  0  0  0  0  0  0  0  0
    0.4402    1.5186   -0.0661 N   0  0  0  0  0  0  0  0  0  0  0  0
    1.5677    1.0036   -0.6397 C   0  0  0  0  0  0  0  0  0  0  0  0
    2.6306    1.7375   -0.6648 N   0  0  0  0  0  0  0  0  0  0  0  0
    3.8479    1.2035   -1.2769 C   0  0  0  0  0  0  0  0  0  0  0  0
    4.6842    0.4380   -0.2499 C   0  0  0  0  0  0  0  0  0  0  0  0
    5.2123    1.3434    0.8679 C   0  0  0  0  0  0  0  0  0  0  0  0
    5.9987    0.5847    1.9398 C   0  0  0  0  0  0  0  0  0  0  0  0
    7.2960   -0.0220    1.4279 C   0  0  0  0  0  0  0  0  0  0  0  0
    1.5875   -0.2681   -1.1708 N   0  0  0  0  0  0  0  0  0  0  0  0
    0.4890   -0.9546   -1.1163 C   0  0  0  0  0  0  0  0  0  0  0  0
    0.2895   -2.2600   -1.5718 N   0  0  0  0  0  0  0  0  0  0  0  0
    1.0168   -2.7723   -2.7171 C   0  0  0  0  0  0  0  0  0  0  0  0
   -1.3384   -3.4165   -1.0943 H   0  0  0  0  0  0  0  0  0  0  0  0
   -2.6962   -1.5138   -0.5239 H   0  0  0  0  0  0  0  0  0  0  0  0
   -3.7449    1.9041   -0.9606 H   0  0  0  0  0  0  0  0  0  0  0  0
   -7.1728    1.5698   -0.6097 H   0  0  0  0  0  0  0  0  0  0  0  0
   -6.6566    0.1389   -1.5500 H   0  0  0  0  0  0  0  0  0  0  0  0
   -5.9039    1.7119   -1.8296 H   0  0  0  0  0  0  0  0  0  0  0  0
   -7.0322   -1.3146    2.1645 H   0  0  0  0  0  0  0  0  0  0  0  0
   -7.7191    0.1273    1.4068 H   0  0  0  0  0  0  0  0  0  0  0  0
   -7.2498   -1.2839    0.4140 H   0  0  0  0  0  0  0  0  0  0  0  0
   -4.8584   -0.9553    2.9333 H   0  0  0  0  0  0  0  0  0  0  0  0
    0.5366    2.4449    0.3217 H   0  0  0  0  0  0  0  0  0  0  0  0
    3.6354    0.5682   -2.1451 H   0  0  0  0  0  0  0  0  0  0  0  0
    4.4291    2.0471   -1.6678 H   0  0  0  0  0  0  0  0  0  0  0  0
    4.0930   -0.3758    0.1862 H   0  0  0  0  0  0  0  0  0  0  0  0
    5.5267   -0.0229   -0.7775 H   0  0  0  0  0  0  0  0  0  0  0  0
    5.8428    2.1314    0.4385 H   0  0  0  0  0  0  0  0  0  0  0  0
    4.3708    1.8454    1.3602 H   0  0  0  0  0  0  0  0  0  0  0  0
    5.3731   -0.2039    2.3737 H   0  0  0  0  0  0  0  0  0  0  0  0
    6.2381    1.2817    2.7519 H   0  0  0  0  0  0  0  0  0  0  0  0
    7.1081   -0.8165    0.7000 H   0  0  0  0  0  0  0  0  0  0  0  0
    7.9269    0.7383    0.9570 H   0  0  0  0  0  0  0  0  0  0  0  0
    7.8580   -0.4613    2.2585 H   0  0  0  0  0  0  0  0  0  0  0  0
    2.0964   -2.6736   -2.5647 H   0  0  0  0  0  0  0  0  0  0  0  0
    0.7967   -3.8347   -2.8640 H   0  0  0  0  0  0  0  0  0  0  0  0
    0.7399   -2.2307   -3.6276 H   0  0  0  0  0  0  0  0  0  0  0  0
  1  2  1  0
  2  3  2  0
  3  4  1  0
  4  5  2  3
  5  6  1  0
  6  7  2  0
  7  8  1  0
  8  9  1  0
  8 10  2  0
 10 11  1  0
 10 12  1  0
 12 13  2  0
 13 14  1  0
  4 15  1  0
 15 16  1  0
 16 17  2  3
 17 18  1  0
 18 19  1  0
 19 20  1  0
 20 21  1  0
 21 22  1  0
 16 23  1  0
 23 24  2  0
 24 25  1  0
 25 26  1  0
 25  1  1  0
 24  3  1  0
 13  6  1  0
  1 27  1  0
  2 28  1  0
  7 29  1  0
  9 30  1  0
  9 31  1  0
  9 32  1  0
 11 33  1  0
 11 34  1  0
 11 35  1  0
 12 36  1  0
 15 37  1  0
 18 38  1  0
 18 39  1  0
 19 40  1  0
 19 41  1  0
 20 42  1  0
 20 43  1  0
 21 44  1  0
 21 45  1  0
 22 46  1  0
 22 47  1  0
 22 48  1  0
 26 49  1  0
 26 50  1  0
 26 51  1  0
M  END
>  <ScrubInfo>  (8) 
{"isomerGroup": 0, "isomerId": 7, "confId": 0, "nr_conformers:": 1, "nr_isomers:": 9}

$$$$
_i8
     RDKit          3D

 51 53  0  0  0  0  0  0  0  0999 V2000
    1.4098   -1.7358    0.7068 N   0  0  0  0  0  0  0  0  0  0  0  0
    1.7939   -0.4193    0.8564 C   0  0  0  0  0  0  0  0  0  0  0  0
    3.0319   -0.1718    1.1231 N   0  0  0  0  0  0  0  0  0  0  0  0
    3.4408    1.2214    1.2741 C   0  0  0  0  0  0  0  0  0  0  0  0
    4.9442    1.2777    1.5486 C   0  0  0  0  0  0  0  0  0  0  0  0
    5.8265    0.7033    0.4338 C   0  0  0  0  0  0  0  0  0  0  0  0
    5.6999    1.4543   -0.8921 C   0  0  0  0  0  0  0  0  0  0  0  0
    6.6848    0.9264   -1.9243 C   0  0  0  0  0  0  0  0  0  0  0  0
    0.7541    0.4751    0.6923 N   0  0  0  0  0  0  0  0  0  0  0  0
   -0.5796    0.2736    0.3952 C   0  0  0  0  0  0  0  0  0  0  0  0
   -1.3886    1.2840    0.2769 N   0  0  0  0  0  0  0  0  0  0  0  0
   -2.7415    1.1222   -0.0505 C   0  0  0  0  0  0  0  0  0  0  0  0
   -3.6774    1.0323    0.9871 C   0  0  0  0  0  0  0  0  0  0  0  0
   -5.0517    0.8930    0.7280 C   0  0  0  0  0  0  0  0  0  0  0  0
   -6.0095    0.7842    1.8831 C   0  0  0  0  0  0  0  0  0  0  0  0
   -5.5011    0.8576   -0.6063 C   0  0  0  0  0  0  0  0  0  0  0  0
   -6.9611    0.7109   -0.9391 C   0  0  0  0  0  0  0  0  0  0  0  0
   -4.5678    0.9781   -1.6482 C   0  0  0  0  0  0  0  0  0  0  0  0
   -3.2040    1.1164   -1.3731 C   0  0  0  0  0  0  0  0  0  0  0  0
   -2.0082    1.2801   -2.8402 Br  0  0  0  0  0  0  0  0  0  0  0  0
   -0.8805   -1.1415    0.2559 C   0  0  0  0  0  0  0  0  0  0  0  0
   -2.0046   -1.9411   -0.0230 C   0  0  0  0  0  0  0  0  0  0  0  0
   -1.7232   -3.2529   -0.0342 N   0  0  0  0  0  0  0  0  0  0  0  0
   -0.4016   -3.3008    0.2438 N   0  0  0  0  0  0  0  0  0  0  0  0
    0.2595   -4.5799    0.3041 C   0  0  0  0  0  0  0  0  0  0  0  0
    0.1318   -2.0621    0.4217 C   0  0  0  0  0  0  0  0  0  0  0  0
    2.1640   -2.4032    0.8186 H   0  0  0  0  0  0  0  0  0  0  0  0
    3.1985    1.8049    0.3793 H   0  0  0  0  0  0  0  0  0  0  0  0
    2.9184    1.6740    2.1257 H   0  0  0  0  0  0  0  0  0  0  0  0
    5.1584    0.7261    2.4727 H   0  0  0  0  0  0  0  0  0  0  0  0
    5.2308    2.3205    1.7317 H   0  0  0  0  0  0  0  0  0  0  0  0
    5.5943   -0.3574    0.2813 H   0  0  0  0  0  0  0  0  0  0  0  0
    6.8697    0.7467    0.7717 H   0  0  0  0  0  0  0  0  0  0  0  0
    5.8828    2.5234   -0.7346 H   0  0  0  0  0  0  0  0  0  0  0  0
    4.6860    1.3508   -1.2930 H   0  0  0  0  0  0  0  0  0  0  0  0
    6.5757    1.4730   -2.8662 H   0  0  0  0  0  0  0  0  0  0  0  0
    7.7169    1.0466   -1.5798 H   0  0  0  0  0  0  0  0  0  0  0  0
    6.5105   -0.1355   -2.1252 H   0  0  0  0  0  0  0  0  0  0  0  0
    0.9805    1.4527    0.7822 H   0  0  0  0  0  0  0  0  0  0  0  0
   -3.3186    1.0703    2.0139 H   0  0  0  0  0  0  0  0  0  0  0  0
   -5.4905    0.8592    2.8446 H   0  0  0  0  0  0  0  0  0  0  0  0
   -6.5237   -0.1817    1.8598 H   0  0  0  0  0  0  0  0  0  0  0  0
   -6.7466    1.5925    1.8442 H   0  0  0  0  0  0  0  0  0  0  0  0
   -7.5241    1.5703   -0.5618 H   0  0  0  0  0  0  0  0  0  0  0  0
   -7.1236    0.6567   -2.0209 H   0  0  0  0  0  0  0  0  0  0  0  0
   -7.3613   -0.2094   -0.5022 H   0  0  0  0  0  0  0  0  0  0  0  0
   -4.9077    0.9661   -2.6818 H   0  0  0  0  0  0  0  0  0  0  0  0
   -3.0255   -1.6460   -0.2214 H   0  0  0  0  0  0  0  0  0  0  0  0
   -0.4240   -5.3125    0.7415 H   0  0  0  0  0  0  0  0  0  0  0  0
    0.5295   -4.8711   -0.7137 H   0  0  0  0  0  0  0  0  0  0  0  0
    1.1531   -4.5024    0.9274 H   0  0  0  0  0  0  0  0  0  0  0  0
  1  2  1  0
  2  3  2  3
  3  4  1  0
  4  5  1  0
  5  6  1  0
  6  7  1  0
  7  8  1  0
  2  9  1  0
  9 10  1  0
 10 11  2  3
 11 12  1  0
 12 13  2  0
 13 14  1  0
 14 15  1  0
 14 16  2  0
 16 17  1  0
 16 18  1  0
 18 19  2  0
 19 20  1  0
 10 21  1  0
 21 22  1  0
 22 23  2  0
 23 24  1  0
 24 25  1  0
 24 26  1  0
 26  1  1  0
 19 12  1  0
 26 21  2  0
  1 27  1  0
  4 28  1  0
  4 29  1  0
  5 30  1  0
  5 31  1  0
  6 32  1  0
  6 33  1  0
  7 34  1  0
  7 35  1  0
  8 36  1  0
  8 37  1  0
  8 38  1  0
  9 39  1  0
 13 40  1  0
 15 41  1  0
 15 42  1  0
 15 43  1  0
 17 44  1  0
 17 45  1  0
 17 46  1  0
 18 47  1  0
 22 48  1  0
 25 49  1  0
 25 50  1  0
 25 51  1  0
M  END
>  <ScrubInfo>  (9) 
{"isomerGroup": 0, "isomerId": 8, "confId": 0, "nr_conformers:": 1, "nr_isomers:": 9}

$$$$
