REMARK SMILES c1ccc(CNc2nc(NC[C@H]3CCCO3)c3ccccc3n2)nc1
REMARK SMILES IDX 7 1 8 2 9 3 17 4 18 5 19 6 20 7 21 8 22 9 23 10 6 11 5 13
REMARK SMILES IDX 4 14 1 15 2 16 25 17 3 18 24 19 10 20 11 22 12 23 13 24
REMARK SMILES IDX 16 25 14 26 15 27
REMARK H PARENT 6 12 10 21
ROOT
ATOM      1  C   UNL     1       1.644  -0.942   0.519  1.00  0.00     0.225 A 
ATOM      2  N   UNL     1       0.464  -0.318   0.578  1.00  0.00    -0.195 NA
ATOM      3  C   UNL     1      -0.526  -0.904   1.274  1.00  0.00     0.139 A 
ATOM      4  C   UNL     1      -0.336  -2.117   1.956  1.00  0.00     0.043 A 
ATOM      5  C   UNL     1      -1.312  -2.775   2.748  1.00  0.00     0.014 A 
ATOM      6  C   UNL     1      -1.026  -3.985   3.377  1.00  0.00     0.001 A 
ATOM      7  C   UNL     1       0.234  -4.547   3.226  1.00  0.00     0.002 A 
ATOM      8  C   UNL     1       1.197  -3.892   2.453  1.00  0.00     0.029 A 
ATOM      9  C   UNL     1       0.935  -2.683   1.818  1.00  0.00     0.078 A 
ATOM     10  N   UNL     1       1.908  -2.111   1.104  1.00  0.00    -0.213 NA
ENDROOT
BRANCH   1  11
ATOM     11  N   UNL     1       2.697  -0.378  -0.189  1.00  0.00    -0.348 N 
ATOM     12  H   UNL     1       3.354  -1.135  -0.351  1.00  0.00     0.164 HD
BRANCH  11  13
ATOM     13  C   UNL     1       2.274   0.289  -1.409  1.00  0.00     0.172 C 
BRANCH  13  14
ATOM     14  C   UNL     1       3.489   0.753  -2.192  1.00  0.00     0.060 A 
ATOM     15  C   UNL     1       5.705   1.538  -3.614  1.00  0.00     0.020 A 
ATOM     16  C   UNL     1       5.386   2.203  -2.437  1.00  0.00     0.004 A 
ATOM     17  C   UNL     1       4.887   0.496  -4.018  1.00  0.00     0.111 A 
ATOM     18  C   UNL     1       4.266   1.808  -1.712  1.00  0.00     0.026 A 
ATOM     19  N   UNL     1       3.793   0.088  -3.337  1.00  0.00    -0.259 NA
ENDBRANCH  13  14
ENDBRANCH  11  13
ENDBRANCH   1  11
BRANCH   3  20
ATOM     20  N   UNL     1      -1.779  -0.257   1.351  1.00  0.00    -0.367 N 
ATOM     21  H   UNL     1      -2.513  -0.913   1.086  1.00  0.00     0.162 HD
BRANCH  20  22
ATOM     22  C   UNL     1      -1.898   0.960   0.542  1.00  0.00     0.146 C 
BRANCH  22  23
ATOM     23  C   UNL     1      -3.335   1.489   0.643  1.00  0.00     0.137 C 
ATOM     24  C   UNL     1      -3.554   2.782  -0.124  1.00  0.00     0.036 C 
ATOM     25  O   UNL     1      -4.262   0.531   0.079  1.00  0.00    -0.376 OA
ATOM     26  C   UNL     1      -5.035   2.722  -0.400  1.00  0.00     0.031 C 
ATOM     27  C   UNL     1      -5.244   1.250  -0.683  1.00  0.00     0.160 C 
ENDBRANCH  22  23
ENDBRANCH  20  22
ENDBRANCH   3  20
TORSDOF 6
