_i0
     RDKit          3D

 46 49  0  0  0  0  0  0  0  0999 V2000
    5.7046    1.5375   -3.6137 C   0  0  0  0  0  0  0  0  0  0  0  0
    5.3860    2.2034   -2.4369 C   0  0  0  0  0  0  0  0  0  0  0  0
    4.2657    1.8075   -1.7122 C   0  0  0  0  0  0  0  0  0  0  0  0
    3.4885    0.7531   -2.1918 C   0  0  0  0  0  0  0  0  0  0  0  0
    2.2739    0.2890   -1.4094 C   0  0  0  0  0  0  0  0  0  0  0  0
    2.6969   -0.3779   -0.1886 N   0  0  0  0  0  0  0  0  0  0  0  0
    1.6437   -0.9422    0.5186 C   0  0  0  0  0  0  0  0  0  0  0  0
    0.4639   -0.3184    0.5783 N   0  0  0  0  0  0  0  0  0  0  0  0
   -0.5259   -0.9042    1.2743 C   0  0  0  0  0  0  0  0  0  0  0  0
   -1.7786   -0.2567    1.3513 N   0  0  0  0  0  0  0  0  0  0  0  0
   -1.8984    0.9604    0.5423 C   0  0  0  0  0  0  0  0  0  0  0  0
   -3.3349    1.4889    0.6434 C   0  0  0  0  0  0  0  0  0  0  0  0
   -3.5537    2.7818   -0.1238 C   0  0  0  0  0  0  0  0  0  0  0  0
   -5.0350    2.7224   -0.3995 C   0  0  0  0  0  0  0  0  0  0  0  0
   -5.2440    1.2500   -0.6831 C   0  0  0  0  0  0  0  0  0  0  0  0
   -4.2623    0.5314    0.0789 O   0  0  0  0  0  0  0  0  0  0  0  0
   -0.3357   -2.1174    1.9555 C   0  0  0  0  0  0  0  0  0  0  0  0
   -1.3120   -2.7754    2.7482 C   0  0  0  0  0  0  0  0  0  0  0  0
   -1.0259   -3.9848    3.3771 C   0  0  0  0  0  0  0  0  0  0  0  0
    0.2336   -4.5473    3.2261 C   0  0  0  0  0  0  0  0  0  0  0  0
    1.1966   -3.8922    2.4532 C   0  0  0  0  0  0  0  0  0  0  0  0
    0.9350   -2.6834    1.8180 C   0  0  0  0  0  0  0  0  0  0  0  0
    1.9081   -2.1112    1.1041 N   0  0  0  0  0  0  0  0  0  0  0  0
    3.7933    0.0883   -3.3370 N   0  0  0  0  0  0  0  0  0  0  0  0
    4.8872    0.4957   -4.0178 C   0  0  0  0  0  0  0  0  0  0  0  0
    6.5719    1.8197   -4.1996 H   0  0  0  0  0  0  0  0  0  0  0  0
    6.0074    3.0200   -2.0810 H   0  0  0  0  0  0  0  0  0  0  0  0
    4.0065    2.3026   -0.7810 H   0  0  0  0  0  0  0  0  0  0  0  0
    1.6880   -0.3912   -2.0416 H   0  0  0  0  0  0  0  0  0  0  0  0
    1.6515    1.1667   -1.1927 H   0  0  0  0  0  0  0  0  0  0  0  0
    3.3542   -1.1348   -0.3513 H   0  0  0  0  0  0  0  0  0  0  0  0
   -2.5132   -0.9131    1.0858 H   0  0  0  0  0  0  0  0  0  0  0  0
   -1.2012    1.7266    0.9014 H   0  0  0  0  0  0  0  0  0  0  0  0
   -1.6757    0.7299   -0.5075 H   0  0  0  0  0  0  0  0  0  0  0  0
   -3.6181    1.6198    1.6956 H   0  0  0  0  0  0  0  0  0  0  0  0
   -3.2523    3.6675    0.4421 H   0  0  0  0  0  0  0  0  0  0  0  0
   -3.0023    2.7749   -1.0719 H   0  0  0  0  0  0  0  0  0  0  0  0
   -5.3558    3.3651   -1.2234 H   0  0  0  0  0  0  0  0  0  0  0  0
   -5.5922    3.0131    0.4990 H   0  0  0  0  0  0  0  0  0  0  0  0
   -6.2459    0.9079   -0.4089 H   0  0  0  0  0  0  0  0  0  0  0  0
   -5.0746    1.0226   -1.7408 H   0  0  0  0  0  0  0  0  0  0  0  0
   -2.2960   -2.3323    2.8845 H   0  0  0  0  0  0  0  0  0  0  0  0
   -1.7803   -4.4790    3.9835 H   0  0  0  0  0  0  0  0  0  0  0  0
    0.4758   -5.4895    3.7107 H   0  0  0  0  0  0  0  0  0  0  0  0
    2.1841   -4.3367    2.3470 H   0  0  0  0  0  0  0  0  0  0  0  0
    5.0974   -0.0583   -4.9283 H   0  0  0  0  0  0  0  0  0  0  0  0
  1  2  2  0
  2  3  1  0
  3  4  2  0
  4  5  1  0
  5  6  1  0
  6  7  1  0
  7  8  2  0
  8  9  1  0
  9 10  1  0
 10 11  1  0
 11 12  1  0
 12 13  1  0
 13 14  1  0
 14 15  1  0
 15 16  1  0
  9 17  2  0
 17 18  1  0
 18 19  2  0
 19 20  1  0
 20 21  2  0
 21 22  1  0
 22 23  2  0
  4 24  1  0
 24 25  2  0
 25  1  1  0
 23  7  1  0
 16 12  1  0
 22 17  1  0
  1 26  1  0
  2 27  1  0
  3 28  1  0
  5 29  1  0
  5 30  1  0
  6 31  1  0
 10 32  1  0
 11 33  1  0
 11 34  1  0
 12 35  1  0
 13 36  1  0
 13 37  1  0
 14 38  1  0
 14 39  1  0
 15 40  1  0
 15 41  1  0
 18 42  1  0
 19 43  1  0
 20 44  1  0
 21 45  1  0
 25 46  1  0
M  END
>  <ScrubInfo>  (1) 
{"isomerGroup": 0, "isomerId": 0, "confId": 0, "nr_conformers:": 1, "nr_isomers:": 6}

$$$$
_i1
     RDKit          3D

 46 49  0  0  0  0  0  0  0  0999 V2000
    0.1625    0.3049    0.6497 N   0  0  0  0  0  0  0  0  0  0  0  0
   -0.7200   -0.3329   -0.1887 C   0  0  0  0  0  0  0  0  0  0  0  0
   -1.9531    0.2470   -0.4742 N   0  0  0  0  0  0  0  0  0  0  0  0
   -2.5738    1.3247    0.2927 C   0  0  0  0  0  0  0  0  0  0  0  0
   -3.9389    1.7340   -0.2903 C   0  0  0  0  0  0  0  0  0  0  0  0
   -5.0395    0.7057   -0.0514 C   0  0  0  0  0  0  0  0  0  0  0  0
   -5.6785    1.1875    1.2271 C   0  0  0  0  0  0  0  0  0  0  0  0
   -5.5871    2.6874    1.0733 C   0  0  0  0  0  0  0  0  0  0  0  0
   -4.3733    2.9490    0.3571 O   0  0  0  0  0  0  0  0  0  0  0  0
   -0.3310   -1.5245   -0.7122 C   0  0  0  0  0  0  0  0  0  0  0  0
   -1.0744   -2.3564   -1.6439 C   0  0  0  0  0  0  0  0  0  0  0  0
   -0.5878   -3.5333   -2.0629 C   0  0  0  0  0  0  0  0  0  0  0  0
    0.6904   -4.0234   -1.6099 C   0  0  0  0  0  0  0  0  0  0  0  0
    1.4651   -3.3249   -0.7702 C   0  0  0  0  0  0  0  0  0  0  0  0
    1.0313   -1.9969   -0.2509 C   0  0  0  0  0  0  0  0  0  0  0  0
    1.8347   -1.3614    0.5443 N   0  0  0  0  0  0  0  0  0  0  0  0
    1.4038   -0.1432    0.9834 C   0  0  0  0  0  0  0  0  0  0  0  0
    2.1624    0.6068    1.7124 N   0  0  0  0  0  0  0  0  0  0  0  0
    3.4987    0.0880    2.0535 C   0  0  0  0  0  0  0  0  0  0  0  0
    4.5673    0.3135    1.0002 C   0  0  0  0  0  0  0  0  0  0  0  0
    4.5620    1.4685    0.2185 C   0  0  0  0  0  0  0  0  0  0  0  0
    5.5781    1.6618   -0.7133 C   0  0  0  0  0  0  0  0  0  0  0  0
    6.5785    0.7067   -0.8356 C   0  0  0  0  0  0  0  0  0  0  0  0
    6.5230   -0.4048   -0.0126 C   0  0  0  0  0  0  0  0  0  0  0  0
    5.5527   -0.6183    0.9023 N   0  0  0  0  0  0  0  0  0  0  0  0
   -0.0596    1.2383    0.9503 H   0  0  0  0  0  0  0  0  0  0  0  0
   -2.6145   -0.4029   -0.8844 H   0  0  0  0  0  0  0  0  0  0  0  0
   -1.9189    2.2047    0.2865 H   0  0  0  0  0  0  0  0  0  0  0  0
   -2.6848    1.0256    1.3420 H   0  0  0  0  0  0  0  0  0  0  0  0
   -3.8308    1.9389   -1.3617 H   0  0  0  0  0  0  0  0  0  0  0  0
   -5.7736    0.7643   -0.8647 H   0  0  0  0  0  0  0  0  0  0  0  0
   -4.6898   -0.3284    0.0049 H   0  0  0  0  0  0  0  0  0  0  0  0
   -5.0838    0.8601    2.0877 H   0  0  0  0  0  0  0  0  0  0  0  0
   -6.7038    0.8346    1.3648 H   0  0  0  0  0  0  0  0  0  0  0  0
   -5.5692    3.2100    2.0336 H   0  0  0  0  0  0  0  0  0  0  0  0
   -6.4193    3.0772    0.4774 H   0  0  0  0  0  0  0  0  0  0  0  0
   -2.0297   -2.0167   -2.0241 H   0  0  0  0  0  0  0  0  0  0  0  0
   -1.1440   -4.1461   -2.7665 H   0  0  0  0  0  0  0  0  0  0  0  0
    1.0220   -4.9884   -1.9820 H   0  0  0  0  0  0  0  0  0  0  0  0
    2.4315   -3.6855   -0.4371 H   0  0  0  0  0  0  0  0  0  0  0  0
    3.4625   -0.9717    2.3373 H   0  0  0  0  0  0  0  0  0  0  0  0
    3.8273    0.6161    2.9573 H   0  0  0  0  0  0  0  0  0  0  0  0
    3.7734    2.2055    0.3327 H   0  0  0  0  0  0  0  0  0  0  0  0
    5.5859    2.5512   -1.3360 H   0  0  0  0  0  0  0  0  0  0  0  0
    7.3829    0.8259   -1.5516 H   0  0  0  0  0  0  0  0  0  0  0  0
    7.2831   -1.1784   -0.0662 H   0  0  0  0  0  0  0  0  0  0  0  0
  1  2  1  0
  2  3  1  0
  3  4  1  0
  4  5  1  0
  5  6  1  0
  6  7  1  0
  7  8  1  0
  8  9  1  0
  2 10  2  0
 10 11  1  0
 11 12  2  0
 12 13  1  0
 13 14  2  0
 14 15  1  0
 15 16  2  0
 16 17  1  0
 17 18  2  3
 18 19  1  0
 19 20  1  0
 20 21  2  0
 21 22  1  0
 22 23  2  0
 23 24  1  0
 24 25  2  0
 17  1  1  0
 25 20  1  0
  9  5  1  0
 15 10  1  0
  1 26  1  0
  3 27  1  0
  4 28  1  0
  4 29  1  0
  5 30  1  0
  6 31  1  0
  6 32  1  0
  7 33  1  0
  7 34  1  0
  8 35  1  0
  8 36  1  0
 11 37  1  0
 12 38  1  0
 13 39  1  0
 14 40  1  0
 19 41  1  0
 19 42  1  0
 21 43  1  0
 22 44  1  0
 23 45  1  0
 24 46  1  0
M  END
>  <ScrubInfo>  (2) 
{"isomerGroup": 0, "isomerId": 1, "confId": 0, "nr_conformers:": 1, "nr_isomers:": 6}

$$$$
_i2
     RDKit          3D

 46 49  0  0  0  0  0  0  0  0999 V2000
   -0.5880    0.3261    0.5475 N   0  0  0  0  0  0  0  0  0  0  0  0
   -1.6873   -0.4577    0.6856 C   0  0  0  0  0  0  0  0  0  0  0  0
   -2.8876    0.1783    0.7616 N   0  0  0  0  0  0  0  0  0  0  0  0
   -3.2533    1.2448   -0.1624 C   0  0  0  0  0  0  0  0  0  0  0  0
   -4.7474    1.4977   -0.1455 C   0  0  0  0  0  0  0  0  0  0  0  0
   -5.6128    0.6132   -0.7906 C   0  0  0  0  0  0  0  0  0  0  0  0
   -6.9826    0.8564   -0.7435 C   0  0  0  0  0  0  0  0  0  0  0  0
   -7.4532    1.9674   -0.0550 C   0  0  0  0  0  0  0  0  0  0  0  0
   -6.5299    2.7943    0.5611 C   0  0  0  0  0  0  0  0  0  0  0  0
   -5.1953    2.5858    0.5309 N   0  0  0  0  0  0  0  0  0  0  0  0
   -1.6333   -1.7533    0.7625 N   0  0  0  0  0  0  0  0  0  0  0  0
   -0.3516   -2.3404    0.6162 C   0  0  0  0  0  0  0  0  0  0  0  0
   -0.3072   -3.7382    0.5430 C   0  0  0  0  0  0  0  0  0  0  0  0
    0.8937   -4.4042    0.3072 C   0  0  0  0  0  0  0  0  0  0  0  0
    2.0612   -3.6720    0.1183 C   0  0  0  0  0  0  0  0  0  0  0  0
    2.0376   -2.2758    0.1958 C   0  0  0  0  0  0  0  0  0  0  0  0
    0.8505   -1.5995    0.4866 C   0  0  0  0  0  0  0  0  0  0  0  0
    0.7115   -0.1118    0.6096 C   0  0  0  0  0  0  0  0  0  0  0  0
    1.5901    0.8106    0.8152 N   0  0  0  0  0  0  0  0  0  0  0  0
    3.0096    0.6584    1.0817 C   0  0  0  0  0  0  0  0  0  0  0  0
    3.8352    1.1388   -0.1169 C   0  0  0  0  0  0  0  0  0  0  0  0
    5.2946    1.3823    0.2351 C   0  0  0  0  0  0  0  0  0  0  0  0
    5.9530    1.2772   -1.1172 C   0  0  0  0  0  0  0  0  0  0  0  0
    5.1693    0.1548   -1.7626 C   0  0  0  0  0  0  0  0  0  0  0  0
    3.8589    0.1633   -1.1785 O   0  0  0  0  0  0  0  0  0  0  0  0
   -0.6877    1.2999    0.7906 H   0  0  0  0  0  0  0  0  0  0  0  0
   -3.6294   -0.5064    0.8765 H   0  0  0  0  0  0  0  0  0  0  0  0
   -2.9500    0.9890   -1.1852 H   0  0  0  0  0  0  0  0  0  0  0  0
   -2.7303    2.1678    0.1130 H   0  0  0  0  0  0  0  0  0  0  0  0
   -5.2297   -0.2537   -1.3208 H   0  0  0  0  0  0  0  0  0  0  0  0
   -7.6768    0.1825   -1.2377 H   0  0  0  0  0  0  0  0  0  0  0  0
   -8.5141    2.1832    0.0027 H   0  0  0  0  0  0  0  0  0  0  0  0
   -6.8480    3.6738    1.1140 H   0  0  0  0  0  0  0  0  0  0  0  0
   -1.2282   -4.3050    0.6538 H   0  0  0  0  0  0  0  0  0  0  0  0
    0.9107   -5.4889    0.2447 H   0  0  0  0  0  0  0  0  0  0  0  0
    2.9941   -4.1844   -0.1046 H   0  0  0  0  0  0  0  0  0  0  0  0
    2.9566   -1.7485   -0.0165 H   0  0  0  0  0  0  0  0  0  0  0  0
    3.2891   -0.3433    1.4100 H   0  0  0  0  0  0  0  0  0  0  0  0
    3.2338    1.3106    1.9352 H   0  0  0  0  0  0  0  0  0  0  0  0
    3.3973    2.0545   -0.5350 H   0  0  0  0  0  0  0  0  0  0  0  0
    5.6758    0.5916    0.8929 H   0  0  0  0  0  0  0  0  0  0  0  0
    5.4593    2.3469    0.7231 H   0  0  0  0  0  0  0  0  0  0  0  0
    5.8040    2.2079   -1.6774 H   0  0  0  0  0  0  0  0  0  0  0  0
    7.0264    1.0761   -1.0705 H   0  0  0  0  0  0  0  0  0  0  0  0
    5.0899    0.2693   -2.8474 H   0  0  0  0  0  0  0  0  0  0  0  0
    5.6213   -0.8191   -1.5473 H   0  0  0  0  0  0  0  0  0  0  0  0
  1  2  1  0
  2  3  1  0
  3  4  1  0
  4  5  1  0
  5  6  2  0
  6  7  1  0
  7  8  2  0
  8  9  1  0
  9 10  2  0
  2 11  2  0
 11 12  1  0
 12 13  2  0
 13 14  1  0
 14 15  2  0
 15 16  1  0
 16 17  2  0
 17 18  1  0
 18 19  2  3
 19 20  1  0
 20 21  1  0
 21 22  1  0
 22 23  1  0
 23 24  1  0
 24 25  1  0
 18  1  1  0
 25 21  1  0
 10  5  1  0
 17 12  1  0
  1 26  1  0
  3 27  1  0
  4 28  1  0
  4 29  1  0
  6 30  1  0
  7 31  1  0
  8 32  1  0
  9 33  1  0
 13 34  1  0
 14 35  1  0
 15 36  1  0
 16 37  1  0
 20 38  1  0
 20 39  1  0
 21 40  1  0
 22 41  1  0
 22 42  1  0
 23 43  1  0
 23 44  1  0
 24 45  1  0
 24 46  1  0
M  END
>  <ScrubInfo>  (3) 
{"isomerGroup": 0, "isomerId": 2, "confId": 0, "nr_conformers:": 1, "nr_isomers:": 6}

$$$$
_i3
     RDKit          3D

 46 49  0  0  0  0  0  0  0  0999 V2000
    1.1886    2.0345   -0.4050 N   0  0  0  0  0  0  0  0  0  0  0  0
    1.0438    0.7838    0.1303 C   0  0  0  0  0  0  0  0  0  0  0  0
    1.9191   -0.1582    0.1151 N   0  0  0  0  0  0  0  0  0  0  0  0
    3.2106    0.0887   -0.5237 C   0  0  0  0  0  0  0  0  0  0  0  0
    4.1222   -1.1211   -0.5741 C   0  0  0  0  0  0  0  0  0  0  0  0
    3.9862   -2.1710    0.3325 C   0  0  0  0  0  0  0  0  0  0  0  0
    4.8722   -3.2428    0.2657 C   0  0  0  0  0  0  0  0  0  0  0  0
    5.8751   -3.2375   -0.6946 C   0  0  0  0  0  0  0  0  0  0  0  0
    5.9523   -2.1527   -1.5507 C   0  0  0  0  0  0  0  0  0  0  0  0
    5.1097   -1.0968   -1.5097 N   0  0  0  0  0  0  0  0  0  0  0  0
   -0.1169    0.4091    0.7558 N   0  0  0  0  0  0  0  0  0  0  0  0
   -1.0964    1.2554    0.8995 C   0  0  0  0  0  0  0  0  0  0  0  0
   -2.2717    0.8376    1.4972 N   0  0  0  0  0  0  0  0  0  0  0  0
   -2.5022   -0.5454    1.9031 C   0  0  0  0  0  0  0  0  0  0  0  0
   -2.6479   -1.5145    0.7245 C   0  0  0  0  0  0  0  0  0  0  0  0
   -3.6393   -1.0695   -0.3402 C   0  0  0  0  0  0  0  0  0  0  0  0
   -3.9900   -2.3839   -0.9910 C   0  0  0  0  0  0  0  0  0  0  0  0
   -4.0260   -3.3264    0.1932 C   0  0  0  0  0  0  0  0  0  0  0  0
   -3.1475   -2.7883    1.1924 O   0  0  0  0  0  0  0  0  0  0  0  0
   -0.9836    2.6715    0.4232 C   0  0  0  0  0  0  0  0  0  0  0  0
   -1.9769    3.6358    0.6276 C   0  0  0  0  0  0  0  0  0  0  0  0
   -1.7952    4.9308    0.1386 C   0  0  0  0  0  0  0  0  0  0  0  0
   -0.6269    5.2619   -0.5463 C   0  0  0  0  0  0  0  0  0  0  0  0
    0.3708    4.3032   -0.7332 C   0  0  0  0  0  0  0  0  0  0  0  0
    0.2044    3.0069   -0.2361 C   0  0  0  0  0  0  0  0  0  0  0  0
    2.0714    2.3094   -0.7989 H   0  0  0  0  0  0  0  0  0  0  0  0
    3.7498    0.8734    0.0214 H   0  0  0  0  0  0  0  0  0  0  0  0
    3.0577    0.4243   -1.5573 H   0  0  0  0  0  0  0  0  0  0  0  0
    3.1950   -2.1586    1.0768 H   0  0  0  0  0  0  0  0  0  0  0  0
    4.7752   -4.0732    0.9587 H   0  0  0  0  0  0  0  0  0  0  0  0
    6.5789   -4.0576   -0.7736 H   0  0  0  0  0  0  0  0  0  0  0  0
    6.7199   -2.1008   -2.3172 H   0  0  0  0  0  0  0  0  0  0  0  0
   -3.1193    1.3380    1.2659 H   0  0  0  0  0  0  0  0  0  0  0  0
   -1.7019   -0.8884    2.5705 H   0  0  0  0  0  0  0  0  0  0  0  0
   -3.4137   -0.5762    2.5130 H   0  0  0  0  0  0  0  0  0  0  0  0
   -1.6712   -1.7063    0.2643 H   0  0  0  0  0  0  0  0  0  0  0  0
   -4.5363   -0.6344    0.1169 H   0  0  0  0  0  0  0  0  0  0  0  0
   -3.2188   -0.3427   -1.0407 H   0  0  0  0  0  0  0  0  0  0  0  0
   -4.9306   -2.3628   -1.5477 H   0  0  0  0  0  0  0  0  0  0  0  0
   -3.1924   -2.6822   -1.6818 H   0  0  0  0  0  0  0  0  0  0  0  0
   -3.7083   -4.3395   -0.0693 H   0  0  0  0  0  0  0  0  0  0  0  0
   -5.0296   -3.3780    0.6280 H   0  0  0  0  0  0  0  0  0  0  0  0
   -2.8855    3.4096    1.1741 H   0  0  0  0  0  0  0  0  0  0  0  0
   -2.5640    5.6841    0.2950 H   0  0  0  0  0  0  0  0  0  0  0  0
   -0.4889    6.2706   -0.9288 H   0  0  0  0  0  0  0  0  0  0  0  0
    1.2782    4.5804   -1.2635 H   0  0  0  0  0  0  0  0  0  0  0  0
  1  2  1  0
  2  3  2  3
  3  4  1  0
  4  5  1  0
  5  6  2  0
  6  7  1  0
  7  8  2  0
  8  9  1  0
  9 10  2  0
  2 11  1  0
 11 12  2  0
 12 13  1  0
 13 14  1  0
 14 15  1  0
 15 16  1  0
 16 17  1  0
 17 18  1  0
 18 19  1  0
 12 20  1  0
 20 21  2  0
 21 22  1  0
 22 23  2  0
 23 24  1  0
 24 25  2  0
 25  1  1  0
 10  5  1  0
 19 15  1  0
 25 20  1  0
  1 26  1  0
  4 27  1  0
  4 28  1  0
  6 29  1  0
  7 30  1  0
  8 31  1  0
  9 32  1  0
 13 33  1  0
 14 34  1  0
 14 35  1  0
 15 36  1  0
 16 37  1  0
 16 38  1  0
 17 39  1  0
 17 40  1  0
 18 41  1  0
 18 42  1  0
 21 43  1  0
 22 44  1  0
 23 45  1  0
 24 46  1  0
M  END
>  <ScrubInfo>  (4) 
{"isomerGroup": 0, "isomerId": 3, "confId": 0, "nr_conformers:": 1, "nr_isomers:": 6}

$$$$
_i4
     RDKit          3D

 46 49  0  0  0  0  0  0  0  0999 V2000
    1.2168   -2.0572    0.4919 N   0  0  0  0  0  0  0  0  0  0  0  0
    0.9407   -0.7281    0.6132 C   0  0  0  0  0  0  0  0  0  0  0  0
    2.0033    0.1002    0.4009 N   0  0  0  0  0  0  0  0  0  0  0  0
    2.8106   -0.0053   -0.8111 C   0  0  0  0  0  0  0  0  0  0  0  0
    3.8694    1.0777   -0.8417 C   0  0  0  0  0  0  0  0  0  0  0  0
    4.8896    1.0917    0.1093 C   0  0  0  0  0  0  0  0  0  0  0  0
    5.8396    2.1080    0.0635 C   0  0  0  0  0  0  0  0  0  0  0  0
    5.7474    3.0817   -0.9230 C   0  0  0  0  0  0  0  0  0  0  0  0
    4.7029    2.9992   -1.8273 C   0  0  0  0  0  0  0  0  0  0  0  0
    3.7675    2.0239   -1.8093 N   0  0  0  0  0  0  0  0  0  0  0  0
   -0.2059   -0.2057    0.9122 N   0  0  0  0  0  0  0  0  0  0  0  0
   -1.2741   -1.0464    1.1329 C   0  0  0  0  0  0  0  0  0  0  0  0
   -2.4566   -0.5744    1.3444 N   0  0  0  0  0  0  0  0  0  0  0  0
   -2.6269    0.8831    1.3668 C   0  0  0  0  0  0  0  0  0  0  0  0
   -2.8015    1.4561   -0.0406 C   0  0  0  0  0  0  0  0  0  0  0  0
   -3.9790    0.8655   -0.8030 C   0  0  0  0  0  0  0  0  0  0  0  0
   -4.2954    1.9721   -1.7765 C   0  0  0  0  0  0  0  0  0  0  0  0
   -4.0664    3.2058   -0.9309 C   0  0  0  0  0  0  0  0  0  0  0  0
   -3.0482    2.8784    0.0248 O   0  0  0  0  0  0  0  0  0  0  0  0
   -1.0651   -2.5199    1.1267 C   0  0  0  0  0  0  0  0  0  0  0  0
   -2.1016   -3.4154    1.4088 C   0  0  0  0  0  0  0  0  0  0  0  0
   -1.8497   -4.7869    1.3902 C   0  0  0  0  0  0  0  0  0  0  0  0
   -0.5714   -5.2568    1.0843 C   0  0  0  0  0  0  0  0  0  0  0  0
    0.4612   -4.3578    0.8012 C   0  0  0  0  0  0  0  0  0  0  0  0
    0.2247   -2.9811    0.8423 C   0  0  0  0  0  0  0  0  0  0  0  0
    2.1693   -2.3420    0.6649 H   0  0  0  0  0  0  0  0  0  0  0  0
    1.6773    1.0620    0.5046 H   0  0  0  0  0  0  0  0  0  0  0  0
    3.3086   -0.9802   -0.8670 H   0  0  0  0  0  0  0  0  0  0  0  0
    2.1652    0.0894   -1.6926 H   0  0  0  0  0  0  0  0  0  0  0  0
    4.9369    0.3311    0.8824 H   0  0  0  0  0  0  0  0  0  0  0  0
    6.6408    2.1433    0.7964 H   0  0  0  0  0  0  0  0  0  0  0  0
    6.4688    3.8888   -0.9832 H   0  0  0  0  0  0  0  0  0  0  0  0
    4.5848    3.7388   -2.6143 H   0  0  0  0  0  0  0  0  0  0  0  0
   -1.8125    1.3949    1.8954 H   0  0  0  0  0  0  0  0  0  0  0  0
   -3.5191    1.1107    1.9638 H   0  0  0  0  0  0  0  0  0  0  0  0
   -1.8824    1.3227   -0.6239 H   0  0  0  0  0  0  0  0  0  0  0  0
   -3.7382   -0.0831   -1.2910 H   0  0  0  0  0  0  0  0  0  0  0  0
   -4.8365    0.7039   -0.1384 H   0  0  0  0  0  0  0  0  0  0  0  0
   -5.3058    1.9196   -2.1902 H   0  0  0  0  0  0  0  0  0  0  0  0
   -3.5820    1.9504   -2.6089 H   0  0  0  0  0  0  0  0  0  0  0  0
   -3.7510    4.0684   -1.5246 H   0  0  0  0  0  0  0  0  0  0  0  0
   -4.9696    3.4773   -0.3743 H   0  0  0  0  0  0  0  0  0  0  0  0
   -3.0979   -3.0465    1.6402 H   0  0  0  0  0  0  0  0  0  0  0  0
   -2.6517   -5.4881    1.6079 H   0  0  0  0  0  0  0  0  0  0  0  0
   -0.3812   -6.3273    1.0583 H   0  0  0  0  0  0  0  0  0  0  0  0
    1.4442   -4.7429    0.5447 H   0  0  0  0  0  0  0  0  0  0  0  0
  1  2  1  0
  2  3  1  0
  3  4  1  0
  4  5  1  0
  5  6  2  0
  6  7  1  0
  7  8  2  0
  8  9  1  0
  9 10  2  0
  2 11  2  0
 11 12  1  0
 12 13  2  3
 13 14  1  0
 14 15  1  0
 15 16  1  0
 16 17  1  0
 17 18  1  0
 18 19  1  0
 12 20  1  0
 20 21  2  0
 21 22  1  0
 22 23  2  0
 23 24  1  0
 24 25  2  0
 25  1  1  0
 10  5  1  0
 19 15  1  0
 25 20  1  0
  1 26  1  0
  3 27  1  0
  4 28  1  0
  4 29  1  0
  6 30  1  0
  7 31  1  0
  8 32  1  0
  9 33  1  0
 14 34  1  0
 14 35  1  0
 15 36  1  0
 16 37  1  0
 16 38  1  0
 17 39  1  0
 17 40  1  0
 18 41  1  0
 18 42  1  0
 21 43  1  0
 22 44  1  0
 23 45  1  0
 24 46  1  0
M  END
>  <ScrubInfo>  (5) 
{"isomerGroup": 0, "isomerId": 4, "confId": 0, "nr_conformers:": 1, "nr_isomers:": 6}

$$$$
_i5
     RDKit          3D

 46 49  0  0  0  0  0  0  0  0999 V2000
    1.6101    1.7706    0.1196 N   0  0  0  0  0  0  0  0  0  0  0  0
    1.6246    0.4679   -0.3050 C   0  0  0  0  0  0  0  0  0  0  0  0
    2.6494   -0.2746   -0.5581 N   0  0  0  0  0  0  0  0  0  0  0  0
    3.9822    0.3154   -0.3890 C   0  0  0  0  0  0  0  0  0  0  0  0
    5.1143   -0.6089   -0.7896 C   0  0  0  0  0  0  0  0  0  0  0  0
    5.0346   -1.9812   -0.5584 C   0  0  0  0  0  0  0  0  0  0  0  0
    6.1135   -2.7895   -0.9056 C   0  0  0  0  0  0  0  0  0  0  0  0
    7.2454   -2.2101   -1.4639 C   0  0  0  0  0  0  0  0  0  0  0  0
    7.2526   -0.8383   -1.6486 C   0  0  0  0  0  0  0  0  0  0  0  0
    6.2233   -0.0271   -1.3188 N   0  0  0  0  0  0  0  0  0  0  0  0
    0.3793   -0.0640   -0.4484 N   0  0  0  0  0  0  0  0  0  0  0  0
   -0.8573    0.4728   -0.1993 C   0  0  0  0  0  0  0  0  0  0  0  0
   -1.8416   -0.3577   -0.2943 N   0  0  0  0  0  0  0  0  0  0  0  0
   -3.2352   -0.0923    0.0138 C   0  0  0  0  0  0  0  0  0  0  0  0
   -3.9981   -1.4241    0.0783 C   0  0  0  0  0  0  0  0  0  0  0  0
   -5.5061   -1.2423   -0.0008 C   0  0  0  0  0  0  0  0  0  0  0  0
   -5.9984   -2.5041    0.6615 C   0  0  0  0  0  0  0  0  0  0  0  0
   -4.9908   -2.6877    1.7758 C   0  0  0  0  0  0  0  0  0  0  0  0
   -3.7616   -2.0958    1.3346 O   0  0  0  0  0  0  0  0  0  0  0  0
   -0.8499    1.9336    0.1565 C   0  0  0  0  0  0  0  0  0  0  0  0
   -1.9837    2.7406    0.2913 C   0  0  0  0  0  0  0  0  0  0  0  0
   -1.8607    4.0917    0.6322 C   0  0  0  0  0  0  0  0  0  0  0  0
   -0.6045    4.6549    0.8279 C   0  0  0  0  0  0  0  0  0  0  0  0
    0.5368    3.8727    0.6661 C   0  0  0  0  0  0  0  0  0  0  0  0
    0.4305    2.5169    0.3181 C   0  0  0  0  0  0  0  0  0  0  0  0
    2.4829    2.2607    0.2368 H   0  0  0  0  0  0  0  0  0  0  0  0
    4.1405    0.5850    0.6626 H   0  0  0  0  0  0  0  0  0  0  0  0
    4.0643    1.2256   -0.9965 H   0  0  0  0  0  0  0  0  0  0  0  0
    4.1408   -2.4152   -0.1207 H   0  0  0  0  0  0  0  0  0  0  0  0
    6.0670   -3.8620   -0.7418 H   0  0  0  0  0  0  0  0  0  0  0  0
    8.1009   -2.8119   -1.7475 H   0  0  0  0  0  0  0  0  0  0  0  0
    8.1147   -0.3378   -2.0796 H   0  0  0  0  0  0  0  0  0  0  0  0
    0.3628   -1.0437   -0.6961 H   0  0  0  0  0  0  0  0  0  0  0  0
   -3.3290    0.4064    0.9841 H   0  0  0  0  0  0  0  0  0  0  0  0
   -3.6689    0.5205   -0.7833 H   0  0  0  0  0  0  0  0  0  0  0  0
   -3.6607   -2.1004   -0.7176 H   0  0  0  0  0  0  0  0  0  0  0  0
   -5.8268   -0.3706    0.5828 H   0  0  0  0  0  0  0  0  0  0  0  0
   -5.8662   -1.1220   -1.0263 H   0  0  0  0  0  0  0  0  0  0  0  0
   -5.9355   -3.3428   -0.0420 H   0  0  0  0  0  0  0  0  0  0  0  0
   -7.0278   -2.4393    1.0234 H   0  0  0  0  0  0  0  0  0  0  0  0
   -5.3048   -2.1627    2.6841 H   0  0  0  0  0  0  0  0  0  0  0  0
   -4.8260   -3.7405    2.0219 H   0  0  0  0  0  0  0  0  0  0  0  0
   -2.9831    2.3671    0.1233 H   0  0  0  0  0  0  0  0  0  0  0  0
   -2.7525    4.7056    0.7393 H   0  0  0  0  0  0  0  0  0  0  0  0
   -0.5131    5.7053    1.0930 H   0  0  0  0  0  0  0  0  0  0  0  0
    1.5118    4.3335    0.8040 H   0  0  0  0  0  0  0  0  0  0  0  0
  1  2  1  0
  2  3  2  3
  3  4  1  0
  4  5  1  0
  5  6  2  0
  6  7  1  0
  7  8  2  0
  8  9  1  0
  9 10  2  0
  2 11  1  0
 11 12  1  0
 12 13  2  3
 13 14  1  0
 14 15  1  0
 15 16  1  0
 16 17  1  0
 17 18  1  0
 18 19  1  0
 12 20  1  0
 20 21  2  0
 21 22  1  0
 22 23  2  0
 23 24  1  0
 24 25  2  0
 25  1  1  0
 10  5  1  0
 19 15  1  0
 25 20  1  0
  1 26  1  0
  4 27  1  0
  4 28  1  0
  6 29  1  0
  7 30  1  0
  8 31  1  0
  9 32  1  0
 11 33  1  0
 14 34  1  0
 14 35  1  0
 15 36  1  0
 16 37  1  0
 16 38  1  0
 17 39  1  0
 17 40  1  0
 18 41  1  0
 18 42  1  0
 21 43  1  0
 22 44  1  0
 23 45  1  0
 24 46  1  0
M  END
>  <ScrubInfo>  (6) 
{"isomerGroup": 0, "isomerId": 5, "confId": 0, "nr_conformers:": 1, "nr_isomers:": 6}

$$$$
