REMARK SMILES COCCNc1nc(Nc2ccccc2F)c2cnn(C)c2n1
REMARK SMILES IDX 5 1 4 3 3 4 2 5 1 6 6 7 7 8 23 9 8 10 22 11 17 12 20 13
REMARK SMILES IDX 18 14 19 15 21 16 9 17 10 19 11 20 15 21 12 22 14 23 13 24
REMARK SMILES IDX 16 25
REMARK H PARENT 5 2 9 18
ROOT
ATOM      1  N   UNL     1       2.563   0.484   0.026  1.00  0.00    -0.352 N 
ATOM      2  H   UNL     1       2.641   0.215   1.004  1.00  0.00     0.163 HD
ENDROOT
BRANCH   1   3
ATOM      3  C   UNL     1       3.595  -0.122  -0.808  1.00  0.00     0.144 C 
BRANCH   3   4
ATOM      4  C   UNL     1       4.970   0.123  -0.176  1.00  0.00     0.181 C 
BRANCH   4   5
ATOM      5  O   UNL     1       5.043  -0.570   1.077  1.00  0.00    -0.383 OA
ATOM      6  C   UNL     1       6.286  -0.341   1.726  1.00  0.00     0.194 C 
ENDBRANCH   4   5
ENDBRANCH   3   4
ENDBRANCH   1   3
BRANCH   1   7
ATOM      7  C   UNL     1       1.264   0.171  -0.356  1.00  0.00     0.226 A 
ATOM      8  N   UNL     1       0.406  -0.009   0.666  1.00  0.00    -0.195 NA
ATOM      9  N   UNL     1       0.964   0.073  -1.660  1.00  0.00    -0.193 NA
ATOM     10  C   UNL     1      -0.898  -0.291   0.419  1.00  0.00     0.147 A 
ATOM     11  C   UNL     1      -0.325  -0.232  -1.874  1.00  0.00     0.165 A 
ATOM     12  C   UNL     1      -1.294  -0.432  -0.912  1.00  0.00     0.082 A 
ATOM     13  N   UNL     1      -0.948  -0.414  -3.079  1.00  0.00    -0.250 N 
ATOM     14  C   UNL     1      -2.455  -0.754  -1.645  1.00  0.00     0.149 A 
ATOM     15  N   UNL     1      -2.255  -0.750  -2.969  1.00  0.00    -0.179 NA
ATOM     16  C   UNL     1      -0.355  -0.296  -4.386  1.00  0.00     0.176 C 
BRANCH  10  17
ATOM     17  N   UNL     1      -1.728  -0.482   1.538  1.00  0.00    -0.337 N 
ATOM     18  H   UNL     1      -1.153  -0.230   2.341  1.00  0.00     0.168 HD
BRANCH  17  19
ATOM     19  C   UNL     1      -3.043   0.008   1.708  1.00  0.00     0.076 A 
ATOM     20  C   UNL     1      -3.887  -0.670   2.599  1.00  0.00     0.029 A 
ATOM     21  C   UNL     1      -3.516   1.200   1.139  1.00  0.00     0.146 A 
ATOM     22  C   UNL     1      -5.180  -0.206   2.860  1.00  0.00     0.002 A 
ATOM     23  C   UNL     1      -4.803   1.669   1.394  1.00  0.00     0.041 A 
ATOM     24  C   UNL     1      -5.641   0.961   2.253  1.00  0.00     0.003 A 
ATOM     25  F   UNL     1      -2.727   1.935   0.341  1.00  0.00    -0.205 F 
ENDBRANCH  17  19
ENDBRANCH  10  17
ENDBRANCH   1   7
TORSDOF 6
