_i0
     RDKit          3D

 40 42  0  0  0  0  0  0  0  0999 V2000
    6.2864   -0.3411    1.7256 C   0  0  0  0  0  0  0  0  0  0  0  0
    5.0425   -0.5698    1.0766 O   0  0  0  0  0  0  0  0  0  0  0  0
    4.9697    0.1230   -0.1765 C   0  0  0  0  0  0  0  0  0  0  0  0
    3.5945   -0.1217   -0.8083 C   0  0  0  0  0  0  0  0  0  0  0  0
    2.5630    0.4836    0.0258 N   0  0  0  0  0  0  0  0  0  0  0  0
    1.2638    0.1707   -0.3559 C   0  0  0  0  0  0  0  0  0  0  0  0
    0.4061   -0.0088    0.6663 N   0  0  0  0  0  0  0  0  0  0  0  0
   -0.8977   -0.2906    0.4186 C   0  0  0  0  0  0  0  0  0  0  0  0
   -1.7278   -0.4822    1.5378 N   0  0  0  0  0  0  0  0  0  0  0  0
   -3.0435    0.0084    1.7083 C   0  0  0  0  0  0  0  0  0  0  0  0
   -3.8873   -0.6705    2.5987 C   0  0  0  0  0  0  0  0  0  0  0  0
   -5.1804   -0.2062    2.8598 C   0  0  0  0  0  0  0  0  0  0  0  0
   -5.6408    0.9609    2.2528 C   0  0  0  0  0  0  0  0  0  0  0  0
   -4.8034    1.6692    1.3943 C   0  0  0  0  0  0  0  0  0  0  0  0
   -3.5157    1.2005    1.1385 C   0  0  0  0  0  0  0  0  0  0  0  0
   -2.7268    1.9354    0.3406 F   0  0  0  0  0  0  0  0  0  0  0  0
   -1.2942   -0.4322   -0.9122 C   0  0  0  0  0  0  0  0  0  0  0  0
   -2.4552   -0.7538   -1.6446 C   0  0  0  0  0  0  0  0  0  0  0  0
   -2.2545   -0.7502   -2.9685 N   0  0  0  0  0  0  0  0  0  0  0  0
   -0.9477   -0.4139   -3.0786 N   0  0  0  0  0  0  0  0  0  0  0  0
   -0.3546   -0.2962   -4.3864 C   0  0  0  0  0  0  0  0  0  0  0  0
   -0.3249   -0.2324   -1.8743 C   0  0  0  0  0  0  0  0  0  0  0  0
    0.9635    0.0732   -1.6597 N   0  0  0  0  0  0  0  0  0  0  0  0
    6.2904   -0.8962    2.6674 H   0  0  0  0  0  0  0  0  0  0  0  0
    6.4128    0.7231    1.9468 H   0  0  0  0  0  0  0  0  0  0  0  0
    7.1137   -0.6986    1.1051 H   0  0  0  0  0  0  0  0  0  0  0  0
    5.1281    1.1955   -0.0122 H   0  0  0  0  0  0  0  0  0  0  0  0
    5.7517   -0.2585   -0.8426 H   0  0  0  0  0  0  0  0  0  0  0  0
    3.4267   -1.2031   -0.8898 H   0  0  0  0  0  0  0  0  0  0  0  0
    3.5831    0.3193   -1.8117 H   0  0  0  0  0  0  0  0  0  0  0  0
    2.6406    0.2146    1.0042 H   0  0  0  0  0  0  0  0  0  0  0  0
   -1.1529   -0.2296    2.3410 H   0  0  0  0  0  0  0  0  0  0  0  0
   -3.5415   -1.5813    3.0833 H   0  0  0  0  0  0  0  0  0  0  0  0
   -5.8259   -0.7564    3.5405 H   0  0  0  0  0  0  0  0  0  0  0  0
   -6.6452    1.3233    2.4568 H   0  0  0  0  0  0  0  0  0  0  0  0
   -5.1379    2.5906    0.9279 H   0  0  0  0  0  0  0  0  0  0  0  0
   -3.4402   -0.9932   -1.2658 H   0  0  0  0  0  0  0  0  0  0  0  0
   -0.9233    0.4421   -4.9575 H   0  0  0  0  0  0  0  0  0  0  0  0
   -0.4004   -1.2736   -4.8732 H   0  0  0  0  0  0  0  0  0  0  0  0
    0.6852    0.0268   -4.2991 H   0  0  0  0  0  0  0  0  0  0  0  0
  1  2  1  0
  2  3  1  0
  3  4  1  0
  4  5  1  0
  5  6  1  0
  6  7  2  0
  7  8  1  0
  8  9  1  0
  9 10  1  0
 10 11  2  0
 11 12  1  0
 12 13  2  0
 13 14  1  0
 14 15  2  0
 15 16  1  0
  8 17  2  0
 17 18  1  0
 18 19  2  0
 19 20  1  0
 20 21  1  0
 20 22  1  0
 22 23  2  0
 23  6  1  0
 15 10  1  0
 22 17  1  0
  1 24  1  0
  1 25  1  0
  1 26  1  0
  3 27  1  0
  3 28  1  0
  4 29  1  0
  4 30  1  0
  5 31  1  0
  9 32  1  0
 11 33  1  0
 12 34  1  0
 13 35  1  0
 14 36  1  0
 18 37  1  0
 21 38  1  0
 21 39  1  0
 21 40  1  0
M  END
>  <ScrubInfo>  (1) 
{"isomerGroup": 0, "isomerId": 0, "confId": 0, "nr_conformers:": 1, "nr_isomers:": 9}

$$$$
_i1
     RDKit          3D

 40 42  0  0  0  0  0  0  0  0999 V2000
    0.0942   -0.8396   -1.1202 N   0  0  0  0  0  0  0  0  0  0  0  0
   -1.0678   -0.7443   -0.3808 C   0  0  0  0  0  0  0  0  0  0  0  0
   -2.2988   -0.6869   -1.0078 N   0  0  0  0  0  0  0  0  0  0  0  0
   -3.3304    0.2606   -0.7918 C   0  0  0  0  0  0  0  0  0  0  0  0
   -4.5887   -0.0127   -1.3545 C   0  0  0  0  0  0  0  0  0  0  0  0
   -5.6717    0.8520   -1.1634 C   0  0  0  0  0  0  0  0  0  0  0  0
   -5.5179    2.0073   -0.4012 C   0  0  0  0  0  0  0  0  0  0  0  0
   -4.2814    2.2960    0.1691 C   0  0  0  0  0  0  0  0  0  0  0  0
   -3.2055    1.4295   -0.0243 C   0  0  0  0  0  0  0  0  0  0  0  0
   -2.0310    1.7699    0.5260 F   0  0  0  0  0  0  0  0  0  0  0  0
   -0.8988   -0.8082    0.9463 C   0  0  0  0  0  0  0  0  0  0  0  0
   -1.7363   -0.8528    2.1497 C   0  0  0  0  0  0  0  0  0  0  0  0
   -1.0423   -0.9704    3.2549 N   0  0  0  0  0  0  0  0  0  0  0  0
    0.3035   -0.9583    2.8528 N   0  0  0  0  0  0  0  0  0  0  0  0
    1.3175   -1.3620    3.7949 C   0  0  0  0  0  0  0  0  0  0  0  0
    0.4768   -0.9193    1.4784 C   0  0  0  0  0  0  0  0  0  0  0  0
    1.5549   -0.9800    0.7716 N   0  0  0  0  0  0  0  0  0  0  0  0
    1.3572   -0.9046   -0.5892 C   0  0  0  0  0  0  0  0  0  0  0  0
    2.3608   -0.8910   -1.4020 N   0  0  0  0  0  0  0  0  0  0  0  0
    3.7136   -0.9355   -0.8339 C   0  0  0  0  0  0  0  0  0  0  0  0
    4.1948    0.4626   -0.4192 C   0  0  0  0  0  0  0  0  0  0  0  0
    4.2115    1.4246   -1.4804 O   0  0  0  0  0  0  0  0  0  0  0  0
    5.1498    1.1289   -2.5029 C   0  0  0  0  0  0  0  0  0  0  0  0
    0.0567   -0.6717   -2.1131 H   0  0  0  0  0  0  0  0  0  0  0  0
   -2.2497   -0.9447   -1.9895 H   0  0  0  0  0  0  0  0  0  0  0  0
   -4.7397   -0.9176   -1.9395 H   0  0  0  0  0  0  0  0  0  0  0  0
   -6.6370    0.6185   -1.6070 H   0  0  0  0  0  0  0  0  0  0  0  0
   -6.3584    2.6806   -0.2518 H   0  0  0  0  0  0  0  0  0  0  0  0
   -4.1413    3.1945    0.7627 H   0  0  0  0  0  0  0  0  0  0  0  0
   -2.8310   -0.8194    2.0835 H   0  0  0  0  0  0  0  0  0  0  0  0
    1.0621   -1.0296    4.8063 H   0  0  0  0  0  0  0  0  0  0  0  0
    2.2873   -0.9255    3.5357 H   0  0  0  0  0  0  0  0  0  0  0  0
    1.4172   -2.4519    3.8036 H   0  0  0  0  0  0  0  0  0  0  0  0
    3.7831   -1.6285    0.0133 H   0  0  0  0  0  0  0  0  0  0  0  0
    4.3752   -1.3479   -1.6027 H   0  0  0  0  0  0  0  0  0  0  0  0
    3.5377    0.8695    0.3563 H   0  0  0  0  0  0  0  0  0  0  0  0
    5.1984    0.3983    0.0173 H   0  0  0  0  0  0  0  0  0  0  0  0
    6.1417    0.9383   -2.0821 H   0  0  0  0  0  0  0  0  0  0  0  0
    4.8182    0.2750   -3.0994 H   0  0  0  0  0  0  0  0  0  0  0  0
    5.2159    1.9964   -3.1655 H   0  0  0  0  0  0  0  0  0  0  0  0
  1  2  1  0
  2  3  1  0
  3  4  1  0
  4  5  2  0
  5  6  1  0
  6  7  2  0
  7  8  1  0
  8  9  2  0
  9 10  1  0
  2 11  2  0
 11 12  1  0
 12 13  2  0
 13 14  1  0
 14 15  1  0
 14 16  1  0
 16 17  2  0
 17 18  1  0
 18 19  2  3
 19 20  1  0
 20 21  1  0
 21 22  1  0
 22 23  1  0
 18  1  1  0
  9  4  1  0
 16 11  1  0
  1 24  1  0
  3 25  1  0
  5 26  1  0
  6 27  1  0
  7 28  1  0
  8 29  1  0
 12 30  1  0
 15 31  1  0
 15 32  1  0
 15 33  1  0
 20 34  1  0
 20 35  1  0
 21 36  1  0
 21 37  1  0
 23 38  1  0
 23 39  1  0
 23 40  1  0
M  END
>  <ScrubInfo>  (2) 
{"isomerGroup": 0, "isomerId": 1, "confId": 0, "nr_conformers:": 1, "nr_isomers:": 9}

$$$$
_i2
     RDKit          3D

 40 42  0  0  0  0  0  0  0  0999 V2000
    0.6269   -0.6686    0.6048 N   0  0  0  0  0  0  0  0  0  0  0  0
    1.4062    0.4578    0.5271 C   0  0  0  0  0  0  0  0  0  0  0  0
    2.7314    0.2884    0.8073 N   0  0  0  0  0  0  0  0  0  0  0  0
    3.5271   -0.7720    0.1956 C   0  0  0  0  0  0  0  0  0  0  0  0
    5.0199   -0.5039    0.4299 C   0  0  0  0  0  0  0  0  0  0  0  0
    5.4137    0.7922   -0.0365 O   0  0  0  0  0  0  0  0  0  0  0  0
    5.5707    0.8612   -1.4479 C   0  0  0  0  0  0  0  0  0  0  0  0
    0.9511    1.6436    0.2129 N   0  0  0  0  0  0  0  0  0  0  0  0
   -0.3881    1.6136   -0.0403 C   0  0  0  0  0  0  0  0  0  0  0  0
   -1.2560    0.5330    0.0199 C   0  0  0  0  0  0  0  0  0  0  0  0
   -2.4987    1.0660   -0.3654 C   0  0  0  0  0  0  0  0  0  0  0  0
   -2.4399    2.3745   -0.6444 N   0  0  0  0  0  0  0  0  0  0  0  0
   -1.1432    2.6871   -0.4205 N   0  0  0  0  0  0  0  0  0  0  0  0
   -0.6982    4.0443   -0.6131 C   0  0  0  0  0  0  0  0  0  0  0  0
   -0.7320   -0.7616    0.4117 C   0  0  0  0  0  0  0  0  0  0  0  0
   -1.3650   -1.8827    0.5797 N   0  0  0  0  0  0  0  0  0  0  0  0
   -2.7552   -1.9754    0.4439 C   0  0  0  0  0  0  0  0  0  0  0  0
   -3.3045   -2.4470   -0.7523 C   0  0  0  0  0  0  0  0  0  0  0  0
   -4.6894   -2.5772   -0.8937 C   0  0  0  0  0  0  0  0  0  0  0  0
   -5.5363   -2.2513    0.1669 C   0  0  0  0  0  0  0  0  0  0  0  0
   -4.9991   -1.8021    1.3724 C   0  0  0  0  0  0  0  0  0  0  0  0
   -3.6185   -1.6751    1.5060 C   0  0  0  0  0  0  0  0  0  0  0  0
   -3.1213   -1.2417    2.6748 F   0  0  0  0  0  0  0  0  0  0  0  0
    1.0366   -1.4839    1.0286 H   0  0  0  0  0  0  0  0  0  0  0  0
    3.2133    1.1854    0.7084 H   0  0  0  0  0  0  0  0  0  0  0  0
    3.2613   -1.7423    0.6280 H   0  0  0  0  0  0  0  0  0  0  0  0
    3.3159   -0.8082   -0.8784 H   0  0  0  0  0  0  0  0  0  0  0  0
    5.2246   -0.5233    1.5062 H   0  0  0  0  0  0  0  0  0  0  0  0
    5.6373   -1.2803   -0.0359 H   0  0  0  0  0  0  0  0  0  0  0  0
    4.6129    0.7185   -1.9550 H   0  0  0  0  0  0  0  0  0  0  0  0
    5.9463    1.8565   -1.7006 H   0  0  0  0  0  0  0  0  0  0  0  0
    6.2966    0.1186   -1.7922 H   0  0  0  0  0  0  0  0  0  0  0  0
   -3.4555    0.5741   -0.4679 H   0  0  0  0  0  0  0  0  0  0  0  0
   -0.6850    4.2495   -1.6864 H   0  0  0  0  0  0  0  0  0  0  0  0
   -1.3964    4.7148   -0.1051 H   0  0  0  0  0  0  0  0  0  0  0  0
    0.3017    4.1741   -0.1935 H   0  0  0  0  0  0  0  0  0  0  0  0
   -2.6488   -2.7131   -1.5771 H   0  0  0  0  0  0  0  0  0  0  0  0
   -5.1062   -2.9377   -1.8313 H   0  0  0  0  0  0  0  0  0  0  0  0
   -6.6131   -2.3538    0.0557 H   0  0  0  0  0  0  0  0  0  0  0  0
   -5.6429   -1.5516    2.2095 H   0  0  0  0  0  0  0  0  0  0  0  0
  1  2  1  0
  2  3  1  0
  3  4  1  0
  4  5  1  0
  5  6  1  0
  6  7  1  0
  2  8  2  0
  8  9  1  0
  9 10  2  0
 10 11  1  0
 11 12  2  0
 12 13  1  0
 13 14  1  0
 10 15  1  0
 15 16  2  3
 16 17  1  0
 17 18  2  0
 18 19  1  0
 19 20  2  0
 20 21  1  0
 21 22  2  0
 22 23  1  0
 15  1  1  0
 22 17  1  0
 13  9  1  0
  1 24  1  0
  3 25  1  0
  4 26  1  0
  4 27  1  0
  5 28  1  0
  5 29  1  0
  7 30  1  0
  7 31  1  0
  7 32  1  0
 11 33  1  0
 14 34  1  0
 14 35  1  0
 14 36  1  0
 18 37  1  0
 19 38  1  0
 20 39  1  0
 21 40  1  0
M  END
>  <ScrubInfo>  (3) 
{"isomerGroup": 0, "isomerId": 2, "confId": 0, "nr_conformers:": 1, "nr_isomers:": 9}

$$$$
_i3
     RDKit          3D

 40 42  0  0  0  0  0  0  0  0999 V2000
   -1.3505   -0.2107   -0.4146 N   0  0  0  0  0  0  0  0  0  0  0  0
   -1.2149    0.3889    0.8288 C   0  0  0  0  0  0  0  0  0  0  0  0
   -2.1420    0.5604    1.7009 N   0  0  0  0  0  0  0  0  0  0  0  0
   -3.5046    0.1068    1.4575 C   0  0  0  0  0  0  0  0  0  0  0  0
   -4.3277    1.2152    0.7974 C   0  0  0  0  0  0  0  0  0  0  0  0
   -5.6455    0.7626    0.4791 O   0  0  0  0  0  0  0  0  0  0  0  0
   -5.7293    0.1412   -0.7947 C   0  0  0  0  0  0  0  0  0  0  0  0
    0.0078    0.8916    1.2512 N   0  0  0  0  0  0  0  0  0  0  0  0
    1.0557    0.7790    0.4875 C   0  0  0  0  0  0  0  0  0  0  0  0
    2.2890    1.2708    0.8196 N   0  0  0  0  0  0  0  0  0  0  0  0
    3.4143    0.4657    1.1560 C   0  0  0  0  0  0  0  0  0  0  0  0
    3.4603   -0.9240    0.9909 C   0  0  0  0  0  0  0  0  0  0  0  0
    4.6256   -1.6413    1.2901 C   0  0  0  0  0  0  0  0  0  0  0  0
    5.7649   -0.9805    1.7487 C   0  0  0  0  0  0  0  0  0  0  0  0
    5.7422    0.4013    1.9102 C   0  0  0  0  0  0  0  0  0  0  0  0
    4.5797    1.1066    1.6108 C   0  0  0  0  0  0  0  0  0  0  0  0
    4.5752    2.4393    1.7741 F   0  0  0  0  0  0  0  0  0  0  0  0
    0.9467    0.1935   -0.8271 C   0  0  0  0  0  0  0  0  0  0  0  0
    1.7766   -0.0306   -1.9353 C   0  0  0  0  0  0  0  0  0  0  0  0
    1.1272   -0.6390   -2.9406 N   0  0  0  0  0  0  0  0  0  0  0  0
   -0.1374   -0.7810   -2.4729 N   0  0  0  0  0  0  0  0  0  0  0  0
   -1.1298   -1.3958   -3.3170 C   0  0  0  0  0  0  0  0  0  0  0  0
   -0.2732   -0.2851   -1.2151 C   0  0  0  0  0  0  0  0  0  0  0  0
   -2.2638   -0.5443   -0.6779 H   0  0  0  0  0  0  0  0  0  0  0  0
   -3.5450   -0.8270    0.8870 H   0  0  0  0  0  0  0  0  0  0  0  0
   -3.9645   -0.1460    2.4208 H   0  0  0  0  0  0  0  0  0  0  0  0
   -3.8322    1.6133   -0.0963 H   0  0  0  0  0  0  0  0  0  0  0  0
   -4.4320    2.0498    1.4997 H   0  0  0  0  0  0  0  0  0  0  0  0
   -5.0762   -0.7343   -0.8486 H   0  0  0  0  0  0  0  0  0  0  0  0
   -6.7610   -0.1856   -0.9502 H   0  0  0  0  0  0  0  0  0  0  0  0
   -5.4684    0.8527   -1.5841 H   0  0  0  0  0  0  0  0  0  0  0  0
    2.2029    1.9771    1.5507 H   0  0  0  0  0  0  0  0  0  0  0  0
    2.5942   -1.4826    0.6470 H   0  0  0  0  0  0  0  0  0  0  0  0
    4.6405   -2.7219    1.1637 H   0  0  0  0  0  0  0  0  0  0  0  0
    6.6664   -1.5429    1.9790 H   0  0  0  0  0  0  0  0  0  0  0  0
    6.6183    0.9349    2.2645 H   0  0  0  0  0  0  0  0  0  0  0  0
    2.8235    0.2160   -2.0591 H   0  0  0  0  0  0  0  0  0  0  0  0
   -2.0802   -1.4670   -2.7840 H   0  0  0  0  0  0  0  0  0  0  0  0
   -1.2509   -0.7788   -4.2110 H   0  0  0  0  0  0  0  0  0  0  0  0
   -0.7818   -2.3962   -3.5866 H   0  0  0  0  0  0  0  0  0  0  0  0
  1  2  1  0
  2  3  2  3
  3  4  1  0
  4  5  1  0
  5  6  1  0
  6  7  1  0
  2  8  1  0
  8  9  2  0
  9 10  1  0
 10 11  1  0
 11 12  2  0
 12 13  1  0
 13 14  2  0
 14 15  1  0
 15 16  2  0
 16 17  1  0
  9 18  1  0
 18 19  1  0
 19 20  2  0
 20 21  1  0
 21 22  1  0
 21 23  1  0
 23  1  1  0
 16 11  1  0
 23 18  2  0
  1 24  1  0
  4 25  1  0
  4 26  1  0
  5 27  1  0
  5 28  1  0
  7 29  1  0
  7 30  1  0
  7 31  1  0
 10 32  1  0
 12 33  1  0
 13 34  1  0
 14 35  1  0
 15 36  1  0
 19 37  1  0
 22 38  1  0
 22 39  1  0
 22 40  1  0
M  END
>  <ScrubInfo>  (4) 
{"isomerGroup": 0, "isomerId": 3, "confId": 0, "nr_conformers:": 1, "nr_isomers:": 9}

$$$$
_i4
     RDKit          3D

 40 42  0  0  0  0  0  0  0  0999 V2000
   -2.5510   -1.9544   -1.6865 N   0  0  0  0  0  0  0  0  0  0  0  0
   -2.4749   -0.9877   -0.6891 C   0  0  0  0  0  0  0  0  0  0  0  0
   -1.2895   -0.3605   -0.6391 C   0  0  0  0  0  0  0  0  0  0  0  0
   -0.6086    0.6596    0.1487 C   0  0  0  0  0  0  0  0  0  0  0  0
   -1.0111    1.3578    1.1569 N   0  0  0  0  0  0  0  0  0  0  0  0
   -2.2884    1.1745    1.6985 C   0  0  0  0  0  0  0  0  0  0  0  0
   -3.3056    2.0789    1.3789 C   0  0  0  0  0  0  0  0  0  0  0  0
   -4.5821    1.9379    1.9317 C   0  0  0  0  0  0  0  0  0  0  0  0
   -4.8489    0.8967    2.8220 C   0  0  0  0  0  0  0  0  0  0  0  0
   -3.8381   -0.0004    3.1640 C   0  0  0  0  0  0  0  0  0  0  0  0
   -2.5685    0.1469    2.6090 C   0  0  0  0  0  0  0  0  0  0  0  0
   -1.6161   -0.7381    2.9412 F   0  0  0  0  0  0  0  0  0  0  0  0
    0.6737    0.9098   -0.2613 N   0  0  0  0  0  0  0  0  0  0  0  0
    1.2409    0.3021   -1.2556 C   0  0  0  0  0  0  0  0  0  0  0  0
    2.5273    0.5892   -1.6062 N   0  0  0  0  0  0  0  0  0  0  0  0
    3.4625    1.2686   -0.7308 C   0  0  0  0  0  0  0  0  0  0  0  0
    3.8976    0.3811    0.4418 C   0  0  0  0  0  0  0  0  0  0  0  0
    5.0205    0.9336    1.1361 O   0  0  0  0  0  0  0  0  0  0  0  0
    6.2660    0.5656    0.5597 C   0  0  0  0  0  0  0  0  0  0  0  0
    0.6546   -0.6539   -2.0389 N   0  0  0  0  0  0  0  0  0  0  0  0
   -0.5667   -0.9643   -1.7753 C   0  0  0  0  0  0  0  0  0  0  0  0
   -1.3944   -1.8664   -2.4458 N   0  0  0  0  0  0  0  0  0  0  0  0
   -0.8548   -3.0680   -3.0519 C   0  0  0  0  0  0  0  0  0  0  0  0
   -3.4328   -1.9339   -2.2039 H   0  0  0  0  0  0  0  0  0  0  0  0
   -3.3429   -0.8319   -0.0663 H   0  0  0  0  0  0  0  0  0  0  0  0
   -3.0944    2.9033    0.7022 H   0  0  0  0  0  0  0  0  0  0  0  0
   -5.3632    2.6500    1.6761 H   0  0  0  0  0  0  0  0  0  0  0  0
   -5.8397    0.7927    3.2575 H   0  0  0  0  0  0  0  0  0  0  0  0
   -4.0252   -0.8098    3.8623 H   0  0  0  0  0  0  0  0  0  0  0  0
    2.9186   -0.0851   -2.2503 H   0  0  0  0  0  0  0  0  0  0  0  0
    4.3336    1.5620   -1.3259 H   0  0  0  0  0  0  0  0  0  0  0  0
    3.0402    2.2078   -0.3537 H   0  0  0  0  0  0  0  0  0  0  0  0
    4.1209   -0.6413    0.1121 H   0  0  0  0  0  0  0  0  0  0  0  0
    3.0786    0.3075    1.1656 H   0  0  0  0  0  0  0  0  0  0  0  0
    7.0643    1.0321    1.1433 H   0  0  0  0  0  0  0  0  0  0  0  0
    6.3420    0.9166   -0.4729 H   0  0  0  0  0  0  0  0  0  0  0  0
    6.3984   -0.5200    0.5984 H   0  0  0  0  0  0  0  0  0  0  0  0
   -0.0570   -2.8184   -3.7587 H   0  0  0  0  0  0  0  0  0  0  0  0
   -0.4495   -3.7406   -2.2888 H   0  0  0  0  0  0  0  0  0  0  0  0
   -1.6361   -3.5996   -3.6048 H   0  0  0  0  0  0  0  0  0  0  0  0
  1  2  1  0
  2  3  2  0
  3  4  1  0
  4  5  2  3
  5  6  1  0
  6  7  2  0
  7  8  1  0
  8  9  2  0
  9 10  1  0
 10 11  2  0
 11 12  1  0
  4 13  1  0
 13 14  2  0
 14 15  1  0
 15 16  1  0
 16 17  1  0
 17 18  1  0
 18 19  1  0
 14 20  1  0
 20 21  2  0
 21 22  1  0
 22 23  1  0
 22  1  1  0
 21  3  1  0
 11  6  1  0
  1 24  1  0
  2 25  1  0
  7 26  1  0
  8 27  1  0
  9 28  1  0
 10 29  1  0
 15 30  1  0
 16 31  1  0
 16 32  1  0
 17 33  1  0
 17 34  1  0
 19 35  1  0
 19 36  1  0
 19 37  1  0
 23 38  1  0
 23 39  1  0
 23 40  1  0
M  END
>  <ScrubInfo>  (5) 
{"isomerGroup": 0, "isomerId": 4, "confId": 0, "nr_conformers:": 1, "nr_isomers:": 9}

$$$$
_i5
     RDKit          3D

 40 42  0  0  0  0  0  0  0  0999 V2000
   -1.0583    0.1661   -0.5998 N   0  0  0  0  0  0  0  0  0  0  0  0
   -1.2047   -0.3719    0.6540 C   0  0  0  0  0  0  0  0  0  0  0  0
   -2.4806   -0.5462    1.1003 N   0  0  0  0  0  0  0  0  0  0  0  0
   -3.6090    0.3112    0.7932 C   0  0  0  0  0  0  0  0  0  0  0  0
   -4.5265   -0.3450   -0.2442 C   0  0  0  0  0  0  0  0  0  0  0  0
   -5.4429    0.5939   -0.8110 O   0  0  0  0  0  0  0  0  0  0  0  0
   -6.5598    0.8563    0.0296 C   0  0  0  0  0  0  0  0  0  0  0  0
   -0.2247   -0.7296    1.4362 N   0  0  0  0  0  0  0  0  0  0  0  0
    1.0925   -0.5856    1.0163 C   0  0  0  0  0  0  0  0  0  0  0  0
    1.9966   -0.9814    1.8545 N   0  0  0  0  0  0  0  0  0  0  0  0
    3.3627   -0.9459    1.5614 C   0  0  0  0  0  0  0  0  0  0  0  0
    4.1483    0.0965    2.0629 C   0  0  0  0  0  0  0  0  0  0  0  0
    5.5235    0.1330    1.8134 C   0  0  0  0  0  0  0  0  0  0  0  0
    6.1285   -0.8834    1.0726 C   0  0  0  0  0  0  0  0  0  0  0  0
    5.3601   -1.9404    0.5868 C   0  0  0  0  0  0  0  0  0  0  0  0
    3.9903   -1.9698    0.8394 C   0  0  0  0  0  0  0  0  0  0  0  0
    3.2693   -2.9925    0.3547 F   0  0  0  0  0  0  0  0  0  0  0  0
    1.2946    0.0004   -0.2991 C   0  0  0  0  0  0  0  0  0  0  0  0
    2.3727    0.3744   -1.1218 C   0  0  0  0  0  0  0  0  0  0  0  0
    1.9795    0.8927   -2.2966 N   0  0  0  0  0  0  0  0  0  0  0  0
    0.6298    0.8487   -2.2302 N   0  0  0  0  0  0  0  0  0  0  0  0
   -0.1409    1.3362   -3.3456 C   0  0  0  0  0  0  0  0  0  0  0  0
    0.1960    0.3406   -1.0480 C   0  0  0  0  0  0  0  0  0  0  0  0
   -1.8816    0.3038   -1.1672 H   0  0  0  0  0  0  0  0  0  0  0  0
   -2.4687   -0.8852    2.0600 H   0  0  0  0  0  0  0  0  0  0  0  0
   -3.2801    1.2986    0.4475 H   0  0  0  0  0  0  0  0  0  0  0  0
   -4.1748    0.4956    1.7135 H   0  0  0  0  0  0  0  0  0  0  0  0
   -5.0608   -1.2037    0.1802 H   0  0  0  0  0  0  0  0  0  0  0  0
   -3.9277   -0.7299   -1.0769 H   0  0  0  0  0  0  0  0  0  0  0  0
   -7.2274    1.5453   -0.4948 H   0  0  0  0  0  0  0  0  0  0  0  0
   -7.1084   -0.0669    0.2392 H   0  0  0  0  0  0  0  0  0  0  0  0
   -6.2422    1.3281    0.9634 H   0  0  0  0  0  0  0  0  0  0  0  0
    3.6832    0.8805    2.6551 H   0  0  0  0  0  0  0  0  0  0  0  0
    6.1226    0.9515    2.2055 H   0  0  0  0  0  0  0  0  0  0  0  0
    7.1986   -0.8558    0.8820 H   0  0  0  0  0  0  0  0  0  0  0  0
    5.8156   -2.7432    0.0160 H   0  0  0  0  0  0  0  0  0  0  0  0
    3.4352    0.3043   -0.9358 H   0  0  0  0  0  0  0  0  0  0  0  0
   -1.2072    1.2096   -3.1478 H   0  0  0  0  0  0  0  0  0  0  0  0
    0.0870    2.3960   -3.4843 H   0  0  0  0  0  0  0  0  0  0  0  0
    0.1397    0.7651   -4.2343 H   0  0  0  0  0  0  0  0  0  0  0  0
  1  2  1  0
  2  3  1  0
  3  4  1  0
  4  5  1  0
  5  6  1  0
  6  7  1  0
  2  8  2  0
  8  9  1  0
  9 10  2  3
 10 11  1  0
 11 12  2  0
 12 13  1  0
 13 14  2  0
 14 15  1  0
 15 16  2  0
 16 17  1  0
  9 18  1  0
 18 19  1  0
 19 20  2  0
 20 21  1  0
 21 22  1  0
 21 23  1  0
 23  1  1  0
 16 11  1  0
 23 18  2  0
  1 24  1  0
  3 25  1  0
  4 26  1  0
  4 27  1  0
  5 28  1  0
  5 29  1  0
  7 30  1  0
  7 31  1  0
  7 32  1  0
 12 33  1  0
 13 34  1  0
 14 35  1  0
 15 36  1  0
 19 37  1  0
 22 38  1  0
 22 39  1  0
 22 40  1  0
M  END
>  <ScrubInfo>  (6) 
{"isomerGroup": 0, "isomerId": 5, "confId": 0, "nr_conformers:": 1, "nr_isomers:": 9}

$$$$
_i6
     RDKit          3D

 40 42  0  0  0  0  0  0  0  0999 V2000
   -0.8754   -4.7219    0.0184 N   0  0  0  0  0  0  0  0  0  0  0  0
   -1.4955   -3.5705    0.4927 C   0  0  0  0  0  0  0  0  0  0  0  0
   -0.7021   -2.4918    0.4408 C   0  0  0  0  0  0  0  0  0  0  0  0
   -0.7482   -1.0767    0.8060 C   0  0  0  0  0  0  0  0  0  0  0  0
   -1.8925   -0.5267    1.3646 N   0  0  0  0  0  0  0  0  0  0  0  0
   -2.2459    0.8301    1.1615 C   0  0  0  0  0  0  0  0  0  0  0  0
   -2.8247    1.5412    2.2202 C   0  0  0  0  0  0  0  0  0  0  0  0
   -3.2417    2.8647    2.0461 C   0  0  0  0  0  0  0  0  0  0  0  0
   -3.1109    3.4838    0.8030 C   0  0  0  0  0  0  0  0  0  0  0  0
   -2.5786    2.7745   -0.2715 C   0  0  0  0  0  0  0  0  0  0  0  0
   -2.1667    1.4563   -0.0918 C   0  0  0  0  0  0  0  0  0  0  0  0
   -1.7330    0.7728   -1.1627 F   0  0  0  0  0  0  0  0  0  0  0  0
    0.3334   -0.3719    0.6194 N   0  0  0  0  0  0  0  0  0  0  0  0
    1.4485   -0.9602    0.0682 C   0  0  0  0  0  0  0  0  0  0  0  0
    2.5098   -0.2582   -0.1194 N   0  0  0  0  0  0  0  0  0  0  0  0
    2.4976    1.1530    0.2703 C   0  0  0  0  0  0  0  0  0  0  0  0
    1.9649    2.0265   -0.8694 C   0  0  0  0  0  0  0  0  0  0  0  0
    1.9614    3.4193   -0.5367 O   0  0  0  0  0  0  0  0  0  0  0  0
    3.2467    4.0160   -0.6383 C   0  0  0  0  0  0  0  0  0  0  0  0
    1.5713   -2.2670   -0.3407 N   0  0  0  0  0  0  0  0  0  0  0  0
    0.5340   -3.0111   -0.1826 C   0  0  0  0  0  0  0  0  0  0  0  0
    0.3551   -4.3539   -0.5160 N   0  0  0  0  0  0  0  0  0  0  0  0
    1.4637   -5.2879   -0.4618 C   0  0  0  0  0  0  0  0  0  0  0  0
   -1.4714   -5.2910   -0.5876 H   0  0  0  0  0  0  0  0  0  0  0  0
   -2.5121   -3.6392    0.8503 H   0  0  0  0  0  0  0  0  0  0  0  0
   -2.7208   -1.1093    1.3235 H   0  0  0  0  0  0  0  0  0  0  0  0
   -2.9249    1.0761    3.1980 H   0  0  0  0  0  0  0  0  0  0  0  0
   -3.6623    3.4151    2.8844 H   0  0  0  0  0  0  0  0  0  0  0  0
   -3.4274    4.5153    0.6704 H   0  0  0  0  0  0  0  0  0  0  0  0
   -2.4847    3.2351   -1.2498 H   0  0  0  0  0  0  0  0  0  0  0  0
    1.9471    1.3444    1.1998 H   0  0  0  0  0  0  0  0  0  0  0  0
    3.5301    1.4363    0.5014 H   0  0  0  0  0  0  0  0  0  0  0  0
    2.5304    1.8600   -1.7944 H   0  0  0  0  0  0  0  0  0  0  0  0
    0.9268    1.7548   -1.0868 H   0  0  0  0  0  0  0  0  0  0  0  0
    3.1405    5.0873   -0.4463 H   0  0  0  0  0  0  0  0  0  0  0  0
    3.6564    3.8848   -1.6444 H   0  0  0  0  0  0  0  0  0  0  0  0
    3.9318    3.6032    0.1065 H   0  0  0  0  0  0  0  0  0  0  0  0
    1.1561   -6.2660   -0.8457 H   0  0  0  0  0  0  0  0  0  0  0  0
    1.8166   -5.4132    0.5671 H   0  0  0  0  0  0  0  0  0  0  0  0
    2.2965   -4.9341   -1.0780 H   0  0  0  0  0  0  0  0  0  0  0  0
  1  2  1  0
  2  3  2  0
  3  4  1  0
  4  5  1  0
  5  6  1  0
  6  7  2  0
  7  8  1  0
  8  9  2  0
  9 10  1  0
 10 11  2  0
 11 12  1  0
  4 13  2  0
 13 14  1  0
 14 15  2  3
 15 16  1  0
 16 17  1  0
 17 18  1  0
 18 19  1  0
 14 20  1  0
 20 21  2  0
 21 22  1  0
 22 23  1  0
 22  1  1  0
 21  3  1  0
 11  6  1  0
  1 24  1  0
  2 25  1  0
  5 26  1  0
  7 27  1  0
  8 28  1  0
  9 29  1  0
 10 30  1  0
 16 31  1  0
 16 32  1  0
 17 33  1  0
 17 34  1  0
 19 35  1  0
 19 36  1  0
 19 37  1  0
 23 38  1  0
 23 39  1  0
 23 40  1  0
M  END
>  <ScrubInfo>  (7) 
{"isomerGroup": 0, "isomerId": 6, "confId": 0, "nr_conformers:": 1, "nr_isomers:": 9}

$$$$
_i7
     RDKit          3D

 40 42  0  0  0  0  0  0  0  0999 V2000
   -2.0870   -3.7770   -2.0976 N   0  0  0  0  0  0  0  0  0  0  0  0
   -2.6349   -2.7029   -1.4042 C   0  0  0  0  0  0  0  0  0  0  0  0
   -1.7131   -1.8255   -0.9900 C   0  0  0  0  0  0  0  0  0  0  0  0
   -1.6702   -0.5448   -0.2832 C   0  0  0  0  0  0  0  0  0  0  0  0
   -2.7824   -0.0184    0.1370 N   0  0  0  0  0  0  0  0  0  0  0  0
   -2.7511    1.2024    0.8312 C   0  0  0  0  0  0  0  0  0  0  0  0
   -3.2340    2.3536    0.2038 C   0  0  0  0  0  0  0  0  0  0  0  0
   -3.2295    3.5822    0.8713 C   0  0  0  0  0  0  0  0  0  0  0  0
   -2.7499    3.6680    2.1791 C   0  0  0  0  0  0  0  0  0  0  0  0
   -2.2788    2.5245    2.8219 C   0  0  0  0  0  0  0  0  0  0  0  0
   -2.2882    1.3045    2.1503 C   0  0  0  0  0  0  0  0  0  0  0  0
   -1.8130    0.2198    2.7808 F   0  0  0  0  0  0  0  0  0  0  0  0
   -0.3928   -0.0487   -0.1746 N   0  0  0  0  0  0  0  0  0  0  0  0
    0.7589   -0.6384   -0.6457 C   0  0  0  0  0  0  0  0  0  0  0  0
    1.9472   -0.1543   -0.5685 N   0  0  0  0  0  0  0  0  0  0  0  0
    2.1706    1.1392    0.0768 C   0  0  0  0  0  0  0  0  0  0  0  0
    3.6738    1.3475    0.2839 C   0  0  0  0  0  0  0  0  0  0  0  0
    4.0837    0.6896    1.4874 O   0  0  0  0  0  0  0  0  0  0  0  0
    5.4952    0.7167    1.6420 C   0  0  0  0  0  0  0  0  0  0  0  0
    0.7242   -1.8637   -1.2833 N   0  0  0  0  0  0  0  0  0  0  0  0
   -0.4259   -2.4398   -1.4323 C   0  0  0  0  0  0  0  0  0  0  0  0
   -0.6992   -3.6793   -2.0166 N   0  0  0  0  0  0  0  0  0  0  0  0
    0.1135   -4.1866   -3.1047 C   0  0  0  0  0  0  0  0  0  0  0  0
   -2.4867   -4.6772   -1.8226 H   0  0  0  0  0  0  0  0  0  0  0  0
   -3.7038   -2.6513   -1.2528 H   0  0  0  0  0  0  0  0  0  0  0  0
   -3.6207    2.2894   -0.8103 H   0  0  0  0  0  0  0  0  0  0  0  0
   -3.6091    4.4706    0.3715 H   0  0  0  0  0  0  0  0  0  0  0  0
   -2.7518    4.6234    2.6987 H   0  0  0  0  0  0  0  0  0  0  0  0
   -1.9083    2.5721    3.8412 H   0  0  0  0  0  0  0  0  0  0  0  0
   -0.2850    0.8292    0.3014 H   0  0  0  0  0  0  0  0  0  0  0  0
    1.7897    1.9303   -0.5787 H   0  0  0  0  0  0  0  0  0  0  0  0
    1.6637    1.1925    1.0471 H   0  0  0  0  0  0  0  0  0  0  0  0
    3.8775    2.4181    0.3990 H   0  0  0  0  0  0  0  0  0  0  0  0
    4.2422    0.9653   -0.5722 H   0  0  0  0  0  0  0  0  0  0  0  0
    5.7482    0.2243    2.5847 H   0  0  0  0  0  0  0  0  0  0  0  0
    5.8576    1.7486    1.6781 H   0  0  0  0  0  0  0  0  0  0  0  0
    5.9807    0.1748    0.8246 H   0  0  0  0  0  0  0  0  0  0  0  0
    0.0110   -3.5554   -3.9935 H   0  0  0  0  0  0  0  0  0  0  0  0
    1.1691   -4.2178   -2.8163 H   0  0  0  0  0  0  0  0  0  0  0  0
   -0.1914   -5.2054   -3.3647 H   0  0  0  0  0  0  0  0  0  0  0  0
  1  2  1  0
  2  3  2  0
  3  4  1  0
  4  5  2  3
  5  6  1  0
  6  7  2  0
  7  8  1  0
  8  9  2  0
  9 10  1  0
 10 11  2  0
 11 12  1  0
  4 13  1  0
 13 14  1  0
 14 15  2  3
 15 16  1  0
 16 17  1  0
 17 18  1  0
 18 19  1  0
 14 20  1  0
 20 21  2  0
 21 22  1  0
 22 23  1  0
 22  1  1  0
 21  3  1  0
 11  6  1  0
  1 24  1  0
  2 25  1  0
  7 26  1  0
  8 27  1  0
  9 28  1  0
 10 29  1  0
 13 30  1  0
 16 31  1  0
 16 32  1  0
 17 33  1  0
 17 34  1  0
 19 35  1  0
 19 36  1  0
 19 37  1  0
 23 38  1  0
 23 39  1  0
 23 40  1  0
M  END
>  <ScrubInfo>  (8) 
{"isomerGroup": 0, "isomerId": 7, "confId": 0, "nr_conformers:": 1, "nr_isomers:": 9}

$$$$
_i8
     RDKit          3D

 40 42  0  0  0  0  0  0  0  0999 V2000
   -0.7820    0.1254   -2.0067 N   0  0  0  0  0  0  0  0  0  0  0  0
   -1.4523    0.3705   -0.8259 C   0  0  0  0  0  0  0  0  0  0  0  0
   -2.7043    0.6795   -0.8883 N   0  0  0  0  0  0  0  0  0  0  0  0
   -3.4093    0.9391    0.3665 C   0  0  0  0  0  0  0  0  0  0  0  0
   -4.8520    1.3488    0.0596 C   0  0  0  0  0  0  0  0  0  0  0  0
   -5.5759    1.6553    1.2535 O   0  0  0  0  0  0  0  0  0  0  0  0
   -6.1182    0.5021    1.8829 C   0  0  0  0  0  0  0  0  0  0  0  0
   -0.6526    0.2405    0.2932 N   0  0  0  0  0  0  0  0  0  0  0  0
    0.6864   -0.0745    0.4222 C   0  0  0  0  0  0  0  0  0  0  0  0
    1.2394   -0.1292    1.5968 N   0  0  0  0  0  0  0  0  0  0  0  0
    2.6028   -0.3951    1.7678 C   0  0  0  0  0  0  0  0  0  0  0  0
    3.0222   -1.6917    2.0804 C   0  0  0  0  0  0  0  0  0  0  0  0
    4.3769   -1.9676    2.2895 C   0  0  0  0  0  0  0  0  0  0  0  0
    5.3224   -0.9444    2.2032 C   0  0  0  0  0  0  0  0  0  0  0  0
    4.9138    0.3570    1.9147 C   0  0  0  0  0  0  0  0  0  0  0  0
    3.5626    0.6241    1.7075 C   0  0  0  0  0  0  0  0  0  0  0  0
    3.1899    1.8827    1.4281 F   0  0  0  0  0  0  0  0  0  0  0  0
    1.2966   -0.3209   -0.8736 C   0  0  0  0  0  0  0  0  0  0  0  0
    2.5600   -0.6886   -1.3727 C   0  0  0  0  0  0  0  0  0  0  0  0
    2.5848   -0.7893   -2.7102 N   0  0  0  0  0  0  0  0  0  0  0  0
    1.3208   -0.4861   -3.0793 N   0  0  0  0  0  0  0  0  0  0  0  0
    0.9780   -0.4835   -4.4791 C   0  0  0  0  0  0  0  0  0  0  0  0
    0.5261   -0.2067   -2.0109 C   0  0  0  0  0  0  0  0  0  0  0  0
   -1.3524    0.2235   -2.8383 H   0  0  0  0  0  0  0  0  0  0  0  0
   -3.4044    0.0438    0.9982 H   0  0  0  0  0  0  0  0  0  0  0  0
   -2.9273    1.7459    0.9323 H   0  0  0  0  0  0  0  0  0  0  0  0
   -5.3731    0.5808   -0.5249 H   0  0  0  0  0  0  0  0  0  0  0  0
   -4.8430    2.2590   -0.5509 H   0  0  0  0  0  0  0  0  0  0  0  0
   -6.8109   -0.0123    1.2100 H   0  0  0  0  0  0  0  0  0  0  0  0
   -6.6724    0.8251    2.7684 H   0  0  0  0  0  0  0  0  0  0  0  0
   -5.3262   -0.1802    2.2027 H   0  0  0  0  0  0  0  0  0  0  0  0
   -1.0841    0.4299    1.1841 H   0  0  0  0  0  0  0  0  0  0  0  0
    2.2886   -2.4895    2.1623 H   0  0  0  0  0  0  0  0  0  0  0  0
    4.6925   -2.9811    2.5261 H   0  0  0  0  0  0  0  0  0  0  0  0
    6.3754   -1.1603    2.3682 H   0  0  0  0  0  0  0  0  0  0  0  0
    5.6351    1.1655    1.8518 H   0  0  0  0  0  0  0  0  0  0  0  0
    3.4765   -0.8948   -0.8382 H   0  0  0  0  0  0  0  0  0  0  0  0
   -0.0970   -0.6381   -4.5947 H   0  0  0  0  0  0  0  0  0  0  0  0
    1.2708    0.4819   -4.8987 H   0  0  0  0  0  0  0  0  0  0  0  0
    1.5156   -1.2945   -4.9775 H   0  0  0  0  0  0  0  0  0  0  0  0
  1  2  1  0
  2  3  2  3
  3  4  1  0
  4  5  1  0
  5  6  1  0
  6  7  1  0
  2  8  1  0
  8  9  1  0
  9 10  2  3
 10 11  1  0
 11 12  2  0
 12 13  1  0
 13 14  2  0
 14 15  1  0
 15 16  2  0
 16 17  1  0
  9 18  1  0
 18 19  1  0
 19 20  2  0
 20 21  1  0
 21 22  1  0
 21 23  1  0
 23  1  1  0
 16 11  1  0
 23 18  2  0
  1 24  1  0
  4 25  1  0
  4 26  1  0
  5 27  1  0
  5 28  1  0
  7 29  1  0
  7 30  1  0
  7 31  1  0
  8 32  1  0
 12 33  1  0
 13 34  1  0
 14 35  1  0
 15 36  1  0
 19 37  1  0
 22 38  1  0
 22 39  1  0
 22 40  1  0
M  END
>  <ScrubInfo>  (9) 
{"isomerGroup": 0, "isomerId": 8, "confId": 0, "nr_conformers:": 1, "nr_isomers:": 9}

$$$$
