_i0
     RDKit          3D

 47 49  0  0  0  0  0  0  0  0999 V2000
    6.3333   -1.6929   -2.3053 C   0  0  0  0  0  0  0  0  0  0  0  0
    5.8830   -1.3638   -0.9977 O   0  0  0  0  0  0  0  0  0  0  0  0
    5.0013   -0.3231   -0.8929 C   0  0  0  0  0  0  0  0  0  0  0  0
    4.5551   -0.0641    0.4047 C   0  0  0  0  0  0  0  0  0  0  0  0
    3.6518    0.9717    0.6558 C   0  0  0  0  0  0  0  0  0  0  0  0
    3.1812    1.7717   -0.3921 C   0  0  0  0  0  0  0  0  0  0  0  0
    2.2128    2.9011   -0.1254 C   0  0  0  0  0  0  0  0  0  0  0  0
    0.9248    2.6638   -0.7707 N   0  0  0  0  0  0  0  0  0  0  0  0
    0.0174    1.8559   -0.0608 C   0  0  0  0  0  0  0  0  0  0  0  0
   -1.1887    1.5569   -0.6642 C   0  0  0  0  0  0  0  0  0  0  0  0
   -2.0743    0.7502    0.0260 C   0  0  0  0  0  0  0  0  0  0  0  0
   -3.3098    0.4308   -0.6006 N   0  0  0  0  0  0  0  0  0  0  0  0
   -4.2650   -0.4742   -0.0744 C   0  0  0  0  0  0  0  0  0  0  0  0
   -5.5146    0.0257    0.3345 C   0  0  0  0  0  0  0  0  0  0  0  0
   -6.4738   -0.8128    0.9062 C   0  0  0  0  0  0  0  0  0  0  0  0
   -6.1893   -2.1616    1.0825 C   0  0  0  0  0  0  0  0  0  0  0  0
   -7.3639   -3.1968    1.7964 Cl  0  0  0  0  0  0  0  0  0  0  0  0
   -4.9589   -2.6792    0.6843 C   0  0  0  0  0  0  0  0  0  0  0  0
   -3.9903   -1.8482    0.0917 C   0  0  0  0  0  0  0  0  0  0  0  0
   -2.6820   -2.4636   -0.3259 C   0  0  0  0  0  0  0  0  0  0  0  0
   -1.7755    0.2628    1.2381 N   0  0  0  0  0  0  0  0  0  0  0  0
   -0.5771    0.5813    1.7478 C   0  0  0  0  0  0  0  0  0  0  0  0
   -0.2388    0.0464    3.1032 C   0  0  0  0  0  0  0  0  0  0  0  0
    0.3239    1.3793    1.1518 N   0  0  0  0  0  0  0  0  0  0  0  0
    3.6282    1.5042   -1.6940 C   0  0  0  0  0  0  0  0  0  0  0  0
    4.5326    0.4653   -1.9434 C   0  0  0  0  0  0  0  0  0  0  0  0
    6.8957   -0.8647   -2.7490 H   0  0  0  0  0  0  0  0  0  0  0  0
    7.0119   -2.5472   -2.2200 H   0  0  0  0  0  0  0  0  0  0  0  0
    5.4987   -1.9939   -2.9472 H   0  0  0  0  0  0  0  0  0  0  0  0
    4.9085   -0.6796    1.2280 H   0  0  0  0  0  0  0  0  0  0  0  0
    3.3058    1.1413    1.6728 H   0  0  0  0  0  0  0  0  0  0  0  0
    2.1125    3.1156    0.9462 H   0  0  0  0  0  0  0  0  0  0  0  0
    2.6484    3.8112   -0.5584 H   0  0  0  0  0  0  0  0  0  0  0  0
    0.4655    3.5352   -1.0135 H   0  0  0  0  0  0  0  0  0  0  0  0
   -1.4166    1.9170   -1.6584 H   0  0  0  0  0  0  0  0  0  0  0  0
   -3.7492    1.2976   -0.8922 H   0  0  0  0  0  0  0  0  0  0  0  0
   -5.7452    1.0825    0.2290 H   0  0  0  0  0  0  0  0  0  0  0  0
   -7.4301   -0.4048    1.2205 H   0  0  0  0  0  0  0  0  0  0  0  0
   -4.7485   -3.7361    0.8309 H   0  0  0  0  0  0  0  0  0  0  0  0
   -2.8157   -3.5203   -0.5833 H   0  0  0  0  0  0  0  0  0  0  0  0
   -2.2766   -1.9773   -1.2186 H   0  0  0  0  0  0  0  0  0  0  0  0
   -1.9541   -2.3995    0.4879 H   0  0  0  0  0  0  0  0  0  0  0  0
   -0.7098   -0.9288    3.2606 H   0  0  0  0  0  0  0  0  0  0  0  0
   -0.5943    0.7387    3.8718 H   0  0  0  0  0  0  0  0  0  0  0  0
    0.8435   -0.0750    3.2106 H   0  0  0  0  0  0  0  0  0  0  0  0
    3.2614    2.1026   -2.5250 H   0  0  0  0  0  0  0  0  0  0  0  0
    4.8448    0.2984   -2.9683 H   0  0  0  0  0  0  0  0  0  0  0  0
  1  2  1  0
  2  3  1  0
  3  4  2  0
  4  5  1  0
  5  6  2  0
  6  7  1  0
  7  8  1  0
  8  9  1  0
  9 10  2  0
 10 11  1  0
 11 12  1  0
 12 13  1  0
 13 14  2  0
 14 15  1  0
 15 16  2  0
 16 17  1  0
 16 18  1  0
 18 19  2  0
 19 20  1  0
 11 21  2  0
 21 22  1  0
 22 23  1  0
 22 24  2  0
  6 25  1  0
 25 26  2  0
 26  3  1  0
 24  9  1  0
 19 13  1  0
  1 27  1  0
  1 28  1  0
  1 29  1  0
  4 30  1  0
  5 31  1  0
  7 32  1  0
  7 33  1  0
  8 34  1  0
 10 35  1  0
 12 36  1  0
 14 37  1  0
 15 38  1  0
 18 39  1  0
 20 40  1  0
 20 41  1  0
 20 42  1  0
 23 43  1  0
 23 44  1  0
 23 45  1  0
 25 46  1  0
 26 47  1  0
M  END
>  <ScrubInfo>  (1) 
{"isomerGroup": 0, "isomerId": 0, "confId": 0, "nr_conformers:": 1, "nr_isomers:": 5}

$$$$
_i1
     RDKit          3D

 47 49  0  0  0  0  0  0  0  0999 V2000
   -2.7838   -2.1719    1.6967 N   0  0  0  0  0  0  0  0  0  0  0  0
   -1.6142   -2.6851    2.1791 C   0  0  0  0  0  0  0  0  0  0  0  0
   -1.6871   -3.7999    3.1874 C   0  0  0  0  0  0  0  0  0  0  0  0
   -0.4454   -2.2564    1.8003 N   0  0  0  0  0  0  0  0  0  0  0  0
   -0.3944   -1.2282    0.8736 C   0  0  0  0  0  0  0  0  0  0  0  0
    0.8737   -0.7969    0.5211 N   0  0  0  0  0  0  0  0  0  0  0  0
    1.2615   -0.2942   -0.7830 C   0  0  0  0  0  0  0  0  0  0  0  0
    2.7517   -0.0550   -0.8134 C   0  0  0  0  0  0  0  0  0  0  0  0
    3.3210    0.9723   -0.0472 C   0  0  0  0  0  0  0  0  0  0  0  0
    4.7016    1.2002   -0.0649 C   0  0  0  0  0  0  0  0  0  0  0  0
    5.5331    0.4008   -0.8484 C   0  0  0  0  0  0  0  0  0  0  0  0
    6.8917    0.5151   -0.9572 O   0  0  0  0  0  0  0  0  0  0  0  0
    7.5129    1.5376   -0.1888 C   0  0  0  0  0  0  0  0  0  0  0  0
    4.9710   -0.6272   -1.6087 C   0  0  0  0  0  0  0  0  0  0  0  0
    3.5929   -0.8581   -1.5921 C   0  0  0  0  0  0  0  0  0  0  0  0
   -1.4978   -0.6546    0.3429 C   0  0  0  0  0  0  0  0  0  0  0  0
   -2.8288   -1.1623    0.7812 C   0  0  0  0  0  0  0  0  0  0  0  0
   -3.9949   -0.7409    0.3818 N   0  0  0  0  0  0  0  0  0  0  0  0
   -4.0838    0.2933   -0.5605 C   0  0  0  0  0  0  0  0  0  0  0  0
   -4.1231   -0.0312   -1.9227 C   0  0  0  0  0  0  0  0  0  0  0  0
   -4.2175    0.9689   -2.8914 C   0  0  0  0  0  0  0  0  0  0  0  0
   -4.2838    2.3017   -2.4971 C   0  0  0  0  0  0  0  0  0  0  0  0
   -4.3917    3.5396   -3.6872 Cl  0  0  0  0  0  0  0  0  0  0  0  0
   -4.2666    2.6410   -1.1443 C   0  0  0  0  0  0  0  0  0  0  0  0
   -4.1816    1.6396   -0.1631 C   0  0  0  0  0  0  0  0  0  0  0  0
   -4.1678    2.0177    1.2912 C   0  0  0  0  0  0  0  0  0  0  0  0
   -3.6751   -2.5258    2.0114 H   0  0  0  0  0  0  0  0  0  0  0  0
   -0.6868   -4.0799    3.5285 H   0  0  0  0  0  0  0  0  0  0  0  0
   -2.1668   -4.6698    2.7300 H   0  0  0  0  0  0  0  0  0  0  0  0
   -2.2812   -3.4757    4.0465 H   0  0  0  0  0  0  0  0  0  0  0  0
    1.5477   -1.4523    0.9140 H   0  0  0  0  0  0  0  0  0  0  0  0
    0.9774   -1.0123   -1.5617 H   0  0  0  0  0  0  0  0  0  0  0  0
    0.7514    0.6502   -1.0072 H   0  0  0  0  0  0  0  0  0  0  0  0
    2.6846    1.5960    0.5784 H   0  0  0  0  0  0  0  0  0  0  0  0
    5.0916    2.0062    0.5472 H   0  0  0  0  0  0  0  0  0  0  0  0
    7.3599    1.3745    0.8832 H   0  0  0  0  0  0  0  0  0  0  0  0
    8.5891    1.4934   -0.3816 H   0  0  0  0  0  0  0  0  0  0  0  0
    7.1609    2.5289   -0.4929 H   0  0  0  0  0  0  0  0  0  0  0  0
    5.6146   -1.2570   -2.2183 H   0  0  0  0  0  0  0  0  0  0  0  0
    3.1863   -1.6706   -2.1897 H   0  0  0  0  0  0  0  0  0  0  0  0
   -1.4527    0.1598   -0.3619 H   0  0  0  0  0  0  0  0  0  0  0  0
   -4.0797   -1.0742   -2.2259 H   0  0  0  0  0  0  0  0  0  0  0  0
   -4.2425    0.7008   -3.9439 H   0  0  0  0  0  0  0  0  0  0  0  0
   -4.3267    3.6868   -0.8521 H   0  0  0  0  0  0  0  0  0  0  0  0
   -4.4392    3.0693    1.4325 H   0  0  0  0  0  0  0  0  0  0  0  0
   -3.1686    1.8667    1.7113 H   0  0  0  0  0  0  0  0  0  0  0  0
   -4.8927    1.4191    1.8524 H   0  0  0  0  0  0  0  0  0  0  0  0
  1  2  1  0
  2  3  1  0
  2  4  2  0
  4  5  1  0
  5  6  1  0
  6  7  1  0
  7  8  1  0
  8  9  2  0
  9 10  1  0
 10 11  2  0
 11 12  1  0
 12 13  1  0
 11 14  1  0
 14 15  2  0
  5 16  2  0
 16 17  1  0
 17 18  2  3
 18 19  1  0
 19 20  2  0
 20 21  1  0
 21 22  2  0
 22 23  1  0
 22 24  1  0
 24 25  2  0
 25 26  1  0
 17  1  1  0
 25 19  1  0
 15  8  1  0
  1 27  1  0
  3 28  1  0
  3 29  1  0
  3 30  1  0
  6 31  1  0
  7 32  1  0
  7 33  1  0
  9 34  1  0
 10 35  1  0
 13 36  1  0
 13 37  1  0
 13 38  1  0
 14 39  1  0
 15 40  1  0
 16 41  1  0
 20 42  1  0
 21 43  1  0
 24 44  1  0
 26 45  1  0
 26 46  1  0
 26 47  1  0
M  END
>  <ScrubInfo>  (2) 
{"isomerGroup": 0, "isomerId": 1, "confId": 0, "nr_conformers:": 1, "nr_isomers:": 5}

$$$$
_i2
     RDKit          3D

 47 49  0  0  0  0  0  0  0  0999 V2000
    0.4336   -0.0577   -1.2015 N   0  0  0  0  0  0  0  0  0  0  0  0
   -0.5531   -0.8856   -0.7414 C   0  0  0  0  0  0  0  0  0  0  0  0
   -0.2557   -2.3579   -0.6406 C   0  0  0  0  0  0  0  0  0  0  0  0
   -1.7277   -0.4612   -0.3842 N   0  0  0  0  0  0  0  0  0  0  0  0
   -1.9934    0.9015   -0.4530 C   0  0  0  0  0  0  0  0  0  0  0  0
   -3.2431    1.4180   -0.0877 N   0  0  0  0  0  0  0  0  0  0  0  0
   -4.3907    0.6190    0.1195 C   0  0  0  0  0  0  0  0  0  0  0  0
   -5.4098    0.6482   -0.8492 C   0  0  0  0  0  0  0  0  0  0  0  0
   -6.5389   -0.1648   -0.7327 C   0  0  0  0  0  0  0  0  0  0  0  0
   -6.6544   -1.0266    0.3515 C   0  0  0  0  0  0  0  0  0  0  0  0
   -8.0380   -2.0397    0.4946 Cl  0  0  0  0  0  0  0  0  0  0  0  0
   -5.6554   -1.0759    1.3212 C   0  0  0  0  0  0  0  0  0  0  0  0
   -4.5209   -0.2496    1.2228 C   0  0  0  0  0  0  0  0  0  0  0  0
   -3.4766   -0.3410    2.3021 C   0  0  0  0  0  0  0  0  0  0  0  0
   -1.0659    1.7922   -0.8773 C   0  0  0  0  0  0  0  0  0  0  0  0
    0.2719    1.2957   -1.2887 C   0  0  0  0  0  0  0  0  0  0  0  0
    1.1252    2.1823   -1.6774 N   0  0  0  0  0  0  0  0  0  0  0  0
    2.4487    1.7637   -2.1447 C   0  0  0  0  0  0  0  0  0  0  0  0
    3.3503    1.1740   -1.0841 C   0  0  0  0  0  0  0  0  0  0  0  0
    4.2446    0.1457   -1.4132 C   0  0  0  0  0  0  0  0  0  0  0  0
    5.0917   -0.4049   -0.4440 C   0  0  0  0  0  0  0  0  0  0  0  0
    5.0639    0.0732    0.8656 C   0  0  0  0  0  0  0  0  0  0  0  0
    5.8320   -0.3759    1.9037 O   0  0  0  0  0  0  0  0  0  0  0  0
    6.7681   -1.4061    1.6142 C   0  0  0  0  0  0  0  0  0  0  0  0
    4.1878    1.1096    1.1929 C   0  0  0  0  0  0  0  0  0  0  0  0
    3.3439    1.6628    0.2271 C   0  0  0  0  0  0  0  0  0  0  0  0
    1.3494   -0.4448   -1.3698 H   0  0  0  0  0  0  0  0  0  0  0  0
   -1.1354   -2.9082   -0.2956 H   0  0  0  0  0  0  0  0  0  0  0  0
    0.0425   -2.7367   -1.6223 H   0  0  0  0  0  0  0  0  0  0  0  0
    0.5645   -2.5134    0.0659 H   0  0  0  0  0  0  0  0  0  0  0  0
   -3.4542    2.2823   -0.5741 H   0  0  0  0  0  0  0  0  0  0  0  0
   -5.3173    1.2946   -1.7182 H   0  0  0  0  0  0  0  0  0  0  0  0
   -7.3113   -0.1292   -1.4952 H   0  0  0  0  0  0  0  0  0  0  0  0
   -5.7557   -1.7580    2.1621 H   0  0  0  0  0  0  0  0  0  0  0  0
   -2.7638   -1.1389    2.0750 H   0  0  0  0  0  0  0  0  0  0  0  0
   -2.9373    0.6030    2.4265 H   0  0  0  0  0  0  0  0  0  0  0  0
   -3.9429   -0.5606    3.2691 H   0  0  0  0  0  0  0  0  0  0  0  0
   -1.2363    2.8583   -0.9302 H   0  0  0  0  0  0  0  0  0  0  0  0
    2.9551    2.6443   -2.5578 H   0  0  0  0  0  0  0  0  0  0  0  0
    2.3306    1.0617   -2.9803 H   0  0  0  0  0  0  0  0  0  0  0  0
    4.2958   -0.2334   -2.4320 H   0  0  0  0  0  0  0  0  0  0  0  0
    5.7648   -1.2000   -0.7467 H   0  0  0  0  0  0  0  0  0  0  0  0
    7.3052   -1.6393    2.5386 H   0  0  0  0  0  0  0  0  0  0  0  0
    7.5052   -1.0741    0.8755 H   0  0  0  0  0  0  0  0  0  0  0  0
    6.2607   -2.3187    1.2847 H   0  0  0  0  0  0  0  0  0  0  0  0
    4.1650    1.4954    2.2094 H   0  0  0  0  0  0  0  0  0  0  0  0
    2.6770    2.4768    0.5057 H   0  0  0  0  0  0  0  0  0  0  0  0
  1  2  1  0
  2  3  1  0
  2  4  2  0
  4  5  1  0
  5  6  1  0
  6  7  1  0
  7  8  2  0
  8  9  1  0
  9 10  2  0
 10 11  1  0
 10 12  1  0
 12 13  2  0
 13 14  1  0
  5 15  2  0
 15 16  1  0
 16 17  2  3
 17 18  1  0
 18 19  1  0
 19 20  2  0
 20 21  1  0
 21 22  2  0
 22 23  1  0
 23 24  1  0
 22 25  1  0
 25 26  2  0
 16  1  1  0
 26 19  1  0
 13  7  1  0
  1 27  1  0
  3 28  1  0
  3 29  1  0
  3 30  1  0
  6 31  1  0
  8 32  1  0
  9 33  1  0
 12 34  1  0
 14 35  1  0
 14 36  1  0
 14 37  1  0
 15 38  1  0
 18 39  1  0
 18 40  1  0
 20 41  1  0
 21 42  1  0
 24 43  1  0
 24 44  1  0
 24 45  1  0
 25 46  1  0
 26 47  1  0
M  END
>  <ScrubInfo>  (3) 
{"isomerGroup": 0, "isomerId": 2, "confId": 0, "nr_conformers:": 1, "nr_isomers:": 5}

$$$$
_i3
     RDKit          3D

 47 49  0  0  0  0  0  0  0  0999 V2000
   -2.3486    0.8650   -0.7843 N   0  0  0  0  0  0  0  0  0  0  0  0
   -1.9949   -0.0894    0.1346 C   0  0  0  0  0  0  0  0  0  0  0  0
   -2.9254   -0.8516    0.8350 N   0  0  0  0  0  0  0  0  0  0  0  0
   -4.3092   -0.5706    0.8672 C   0  0  0  0  0  0  0  0  0  0  0  0
   -4.8358    0.1227    1.9687 C   0  0  0  0  0  0  0  0  0  0  0  0
   -6.1829    0.4871    2.0071 C   0  0  0  0  0  0  0  0  0  0  0  0
   -7.0121    0.1695    0.9370 C   0  0  0  0  0  0  0  0  0  0  0  0
   -8.6695    0.6279    0.9745 Cl  0  0  0  0  0  0  0  0  0  0  0  0
   -6.5070   -0.5140   -0.1680 C   0  0  0  0  0  0  0  0  0  0  0  0
   -5.1561   -0.8998   -0.2114 C   0  0  0  0  0  0  0  0  0  0  0  0
   -4.6528   -1.6463   -1.4178 C   0  0  0  0  0  0  0  0  0  0  0  0
   -0.6774   -0.2650    0.3482 C   0  0  0  0  0  0  0  0  0  0  0  0
    0.3223    0.5540   -0.4025 C   0  0  0  0  0  0  0  0  0  0  0  0
    1.5999    0.4856   -0.3217 N   0  0  0  0  0  0  0  0  0  0  0  0
    2.2215   -0.4831    0.5737 C   0  0  0  0  0  0  0  0  0  0  0  0
    3.7347   -0.4448    0.5379 C   0  0  0  0  0  0  0  0  0  0  0  0
    4.4682   -0.9706    1.6098 C   0  0  0  0  0  0  0  0  0  0  0  0
    5.8656   -0.9772    1.5788 C   0  0  0  0  0  0  0  0  0  0  0  0
    6.5572   -0.4684    0.4781 C   0  0  0  0  0  0  0  0  0  0  0  0
    7.9201   -0.5350    0.5770 O   0  0  0  0  0  0  0  0  0  0  0  0
    8.6658   -0.0006   -0.5093 C   0  0  0  0  0  0  0  0  0  0  0  0
    5.8357    0.0449   -0.5984 C   0  0  0  0  0  0  0  0  0  0  0  0
    4.4358    0.0509   -0.5693 C   0  0  0  0  0  0  0  0  0  0  0  0
   -0.1480    1.4989   -1.2836 N   0  0  0  0  0  0  0  0  0  0  0  0
   -1.4259    1.6218   -1.4469 C   0  0  0  0  0  0  0  0  0  0  0  0
   -1.9313    2.6636   -2.4105 C   0  0  0  0  0  0  0  0  0  0  0  0
   -3.3387    1.0227   -0.9130 H   0  0  0  0  0  0  0  0  0  0  0  0
   -2.5719   -1.1545    1.7397 H   0  0  0  0  0  0  0  0  0  0  0  0
   -4.1921    0.4004    2.8002 H   0  0  0  0  0  0  0  0  0  0  0  0
   -6.5731    1.0248    2.8671 H   0  0  0  0  0  0  0  0  0  0  0  0
   -7.1694   -0.7563   -0.9964 H   0  0  0  0  0  0  0  0  0  0  0  0
   -3.9121   -2.4015   -1.1360 H   0  0  0  0  0  0  0  0  0  0  0  0
   -4.2077   -0.9514   -2.1358 H   0  0  0  0  0  0  0  0  0  0  0  0
   -5.4699   -2.1790   -1.9165 H   0  0  0  0  0  0  0  0  0  0  0  0
   -0.3083   -1.0002    1.0466 H   0  0  0  0  0  0  0  0  0  0  0  0
    1.9032   -0.2803    1.6041 H   0  0  0  0  0  0  0  0  0  0  0  0
    1.9179   -1.5015    0.3010 H   0  0  0  0  0  0  0  0  0  0  0  0
    3.9583   -1.3779    2.4791 H   0  0  0  0  0  0  0  0  0  0  0  0
    6.4208   -1.3832    2.4206 H   0  0  0  0  0  0  0  0  0  0  0  0
    9.7282   -0.1150   -0.2734 H   0  0  0  0  0  0  0  0  0  0  0  0
    8.4691   -0.5544   -1.4333 H   0  0  0  0  0  0  0  0  0  0  0  0
    8.4670    1.0686   -0.6379 H   0  0  0  0  0  0  0  0  0  0  0  0
    6.3242    0.4486   -1.4783 H   0  0  0  0  0  0  0  0  0  0  0  0
    3.8901    0.4550   -1.4207 H   0  0  0  0  0  0  0  0  0  0  0  0
   -2.4697    3.4366   -1.8549 H   0  0  0  0  0  0  0  0  0  0  0  0
   -1.1017    3.1244   -2.9537 H   0  0  0  0  0  0  0  0  0  0  0  0
   -2.6143    2.1984   -3.1269 H   0  0  0  0  0  0  0  0  0  0  0  0
  1  2  1  0
  2  3  1  0
  3  4  1  0
  4  5  2  0
  5  6  1  0
  6  7  2  0
  7  8  1  0
  7  9  1  0
  9 10  2  0
 10 11  1  0
  2 12  2  0
 12 13  1  0
 13 14  2  3
 14 15  1  0
 15 16  1  0
 16 17  2  0
 17 18  1  0
 18 19  2  0
 19 20  1  0
 20 21  1  0
 19 22  1  0
 22 23  2  0
 13 24  1  0
 24 25  2  0
 25 26  1  0
 25  1  1  0
 10  4  1  0
 23 16  1  0
  1 27  1  0
  3 28  1  0
  5 29  1  0
  6 30  1  0
  9 31  1  0
 11 32  1  0
 11 33  1  0
 11 34  1  0
 12 35  1  0
 15 36  1  0
 15 37  1  0
 17 38  1  0
 18 39  1  0
 21 40  1  0
 21 41  1  0
 21 42  1  0
 22 43  1  0
 23 44  1  0
 26 45  1  0
 26 46  1  0
 26 47  1  0
M  END
>  <ScrubInfo>  (4) 
{"isomerGroup": 0, "isomerId": 3, "confId": 0, "nr_conformers:": 1, "nr_isomers:": 5}

$$$$
_i4
     RDKit          3D

 47 49  0  0  0  0  0  0  0  0999 V2000
   -0.4892   -1.5915   -0.5513 N   0  0  0  0  0  0  0  0  0  0  0  0
    0.0542   -0.4273   -0.0781 C   0  0  0  0  0  0  0  0  0  0  0  0
    1.4161   -0.1982   -0.0686 N   0  0  0  0  0  0  0  0  0  0  0  0
    2.3837   -0.8192   -0.9546 C   0  0  0  0  0  0  0  0  0  0  0  0
    3.7624   -0.2892   -0.6488 C   0  0  0  0  0  0  0  0  0  0  0  0
    4.4203   -0.6618    0.5323 C   0  0  0  0  0  0  0  0  0  0  0  0
    5.6941   -0.1650    0.8310 C   0  0  0  0  0  0  0  0  0  0  0  0
    6.3258    0.7153   -0.0466 C   0  0  0  0  0  0  0  0  0  0  0  0
    7.5630    1.2726    0.1227 O   0  0  0  0  0  0  0  0  0  0  0  0
    8.2672    0.9263    1.3086 C   0  0  0  0  0  0  0  0  0  0  0  0
    5.6709    1.0944   -1.2205 C   0  0  0  0  0  0  0  0  0  0  0  0
    4.3986    0.6012   -1.5213 C   0  0  0  0  0  0  0  0  0  0  0  0
   -0.8006    0.4934    0.3991 C   0  0  0  0  0  0  0  0  0  0  0  0
   -2.2635    0.2307    0.3776 C   0  0  0  0  0  0  0  0  0  0  0  0
   -3.0735    1.1601    0.7877 N   0  0  0  0  0  0  0  0  0  0  0  0
   -4.4546    0.9085    0.7699 C   0  0  0  0  0  0  0  0  0  0  0  0
   -5.0549    0.3146    1.8880 C   0  0  0  0  0  0  0  0  0  0  0  0
   -6.4288    0.0711    1.9163 C   0  0  0  0  0  0  0  0  0  0  0  0
   -7.2113    0.4325    0.8241 C   0  0  0  0  0  0  0  0  0  0  0  0
   -8.9056    0.1303    0.8504 Cl  0  0  0  0  0  0  0  0  0  0  0  0
   -6.6341    1.0413   -0.2902 C   0  0  0  0  0  0  0  0  0  0  0  0
   -5.2532    1.2959   -0.3223 C   0  0  0  0  0  0  0  0  0  0  0  0
   -4.6392    1.9482   -1.5279 C   0  0  0  0  0  0  0  0  0  0  0  0
   -2.7108   -0.9921   -0.0699 N   0  0  0  0  0  0  0  0  0  0  0  0
   -1.8345   -1.8398   -0.5063 C   0  0  0  0  0  0  0  0  0  0  0  0
   -2.3167   -3.1878   -0.9761 C   0  0  0  0  0  0  0  0  0  0  0  0
    0.1559   -2.3322   -0.7793 H   0  0  0  0  0  0  0  0  0  0  0  0
    1.6650    0.7581    0.1800 H   0  0  0  0  0  0  0  0  0  0  0  0
    2.3855   -1.9084   -0.8277 H   0  0  0  0  0  0  0  0  0  0  0  0
    2.1200   -0.6140   -1.9990 H   0  0  0  0  0  0  0  0  0  0  0  0
    3.9354   -1.3389    1.2336 H   0  0  0  0  0  0  0  0  0  0  0  0
    6.1604   -0.4831    1.7573 H   0  0  0  0  0  0  0  0  0  0  0  0
    8.4763   -0.1480    1.3441 H   0  0  0  0  0  0  0  0  0  0  0  0
    7.7232    1.2536    2.2008 H   0  0  0  0  0  0  0  0  0  0  0  0
    9.2270    1.4516    1.2928 H   0  0  0  0  0  0  0  0  0  0  0  0
    6.1570    1.7841   -1.9067 H   0  0  0  0  0  0  0  0  0  0  0  0
    3.9127    0.9211   -2.4403 H   0  0  0  0  0  0  0  0  0  0  0  0
   -0.4904    1.4461    0.8046 H   0  0  0  0  0  0  0  0  0  0  0  0
   -4.4380    0.0350    2.7374 H   0  0  0  0  0  0  0  0  0  0  0  0
   -6.8751   -0.3983    2.7877 H   0  0  0  0  0  0  0  0  0  0  0  0
   -7.2591    1.3208   -1.1344 H   0  0  0  0  0  0  0  0  0  0  0  0
   -4.0279    2.8068   -1.2317 H   0  0  0  0  0  0  0  0  0  0  0  0
   -5.4064    2.3186   -2.2161 H   0  0  0  0  0  0  0  0  0  0  0  0
   -4.0179    1.2293   -2.0713 H   0  0  0  0  0  0  0  0  0  0  0  0
   -1.8884   -3.4100   -1.9576 H   0  0  0  0  0  0  0  0  0  0  0  0
   -3.4076   -3.2045   -1.0495 H   0  0  0  0  0  0  0  0  0  0  0  0
   -1.9935   -3.9524   -0.2642 H   0  0  0  0  0  0  0  0  0  0  0  0
  1  2  1  0
  2  3  1  0
  3  4  1  0
  4  5  1  0
  5  6  2  0
  6  7  1  0
  7  8  2  0
  8  9  1  0
  9 10  1  0
  8 11  1  0
 11 12  2  0
  2 13  2  0
 13 14  1  0
 14 15  2  3
 15 16  1  0
 16 17  2  0
 17 18  1  0
 18 19  2  0
 19 20  1  0
 19 21  1  0
 21 22  2  0
 22 23  1  0
 14 24  1  0
 24 25  2  0
 25 26  1  0
 25  1  1  0
 12  5  1  0
 22 16  1  0
  1 27  1  0
  3 28  1  0
  4 29  1  0
  4 30  1  0
  6 31  1  0
  7 32  1  0
 10 33  1  0
 10 34  1  0
 10 35  1  0
 11 36  1  0
 12 37  1  0
 13 38  1  0
 17 39  1  0
 18 40  1  0
 21 41  1  0
 23 42  1  0
 23 43  1  0
 23 44  1  0
 26 45  1  0
 26 46  1  0
 26 47  1  0
M  END
>  <ScrubInfo>  (5) 
{"isomerGroup": 0, "isomerId": 4, "confId": 0, "nr_conformers:": 1, "nr_isomers:": 5}

$$$$
