REMARK SMILES COc1ccc(CNc2cc(Nc3ccc(C)cc3C)nc(C)n2)cc1
REMARK SMILES IDX 8 1 7 3 6 4 3 5 4 6 26 7 5 8 25 9 2 10 1 11 9 12 10 13 24 14
REMARK SMILES IDX 11 15 22 16 21 17 23 18 12 19 13 21 14 22 19 23 15 24 18 25
REMARK SMILES IDX 16 26 20 27 17 28
REMARK H PARENT 8 2 12 20
ROOT
ATOM      1  N   UNL     1       2.056  -0.043  -0.223  1.00  0.00    -0.366 N 
ATOM      2  H   UNL     1       2.186  -1.029  -0.016  1.00  0.00     0.162 HD
ENDROOT
BRANCH   1   3
ATOM      3  C   UNL     1       3.046   0.432  -1.181  1.00  0.00     0.150 C 
BRANCH   3   4
ATOM      4  C   UNL     1       4.422   0.035  -0.695  1.00  0.00    -0.029 A 
ATOM      5  C   UNL     1       6.973  -0.708   0.243  1.00  0.00     0.118 A 
ATOM      6  C   UNL     1       6.415  -1.337  -0.873  1.00  0.00     0.047 A 
ATOM      7  C   UNL     1       6.251   0.291   0.894  1.00  0.00     0.047 A 
ATOM      8  C   UNL     1       5.150  -0.972  -1.340  1.00  0.00     0.009 A 
ATOM      9  C   UNL     1       4.983   0.658   0.428  1.00  0.00     0.009 A 
BRANCH   5  10
ATOM     10  O   UNL     1       8.215  -1.162   0.593  1.00  0.00    -0.497 OA
ATOM     11  C   UNL     1       8.833  -0.542   1.713  1.00  0.00     0.278 C 
ENDBRANCH   5  10
ENDBRANCH   3   4
ENDBRANCH   1   3
BRANCH   1  12
ATOM     12  C   UNL     1       0.722   0.202  -0.590  1.00  0.00     0.132 A 
ATOM     13  C   UNL     1      -0.279  -0.265   0.240  1.00  0.00     0.093 A 
ATOM     14  N   UNL     1       0.441   0.919  -1.685  1.00  0.00    -0.216 NA
ATOM     15  C   UNL     1      -1.591   0.008  -0.105  1.00  0.00     0.136 A 
ATOM     16  C   UNL     1      -0.856   1.143  -1.955  1.00  0.00     0.130 A 
ATOM     17  N   UNL     1      -1.882   0.717  -1.204  1.00  0.00    -0.216 NA
ATOM     18  C   UNL     1      -1.179   1.971  -3.159  1.00  0.00     0.090 C 
BRANCH  15  19
ATOM     19  N   UNL     1      -2.608  -0.477   0.756  1.00  0.00    -0.340 N 
ATOM     20  H   UNL     1      -2.437  -1.456   0.948  1.00  0.00     0.168 HD
BRANCH  19  21
ATOM     21  C   UNL     1      -3.992  -0.172   0.764  1.00  0.00     0.043 A 
ATOM     22  C   UNL     1      -4.472   1.062   0.303  1.00  0.00     0.026 A 
ATOM     23  C   UNL     1      -4.917  -1.059   1.362  1.00  0.00    -0.027 A 
ATOM     24  C   UNL     1      -5.830   1.391   0.360  1.00  0.00     0.005 A 
ATOM     25  C   UNL     1      -6.284  -0.720   1.411  1.00  0.00     0.009 A 
ATOM     26  C   UNL     1      -6.751   0.493   0.896  1.00  0.00    -0.051 A 
ATOM     27  C   UNL     1      -4.490  -2.378   1.949  1.00  0.00     0.046 C 
ATOM     28  C   UNL     1      -8.203   0.853   0.988  1.00  0.00     0.044 C 
ENDBRANCH  19  21
ENDBRANCH  15  19
ENDBRANCH   1  12
TORSDOF 6
