_i0
     RDKit          3D

 50 52  0  0  0  0  0  0  0  0999 V2000
    8.8329   -0.5417    1.7132 C   0  0  0  0  0  0  0  0  0  0  0  0
    8.2153   -1.1621    0.5927 O   0  0  0  0  0  0  0  0  0  0  0  0
    6.9732   -0.7084    0.2434 C   0  0  0  0  0  0  0  0  0  0  0  0
    6.4150   -1.3365   -0.8725 C   0  0  0  0  0  0  0  0  0  0  0  0
    5.1496   -0.9723   -1.3400 C   0  0  0  0  0  0  0  0  0  0  0  0
    4.4220    0.0350   -0.6954 C   0  0  0  0  0  0  0  0  0  0  0  0
    3.0459    0.4319   -1.1814 C   0  0  0  0  0  0  0  0  0  0  0  0
    2.0557   -0.0432   -0.2228 N   0  0  0  0  0  0  0  0  0  0  0  0
    0.7219    0.2024   -0.5897 C   0  0  0  0  0  0  0  0  0  0  0  0
   -0.2788   -0.2646    0.2400 C   0  0  0  0  0  0  0  0  0  0  0  0
   -1.5909    0.0080   -0.1051 C   0  0  0  0  0  0  0  0  0  0  0  0
   -2.6084   -0.4770    0.7563 N   0  0  0  0  0  0  0  0  0  0  0  0
   -3.9923   -0.1724    0.7638 C   0  0  0  0  0  0  0  0  0  0  0  0
   -4.4722    1.0625    0.3028 C   0  0  0  0  0  0  0  0  0  0  0  0
   -5.8300    1.3910    0.3596 C   0  0  0  0  0  0  0  0  0  0  0  0
   -6.7510    0.4933    0.8962 C   0  0  0  0  0  0  0  0  0  0  0  0
   -8.2034    0.8534    0.9879 C   0  0  0  0  0  0  0  0  0  0  0  0
   -6.2842   -0.7201    1.4107 C   0  0  0  0  0  0  0  0  0  0  0  0
   -4.9174   -1.0591    1.3621 C   0  0  0  0  0  0  0  0  0  0  0  0
   -4.4905   -2.3785    1.9486 C   0  0  0  0  0  0  0  0  0  0  0  0
   -1.8821    0.7171   -1.2043 N   0  0  0  0  0  0  0  0  0  0  0  0
   -0.8555    1.1435   -1.9553 C   0  0  0  0  0  0  0  0  0  0  0  0
   -1.1786    1.9709   -3.1592 C   0  0  0  0  0  0  0  0  0  0  0  0
    0.4409    0.9193   -1.6848 N   0  0  0  0  0  0  0  0  0  0  0  0
    4.9834    0.6585    0.4281 C   0  0  0  0  0  0  0  0  0  0  0  0
    6.2508    0.2912    0.8940 C   0  0  0  0  0  0  0  0  0  0  0  0
    9.8136   -1.0064    1.8540 H   0  0  0  0  0  0  0  0  0  0  0  0
    8.2518   -0.7079    2.6263 H   0  0  0  0  0  0  0  0  0  0  0  0
    8.9935    0.5268    1.5348 H   0  0  0  0  0  0  0  0  0  0  0  0
    6.9728   -2.1180   -1.3830 H   0  0  0  0  0  0  0  0  0  0  0  0
    4.7410   -1.4805   -2.2103 H   0  0  0  0  0  0  0  0  0  0  0  0
    3.0109    1.5245   -1.2794 H   0  0  0  0  0  0  0  0  0  0  0  0
    2.8703   -0.0008   -2.1748 H   0  0  0  0  0  0  0  0  0  0  0  0
    2.1863   -1.0288   -0.0164 H   0  0  0  0  0  0  0  0  0  0  0  0
   -0.0397   -0.8049    1.1464 H   0  0  0  0  0  0  0  0  0  0  0  0
   -2.4366   -1.4558    0.9478 H   0  0  0  0  0  0  0  0  0  0  0  0
   -3.7865    1.8014   -0.1029 H   0  0  0  0  0  0  0  0  0  0  0  0
   -6.1545    2.3585   -0.0156 H   0  0  0  0  0  0  0  0  0  0  0  0
   -8.8323   -0.0401    0.9148 H   0  0  0  0  0  0  0  0  0  0  0  0
   -8.4931    1.5215    0.1699 H   0  0  0  0  0  0  0  0  0  0  0  0
   -8.4061    1.3524    1.9405 H   0  0  0  0  0  0  0  0  0  0  0  0
   -6.9943   -1.4108    1.8622 H   0  0  0  0  0  0  0  0  0  0  0  0
   -4.0905   -3.0292    1.1644 H   0  0  0  0  0  0  0  0  0  0  0  0
   -3.7311   -2.2241    2.7219 H   0  0  0  0  0  0  0  0  0  0  0  0
   -5.3292   -2.9038    2.4180 H   0  0  0  0  0  0  0  0  0  0  0  0
   -1.2215    3.0274   -2.8792 H   0  0  0  0  0  0  0  0  0  0  0  0
   -2.1453    1.6777   -3.5801 H   0  0  0  0  0  0  0  0  0  0  0  0
   -0.4152    1.8412   -3.9324 H   0  0  0  0  0  0  0  0  0  0  0  0
    4.4251    1.4335    0.9507 H   0  0  0  0  0  0  0  0  0  0  0  0
    6.6394    0.8039    1.7673 H   0  0  0  0  0  0  0  0  0  0  0  0
  1  2  1  0
  2  3  1  0
  3  4  2  0
  4  5  1  0
  5  6  2  0
  6  7  1  0
  7  8  1  0
  8  9  1  0
  9 10  2  0
 10 11  1  0
 11 12  1  0
 12 13  1  0
 13 14  2  0
 14 15  1  0
 15 16  2  0
 16 17  1  0
 16 18  1  0
 18 19  2  0
 19 20  1  0
 11 21  2  0
 21 22  1  0
 22 23  1  0
 22 24  2  0
  6 25  1  0
 25 26  2  0
 26  3  1  0
 24  9  1  0
 19 13  1  0
  1 27  1  0
  1 28  1  0
  1 29  1  0
  4 30  1  0
  5 31  1  0
  7 32  1  0
  7 33  1  0
  8 34  1  0
 10 35  1  0
 12 36  1  0
 14 37  1  0
 15 38  1  0
 17 39  1  0
 17 40  1  0
 17 41  1  0
 18 42  1  0
 20 43  1  0
 20 44  1  0
 20 45  1  0
 23 46  1  0
 23 47  1  0
 23 48  1  0
 25 49  1  0
 26 50  1  0
M  END
>  <ScrubInfo>  (1) 
{"isomerGroup": 0, "isomerId": 0, "confId": 0, "nr_conformers:": 1, "nr_isomers:": 5}

$$$$
_i1
     RDKit          3D

 50 52  0  0  0  0  0  0  0  0999 V2000
   -2.1169   -0.8234    0.0886 N   0  0  0  0  0  0  0  0  0  0  0  0
   -1.3173   -1.9034   -0.1629 C   0  0  0  0  0  0  0  0  0  0  0  0
   -1.9765   -3.2377   -0.3885 C   0  0  0  0  0  0  0  0  0  0  0  0
   -0.0191   -1.8300   -0.2114 N   0  0  0  0  0  0  0  0  0  0  0  0
    0.5748   -0.5950   -0.0063 C   0  0  0  0  0  0  0  0  0  0  0  0
    1.9572   -0.5695   -0.0848 N   0  0  0  0  0  0  0  0  0  0  0  0
    2.8279    0.3152    0.6650 C   0  0  0  0  0  0  0  0  0  0  0  0
    4.2697   -0.0473    0.4013 C   0  0  0  0  0  0  0  0  0  0  0  0
    4.8356    0.1694   -0.8634 C   0  0  0  0  0  0  0  0  0  0  0  0
    6.1695   -0.1667   -1.1200 C   0  0  0  0  0  0  0  0  0  0  0  0
    6.9561   -0.7272   -0.1144 C   0  0  0  0  0  0  0  0  0  0  0  0
    8.2671   -1.0998   -0.2302 O   0  0  0  0  0  0  0  0  0  0  0  0
    8.8786   -0.9067   -1.4994 C   0  0  0  0  0  0  0  0  0  0  0  0
    6.3951   -0.9500    1.1452 C   0  0  0  0  0  0  0  0  0  0  0  0
    5.0629   -0.6167    1.4041 C   0  0  0  0  0  0  0  0  0  0  0  0
   -0.1316    0.5293    0.2436 C   0  0  0  0  0  0  0  0  0  0  0  0
   -1.6111    0.4295    0.3033 C   0  0  0  0  0  0  0  0  0  0  0  0
   -2.2775    1.5209    0.5481 N   0  0  0  0  0  0  0  0  0  0  0  0
   -3.6782    1.4549    0.6085 C   0  0  0  0  0  0  0  0  0  0  0  0
   -4.2939    1.1878    1.8354 C   0  0  0  0  0  0  0  0  0  0  0  0
   -5.6826    1.0884    1.9306 C   0  0  0  0  0  0  0  0  0  0  0  0
   -6.4793    1.2533    0.7941 C   0  0  0  0  0  0  0  0  0  0  0  0
   -7.9745    1.1832    0.8973 C   0  0  0  0  0  0  0  0  0  0  0  0
   -5.8668    1.5552   -0.4296 C   0  0  0  0  0  0  0  0  0  0  0  0
   -4.4703    1.6664   -0.5323 C   0  0  0  0  0  0  0  0  0  0  0  0
   -3.8399    1.9889   -1.8579 C   0  0  0  0  0  0  0  0  0  0  0  0
   -3.1200   -0.9362    0.1089 H   0  0  0  0  0  0  0  0  0  0  0  0
   -2.6740   -3.1613   -1.2274 H   0  0  0  0  0  0  0  0  0  0  0  0
   -2.5299   -3.5242    0.5103 H   0  0  0  0  0  0  0  0  0  0  0  0
   -1.2309   -4.0059   -0.6108 H   0  0  0  0  0  0  0  0  0  0  0  0
    2.2893   -1.5318   -0.1149 H   0  0  0  0  0  0  0  0  0  0  0  0
    2.6712    1.3604    0.3728 H   0  0  0  0  0  0  0  0  0  0  0  0
    2.6084    0.2383    1.7367 H   0  0  0  0  0  0  0  0  0  0  0  0
    4.2285    0.5952   -1.6608 H   0  0  0  0  0  0  0  0  0  0  0  0
    6.5578    0.0195   -2.1154 H   0  0  0  0  0  0  0  0  0  0  0  0
    9.9134   -1.2552   -1.4282 H   0  0  0  0  0  0  0  0  0  0  0  0
    8.9028    0.1544   -1.7687 H   0  0  0  0  0  0  0  0  0  0  0  0
    8.3800   -1.5006   -2.2726 H   0  0  0  0  0  0  0  0  0  0  0  0
    7.0019   -1.3908    1.9325 H   0  0  0  0  0  0  0  0  0  0  0  0
    4.6527   -0.8083    2.3929 H   0  0  0  0  0  0  0  0  0  0  0  0
    0.3075    1.5044    0.3888 H   0  0  0  0  0  0  0  0  0  0  0  0
   -3.6813    1.0612    2.7244 H   0  0  0  0  0  0  0  0  0  0  0  0
   -6.1362    0.8877    2.8985 H   0  0  0  0  0  0  0  0  0  0  0  0
   -8.3819    2.1764    1.1097 H   0  0  0  0  0  0  0  0  0  0  0  0
   -8.4127    0.8118   -0.0350 H   0  0  0  0  0  0  0  0  0  0  0  0
   -8.2794    0.4974    1.6947 H   0  0  0  0  0  0  0  0  0  0  0  0
   -6.4849    1.7159   -1.3114 H   0  0  0  0  0  0  0  0  0  0  0  0
   -4.5906    2.3013   -2.5915 H   0  0  0  0  0  0  0  0  0  0  0  0
   -3.1261    2.8126   -1.7550 H   0  0  0  0  0  0  0  0  0  0  0  0
   -3.3249    1.1086   -2.2552 H   0  0  0  0  0  0  0  0  0  0  0  0
  1  2  1  0
  2  3  1  0
  2  4  2  0
  4  5  1  0
  5  6  1  0
  6  7  1  0
  7  8  1  0
  8  9  2  0
  9 10  1  0
 10 11  2  0
 11 12  1  0
 12 13  1  0
 11 14  1  0
 14 15  2  0
  5 16  2  0
 16 17  1  0
 17 18  2  3
 18 19  1  0
 19 20  2  0
 20 21  1  0
 21 22  2  0
 22 23  1  0
 22 24  1  0
 24 25  2  0
 25 26  1  0
 17  1  1  0
 25 19  1  0
 15  8  1  0
  1 27  1  0
  3 28  1  0
  3 29  1  0
  3 30  1  0
  6 31  1  0
  7 32  1  0
  7 33  1  0
  9 34  1  0
 10 35  1  0
 13 36  1  0
 13 37  1  0
 13 38  1  0
 14 39  1  0
 15 40  1  0
 16 41  1  0
 20 42  1  0
 21 43  1  0
 23 44  1  0
 23 45  1  0
 23 46  1  0
 24 47  1  0
 26 48  1  0
 26 49  1  0
 26 50  1  0
M  END
>  <ScrubInfo>  (2) 
{"isomerGroup": 0, "isomerId": 1, "confId": 0, "nr_conformers:": 1, "nr_isomers:": 5}

$$$$
_i2
     RDKit          3D

 50 52  0  0  0  0  0  0  0  0999 V2000
    0.4628   -2.9051    0.5106 N   0  0  0  0  0  0  0  0  0  0  0  0
   -0.6782   -3.5776    0.8591 C   0  0  0  0  0  0  0  0  0  0  0  0
   -0.6334   -5.0827    0.8870 C   0  0  0  0  0  0  0  0  0  0  0  0
   -1.7922   -2.9816    1.1677 N   0  0  0  0  0  0  0  0  0  0  0  0
   -1.8183   -1.5938    1.1357 C   0  0  0  0  0  0  0  0  0  0  0  0
   -3.0114   -0.9784    1.4987 N   0  0  0  0  0  0  0  0  0  0  0  0
   -3.6617    0.0632    0.7853 C   0  0  0  0  0  0  0  0  0  0  0  0
   -3.4822    0.2454   -0.5938 C   0  0  0  0  0  0  0  0  0  0  0  0
   -4.1793    1.2380   -1.2876 C   0  0  0  0  0  0  0  0  0  0  0  0
   -5.0816    2.0668   -0.6188 C   0  0  0  0  0  0  0  0  0  0  0  0
   -5.8557    3.1108   -1.3671 C   0  0  0  0  0  0  0  0  0  0  0  0
   -5.2997    1.8654    0.7488 C   0  0  0  0  0  0  0  0  0  0  0  0
   -4.6018    0.8713    1.4570 C   0  0  0  0  0  0  0  0  0  0  0  0
   -4.8622    0.6942    2.9286 C   0  0  0  0  0  0  0  0  0  0  0  0
   -0.7349   -0.8456    0.8262 C   0  0  0  0  0  0  0  0  0  0  0  0
    0.5263   -1.5394    0.4694 C   0  0  0  0  0  0  0  0  0  0  0  0
    1.5360   -0.7977    0.1624 N   0  0  0  0  0  0  0  0  0  0  0  0
    2.7992   -1.4388   -0.1969 C   0  0  0  0  0  0  0  0  0  0  0  0
    3.8909   -0.4403   -0.5078 C   0  0  0  0  0  0  0  0  0  0  0  0
    4.8574   -0.7310   -1.4787 C   0  0  0  0  0  0  0  0  0  0  0  0
    5.8931    0.1704   -1.7401 C   0  0  0  0  0  0  0  0  0  0  0  0
    5.9897    1.3714   -1.0346 C   0  0  0  0  0  0  0  0  0  0  0  0
    7.0492    2.1604   -1.3895 O   0  0  0  0  0  0  0  0  0  0  0  0
    7.1666    3.4110   -0.7231 C   0  0  0  0  0  0  0  0  0  0  0  0
    5.0397    1.6624   -0.0568 C   0  0  0  0  0  0  0  0  0  0  0  0
    4.0026    0.7599    0.2072 C   0  0  0  0  0  0  0  0  0  0  0  0
    1.2894   -3.4367    0.2900 H   0  0  0  0  0  0  0  0  0  0  0  0
    0.1121   -5.4092    1.6175 H   0  0  0  0  0  0  0  0  0  0  0  0
   -1.6084   -5.4948    1.1609 H   0  0  0  0  0  0  0  0  0  0  0  0
   -0.3514   -5.4558   -0.1016 H   0  0  0  0  0  0  0  0  0  0  0  0
   -3.6843   -1.7175    1.6964 H   0  0  0  0  0  0  0  0  0  0  0  0
   -2.8058   -0.3960   -1.1526 H   0  0  0  0  0  0  0  0  0  0  0  0
   -4.0144    1.3520   -2.3565 H   0  0  0  0  0  0  0  0  0  0  0  0
   -6.0802    3.9670   -0.7223 H   0  0  0  0  0  0  0  0  0  0  0  0
   -6.7956    2.6880   -1.7349 H   0  0  0  0  0  0  0  0  0  0  0  0
   -5.2803    3.4887   -2.2189 H   0  0  0  0  0  0  0  0  0  0  0  0
   -6.0213    2.4910    1.2711 H   0  0  0  0  0  0  0  0  0  0  0  0
   -5.5786    1.4335    3.3024 H   0  0  0  0  0  0  0  0  0  0  0  0
   -3.9348    0.8194    3.4970 H   0  0  0  0  0  0  0  0  0  0  0  0
   -5.2791   -0.2991    3.1232 H   0  0  0  0  0  0  0  0  0  0  0  0
   -0.7391    0.2358    0.8306 H   0  0  0  0  0  0  0  0  0  0  0  0
    2.6416   -2.0743   -1.0775 H   0  0  0  0  0  0  0  0  0  0  0  0
    3.1556   -2.0699    0.6268 H   0  0  0  0  0  0  0  0  0  0  0  0
    4.8125   -1.6587   -2.0436 H   0  0  0  0  0  0  0  0  0  0  0  0
    6.6324   -0.0652   -2.5015 H   0  0  0  0  0  0  0  0  0  0  0  0
    6.2935    4.0442   -0.9129 H   0  0  0  0  0  0  0  0  0  0  0  0
    8.0439    3.9244   -1.1284 H   0  0  0  0  0  0  0  0  0  0  0  0
    7.3294    3.2720    0.3508 H   0  0  0  0  0  0  0  0  0  0  0  0
    5.0723    2.5795    0.5209 H   0  0  0  0  0  0  0  0  0  0  0  0
    3.2698    1.0030    0.9747 H   0  0  0  0  0  0  0  0  0  0  0  0
  1  2  1  0
  2  3  1  0
  2  4  2  0
  4  5  1  0
  5  6  1  0
  6  7  1  0
  7  8  2  0
  8  9  1  0
  9 10  2  0
 10 11  1  0
 10 12  1  0
 12 13  2  0
 13 14  1  0
  5 15  2  0
 15 16  1  0
 16 17  2  3
 17 18  1  0
 18 19  1  0
 19 20  2  0
 20 21  1  0
 21 22  2  0
 22 23  1  0
 23 24  1  0
 22 25  1  0
 25 26  2  0
 16  1  1  0
 26 19  1  0
 13  7  1  0
  1 27  1  0
  3 28  1  0
  3 29  1  0
  3 30  1  0
  6 31  1  0
  8 32  1  0
  9 33  1  0
 11 34  1  0
 11 35  1  0
 11 36  1  0
 12 37  1  0
 14 38  1  0
 14 39  1  0
 14 40  1  0
 15 41  1  0
 18 42  1  0
 18 43  1  0
 20 44  1  0
 21 45  1  0
 24 46  1  0
 24 47  1  0
 24 48  1  0
 25 49  1  0
 26 50  1  0
M  END
>  <ScrubInfo>  (3) 
{"isomerGroup": 0, "isomerId": 2, "confId": 0, "nr_conformers:": 1, "nr_isomers:": 5}

$$$$
_i3
     RDKit          3D

 50 52  0  0  0  0  0  0  0  0999 V2000
   -1.3846   -0.1640   -0.6210 N   0  0  0  0  0  0  0  0  0  0  0  0
   -1.3960   -0.6338    0.6687 C   0  0  0  0  0  0  0  0  0  0  0  0
   -2.4239   -0.3620    1.5664 N   0  0  0  0  0  0  0  0  0  0  0  0
   -3.6799    0.1551    1.1763 C   0  0  0  0  0  0  0  0  0  0  0  0
   -4.7450   -0.7309    0.9620 C   0  0  0  0  0  0  0  0  0  0  0  0
   -5.9780   -0.2693    0.4979 C   0  0  0  0  0  0  0  0  0  0  0  0
   -6.1636    1.0864    0.2180 C   0  0  0  0  0  0  0  0  0  0  0  0
   -7.4952    1.5908   -0.2544 C   0  0  0  0  0  0  0  0  0  0  0  0
   -5.1062    1.9774    0.4402 C   0  0  0  0  0  0  0  0  0  0  0  0
   -3.8646    1.5276    0.9216 C   0  0  0  0  0  0  0  0  0  0  0  0
   -2.7619    2.5280    1.1419 C   0  0  0  0  0  0  0  0  0  0  0  0
   -0.3500   -1.3919    1.0417 C   0  0  0  0  0  0  0  0  0  0  0  0
    0.7460   -1.6748    0.0788 C   0  0  0  0  0  0  0  0  0  0  0  0
    1.7504   -2.3790    0.4736 N   0  0  0  0  0  0  0  0  0  0  0  0
    2.8266   -2.6321   -0.4833 C   0  0  0  0  0  0  0  0  0  0  0  0
    3.9354   -1.6119   -0.3801 C   0  0  0  0  0  0  0  0  0  0  0  0
    4.1006   -0.6331   -1.3656 C   0  0  0  0  0  0  0  0  0  0  0  0
    5.1228    0.3129   -1.2564 C   0  0  0  0  0  0  0  0  0  0  0  0
    5.9898    0.3032   -0.1615 C   0  0  0  0  0  0  0  0  0  0  0  0
    6.9444    1.2833   -0.1786 O   0  0  0  0  0  0  0  0  0  0  0  0
    7.8483    1.3149    0.9182 C   0  0  0  0  0  0  0  0  0  0  0  0
    5.8220   -0.6626    0.8309 C   0  0  0  0  0  0  0  0  0  0  0  0
    4.7988   -1.6113    0.7229 C   0  0  0  0  0  0  0  0  0  0  0  0
    0.6482   -1.1831   -1.2013 N   0  0  0  0  0  0  0  0  0  0  0  0
   -0.3812   -0.4550   -1.5002 C   0  0  0  0  0  0  0  0  0  0  0  0
   -0.4935    0.0882   -2.9006 C   0  0  0  0  0  0  0  0  0  0  0  0
   -2.1920    0.3749   -0.9052 H   0  0  0  0  0  0  0  0  0  0  0  0
   -2.5113   -1.0872    2.2746 H   0  0  0  0  0  0  0  0  0  0  0  0
   -4.6155   -1.7953    1.1418 H   0  0  0  0  0  0  0  0  0  0  0  0
   -6.7889   -0.9784    0.3472 H   0  0  0  0  0  0  0  0  0  0  0  0
   -8.0207    0.8243   -0.8338 H   0  0  0  0  0  0  0  0  0  0  0  0
   -8.1142    1.8723    0.6030 H   0  0  0  0  0  0  0  0  0  0  0  0
   -7.3735    2.4627   -0.9057 H   0  0  0  0  0  0  0  0  0  0  0  0
   -5.2529    3.0385    0.2438 H   0  0  0  0  0  0  0  0  0  0  0  0
   -2.1830    2.2866    2.0391 H   0  0  0  0  0  0  0  0  0  0  0  0
   -3.1693    3.5338    1.2917 H   0  0  0  0  0  0  0  0  0  0  0  0
   -2.0946    2.5543    0.2755 H   0  0  0  0  0  0  0  0  0  0  0  0
   -0.2368   -1.8099    2.0321 H   0  0  0  0  0  0  0  0  0  0  0  0
    3.2509   -3.6191   -0.2574 H   0  0  0  0  0  0  0  0  0  0  0  0
    2.4735   -2.7244   -1.5183 H   0  0  0  0  0  0  0  0  0  0  0  0
    3.4272   -0.5981   -2.2189 H   0  0  0  0  0  0  0  0  0  0  0  0
    5.2404    1.0672   -2.0299 H   0  0  0  0  0  0  0  0  0  0  0  0
    7.3209    1.5020    1.8595 H   0  0  0  0  0  0  0  0  0  0  0  0
    8.4385    0.3940    0.9708 H   0  0  0  0  0  0  0  0  0  0  0  0
    8.5422    2.1453    0.7555 H   0  0  0  0  0  0  0  0  0  0  0  0
    6.4633   -0.7056    1.7041 H   0  0  0  0  0  0  0  0  0  0  0  0
    4.6678   -2.3514    1.5095 H   0  0  0  0  0  0  0  0  0  0  0  0
   -0.7147    1.1587   -2.8634 H   0  0  0  0  0  0  0  0  0  0  0  0
    0.4390   -0.0655   -3.4507 H   0  0  0  0  0  0  0  0  0  0  0  0
   -1.3062   -0.4264   -3.4209 H   0  0  0  0  0  0  0  0  0  0  0  0
  1  2  1  0
  2  3  1  0
  3  4  1  0
  4  5  2  0
  5  6  1  0
  6  7  2  0
  7  8  1  0
  7  9  1  0
  9 10  2  0
 10 11  1  0
  2 12  2  0
 12 13  1  0
 13 14  2  3
 14 15  1  0
 15 16  1  0
 16 17  2  0
 17 18  1  0
 18 19  2  0
 19 20  1  0
 20 21  1  0
 19 22  1  0
 22 23  2  0
 13 24  1  0
 24 25  2  0
 25 26  1  0
 25  1  1  0
 10  4  1  0
 23 16  1  0
  1 27  1  0
  3 28  1  0
  5 29  1  0
  6 30  1  0
  8 31  1  0
  8 32  1  0
  8 33  1  0
  9 34  1  0
 11 35  1  0
 11 36  1  0
 11 37  1  0
 12 38  1  0
 15 39  1  0
 15 40  1  0
 17 41  1  0
 18 42  1  0
 21 43  1  0
 21 44  1  0
 21 45  1  0
 22 46  1  0
 23 47  1  0
 26 48  1  0
 26 49  1  0
 26 50  1  0
M  END
>  <ScrubInfo>  (4) 
{"isomerGroup": 0, "isomerId": 3, "confId": 0, "nr_conformers:": 1, "nr_isomers:": 5}

$$$$
_i4
     RDKit          3D

 50 52  0  0  0  0  0  0  0  0999 V2000
    0.1443    0.1495    1.8621 N   0  0  0  0  0  0  0  0  0  0  0  0
    0.6230   -0.1246    0.6092 C   0  0  0  0  0  0  0  0  0  0  0  0
    1.9865   -0.1631    0.4054 N   0  0  0  0  0  0  0  0  0  0  0  0
    2.6571   -0.6757   -0.7788 C   0  0  0  0  0  0  0  0  0  0  0  0
    4.1499   -0.5496   -0.5973 C   0  0  0  0  0  0  0  0  0  0  0  0
    4.9276   -1.6625   -0.2568 C   0  0  0  0  0  0  0  0  0  0  0  0
    6.3058   -1.5285   -0.0712 C   0  0  0  0  0  0  0  0  0  0  0  0
    6.9293   -0.2870   -0.2152 C   0  0  0  0  0  0  0  0  0  0  0  0
    8.2805   -0.2985   -0.0048 O   0  0  0  0  0  0  0  0  0  0  0  0
    8.9664    0.9367   -0.1662 C   0  0  0  0  0  0  0  0  0  0  0  0
    6.1586    0.8275   -0.5443 C   0  0  0  0  0  0  0  0  0  0  0  0
    4.7778    0.6969   -0.7309 C   0  0  0  0  0  0  0  0  0  0  0  0
   -0.2874   -0.3337   -0.3566 C   0  0  0  0  0  0  0  0  0  0  0  0
   -1.7385   -0.2757   -0.0364 C   0  0  0  0  0  0  0  0  0  0  0  0
   -2.5956   -0.5278   -0.9796 N   0  0  0  0  0  0  0  0  0  0  0  0
   -3.9677   -0.4686   -0.6815 C   0  0  0  0  0  0  0  0  0  0  0  0
   -4.6153   -1.6157   -0.2099 C   0  0  0  0  0  0  0  0  0  0  0  0
   -5.9837   -1.6038    0.0668 C   0  0  0  0  0  0  0  0  0  0  0  0
   -6.7302   -0.4380   -0.1243 C   0  0  0  0  0  0  0  0  0  0  0  0
   -8.2057   -0.4270    0.1435 C   0  0  0  0  0  0  0  0  0  0  0  0
   -6.0919    0.7040   -0.6264 C   0  0  0  0  0  0  0  0  0  0  0  0
   -4.7162    0.6979   -0.9140 C   0  0  0  0  0  0  0  0  0  0  0  0
   -4.0554    1.9391   -1.4417 C   0  0  0  0  0  0  0  0  0  0  0  0
   -2.1214    0.0534    1.2441 N   0  0  0  0  0  0  0  0  0  0  0  0
   -1.1949    0.2522    2.1262 C   0  0  0  0  0  0  0  0  0  0  0  0
   -1.6087    0.6360    3.5233 C   0  0  0  0  0  0  0  0  0  0  0  0
    0.8231    0.4325    2.5533 H   0  0  0  0  0  0  0  0  0  0  0  0
    2.5103   -0.3350    1.2582 H   0  0  0  0  0  0  0  0  0  0  0  0
    2.3849   -1.7251   -0.9442 H   0  0  0  0  0  0  0  0  0  0  0  0
    2.3555   -0.1143   -1.6714 H   0  0  0  0  0  0  0  0  0  0  0  0
    4.4702   -2.6417   -0.1337 H   0  0  0  0  0  0  0  0  0  0  0  0
    6.9013   -2.4007    0.1889 H   0  0  0  0  0  0  0  0  0  0  0  0
   10.0292    0.7558    0.0209 H   0  0  0  0  0  0  0  0  0  0  0  0
    8.8679    1.3128   -1.1899 H   0  0  0  0  0  0  0  0  0  0  0  0
    8.6215    1.6774    0.5628 H   0  0  0  0  0  0  0  0  0  0  0  0
    6.5968    1.8130   -0.6602 H   0  0  0  0  0  0  0  0  0  0  0  0
    4.1875    1.5781   -0.9769 H   0  0  0  0  0  0  0  0  0  0  0  0
   -0.0405   -0.5520   -1.3849 H   0  0  0  0  0  0  0  0  0  0  0  0
   -4.0410   -2.5244   -0.0554 H   0  0  0  0  0  0  0  0  0  0  0  0
   -6.4583   -2.5104    0.4331 H   0  0  0  0  0  0  0  0  0  0  0  0
   -8.7525   -0.7058   -0.7625 H   0  0  0  0  0  0  0  0  0  0  0  0
   -8.4635   -1.1299    0.9427 H   0  0  0  0  0  0  0  0  0  0  0  0
   -8.5364    0.5659    0.4660 H   0  0  0  0  0  0  0  0  0  0  0  0
   -6.6713    1.6088   -0.7977 H   0  0  0  0  0  0  0  0  0  0  0  0
   -3.3791    2.3567   -0.6891 H   0  0  0  0  0  0  0  0  0  0  0  0
   -3.4921    1.7168   -2.3539 H   0  0  0  0  0  0  0  0  0  0  0  0
   -4.7927    2.7082   -1.6952 H   0  0  0  0  0  0  0  0  0  0  0  0
   -1.3206    1.6742    3.7104 H   0  0  0  0  0  0  0  0  0  0  0  0
   -1.1039   -0.0106    4.2466 H   0  0  0  0  0  0  0  0  0  0  0  0
   -2.6905    0.5362    3.6478 H   0  0  0  0  0  0  0  0  0  0  0  0
  1  2  1  0
  2  3  1  0
  3  4  1  0
  4  5  1  0
  5  6  2  0
  6  7  1  0
  7  8  2  0
  8  9  1  0
  9 10  1  0
  8 11  1  0
 11 12  2  0
  2 13  2  0
 13 14  1  0
 14 15  2  3
 15 16  1  0
 16 17  2  0
 17 18  1  0
 18 19  2  0
 19 20  1  0
 19 21  1  0
 21 22  2  0
 22 23  1  0
 14 24  1  0
 24 25  2  0
 25 26  1  0
 25  1  1  0
 12  5  1  0
 22 16  1  0
  1 27  1  0
  3 28  1  0
  4 29  1  0
  4 30  1  0
  6 31  1  0
  7 32  1  0
 10 33  1  0
 10 34  1  0
 10 35  1  0
 11 36  1  0
 12 37  1  0
 13 38  1  0
 17 39  1  0
 18 40  1  0
 20 41  1  0
 20 42  1  0
 20 43  1  0
 21 44  1  0
 23 45  1  0
 23 46  1  0
 23 47  1  0
 26 48  1  0
 26 49  1  0
 26 50  1  0
M  END
>  <ScrubInfo>  (5) 
{"isomerGroup": 0, "isomerId": 4, "confId": 0, "nr_conformers:": 1, "nr_isomers:": 5}

$$$$
