REMARK SMILES OCCOCCNc1nc(-c2ccc(Cl)cc2)nc2c1CCC2
REMARK SMILES IDX 5 1 4 2 3 3 2 4 1 5 6 7 7 8 8 10 9 11 20 12 10 13 19 14
REMARK SMILES IDX 21 15 18 16 23 17 22 18 11 19 12 20 17 21 13 22 16 23 14 24
REMARK SMILES IDX 15 25
REMARK H PARENT 1 6 7 9
ROOT
ATOM      1  C   UNL     1       2.970   0.937  -1.086  1.00  0.00     0.181 C 
ENDROOT
BRANCH   1   2
ATOM      2  O   UNL     1       3.770   0.112  -0.225  1.00  0.00    -0.377 OA
BRANCH   2   3
ATOM      3  C   UNL     1       5.107  -0.070  -0.707  1.00  0.00     0.188 C 
BRANCH   3   4
ATOM      4  C   UNL     1       5.971   1.182  -0.552  1.00  0.00     0.184 C 
BRANCH   4   5
ATOM      5  O   UNL     1       5.737   2.091  -1.627  1.00  0.00    -0.394 OA
ATOM      6  H   UNL     1       6.295   2.871  -1.464  1.00  0.00     0.210 HD
ENDBRANCH   4   5
ENDBRANCH   3   4
ENDBRANCH   2   3
ENDBRANCH   1   2
BRANCH   1   7
ATOM      7  C   UNL     1       1.509   0.867  -0.623  1.00  0.00     0.143 C 
BRANCH   7   8
ATOM      8  N   UNL     1       1.025  -0.512  -0.749  1.00  0.00    -0.367 N 
ATOM      9  H   UNL     1       1.677  -1.143  -0.284  1.00  0.00     0.162 HD
BRANCH   8  10
ATOM     10  C   UNL     1      -0.273  -0.726  -0.267  1.00  0.00     0.133 A 
ATOM     11  N   UNL     1      -1.050   0.309   0.097  1.00  0.00    -0.211 NA
ATOM     12  C   UNL     1      -0.773  -2.002  -0.229  1.00  0.00     0.016 A 
ATOM     13  C   UNL     1      -2.308   0.052   0.536  1.00  0.00     0.161 A 
ATOM     14  C   UNL     1      -2.061  -2.168   0.234  1.00  0.00     0.050 A 
ATOM     15  C   UNL     1      -0.147  -3.308  -0.576  1.00  0.00     0.042 C 
ATOM     16  N   UNL     1      -2.857  -1.175   0.635  1.00  0.00    -0.233 NA
ATOM     17  C   UNL     1      -2.438  -3.621   0.266  1.00  0.00     0.057 C 
ATOM     18  C   UNL     1      -1.385  -4.213  -0.680  1.00  0.00     0.011 C 
BRANCH  13  19
ATOM     19  C   UNL     1      -3.137   1.209   0.942  1.00  0.00     0.019 A 
ATOM     20  C   UNL     1      -4.448   1.039   1.434  1.00  0.00     0.013 A 
ATOM     21  C   UNL     1      -2.653   2.530   0.854  1.00  0.00     0.013 A 
ATOM     22  C   UNL     1      -5.234   2.131   1.820  1.00  0.00     0.021 A 
ATOM     23  C   UNL     1      -3.434   3.626   1.238  1.00  0.00     0.021 A 
ATOM     24  C   UNL     1      -4.723   3.420   1.720  1.00  0.00     0.041 A 
ATOM     25  Cl  UNL     1      -5.686   4.765   2.193  1.00  0.00    -0.084 Cl
ENDBRANCH  13  19
ENDBRANCH   8  10
ENDBRANCH   7   8
ENDBRANCH   1   7
TORSDOF 8
