_i0
     RDKit          3D

 43 45  0  0  0  0  0  0  0  0999 V2000
    5.7368    2.0907   -1.6272 O   0  0  0  0  0  0  0  0  0  0  0  0
    5.9714    1.1824   -0.5522 C   0  0  0  0  0  0  0  0  0  0  0  0
    5.1070   -0.0699   -0.7073 C   0  0  0  0  0  0  0  0  0  0  0  0
    3.7699    0.1120   -0.2254 O   0  0  0  0  0  0  0  0  0  0  0  0
    2.9698    0.9374   -1.0860 C   0  0  0  0  0  0  0  0  0  0  0  0
    1.5089    0.8670   -0.6232 C   0  0  0  0  0  0  0  0  0  0  0  0
    1.0254   -0.5119   -0.7486 N   0  0  0  0  0  0  0  0  0  0  0  0
   -0.2729   -0.7264   -0.2666 C   0  0  0  0  0  0  0  0  0  0  0  0
   -1.0501    0.3095    0.0970 N   0  0  0  0  0  0  0  0  0  0  0  0
   -2.3083    0.0524    0.5358 C   0  0  0  0  0  0  0  0  0  0  0  0
   -3.1374    1.2088    0.9422 C   0  0  0  0  0  0  0  0  0  0  0  0
   -4.4476    1.0391    1.4343 C   0  0  0  0  0  0  0  0  0  0  0  0
   -5.2343    2.1311    1.8200 C   0  0  0  0  0  0  0  0  0  0  0  0
   -4.7226    3.4204    1.7200 C   0  0  0  0  0  0  0  0  0  0  0  0
   -5.6857    4.7646    2.1931 Cl  0  0  0  0  0  0  0  0  0  0  0  0
   -3.4343    3.6259    1.2383 C   0  0  0  0  0  0  0  0  0  0  0  0
   -2.6526    2.5297    0.8543 C   0  0  0  0  0  0  0  0  0  0  0  0
   -2.8569   -1.1755    0.6347 N   0  0  0  0  0  0  0  0  0  0  0  0
   -2.0609   -2.1678    0.2340 C   0  0  0  0  0  0  0  0  0  0  0  0
   -0.7734   -2.0015   -0.2292 C   0  0  0  0  0  0  0  0  0  0  0  0
   -0.1472   -3.3078   -0.5757 C   0  0  0  0  0  0  0  0  0  0  0  0
   -1.3850   -4.2129   -0.6797 C   0  0  0  0  0  0  0  0  0  0  0  0
   -2.4385   -3.6209    0.2658 C   0  0  0  0  0  0  0  0  0  0  0  0
    6.2950    2.8707   -1.4639 H   0  0  0  0  0  0  0  0  0  0  0  0
    5.7499    1.6971    0.3877 H   0  0  0  0  0  0  0  0  0  0  0  0
    7.0306    0.9094   -0.5815 H   0  0  0  0  0  0  0  0  0  0  0  0
    5.5377   -0.8677   -0.0934 H   0  0  0  0  0  0  0  0  0  0  0  0
    5.0814   -0.4197   -1.7455 H   0  0  0  0  0  0  0  0  0  0  0  0
    3.0536    0.5890   -2.1219 H   0  0  0  0  0  0  0  0  0  0  0  0
    3.3096    1.9748   -1.0176 H   0  0  0  0  0  0  0  0  0  0  0  0
    0.9047    1.5428   -1.2395 H   0  0  0  0  0  0  0  0  0  0  0  0
    1.4554    1.1869    0.4251 H   0  0  0  0  0  0  0  0  0  0  0  0
    1.6774   -1.1425   -0.2837 H   0  0  0  0  0  0  0  0  0  0  0  0
   -4.8690    0.0381    1.5208 H   0  0  0  0  0  0  0  0  0  0  0  0
   -6.2402    1.9627    2.1948 H   0  0  0  0  0  0  0  0  0  0  0  0
   -3.0284    4.6304    1.1565 H   0  0  0  0  0  0  0  0  0  0  0  0
   -1.6469    2.7142    0.4785 H   0  0  0  0  0  0  0  0  0  0  0  0
    0.5152   -3.6369    0.2316 H   0  0  0  0  0  0  0  0  0  0  0  0
    0.4007   -3.2791   -1.5217 H   0  0  0  0  0  0  0  0  0  0  0  0
   -1.7677   -4.1813   -1.7095 H   0  0  0  0  0  0  0  0  0  0  0  0
   -1.1586   -5.2592   -0.4524 H   0  0  0  0  0  0  0  0  0  0  0  0
   -2.3264   -4.0122    1.2819 H   0  0  0  0  0  0  0  0  0  0  0  0
   -3.4558   -3.7943   -0.0946 H   0  0  0  0  0  0  0  0  0  0  0  0
  1  2  1  0
  2  3  1  0
  3  4  1  0
  4  5  1  0
  5  6  1  0
  6  7  1  0
  7  8  1  0
  8  9  2  0
  9 10  1  0
 10 11  1  0
 11 12  2  0
 12 13  1  0
 13 14  2  0
 14 15  1  0
 14 16  1  0
 16 17  2  0
 10 18  2  0
 18 19  1  0
 19 20  2  0
 20 21  1  0
 21 22  1  0
 22 23  1  0
 20  8  1  0
 17 11  1  0
 23 19  1  0
  1 24  1  0
  2 25  1  0
  2 26  1  0
  3 27  1  0
  3 28  1  0
  5 29  1  0
  5 30  1  0
  6 31  1  0
  6 32  1  0
  7 33  1  0
 12 34  1  0
 13 35  1  0
 16 36  1  0
 17 37  1  0
 21 38  1  0
 21 39  1  0
 22 40  1  0
 22 41  1  0
 23 42  1  0
 23 43  1  0
M  END
>  <ScrubInfo>  (1) 
{"isomerGroup": 0, "isomerId": 0, "confId": 0, "nr_conformers:": 1, "nr_isomers:": 3}

$$$$
_i1
     RDKit          3D

 43 45  0  0  0  0  0  0  0  0999 V2000
   -0.8141   -0.1752    0.1206 N   0  0  0  0  0  0  0  0  0  0  0  0
   -2.1971   -0.2118    0.0490 C   0  0  0  0  0  0  0  0  0  0  0  0
   -3.0062    0.7300    0.8826 C   0  0  0  0  0  0  0  0  0  0  0  0
   -2.5186    1.2201    2.1013 C   0  0  0  0  0  0  0  0  0  0  0  0
   -3.2940    2.1042    2.8588 C   0  0  0  0  0  0  0  0  0  0  0  0
   -4.5533    2.4929    2.4025 C   0  0  0  0  0  0  0  0  0  0  0  0
   -5.5013    3.5811    3.3381 Cl  0  0  0  0  0  0  0  0  0  0  0  0
   -5.0502    2.0009    1.1974 C   0  0  0  0  0  0  0  0  0  0  0  0
   -4.2785    1.1165    0.4393 C   0  0  0  0  0  0  0  0  0  0  0  0
   -2.8346   -1.0441   -0.7374 N   0  0  0  0  0  0  0  0  0  0  0  0
   -2.0424   -1.8893   -1.4737 C   0  0  0  0  0  0  0  0  0  0  0  0
   -0.7057   -1.9447   -1.4824 C   0  0  0  0  0  0  0  0  0  0  0  0
    0.0111   -0.9947   -0.6161 C   0  0  0  0  0  0  0  0  0  0  0  0
    1.3013   -1.0127   -0.6323 N   0  0  0  0  0  0  0  0  0  0  0  0
    2.0258   -0.0777    0.2228 C   0  0  0  0  0  0  0  0  0  0  0  0
    3.5217   -0.3965    0.1640 C   0  0  0  0  0  0  0  0  0  0  0  0
    4.2724    0.5063    0.9821 O   0  0  0  0  0  0  0  0  0  0  0  0
    4.6540    1.6966    0.2791 C   0  0  0  0  0  0  0  0  0  0  0  0
    5.4357    2.5800    1.2460 C   0  0  0  0  0  0  0  0  0  0  0  0
    6.5985    1.8890    1.6988 O   0  0  0  0  0  0  0  0  0  0  0  0
   -0.1544   -2.9717   -2.3917 C   0  0  0  0  0  0  0  0  0  0  0  0
   -1.3923   -3.3469   -3.2160 C   0  0  0  0  0  0  0  0  0  0  0  0
   -2.6178   -2.9090   -2.4004 C   0  0  0  0  0  0  0  0  0  0  0  0
   -0.3770    0.5537    0.6586 H   0  0  0  0  0  0  0  0  0  0  0  0
   -1.5578    0.9035    2.4960 H   0  0  0  0  0  0  0  0  0  0  0  0
   -2.9165    2.4775    3.8077 H   0  0  0  0  0  0  0  0  0  0  0  0
   -6.0345    2.2961    0.8433 H   0  0  0  0  0  0  0  0  0  0  0  0
   -4.6726    0.7321   -0.4998 H   0  0  0  0  0  0  0  0  0  0  0  0
    1.6942   -0.1481    1.2662 H   0  0  0  0  0  0  0  0  0  0  0  0
    1.8512    0.9521   -0.1081 H   0  0  0  0  0  0  0  0  0  0  0  0
    3.6888   -1.4041    0.5611 H   0  0  0  0  0  0  0  0  0  0  0  0
    3.8955   -0.3951   -0.8672 H   0  0  0  0  0  0  0  0  0  0  0  0
    3.7681    2.2274   -0.0819 H   0  0  0  0  0  0  0  0  0  0  0  0
    5.2916    1.4162   -0.5667 H   0  0  0  0  0  0  0  0  0  0  0  0
    4.8324    2.8224    2.1264 H   0  0  0  0  0  0  0  0  0  0  0  0
    5.7508    3.5083    0.7617 H   0  0  0  0  0  0  0  0  0  0  0  0
    6.2868    0.9942    1.9395 H   0  0  0  0  0  0  0  0  0  0  0  0
    0.2203   -3.8304   -1.8253 H   0  0  0  0  0  0  0  0  0  0  0  0
    0.6435   -2.5880   -3.0339 H   0  0  0  0  0  0  0  0  0  0  0  0
   -1.4189   -4.4155   -3.4531 H   0  0  0  0  0  0  0  0  0  0  0  0
   -1.3754   -2.8055   -4.1713 H   0  0  0  0  0  0  0  0  0  0  0  0
   -3.0377   -3.7475   -1.8347 H   0  0  0  0  0  0  0  0  0  0  0  0
   -3.3927   -2.4926   -3.0511 H   0  0  0  0  0  0  0  0  0  0  0  0
  1  2  1  0
  2  3  1  0
  3  4  2  0
  4  5  1  0
  5  6  2  0
  6  7  1  0
  6  8  1  0
  8  9  2  0
  2 10  2  0
 10 11  1  0
 11 12  2  0
 12 13  1  0
 13 14  2  3
 14 15  1  0
 15 16  1  0
 16 17  1  0
 17 18  1  0
 18 19  1  0
 19 20  1  0
 12 21  1  0
 21 22  1  0
 22 23  1  0
 13  1  1  0
  9  3  1  0
 23 11  1  0
  1 24  1  0
  4 25  1  0
  5 26  1  0
  8 27  1  0
  9 28  1  0
 15 29  1  0
 15 30  1  0
 16 31  1  0
 16 32  1  0
 18 33  1  0
 18 34  1  0
 19 35  1  0
 19 36  1  0
 20 37  1  0
 21 38  1  0
 21 39  1  0
 22 40  1  0
 22 41  1  0
 23 42  1  0
 23 43  1  0
M  END
>  <ScrubInfo>  (2) 
{"isomerGroup": 0, "isomerId": 1, "confId": 0, "nr_conformers:": 1, "nr_isomers:": 3}

$$$$
_i2
     RDKit          3D

 43 45  0  0  0  0  0  0  0  0999 V2000
   -2.4121    0.5518   -0.5248 N   0  0  0  0  0  0  0  0  0  0  0  0
   -1.7926   -0.4823    0.1409 C   0  0  0  0  0  0  0  0  0  0  0  0
   -2.5441   -1.7500    0.4096 C   0  0  0  0  0  0  0  0  0  0  0  0
   -1.8303   -2.9362    0.6329 C   0  0  0  0  0  0  0  0  0  0  0  0
   -2.5080   -4.1330    0.8804 C   0  0  0  0  0  0  0  0  0  0  0  0
   -3.9005   -4.1441    0.9119 C   0  0  0  0  0  0  0  0  0  0  0  0
   -4.7385   -5.6150    1.2166 Cl  0  0  0  0  0  0  0  0  0  0  0  0
   -4.6208   -2.9683    0.7038 C   0  0  0  0  0  0  0  0  0  0  0  0
   -3.9445   -1.7691    0.4549 C   0  0  0  0  0  0  0  0  0  0  0  0
   -0.5568   -0.4081    0.5491 N   0  0  0  0  0  0  0  0  0  0  0  0
    0.2049    0.7254    0.3291 C   0  0  0  0  0  0  0  0  0  0  0  0
    1.4002    0.6158    0.7696 N   0  0  0  0  0  0  0  0  0  0  0  0
    2.3919    1.6691    0.6184 C   0  0  0  0  0  0  0  0  0  0  0  0
    3.7489    1.1578    1.1235 C   0  0  0  0  0  0  0  0  0  0  0  0
    4.5060    0.4346    0.1453 O   0  0  0  0  0  0  0  0  0  0  0  0
    3.9101   -0.7790   -0.3329 C   0  0  0  0  0  0  0  0  0  0  0  0
    3.8192   -1.8543    0.7486 C   0  0  0  0  0  0  0  0  0  0  0  0
    5.1198   -2.1130    1.2819 O   0  0  0  0  0  0  0  0  0  0  0  0
   -0.4535    1.8552   -0.3762 C   0  0  0  0  0  0  0  0  0  0  0  0
   -1.7181    1.6933   -0.7731 C   0  0  0  0  0  0  0  0  0  0  0  0
   -2.2490    2.8745   -1.5048 C   0  0  0  0  0  0  0  0  0  0  0  0
   -1.1942    3.9383   -1.1909 C   0  0  0  0  0  0  0  0  0  0  0  0
    0.0744    3.1866   -0.7634 C   0  0  0  0  0  0  0  0  0  0  0  0
   -3.3174    0.4390   -0.9607 H   0  0  0  0  0  0  0  0  0  0  0  0
   -0.7417   -2.9333    0.6146 H   0  0  0  0  0  0  0  0  0  0  0  0
   -1.9428   -5.0457    1.0504 H   0  0  0  0  0  0  0  0  0  0  0  0
   -5.7072   -2.9775    0.7439 H   0  0  0  0  0  0  0  0  0  0  0  0
   -4.5269   -0.8618    0.3300 H   0  0  0  0  0  0  0  0  0  0  0  0
    2.1027    2.5263    1.2350 H   0  0  0  0  0  0  0  0  0  0  0  0
    2.4934    1.9723   -0.4281 H   0  0  0  0  0  0  0  0  0  0  0  0
    4.3644    2.0285    1.3760 H   0  0  0  0  0  0  0  0  0  0  0  0
    3.6517    0.5687    2.0415 H   0  0  0  0  0  0  0  0  0  0  0  0
    4.5788   -1.1388   -1.1231 H   0  0  0  0  0  0  0  0  0  0  0  0
    2.9438   -0.5852   -0.8049 H   0  0  0  0  0  0  0  0  0  0  0  0
    3.1729   -1.5542    1.5769 H   0  0  0  0  0  0  0  0  0  0  0  0
    3.4304   -2.7873    0.3305 H   0  0  0  0  0  0  0  0  0  0  0  0
    5.5483   -1.2388    1.3566 H   0  0  0  0  0  0  0  0  0  0  0  0
   -3.2366    3.1818   -1.1481 H   0  0  0  0  0  0  0  0  0  0  0  0
   -2.3026    2.6708   -2.5794 H   0  0  0  0  0  0  0  0  0  0  0  0
   -1.0109    4.5995   -2.0443 H   0  0  0  0  0  0  0  0  0  0  0  0
   -1.5436    4.5701   -0.3635 H   0  0  0  0  0  0  0  0  0  0  0  0
    0.7730    3.1001   -1.6018 H   0  0  0  0  0  0  0  0  0  0  0  0
    0.5580    3.7155    0.0613 H   0  0  0  0  0  0  0  0  0  0  0  0
  1  2  1  0
  2  3  1  0
  3  4  2  0
  4  5  1  0
  5  6  2  0
  6  7  1  0
  6  8  1  0
  8  9  2  0
  2 10  2  0
 10 11  1  0
 11 12  2  3
 12 13  1  0
 13 14  1  0
 14 15  1  0
 15 16  1  0
 16 17  1  0
 17 18  1  0
 11 19  1  0
 19 20  2  0
 20 21  1  0
 21 22  1  0
 22 23  1  0
 20  1  1  0
  9  3  1  0
 23 19  1  0
  1 24  1  0
  4 25  1  0
  5 26  1  0
  8 27  1  0
  9 28  1  0
 13 29  1  0
 13 30  1  0
 14 31  1  0
 14 32  1  0
 16 33  1  0
 16 34  1  0
 17 35  1  0
 17 36  1  0
 18 37  1  0
 21 38  1  0
 21 39  1  0
 22 40  1  0
 22 41  1  0
 23 42  1  0
 23 43  1  0
M  END
>  <ScrubInfo>  (3) 
{"isomerGroup": 0, "isomerId": 2, "confId": 0, "nr_conformers:": 1, "nr_isomers:": 3}

$$$$
