REMARK SMILES CCCCc1ccc(Nc2nc(N3CCOCC3)c3[nH]cnc3n2)cc1
REMARK SMILES IDX 5 1 6 2 7 3 8 4 25 5 26 6 4 7 3 8 2 9 1 10 9 11 10 13 11 14
REMARK SMILES IDX 24 15 12 16 23 17 19 18 22 19 20 20 21 21 13 23 14 24 18 25
REMARK SMILES IDX 15 26 17 27 16 28
REMARK H PARENT 9 12 20 22
ROOT
ATOM      1  C   UNL     1       3.723   2.219  -1.041  1.00  0.00    -0.048 A 
ATOM      2  C   UNL     1       3.354   1.097  -0.296  1.00  0.00     0.006 A 
ATOM      3  C   UNL     1       2.003   0.796  -0.092  1.00  0.00     0.026 A 
ATOM      4  C   UNL     1       0.982   1.605  -0.619  1.00  0.00     0.041 A 
ATOM      5  C   UNL     1       1.366   2.728  -1.356  1.00  0.00     0.026 A 
ATOM      6  C   UNL     1       2.716   3.035  -1.564  1.00  0.00     0.006 A 
ENDROOT
BRANCH   1   7
ATOM      7  C   UNL     1       5.177   2.562  -1.252  1.00  0.00     0.035 C 
BRANCH   7   8
ATOM      8  C   UNL     1       5.692   3.516  -0.171  1.00  0.00     0.004 C 
BRANCH   8   9
ATOM      9  C   UNL     1       7.191   3.801  -0.284  1.00  0.00    -0.003 C 
ATOM     10  C   UNL     1       7.571   4.561  -1.545  1.00  0.00     0.004 C 
ENDBRANCH   8   9
ENDBRANCH   7   8
ENDBRANCH   1   7
BRANCH   4  11
ATOM     11  N   UNL     1      -0.347   1.244  -0.374  1.00  0.00    -0.324 N 
ATOM     12  H   UNL     1      -0.501   0.410   0.172  1.00  0.00     0.170 HD
BRANCH  11  13
ATOM     13  C   UNL     1      -1.584   1.783  -0.730  1.00  0.00     0.231 A 
ATOM     14  N   UNL     1      -2.638   1.073  -0.259  1.00  0.00    -0.193 NA
ATOM     15  N   UNL     1      -1.673   2.891  -1.469  1.00  0.00    -0.191 NA
ATOM     16  C   UNL     1      -3.906   1.454  -0.529  1.00  0.00     0.160 A 
ATOM     17  C   UNL     1      -2.927   3.288  -1.717  1.00  0.00     0.184 A 
ATOM     18  C   UNL     1      -4.039   2.609  -1.270  1.00  0.00     0.128 A 
ATOM     19  N   UNL     1      -3.288   4.401  -2.433  1.00  0.00    -0.217 NA
ATOM     20  N   UNL     1      -5.101   3.349  -1.705  1.00  0.00    -0.340 N 
ATOM     21  C   UNL     1      -4.603   4.413  -2.403  1.00  0.00     0.199 A 
ATOM     22  H   UNL     1      -6.073   3.146  -1.519  1.00  0.00     0.168 HD
BRANCH  16  23
ATOM     23  N   UNL     1      -5.024   0.740  -0.068  1.00  0.00    -0.350 N 
ATOM     24  C   UNL     1      -5.537  -0.153  -1.135  1.00  0.00     0.146 C 
ATOM     25  C   UNL     1      -4.715  -0.043   1.153  1.00  0.00     0.146 C 
ATOM     26  C   UNL     1      -6.768  -0.916  -0.615  1.00  0.00     0.181 C 
ATOM     27  C   UNL     1      -5.979  -0.791   1.607  1.00  0.00     0.181 C 
ATOM     28  O   UNL     1      -6.465  -1.665   0.573  1.00  0.00    -0.378 OA
ENDBRANCH  16  23
ENDBRANCH  11  13
ENDBRANCH   4  11
TORSDOF 6
