_i0
     RDKit          3D

 50 53  0  0  0  0  0  0  0  0999 V2000
    7.5711    4.5613   -1.5451 C   0  0  0  0  0  0  0  0  0  0  0  0
    7.1915    3.8015   -0.2836 C   0  0  0  0  0  0  0  0  0  0  0  0
    5.6925    3.5157   -0.1712 C   0  0  0  0  0  0  0  0  0  0  0  0
    5.1767    2.5616   -1.2518 C   0  0  0  0  0  0  0  0  0  0  0  0
    3.7231    2.2190   -1.0410 C   0  0  0  0  0  0  0  0  0  0  0  0
    3.3542    1.0967   -0.2963 C   0  0  0  0  0  0  0  0  0  0  0  0
    2.0026    0.7965   -0.0924 C   0  0  0  0  0  0  0  0  0  0  0  0
    0.9819    1.6049   -0.6187 C   0  0  0  0  0  0  0  0  0  0  0  0
   -0.3472    1.2437   -0.3745 N   0  0  0  0  0  0  0  0  0  0  0  0
   -1.5838    1.7829   -0.7303 C   0  0  0  0  0  0  0  0  0  0  0  0
   -2.6375    1.0727   -0.2593 N   0  0  0  0  0  0  0  0  0  0  0  0
   -3.9058    1.4544   -0.5290 C   0  0  0  0  0  0  0  0  0  0  0  0
   -5.0235    0.7395   -0.0683 N   0  0  0  0  0  0  0  0  0  0  0  0
   -5.5368   -0.1529   -1.1354 C   0  0  0  0  0  0  0  0  0  0  0  0
   -6.7675   -0.9157   -0.6151 C   0  0  0  0  0  0  0  0  0  0  0  0
   -6.4649   -1.6650    0.5725 O   0  0  0  0  0  0  0  0  0  0  0  0
   -5.9785   -0.7915    1.6066 C   0  0  0  0  0  0  0  0  0  0  0  0
   -4.7152   -0.0425    1.1535 C   0  0  0  0  0  0  0  0  0  0  0  0
   -4.0387    2.6090   -1.2701 C   0  0  0  0  0  0  0  0  0  0  0  0
   -5.1013    3.3487   -1.7052 N   0  0  0  0  0  0  0  0  0  0  0  0
   -4.6026    4.4131   -2.4033 C   0  0  0  0  0  0  0  0  0  0  0  0
   -3.2878    4.4008   -2.4325 N   0  0  0  0  0  0  0  0  0  0  0  0
   -2.9274    3.2879   -1.7168 C   0  0  0  0  0  0  0  0  0  0  0  0
   -1.6733    2.8906   -1.4690 N   0  0  0  0  0  0  0  0  0  0  0  0
    1.3657    2.7281   -1.3557 C   0  0  0  0  0  0  0  0  0  0  0  0
    2.7165    3.0352   -1.5642 C   0  0  0  0  0  0  0  0  0  0  0  0
    8.6346    4.8201   -1.5216 H   0  0  0  0  0  0  0  0  0  0  0  0
    7.3970    3.9612   -2.4429 H   0  0  0  0  0  0  0  0  0  0  0  0
    6.9985    5.4900   -1.6320 H   0  0  0  0  0  0  0  0  0  0  0  0
    7.4975    4.3957    0.5858 H   0  0  0  0  0  0  0  0  0  0  0  0
    7.7551    2.8623   -0.2393 H   0  0  0  0  0  0  0  0  0  0  0  0
    5.5009    3.0820    0.8188 H   0  0  0  0  0  0  0  0  0  0  0  0
    5.1352    4.4604   -0.2067 H   0  0  0  0  0  0  0  0  0  0  0  0
    5.7715    1.6395   -1.2566 H   0  0  0  0  0  0  0  0  0  0  0  0
    5.2947    3.0036   -2.2483 H   0  0  0  0  0  0  0  0  0  0  0  0
    4.1135    0.4472    0.1325 H   0  0  0  0  0  0  0  0  0  0  0  0
    1.7535   -0.0865    0.4910 H   0  0  0  0  0  0  0  0  0  0  0  0
   -0.5008    0.4098    0.1717 H   0  0  0  0  0  0  0  0  0  0  0  0
   -4.7613   -0.8743   -1.4265 H   0  0  0  0  0  0  0  0  0  0  0  0
   -5.8272    0.4222   -2.0224 H   0  0  0  0  0  0  0  0  0  0  0  0
   -7.1141   -1.6237   -1.3744 H   0  0  0  0  0  0  0  0  0  0  0  0
   -7.5926   -0.2268   -0.3977 H   0  0  0  0  0  0  0  0  0  0  0  0
   -6.7757   -0.0916    1.8842 H   0  0  0  0  0  0  0  0  0  0  0  0
   -5.7526   -1.4085    2.4818 H   0  0  0  0  0  0  0  0  0  0  0  0
   -4.3828    0.6232    1.9589 H   0  0  0  0  0  0  0  0  0  0  0  0
   -3.9268   -0.7800    0.9522 H   0  0  0  0  0  0  0  0  0  0  0  0
   -6.0732    3.1464   -1.5190 H   0  0  0  0  0  0  0  0  0  0  0  0
   -5.2389    5.1600   -2.8599 H   0  0  0  0  0  0  0  0  0  0  0  0
    0.6255    3.3963   -1.7861 H   0  0  0  0  0  0  0  0  0  0  0  0
    2.9701    3.9223   -2.1405 H   0  0  0  0  0  0  0  0  0  0  0  0
  1  2  1  0
  2  3  1  0
  3  4  1  0
  4  5  1  0
  5  6  2  0
  6  7  1  0
  7  8  2  0
  8  9  1  0
  9 10  1  0
 10 11  2  0
 11 12  1  0
 12 13  1  0
 13 14  1  0
 14 15  1  0
 15 16  1  0
 16 17  1  0
 17 18  1  0
 12 19  2  0
 19 20  1  0
 20 21  1  0
 21 22  2  0
 22 23  1  0
 23 24  2  0
  8 25  1  0
 25 26  2  0
 26  5  1  0
 24 10  1  0
 18 13  1  0
 23 19  1  0
  1 27  1  0
  1 28  1  0
  1 29  1  0
  2 30  1  0
  2 31  1  0
  3 32  1  0
  3 33  1  0
  4 34  1  0
  4 35  1  0
  6 36  1  0
  7 37  1  0
  9 38  1  0
 14 39  1  0
 14 40  1  0
 15 41  1  0
 15 42  1  0
 17 43  1  0
 17 44  1  0
 18 45  1  0
 18 46  1  0
 20 47  1  0
 21 48  1  0
 25 49  1  0
 26 50  1  0
M  END
>  <ScrubInfo>  (1) 
{"isomerGroup": 0, "isomerId": 0, "confId": 0, "nr_conformers:": 1, "nr_isomers:": 9}

$$$$
_i1
     RDKit          3D

 50 53  0  0  0  0  0  0  0  0999 V2000
   -3.3327    1.7336   -1.3022 N   0  0  0  0  0  0  0  0  0  0  0  0
   -3.6556    1.2022   -0.0700 C   0  0  0  0  0  0  0  0  0  0  0  0
   -4.8202    0.4524    0.1448 N   0  0  0  0  0  0  0  0  0  0  0  0
   -5.5611   -0.2014   -0.9597 C   0  0  0  0  0  0  0  0  0  0  0  0
   -6.7633    0.6563   -1.3826 C   0  0  0  0  0  0  0  0  0  0  0  0
   -7.6366    0.9120   -0.2704 O   0  0  0  0  0  0  0  0  0  0  0  0
   -6.9273    1.5862    0.7822 C   0  0  0  0  0  0  0  0  0  0  0  0
   -5.7346    0.7508    1.2771 C   0  0  0  0  0  0  0  0  0  0  0  0
   -2.7640    1.4391    0.9084 C   0  0  0  0  0  0  0  0  0  0  0  0
   -2.5648    1.1177    2.2130 N   0  0  0  0  0  0  0  0  0  0  0  0
   -1.3321    1.5836    2.5457 C   0  0  0  0  0  0  0  0  0  0  0  0
   -0.7148    2.2624    1.6218 N   0  0  0  0  0  0  0  0  0  0  0  0
   -1.5511    2.2226    0.5129 C   0  0  0  0  0  0  0  0  0  0  0  0
   -1.2703    2.7445   -0.6245 N   0  0  0  0  0  0  0  0  0  0  0  0
   -2.2352    2.5145   -1.5777 C   0  0  0  0  0  0  0  0  0  0  0  0
   -2.1441    3.0266   -2.7726 N   0  0  0  0  0  0  0  0  0  0  0  0
   -1.0374    3.8276   -3.0898 C   0  0  0  0  0  0  0  0  0  0  0  0
    0.1248    3.2564   -3.6124 C   0  0  0  0  0  0  0  0  0  0  0  0
    1.2121    4.0585   -3.9695 C   0  0  0  0  0  0  0  0  0  0  0  0
    1.1475    5.4493   -3.8150 C   0  0  0  0  0  0  0  0  0  0  0  0
    2.3155    6.3182   -4.2116 C   0  0  0  0  0  0  0  0  0  0  0  0
    2.2544    6.7011   -5.6926 C   0  0  0  0  0  0  0  0  0  0  0  0
    3.3598    7.6729   -6.1111 C   0  0  0  0  0  0  0  0  0  0  0  0
    4.7563    7.0769   -6.0239 C   0  0  0  0  0  0  0  0  0  0  0  0
   -0.0271    6.0226   -3.3117 C   0  0  0  0  0  0  0  0  0  0  0  0
   -1.1113    5.2155   -2.9560 C   0  0  0  0  0  0  0  0  0  0  0  0
   -4.0050    1.6680   -2.0472 H   0  0  0  0  0  0  0  0  0  0  0  0
   -5.9213   -1.1708   -0.5935 H   0  0  0  0  0  0  0  0  0  0  0  0
   -4.9090   -0.4068   -1.8157 H   0  0  0  0  0  0  0  0  0  0  0  0
   -6.4412    1.6139   -1.8080 H   0  0  0  0  0  0  0  0  0  0  0  0
   -7.3453    0.1297   -2.1453 H   0  0  0  0  0  0  0  0  0  0  0  0
   -7.6324    1.7489    1.6033 H   0  0  0  0  0  0  0  0  0  0  0  0
   -6.6003    2.5679    0.4195 H   0  0  0  0  0  0  0  0  0  0  0  0
   -6.0966   -0.2025    1.6807 H   0  0  0  0  0  0  0  0  0  0  0  0
   -5.2320    1.2816    2.0909 H   0  0  0  0  0  0  0  0  0  0  0  0
   -3.0081    0.3019    2.6059 H   0  0  0  0  0  0  0  0  0  0  0  0
   -0.9548    1.3571    3.5544 H   0  0  0  0  0  0  0  0  0  0  0  0
    0.1830    2.1793   -3.7347 H   0  0  0  0  0  0  0  0  0  0  0  0
    2.1084    3.5894   -4.3671 H   0  0  0  0  0  0  0  0  0  0  0  0
    2.3264    7.2210   -3.5880 H   0  0  0  0  0  0  0  0  0  0  0  0
    3.2460    5.7834   -3.9870 H   0  0  0  0  0  0  0  0  0  0  0  0
    2.3031    5.7995   -6.3164 H   0  0  0  0  0  0  0  0  0  0  0  0
    1.2864    7.1723   -5.9072 H   0  0  0  0  0  0  0  0  0  0  0  0
    3.1771    7.9808   -7.1476 H   0  0  0  0  0  0  0  0  0  0  0  0
    3.3111    8.5804   -5.4981 H   0  0  0  0  0  0  0  0  0  0  0  0
    4.8249    6.1499   -6.6018 H   0  0  0  0  0  0  0  0  0  0  0  0
    5.4909    7.7819   -6.4262 H   0  0  0  0  0  0  0  0  0  0  0  0
    5.0371    6.8618   -4.9888 H   0  0  0  0  0  0  0  0  0  0  0  0
   -0.1073    7.1000   -3.1924 H   0  0  0  0  0  0  0  0  0  0  0  0
   -2.0185    5.6677   -2.5676 H   0  0  0  0  0  0  0  0  0  0  0  0
  1  2  1  0
  2  3  1  0
  3  4  1  0
  4  5  1  0
  5  6  1  0
  6  7  1  0
  7  8  1  0
  2  9  2  0
  9 10  1  0
 10 11  1  0
 11 12  2  0
 12 13  1  0
 13 14  2  0
 14 15  1  0
 15 16  2  3
 16 17  1  0
 17 18  2  0
 18 19  1  0
 19 20  2  0
 20 21  1  0
 21 22  1  0
 22 23  1  0
 23 24  1  0
 20 25  1  0
 25 26  2  0
 15  1  1  0
 26 17  1  0
  8  3  1  0
 13  9  1  0
  1 27  1  0
  4 28  1  0
  4 29  1  0
  5 30  1  0
  5 31  1  0
  7 32  1  0
  7 33  1  0
  8 34  1  0
  8 35  1  0
 10 36  1  0
 11 37  1  0
 18 38  1  0
 19 39  1  0
 21 40  1  0
 21 41  1  0
 22 42  1  0
 22 43  1  0
 23 44  1  0
 23 45  1  0
 24 46  1  0
 24 47  1  0
 24 48  1  0
 25 49  1  0
 26 50  1  0
M  END
>  <ScrubInfo>  (2) 
{"isomerGroup": 0, "isomerId": 1, "confId": 0, "nr_conformers:": 1, "nr_isomers:": 9}

$$$$
_i2
     RDKit          3D

 50 53  0  0  0  0  0  0  0  0999 V2000
   -4.5999   -2.6636   -4.2201 N   0  0  0  0  0  0  0  0  0  0  0  0
   -5.7128   -1.9130   -3.9708 C   0  0  0  0  0  0  0  0  0  0  0  0
   -5.5688   -1.1770   -2.8907 N   0  0  0  0  0  0  0  0  0  0  0  0
   -4.3000   -1.4670   -2.4110 C   0  0  0  0  0  0  0  0  0  0  0  0
   -3.5480   -1.0210   -1.2967 C   0  0  0  0  0  0  0  0  0  0  0  0
   -3.9995   -0.1198   -0.3091 N   0  0  0  0  0  0  0  0  0  0  0  0
   -5.0677    0.8094   -0.7244 C   0  0  0  0  0  0  0  0  0  0  0  0
   -5.5011    1.7030    0.4495 C   0  0  0  0  0  0  0  0  0  0  0  0
   -4.3881    2.3833    1.0464 O   0  0  0  0  0  0  0  0  0  0  0  0
   -3.4560    1.4189    1.5560 C   0  0  0  0  0  0  0  0  0  0  0  0
   -2.9027    0.5242    0.4383 C   0  0  0  0  0  0  0  0  0  0  0  0
   -2.2896   -1.5579   -1.1764 N   0  0  0  0  0  0  0  0  0  0  0  0
   -1.8032   -2.4551   -2.0611 C   0  0  0  0  0  0  0  0  0  0  0  0
   -0.5283   -3.0013   -1.9150 N   0  0  0  0  0  0  0  0  0  0  0  0
    0.5605   -2.7336   -1.0798 C   0  0  0  0  0  0  0  0  0  0  0  0
    1.6587   -3.6069   -1.1087 C   0  0  0  0  0  0  0  0  0  0  0  0
    2.7680   -3.4167   -0.2767 C   0  0  0  0  0  0  0  0  0  0  0  0
    2.8035   -2.3501    0.6257 C   0  0  0  0  0  0  0  0  0  0  0  0
    4.0035   -2.1369    1.5128 C   0  0  0  0  0  0  0  0  0  0  0  0
    3.7245   -2.1225    3.0220 C   0  0  0  0  0  0  0  0  0  0  0  0
    3.4766   -3.4983    3.6497 C   0  0  0  0  0  0  0  0  0  0  0  0
    2.0851   -4.0589    3.4046 C   0  0  0  0  0  0  0  0  0  0  0  0
    1.7157   -1.4724    0.6588 C   0  0  0  0  0  0  0  0  0  0  0  0
    0.6087   -1.6709   -0.1765 C   0  0  0  0  0  0  0  0  0  0  0  0
   -2.4714   -2.9232   -3.1298 N   0  0  0  0  0  0  0  0  0  0  0  0
   -3.6906   -2.3902   -3.2404 C   0  0  0  0  0  0  0  0  0  0  0  0
   -4.4582   -3.3079   -4.9830 H   0  0  0  0  0  0  0  0  0  0  0  0
   -6.5892   -1.9443   -4.6050 H   0  0  0  0  0  0  0  0  0  0  0  0
   -4.7032    1.4428   -1.5429 H   0  0  0  0  0  0  0  0  0  0  0  0
   -5.9616    0.2718   -1.0518 H   0  0  0  0  0  0  0  0  0  0  0  0
   -6.2041    2.4635    0.0947 H   0  0  0  0  0  0  0  0  0  0  0  0
   -6.0133    1.1141    1.2203 H   0  0  0  0  0  0  0  0  0  0  0  0
   -2.6365    1.9677    2.0309 H   0  0  0  0  0  0  0  0  0  0  0  0
   -3.9480    0.8203    2.3323 H   0  0  0  0  0  0  0  0  0  0  0  0
   -2.3057    1.1384   -0.2484 H   0  0  0  0  0  0  0  0  0  0  0  0
   -2.2509   -0.2211    0.9077 H   0  0  0  0  0  0  0  0  0  0  0  0
   -0.3757   -3.6736   -2.6517 H   0  0  0  0  0  0  0  0  0  0  0  0
    1.6610   -4.4586   -1.7847 H   0  0  0  0  0  0  0  0  0  0  0  0
    3.5976   -4.1174   -0.3351 H   0  0  0  0  0  0  0  0  0  0  0  0
    4.4444   -1.1715    1.2306 H   0  0  0  0  0  0  0  0  0  0  0  0
    4.7738   -2.8879    1.2969 H   0  0  0  0  0  0  0  0  0  0  0  0
    2.9025   -1.4415    3.2705 H   0  0  0  0  0  0  0  0  0  0  0  0
    4.6189   -1.7081    3.5061 H   0  0  0  0  0  0  0  0  0  0  0  0
    4.2311   -4.2154    3.3066 H   0  0  0  0  0  0  0  0  0  0  0  0
    3.6093   -3.4010    4.7346 H   0  0  0  0  0  0  0  0  0  0  0  0
    1.3120   -3.3299    3.6669 H   0  0  0  0  0  0  0  0  0  0  0  0
    1.9453   -4.3579    2.3639 H   0  0  0  0  0  0  0  0  0  0  0  0
    1.9291   -4.9508    4.0206 H   0  0  0  0  0  0  0  0  0  0  0  0
    1.7149   -0.6202    1.3342 H   0  0  0  0  0  0  0  0  0  0  0  0
   -0.2084   -0.9610   -0.1141 H   0  0  0  0  0  0  0  0  0  0  0  0
  1  2  1  0
  2  3  2  0
  3  4  1  0
  4  5  2  0
  5  6  1  0
  6  7  1  0
  7  8  1  0
  8  9  1  0
  9 10  1  0
 10 11  1  0
  5 12  1  0
 12 13  2  0
 13 14  1  0
 14 15  1  0
 15 16  2  0
 16 17  1  0
 17 18  2  0
 18 19  1  0
 19 20  1  0
 20 21  1  0
 21 22  1  0
 18 23  1  0
 23 24  2  0
 13 25  1  0
 25 26  2  0
 26  1  1  0
 26  4  1  0
 11  6  1  0
 24 15  1  0
  1 27  1  0
  2 28  1  0
  7 29  1  0
  7 30  1  0
  8 31  1  0
  8 32  1  0
 10 33  1  0
 10 34  1  0
 11 35  1  0
 11 36  1  0
 14 37  1  0
 16 38  1  0
 17 39  1  0
 19 40  1  0
 19 41  1  0
 20 42  1  0
 20 43  1  0
 21 44  1  0
 21 45  1  0
 22 46  1  0
 22 47  1  0
 22 48  1  0
 23 49  1  0
 24 50  1  0
M  END
>  <ScrubInfo>  (3) 
{"isomerGroup": 0, "isomerId": 2, "confId": 0, "nr_conformers:": 1, "nr_isomers:": 9}

$$$$
_i3
     RDKit          3D

 50 53  0  0  0  0  0  0  0  0999 V2000
   -1.8473    2.3172   -2.0781 N   0  0  0  0  0  0  0  0  0  0  0  0
   -2.5109    1.2312   -2.6149 C   0  0  0  0  0  0  0  0  0  0  0  0
   -2.3967    0.8180   -3.8435 N   0  0  0  0  0  0  0  0  0  0  0  0
   -1.5423    1.4963   -4.7193 C   0  0  0  0  0  0  0  0  0  0  0  0
   -0.2060    1.1116   -4.8404 C   0  0  0  0  0  0  0  0  0  0  0  0
    0.6526    1.7949   -5.7050 C   0  0  0  0  0  0  0  0  0  0  0  0
    0.1811    2.8694   -6.4702 C   0  0  0  0  0  0  0  0  0  0  0  0
    1.1074    3.6136   -7.4008 C   0  0  0  0  0  0  0  0  0  0  0  0
    1.4360    5.0387   -6.9393 C   0  0  0  0  0  0  0  0  0  0  0  0
    2.2035    5.1367   -5.6167 C   0  0  0  0  0  0  0  0  0  0  0  0
    3.5849    4.5027   -5.6677 C   0  0  0  0  0  0  0  0  0  0  0  0
   -1.1668    3.2376   -6.3631 C   0  0  0  0  0  0  0  0  0  0  0  0
   -2.0215    2.5513   -5.4972 C   0  0  0  0  0  0  0  0  0  0  0  0
   -3.3980    0.4507   -1.8846 N   0  0  0  0  0  0  0  0  0  0  0  0
   -3.6033    0.6975   -0.6201 C   0  0  0  0  0  0  0  0  0  0  0  0
   -4.5078   -0.0627    0.1177 N   0  0  0  0  0  0  0  0  0  0  0  0
   -4.8951   -1.3906   -0.4232 C   0  0  0  0  0  0  0  0  0  0  0  0
   -6.0624   -1.2656   -1.4143 C   0  0  0  0  0  0  0  0  0  0  0  0
   -7.1901   -0.6141   -0.7999 O   0  0  0  0  0  0  0  0  0  0  0  0
   -6.8183    0.6981   -0.3505 C   0  0  0  0  0  0  0  0  0  0  0  0
   -5.6892    0.6213    0.6889 C   0  0  0  0  0  0  0  0  0  0  0  0
   -2.8479    1.7665   -0.0418 C   0  0  0  0  0  0  0  0  0  0  0  0
   -2.7069    2.2191    1.2363 N   0  0  0  0  0  0  0  0  0  0  0  0
   -1.8144    3.2622    1.1907 C   0  0  0  0  0  0  0  0  0  0  0  0
   -1.3715    3.4792   -0.0327 N   0  0  0  0  0  0  0  0  0  0  0  0
   -2.0030    2.5396   -0.7778 C   0  0  0  0  0  0  0  0  0  0  0  0
   -1.1828    2.8251   -2.6400 H   0  0  0  0  0  0  0  0  0  0  0  0
    0.1651    0.2737   -4.2563 H   0  0  0  0  0  0  0  0  0  0  0  0
    1.6904    1.4784   -5.7772 H   0  0  0  0  0  0  0  0  0  0  0  0
    0.6280    3.6626   -8.3874 H   0  0  0  0  0  0  0  0  0  0  0  0
    2.0303    3.0427   -7.5562 H   0  0  0  0  0  0  0  0  0  0  0  0
    2.0236    5.5297   -7.7253 H   0  0  0  0  0  0  0  0  0  0  0  0
    0.5089    5.6175   -6.8433 H   0  0  0  0  0  0  0  0  0  0  0  0
    1.6239    4.6884   -4.8022 H   0  0  0  0  0  0  0  0  0  0  0  0
    2.3201    6.1982   -5.3662 H   0  0  0  0  0  0  0  0  0  0  0  0
    4.1799    4.9226   -6.4848 H   0  0  0  0  0  0  0  0  0  0  0  0
    4.1183    4.6903   -4.7302 H   0  0  0  0  0  0  0  0  0  0  0  0
    3.5267    3.4193   -5.8034 H   0  0  0  0  0  0  0  0  0  0  0  0
   -1.5625    4.0574   -6.9581 H   0  0  0  0  0  0  0  0  0  0  0  0
   -3.0675    2.8369   -5.4265 H   0  0  0  0  0  0  0  0  0  0  0  0
   -5.2086   -2.0139    0.4233 H   0  0  0  0  0  0  0  0  0  0  0  0
   -4.0387   -1.8926   -0.8877 H   0  0  0  0  0  0  0  0  0  0  0  0
   -5.7814   -0.7114   -2.3164 H   0  0  0  0  0  0  0  0  0  0  0  0
   -6.3898   -2.2623   -1.7264 H   0  0  0  0  0  0  0  0  0  0  0  0
   -6.5282    1.3068   -1.2150 H   0  0  0  0  0  0  0  0  0  0  0  0
   -7.7049    1.1556    0.0996 H   0  0  0  0  0  0  0  0  0  0  0  0
   -5.4414    1.6258    1.0456 H   0  0  0  0  0  0  0  0  0  0  0  0
   -6.0295    0.0427    1.5562 H   0  0  0  0  0  0  0  0  0  0  0  0
   -3.1489    1.8384    2.0613 H   0  0  0  0  0  0  0  0  0  0  0  0
   -1.5235    3.8123    2.0761 H   0  0  0  0  0  0  0  0  0  0  0  0
  1  2  1  0
  2  3  2  3
  3  4  1  0
  4  5  2  0
  5  6  1  0
  6  7  2  0
  7  8  1  0
  8  9  1  0
  9 10  1  0
 10 11  1  0
  7 12  1  0
 12 13  2  0
  2 14  1  0
 14 15  2  0
 15 16  1  0
 16 17  1  0
 17 18  1  0
 18 19  1  0
 19 20  1  0
 20 21  1  0
 15 22  1  0
 22 23  1  0
 23 24  1  0
 24 25  2  0
 25 26  1  0
 26  1  1  0
 13  4  1  0
 21 16  1  0
 26 22  2  0
  1 27  1  0
  5 28  1  0
  6 29  1  0
  8 30  1  0
  8 31  1  0
  9 32  1  0
  9 33  1  0
 10 34  1  0
 10 35  1  0
 11 36  1  0
 11 37  1  0
 11 38  1  0
 12 39  1  0
 13 40  1  0
 17 41  1  0
 17 42  1  0
 18 43  1  0
 18 44  1  0
 20 45  1  0
 20 46  1  0
 21 47  1  0
 21 48  1  0
 23 49  1  0
 24 50  1  0
M  END
>  <ScrubInfo>  (4) 
{"isomerGroup": 0, "isomerId": 3, "confId": 0, "nr_conformers:": 1, "nr_isomers:": 9}

$$$$
_i4
     RDKit          3D

 50 53  0  0  0  0  0  0  0  0999 V2000
    2.0827    4.1290    1.7916 N   0  0  0  0  0  0  0  0  0  0  0  0
    2.9343    4.5179    0.8005 C   0  0  0  0  0  0  0  0  0  0  0  0
    3.0284    5.8596    0.5604 N   0  0  0  0  0  0  0  0  0  0  0  0
    3.1703    6.8883    1.5169 C   0  0  0  0  0  0  0  0  0  0  0  0
    2.9438    8.2090    1.1083 C   0  0  0  0  0  0  0  0  0  0  0  0
    3.0522    9.2723    2.0099 C   0  0  0  0  0  0  0  0  0  0  0  0
    3.4032    9.0402    3.3441 C   0  0  0  0  0  0  0  0  0  0  0  0
    3.5073   10.1880    4.3171 C   0  0  0  0  0  0  0  0  0  0  0  0
    4.8687   10.3590    5.0049 C   0  0  0  0  0  0  0  0  0  0  0  0
    5.9666   10.9715    4.1288 C   0  0  0  0  0  0  0  0  0  0  0  0
    6.5991   10.0008    3.1447 C   0  0  0  0  0  0  0  0  0  0  0  0
    3.6228    7.7217    3.7585 C   0  0  0  0  0  0  0  0  0  0  0  0
    3.5117    6.6598    2.8540 C   0  0  0  0  0  0  0  0  0  0  0  0
    3.5883    3.6670    0.0510 N   0  0  0  0  0  0  0  0  0  0  0  0
    3.4554    2.2850    0.2843 C   0  0  0  0  0  0  0  0  0  0  0  0
    4.1903    1.4027   -0.5416 N   0  0  0  0  0  0  0  0  0  0  0  0
    4.8212    0.1680   -0.0200 C   0  0  0  0  0  0  0  0  0  0  0  0
    6.2703    0.4703    0.4020 C   0  0  0  0  0  0  0  0  0  0  0  0
    7.0427    1.0034   -0.6902 O   0  0  0  0  0  0  0  0  0  0  0  0
    6.4296    2.2032   -1.2005 C   0  0  0  0  0  0  0  0  0  0  0  0
    4.9909    1.9364   -1.6674 C   0  0  0  0  0  0  0  0  0  0  0  0
    2.6204    1.8270    1.2536 C   0  0  0  0  0  0  0  0  0  0  0  0
    2.2350    0.5904    1.7013 N   0  0  0  0  0  0  0  0  0  0  0  0
    1.3654    0.8671    2.6296 C   0  0  0  0  0  0  0  0  0  0  0  0
    1.1093    2.2073    2.8846 N   0  0  0  0  0  0  0  0  0  0  0  0
    1.8804    2.8182    2.0396 C   0  0  0  0  0  0  0  0  0  0  0  0
    1.5081    4.8151    2.2552 H   0  0  0  0  0  0  0  0  0  0  0  0
    3.5982    6.0500   -0.2594 H   0  0  0  0  0  0  0  0  0  0  0  0
    2.6645    8.4214    0.0786 H   0  0  0  0  0  0  0  0  0  0  0  0
    2.8635   10.2842    1.6577 H   0  0  0  0  0  0  0  0  0  0  0  0
    3.2322   11.1294    3.8250 H   0  0  0  0  0  0  0  0  0  0  0  0
    2.7442   10.0245    5.0898 H   0  0  0  0  0  0  0  0  0  0  0  0
    4.7140   11.0454    5.8481 H   0  0  0  0  0  0  0  0  0  0  0  0
    5.2173    9.4162    5.4418 H   0  0  0  0  0  0  0  0  0  0  0  0
    5.5823   11.8464    3.5920 H   0  0  0  0  0  0  0  0  0  0  0  0
    6.7607   11.3365    4.7922 H   0  0  0  0  0  0  0  0  0  0  0  0
    6.9225    9.0830    3.6456 H   0  0  0  0  0  0  0  0  0  0  0  0
    7.4793   10.4598    2.6824 H   0  0  0  0  0  0  0  0  0  0  0  0
    5.9130    9.7356    2.3380 H   0  0  0  0  0  0  0  0  0  0  0  0
    3.8881    7.5072    4.7916 H   0  0  0  0  0  0  0  0  0  0  0  0
    3.7281    5.6573    3.2144 H   0  0  0  0  0  0  0  0  0  0  0  0
    4.2832   -0.2795    0.8167 H   0  0  0  0  0  0  0  0  0  0  0  0
    4.8274   -0.5764   -0.8260 H   0  0  0  0  0  0  0  0  0  0  0  0
    6.3001    1.1815    1.2361 H   0  0  0  0  0  0  0  0  0  0  0  0
    6.7607   -0.4517    0.7297 H   0  0  0  0  0  0  0  0  0  0  0  0
    7.0361    2.5469   -2.0441 H   0  0  0  0  0  0  0  0  0  0  0  0
    6.4649    2.9761   -0.4240 H   0  0  0  0  0  0  0  0  0  0  0  0
    4.5451    2.8388   -2.0996 H   0  0  0  0  0  0  0  0  0  0  0  0
    5.0033    1.1812   -2.4633 H   0  0  0  0  0  0  0  0  0  0  0  0
    0.8447    0.0843    3.2039 H   0  0  0  0  0  0  0  0  0  0  0  0
  1  2  1  0
  2  3  1  0
  3  4  1  0
  4  5  2  0
  5  6  1  0
  6  7  2  0
  7  8  1  0
  8  9  1  0
  9 10  1  0
 10 11  1  0
  7 12  1  0
 12 13  2  0
  2 14  2  0
 14 15  1  0
 15 16  1  0
 16 17  1  0
 17 18  1  0
 18 19  1  0
 19 20  1  0
 20 21  1  0
 15 22  2  0
 22 23  1  0
 23 24  2  0
 24 25  1  0
 25 26  2  0
 26  1  1  0
 13  4  1  0
 21 16  1  0
 26 22  1  0
  1 27  1  0
  3 28  1  0
  5 29  1  0
  6 30  1  0
  8 31  1  0
  8 32  1  0
  9 33  1  0
  9 34  1  0
 10 35  1  0
 10 36  1  0
 11 37  1  0
 11 38  1  0
 11 39  1  0
 12 40  1  0
 13 41  1  0
 17 42  1  0
 17 43  1  0
 18 44  1  0
 18 45  1  0
 20 46  1  0
 20 47  1  0
 21 48  1  0
 21 49  1  0
 24 50  1  0
M  END
>  <ScrubInfo>  (5) 
{"isomerGroup": 0, "isomerId": 4, "confId": 0, "nr_conformers:": 1, "nr_isomers:": 9}

$$$$
_i5
     RDKit          3D

 50 53  0  0  0  0  0  0  0  0999 V2000
   -1.7420   -1.3847    0.1288 N   0  0  0  0  0  0  0  0  0  0  0  0
   -1.0534   -2.1975   -0.7341 C   0  0  0  0  0  0  0  0  0  0  0  0
    0.2464   -2.4630   -0.4058 N   0  0  0  0  0  0  0  0  0  0  0  0
    1.2165   -1.5552    0.0709 C   0  0  0  0  0  0  0  0  0  0  0  0
    2.3889   -2.0738    0.6365 C   0  0  0  0  0  0  0  0  0  0  0  0
    3.3790   -1.2291    1.1472 C   0  0  0  0  0  0  0  0  0  0  0  0
    3.2194    0.1596    1.1012 C   0  0  0  0  0  0  0  0  0  0  0  0
    4.2911    1.0741    1.6418 C   0  0  0  0  0  0  0  0  0  0  0  0
    5.5489    1.1385    0.7682 C   0  0  0  0  0  0  0  0  0  0  0  0
    5.3056    1.8141   -0.5836 C   0  0  0  0  0  0  0  0  0  0  0  0
    6.5945    1.9374   -1.3817 C   0  0  0  0  0  0  0  0  0  0  0  0
    2.0530    0.6840    0.5348 C   0  0  0  0  0  0  0  0  0  0  0  0
    1.0636   -0.1652    0.0270 C   0  0  0  0  0  0  0  0  0  0  0  0
   -1.5834   -2.7564   -1.7844 N   0  0  0  0  0  0  0  0  0  0  0  0
   -2.8983   -2.4665   -1.9821 C   0  0  0  0  0  0  0  0  0  0  0  0
   -3.6377   -2.8720   -2.9673 N   0  0  0  0  0  0  0  0  0  0  0  0
   -4.8696   -2.3125   -2.6662 C   0  0  0  0  0  0  0  0  0  0  0  0
   -4.9644   -1.5940   -1.5805 N   0  0  0  0  0  0  0  0  0  0  0  0
   -3.6938   -1.6429   -1.0659 C   0  0  0  0  0  0  0  0  0  0  0  0
   -3.0935   -1.1020    0.0140 C   0  0  0  0  0  0  0  0  0  0  0  0
   -3.7176   -0.3163    0.9952 N   0  0  0  0  0  0  0  0  0  0  0  0
   -3.0573    0.9004    1.5286 C   0  0  0  0  0  0  0  0  0  0  0  0
   -3.5680    2.1407    0.7751 C   0  0  0  0  0  0  0  0  0  0  0  0
   -4.9967    2.2683    0.8793 O   0  0  0  0  0  0  0  0  0  0  0  0
   -5.6466    1.0970    0.3465 C   0  0  0  0  0  0  0  0  0  0  0  0
   -5.1923   -0.1692    1.0884 C   0  0  0  0  0  0  0  0  0  0  0  0
   -1.3593   -1.2563    1.0552 H   0  0  0  0  0  0  0  0  0  0  0  0
    0.6607   -3.1411   -1.0396 H   0  0  0  0  0  0  0  0  0  0  0  0
    2.5359   -3.1501    0.6960 H   0  0  0  0  0  0  0  0  0  0  0  0
    4.2755   -1.6649    1.5831 H   0  0  0  0  0  0  0  0  0  0  0  0
    3.8882    2.0845    1.7859 H   0  0  0  0  0  0  0  0  0  0  0  0
    4.5683    0.7200    2.6432 H   0  0  0  0  0  0  0  0  0  0  0  0
    5.9548    0.1319    0.6093 H   0  0  0  0  0  0  0  0  0  0  0  0
    6.3144    1.7040    1.3144 H   0  0  0  0  0  0  0  0  0  0  0  0
    4.5818    1.2396   -1.1720 H   0  0  0  0  0  0  0  0  0  0  0  0
    4.8817    2.8132   -0.4299 H   0  0  0  0  0  0  0  0  0  0  0  0
    7.0296    0.9523   -1.5783 H   0  0  0  0  0  0  0  0  0  0  0  0
    6.3995    2.4210   -2.3440 H   0  0  0  0  0  0  0  0  0  0  0  0
    7.3338    2.5389   -0.8432 H   0  0  0  0  0  0  0  0  0  0  0  0
    1.9093    1.7605    0.4713 H   0  0  0  0  0  0  0  0  0  0  0  0
    0.1884    0.2849   -0.4342 H   0  0  0  0  0  0  0  0  0  0  0  0
   -5.7298   -2.4812   -3.3338 H   0  0  0  0  0  0  0  0  0  0  0  0
   -1.9663    0.8444    1.4578 H   0  0  0  0  0  0  0  0  0  0  0  0
   -3.3095    0.9880    2.5924 H   0  0  0  0  0  0  0  0  0  0  0  0
   -3.1250    3.0440    1.2059 H   0  0  0  0  0  0  0  0  0  0  0  0
   -3.2908    2.1029   -0.2851 H   0  0  0  0  0  0  0  0  0  0  0  0
   -6.7248    1.2351    0.4734 H   0  0  0  0  0  0  0  0  0  0  0  0
   -5.4387    1.0389   -0.7274 H   0  0  0  0  0  0  0  0  0  0  0  0
   -5.7233   -1.0589    0.7379 H   0  0  0  0  0  0  0  0  0  0  0  0
   -5.4465   -0.0656    2.1513 H   0  0  0  0  0  0  0  0  0  0  0  0
  1  2  1  0
  2  3  1  0
  3  4  1  0
  4  5  2  0
  5  6  1  0
  6  7  2  0
  7  8  1  0
  8  9  1  0
  9 10  1  0
 10 11  1  0
  7 12  1  0
 12 13  2  0
  2 14  2  0
 14 15  1  0
 15 16  2  0
 16 17  1  0
 17 18  2  0
 18 19  1  0
 19 20  2  0
 20 21  1  0
 21 22  1  0
 22 23  1  0
 23 24  1  0
 24 25  1  0
 25 26  1  0
 20  1  1  0
 26 21  1  0
 13  4  1  0
 19 15  1  0
  1 27  1  0
  3 28  1  0
  5 29  1  0
  6 30  1  0
  8 31  1  0
  8 32  1  0
  9 33  1  0
  9 34  1  0
 10 35  1  0
 10 36  1  0
 11 37  1  0
 11 38  1  0
 11 39  1  0
 12 40  1  0
 13 41  1  0
 17 42  1  0
 22 43  1  0
 22 44  1  0
 23 45  1  0
 23 46  1  0
 25 47  1  0
 25 48  1  0
 26 49  1  0
 26 50  1  0
M  END
>  <ScrubInfo>  (6) 
{"isomerGroup": 0, "isomerId": 5, "confId": 0, "nr_conformers:": 1, "nr_isomers:": 9}

$$$$
_i6
     RDKit          3D

 50 53  0  0  0  0  0  0  0  0999 V2000
   -2.2745   -2.8533    0.0302 N   0  0  0  0  0  0  0  0  0  0  0  0
   -3.5932   -3.1129    0.2479 C   0  0  0  0  0  0  0  0  0  0  0  0
   -4.3378   -2.0675    0.5159 N   0  0  0  0  0  0  0  0  0  0  0  0
   -3.4356   -0.9990    0.4789 C   0  0  0  0  0  0  0  0  0  0  0  0
   -3.5529    0.3377    0.6262 C   0  0  0  0  0  0  0  0  0  0  0  0
   -4.7410    1.0248    0.9227 N   0  0  0  0  0  0  0  0  0  0  0  0
   -5.0917    2.2775    0.2093 C   0  0  0  0  0  0  0  0  0  0  0  0
   -6.0394    1.9620   -0.9610 C   0  0  0  0  0  0  0  0  0  0  0  0
   -7.2336    1.3002   -0.5080 O   0  0  0  0  0  0  0  0  0  0  0  0
   -6.9003    0.0713    0.1678 C   0  0  0  0  0  0  0  0  0  0  0  0
   -5.9781    0.3356    1.3675 C   0  0  0  0  0  0  0  0  0  0  0  0
   -2.3738    1.0487    0.4758 N   0  0  0  0  0  0  0  0  0  0  0  0
   -1.1296    0.5117    0.2592 C   0  0  0  0  0  0  0  0  0  0  0  0
   -0.1008    1.3105    0.2708 N   0  0  0  0  0  0  0  0  0  0  0  0
    1.1798    0.7809    0.0571 C   0  0  0  0  0  0  0  0  0  0  0  0
    1.9690    0.3848    1.1387 C   0  0  0  0  0  0  0  0  0  0  0  0
    3.2608   -0.1073    0.9332 C   0  0  0  0  0  0  0  0  0  0  0  0
    3.7847   -0.2027   -0.3626 C   0  0  0  0  0  0  0  0  0  0  0  0
    5.1863   -0.7152   -0.5854 C   0  0  0  0  0  0  0  0  0  0  0  0
    6.2195    0.4101   -0.4863 C   0  0  0  0  0  0  0  0  0  0  0  0
    7.6426   -0.0461   -0.8154 C   0  0  0  0  0  0  0  0  0  0  0  0
    8.2057   -1.0444    0.1842 C   0  0  0  0  0  0  0  0  0  0  0  0
    3.0001    0.2162   -1.4448 C   0  0  0  0  0  0  0  0  0  0  0  0
    1.7090    0.7075   -1.2331 C   0  0  0  0  0  0  0  0  0  0  0  0
   -0.9706   -0.8418    0.0444 N   0  0  0  0  0  0  0  0  0  0  0  0
   -2.0569   -1.5147    0.1589 C   0  0  0  0  0  0  0  0  0  0  0  0
   -1.5459   -3.5161   -0.1745 H   0  0  0  0  0  0  0  0  0  0  0  0
   -3.9297   -4.1585    0.1837 H   0  0  0  0  0  0  0  0  0  0  0  0
   -5.5952    2.9453    0.9187 H   0  0  0  0  0  0  0  0  0  0  0  0
   -4.2068    2.8050   -0.1610 H   0  0  0  0  0  0  0  0  0  0  0  0
   -5.5472    1.3321   -1.7115 H   0  0  0  0  0  0  0  0  0  0  0  0
   -6.3449    2.8917   -1.4511 H   0  0  0  0  0  0  0  0  0  0  0  0
   -6.4458   -0.6137   -0.5561 H   0  0  0  0  0  0  0  0  0  0  0  0
   -7.8375   -0.3770    0.5118 H   0  0  0  0  0  0  0  0  0  0  0  0
   -5.7667   -0.5796    1.9281 H   0  0  0  0  0  0  0  0  0  0  0  0
   -6.4942    1.0053    2.0677 H   0  0  0  0  0  0  0  0  0  0  0  0
   -2.3891    2.0106    0.7755 H   0  0  0  0  0  0  0  0  0  0  0  0
    1.5714    0.4615    2.1463 H   0  0  0  0  0  0  0  0  0  0  0  0
    3.8552   -0.4101    1.7916 H   0  0  0  0  0  0  0  0  0  0  0  0
    5.2458   -1.1973   -1.5693 H   0  0  0  0  0  0  0  0  0  0  0  0
    5.3962   -1.5007    0.1502 H   0  0  0  0  0  0  0  0  0  0  0  0
    5.9494    1.2147   -1.1825 H   0  0  0  0  0  0  0  0  0  0  0  0
    6.1989    0.8521    0.5180 H   0  0  0  0  0  0  0  0  0  0  0  0
    7.6724   -0.4801   -1.8215 H   0  0  0  0  0  0  0  0  0  0  0  0
    8.2946    0.8355   -0.8314 H   0  0  0  0  0  0  0  0  0  0  0  0
    8.1583   -0.6493    1.2038 H   0  0  0  0  0  0  0  0  0  0  0  0
    9.2542   -1.2572   -0.0481 H   0  0  0  0  0  0  0  0  0  0  0  0
    7.6617   -1.9929    0.1542 H   0  0  0  0  0  0  0  0  0  0  0  0
    3.3889    0.1684   -2.4588 H   0  0  0  0  0  0  0  0  0  0  0  0
    1.1082    1.0357   -2.0760 H   0  0  0  0  0  0  0  0  0  0  0  0
  1  2  1  0
  2  3  2  0
  3  4  1  0
  4  5  2  0
  5  6  1  0
  6  7  1  0
  7  8  1  0
  8  9  1  0
  9 10  1  0
 10 11  1  0
  5 12  1  0
 12 13  1  0
 13 14  2  3
 14 15  1  0
 15 16  2  0
 16 17  1  0
 17 18  2  0
 18 19  1  0
 19 20  1  0
 20 21  1  0
 21 22  1  0
 18 23  1  0
 23 24  2  0
 13 25  1  0
 25 26  2  0
 26  1  1  0
 26  4  1  0
 11  6  1  0
 24 15  1  0
  1 27  1  0
  2 28  1  0
  7 29  1  0
  7 30  1  0
  8 31  1  0
  8 32  1  0
 10 33  1  0
 10 34  1  0
 11 35  1  0
 11 36  1  0
 12 37  1  0
 16 38  1  0
 17 39  1  0
 19 40  1  0
 19 41  1  0
 20 42  1  0
 20 43  1  0
 21 44  1  0
 21 45  1  0
 22 46  1  0
 22 47  1  0
 22 48  1  0
 23 49  1  0
 24 50  1  0
M  END
>  <ScrubInfo>  (7) 
{"isomerGroup": 0, "isomerId": 6, "confId": 0, "nr_conformers:": 1, "nr_isomers:": 9}

$$$$
_i7
     RDKit          3D

 50 53  0  0  0  0  0  0  0  0999 V2000
   -1.5261    3.5392   -0.1088 N   0  0  0  0  0  0  0  0  0  0  0  0
   -1.7027    2.5270   -0.9975 C   0  0  0  0  0  0  0  0  0  0  0  0
   -0.8669    1.9610   -1.8159 N   0  0  0  0  0  0  0  0  0  0  0  0
   -1.6402    0.9981   -2.4505 C   0  0  0  0  0  0  0  0  0  0  0  0
   -2.8926    0.9094   -2.1045 N   0  0  0  0  0  0  0  0  0  0  0  0
   -3.0172    1.8832   -1.1524 C   0  0  0  0  0  0  0  0  0  0  0  0
   -4.0210    2.3306   -0.3600 C   0  0  0  0  0  0  0  0  0  0  0  0
   -5.3344    1.8216   -0.3791 N   0  0  0  0  0  0  0  0  0  0  0  0
   -5.9754    1.4215    0.9007 C   0  0  0  0  0  0  0  0  0  0  0  0
   -7.5021    1.3758    0.7530 C   0  0  0  0  0  0  0  0  0  0  0  0
   -7.9021    0.4870   -0.2990 O   0  0  0  0  0  0  0  0  0  0  0  0
   -7.3387    0.9232   -1.5449 C   0  0  0  0  0  0  0  0  0  0  0  0
   -5.8037    0.9574   -1.4954 C   0  0  0  0  0  0  0  0  0  0  0  0
   -3.7228    3.3759    0.5198 N   0  0  0  0  0  0  0  0  0  0  0  0
   -2.5273    4.0450    0.6867 C   0  0  0  0  0  0  0  0  0  0  0  0
   -2.4607    5.0367    1.5248 N   0  0  0  0  0  0  0  0  0  0  0  0
   -1.2384    5.7037    1.6749 C   0  0  0  0  0  0  0  0  0  0  0  0
   -0.9365    6.8099    0.8789 C   0  0  0  0  0  0  0  0  0  0  0  0
    0.2863    7.4703    1.0192 C   0  0  0  0  0  0  0  0  0  0  0  0
    1.2224    7.0338    1.9655 C   0  0  0  0  0  0  0  0  0  0  0  0
    2.5345    7.7590    2.1344 C   0  0  0  0  0  0  0  0  0  0  0  0
    2.4274    8.8917    3.1576 C   0  0  0  0  0  0  0  0  0  0  0  0
    3.7619    9.6190    3.3204 C   0  0  0  0  0  0  0  0  0  0  0  0
    3.6620   10.7459    4.3361 C   0  0  0  0  0  0  0  0  0  0  0  0
    0.9063    5.9386    2.7797 C   0  0  0  0  0  0  0  0  0  0  0  0
   -0.3179    5.2814    2.6355 C   0  0  0  0  0  0  0  0  0  0  0  0
   -0.6113    3.9619   -0.0581 H   0  0  0  0  0  0  0  0  0  0  0  0
   -1.1915    0.3440   -3.2151 H   0  0  0  0  0  0  0  0  0  0  0  0
   -5.7237    2.1147    1.7100 H   0  0  0  0  0  0  0  0  0  0  0  0
   -5.6010    0.4286    1.1796 H   0  0  0  0  0  0  0  0  0  0  0  0
   -7.9082    2.3744    0.5518 H   0  0  0  0  0  0  0  0  0  0  0  0
   -7.9536    1.0132    1.6819 H   0  0  0  0  0  0  0  0  0  0  0  0
   -7.6687    0.2245   -2.3202 H   0  0  0  0  0  0  0  0  0  0  0  0
   -7.7452    1.9113   -1.7921 H   0  0  0  0  0  0  0  0  0  0  0  0
   -5.4486    1.3406   -2.4583 H   0  0  0  0  0  0  0  0  0  0  0  0
   -5.4189   -0.0588   -1.3475 H   0  0  0  0  0  0  0  0  0  0  0  0
   -4.5179    3.7720    0.9988 H   0  0  0  0  0  0  0  0  0  0  0  0
   -1.6609    7.1600    0.1484 H   0  0  0  0  0  0  0  0  0  0  0  0
    0.4996    8.3322    0.3910 H   0  0  0  0  0  0  0  0  0  0  0  0
    3.3082    7.0436    2.4410 H   0  0  0  0  0  0  0  0  0  0  0  0
    2.8583    8.1551    1.1635 H   0  0  0  0  0  0  0  0  0  0  0  0
    1.6560    9.6063    2.8436 H   0  0  0  0  0  0  0  0  0  0  0  0
    2.1082    8.4893    4.1274 H   0  0  0  0  0  0  0  0  0  0  0  0
    4.5346    8.9116    3.6432 H   0  0  0  0  0  0  0  0  0  0  0  0
    4.0814   10.0313    2.3562 H   0  0  0  0  0  0  0  0  0  0  0  0
    3.3753   10.3625    5.3205 H   0  0  0  0  0  0  0  0  0  0  0  0
    4.6272   11.2522    4.4367 H   0  0  0  0  0  0  0  0  0  0  0  0
    2.9196   11.4884    4.0266 H   0  0  0  0  0  0  0  0  0  0  0  0
    1.6076    5.5951    3.5369 H   0  0  0  0  0  0  0  0  0  0  0  0
   -0.5591    4.4381    3.2768 H   0  0  0  0  0  0  0  0  0  0  0  0
  1  2  1  0
  2  3  2  0
  3  4  1  0
  4  5  2  0
  5  6  1  0
  6  7  2  0
  7  8  1  0
  8  9  1  0
  9 10  1  0
 10 11  1  0
 11 12  1  0
 12 13  1  0
  7 14  1  0
 14 15  1  0
 15 16  2  3
 16 17  1  0
 17 18  2  0
 18 19  1  0
 19 20  2  0
 20 21  1  0
 21 22  1  0
 22 23  1  0
 23 24  1  0
 20 25  1  0
 25 26  2  0
 15  1  1  0
 26 17  1  0
  6  2  1  0
 13  8  1  0
  1 27  1  0
  4 28  1  0
  9 29  1  0
  9 30  1  0
 10 31  1  0
 10 32  1  0
 12 33  1  0
 12 34  1  0
 13 35  1  0
 13 36  1  0
 14 37  1  0
 18 38  1  0
 19 39  1  0
 21 40  1  0
 21 41  1  0
 22 42  1  0
 22 43  1  0
 23 44  1  0
 23 45  1  0
 24 46  1  0
 24 47  1  0
 24 48  1  0
 25 49  1  0
 26 50  1  0
M  END
>  <ScrubInfo>  (8) 
{"isomerGroup": 0, "isomerId": 7, "confId": 0, "nr_conformers:": 1, "nr_isomers:": 9}

$$$$
_i8
     RDKit          3D

 50 53  0  0  0  0  0  0  0  0999 V2000
   -3.1535    3.6815   -1.8623 N   0  0  0  0  0  0  0  0  0  0  0  0
   -2.5326    2.4674   -2.1243 C   0  0  0  0  0  0  0  0  0  0  0  0
   -1.5301    2.2905   -2.9310 N   0  0  0  0  0  0  0  0  0  0  0  0
   -0.9943    3.3888   -3.6109 C   0  0  0  0  0  0  0  0  0  0  0  0
    0.0390    4.1353   -3.0424 C   0  0  0  0  0  0  0  0  0  0  0  0
    0.5640    5.2434   -3.7118 C   0  0  0  0  0  0  0  0  0  0  0  0
    0.0670    5.6142   -4.9680 C   0  0  0  0  0  0  0  0  0  0  0  0
    0.6328    6.8102   -5.6945 C   0  0  0  0  0  0  0  0  0  0  0  0
   -0.3359    7.9956   -5.7848 C   0  0  0  0  0  0  0  0  0  0  0  0
   -0.7298    8.6212   -4.4427 C   0  0  0  0  0  0  0  0  0  0  0  0
    0.4415    9.2353   -3.6917 C   0  0  0  0  0  0  0  0  0  0  0  0
   -0.9546    4.8481   -5.5458 C   0  0  0  0  0  0  0  0  0  0  0  0
   -1.4762    3.7409   -4.8725 C   0  0  0  0  0  0  0  0  0  0  0  0
   -2.9626    1.2958   -1.5173 N   0  0  0  0  0  0  0  0  0  0  0  0
   -3.9747    1.2950   -0.6846 C   0  0  0  0  0  0  0  0  0  0  0  0
   -4.4129    0.1324   -0.0550 N   0  0  0  0  0  0  0  0  0  0  0  0
   -4.1749   -1.1496   -0.7541 C   0  0  0  0  0  0  0  0  0  0  0  0
   -5.3971   -1.4622   -1.6354 C   0  0  0  0  0  0  0  0  0  0  0  0
   -6.6092   -1.5216   -0.8557 O   0  0  0  0  0  0  0  0  0  0  0  0
   -6.8238   -0.2886   -0.1355 C   0  0  0  0  0  0  0  0  0  0  0  0
   -5.6258    0.0257    0.7715 C   0  0  0  0  0  0  0  0  0  0  0  0
   -4.6743    2.5560   -0.4193 C   0  0  0  0  0  0  0  0  0  0  0  0
   -5.7958    2.8703    0.3136 N   0  0  0  0  0  0  0  0  0  0  0  0
   -5.9578    4.1705    0.1550 C   0  0  0  0  0  0  0  0  0  0  0  0
   -5.0004    4.7136   -0.6667 N   0  0  0  0  0  0  0  0  0  0  0  0
   -4.2043    3.6831   -1.0367 C   0  0  0  0  0  0  0  0  0  0  0  0
   -2.7940    4.4920   -2.3475 H   0  0  0  0  0  0  0  0  0  0  0  0
    0.4383    3.8451   -2.0738 H   0  0  0  0  0  0  0  0  0  0  0  0
    1.3694    5.8076   -3.2473 H   0  0  0  0  0  0  0  0  0  0  0  0
    0.9004    6.4930   -6.7111 H   0  0  0  0  0  0  0  0  0  0  0  0
    1.5757    7.1252   -5.2325 H   0  0  0  0  0  0  0  0  0  0  0  0
    0.1222    8.7693   -6.4138 H   0  0  0  0  0  0  0  0  0  0  0  0
   -1.2522    7.6837   -6.3015 H   0  0  0  0  0  0  0  0  0  0  0  0
   -1.2268    7.8816   -3.8053 H   0  0  0  0  0  0  0  0  0  0  0  0
   -1.4675    9.4096   -4.6356 H   0  0  0  0  0  0  0  0  0  0  0  0
    1.1593    8.4747   -3.3725 H   0  0  0  0  0  0  0  0  0  0  0  0
    0.9663    9.9674   -4.3136 H   0  0  0  0  0  0  0  0  0  0  0  0
    0.0832    9.7493   -2.7940 H   0  0  0  0  0  0  0  0  0  0  0  0
   -1.3428    5.1008   -6.5300 H   0  0  0  0  0  0  0  0  0  0  0  0
   -2.2583    3.1429   -5.3329 H   0  0  0  0  0  0  0  0  0  0  0  0
   -4.0527   -1.9392   -0.0025 H   0  0  0  0  0  0  0  0  0  0  0  0
   -3.2593   -1.1388   -1.3541 H   0  0  0  0  0  0  0  0  0  0  0  0
   -5.5233   -0.7097   -2.4226 H   0  0  0  0  0  0  0  0  0  0  0  0
   -5.2693   -2.4364   -2.1174 H   0  0  0  0  0  0  0  0  0  0  0  0
   -7.0111    0.5126   -0.8590 H   0  0  0  0  0  0  0  0  0  0  0  0
   -7.7266   -0.4175    0.4692 H   0  0  0  0  0  0  0  0  0  0  0  0
   -5.7946    0.8911    1.4130 H   0  0  0  0  0  0  0  0  0  0  0  0
   -5.4854   -0.8146    1.4648 H   0  0  0  0  0  0  0  0  0  0  0  0
   -6.7420    4.7694    0.5994 H   0  0  0  0  0  0  0  0  0  0  0  0
   -4.9263    5.6824   -0.9423 H   0  0  0  0  0  0  0  0  0  0  0  0
  1  2  1  0
  2  3  2  3
  3  4  1  0
  4  5  2  0
  5  6  1  0
  6  7  2  0
  7  8  1  0
  8  9  1  0
  9 10  1  0
 10 11  1  0
  7 12  1  0
 12 13  2  0
  2 14  1  0
 14 15  2  0
 15 16  1  0
 16 17  1  0
 17 18  1  0
 18 19  1  0
 19 20  1  0
 20 21  1  0
 15 22  1  0
 22 23  1  0
 23 24  2  0
 24 25  1  0
 25 26  1  0
 26  1  1  0
 13  4  1  0
 21 16  1  0
 26 22  2  0
  1 27  1  0
  5 28  1  0
  6 29  1  0
  8 30  1  0
  8 31  1  0
  9 32  1  0
  9 33  1  0
 10 34  1  0
 10 35  1  0
 11 36  1  0
 11 37  1  0
 11 38  1  0
 12 39  1  0
 13 40  1  0
 17 41  1  0
 17 42  1  0
 18 43  1  0
 18 44  1  0
 20 45  1  0
 20 46  1  0
 21 47  1  0
 21 48  1  0
 24 49  1  0
 25 50  1  0
M  END
>  <ScrubInfo>  (9) 
{"isomerGroup": 0, "isomerId": 8, "confId": 0, "nr_conformers:": 1, "nr_isomers:": 9}

$$$$
