REMARK SMILES c1ccc(CNc2nc(Nc3cc(C4CC4)[nH]n3)c3sccc3n2)cc1
REMARK SMILES IDX 7 1 8 2 9 3 19 4 20 5 21 6 22 7 23 8 24 9 6 10 5 12 4 13
REMARK SMILES IDX 1 14 2 15 26 16 3 17 25 18 10 19 11 21 12 22 18 23 13 24
REMARK SMILES IDX 17 25 14 27 15 28 16 29
REMARK H PARENT 6 11 10 20 17 26
ROOT
ATOM      1  C   UNL     1      -1.694  -1.087  -0.354  1.00  0.00     0.225 A 
ATOM      2  N   UNL     1      -0.479  -0.617  -0.653  1.00  0.00    -0.194 NA
ATOM      3  C   UNL     1       0.633  -1.193  -0.129  1.00  0.00     0.155 A 
ATOM      4  C   UNL     1       0.456  -2.343   0.650  1.00  0.00     0.096 A 
ATOM      5  S   UNL     1       1.585  -3.445   1.349  1.00  0.00    -0.138 S 
ATOM      6  C   UNL     1       0.359  -4.409   2.037  1.00  0.00     0.068 A 
ATOM      7  C   UNL     1      -0.893  -3.940   1.720  1.00  0.00     0.041 A 
ATOM      8  C   UNL     1      -0.845  -2.768   0.908  1.00  0.00     0.089 A 
ATOM      9  N   UNL     1      -1.938  -2.133   0.429  1.00  0.00    -0.212 NA
ENDROOT
BRANCH   1  10
ATOM     10  N   UNL     1      -2.748  -0.390  -0.931  1.00  0.00    -0.350 N 
ATOM     11  H   UNL     1      -2.377   0.507  -1.222  1.00  0.00     0.164 HD
BRANCH  10  12
ATOM     12  C   UNL     1      -3.931  -0.313  -0.099  1.00  0.00     0.151 C 
BRANCH  12  13
ATOM     13  C   UNL     1      -4.910   0.655  -0.723  1.00  0.00    -0.029 A 
ATOM     14  C   UNL     1      -6.711   2.451  -1.908  1.00  0.00     0.000 A 
ATOM     15  C   UNL     1      -6.507   1.194  -2.474  1.00  0.00     0.000 A 
ATOM     16  C   UNL     1      -6.015   2.817  -0.757  1.00  0.00     0.000 A 
ATOM     17  C   UNL     1      -5.610   0.301  -1.887  1.00  0.00     0.005 A 
ATOM     18  C   UNL     1      -5.116   1.926  -0.168  1.00  0.00     0.005 A 
ENDBRANCH  12  13
ENDBRANCH  10  12
ENDBRANCH   1  10
BRANCH   3  19
ATOM     19  N   UNL     1       1.841  -0.592  -0.512  1.00  0.00    -0.322 N 
ATOM     20  H   UNL     1       1.629   0.058  -1.259  1.00  0.00     0.170 HD
BRANCH  19  21
ATOM     21  C   UNL     1       2.975  -0.385   0.191  1.00  0.00     0.153 A 
ATOM     22  C   UNL     1       4.087   0.278  -0.391  1.00  0.00     0.072 A 
ATOM     23  N   UNL     1       3.216  -0.689   1.469  1.00  0.00    -0.158 NA
ATOM     24  C   UNL     1       5.028   0.339   0.604  1.00  0.00     0.040 A 
ATOM     25  N   UNL     1       4.469  -0.264   1.688  1.00  0.00    -0.280 N 
ATOM     26  H   UNL     1       4.877  -0.410   2.604  1.00  0.00     0.190 HD
BRANCH  24  27
ATOM     27  C   UNL     1       6.447   0.934   0.512  1.00  0.00     0.038 C 
ATOM     28  C   UNL     1       6.872   1.966   1.524  1.00  0.00     0.010 C 
ATOM     29  C   UNL     1       6.609   2.374   0.104  1.00  0.00     0.010 C 
ENDBRANCH  24  27
ENDBRANCH  19  21
ENDBRANCH   3  19
TORSDOF 6
