_i0
     RDKit          3D

 44 48  0  0  0  0  0  0  0  0999 V2000
   -6.7106    2.4506   -1.9082 C   0  0  0  0  0  0  0  0  0  0  0  0
   -6.5071    1.1935   -2.4742 C   0  0  0  0  0  0  0  0  0  0  0  0
   -5.6100    0.3006   -1.8867 C   0  0  0  0  0  0  0  0  0  0  0  0
   -4.9101    0.6547   -0.7234 C   0  0  0  0  0  0  0  0  0  0  0  0
   -3.9307   -0.3132   -0.0988 C   0  0  0  0  0  0  0  0  0  0  0  0
   -2.7476   -0.3903   -0.9306 N   0  0  0  0  0  0  0  0  0  0  0  0
   -1.6944   -1.0870   -0.3541 C   0  0  0  0  0  0  0  0  0  0  0  0
   -0.4793   -0.6169   -0.6534 N   0  0  0  0  0  0  0  0  0  0  0  0
    0.6334   -1.1926   -0.1291 C   0  0  0  0  0  0  0  0  0  0  0  0
    1.8413   -0.5921   -0.5116 N   0  0  0  0  0  0  0  0  0  0  0  0
    2.9750   -0.3849    0.1906 C   0  0  0  0  0  0  0  0  0  0  0  0
    4.0869    0.2784   -0.3910 C   0  0  0  0  0  0  0  0  0  0  0  0
    5.0284    0.3386    0.6043 C   0  0  0  0  0  0  0  0  0  0  0  0
    6.4474    0.9345    0.5124 C   0  0  0  0  0  0  0  0  0  0  0  0
    6.8720    1.9657    1.5237 C   0  0  0  0  0  0  0  0  0  0  0  0
    6.6088    2.3743    0.1039 C   0  0  0  0  0  0  0  0  0  0  0  0
    4.4690   -0.2636    1.6876 N   0  0  0  0  0  0  0  0  0  0  0  0
    3.2161   -0.6888    1.4688 N   0  0  0  0  0  0  0  0  0  0  0  0
    0.4559   -2.3432    0.6501 C   0  0  0  0  0  0  0  0  0  0  0  0
    1.5850   -3.4451    1.3485 S   0  0  0  0  0  0  0  0  0  0  0  0
    0.3586   -4.4085    2.0371 C   0  0  0  0  0  0  0  0  0  0  0  0
   -0.8933   -3.9404    1.7197 C   0  0  0  0  0  0  0  0  0  0  0  0
   -0.8451   -2.7681    0.9077 C   0  0  0  0  0  0  0  0  0  0  0  0
   -1.9377   -2.1330    0.4289 N   0  0  0  0  0  0  0  0  0  0  0  0
   -5.1164    1.9259   -0.1683 C   0  0  0  0  0  0  0  0  0  0  0  0
   -6.0150    2.8175   -0.7574 C   0  0  0  0  0  0  0  0  0  0  0  0
   -7.4086    3.1460   -2.3667 H   0  0  0  0  0  0  0  0  0  0  0  0
   -7.0435    0.9087   -3.3755 H   0  0  0  0  0  0  0  0  0  0  0  0
   -5.4478   -0.6749   -2.3417 H   0  0  0  0  0  0  0  0  0  0  0  0
   -4.4174   -1.2929   -0.0080 H   0  0  0  0  0  0  0  0  0  0  0  0
   -3.6811    0.0249    0.9157 H   0  0  0  0  0  0  0  0  0  0  0  0
   -2.3770    0.5070   -1.2217 H   0  0  0  0  0  0  0  0  0  0  0  0
    1.6287    0.0580   -1.2594 H   0  0  0  0  0  0  0  0  0  0  0  0
    4.1842    0.6504   -1.4001 H   0  0  0  0  0  0  0  0  0  0  0  0
    7.2068    0.2387    0.1668 H   0  0  0  0  0  0  0  0  0  0  0  0
    6.1641    2.2944    2.2760 H   0  0  0  0  0  0  0  0  0  0  0  0
    7.9016    1.9494    1.8628 H   0  0  0  0  0  0  0  0  0  0  0  0
    7.4585    2.6306   -0.5184 H   0  0  0  0  0  0  0  0  0  0  0  0
    5.7221    2.9655   -0.0952 H   0  0  0  0  0  0  0  0  0  0  0  0
    4.8768   -0.4097    2.6042 H   0  0  0  0  0  0  0  0  0  0  0  0
    0.6129   -5.2769    2.6289 H   0  0  0  0  0  0  0  0  0  0  0  0
   -1.8115   -4.4159    2.0379 H   0  0  0  0  0  0  0  0  0  0  0  0
   -4.5785    2.2302    0.7268 H   0  0  0  0  0  0  0  0  0  0  0  0
   -6.1711    3.7999   -0.3193 H   0  0  0  0  0  0  0  0  0  0  0  0
  1  2  2  0
  2  3  1  0
  3  4  2  0
  4  5  1  0
  5  6  1  0
  6  7  1  0
  7  8  2  0
  8  9  1  0
  9 10  1  0
 10 11  1  0
 11 12  1  0
 12 13  2  0
 13 14  1  0
 14 15  1  0
 15 16  1  0
 13 17  1  0
 17 18  1  0
  9 19  2  0
 19 20  1  0
 20 21  1  0
 21 22  2  0
 22 23  1  0
 23 24  2  0
  4 25  1  0
 25 26  2  0
 26  1  1  0
 24  7  1  0
 18 11  2  0
 23 19  1  0
 16 14  1  0
  1 27  1  0
  2 28  1  0
  3 29  1  0
  5 30  1  0
  5 31  1  0
  6 32  1  0
 10 33  1  0
 12 34  1  0
 14 35  1  0
 15 36  1  0
 15 37  1  0
 16 38  1  0
 16 39  1  0
 17 40  1  0
 21 41  1  0
 22 42  1  0
 25 43  1  0
 26 44  1  0
M  END
>  <ScrubInfo>  (1) 
{"isomerGroup": 0, "isomerId": 0, "confId": 0, "nr_conformers:": 1, "nr_isomers:": 14}

$$$$
_i1
     RDKit          3D

 44 48  0  0  0  0  0  0  0  0999 V2000
   -0.5503    0.0592   -0.7525 N   0  0  0  0  0  0  0  0  0  0  0  0
    0.6488   -0.5933   -0.9808 C   0  0  0  0  0  0  0  0  0  0  0  0
    1.8064    0.1634   -1.0849 N   0  0  0  0  0  0  0  0  0  0  0  0
    2.9755   -0.0186   -0.4239 C   0  0  0  0  0  0  0  0  0  0  0  0
    4.0902    0.8316   -0.6361 C   0  0  0  0  0  0  0  0  0  0  0  0
    5.0611    0.3615    0.2112 C   0  0  0  0  0  0  0  0  0  0  0  0
    6.4976    0.8980    0.3735 C   0  0  0  0  0  0  0  0  0  0  0  0
    6.9878    1.2636    1.7492 C   0  0  0  0  0  0  0  0  0  0  0  0
    6.6993    2.3423    0.7467 C   0  0  0  0  0  0  0  0  0  0  0  0
    4.5137   -0.7012    0.8604 N   0  0  0  0  0  0  0  0  0  0  0  0
    3.2396   -0.9347    0.5126 N   0  0  0  0  0  0  0  0  0  0  0  0
    0.5719   -1.9310   -1.1467 C   0  0  0  0  0  0  0  0  0  0  0  0
    1.7449   -3.1062   -1.5853 S   0  0  0  0  0  0  0  0  0  0  0  0
    0.5396   -4.3520   -1.5471 C   0  0  0  0  0  0  0  0  0  0  0  0
   -0.7095   -3.9802   -1.2543 C   0  0  0  0  0  0  0  0  0  0  0  0
   -0.7824   -2.5293   -1.0176 C   0  0  0  0  0  0  0  0  0  0  0  0
   -1.8860   -1.9140   -0.7484 N   0  0  0  0  0  0  0  0  0  0  0  0
   -1.7558   -0.5583   -0.5657 C   0  0  0  0  0  0  0  0  0  0  0  0
   -2.7680    0.1592   -0.2094 N   0  0  0  0  0  0  0  0  0  0  0  0
   -4.0360   -0.5424   -0.0179 C   0  0  0  0  0  0  0  0  0  0  0  0
   -5.1208    0.4244    0.3992 C   0  0  0  0  0  0  0  0  0  0  0  0
   -5.9329    1.0426   -0.5615 C   0  0  0  0  0  0  0  0  0  0  0  0
   -6.9252    1.9453   -0.1750 C   0  0  0  0  0  0  0  0  0  0  0  0
   -7.1081    2.2462    1.1738 C   0  0  0  0  0  0  0  0  0  0  0  0
   -6.2951    1.6503    2.1365 C   0  0  0  0  0  0  0  0  0  0  0  0
   -5.3026    0.7475    1.7511 C   0  0  0  0  0  0  0  0  0  0  0  0
   -0.5119    1.0211   -0.4526 H   0  0  0  0  0  0  0  0  0  0  0  0
    1.6285    1.0860   -1.4613 H   0  0  0  0  0  0  0  0  0  0  0  0
    4.1739    1.6626   -1.3204 H   0  0  0  0  0  0  0  0  0  0  0  0
    7.2213    0.4621   -0.3094 H   0  0  0  0  0  0  0  0  0  0  0  0
    8.0254    1.0597    1.9884 H   0  0  0  0  0  0  0  0  0  0  0  0
    6.3141    1.1750    2.5939 H   0  0  0  0  0  0  0  0  0  0  0  0
    7.5399    2.8655    0.3055 H   0  0  0  0  0  0  0  0  0  0  0  0
    5.8297    2.9675    0.9146 H   0  0  0  0  0  0  0  0  0  0  0  0
    4.9438   -1.3017    1.5549 H   0  0  0  0  0  0  0  0  0  0  0  0
    0.8124   -5.3793   -1.7567 H   0  0  0  0  0  0  0  0  0  0  0  0
   -1.5764   -4.6168   -1.1914 H   0  0  0  0  0  0  0  0  0  0  0  0
   -4.3501   -1.0432   -0.9432 H   0  0  0  0  0  0  0  0  0  0  0  0
   -3.9441   -1.3153    0.7567 H   0  0  0  0  0  0  0  0  0  0  0  0
   -5.7887    0.8246   -1.6170 H   0  0  0  0  0  0  0  0  0  0  0  0
   -7.5509    2.4173   -0.9274 H   0  0  0  0  0  0  0  0  0  0  0  0
   -7.8786    2.9510    1.4738 H   0  0  0  0  0  0  0  0  0  0  0  0
   -6.4288    1.8922    3.1872 H   0  0  0  0  0  0  0  0  0  0  0  0
   -4.6633    0.2980    2.5073 H   0  0  0  0  0  0  0  0  0  0  0  0
  1  2  1  0
  2  3  1  0
  3  4  1  0
  4  5  1  0
  5  6  2  0
  6  7  1  0
  7  8  1  0
  8  9  1  0
  6 10  1  0
 10 11  1  0
  2 12  2  0
 12 13  1  0
 13 14  1  0
 14 15  2  0
 15 16  1  0
 16 17  2  0
 17 18  1  0
 18 19  2  3
 19 20  1  0
 20 21  1  0
 21 22  2  0
 22 23  1  0
 23 24  2  0
 24 25  1  0
 25 26  2  0
 18  1  1  0
 26 21  1  0
 11  4  2  0
 16 12  1  0
  9  7  1  0
  1 27  1  0
  3 28  1  0
  5 29  1  0
  7 30  1  0
  8 31  1  0
  8 32  1  0
  9 33  1  0
  9 34  1  0
 10 35  1  0
 14 36  1  0
 15 37  1  0
 20 38  1  0
 20 39  1  0
 22 40  1  0
 23 41  1  0
 24 42  1  0
 25 43  1  0
 26 44  1  0
M  END
>  <ScrubInfo>  (2) 
{"isomerGroup": 0, "isomerId": 1, "confId": 0, "nr_conformers:": 1, "nr_isomers:": 14}

$$$$
_i2
     RDKit          3D

 44 48  0  0  0  0  0  0  0  0999 V2000
   -0.0729   -1.4124    0.0820 N   0  0  0  0  0  0  0  0  0  0  0  0
   -1.3701   -1.8449    0.0662 C   0  0  0  0  0  0  0  0  0  0  0  0
   -2.3246   -0.8957    0.2974 N   0  0  0  0  0  0  0  0  0  0  0  0
   -2.2835    0.4210   -0.3089 C   0  0  0  0  0  0  0  0  0  0  0  0
   -3.5595    1.1638    0.0026 C   0  0  0  0  0  0  0  0  0  0  0  0
   -3.8151    1.6173    1.3058 C   0  0  0  0  0  0  0  0  0  0  0  0
   -4.9977    2.2969    1.6006 C   0  0  0  0  0  0  0  0  0  0  0  0
   -5.9380    2.5269    0.5983 C   0  0  0  0  0  0  0  0  0  0  0  0
   -5.6989    2.0746   -0.6982 C   0  0  0  0  0  0  0  0  0  0  0  0
   -4.5169    1.3939   -0.9956 C   0  0  0  0  0  0  0  0  0  0  0  0
   -1.7507   -3.0809   -0.1481 N   0  0  0  0  0  0  0  0  0  0  0  0
   -0.6735   -3.9693   -0.3823 C   0  0  0  0  0  0  0  0  0  0  0  0
   -0.8520   -5.3453   -0.6543 C   0  0  0  0  0  0  0  0  0  0  0  0
    0.3626   -5.9768   -0.8423 C   0  0  0  0  0  0  0  0  0  0  0  0
    1.6922   -4.8941   -0.6852 S   0  0  0  0  0  0  0  0  0  0  0  0
    0.6517   -3.5967   -0.3704 C   0  0  0  0  0  0  0  0  0  0  0  0
    1.0248   -2.2230   -0.1026 C   0  0  0  0  0  0  0  0  0  0  0  0
    2.2830   -1.9091   -0.0567 N   0  0  0  0  0  0  0  0  0  0  0  0
    2.6218   -0.5837    0.2134 C   0  0  0  0  0  0  0  0  0  0  0  0
    3.9572   -0.1459    0.1948 C   0  0  0  0  0  0  0  0  0  0  0  0
    3.8785    1.1850    0.5180 C   0  0  0  0  0  0  0  0  0  0  0  0
    5.0521    2.1753    0.6646 C   0  0  0  0  0  0  0  0  0  0  0  0
    5.0155    3.4697   -0.1033 C   0  0  0  0  0  0  0  0  0  0  0  0
    5.9750    2.3881   -0.5052 C   0  0  0  0  0  0  0  0  0  0  0  0
    2.5583    1.4567    0.7199 N   0  0  0  0  0  0  0  0  0  0  0  0
    1.7560    0.3878    0.5287 N   0  0  0  0  0  0  0  0  0  0  0  0
    0.1565   -0.4769    0.3994 H   0  0  0  0  0  0  0  0  0  0  0  0
   -3.2473   -1.3178    0.2188 H   0  0  0  0  0  0  0  0  0  0  0  0
   -1.4371    1.0041    0.0721 H   0  0  0  0  0  0  0  0  0  0  0  0
   -2.1527    0.3300   -1.3939 H   0  0  0  0  0  0  0  0  0  0  0  0
   -3.0937    1.4315    2.0993 H   0  0  0  0  0  0  0  0  0  0  0  0
   -5.1878    2.6415    2.6139 H   0  0  0  0  0  0  0  0  0  0  0  0
   -6.8603    3.0537    0.8289 H   0  0  0  0  0  0  0  0  0  0  0  0
   -6.4362    2.2491   -1.4779 H   0  0  0  0  0  0  0  0  0  0  0  0
   -4.3512    1.0424   -2.0119 H   0  0  0  0  0  0  0  0  0  0  0  0
   -1.8093   -5.8462   -0.7088 H   0  0  0  0  0  0  0  0  0  0  0  0
    0.5406   -7.0201   -1.0630 H   0  0  0  0  0  0  0  0  0  0  0  0
    4.8410   -0.7270   -0.0217 H   0  0  0  0  0  0  0  0  0  0  0  0
    5.5027    2.1974    1.6530 H   0  0  0  0  0  0  0  0  0  0  0  0
    5.4232    4.3541    0.3734 H   0  0  0  0  0  0  0  0  0  0  0  0
    4.1854    3.6701   -0.7707 H   0  0  0  0  0  0  0  0  0  0  0  0
    5.7805    1.8557   -1.4296 H   0  0  0  0  0  0  0  0  0  0  0  0
    7.0284    2.5367   -0.2968 H   0  0  0  0  0  0  0  0  0  0  0  0
    2.1417    2.3424    0.9859 H   0  0  0  0  0  0  0  0  0  0  0  0
  1  2  1  0
  2  3  1  0
  3  4  1  0
  4  5  1  0
  5  6  2  0
  6  7  1  0
  7  8  2  0
  8  9  1  0
  9 10  2  0
  2 11  2  0
 11 12  1  0
 12 13  1  0
 13 14  2  0
 14 15  1  0
 15 16  1  0
 16 17  1  0
 17 18  2  3
 18 19  1  0
 19 20  1  0
 20 21  2  0
 21 22  1  0
 22 23  1  0
 23 24  1  0
 21 25  1  0
 25 26  1  0
 17  1  1  0
 26 19  2  0
 10  5  1  0
 16 12  2  0
 24 22  1  0
  1 27  1  0
  3 28  1  0
  4 29  1  0
  4 30  1  0
  6 31  1  0
  7 32  1  0
  8 33  1  0
  9 34  1  0
 10 35  1  0
 13 36  1  0
 14 37  1  0
 20 38  1  0
 22 39  1  0
 23 40  1  0
 23 41  1  0
 24 42  1  0
 24 43  1  0
 25 44  1  0
M  END
>  <ScrubInfo>  (3) 
{"isomerGroup": 0, "isomerId": 2, "confId": 0, "nr_conformers:": 1, "nr_isomers:": 14}

$$$$
_i3
     RDKit          3D

 44 48  0  0  0  0  0  0  0  0999 V2000
    4.0527    0.8123    2.0805 N   0  0  0  0  0  0  0  0  0  0  0  0
    4.8658    0.9021    0.9762 N   0  0  0  0  0  0  0  0  0  0  0  0
    4.1260    0.5306   -0.1500 C   0  0  0  0  0  0  0  0  0  0  0  0
    4.6935    0.7083   -1.4832 C   0  0  0  0  0  0  0  0  0  0  0  0
    5.0323    2.0980   -1.9633 C   0  0  0  0  0  0  0  0  0  0  0  0
    3.8744    1.3608   -2.5681 C   0  0  0  0  0  0  0  0  0  0  0  0
    2.9217    0.0265    0.1830 C   0  0  0  0  0  0  0  0  0  0  0  0
    2.9028    0.1462    1.6745 C   0  0  0  0  0  0  0  0  0  0  0  0
    2.0350   -0.3128    2.5157 N   0  0  0  0  0  0  0  0  0  0  0  0
    0.9124   -0.9814    2.0347 C   0  0  0  0  0  0  0  0  0  0  0  0
    0.0345   -0.3212    1.2620 N   0  0  0  0  0  0  0  0  0  0  0  0
   -1.0573   -0.9643    0.8416 C   0  0  0  0  0  0  0  0  0  0  0  0
   -1.8927   -0.2156    0.0236 N   0  0  0  0  0  0  0  0  0  0  0  0
   -3.3026   -0.4829    0.2203 C   0  0  0  0  0  0  0  0  0  0  0  0
   -4.1090    0.5414   -0.5450 C   0  0  0  0  0  0  0  0  0  0  0  0
   -4.2128    0.4602   -1.9418 C   0  0  0  0  0  0  0  0  0  0  0  0
   -4.9452    1.4103   -2.6548 C   0  0  0  0  0  0  0  0  0  0  0  0
   -5.5761    2.4539   -1.9803 C   0  0  0  0  0  0  0  0  0  0  0  0
   -5.4720    2.5512   -0.5937 C   0  0  0  0  0  0  0  0  0  0  0  0
   -4.7395    1.6020    0.1216 C   0  0  0  0  0  0  0  0  0  0  0  0
   -1.3730   -2.2271    1.1384 N   0  0  0  0  0  0  0  0  0  0  0  0
   -0.4939   -2.8810    1.9324 C   0  0  0  0  0  0  0  0  0  0  0  0
   -0.6335   -4.2288    2.3779 C   0  0  0  0  0  0  0  0  0  0  0  0
    0.4129   -4.6277    3.1783 C   0  0  0  0  0  0  0  0  0  0  0  0
    1.5627   -3.3806    3.3923 S   0  0  0  0  0  0  0  0  0  0  0  0
    0.6685   -2.2908    2.4105 C   0  0  0  0  0  0  0  0  0  0  0  0
    4.4390    0.4738    2.9585 H   0  0  0  0  0  0  0  0  0  0  0  0
    5.3634    1.7837    0.8413 H   0  0  0  0  0  0  0  0  0  0  0  0
    5.3589   -0.0944   -1.7882 H   0  0  0  0  0  0  0  0  0  0  0  0
    4.8036    2.9507   -1.3339 H   0  0  0  0  0  0  0  0  0  0  0  0
    5.9257    2.2205   -2.5651 H   0  0  0  0  0  0  0  0  0  0  0  0
    3.9829    0.9828   -3.5785 H   0  0  0  0  0  0  0  0  0  0  0  0
    2.8759    1.7168   -2.3387 H   0  0  0  0  0  0  0  0  0  0  0  0
    2.1415   -0.3535   -0.4471 H   0  0  0  0  0  0  0  0  0  0  0  0
   -1.6273    0.7545    0.1589 H   0  0  0  0  0  0  0  0  0  0  0  0
   -3.5713   -0.4371    1.2841 H   0  0  0  0  0  0  0  0  0  0  0  0
   -3.5720   -1.4832   -0.1425 H   0  0  0  0  0  0  0  0  0  0  0  0
   -3.7125   -0.3442   -2.4775 H   0  0  0  0  0  0  0  0  0  0  0  0
   -5.0189    1.3380   -3.7366 H   0  0  0  0  0  0  0  0  0  0  0  0
   -6.1449    3.1946   -2.5362 H   0  0  0  0  0  0  0  0  0  0  0  0
   -5.9595    3.3689   -0.0692 H   0  0  0  0  0  0  0  0  0  0  0  0
   -4.6634    1.6966    1.2026 H   0  0  0  0  0  0  0  0  0  0  0  0
   -1.4677   -4.8672    2.1176 H   0  0  0  0  0  0  0  0  0  0  0  0
    0.5591   -5.5906    3.6487 H   0  0  0  0  0  0  0  0  0  0  0  0
  1  2  1  0
  2  3  1  0
  3  4  1  0
  4  5  1  0
  5  6  1  0
  3  7  2  0
  7  8  1  0
  8  9  2  3
  9 10  1  0
 10 11  2  0
 11 12  1  0
 12 13  1  0
 13 14  1  0
 14 15  1  0
 15 16  2  0
 16 17  1  0
 17 18  2  0
 18 19  1  0
 19 20  2  0
 12 21  2  0
 21 22  1  0
 22 23  1  0
 23 24  2  0
 24 25  1  0
 25 26  1  0
  8  1  1  0
 26 10  1  0
  6  4  1  0
 20 15  1  0
 26 22  2  0
  1 27  1  0
  2 28  1  0
  4 29  1  0
  5 30  1  0
  5 31  1  0
  6 32  1  0
  6 33  1  0
  7 34  1  0
 13 35  1  0
 14 36  1  0
 14 37  1  0
 16 38  1  0
 17 39  1  0
 18 40  1  0
 19 41  1  0
 20 42  1  0
 23 43  1  0
 24 44  1  0
M  END
>  <ScrubInfo>  (4) 
{"isomerGroup": 0, "isomerId": 3, "confId": 0, "nr_conformers:": 1, "nr_isomers:": 14}

$$$$
_i4
     RDKit          3D

 44 48  0  0  0  0  0  0  0  0999 V2000
   -2.0306   -2.9536    0.0607 N   0  0  0  0  0  0  0  0  0  0  0  0
   -1.4304   -1.7214    0.1325 C   0  0  0  0  0  0  0  0  0  0  0  0
   -2.2167   -0.6944    0.1801 N   0  0  0  0  0  0  0  0  0  0  0  0
   -1.5915    0.6234    0.2537 C   0  0  0  0  0  0  0  0  0  0  0  0
   -2.6399    1.7120    0.2718 C   0  0  0  0  0  0  0  0  0  0  0  0
   -3.1046    2.2724   -0.9260 C   0  0  0  0  0  0  0  0  0  0  0  0
   -4.0819    3.2691   -0.9093 C   0  0  0  0  0  0  0  0  0  0  0  0
   -4.6110    3.7074    0.3036 C   0  0  0  0  0  0  0  0  0  0  0  0
   -4.1686    3.1450    1.4999 C   0  0  0  0  0  0  0  0  0  0  0  0
   -3.1914    2.1484    1.4844 C   0  0  0  0  0  0  0  0  0  0  0  0
   -0.0622   -1.5364    0.1545 N   0  0  0  0  0  0  0  0  0  0  0  0
    0.7393   -2.5682    0.0933 C   0  0  0  0  0  0  0  0  0  0  0  0
    2.1160   -2.4702    0.1033 N   0  0  0  0  0  0  0  0  0  0  0  0
    2.8652   -1.3534    0.1604 C   0  0  0  0  0  0  0  0  0  0  0  0
    2.4412   -0.0139    0.3307 C   0  0  0  0  0  0  0  0  0  0  0  0
    3.5913    0.7336    0.3172 C   0  0  0  0  0  0  0  0  0  0  0  0
    3.7094    2.2627    0.4775 C   0  0  0  0  0  0  0  0  0  0  0  0
    2.9145    3.1552   -0.4378 C   0  0  0  0  0  0  0  0  0  0  0  0
    4.4034    3.0563   -0.5970 C   0  0  0  0  0  0  0  0  0  0  0  0
    4.6122   -0.1489    0.1628 N   0  0  0  0  0  0  0  0  0  0  0  0
    4.2003   -1.4237    0.0677 N   0  0  0  0  0  0  0  0  0  0  0  0
    0.1096   -3.8800    0.0071 C   0  0  0  0  0  0  0  0  0  0  0  0
    0.9314   -5.3614   -0.0864 S   0  0  0  0  0  0  0  0  0  0  0  0
   -0.5529   -6.2296   -0.1462 C   0  0  0  0  0  0  0  0  0  0  0  0
   -1.6503   -5.3913   -0.0950 C   0  0  0  0  0  0  0  0  0  0  0  0
   -1.2482   -4.0392   -0.0067 C   0  0  0  0  0  0  0  0  0  0  0  0
   -3.0412   -2.9433    0.0491 H   0  0  0  0  0  0  0  0  0  0  0  0
   -0.9296    0.7937   -0.6056 H   0  0  0  0  0  0  0  0  0  0  0  0
   -0.9809    0.7151    1.1615 H   0  0  0  0  0  0  0  0  0  0  0  0
   -2.7081    1.9267   -1.8777 H   0  0  0  0  0  0  0  0  0  0  0  0
   -4.4341    3.6980   -1.8433 H   0  0  0  0  0  0  0  0  0  0  0  0
   -5.3741    4.4806    0.3159 H   0  0  0  0  0  0  0  0  0  0  0  0
   -4.5886    3.4772    2.4453 H   0  0  0  0  0  0  0  0  0  0  0  0
   -2.8628    1.7051    2.4215 H   0  0  0  0  0  0  0  0  0  0  0  0
    2.6308   -3.3353    0.0025 H   0  0  0  0  0  0  0  0  0  0  0  0
    1.4400    0.3680    0.4490 H   0  0  0  0  0  0  0  0  0  0  0  0
    3.8329    2.6005    1.5026 H   0  0  0  0  0  0  0  0  0  0  0  0
    2.2916    2.7016   -1.2008 H   0  0  0  0  0  0  0  0  0  0  0  0
    2.5040    4.0679   -0.0212 H   0  0  0  0  0  0  0  0  0  0  0  0
    4.7767    2.5448   -1.4768 H   0  0  0  0  0  0  0  0  0  0  0  0
    5.0014    3.9078   -0.2928 H   0  0  0  0  0  0  0  0  0  0  0  0
    5.6061    0.0466    0.1148 H   0  0  0  0  0  0  0  0  0  0  0  0
   -0.5450   -7.3091   -0.2157 H   0  0  0  0  0  0  0  0  0  0  0  0
   -2.6729   -5.7457   -0.1206 H   0  0  0  0  0  0  0  0  0  0  0  0
  1  2  1  0
  2  3  2  3
  3  4  1  0
  4  5  1  0
  5  6  2  0
  6  7  1  0
  7  8  2  0
  8  9  1  0
  9 10  2  0
  2 11  1  0
 11 12  2  0
 12 13  1  0
 13 14  1  0
 14 15  1  0
 15 16  2  0
 16 17  1  0
 17 18  1  0
 18 19  1  0
 16 20  1  0
 20 21  1  0
 12 22  1  0
 22 23  1  0
 23 24  1  0
 24 25  2  0
 25 26  1  0
 26  1  1  0
 10  5  1  0
 21 14  2  0
 26 22  2  0
 19 17  1  0
  1 27  1  0
  4 28  1  0
  4 29  1  0
  6 30  1  0
  7 31  1  0
  8 32  1  0
  9 33  1  0
 10 34  1  0
 13 35  1  0
 15 36  1  0
 17 37  1  0
 18 38  1  0
 18 39  1  0
 19 40  1  0
 19 41  1  0
 20 42  1  0
 24 43  1  0
 25 44  1  0
M  END
>  <ScrubInfo>  (5) 
{"isomerGroup": 0, "isomerId": 4, "confId": 0, "nr_conformers:": 1, "nr_isomers:": 14}

$$$$
_i5
     RDKit          3D

 44 48  0  0  0  0  0  0  0  0999 V2000
    3.1268   -0.6224    0.9370 N   0  0  0  0  0  0  0  0  0  0  0  0
    4.4669   -0.6925    0.8404 N   0  0  0  0  0  0  0  0  0  0  0  0
    4.6970   -0.3492   -0.4268 C   0  0  0  0  0  0  0  0  0  0  0  0
    6.1195   -0.2823   -1.0389 C   0  0  0  0  0  0  0  0  0  0  0  0
    6.6420    1.0353   -1.5522 C   0  0  0  0  0  0  0  0  0  0  0  0
    7.2069    0.4476   -0.2925 C   0  0  0  0  0  0  0  0  0  0  0  0
    3.5162   -0.0733   -1.1393 C   0  0  0  0  0  0  0  0  0  0  0  0
    2.4999   -0.2705   -0.2305 C   0  0  0  0  0  0  0  0  0  0  0  0
    1.1630   -0.1058   -0.3813 N   0  0  0  0  0  0  0  0  0  0  0  0
    0.1357   -0.2325    0.5698 C   0  0  0  0  0  0  0  0  0  0  0  0
   -0.8153    0.7291    0.5184 N   0  0  0  0  0  0  0  0  0  0  0  0
   -1.8398    0.7251    1.3809 C   0  0  0  0  0  0  0  0  0  0  0  0
   -2.7799    1.7442    1.3438 N   0  0  0  0  0  0  0  0  0  0  0  0
   -3.1380    2.2323    0.0259 C   0  0  0  0  0  0  0  0  0  0  0  0
   -4.1471    1.3238   -0.6393 C   0  0  0  0  0  0  0  0  0  0  0  0
   -5.5149    1.4464   -0.3517 C   0  0  0  0  0  0  0  0  0  0  0  0
   -6.4433    0.5932   -0.9504 C   0  0  0  0  0  0  0  0  0  0  0  0
   -6.0146   -0.3938   -1.8360 C   0  0  0  0  0  0  0  0  0  0  0  0
   -4.6578   -0.5311   -2.1226 C   0  0  0  0  0  0  0  0  0  0  0  0
   -3.7278    0.3215   -1.5261 C   0  0  0  0  0  0  0  0  0  0  0  0
   -2.0378   -0.1920    2.3211 N   0  0  0  0  0  0  0  0  0  0  0  0
   -1.1439   -1.2038    2.3479 C   0  0  0  0  0  0  0  0  0  0  0  0
   -1.2090   -2.3120    3.2437 C   0  0  0  0  0  0  0  0  0  0  0  0
   -0.1945   -3.2151    3.0351 C   0  0  0  0  0  0  0  0  0  0  0  0
    0.8270   -2.7323    1.7582 S   0  0  0  0  0  0  0  0  0  0  0  0
   -0.0502   -1.2717    1.4897 C   0  0  0  0  0  0  0  0  0  0  0  0
    2.7005   -0.8332    1.8308 H   0  0  0  0  0  0  0  0  0  0  0  0
    6.4118   -1.1804   -1.5723 H   0  0  0  0  0  0  0  0  0  0  0  0
    6.0188    1.9172   -1.4573 H   0  0  0  0  0  0  0  0  0  0  0  0
    7.2611    1.0212   -2.4412 H   0  0  0  0  0  0  0  0  0  0  0  0
    6.9523    0.9161    0.6518 H   0  0  0  0  0  0  0  0  0  0  0  0
    8.2049    0.0274   -0.3226 H   0  0  0  0  0  0  0  0  0  0  0  0
    3.4204    0.2248   -2.1725 H   0  0  0  0  0  0  0  0  0  0  0  0
    0.8611    0.5917   -1.0600 H   0  0  0  0  0  0  0  0  0  0  0  0
   -3.5677    1.4160    1.8920 H   0  0  0  0  0  0  0  0  0  0  0  0
   -2.2690    2.3979   -0.6236 H   0  0  0  0  0  0  0  0  0  0  0  0
   -3.5930    3.2240    0.1432 H   0  0  0  0  0  0  0  0  0  0  0  0
   -5.8642    2.2086    0.3415 H   0  0  0  0  0  0  0  0  0  0  0  0
   -7.5014    0.6965   -0.7239 H   0  0  0  0  0  0  0  0  0  0  0  0
   -6.7379   -1.0593   -2.3000 H   0  0  0  0  0  0  0  0  0  0  0  0
   -4.3225   -1.3054   -2.8078 H   0  0  0  0  0  0  0  0  0  0  0  0
   -2.6704    0.1963   -1.7509 H   0  0  0  0  0  0  0  0  0  0  0  0
   -1.9788   -2.4355    3.9947 H   0  0  0  0  0  0  0  0  0  0  0  0
   -0.0125   -4.1417    3.5631 H   0  0  0  0  0  0  0  0  0  0  0  0
  1  2  1  0
  2  3  2  0
  3  4  1  0
  4  5  1  0
  5  6  1  0
  3  7  1  0
  7  8  2  0
  8  9  1  0
  9 10  1  0
 10 11  2  0
 11 12  1  0
 12 13  1  0
 13 14  1  0
 14 15  1  0
 15 16  2  0
 16 17  1  0
 17 18  2  0
 18 19  1  0
 19 20  2  0
 12 21  2  0
 21 22  1  0
 22 23  1  0
 23 24  2  0
 24 25  1  0
 25 26  1  0
  8  1  1  0
 26 10  1  0
  6  4  1  0
 20 15  1  0
 26 22  2  0
  1 27  1  0
  4 28  1  0
  5 29  1  0
  5 30  1  0
  6 31  1  0
  6 32  1  0
  7 33  1  0
  9 34  1  0
 13 35  1  0
 14 36  1  0
 14 37  1  0
 16 38  1  0
 17 39  1  0
 18 40  1  0
 19 41  1  0
 20 42  1  0
 23 43  1  0
 24 44  1  0
M  END
>  <ScrubInfo>  (6) 
{"isomerGroup": 0, "isomerId": 5, "confId": 0, "nr_conformers:": 1, "nr_isomers:": 14}

$$$$
_i6
     RDKit          3D

 44 48  0  0  0  0  0  0  0  0999 V2000
   -1.6091   -1.5444    1.2613 N   0  0  0  0  0  0  0  0  0  0  0  0
   -1.6796   -0.4981    0.3832 C   0  0  0  0  0  0  0  0  0  0  0  0
   -2.9743   -0.0967    0.1960 N   0  0  0  0  0  0  0  0  0  0  0  0
   -3.2735    1.0665   -0.6226 C   0  0  0  0  0  0  0  0  0  0  0  0
   -4.7680    1.2823   -0.6414 C   0  0  0  0  0  0  0  0  0  0  0  0
   -5.3590    2.2720    0.1573 C   0  0  0  0  0  0  0  0  0  0  0  0
   -6.7435    2.4509    0.1520 C   0  0  0  0  0  0  0  0  0  0  0  0
   -7.5498    1.6399   -0.6450 C   0  0  0  0  0  0  0  0  0  0  0  0
   -6.9743    0.6475   -1.4363 C   0  0  0  0  0  0  0  0  0  0  0  0
   -5.5906    0.4670   -1.4330 C   0  0  0  0  0  0  0  0  0  0  0  0
   -0.6860    0.0771   -0.2175 N   0  0  0  0  0  0  0  0  0  0  0  0
    0.6127   -0.3752   -0.0264 C   0  0  0  0  0  0  0  0  0  0  0  0
    1.4750    0.2510   -0.7628 N   0  0  0  0  0  0  0  0  0  0  0  0
    2.7930   -0.1532   -0.7377 C   0  0  0  0  0  0  0  0  0  0  0  0
    3.8304    0.5608   -0.1157 C   0  0  0  0  0  0  0  0  0  0  0  0
    4.9590   -0.1446   -0.4552 C   0  0  0  0  0  0  0  0  0  0  0  0
    6.4090    0.1595   -0.0261 C   0  0  0  0  0  0  0  0  0  0  0  0
    6.9924    1.5120   -0.3358 C   0  0  0  0  0  0  0  0  0  0  0  0
    7.4684    0.3028   -1.0861 C   0  0  0  0  0  0  0  0  0  0  0  0
    4.5466   -1.1788   -1.2457 N   0  0  0  0  0  0  0  0  0  0  0  0
    3.2178   -1.1920   -1.4558 N   0  0  0  0  0  0  0  0  0  0  0  0
    0.7283   -1.4414    0.9632 C   0  0  0  0  0  0  0  0  0  0  0  0
    2.1472   -2.1443    1.5923 S   0  0  0  0  0  0  0  0  0  0  0  0
    1.2711   -3.2357    2.5770 C   0  0  0  0  0  0  0  0  0  0  0  0
   -0.0888   -3.0489    2.4662 C   0  0  0  0  0  0  0  0  0  0  0  0
   -0.3804   -2.0024    1.5592 C   0  0  0  0  0  0  0  0  0  0  0  0
   -2.4630   -2.0103    1.5319 H   0  0  0  0  0  0  0  0  0  0  0  0
   -3.5579   -0.1434    1.0214 H   0  0  0  0  0  0  0  0  0  0  0  0
   -2.7716    1.9551   -0.2211 H   0  0  0  0  0  0  0  0  0  0  0  0
   -2.9146    0.9225   -1.6490 H   0  0  0  0  0  0  0  0  0  0  0  0
   -4.7439    2.9128    0.7854 H   0  0  0  0  0  0  0  0  0  0  0  0
   -7.1937    3.2246    0.7688 H   0  0  0  0  0  0  0  0  0  0  0  0
   -8.6275    1.7814   -0.6497 H   0  0  0  0  0  0  0  0  0  0  0  0
   -7.6026    0.0136   -2.0567 H   0  0  0  0  0  0  0  0  0  0  0  0
   -5.1506   -0.3148   -2.0495 H   0  0  0  0  0  0  0  0  0  0  0  0
    3.7582    1.4573    0.4802 H   0  0  0  0  0  0  0  0  0  0  0  0
    6.7062   -0.2992    0.9126 H   0  0  0  0  0  0  0  0  0  0  0  0
    6.3854    2.2332   -0.8720 H   0  0  0  0  0  0  0  0  0  0  0  0
    7.6590    1.9541    0.3955 H   0  0  0  0  0  0  0  0  0  0  0  0
    7.1883    0.2235   -2.1304 H   0  0  0  0  0  0  0  0  0  0  0  0
    8.4614   -0.0713   -0.8647 H   0  0  0  0  0  0  0  0  0  0  0  0
    5.1131   -1.8960   -1.6839 H   0  0  0  0  0  0  0  0  0  0  0  0
    1.7961   -3.9511    3.1950 H   0  0  0  0  0  0  0  0  0  0  0  0
   -0.8164   -3.6258    3.0218 H   0  0  0  0  0  0  0  0  0  0  0  0
  1  2  1  0
  2  3  1  0
  3  4  1  0
  4  5  1  0
  5  6  2  0
  6  7  1  0
  7  8  2  0
  8  9  1  0
  9 10  2  0
  2 11  2  0
 11 12  1  0
 12 13  2  3
 13 14  1  0
 14 15  1  0
 15 16  2  0
 16 17  1  0
 17 18  1  0
 18 19  1  0
 16 20  1  0
 20 21  1  0
 12 22  1  0
 22 23  1  0
 23 24  1  0
 24 25  2  0
 25 26  1  0
 26  1  1  0
 10  5  1  0
 21 14  2  0
 26 22  2  0
 19 17  1  0
  1 27  1  0
  3 28  1  0
  4 29  1  0
  4 30  1  0
  6 31  1  0
  7 32  1  0
  8 33  1  0
  9 34  1  0
 10 35  1  0
 15 36  1  0
 17 37  1  0
 18 38  1  0
 18 39  1  0
 19 40  1  0
 19 41  1  0
 20 42  1  0
 24 43  1  0
 25 44  1  0
M  END
>  <ScrubInfo>  (7) 
{"isomerGroup": 0, "isomerId": 6, "confId": 0, "nr_conformers:": 1, "nr_isomers:": 14}

$$$$
_i7
     RDKit          3D

 44 48  0  0  0  0  0  0  0  0999 V2000
    3.7256    1.9257    1.8832 N   0  0  0  0  0  0  0  0  0  0  0  0
    4.8701    1.3033    1.4465 N   0  0  0  0  0  0  0  0  0  0  0  0
    4.5170    0.3159    0.5238 C   0  0  0  0  0  0  0  0  0  0  0  0
    5.5557   -0.3795   -0.2298 C   0  0  0  0  0  0  0  0  0  0  0  0
    6.4464    0.4067   -1.1597 C   0  0  0  0  0  0  0  0  0  0  0  0
    5.4246   -0.5355   -1.7239 C   0  0  0  0  0  0  0  0  0  0  0  0
    3.1830    0.1345    0.4680 C   0  0  0  0  0  0  0  0  0  0  0  0
    2.6618    1.1573    1.4297 C   0  0  0  0  0  0  0  0  0  0  0  0
    1.4486    1.3348    1.8481 N   0  0  0  0  0  0  0  0  0  0  0  0
    0.4782    0.4983    1.3528 C   0  0  0  0  0  0  0  0  0  0  0  0
   -0.1718    0.7544    0.1653 N   0  0  0  0  0  0  0  0  0  0  0  0
   -1.1970    0.0070   -0.3413 C   0  0  0  0  0  0  0  0  0  0  0  0
   -1.7846    0.4087   -1.4169 N   0  0  0  0  0  0  0  0  0  0  0  0
   -2.8945   -0.3836   -1.9437 C   0  0  0  0  0  0  0  0  0  0  0  0
   -4.2341    0.0985   -1.4399 C   0  0  0  0  0  0  0  0  0  0  0  0
   -4.7574    1.3222   -1.8804 C   0  0  0  0  0  0  0  0  0  0  0  0
   -5.9914    1.7753   -1.4116 C   0  0  0  0  0  0  0  0  0  0  0  0
   -6.7109    1.0130   -0.4930 C   0  0  0  0  0  0  0  0  0  0  0  0
   -6.1948   -0.1996   -0.0387 C   0  0  0  0  0  0  0  0  0  0  0  0
   -4.9607   -0.6535   -0.5072 C   0  0  0  0  0  0  0  0  0  0  0  0
   -1.5893   -1.1522    0.2904 N   0  0  0  0  0  0  0  0  0  0  0  0
   -0.9819   -1.4002    1.4028 C   0  0  0  0  0  0  0  0  0  0  0  0
   -1.2703   -2.5728    2.2449 C   0  0  0  0  0  0  0  0  0  0  0  0
   -0.5014   -2.5744    3.3387 C   0  0  0  0  0  0  0  0  0  0  0  0
    0.6202   -1.2609    3.5199 S   0  0  0  0  0  0  0  0  0  0  0  0
    0.0873   -0.5929    2.0352 C   0  0  0  0  0  0  0  0  0  0  0  0
    3.6498    2.1930    2.8627 H   0  0  0  0  0  0  0  0  0  0  0  0
    5.6282    1.9020    1.1151 H   0  0  0  0  0  0  0  0  0  0  0  0
    6.0136   -1.2035    0.3103 H   0  0  0  0  0  0  0  0  0  0  0  0
    6.2725    1.4681   -1.2959 H   0  0  0  0  0  0  0  0  0  0  0  0
    7.4901    0.1195   -1.2220 H   0  0  0  0  0  0  0  0  0  0  0  0
    5.7762   -1.4603   -2.1677 H   0  0  0  0  0  0  0  0  0  0  0  0
    4.5696   -0.1034   -2.2321 H   0  0  0  0  0  0  0  0  0  0  0  0
    2.6123   -0.5547   -0.1229 H   0  0  0  0  0  0  0  0  0  0  0  0
    0.0086    1.6491   -0.2642 H   0  0  0  0  0  0  0  0  0  0  0  0
   -2.7754   -1.4614   -1.7747 H   0  0  0  0  0  0  0  0  0  0  0  0
   -2.8880   -0.2836   -3.0370 H   0  0  0  0  0  0  0  0  0  0  0  0
   -4.1943    1.9279   -2.5869 H   0  0  0  0  0  0  0  0  0  0  0  0
   -6.3871    2.7254   -1.7596 H   0  0  0  0  0  0  0  0  0  0  0  0
   -7.6701    1.3674   -0.1259 H   0  0  0  0  0  0  0  0  0  0  0  0
   -6.7503   -0.7901    0.6846 H   0  0  0  0  0  0  0  0  0  0  0  0
   -4.5599   -1.5941   -0.1369 H   0  0  0  0  0  0  0  0  0  0  0  0
   -2.0161   -3.3029    1.9770 H   0  0  0  0  0  0  0  0  0  0  0  0
   -0.5581   -3.3489    4.0945 H   0  0  0  0  0  0  0  0  0  0  0  0
  1  2  1  0
  2  3  1  0
  3  4  1  0
  4  5  1  0
  5  6  1  0
  3  7  2  0
  7  8  1  0
  8  9  2  3
  9 10  1  0
 10 11  1  0
 11 12  1  0
 12 13  2  3
 13 14  1  0
 14 15  1  0
 15 16  2  0
 16 17  1  0
 17 18  2  0
 18 19  1  0
 19 20  2  0
 12 21  1  0
 21 22  2  0
 22 23  1  0
 23 24  2  0
 24 25  1  0
 25 26  1  0
  8  1  1  0
 26 10  2  0
  6  4  1  0
 20 15  1  0
 26 22  1  0
  1 27  1  0
  2 28  1  0
  4 29  1  0
  5 30  1  0
  5 31  1  0
  6 32  1  0
  6 33  1  0
  7 34  1  0
 11 35  1  0
 14 36  1  0
 14 37  1  0
 16 38  1  0
 17 39  1  0
 18 40  1  0
 19 41  1  0
 20 42  1  0
 23 43  1  0
 24 44  1  0
M  END
>  <ScrubInfo>  (8) 
{"isomerGroup": 0, "isomerId": 7, "confId": 0, "nr_conformers:": 1, "nr_isomers:": 14}

$$$$
_i8
     RDKit          3D

 44 48  0  0  0  0  0  0  0  0999 V2000
    3.2934    0.3662    0.4991 N   0  0  0  0  0  0  0  0  0  0  0  0
    4.5203    0.8122    0.1741 N   0  0  0  0  0  0  0  0  0  0  0  0
    4.6921    0.3510   -1.0645 C   0  0  0  0  0  0  0  0  0  0  0  0
    5.9795    0.6075   -1.8889 C   0  0  0  0  0  0  0  0  0  0  0  0
    7.3209    0.3358   -1.2572 C   0  0  0  0  0  0  0  0  0  0  0  0
    6.8115   -0.5644   -2.3441 C   0  0  0  0  0  0  0  0  0  0  0  0
    3.5756   -0.3599   -1.5419 C   0  0  0  0  0  0  0  0  0  0  0  0
    2.6755   -0.3423   -0.5001 C   0  0  0  0  0  0  0  0  0  0  0  0
    1.4184   -0.8454   -0.4228 N   0  0  0  0  0  0  0  0  0  0  0  0
    0.5032   -0.8635    0.6209 C   0  0  0  0  0  0  0  0  0  0  0  0
   -0.8094   -0.5283    0.3260 N   0  0  0  0  0  0  0  0  0  0  0  0
   -1.8339   -0.4632    1.2408 C   0  0  0  0  0  0  0  0  0  0  0  0
   -3.0356   -0.0665    1.0284 N   0  0  0  0  0  0  0  0  0  0  0  0
   -3.4178    0.3661   -0.3109 C   0  0  0  0  0  0  0  0  0  0  0  0
   -4.8666    0.7907   -0.4090 C   0  0  0  0  0  0  0  0  0  0  0  0
   -5.5434    1.3425    0.6880 C   0  0  0  0  0  0  0  0  0  0  0  0
   -6.8677    1.7685    0.5684 C   0  0  0  0  0  0  0  0  0  0  0  0
   -7.5287    1.6585   -0.6530 C   0  0  0  0  0  0  0  0  0  0  0  0
   -6.8653    1.1248   -1.7558 C   0  0  0  0  0  0  0  0  0  0  0  0
   -5.5407    0.6979   -1.6365 C   0  0  0  0  0  0  0  0  0  0  0  0
   -1.6128   -0.8445    2.5421 N   0  0  0  0  0  0  0  0  0  0  0  0
   -0.4061   -1.1994    2.8220 C   0  0  0  0  0  0  0  0  0  0  0  0
    0.0131   -1.6478    4.1592 C   0  0  0  0  0  0  0  0  0  0  0  0
    1.3082   -1.9746    4.1665 C   0  0  0  0  0  0  0  0  0  0  0  0
    2.1703   -1.8051    2.6717 S   0  0  0  0  0  0  0  0  0  0  0  0
    0.7529   -1.2283    1.8957 C   0  0  0  0  0  0  0  0  0  0  0  0
    2.9350    0.5737    1.4231 H   0  0  0  0  0  0  0  0  0  0  0  0
    5.9165    1.4655   -2.5494 H   0  0  0  0  0  0  0  0  0  0  0  0
    7.3397   -0.0449   -0.2418 H   0  0  0  0  0  0  0  0  0  0  0  0
    8.1318    1.0156   -1.4891 H   0  0  0  0  0  0  0  0  0  0  0  0
    7.2834   -0.5016   -3.3174 H   0  0  0  0  0  0  0  0  0  0  0  0
    6.5046   -1.5649   -2.0616 H   0  0  0  0  0  0  0  0  0  0  0  0
    3.4513   -0.8209   -2.5101 H   0  0  0  0  0  0  0  0  0  0  0  0
    0.9995   -1.1569   -1.2967 H   0  0  0  0  0  0  0  0  0  0  0  0
   -0.9582   -0.1277   -0.5853 H   0  0  0  0  0  0  0  0  0  0  0  0
   -3.2505   -0.4568   -1.0176 H   0  0  0  0  0  0  0  0  0  0  0  0
   -2.8066    1.2228   -0.6214 H   0  0  0  0  0  0  0  0  0  0  0  0
   -5.0391    1.4342    1.6484 H   0  0  0  0  0  0  0  0  0  0  0  0
   -7.3807    2.1845    1.4312 H   0  0  0  0  0  0  0  0  0  0  0  0
   -8.5596    1.9890   -0.7443 H   0  0  0  0  0  0  0  0  0  0  0  0
   -7.3793    1.0411   -2.7095 H   0  0  0  0  0  0  0  0  0  0  0  0
   -5.0385    0.2885   -2.5095 H   0  0  0  0  0  0  0  0  0  0  0  0
   -0.6734   -1.6949    4.9889 H   0  0  0  0  0  0  0  0  0  0  0  0
    1.8167   -2.3350    5.0532 H   0  0  0  0  0  0  0  0  0  0  0  0
  1  2  1  0
  2  3  2  0
  3  4  1  0
  4  5  1  0
  5  6  1  0
  3  7  1  0
  7  8  2  0
  8  9  1  0
  9 10  1  0
 10 11  1  0
 11 12  1  0
 12 13  2  3
 13 14  1  0
 14 15  1  0
 15 16  2  0
 16 17  1  0
 17 18  2  0
 18 19  1  0
 19 20  2  0
 12 21  1  0
 21 22  2  0
 22 23  1  0
 23 24  2  0
 24 25  1  0
 25 26  1  0
  8  1  1  0
 26 10  2  0
  6  4  1  0
 20 15  1  0
 26 22  1  0
  1 27  1  0
  4 28  1  0
  5 29  1  0
  5 30  1  0
  6 31  1  0
  6 32  1  0
  7 33  1  0
  9 34  1  0
 11 35  1  0
 14 36  1  0
 14 37  1  0
 16 38  1  0
 17 39  1  0
 18 40  1  0
 19 41  1  0
 20 42  1  0
 23 43  1  0
 24 44  1  0
M  END
>  <ScrubInfo>  (9) 
{"isomerGroup": 0, "isomerId": 8, "confId": 0, "nr_conformers:": 1, "nr_isomers:": 14}

$$$$
_i9
     RDKit          3D

 44 48  0  0  0  0  0  0  0  0999 V2000
   -1.2633   -1.9802   -0.4084 N   0  0  0  0  0  0  0  0  0  0  0  0
   -1.7296   -0.6978   -0.2072 C   0  0  0  0  0  0  0  0  0  0  0  0
   -3.0107   -0.5403   -0.1555 N   0  0  0  0  0  0  0  0  0  0  0  0
   -3.5400    0.8025    0.0554 C   0  0  0  0  0  0  0  0  0  0  0  0
   -5.0482    0.7873    0.1012 C   0  0  0  0  0  0  0  0  0  0  0  0
   -5.7977    0.9475   -1.0724 C   0  0  0  0  0  0  0  0  0  0  0  0
   -7.1929    0.9219   -1.0309 C   0  0  0  0  0  0  0  0  0  0  0  0
   -7.8516    0.7255    0.1816 C   0  0  0  0  0  0  0  0  0  0  0  0
   -7.1164    0.5472    1.3522 C   0  0  0  0  0  0  0  0  0  0  0  0
   -5.7212    0.5726    1.3121 C   0  0  0  0  0  0  0  0  0  0  0  0
   -0.7567    0.2640   -0.0853 N   0  0  0  0  0  0  0  0  0  0  0  0
    0.6147    0.1029   -0.1652 C   0  0  0  0  0  0  0  0  0  0  0  0
    1.2962    1.2132   -0.0481 N   0  0  0  0  0  0  0  0  0  0  0  0
    2.6678    1.1740   -0.2029 C   0  0  0  0  0  0  0  0  0  0  0  0
    3.5951    1.2167    0.8500 C   0  0  0  0  0  0  0  0  0  0  0  0
    4.8086    1.2620    0.2082 C   0  0  0  0  0  0  0  0  0  0  0  0
    6.2041    1.3096    0.8633 C   0  0  0  0  0  0  0  0  0  0  0  0
    7.2341    0.2900    0.4559 C   0  0  0  0  0  0  0  0  0  0  0  0
    6.5992    0.2106    1.8131 C   0  0  0  0  0  0  0  0  0  0  0  0
    4.5398    1.2938   -1.1306 N   0  0  0  0  0  0  0  0  0  0  0  0
    3.2234    1.2650   -1.4093 N   0  0  0  0  0  0  0  0  0  0  0  0
    1.0305   -1.2836   -0.3566 C   0  0  0  0  0  0  0  0  0  0  0  0
    2.5864   -1.9531   -0.4228 S   0  0  0  0  0  0  0  0  0  0  0  0
    1.9776   -3.5373   -0.6460 C   0  0  0  0  0  0  0  0  0  0  0  0
    0.5998   -3.5645   -0.6477 C   0  0  0  0  0  0  0  0  0  0  0  0
    0.0612   -2.2650   -0.4703 C   0  0  0  0  0  0  0  0  0  0  0  0
   -1.9912   -2.6800   -0.4950 H   0  0  0  0  0  0  0  0  0  0  0  0
   -3.2180    1.4755   -0.7498 H   0  0  0  0  0  0  0  0  0  0  0  0
   -3.1637    1.2240    0.9965 H   0  0  0  0  0  0  0  0  0  0  0  0
   -5.2947    1.0859   -2.0266 H   0  0  0  0  0  0  0  0  0  0  0  0
   -7.7648    1.0484   -1.9461 H   0  0  0  0  0  0  0  0  0  0  0  0
   -8.9375    0.7019    0.2127 H   0  0  0  0  0  0  0  0  0  0  0  0
   -7.6287    0.3814    2.2960 H   0  0  0  0  0  0  0  0  0  0  0  0
   -5.1578    0.4167    2.2290 H   0  0  0  0  0  0  0  0  0  0  0  0
   -1.0343    1.2258    0.0253 H   0  0  0  0  0  0  0  0  0  0  0  0
    3.4032    1.2107    1.9117 H   0  0  0  0  0  0  0  0  0  0  0  0
    6.5605    2.3094    1.0942 H   0  0  0  0  0  0  0  0  0  0  0  0
    6.9673   -0.4753   -0.2640 H   0  0  0  0  0  0  0  0  0  0  0  0
    8.2686    0.6092    0.3993 H   0  0  0  0  0  0  0  0  0  0  0  0
    5.9007   -0.5980    1.9978 H   0  0  0  0  0  0  0  0  0  0  0  0
    7.2003    0.4792    2.6741 H   0  0  0  0  0  0  0  0  0  0  0  0
    5.1978    1.3437   -1.9002 H   0  0  0  0  0  0  0  0  0  0  0  0
    2.6584   -4.3699   -0.7583 H   0  0  0  0  0  0  0  0  0  0  0  0
    0.0236   -4.4733   -0.7655 H   0  0  0  0  0  0  0  0  0  0  0  0
  1  2  1  0
  2  3  2  3
  3  4  1  0
  4  5  1  0
  5  6  2  0
  6  7  1  0
  7  8  2  0
  8  9  1  0
  9 10  2  0
  2 11  1  0
 11 12  1  0
 12 13  2  3
 13 14  1  0
 14 15  1  0
 15 16  2  0
 16 17  1  0
 17 18  1  0
 18 19  1  0
 16 20  1  0
 20 21  1  0
 12 22  1  0
 22 23  1  0
 23 24  1  0
 24 25  2  0
 25 26  1  0
 26  1  1  0
 10  5  1  0
 21 14  2  0
 26 22  2  0
 19 17  1  0
  1 27  1  0
  4 28  1  0
  4 29  1  0
  6 30  1  0
  7 31  1  0
  8 32  1  0
  9 33  1  0
 10 34  1  0
 11 35  1  0
 15 36  1  0
 17 37  1  0
 18 38  1  0
 18 39  1  0
 19 40  1  0
 19 41  1  0
 20 42  1  0
 24 43  1  0
 25 44  1  0
M  END
>  <ScrubInfo>  (10) 
{"isomerGroup": 0, "isomerId": 9, "confId": 0, "nr_conformers:": 1, "nr_isomers:": 14}

$$$$
_i10
     RDKit          3D

 44 48  0  0  0  0  0  0  0  0999 V2000
    3.5800    1.9523   -0.1541 N   0  0  0  0  0  0  0  0  0  0  0  0
    4.8156    1.4328   -0.2756 N   0  0  0  0  0  0  0  0  0  0  0  0
    4.5964    0.2902   -0.9280 C   0  0  0  0  0  0  0  0  0  0  0  0
    5.7326   -0.6871   -1.3227 C   0  0  0  0  0  0  0  0  0  0  0  0
    6.7364   -1.1044   -0.2783 C   0  0  0  0  0  0  0  0  0  0  0  0
    5.7207   -2.0913   -0.7736 C   0  0  0  0  0  0  0  0  0  0  0  0
    3.2388    0.0859   -1.2331 C   0  0  0  0  0  0  0  0  0  0  0  0
    2.5849    1.1681   -0.6838 C   0  0  0  0  0  0  0  0  0  0  0  0
    1.2946    1.5603   -0.6819 N   0  0  0  0  0  0  0  0  0  0  0  0
    0.4481    1.1814    0.2423 C   0  0  0  0  0  0  0  0  0  0  0  0
   -0.8431    1.6373    0.0999 N   0  0  0  0  0  0  0  0  0  0  0  0
   -1.8526    1.3967    0.9887 C   0  0  0  0  0  0  0  0  0  0  0  0
   -3.0609    1.9610    0.6891 N   0  0  0  0  0  0  0  0  0  0  0  0
   -3.7015    1.8312   -0.6099 C   0  0  0  0  0  0  0  0  0  0  0  0
   -4.4299    0.5149   -0.7190 C   0  0  0  0  0  0  0  0  0  0  0  0
   -5.7980    0.4302   -0.4203 C   0  0  0  0  0  0  0  0  0  0  0  0
   -6.4669   -0.7921   -0.5051 C   0  0  0  0  0  0  0  0  0  0  0  0
   -5.7754   -1.9419   -0.8811 C   0  0  0  0  0  0  0  0  0  0  0  0
   -4.4141   -1.8725   -1.1699 C   0  0  0  0  0  0  0  0  0  0  0  0
   -3.7431   -0.6515   -1.0874 C   0  0  0  0  0  0  0  0  0  0  0  0
   -1.7333    0.7025    2.0902 N   0  0  0  0  0  0  0  0  0  0  0  0
   -0.4397    0.1638    2.2846 C   0  0  0  0  0  0  0  0  0  0  0  0
   -0.1277   -0.6440    3.4026 C   0  0  0  0  0  0  0  0  0  0  0  0
    1.1912   -1.0433    3.3711 C   0  0  0  0  0  0  0  0  0  0  0  0
    2.0149   -0.4322    1.9971 S   0  0  0  0  0  0  0  0  0  0  0  0
    0.6299    0.3623    1.4303 C   0  0  0  0  0  0  0  0  0  0  0  0
    3.4699    2.8489    0.3019 H   0  0  0  0  0  0  0  0  0  0  0  0
    6.1060   -0.5453   -2.3310 H   0  0  0  0  0  0  0  0  0  0  0  0
    6.6218   -0.7106    0.7257 H   0  0  0  0  0  0  0  0  0  0  0  0
    7.7663   -1.2238   -0.5919 H   0  0  0  0  0  0  0  0  0  0  0  0
    4.9275   -2.3783   -0.0926 H   0  0  0  0  0  0  0  0  0  0  0  0
    6.0616   -2.8896   -1.4218 H   0  0  0  0  0  0  0  0  0  0  0  0
    2.7895   -0.7371   -1.7671 H   0  0  0  0  0  0  0  0  0  0  0  0
   -0.9821    2.3120   -0.6328 H   0  0  0  0  0  0  0  0  0  0  0  0
   -3.7174    1.7181    1.4296 H   0  0  0  0  0  0  0  0  0  0  0  0
   -2.9890    1.9369   -1.4361 H   0  0  0  0  0  0  0  0  0  0  0  0
   -4.4152    2.6552   -0.7280 H   0  0  0  0  0  0  0  0  0  0  0  0
   -6.3533    1.3155   -0.1180 H   0  0  0  0  0  0  0  0  0  0  0  0
   -7.5274   -0.8491   -0.2731 H   0  0  0  0  0  0  0  0  0  0  0  0
   -6.2957   -2.8942   -0.9424 H   0  0  0  0  0  0  0  0  0  0  0  0
   -3.8721   -2.7715   -1.4524 H   0  0  0  0  0  0  0  0  0  0  0  0
   -2.6771   -0.6190   -1.3030 H   0  0  0  0  0  0  0  0  0  0  0  0
   -0.8253   -0.9163    4.1836 H   0  0  0  0  0  0  0  0  0  0  0  0
    1.7142   -1.6623    4.0871 H   0  0  0  0  0  0  0  0  0  0  0  0
  1  2  1  0
  2  3  2  0
  3  4  1  0
  4  5  1  0
  5  6  1  0
  3  7  1  0
  7  8  2  0
  8  9  1  0
  9 10  2  3
 10 11  1  0
 11 12  1  0
 12 13  1  0
 13 14  1  0
 14 15  1  0
 15 16  2  0
 16 17  1  0
 17 18  2  0
 18 19  1  0
 19 20  2  0
 12 21  2  0
 21 22  1  0
 22 23  1  0
 23 24  2  0
 24 25  1  0
 25 26  1  0
  8  1  1  0
 26 10  1  0
  6  4  1  0
 20 15  1  0
 26 22  2  0
  1 27  1  0
  4 28  1  0
  5 29  1  0
  5 30  1  0
  6 31  1  0
  6 32  1  0
  7 33  1  0
 11 34  1  0
 13 35  1  0
 14 36  1  0
 14 37  1  0
 16 38  1  0
 17 39  1  0
 18 40  1  0
 19 41  1  0
 20 42  1  0
 23 43  1  0
 24 44  1  0
M  END
>  <ScrubInfo>  (11) 
{"isomerGroup": 0, "isomerId": 10, "confId": 0, "nr_conformers:": 1, "nr_isomers:": 14}

$$$$
_i11
     RDKit          3D

 44 48  0  0  0  0  0  0  0  0999 V2000
    1.9370   -0.7183   -1.5905 N   0  0  0  0  0  0  0  0  0  0  0  0
    1.1360    0.4082   -1.6843 C   0  0  0  0  0  0  0  0  0  0  0  0
    1.5349    1.6247   -1.5537 N   0  0  0  0  0  0  0  0  0  0  0  0
    2.9451    1.9309   -1.3352 C   0  0  0  0  0  0  0  0  0  0  0  0
    3.4799    1.5388    0.0237 C   0  0  0  0  0  0  0  0  0  0  0  0
    2.6883    1.6625    1.1742 C   0  0  0  0  0  0  0  0  0  0  0  0
    3.1931    1.3054    2.4251 C   0  0  0  0  0  0  0  0  0  0  0  0
    4.4991    0.8338    2.5414 C   0  0  0  0  0  0  0  0  0  0  0  0
    5.3034    0.7257    1.4085 C   0  0  0  0  0  0  0  0  0  0  0  0
    4.7993    1.0816    0.1562 C   0  0  0  0  0  0  0  0  0  0  0  0
   -0.2229    0.3456   -1.9290 N   0  0  0  0  0  0  0  0  0  0  0  0
   -0.7669   -0.8256   -2.0035 C   0  0  0  0  0  0  0  0  0  0  0  0
   -2.0970   -0.9906   -2.2560 N   0  0  0  0  0  0  0  0  0  0  0  0
   -2.9505   -0.4683   -1.4392 C   0  0  0  0  0  0  0  0  0  0  0  0
   -2.7023    0.2890   -0.1732 C   0  0  0  0  0  0  0  0  0  0  0  0
   -3.9363    0.4207    0.3514 C   0  0  0  0  0  0  0  0  0  0  0  0
   -4.3204    1.1502    1.5563 C   0  0  0  0  0  0  0  0  0  0  0  0
   -5.2429    0.5032    2.5585 C   0  0  0  0  0  0  0  0  0  0  0  0
   -3.7924    0.6915    2.8923 C   0  0  0  0  0  0  0  0  0  0  0  0
   -4.9093   -0.1953   -0.4403 N   0  0  0  0  0  0  0  0  0  0  0  0
   -4.3221   -0.6048   -1.6125 N   0  0  0  0  0  0  0  0  0  0  0  0
    0.0086   -2.0220   -1.8605 C   0  0  0  0  0  0  0  0  0  0  0  0
   -0.5377   -3.6228   -1.8996 S   0  0  0  0  0  0  0  0  0  0  0  0
    1.0549   -4.2157   -1.6247 C   0  0  0  0  0  0  0  0  0  0  0  0
    1.9788   -3.1943   -1.5057 C   0  0  0  0  0  0  0  0  0  0  0  0
    1.3564   -1.9326   -1.6494 C   0  0  0  0  0  0  0  0  0  0  0  0
    2.8999   -0.5899   -1.3154 H   0  0  0  0  0  0  0  0  0  0  0  0
    3.0770    3.0145   -1.4412 H   0  0  0  0  0  0  0  0  0  0  0  0
    3.5479    1.4767   -2.1323 H   0  0  0  0  0  0  0  0  0  0  0  0
    1.6693    2.0384    1.0952 H   0  0  0  0  0  0  0  0  0  0  0  0
    2.5675    1.4015    3.3086 H   0  0  0  0  0  0  0  0  0  0  0  0
    4.8928    0.5608    3.5169 H   0  0  0  0  0  0  0  0  0  0  0  0
    6.3270    0.3723    1.5026 H   0  0  0  0  0  0  0  0  0  0  0  0
    5.4469    1.0059   -0.7147 H   0  0  0  0  0  0  0  0  0  0  0  0
   -1.7639    0.6586    0.1921 H   0  0  0  0  0  0  0  0  0  0  0  0
   -4.4228    2.2219    1.4120 H   0  0  0  0  0  0  0  0  0  0  0  0
   -5.9661    1.1346    3.0618 H   0  0  0  0  0  0  0  0  0  0  0  0
   -5.5896   -0.5088    2.3800 H   0  0  0  0  0  0  0  0  0  0  0  0
   -3.1677   -0.1938    2.9371 H   0  0  0  0  0  0  0  0  0  0  0  0
   -3.5318    1.4516    3.6199 H   0  0  0  0  0  0  0  0  0  0  0  0
   -5.7585    0.3668   -0.5202 H   0  0  0  0  0  0  0  0  0  0  0  0
   -4.6047   -1.4878   -2.0310 H   0  0  0  0  0  0  0  0  0  0  0  0
    1.2296   -5.2813   -1.5637 H   0  0  0  0  0  0  0  0  0  0  0  0
    3.0332   -3.3636   -1.3284 H   0  0  0  0  0  0  0  0  0  0  0  0
  1  2  1  0
  2  3  2  3
  3  4  1  0
  4  5  1  0
  5  6  2  0
  6  7  1  0
  7  8  2  0
  8  9  1  0
  9 10  2  0
  2 11  1  0
 11 12  2  0
 12 13  1  0
 13 14  2  3
 14 15  1  0
 15 16  2  0
 16 17  1  0
 17 18  1  0
 18 19  1  0
 16 20  1  0
 20 21  1  0
 12 22  1  0
 22 23  1  0
 23 24  1  0
 24 25  2  0
 25 26  1  0
 26  1  1  0
 10  5  1  0
 21 14  1  0
 26 22  2  0
 19 17  1  0
  1 27  1  0
  4 28  1  0
  4 29  1  0
  6 30  1  0
  7 31  1  0
  8 32  1  0
  9 33  1  0
 10 34  1  0
 15 35  1  0
 17 36  1  0
 18 37  1  0
 18 38  1  0
 19 39  1  0
 19 40  1  0
 20 41  1  0
 21 42  1  0
 24 43  1  0
 25 44  1  0
M  END
>  <ScrubInfo>  (12) 
{"isomerGroup": 0, "isomerId": 11, "confId": 0, "nr_conformers:": 1, "nr_isomers:": 14}

$$$$
_i12
     RDKit          3D

 44 48  0  0  0  0  0  0  0  0999 V2000
    2.9183    0.8255    0.4539 N   0  0  0  0  0  0  0  0  0  0  0  0
    4.0933    1.4782    0.5038 N   0  0  0  0  0  0  0  0  0  0  0  0
    4.7942    0.9168   -0.4813 C   0  0  0  0  0  0  0  0  0  0  0  0
    6.2394    1.3467   -0.8406 C   0  0  0  0  0  0  0  0  0  0  0  0
    7.2643    1.4659    0.2583 C   0  0  0  0  0  0  0  0  0  0  0  0
    7.3580    0.3419   -0.7312 C   0  0  0  0  0  0  0  0  0  0  0  0
    4.0716   -0.0771   -1.1660 C   0  0  0  0  0  0  0  0  0  0  0  0
    2.8550   -0.1326   -0.5233 C   0  0  0  0  0  0  0  0  0  0  0  0
    1.7609   -0.8874   -0.7903 N   0  0  0  0  0  0  0  0  0  0  0  0
    0.5211   -0.9949   -0.1907 C   0  0  0  0  0  0  0  0  0  0  0  0
   -0.4598   -1.1947   -1.0385 N   0  0  0  0  0  0  0  0  0  0  0  0
   -1.7627   -1.2850   -0.5905 C   0  0  0  0  0  0  0  0  0  0  0  0
   -2.5814   -1.4848   -1.5626 N   0  0  0  0  0  0  0  0  0  0  0  0
   -4.0093   -1.6575   -1.3129 C   0  0  0  0  0  0  0  0  0  0  0  0
   -4.7367   -0.4137   -0.8544 C   0  0  0  0  0  0  0  0  0  0  0  0
   -5.8026   -0.5161    0.0518 C   0  0  0  0  0  0  0  0  0  0  0  0
   -6.4870    0.6255    0.4729 C   0  0  0  0  0  0  0  0  0  0  0  0
   -6.1215    1.8785   -0.0154 C   0  0  0  0  0  0  0  0  0  0  0  0
   -5.0771    1.9908   -0.9308 C   0  0  0  0  0  0  0  0  0  0  0  0
   -4.3929    0.8504   -1.3535 C   0  0  0  0  0  0  0  0  0  0  0  0
   -2.1012   -1.1635    0.7403 N   0  0  0  0  0  0  0  0  0  0  0  0
   -1.1154   -1.0226    1.6422 C   0  0  0  0  0  0  0  0  0  0  0  0
   -1.2582   -0.9515    3.0477 C   0  0  0  0  0  0  0  0  0  0  0  0
   -0.0253   -0.8776    3.6637 C   0  0  0  0  0  0  0  0  0  0  0  0
    1.2626   -0.9113    2.5295 S   0  0  0  0  0  0  0  0  0  0  0  0
    0.1862   -0.9473    1.2203 C   0  0  0  0  0  0  0  0  0  0  0  0
    2.2001    1.0799    1.1216 H   0  0  0  0  0  0  0  0  0  0  0  0
    6.2960    2.0755   -1.6420 H   0  0  0  0  0  0  0  0  0  0  0  0
    7.9823    2.2740    0.1891 H   0  0  0  0  0  0  0  0  0  0  0  0
    6.9561    1.2334    1.2718 H   0  0  0  0  0  0  0  0  0  0  0  0
    7.1304   -0.6570   -0.3771 H   0  0  0  0  0  0  0  0  0  0  0  0
    8.1473    0.3823   -1.4722 H   0  0  0  0  0  0  0  0  0  0  0  0
    4.3971   -0.6719   -2.0064 H   0  0  0  0  0  0  0  0  0  0  0  0
    1.6857   -1.2241   -1.7492 H   0  0  0  0  0  0  0  0  0  0  0  0
   -4.1595   -2.4762   -0.5972 H   0  0  0  0  0  0  0  0  0  0  0  0
   -4.4785   -1.9873   -2.2477 H   0  0  0  0  0  0  0  0  0  0  0  0
   -6.1127   -1.4874    0.4311 H   0  0  0  0  0  0  0  0  0  0  0  0
   -7.3119    0.5375    1.1752 H   0  0  0  0  0  0  0  0  0  0  0  0
   -6.6568    2.7671    0.3088 H   0  0  0  0  0  0  0  0  0  0  0  0
   -4.7969    2.9655   -1.3219 H   0  0  0  0  0  0  0  0  0  0  0  0
   -3.5836    0.9489   -2.0757 H   0  0  0  0  0  0  0  0  0  0  0  0
   -3.0803   -1.1625    0.9849 H   0  0  0  0  0  0  0  0  0  0  0  0
   -2.1947   -0.9735    3.5905 H   0  0  0  0  0  0  0  0  0  0  0  0
    0.1862   -0.8267    4.7235 H   0  0  0  0  0  0  0  0  0  0  0  0
  1  2  1  0
  2  3  2  0
  3  4  1  0
  4  5  1  0
  5  6  1  0
  3  7  1  0
  7  8  2  0
  8  9  1  0
  9 10  1  0
 10 11  2  0
 11 12  1  0
 12 13  2  3
 13 14  1  0
 14 15  1  0
 15 16  2  0
 16 17  1  0
 17 18  2  0
 18 19  1  0
 19 20  2  0
 12 21  1  0
 21 22  1  0
 22 23  1  0
 23 24  2  0
 24 25  1  0
 25 26  1  0
  8  1  1  0
 26 10  1  0
  6  4  1  0
 20 15  1  0
 26 22  2  0
  1 27  1  0
  4 28  1  0
  5 29  1  0
  5 30  1  0
  6 31  1  0
  6 32  1  0
  7 33  1  0
  9 34  1  0
 14 35  1  0
 14 36  1  0
 16 37  1  0
 17 38  1  0
 18 39  1  0
 19 40  1  0
 20 41  1  0
 21 42  1  0
 23 43  1  0
 24 44  1  0
M  END
>  <ScrubInfo>  (13) 
{"isomerGroup": 0, "isomerId": 12, "confId": 0, "nr_conformers:": 1, "nr_isomers:": 14}

$$$$
_i13
     RDKit          3D

 44 48  0  0  0  0  0  0  0  0999 V2000
   -1.2045   -1.7456    0.4458 N   0  0  0  0  0  0  0  0  0  0  0  0
   -1.5132   -0.4790    0.0196 C   0  0  0  0  0  0  0  0  0  0  0  0
   -2.8558   -0.2380    0.1307 N   0  0  0  0  0  0  0  0  0  0  0  0
   -3.3924    1.0823   -0.1576 C   0  0  0  0  0  0  0  0  0  0  0  0
   -4.8855    1.0651    0.0666 C   0  0  0  0  0  0  0  0  0  0  0  0
   -5.4409    1.6117    1.2326 C   0  0  0  0  0  0  0  0  0  0  0  0
   -6.8202    1.5727    1.4439 C   0  0  0  0  0  0  0  0  0  0  0  0
   -7.6558    0.9826    0.4971 C   0  0  0  0  0  0  0  0  0  0  0  0
   -7.1144    0.4288   -0.6615 C   0  0  0  0  0  0  0  0  0  0  0  0
   -5.7359    0.4669   -0.8753 C   0  0  0  0  0  0  0  0  0  0  0  0
   -0.6886    0.4066   -0.4471 N   0  0  0  0  0  0  0  0  0  0  0  0
    0.6656    0.1263   -0.5074 C   0  0  0  0  0  0  0  0  0  0  0  0
    1.4026    1.1581   -0.7878 N   0  0  0  0  0  0  0  0  0  0  0  0
    2.7494    1.1016   -0.8081 C   0  0  0  0  0  0  0  0  0  0  0  0
    3.7173    1.1013    0.1737 C   0  0  0  0  0  0  0  0  0  0  0  0
    4.9385    1.0749   -0.5234 C   0  0  0  0  0  0  0  0  0  0  0  0
    6.3287    1.0401    0.1607 C   0  0  0  0  0  0  0  0  0  0  0  0
    7.3480    0.0299   -0.3007 C   0  0  0  0  0  0  0  0  0  0  0  0
    6.6899   -0.1319    1.0379 C   0  0  0  0  0  0  0  0  0  0  0  0
    4.7816    1.1022   -1.8478 N   0  0  0  0  0  0  0  0  0  0  0  0
    3.4435    1.1497   -1.9907 N   0  0  0  0  0  0  0  0  0  0  0  0
    0.9979   -1.2645   -0.2466 C   0  0  0  0  0  0  0  0  0  0  0  0
    2.4819   -2.0502   -0.5217 S   0  0  0  0  0  0  0  0  0  0  0  0
    1.8759   -3.5539    0.0308 C   0  0  0  0  0  0  0  0  0  0  0  0
    0.5485   -3.4728    0.3924 C   0  0  0  0  0  0  0  0  0  0  0  0
    0.0585   -2.1565    0.2181 C   0  0  0  0  0  0  0  0  0  0  0  0
   -1.9694   -2.3974    0.5566 H   0  0  0  0  0  0  0  0  0  0  0  0
   -3.2906   -0.6516    0.9464 H   0  0  0  0  0  0  0  0  0  0  0  0
   -2.9244    1.8339    0.4897 H   0  0  0  0  0  0  0  0  0  0  0  0
   -3.1847    1.3682   -1.1959 H   0  0  0  0  0  0  0  0  0  0  0  0
   -4.8029    2.0754    1.9821 H   0  0  0  0  0  0  0  0  0  0  0  0
   -7.2439    2.0043    2.3472 H   0  0  0  0  0  0  0  0  0  0  0  0
   -8.7298    0.9547    0.6620 H   0  0  0  0  0  0  0  0  0  0  0  0
   -7.7656   -0.0329   -1.3992 H   0  0  0  0  0  0  0  0  0  0  0  0
   -5.3221    0.0260   -1.7803 H   0  0  0  0  0  0  0  0  0  0  0  0
    3.5546    1.1072    1.2405 H   0  0  0  0  0  0  0  0  0  0  0  0
    6.7029    2.0167    0.4481 H   0  0  0  0  0  0  0  0  0  0  0  0
    7.0669   -0.6507   -1.0968 H   0  0  0  0  0  0  0  0  0  0  0  0
    8.3848    0.3421   -0.3309 H   0  0  0  0  0  0  0  0  0  0  0  0
    5.9743   -0.9384    1.1504 H   0  0  0  0  0  0  0  0  0  0  0  0
    7.2826    0.0647    1.9231 H   0  0  0  0  0  0  0  0  0  0  0  0
    3.0498    1.2110   -2.9211 H   0  0  0  0  0  0  0  0  0  0  0  0
    2.5193   -4.4230    0.0510 H   0  0  0  0  0  0  0  0  0  0  0  0
   -0.0227   -4.3186    0.7526 H   0  0  0  0  0  0  0  0  0  0  0  0
  1  2  1  0
  2  3  1  0
  3  4  1  0
  4  5  1  0
  5  6  2  0
  6  7  1  0
  7  8  2  0
  8  9  1  0
  9 10  2  0
  2 11  2  0
 11 12  1  0
 12 13  2  3
 13 14  1  0
 14 15  2  0
 15 16  1  0
 16 17  1  0
 17 18  1  0
 18 19  1  0
 16 20  2  0
 20 21  1  0
 12 22  1  0
 22 23  1  0
 23 24  1  0
 24 25  2  0
 25 26  1  0
 26  1  1  0
 10  5  1  0
 21 14  1  0
 26 22  2  0
 19 17  1  0
  1 27  1  0
  3 28  1  0
  4 29  1  0
  4 30  1  0
  6 31  1  0
  7 32  1  0
  8 33  1  0
  9 34  1  0
 10 35  1  0
 15 36  1  0
 17 37  1  0
 18 38  1  0
 18 39  1  0
 19 40  1  0
 19 41  1  0
 21 42  1  0
 24 43  1  0
 25 44  1  0
M  END
>  <ScrubInfo>  (14) 
{"isomerGroup": 0, "isomerId": 13, "confId": 0, "nr_conformers:": 1, "nr_isomers:": 14}

$$$$
