REMARK SMILES COc1ccc(Nc2nc(NCC(C)C)nc(N)c2[N+](=O)[O-])cc1
REMARK SMILES IDX 8 1 9 2 10 3 16 4 17 5 19 6 7 7 6 9 3 10 4 11 24 12 5 13
REMARK SMILES IDX 23 14 2 15 1 16 20 17 21 18 22 19 11 20 12 22 13 23 14 24
REMARK SMILES IDX 15 25 18 26
REMARK H PARENT 7 8 11 21 18 27 18 28
ROOT
ATOM      1  C   UNL     1       0.289   1.677  -0.509  1.00  0.00     0.217 A 
ATOM      2  N   UNL     1      -0.455   0.607  -0.852  1.00  0.00    -0.188 NA
ATOM      3  C   UNL     1      -1.785   0.727  -0.883  1.00  0.00     0.227 A 
ATOM      4  N   UNL     1      -2.436   1.851  -0.568  1.00  0.00    -0.189 NA
ATOM      5  C   UNL     1      -1.720   2.923  -0.203  1.00  0.00     0.210 A 
ATOM      6  C   UNL     1      -0.338   2.869  -0.182  1.00  0.00     0.353 A 
ENDROOT
BRANCH   1   7
ATOM      7  N   UNL     1       1.699   1.547  -0.438  1.00  0.00    -0.334 N 
ATOM      8  H   UNL     1       2.158   2.351  -0.871  1.00  0.00     0.168 HD
BRANCH   7   9
ATOM      9  C   UNL     1       2.503   0.390  -0.503  1.00  0.00     0.040 A 
ATOM     10  C   UNL     1       4.244  -1.846  -0.544  1.00  0.00     0.119 A 
ATOM     11  C   UNL     1       2.911  -1.985  -0.160  1.00  0.00     0.048 A 
ATOM     12  C   UNL     1       4.716  -0.582  -0.889  1.00  0.00     0.048 A 
ATOM     13  C   UNL     1       2.054  -0.879  -0.129  1.00  0.00     0.030 A 
ATOM     14  C   UNL     1       3.855   0.523  -0.857  1.00  0.00     0.030 A 
BRANCH  10  15
ATOM     15  O   UNL     1       4.971  -3.003  -0.530  1.00  0.00    -0.497 OA
ATOM     16  C   UNL     1       6.331  -2.913  -0.934  1.00  0.00     0.278 C 
ENDBRANCH  10  15
ENDBRANCH   7   9
ENDBRANCH   1   7
BRANCH   6  17
ATOM     17  N   UNL     1       0.435   4.024   0.180  1.00  0.00     0.070 N 
ATOM     18  O   UNL     1       0.047   4.700   1.145  1.00  0.00    -0.258 OA
ATOM     19  O   UNL     1       1.431   4.284  -0.513  1.00  0.00    -0.258 OA
ENDBRANCH   6  17
BRANCH   3  20
ATOM     20  N   UNL     1      -2.476  -0.404  -1.271  1.00  0.00    -0.354 N 
ATOM     21  H   UNL     1      -1.841  -1.192  -1.230  1.00  0.00     0.163 HD
BRANCH  20  22
ATOM     22  C   UNL     1      -3.803  -0.606  -0.713  1.00  0.00     0.119 C 
BRANCH  22  23
ATOM     23  C   UNL     1      -3.774  -0.976   0.782  1.00  0.00     0.002 C 
ATOM     24  C   UNL     1      -3.087  -2.322   1.026  1.00  0.00     0.009 C 
ATOM     25  C   UNL     1      -5.202  -1.018   1.332  1.00  0.00     0.009 C 
ENDBRANCH  22  23
ENDBRANCH  20  22
ENDBRANCH   3  20
BRANCH   5  26
ATOM     26  N   UNL     1      -2.474   4.074   0.064  1.00  0.00    -0.378 N 
ATOM     27  H   UNL     1      -2.355   4.775  -0.663  1.00  0.00     0.158 HD
ATOM     28  H   UNL     1      -2.188   4.499   0.948  1.00  0.00     0.158 HD
ENDBRANCH   5  26
TORSDOF 8
