_i0
     RDKit          3D

 44 45  0  0  0  0  0  0  0  0999 V2000
    6.3312   -2.9129   -0.9339 C   0  0  0  0  0  0  0  0  0  0  0  0
    4.9708   -3.0033   -0.5304 O   0  0  0  0  0  0  0  0  0  0  0  0
    4.2442   -1.8457   -0.5444 C   0  0  0  0  0  0  0  0  0  0  0  0
    2.9114   -1.9853   -0.1599 C   0  0  0  0  0  0  0  0  0  0  0  0
    2.0539   -0.8792   -0.1292 C   0  0  0  0  0  0  0  0  0  0  0  0
    2.5032    0.3896   -0.5035 C   0  0  0  0  0  0  0  0  0  0  0  0
    1.6990    1.5474   -0.4383 N   0  0  0  0  0  0  0  0  0  0  0  0
    0.2889    1.6767   -0.5093 C   0  0  0  0  0  0  0  0  0  0  0  0
   -0.4546    0.6071   -0.8521 N   0  0  0  0  0  0  0  0  0  0  0  0
   -1.7853    0.7268   -0.8835 C   0  0  0  0  0  0  0  0  0  0  0  0
   -2.4761   -0.4041   -1.2706 N   0  0  0  0  0  0  0  0  0  0  0  0
   -3.8028   -0.6055   -0.7130 C   0  0  0  0  0  0  0  0  0  0  0  0
   -3.7741   -0.9762    0.7823 C   0  0  0  0  0  0  0  0  0  0  0  0
   -3.0867   -2.3220    1.0265 C   0  0  0  0  0  0  0  0  0  0  0  0
   -5.2018   -1.0181    1.3322 C   0  0  0  0  0  0  0  0  0  0  0  0
   -2.4356    1.8513   -0.5684 N   0  0  0  0  0  0  0  0  0  0  0  0
   -1.7199    2.9233   -0.2031 C   0  0  0  0  0  0  0  0  0  0  0  0
   -2.4740    4.0744    0.0641 N   0  0  0  0  0  0  0  0  0  0  0  0
   -0.3381    2.8693   -0.1817 C   0  0  0  0  0  0  0  0  0  0  0  0
    0.4347    4.0238    0.1805 N   0  0  0  0  0  4  0  0  0  0  0  0
    0.0469    4.7000    1.1446 O   0  0  0  0  0  0  0  0  0  0  0  0
    1.4307    4.2839   -0.5128 O   0  0  0  0  0  1  0  0  0  0  0  0
    3.8549    0.5232   -0.8572 C   0  0  0  0  0  0  0  0  0  0  0  0
    4.7164   -0.5823   -0.8889 C   0  0  0  0  0  0  0  0  0  0  0  0
    6.9016   -2.2694   -0.2561 H   0  0  0  0  0  0  0  0  0  0  0  0
    6.4142   -2.5687   -1.9702 H   0  0  0  0  0  0  0  0  0  0  0  0
    6.7629   -3.9171   -0.8813 H   0  0  0  0  0  0  0  0  0  0  0  0
    2.5330   -2.9633    0.1272 H   0  0  0  0  0  0  0  0  0  0  0  0
    1.0323   -1.0335    0.2041 H   0  0  0  0  0  0  0  0  0  0  0  0
    2.1575    2.3506   -0.8712 H   0  0  0  0  0  0  0  0  0  0  0  0
   -1.8409   -1.1918   -1.2301 H   0  0  0  0  0  0  0  0  0  0  0  0
   -4.4285    0.2806   -0.8801 H   0  0  0  0  0  0  0  0  0  0  0  0
   -4.2817   -1.4158   -1.2768 H   0  0  0  0  0  0  0  0  0  0  0  0
   -3.2250   -0.2096    1.3427 H   0  0  0  0  0  0  0  0  0  0  0  0
   -2.0333   -2.2905    0.7313 H   0  0  0  0  0  0  0  0  0  0  0  0
   -3.5745   -3.1254    0.4641 H   0  0  0  0  0  0  0  0  0  0  0  0
   -3.1194   -2.5864    2.0890 H   0  0  0  0  0  0  0  0  0  0  0  0
   -5.2005   -1.2545    2.4016 H   0  0  0  0  0  0  0  0  0  0  0  0
   -5.6952   -0.0485    1.2066 H   0  0  0  0  0  0  0  0  0  0  0  0
   -5.8042   -1.7750    0.8184 H   0  0  0  0  0  0  0  0  0  0  0  0
   -2.3547    4.7747   -0.6630 H   0  0  0  0  0  0  0  0  0  0  0  0
   -2.1877    4.4991    0.9481 H   0  0  0  0  0  0  0  0  0  0  0  0
    4.2593    1.4984   -1.1192 H   0  0  0  0  0  0  0  0  0  0  0  0
    5.7476   -0.4162   -1.1810 H   0  0  0  0  0  0  0  0  0  0  0  0
  1  2  1  0
  2  3  1  0
  3  4  2  0
  4  5  1  0
  5  6  2  0
  6  7  1  0
  7  8  1  0
  8  9  2  0
  9 10  1  0
 10 11  1  0
 11 12  1  0
 12 13  1  0
 13 14  1  0
 13 15  1  0
 10 16  2  0
 16 17  1  0
 17 18  1  0
 17 19  2  0
 19 20  1  0
 20 21  2  0
 20 22  1  0
  6 23  1  0
 23 24  2  0
 24  3  1  0
 19  8  1  0
  1 25  1  0
  1 26  1  0
  1 27  1  0
  4 28  1  0
  5 29  1  0
  7 30  1  0
 11 31  1  0
 12 32  1  0
 12 33  1  0
 13 34  1  0
 14 35  1  0
 14 36  1  0
 14 37  1  0
 15 38  1  0
 15 39  1  0
 15 40  1  0
 18 41  1  0
 18 42  1  0
 23 43  1  0
 24 44  1  0
M  CHG  2  20   1  22  -1
M  END
>  <ScrubInfo>  (1) 
{"isomerGroup": 0, "isomerId": 0, "confId": 0, "nr_conformers:": 1, "nr_isomers:": 9}

$$$$
_i1
     RDKit          3D

 44 45  0  0  0  0  0  0  0  0999 V2000
   -0.3232   -1.3198   -0.0714 N   0  0  0  0  0  0  0  0  0  0  0  0
   -1.4459   -1.6734    0.6068 C   0  0  0  0  0  0  0  0  0  0  0  0
   -2.0054   -0.7188    1.4022 N   0  0  0  0  0  0  0  0  0  0  0  0
   -2.2369    0.6494    0.9545 C   0  0  0  0  0  0  0  0  0  0  0  0
   -2.8315    1.4931    2.0937 C   0  0  0  0  0  0  0  0  0  0  0  0
   -3.2715    2.8577    1.5612 C   0  0  0  0  0  0  0  0  0  0  0  0
   -1.8308    1.6782    3.2372 C   0  0  0  0  0  0  0  0  0  0  0  0
   -1.9717   -2.8648    0.5523 N   0  0  0  0  0  0  0  0  0  0  0  0
   -1.3801   -3.8126   -0.2815 C   0  0  0  0  0  0  0  0  0  0  0  0
   -2.0446   -5.0322   -0.3286 N   0  0  0  0  0  0  0  0  0  0  0  0
   -0.2479   -3.5385   -0.9785 C   0  0  0  0  0  0  0  0  0  0  0  0
    0.3154   -4.5282   -1.8417 N   0  0  0  0  0  4  0  0  0  0  0  0
    0.6251   -5.6182   -1.3319 O   0  0  0  0  0  0  0  0  0  0  0  0
    0.4239   -4.2477   -3.0435 O   0  0  0  0  0  1  0  0  0  0  0  0
    0.3940   -2.2070   -0.8444 C   0  0  0  0  0  0  0  0  0  0  0  0
    1.5483   -1.9649   -1.4003 N   0  0  0  0  0  0  0  0  0  0  0  0
    2.1289   -0.6999   -1.2573 C   0  0  0  0  0  0  0  0  0  0  0  0
    1.9042    0.2867   -2.2189 C   0  0  0  0  0  0  0  0  0  0  0  0
    2.4647    1.5612   -2.0776 C   0  0  0  0  0  0  0  0  0  0  0  0
    3.2648    1.8535   -0.9728 C   0  0  0  0  0  0  0  0  0  0  0  0
    3.8647    3.0532   -0.7093 O   0  0  0  0  0  0  0  0  0  0  0  0
    3.7523    4.0610   -1.7068 C   0  0  0  0  0  0  0  0  0  0  0  0
    3.5024    0.8601   -0.0191 C   0  0  0  0  0  0  0  0  0  0  0  0
    2.9460   -0.4129   -0.1640 C   0  0  0  0  0  0  0  0  0  0  0  0
    0.1236   -0.4533    0.1845 H   0  0  0  0  0  0  0  0  0  0  0  0
   -2.8357   -1.1107    1.8453 H   0  0  0  0  0  0  0  0  0  0  0  0
   -1.3045    1.1078    0.6055 H   0  0  0  0  0  0  0  0  0  0  0  0
   -2.9318    0.6269    0.1065 H   0  0  0  0  0  0  0  0  0  0  0  0
   -3.7173    0.9837    2.4947 H   0  0  0  0  0  0  0  0  0  0  0  0
   -3.7194    3.4606    2.3583 H   0  0  0  0  0  0  0  0  0  0  0  0
   -4.0196    2.7435    0.7696 H   0  0  0  0  0  0  0  0  0  0  0  0
   -2.4241    3.4163    1.1491 H   0  0  0  0  0  0  0  0  0  0  0  0
   -1.5495    0.7163    3.6778 H   0  0  0  0  0  0  0  0  0  0  0  0
   -2.2635    2.2917    4.0348 H   0  0  0  0  0  0  0  0  0  0  0  0
   -0.9171    2.1722    2.8894 H   0  0  0  0  0  0  0  0  0  0  0  0
   -2.6329   -5.1202    0.4977 H   0  0  0  0  0  0  0  0  0  0  0  0
   -1.4167   -5.8313   -0.4342 H   0  0  0  0  0  0  0  0  0  0  0  0
    1.2928    0.0578   -3.0885 H   0  0  0  0  0  0  0  0  0  0  0  0
    2.2611    2.2955   -2.8497 H   0  0  0  0  0  0  0  0  0  0  0  0
    4.3224    4.9315   -1.3681 H   0  0  0  0  0  0  0  0  0  0  0  0
    4.1841    3.7286   -2.6567 H   0  0  0  0  0  0  0  0  0  0  0  0
    2.7107    4.3739   -1.8333 H   0  0  0  0  0  0  0  0  0  0  0  0
    4.1372    1.0758    0.8371 H   0  0  0  0  0  0  0  0  0  0  0  0
    3.1550   -1.1818    0.5747 H   0  0  0  0  0  0  0  0  0  0  0  0
  1  2  1  0
  2  3  1  0
  3  4  1  0
  4  5  1  0
  5  6  1  0
  5  7  1  0
  2  8  2  0
  8  9  1  0
  9 10  1  0
  9 11  2  0
 11 12  1  0
 12 13  2  0
 12 14  1  0
 11 15  1  0
 15 16  2  3
 16 17  1  0
 17 18  2  0
 18 19  1  0
 19 20  2  0
 20 21  1  0
 21 22  1  0
 20 23  1  0
 23 24  2  0
 15  1  1  0
 24 17  1  0
  1 25  1  0
  3 26  1  0
  4 27  1  0
  4 28  1  0
  5 29  1  0
  6 30  1  0
  6 31  1  0
  6 32  1  0
  7 33  1  0
  7 34  1  0
  7 35  1  0
 10 36  1  0
 10 37  1  0
 18 38  1  0
 19 39  1  0
 22 40  1  0
 22 41  1  0
 22 42  1  0
 23 43  1  0
 24 44  1  0
M  CHG  2  12   1  14  -1
M  END
>  <ScrubInfo>  (2) 
{"isomerGroup": 0, "isomerId": 1, "confId": 0, "nr_conformers:": 1, "nr_isomers:": 9}

$$$$
_i2
     RDKit          3D

 44 45  0  0  0  0  0  0  0  0999 V2000
   -0.1696   -0.0375   -0.3908 N   0  0  0  0  0  0  0  0  0  0  0  0
    0.5279   -0.3705   -1.5365 C   0  0  0  0  0  0  0  0  0  0  0  0
    1.8689   -0.0226   -1.6531 N   0  0  0  0  0  0  0  0  0  0  0  0
    2.8689    0.0256   -0.6625 C   0  0  0  0  0  0  0  0  0  0  0  0
    4.0469    0.7295   -0.9436 C   0  0  0  0  0  0  0  0  0  0  0  0
    5.0573    0.8567    0.0148 C   0  0  0  0  0  0  0  0  0  0  0  0
    4.9117    0.2903    1.2802 C   0  0  0  0  0  0  0  0  0  0  0  0
    5.9697    0.4869    2.1224 O   0  0  0  0  0  0  0  0  0  0  0  0
    5.8616   -0.0615    3.4301 C   0  0  0  0  0  0  0  0  0  0  0  0
    3.7429   -0.4067    1.5762 C   0  0  0  0  0  0  0  0  0  0  0  0
    2.7305   -0.5320    0.6134 C   0  0  0  0  0  0  0  0  0  0  0  0
   -0.2017   -0.9872   -2.4980 C   0  0  0  0  0  0  0  0  0  0  0  0
    0.4064   -1.4107   -3.7353 N   0  0  0  0  0  4  0  0  0  0  0  0
    1.3798   -0.7711   -4.1653 O   0  0  0  0  0  0  0  0  0  0  0  0
   -0.0765   -2.4055   -4.2973 O   0  0  0  0  0  1  0  0  0  0  0  0
   -1.6514   -1.2749   -2.2289 C   0  0  0  0  0  0  0  0  0  0  0  0
   -2.4829   -1.9042   -3.1267 N   0  0  0  0  0  0  0  0  0  0  0  0
   -2.2405   -0.9365   -1.1089 N   0  0  0  0  0  0  0  0  0  0  0  0
   -1.4929   -0.2689   -0.1732 C   0  0  0  0  0  0  0  0  0  0  0  0
   -2.0271    0.1622    0.9182 N   0  0  0  0  0  0  0  0  0  0  0  0
   -3.4512   -0.0854    1.1560 C   0  0  0  0  0  0  0  0  0  0  0  0
   -4.3042    1.0542    0.5768 C   0  0  0  0  0  0  0  0  0  0  0  0
   -4.0181    2.3836    1.2788 C   0  0  0  0  0  0  0  0  0  0  0  0
   -5.7894    0.7102    0.6955 C   0  0  0  0  0  0  0  0  0  0  0  0
    0.2969    0.5640    0.2748 H   0  0  0  0  0  0  0  0  0  0  0  0
    2.2541   -0.0842   -2.6013 H   0  0  0  0  0  0  0  0  0  0  0  0
    4.1880    1.1991   -1.9145 H   0  0  0  0  0  0  0  0  0  0  0  0
    5.9627    1.4078   -0.2279 H   0  0  0  0  0  0  0  0  0  0  0  0
    6.7780    0.1876    3.9738 H   0  0  0  0  0  0  0  0  0  0  0  0
    5.7818   -1.1530    3.3946 H   0  0  0  0  0  0  0  0  0  0  0  0
    5.0205    0.3796    3.9751 H   0  0  0  0  0  0  0  0  0  0  0  0
    3.5834   -0.8708    2.5439 H   0  0  0  0  0  0  0  0  0  0  0  0
    1.8484   -1.1080    0.8800 H   0  0  0  0  0  0  0  0  0  0  0  0
   -2.0506   -2.5533   -3.7847 H   0  0  0  0  0  0  0  0  0  0  0  0
   -3.3360   -2.2579   -2.7040 H   0  0  0  0  0  0  0  0  0  0  0  0
   -3.6034   -0.1486    2.2406 H   0  0  0  0  0  0  0  0  0  0  0  0
   -3.7715   -1.0578    0.7615 H   0  0  0  0  0  0  0  0  0  0  0  0
   -4.0700    1.1774   -0.4879 H   0  0  0  0  0  0  0  0  0  0  0  0
   -4.6416    3.1827    0.8638 H   0  0  0  0  0  0  0  0  0  0  0  0
   -4.2238    2.3184    2.3527 H   0  0  0  0  0  0  0  0  0  0  0  0
   -2.9726    2.6820    1.1508 H   0  0  0  0  0  0  0  0  0  0  0  0
   -6.0174   -0.2173    0.1595 H   0  0  0  0  0  0  0  0  0  0  0  0
   -6.0853    0.5791    1.7419 H   0  0  0  0  0  0  0  0  0  0  0  0
   -6.4086    1.5043    0.2650 H   0  0  0  0  0  0  0  0  0  0  0  0
  1  2  1  0
  2  3  1  0
  3  4  1  0
  4  5  2  0
  5  6  1  0
  6  7  2  0
  7  8  1  0
  8  9  1  0
  7 10  1  0
 10 11  2  0
  2 12  2  0
 12 13  1  0
 13 14  2  0
 13 15  1  0
 12 16  1  0
 16 17  1  0
 16 18  2  0
 18 19  1  0
 19 20  2  3
 20 21  1  0
 21 22  1  0
 22 23  1  0
 22 24  1  0
 19  1  1  0
 11  4  1  0
  1 25  1  0
  3 26  1  0
  5 27  1  0
  6 28  1  0
  9 29  1  0
  9 30  1  0
  9 31  1  0
 10 32  1  0
 11 33  1  0
 17 34  1  0
 17 35  1  0
 21 36  1  0
 21 37  1  0
 22 38  1  0
 23 39  1  0
 23 40  1  0
 23 41  1  0
 24 42  1  0
 24 43  1  0
 24 44  1  0
M  CHG  2  13   1  15  -1
M  END
>  <ScrubInfo>  (3) 
{"isomerGroup": 0, "isomerId": 2, "confId": 0, "nr_conformers:": 1, "nr_isomers:": 9}

$$$$
_i3
     RDKit          3D

 44 45  0  0  0  0  0  0  0  0999 V2000
    1.9311    0.6502    0.4519 N   0  0  0  0  0  0  0  0  0  0  0  0
    1.0609    0.9356    1.4803 C   0  0  0  0  0  0  0  0  0  0  0  0
    1.4529    1.9204    2.3686 N   0  0  0  0  0  0  0  0  0  0  0  0
   -0.0833    0.2156    1.5118 C   0  0  0  0  0  0  0  0  0  0  0  0
   -0.9800    0.3416    2.6231 N   0  0  0  0  0  4  0  0  0  0  0  0
   -1.3418    1.4833    2.9461 O   0  0  0  0  0  0  0  0  0  0  0  0
   -1.2858   -0.6938    3.2287 O   0  0  0  0  0  1  0  0  0  0  0  0
   -0.3250   -0.7982    0.4386 C   0  0  0  0  0  0  0  0  0  0  0  0
   -1.4800   -1.5546    0.3323 N   0  0  0  0  0  0  0  0  0  0  0  0
   -2.7697   -0.9758    0.2363 C   0  0  0  0  0  0  0  0  0  0  0  0
   -2.9936    0.2915   -0.3151 C   0  0  0  0  0  0  0  0  0  0  0  0
   -4.2936    0.7987   -0.4425 C   0  0  0  0  0  0  0  0  0  0  0  0
   -5.3883    0.0350   -0.0406 C   0  0  0  0  0  0  0  0  0  0  0  0
   -6.7012    0.4085   -0.1118 O   0  0  0  0  0  0  0  0  0  0  0  0
   -6.9708    1.7264   -0.5729 C   0  0  0  0  0  0  0  0  0  0  0  0
   -5.1711   -1.2427    0.4764 C   0  0  0  0  0  0  0  0  0  0  0  0
   -3.8749   -1.7488    0.6039 C   0  0  0  0  0  0  0  0  0  0  0  0
    0.5667   -1.0432   -0.4937 N   0  0  0  0  0  0  0  0  0  0  0  0
    1.7213   -0.3005   -0.5104 C   0  0  0  0  0  0  0  0  0  0  0  0
    2.4979   -0.6027   -1.4846 N   0  0  0  0  0  0  0  0  0  0  0  0
    3.7647    0.0911   -1.6844 C   0  0  0  0  0  0  0  0  0  0  0  0
    4.8777   -0.5430   -0.8362 C   0  0  0  0  0  0  0  0  0  0  0  0
    6.1552    0.2911   -0.9396 C   0  0  0  0  0  0  0  0  0  0  0  0
    5.1587   -1.9849   -1.2650 C   0  0  0  0  0  0  0  0  0  0  0  0
    2.7393    1.2469    0.3815 H   0  0  0  0  0  0  0  0  0  0  0  0
    2.4195    1.8321    2.6731 H   0  0  0  0  0  0  0  0  0  0  0  0
    0.8223    2.0621    3.1623 H   0  0  0  0  0  0  0  0  0  0  0  0
   -1.3736   -2.2169   -0.4374 H   0  0  0  0  0  0  0  0  0  0  0  0
   -2.1677    0.9011   -0.6732 H   0  0  0  0  0  0  0  0  0  0  0  0
   -4.4141    1.7887   -0.8699 H   0  0  0  0  0  0  0  0  0  0  0  0
   -6.5074    2.4761    0.0770 H   0  0  0  0  0  0  0  0  0  0  0  0
   -6.6519    1.8523   -1.6127 H   0  0  0  0  0  0  0  0  0  0  0  0
   -8.0539    1.8782   -0.5365 H   0  0  0  0  0  0  0  0  0  0  0  0
   -6.0182   -1.8503    0.7854 H   0  0  0  0  0  0  0  0  0  0  0  0
   -3.7329   -2.7459    1.0144 H   0  0  0  0  0  0  0  0  0  0  0  0
    3.6718    1.1639   -1.4775 H   0  0  0  0  0  0  0  0  0  0  0  0
    4.0240    0.0221   -2.7481 H   0  0  0  0  0  0  0  0  0  0  0  0
    4.5692   -0.5581    0.2164 H   0  0  0  0  0  0  0  0  0  0  0  0
    6.5173    0.3385   -1.9723 H   0  0  0  0  0  0  0  0  0  0  0  0
    5.9794    1.3153   -0.5941 H   0  0  0  0  0  0  0  0  0  0  0  0
    6.9509   -0.1372   -0.3208 H   0  0  0  0  0  0  0  0  0  0  0  0
    5.4632   -2.0350   -2.3160 H   0  0  0  0  0  0  0  0  0  0  0  0
    4.2730   -2.6156   -1.1377 H   0  0  0  0  0  0  0  0  0  0  0  0
    5.9620   -2.4192   -0.6601 H   0  0  0  0  0  0  0  0  0  0  0  0
  1  2  1  0
  2  3  1  0
  2  4  2  0
  4  5  1  0
  5  6  2  0
  5  7  1  0
  4  8  1  0
  8  9  1  0
  9 10  1  0
 10 11  2  0
 11 12  1  0
 12 13  2  0
 13 14  1  0
 14 15  1  0
 13 16  1  0
 16 17  2  0
  8 18  2  0
 18 19  1  0
 19 20  2  3
 20 21  1  0
 21 22  1  0
 22 23  1  0
 22 24  1  0
 19  1  1  0
 17 10  1  0
  1 25  1  0
  3 26  1  0
  3 27  1  0
  9 28  1  0
 11 29  1  0
 12 30  1  0
 15 31  1  0
 15 32  1  0
 15 33  1  0
 16 34  1  0
 17 35  1  0
 21 36  1  0
 21 37  1  0
 22 38  1  0
 23 39  1  0
 23 40  1  0
 23 41  1  0
 24 42  1  0
 24 43  1  0
 24 44  1  0
M  CHG  2   5   1   7  -1
M  END
>  <ScrubInfo>  (4) 
{"isomerGroup": 0, "isomerId": 3, "confId": 0, "nr_conformers:": 1, "nr_isomers:": 9}

$$$$
_i4
     RDKit          3D

 44 45  0  0  0  0  0  0  0  0999 V2000
   -2.2831   -1.9467   -0.1255 N   0  0  0  0  0  0  0  0  0  0  0  0
   -1.5714   -0.7937   -0.2119 C   0  0  0  0  0  0  0  0  0  0  0  0
   -2.2860    0.3512   -0.4005 N   0  0  0  0  0  0  0  0  0  0  0  0
   -3.4030    0.7221    0.4620 C   0  0  0  0  0  0  0  0  0  0  0  0
   -4.0230    2.0491   -0.0046 C   0  0  0  0  0  0  0  0  0  0  0  0
   -4.6873    1.9083   -1.3764 C   0  0  0  0  0  0  0  0  0  0  0  0
   -5.0459    2.5397    1.0212 C   0  0  0  0  0  0  0  0  0  0  0  0
   -0.2738   -0.7451   -0.1435 N   0  0  0  0  0  0  0  0  0  0  0  0
    0.4556   -1.9308    0.0410 C   0  0  0  0  0  0  0  0  0  0  0  0
    1.8506   -1.8630    0.1737 N   0  0  0  0  0  0  0  0  0  0  0  0
    2.7368   -0.7915   -0.0373 C   0  0  0  0  0  0  0  0  0  0  0  0
    4.0017   -0.8399    0.5706 C   0  0  0  0  0  0  0  0  0  0  0  0
    4.9322    0.1973    0.4167 C   0  0  0  0  0  0  0  0  0  0  0  0
    4.6139    1.3112   -0.3545 C   0  0  0  0  0  0  0  0  0  0  0  0
    5.4209    2.3894   -0.5885 O   0  0  0  0  0  0  0  0  0  0  0  0
    6.7133    2.3634    0.0037 C   0  0  0  0  0  0  0  0  0  0  0  0
    3.3622    1.3715   -0.9651 C   0  0  0  0  0  0  0  0  0  0  0  0
    2.4354    0.3333   -0.8075 C   0  0  0  0  0  0  0  0  0  0  0  0
   -0.2006   -3.1232    0.1183 C   0  0  0  0  0  0  0  0  0  0  0  0
    0.5410   -4.3416    0.2413 N   0  0  0  0  0  4  0  0  0  0  0  0
    1.3427   -4.4259    1.1872 O   0  0  0  0  0  0  0  0  0  0  0  0
    0.3898   -5.2022   -0.6357 O   0  0  0  0  0  1  0  0  0  0  0  0
   -1.6811   -3.1625    0.0399 C   0  0  0  0  0  0  0  0  0  0  0  0
   -2.3721   -4.2532    0.1412 N   0  0  0  0  0  0  0  0  0  0  0  0
   -3.2629   -1.9055   -0.3509 H   0  0  0  0  0  0  0  0  0  0  0  0
   -1.6231    1.1234   -0.4789 H   0  0  0  0  0  0  0  0  0  0  0  0
   -3.0331    0.8254    1.4892 H   0  0  0  0  0  0  0  0  0  0  0  0
   -4.1672   -0.0637    0.4633 H   0  0  0  0  0  0  0  0  0  0  0  0
   -3.2329    2.8069   -0.0848 H   0  0  0  0  0  0  0  0  0  0  0  0
   -5.4791    1.1516   -1.3585 H   0  0  0  0  0  0  0  0  0  0  0  0
   -5.1349    2.8578   -1.6891 H   0  0  0  0  0  0  0  0  0  0  0  0
   -3.9597    1.6197   -2.1418 H   0  0  0  0  0  0  0  0  0  0  0  0
   -5.8644    1.8218    1.1418 H   0  0  0  0  0  0  0  0  0  0  0  0
   -4.5760    2.6858    1.9996 H   0  0  0  0  0  0  0  0  0  0  0  0
   -5.4778    3.4976    0.7127 H   0  0  0  0  0  0  0  0  0  0  0  0
    2.2835   -2.6743    0.6150 H   0  0  0  0  0  0  0  0  0  0  0  0
    4.2787   -1.6940    1.1849 H   0  0  0  0  0  0  0  0  0  0  0  0
    5.8905    0.0989    0.9147 H   0  0  0  0  0  0  0  0  0  0  0  0
    7.2300    3.2850   -0.2811 H   0  0  0  0  0  0  0  0  0  0  0  0
    7.3035    1.5211   -0.3723 H   0  0  0  0  0  0  0  0  0  0  0  0
    6.6464    2.3436    1.0965 H   0  0  0  0  0  0  0  0  0  0  0  0
    3.1011    2.2321   -1.5756 H   0  0  0  0  0  0  0  0  0  0  0  0
    1.4832    0.4175   -1.3211 H   0  0  0  0  0  0  0  0  0  0  0  0
   -3.3746   -4.0678    0.0688 H   0  0  0  0  0  0  0  0  0  0  0  0
  1  2  1  0
  2  3  1  0
  3  4  1  0
  4  5  1  0
  5  6  1  0
  5  7  1  0
  2  8  2  0
  8  9  1  0
  9 10  1  0
 10 11  1  0
 11 12  2  0
 12 13  1  0
 13 14  2  0
 14 15  1  0
 15 16  1  0
 14 17  1  0
 17 18  2  0
  9 19  2  0
 19 20  1  0
 20 21  2  0
 20 22  1  0
 19 23  1  0
 23 24  2  3
 23  1  1  0
 18 11  1  0
  1 25  1  0
  3 26  1  0
  4 27  1  0
  4 28  1  0
  5 29  1  0
  6 30  1  0
  6 31  1  0
  6 32  1  0
  7 33  1  0
  7 34  1  0
  7 35  1  0
 10 36  1  0
 12 37  1  0
 13 38  1  0
 16 39  1  0
 16 40  1  0
 16 41  1  0
 17 42  1  0
 18 43  1  0
 24 44  1  0
M  CHG  2  20   1  22  -1
M  END
>  <ScrubInfo>  (5) 
{"isomerGroup": 0, "isomerId": 4, "confId": 0, "nr_conformers:": 1, "nr_isomers:": 9}

$$$$
_i5
     RDKit          3D

 44 45  0  0  0  0  0  0  0  0999 V2000
   -0.3543   -1.3711    0.5832 N   0  0  0  0  0  0  0  0  0  0  0  0
   -1.6217   -1.6693    0.9753 C   0  0  0  0  0  0  0  0  0  0  0  0
   -2.4021   -0.6155    1.3409 N   0  0  0  0  0  0  0  0  0  0  0  0
   -2.4408    0.6453    0.6124 C   0  0  0  0  0  0  0  0  0  0  0  0
   -3.3927    1.6364    1.3017 C   0  0  0  0  0  0  0  0  0  0  0  0
   -3.5918    2.8709    0.4209 C   0  0  0  0  0  0  0  0  0  0  0  0
   -2.8678    2.0568    2.6767 C   0  0  0  0  0  0  0  0  0  0  0  0
   -2.1011   -2.8741    1.0268 N   0  0  0  0  0  0  0  0  0  0  0  0
   -1.2698   -3.9014    0.6456 C   0  0  0  0  0  0  0  0  0  0  0  0
   -1.8647   -5.0328    0.5015 N   0  0  0  0  0  0  0  0  0  0  0  0
    0.1601   -3.6224    0.4181 C   0  0  0  0  0  0  0  0  0  0  0  0
    1.0740   -4.7158    0.2854 N   0  0  0  0  0  4  0  0  0  0  0  0
    1.0424   -5.6029    1.1474 O   0  0  0  0  0  0  0  0  0  0  0  0
    1.9035   -4.6609   -0.6378 O   0  0  0  0  0  1  0  0  0  0  0  0
    0.6072   -2.3463    0.3427 C   0  0  0  0  0  0  0  0  0  0  0  0
    1.9326   -1.9673    0.1321 N   0  0  0  0  0  0  0  0  0  0  0  0
    2.4095   -0.7863   -0.4792 C   0  0  0  0  0  0  0  0  0  0  0  0
    1.6314    0.0315   -1.3064 C   0  0  0  0  0  0  0  0  0  0  0  0
    2.1574    1.2030   -1.8696 C   0  0  0  0  0  0  0  0  0  0  0  0
    3.4742    1.5767   -1.6104 C   0  0  0  0  0  0  0  0  0  0  0  0
    4.1067    2.6887   -2.0908 O   0  0  0  0  0  0  0  0  0  0  0  0
    3.3663    3.5203   -2.9751 C   0  0  0  0  0  0  0  0  0  0  0  0
    4.2578    0.7669   -0.7889 C   0  0  0  0  0  0  0  0  0  0  0  0
    3.7332   -0.4032   -0.2320 C   0  0  0  0  0  0  0  0  0  0  0  0
    0.0381   -0.4877    0.8857 H   0  0  0  0  0  0  0  0  0  0  0  0
   -3.3340   -0.9507    1.5784 H   0  0  0  0  0  0  0  0  0  0  0  0
   -1.4392    1.0853    0.5437 H   0  0  0  0  0  0  0  0  0  0  0  0
   -2.7865    0.4484   -0.4095 H   0  0  0  0  0  0  0  0  0  0  0  0
   -4.3708    1.1582    1.4415 H   0  0  0  0  0  0  0  0  0  0  0  0
   -4.0069    2.5908   -0.5531 H   0  0  0  0  0  0  0  0  0  0  0  0
   -2.6448    3.3937    0.2484 H   0  0  0  0  0  0  0  0  0  0  0  0
   -4.2875    3.5752    0.8893 H   0  0  0  0  0  0  0  0  0  0  0  0
   -2.7778    1.1961    3.3471 H   0  0  0  0  0  0  0  0  0  0  0  0
   -3.5495    2.7722    3.1492 H   0  0  0  0  0  0  0  0  0  0  0  0
   -1.8831    2.5302    2.5983 H   0  0  0  0  0  0  0  0  0  0  0  0
   -2.8466   -4.8521    0.7465 H   0  0  0  0  0  0  0  0  0  0  0  0
    2.5745   -2.7452   -0.0541 H   0  0  0  0  0  0  0  0  0  0  0  0
    0.6125   -0.2451   -1.5631 H   0  0  0  0  0  0  0  0  0  0  0  0
    1.5128    1.7925   -2.5128 H   0  0  0  0  0  0  0  0  0  0  0  0
    3.0742    2.9752   -3.8788 H   0  0  0  0  0  0  0  0  0  0  0  0
    2.4934    3.9505   -2.4730 H   0  0  0  0  0  0  0  0  0  0  0  0
    4.0158    4.3465   -3.2798 H   0  0  0  0  0  0  0  0  0  0  0  0
    5.2874    1.0472   -0.5796 H   0  0  0  0  0  0  0  0  0  0  0  0
    4.3685   -1.0087    0.4106 H   0  0  0  0  0  0  0  0  0  0  0  0
  1  2  1  0
  2  3  1  0
  3  4  1  0
  4  5  1  0
  5  6  1  0
  5  7  1  0
  2  8  2  0
  8  9  1  0
  9 10  2  3
  9 11  1  0
 11 12  1  0
 12 13  2  0
 12 14  1  0
 11 15  2  0
 15 16  1  0
 16 17  1  0
 17 18  2  0
 18 19  1  0
 19 20  2  0
 20 21  1  0
 21 22  1  0
 20 23  1  0
 23 24  2  0
 15  1  1  0
 24 17  1  0
  1 25  1  0
  3 26  1  0
  4 27  1  0
  4 28  1  0
  5 29  1  0
  6 30  1  0
  6 31  1  0
  6 32  1  0
  7 33  1  0
  7 34  1  0
  7 35  1  0
 10 36  1  0
 16 37  1  0
 18 38  1  0
 19 39  1  0
 22 40  1  0
 22 41  1  0
 22 42  1  0
 23 43  1  0
 24 44  1  0
M  CHG  2  12   1  14  -1
M  END
>  <ScrubInfo>  (6) 
{"isomerGroup": 0, "isomerId": 5, "confId": 0, "nr_conformers:": 1, "nr_isomers:": 9}

$$$$
_i6
     RDKit          3D

 44 45  0  0  0  0  0  0  0  0999 V2000
   -1.9623   -1.9539   -0.2613 N   0  0  0  0  0  0  0  0  0  0  0  0
   -1.1645   -0.8953    0.0364 C   0  0  0  0  0  0  0  0  0  0  0  0
   -1.7327    0.1107    0.7570 N   0  0  0  0  0  0  0  0  0  0  0  0
   -2.9929    0.7360    0.3747 C   0  0  0  0  0  0  0  0  0  0  0  0
   -3.3635    1.8489    1.3687 C   0  0  0  0  0  0  0  0  0  0  0  0
   -4.5659    2.6380    0.8483 C   0  0  0  0  0  0  0  0  0  0  0  0
   -3.6727    1.2837    2.7572 C   0  0  0  0  0  0  0  0  0  0  0  0
    0.0845   -0.8123   -0.2991 N   0  0  0  0  0  0  0  0  0  0  0  0
    0.6502   -1.8604   -1.0111 C   0  0  0  0  0  0  0  0  0  0  0  0
    1.9293   -1.8891   -1.2378 N   0  0  0  0  0  0  0  0  0  0  0  0
    2.7348   -0.8379   -0.7801 C   0  0  0  0  0  0  0  0  0  0  0  0
    3.2206   -0.8226    0.5281 C   0  0  0  0  0  0  0  0  0  0  0  0
    4.0484    0.2169    0.9605 C   0  0  0  0  0  0  0  0  0  0  0  0
    4.4140    1.2450    0.0879 C   0  0  0  0  0  0  0  0  0  0  0  0
    5.2264    2.1989    0.6364 O   0  0  0  0  0  0  0  0  0  0  0  0
    5.6612    3.2429   -0.2254 C   0  0  0  0  0  0  0  0  0  0  0  0
    3.9452    1.2225   -1.2259 C   0  0  0  0  0  0  0  0  0  0  0  0
    3.1142    0.1810   -1.6560 C   0  0  0  0  0  0  0  0  0  0  0  0
   -0.2565   -2.9418   -1.4653 C   0  0  0  0  0  0  0  0  0  0  0  0
    0.2577   -3.9650   -2.3217 N   0  0  0  0  0  4  0  0  0  0  0  0
    0.1060   -5.1434   -1.9566 O   0  0  0  0  0  0  0  0  0  0  0  0
    0.7577   -3.6165   -3.3994 O   0  0  0  0  0  1  0  0  0  0  0  0
   -1.5420   -3.0017   -1.0483 C   0  0  0  0  0  0  0  0  0  0  0  0
   -2.4664   -3.9912   -1.3445 N   0  0  0  0  0  0  0  0  0  0  0  0
   -2.9263   -1.9536    0.0308 H   0  0  0  0  0  0  0  0  0  0  0  0
   -1.0152    0.8144    0.9332 H   0  0  0  0  0  0  0  0  0  0  0  0
   -2.8840    1.1584   -0.6314 H   0  0  0  0  0  0  0  0  0  0  0  0
   -3.7974   -0.0071    0.3366 H   0  0  0  0  0  0  0  0  0  0  0  0
   -2.5181    2.5427    1.4637 H   0  0  0  0  0  0  0  0  0  0  0  0
   -4.8253    3.4504    1.5355 H   0  0  0  0  0  0  0  0  0  0  0  0
   -4.3454    3.0846   -0.1270 H   0  0  0  0  0  0  0  0  0  0  0  0
   -5.4456    1.9950    0.7360 H   0  0  0  0  0  0  0  0  0  0  0  0
   -3.9470    2.0867    3.4498 H   0  0  0  0  0  0  0  0  0  0  0  0
   -4.5040    0.5714    2.7200 H   0  0  0  0  0  0  0  0  0  0  0  0
   -2.8033    0.7686    3.1784 H   0  0  0  0  0  0  0  0  0  0  0  0
    2.9510   -1.6201    1.2134 H   0  0  0  0  0  0  0  0  0  0  0  0
    4.4146    0.2215    1.9837 H   0  0  0  0  0  0  0  0  0  0  0  0
    6.2506    2.8478   -1.0595 H   0  0  0  0  0  0  0  0  0  0  0  0
    4.8139    3.8362   -0.5848 H   0  0  0  0  0  0  0  0  0  0  0  0
    6.3095    3.9068    0.3547 H   0  0  0  0  0  0  0  0  0  0  0  0
    4.2066    1.9923   -1.9432 H   0  0  0  0  0  0  0  0  0  0  0  0
    2.7597    0.1604   -2.6829 H   0  0  0  0  0  0  0  0  0  0  0  0
   -2.0327   -4.8645   -1.6643 H   0  0  0  0  0  0  0  0  0  0  0  0
   -3.0927   -4.1852   -0.5669 H   0  0  0  0  0  0  0  0  0  0  0  0
  1  2  1  0
  2  3  1  0
  3  4  1  0
  4  5  1  0
  5  6  1  0
  5  7  1  0
  2  8  2  0
  8  9  1  0
  9 10  2  3
 10 11  1  0
 11 12  2  0
 12 13  1  0
 13 14  2  0
 14 15  1  0
 15 16  1  0
 14 17  1  0
 17 18  2  0
  9 19  1  0
 19 20  1  0
 20 21  2  0
 20 22  1  0
 19 23  2  0
 23 24  1  0
 23  1  1  0
 18 11  1  0
  1 25  1  0
  3 26  1  0
  4 27  1  0
  4 28  1  0
  5 29  1  0
  6 30  1  0
  6 31  1  0
  6 32  1  0
  7 33  1  0
  7 34  1  0
  7 35  1  0
 12 36  1  0
 13 37  1  0
 16 38  1  0
 16 39  1  0
 16 40  1  0
 17 41  1  0
 18 42  1  0
 24 43  1  0
 24 44  1  0
M  CHG  2  20   1  22  -1
M  END
>  <ScrubInfo>  (7) 
{"isomerGroup": 0, "isomerId": 6, "confId": 0, "nr_conformers:": 1, "nr_isomers:": 9}

$$$$
_i7
     RDKit          3D

 44 45  0  0  0  0  0  0  0  0999 V2000
   -1.9160   -1.0684   -0.3081 N   0  0  0  0  0  0  0  0  0  0  0  0
   -0.7046   -1.7251   -0.1134 C   0  0  0  0  0  0  0  0  0  0  0  0
   -0.7921   -3.0735    0.2072 N   0  0  0  0  0  0  0  0  0  0  0  0
    0.4509   -1.0231   -0.2656 C   0  0  0  0  0  0  0  0  0  0  0  0
    1.6839   -1.7396   -0.2273 N   0  0  0  0  0  4  0  0  0  0  0  0
    2.3105   -1.8519   -1.2891 O   0  0  0  0  0  0  0  0  0  0  0  0
    1.9972   -2.2663    0.8521 O   0  0  0  0  0  1  0  0  0  0  0  0
    0.3654    0.4369   -0.5858 C   0  0  0  0  0  0  0  0  0  0  0  0
    1.2865    1.3613   -0.6205 N   0  0  0  0  0  0  0  0  0  0  0  0
    2.6159    1.1280   -0.2668 C   0  0  0  0  0  0  0  0  0  0  0  0
    3.5941    1.0203   -1.2558 C   0  0  0  0  0  0  0  0  0  0  0  0
    4.9368    0.8209   -0.9140 C   0  0  0  0  0  0  0  0  0  0  0  0
    5.3140    0.7499    0.4269 C   0  0  0  0  0  0  0  0  0  0  0  0
    6.5840    0.5604    0.8971 O   0  0  0  0  0  0  0  0  0  0  0  0
    7.5976    0.3281   -0.0728 C   0  0  0  0  0  0  0  0  0  0  0  0
    4.3397    0.8931    1.4175 C   0  0  0  0  0  0  0  0  0  0  0  0
    2.9997    1.0898    1.0745 C   0  0  0  0  0  0  0  0  0  0  0  0
   -0.9082    0.8993   -0.8445 N   0  0  0  0  0  0  0  0  0  0  0  0
   -2.0928    0.2300   -0.7307 C   0  0  0  0  0  0  0  0  0  0  0  0
   -3.1893    0.8461   -0.9998 N   0  0  0  0  0  0  0  0  0  0  0  0
   -4.4712    0.1527   -0.8934 C   0  0  0  0  0  0  0  0  0  0  0  0
   -5.0023    0.2006    0.5473 C   0  0  0  0  0  0  0  0  0  0  0  0
   -6.2607   -0.6593    0.6708 C   0  0  0  0  0  0  0  0  0  0  0  0
   -5.3039    1.6348    0.9877 C   0  0  0  0  0  0  0  0  0  0  0  0
   -2.7242   -1.6731   -0.2975 H   0  0  0  0  0  0  0  0  0  0  0  0
    0.0624   -3.4576    0.6232 H   0  0  0  0  0  0  0  0  0  0  0  0
   -1.5886   -3.2858    0.8033 H   0  0  0  0  0  0  0  0  0  0  0  0
    3.3088    1.0791   -2.3028 H   0  0  0  0  0  0  0  0  0  0  0  0
    5.6572    0.7275   -1.7192 H   0  0  0  0  0  0  0  0  0  0  0  0
    8.5373    0.1558    0.4607 H   0  0  0  0  0  0  0  0  0  0  0  0
    7.7357    1.2041   -0.7151 H   0  0  0  0  0  0  0  0  0  0  0  0
    7.3820   -0.5674   -0.6651 H   0  0  0  0  0  0  0  0  0  0  0  0
    4.6276    0.8539    2.4651 H   0  0  0  0  0  0  0  0  0  0  0  0
    2.2599    1.2189    1.8590 H   0  0  0  0  0  0  0  0  0  0  0  0
   -0.9809    1.8791   -1.0855 H   0  0  0  0  0  0  0  0  0  0  0  0
   -4.3987   -0.8800   -1.2546 H   0  0  0  0  0  0  0  0  0  0  0  0
   -5.1802    0.6485   -1.5679 H   0  0  0  0  0  0  0  0  0  0  0  0
   -4.2456   -0.2093    1.2276 H   0  0  0  0  0  0  0  0  0  0  0  0
   -7.0587   -0.2939    0.0154 H   0  0  0  0  0  0  0  0  0  0  0  0
   -6.0487   -1.6991    0.4002 H   0  0  0  0  0  0  0  0  0  0  0  0
   -6.6372   -0.6530    1.6992 H   0  0  0  0  0  0  0  0  0  0  0  0
   -6.0496    2.1024    0.3357 H   0  0  0  0  0  0  0  0  0  0  0  0
   -4.4007    2.2531    0.9685 H   0  0  0  0  0  0  0  0  0  0  0  0
   -5.6929    1.6518    2.0115 H   0  0  0  0  0  0  0  0  0  0  0  0
  1  2  1  0
  2  3  1  0
  2  4  2  0
  4  5  1  0
  5  6  2  0
  5  7  1  0
  4  8  1  0
  8  9  2  3
  9 10  1  0
 10 11  2  0
 11 12  1  0
 12 13  2  0
 13 14  1  0
 14 15  1  0
 13 16  1  0
 16 17  2  0
  8 18  1  0
 18 19  1  0
 19 20  2  3
 20 21  1  0
 21 22  1  0
 22 23  1  0
 22 24  1  0
 19  1  1  0
 17 10  1  0
  1 25  1  0
  3 26  1  0
  3 27  1  0
 11 28  1  0
 12 29  1  0
 15 30  1  0
 15 31  1  0
 15 32  1  0
 16 33  1  0
 17 34  1  0
 18 35  1  0
 21 36  1  0
 21 37  1  0
 22 38  1  0
 23 39  1  0
 23 40  1  0
 23 41  1  0
 24 42  1  0
 24 43  1  0
 24 44  1  0
M  CHG  2   5   1   7  -1
M  END
>  <ScrubInfo>  (8) 
{"isomerGroup": 0, "isomerId": 7, "confId": 0, "nr_conformers:": 1, "nr_isomers:": 9}

$$$$
_i8
     RDKit          3D

 44 45  0  0  0  0  0  0  0  0999 V2000
   -1.4546   -1.4639   -2.3014 N   0  0  0  0  0  0  0  0  0  0  0  0
   -1.3625   -0.6934   -1.1686 C   0  0  0  0  0  0  0  0  0  0  0  0
   -2.2675   -0.4567   -0.2848 N   0  0  0  0  0  0  0  0  0  0  0  0
   -3.5875   -1.0618   -0.4458 C   0  0  0  0  0  0  0  0  0  0  0  0
   -4.4853   -0.6270    0.7233 C   0  0  0  0  0  0  0  0  0  0  0  0
   -5.7970   -1.4128    0.7011 C   0  0  0  0  0  0  0  0  0  0  0  0
   -4.7759    0.8750    0.6798 C   0  0  0  0  0  0  0  0  0  0  0  0
   -0.1245   -0.1227   -1.0241 N   0  0  0  0  0  0  0  0  0  0  0  0
    0.9929   -0.2506   -1.8524 C   0  0  0  0  0  0  0  0  0  0  0  0
    2.1593    0.4365   -1.5247 N   0  0  0  0  0  0  0  0  0  0  0  0
    2.7316    0.6582   -0.2569 C   0  0  0  0  0  0  0  0  0  0  0  0
    3.7134    1.6522   -0.1360 C   0  0  0  0  0  0  0  0  0  0  0  0
    4.2915    1.9624    1.1023 C   0  0  0  0  0  0  0  0  0  0  0  0
    3.8892    1.2842    2.2495 C   0  0  0  0  0  0  0  0  0  0  0  0
    4.3660    1.4840    3.5145 O   0  0  0  0  0  0  0  0  0  0  0  0
    5.3797    2.4688    3.6716 C   0  0  0  0  0  0  0  0  0  0  0  0
    2.9072    0.2996    2.1424 C   0  0  0  0  0  0  0  0  0  0  0  0
    2.3305   -0.0077    0.9047 C   0  0  0  0  0  0  0  0  0  0  0  0
    0.8516   -1.0073   -2.9720 C   0  0  0  0  0  0  0  0  0  0  0  0
    1.9686   -1.2182   -3.8440 N   0  0  0  0  0  4  0  0  0  0  0  0
    2.2905   -2.3853   -4.1005 O   0  0  0  0  0  0  0  0  0  0  0  0
    2.5898   -0.2113   -4.2243 O   0  0  0  0  0  1  0  0  0  0  0  0
   -0.4666   -1.6435   -3.2440 C   0  0  0  0  0  0  0  0  0  0  0  0
   -0.6987   -2.3131   -4.3301 N   0  0  0  0  0  0  0  0  0  0  0  0
   -2.3483   -1.8922   -2.4791 H   0  0  0  0  0  0  0  0  0  0  0  0
   -3.4941   -2.1549   -0.4421 H   0  0  0  0  0  0  0  0  0  0  0  0
   -4.0408   -0.7556   -1.3967 H   0  0  0  0  0  0  0  0  0  0  0  0
   -3.9711   -0.8470    1.6678 H   0  0  0  0  0  0  0  0  0  0  0  0
   -5.6073   -2.4888    0.7753 H   0  0  0  0  0  0  0  0  0  0  0  0
   -6.3548   -1.2297   -0.2237 H   0  0  0  0  0  0  0  0  0  0  0  0
   -6.4355   -1.1283    1.5442 H   0  0  0  0  0  0  0  0  0  0  0  0
   -5.4222    1.1687    1.5139 H   0  0  0  0  0  0  0  0  0  0  0  0
   -3.8535    1.4597    0.7563 H   0  0  0  0  0  0  0  0  0  0  0  0
   -5.2789    1.1555   -0.2520 H   0  0  0  0  0  0  0  0  0  0  0  0
   -0.0178    0.5209   -0.2478 H   0  0  0  0  0  0  0  0  0  0  0  0
    2.8328    0.5466   -2.2881 H   0  0  0  0  0  0  0  0  0  0  0  0
    4.0353    2.2092   -1.0137 H   0  0  0  0  0  0  0  0  0  0  0  0
    5.0466    2.7406    1.1312 H   0  0  0  0  0  0  0  0  0  0  0  0
    6.2774    2.2061    3.1021 H   0  0  0  0  0  0  0  0  0  0  0  0
    5.6545    2.4999    4.7303 H   0  0  0  0  0  0  0  0  0  0  0  0
    5.0113    3.4619    3.3939 H   0  0  0  0  0  0  0  0  0  0  0  0
    2.5885   -0.2401    3.0314 H   0  0  0  0  0  0  0  0  0  0  0  0
    1.5897   -0.8015    0.8725 H   0  0  0  0  0  0  0  0  0  0  0  0
   -1.6535   -2.6764   -4.3559 H   0  0  0  0  0  0  0  0  0  0  0  0
  1  2  1  0
  2  3  2  3
  3  4  1  0
  4  5  1  0
  5  6  1  0
  5  7  1  0
  2  8  1  0
  8  9  1  0
  9 10  1  0
 10 11  1  0
 11 12  2  0
 12 13  1  0
 13 14  2  0
 14 15  1  0
 15 16  1  0
 14 17  1  0
 17 18  2  0
  9 19  2  0
 19 20  1  0
 20 21  2  0
 20 22  1  0
 19 23  1  0
 23 24  2  3
 23  1  1  0
 18 11  1  0
  1 25  1  0
  4 26  1  0
  4 27  1  0
  5 28  1  0
  6 29  1  0
  6 30  1  0
  6 31  1  0
  7 32  1  0
  7 33  1  0
  7 34  1  0
  8 35  1  0
 10 36  1  0
 12 37  1  0
 13 38  1  0
 16 39  1  0
 16 40  1  0
 16 41  1  0
 17 42  1  0
 18 43  1  0
 24 44  1  0
M  CHG  2  20   1  22  -1
M  END
>  <ScrubInfo>  (9) 
{"isomerGroup": 0, "isomerId": 8, "confId": 0, "nr_conformers:": 1, "nr_isomers:": 9}

$$$$
