_i0
     RDKit          3D

 41 43  0  0  0  0  0  0  0  0999 V2000
   -6.8416    1.9211    0.0548 C   0  0  0  0  0  0  0  0  0  0  0  0
   -5.5984    1.9632    0.7434 O   0  0  0  0  0  0  0  0  0  0  0  0
   -4.5853    1.1987    0.2367 C   0  0  0  0  0  0  0  0  0  0  0  0
   -3.3885    1.2639    0.9481 C   0  0  0  0  0  0  0  0  0  0  0  0
   -2.2674    0.5309    0.5381 C   0  0  0  0  0  0  0  0  0  0  0  0
   -2.3170   -0.2935   -0.5872 C   0  0  0  0  0  0  0  0  0  0  0  0
   -1.2227   -1.0301   -1.0718 N   0  0  0  0  0  0  0  0  0  0  0  0
    0.1355   -1.0420   -0.7201 C   0  0  0  0  0  0  0  0  0  0  0  0
    0.6648   -0.1282    0.1367 N   0  0  0  0  0  0  0  0  0  0  0  0
    1.9729   -0.1453    0.4466 C   0  0  0  0  0  0  0  0  0  0  0  0
    2.3617    0.8465    1.3416 N   0  0  0  0  0  0  0  0  0  0  0  0
    3.6733    1.4114    1.0718 C   0  0  0  0  0  0  0  0  0  0  0  0
    3.9805    2.5432    2.0582 C   0  0  0  0  0  0  0  0  0  0  0  0
    5.2117    3.1849    1.7375 O   0  0  0  0  0  0  0  0  0  0  0  0
    2.8785   -1.0052   -0.0345 N   0  0  0  0  0  0  0  0  0  0  0  0
    2.3455   -1.9000   -0.8776 C   0  0  0  0  0  0  0  0  0  0  0  0
    1.0220   -1.9812   -1.2633 C   0  0  0  0  0  0  0  0  0  0  0  0
    0.9857   -3.0747   -2.1540 C   0  0  0  0  0  0  0  0  0  0  0  0
    2.1822   -3.6467   -2.3280 N   0  0  0  0  0  0  0  0  0  0  0  0
    2.9932   -2.9137   -1.5291 N   0  0  0  0  0  0  0  0  0  0  0  0
    4.3927   -3.2469   -1.4404 C   0  0  0  0  0  0  0  0  0  0  0  0
   -3.5263   -0.3423   -1.3000 C   0  0  0  0  0  0  0  0  0  0  0  0
   -4.6506    0.3909   -0.8943 C   0  0  0  0  0  0  0  0  0  0  0  0
   -7.2627    0.9103    0.0611 H   0  0  0  0  0  0  0  0  0  0  0  0
   -6.7396    2.3010   -0.9672 H   0  0  0  0  0  0  0  0  0  0  0  0
   -7.5399    2.5758    0.5850 H   0  0  0  0  0  0  0  0  0  0  0  0
   -3.3213    1.8901    1.8344 H   0  0  0  0  0  0  0  0  0  0  0  0
   -1.3648    0.6099    1.1351 H   0  0  0  0  0  0  0  0  0  0  0  0
   -1.4708   -1.7255   -1.7612 H   0  0  0  0  0  0  0  0  0  0  0  0
    1.5918    1.5091    1.3428 H   0  0  0  0  0  0  0  0  0  0  0  0
    3.7231    1.8063    0.0486 H   0  0  0  0  0  0  0  0  0  0  0  0
    4.4620    0.6535    1.1610 H   0  0  0  0  0  0  0  0  0  0  0  0
    3.1879    3.2993    2.0530 H   0  0  0  0  0  0  0  0  0  0  0  0
    4.0571    2.1506    3.0776 H   0  0  0  0  0  0  0  0  0  0  0  0
    5.0934    3.6400    0.8861 H   0  0  0  0  0  0  0  0  0  0  0  0
    0.1370   -3.4827   -2.6867 H   0  0  0  0  0  0  0  0  0  0  0  0
    4.8313   -3.1551   -2.4373 H   0  0  0  0  0  0  0  0  0  0  0  0
    4.4791   -4.2743   -1.0779 H   0  0  0  0  0  0  0  0  0  0  0  0
    4.8970   -2.5673   -0.7499 H   0  0  0  0  0  0  0  0  0  0  0  0
   -3.6087   -0.9544   -2.1950 H   0  0  0  0  0  0  0  0  0  0  0  0
   -5.5545    0.3083   -1.4878 H   0  0  0  0  0  0  0  0  0  0  0  0
  1  2  1  0
  2  3  1  0
  3  4  2  0
  4  5  1  0
  5  6  2  0
  6  7  1  0
  7  8  1  0
  8  9  2  0
  9 10  1  0
 10 11  1  0
 11 12  1  0
 12 13  1  0
 13 14  1  0
 10 15  2  0
 15 16  1  0
 16 17  2  0
 17 18  1  0
 18 19  2  0
 19 20  1  0
 20 21  1  0
  6 22  1  0
 22 23  2  0
 23  3  1  0
 17  8  1  0
 20 16  1  0
  1 24  1  0
  1 25  1  0
  1 26  1  0
  4 27  1  0
  5 28  1  0
  7 29  1  0
 11 30  1  0
 12 31  1  0
 12 32  1  0
 13 33  1  0
 13 34  1  0
 14 35  1  0
 18 36  1  0
 21 37  1  0
 21 38  1  0
 21 39  1  0
 22 40  1  0
 23 41  1  0
M  END
>  <ScrubInfo>  (1) 
{"isomerGroup": 0, "isomerId": 0, "confId": 0, "nr_conformers:": 1, "nr_isomers:": 9}

$$$$
_i1
     RDKit          3D

 41 43  0  0  0  0  0  0  0  0999 V2000
   -0.6662    0.0151   -0.4775 N   0  0  0  0  0  0  0  0  0  0  0  0
   -2.0197    0.2543   -0.4371 C   0  0  0  0  0  0  0  0  0  0  0  0
   -2.5166    0.7062    0.7538 N   0  0  0  0  0  0  0  0  0  0  0  0
   -1.9439    1.8731    1.4323 C   0  0  0  0  0  0  0  0  0  0  0  0
   -2.5995    2.0264    2.8067 C   0  0  0  0  0  0  0  0  0  0  0  0
   -2.3729    0.8543    3.5874 O   0  0  0  0  0  0  0  0  0  0  0  0
   -2.8396    0.0583   -1.4401 N   0  0  0  0  0  0  0  0  0  0  0  0
   -2.1754   -0.3947   -2.5416 C   0  0  0  0  0  0  0  0  0  0  0  0
   -0.8257   -0.6594   -2.6734 C   0  0  0  0  0  0  0  0  0  0  0  0
   -0.6602   -1.0983   -3.9937 C   0  0  0  0  0  0  0  0  0  0  0  0
   -1.8166   -1.1144   -4.6702 N   0  0  0  0  0  0  0  0  0  0  0  0
   -2.7256   -0.6843   -3.7597 N   0  0  0  0  0  0  0  0  0  0  0  0
   -4.1108   -0.5789   -4.1420 C   0  0  0  0  0  0  0  0  0  0  0  0
    0.0554   -0.4641   -1.5507 C   0  0  0  0  0  0  0  0  0  0  0  0
    1.3077   -0.7503   -1.6817 N   0  0  0  0  0  0  0  0  0  0  0  0
    2.1378   -0.5490   -0.5733 C   0  0  0  0  0  0  0  0  0  0  0  0
    2.3754   -1.5896    0.3267 C   0  0  0  0  0  0  0  0  0  0  0  0
    3.1887   -1.3908    1.4482 C   0  0  0  0  0  0  0  0  0  0  0  0
    3.7800   -0.1468    1.6707 C   0  0  0  0  0  0  0  0  0  0  0  0
    4.5876    0.1838    2.7230 O   0  0  0  0  0  0  0  0  0  0  0  0
    4.8889   -0.8496    3.6527 C   0  0  0  0  0  0  0  0  0  0  0  0
    3.5563    0.8887    0.7596 C   0  0  0  0  0  0  0  0  0  0  0  0
    2.7455    0.6882   -0.3599 C   0  0  0  0  0  0  0  0  0  0  0  0
   -0.1701    0.0613    0.3973 H   0  0  0  0  0  0  0  0  0  0  0  0
   -3.5244    0.8179    0.6390 H   0  0  0  0  0  0  0  0  0  0  0  0
   -0.8662    1.7362    1.5697 H   0  0  0  0  0  0  0  0  0  0  0  0
   -2.1096    2.7730    0.8310 H   0  0  0  0  0  0  0  0  0  0  0  0
   -2.1779    2.8823    3.3417 H   0  0  0  0  0  0  0  0  0  0  0  0
   -3.6810    2.1705    2.7156 H   0  0  0  0  0  0  0  0  0  0  0  0
   -2.5605    0.0976    2.9984 H   0  0  0  0  0  0  0  0  0  0  0  0
    0.2502   -1.4066   -4.4913 H   0  0  0  0  0  0  0  0  0  0  0  0
   -4.4580   -1.5677   -4.4522 H   0  0  0  0  0  0  0  0  0  0  0  0
   -4.1856    0.1296   -4.9708 H   0  0  0  0  0  0  0  0  0  0  0  0
   -4.7078   -0.2255   -3.2985 H   0  0  0  0  0  0  0  0  0  0  0  0
    1.9262   -2.5640    0.1509 H   0  0  0  0  0  0  0  0  0  0  0  0
    3.3423   -2.2279    2.1209 H   0  0  0  0  0  0  0  0  0  0  0  0
    5.4173   -1.6766    3.1669 H   0  0  0  0  0  0  0  0  0  0  0  0
    3.9834   -1.2007    4.1584 H   0  0  0  0  0  0  0  0  0  0  0  0
    5.5541   -0.4308    4.4139 H   0  0  0  0  0  0  0  0  0  0  0  0
    4.0255    1.8567    0.9181 H   0  0  0  0  0  0  0  0  0  0  0  0
    2.5914    1.4967   -1.0692 H   0  0  0  0  0  0  0  0  0  0  0  0
  1  2  1  0
  2  3  1  0
  3  4  1  0
  4  5  1  0
  5  6  1  0
  2  7  2  0
  7  8  1  0
  8  9  2  0
  9 10  1  0
 10 11  2  0
 11 12  1  0
 12 13  1  0
  9 14  1  0
 14 15  2  3
 15 16  1  0
 16 17  2  0
 17 18  1  0
 18 19  2  0
 19 20  1  0
 20 21  1  0
 19 22  1  0
 22 23  2  0
 14  1  1  0
 23 16  1  0
 12  8  1  0
  1 24  1  0
  3 25  1  0
  4 26  1  0
  4 27  1  0
  5 28  1  0
  5 29  1  0
  6 30  1  0
 10 31  1  0
 13 32  1  0
 13 33  1  0
 13 34  1  0
 17 35  1  0
 18 36  1  0
 21 37  1  0
 21 38  1  0
 21 39  1  0
 22 40  1  0
 23 41  1  0
M  END
>  <ScrubInfo>  (2) 
{"isomerGroup": 0, "isomerId": 1, "confId": 0, "nr_conformers:": 1, "nr_isomers:": 9}

$$$$
_i2
     RDKit          3D

 41 43  0  0  0  0  0  0  0  0999 V2000
   -1.0070    1.6084    0.9261 N   0  0  0  0  0  0  0  0  0  0  0  0
   -0.1536    0.5236    0.9403 C   0  0  0  0  0  0  0  0  0  0  0  0
    1.1956    0.6834    1.1916 N   0  0  0  0  0  0  0  0  0  0  0  0
    2.2650    0.2429    0.3786 C   0  0  0  0  0  0  0  0  0  0  0  0
    3.5617    0.2851    0.9105 C   0  0  0  0  0  0  0  0  0  0  0  0
    4.6656   -0.1680    0.1764 C   0  0  0  0  0  0  0  0  0  0  0  0
    4.4887   -0.6772   -1.1074 C   0  0  0  0  0  0  0  0  0  0  0  0
    5.4713   -1.1507   -1.9304 O   0  0  0  0  0  0  0  0  0  0  0  0
    6.8007   -1.1283   -1.4259 C   0  0  0  0  0  0  0  0  0  0  0  0
    3.2018   -0.7275   -1.6436 C   0  0  0  0  0  0  0  0  0  0  0  0
    2.0997   -0.2764   -0.9089 C   0  0  0  0  0  0  0  0  0  0  0  0
   -0.7424   -0.6649    0.7546 C   0  0  0  0  0  0  0  0  0  0  0  0
   -0.3539   -2.0788    0.6997 C   0  0  0  0  0  0  0  0  0  0  0  0
   -1.3626   -2.8758    0.4466 N   0  0  0  0  0  0  0  0  0  0  0  0
   -2.4915   -2.0429    0.3762 N   0  0  0  0  0  0  0  0  0  0  0  0
   -3.7108   -2.5661   -0.1926 C   0  0  0  0  0  0  0  0  0  0  0  0
   -2.2009   -0.6964    0.5141 C   0  0  0  0  0  0  0  0  0  0  0  0
   -2.9754    0.3349    0.4449 N   0  0  0  0  0  0  0  0  0  0  0  0
   -2.3493    1.5436    0.6552 C   0  0  0  0  0  0  0  0  0  0  0  0
   -3.0192    2.6428    0.5811 N   0  0  0  0  0  0  0  0  0  0  0  0
   -4.4692    2.5973    0.3382 C   0  0  0  0  0  0  0  0  0  0  0  0
   -4.7840    2.4289   -1.1516 C   0  0  0  0  0  0  0  0  0  0  0  0
   -4.7430    1.0598   -1.5510 O   0  0  0  0  0  0  0  0  0  0  0  0
   -0.6165    2.5360    0.9832 H   0  0  0  0  0  0  0  0  0  0  0  0
    1.4190    1.5761    1.6235 H   0  0  0  0  0  0  0  0  0  0  0  0
    3.7249    0.6616    1.9181 H   0  0  0  0  0  0  0  0  0  0  0  0
    5.6445   -0.1128    0.6407 H   0  0  0  0  0  0  0  0  0  0  0  0
    7.1274   -0.1036   -1.2201 H   0  0  0  0  0  0  0  0  0  0  0  0
    6.8962   -1.7603   -0.5367 H   0  0  0  0  0  0  0  0  0  0  0  0
    7.4584   -1.5387   -2.1982 H   0  0  0  0  0  0  0  0  0  0  0  0
    3.0531   -1.1199   -2.6473 H   0  0  0  0  0  0  0  0  0  0  0  0
    1.1222   -0.3182   -1.3809 H   0  0  0  0  0  0  0  0  0  0  0  0
    0.6885   -2.3905    0.8431 H   0  0  0  0  0  0  0  0  0  0  0  0
   -4.5815   -2.0161    0.1785 H   0  0  0  0  0  0  0  0  0  0  0  0
   -3.8426   -3.6196    0.0743 H   0  0  0  0  0  0  0  0  0  0  0  0
   -3.6867   -2.4849   -1.2837 H   0  0  0  0  0  0  0  0  0  0  0  0
   -4.8720    3.5601    0.6723 H   0  0  0  0  0  0  0  0  0  0  0  0
   -4.9557    1.8233    0.9438 H   0  0  0  0  0  0  0  0  0  0  0  0
   -5.7958    2.7894   -1.3603 H   0  0  0  0  0  0  0  0  0  0  0  0
   -4.0821    2.9915   -1.7751 H   0  0  0  0  0  0  0  0  0  0  0  0
   -4.0885    0.6289   -0.9630 H   0  0  0  0  0  0  0  0  0  0  0  0
  1  2  1  0
  2  3  1  0
  3  4  1  0
  4  5  2  0
  5  6  1  0
  6  7  2  0
  7  8  1  0
  8  9  1  0
  7 10  1  0
 10 11  2  0
  2 12  2  0
 12 13  1  0
 13 14  2  0
 14 15  1  0
 15 16  1  0
 15 17  1  0
 17 18  2  0
 18 19  1  0
 19 20  2  3
 20 21  1  0
 21 22  1  0
 22 23  1  0
 19  1  1  0
 11  4  1  0
 17 12  1  0
  1 24  1  0
  3 25  1  0
  5 26  1  0
  6 27  1  0
  9 28  1  0
  9 29  1  0
  9 30  1  0
 10 31  1  0
 11 32  1  0
 13 33  1  0
 16 34  1  0
 16 35  1  0
 16 36  1  0
 21 37  1  0
 21 38  1  0
 22 39  1  0
 22 40  1  0
 23 41  1  0
M  END
>  <ScrubInfo>  (3) 
{"isomerGroup": 0, "isomerId": 2, "confId": 0, "nr_conformers:": 1, "nr_isomers:": 9}

$$$$
_i3
     RDKit          3D

 41 43  0  0  0  0  0  0  0  0999 V2000
   -2.8616   -1.2477   -0.8781 N   0  0  0  0  0  0  0  0  0  0  0  0
   -2.8327    0.1233   -0.7393 C   0  0  0  0  0  0  0  0  0  0  0  0
   -3.8387    0.8013   -1.1872 N   0  0  0  0  0  0  0  0  0  0  0  0
   -3.8033    2.2593   -1.0541 C   0  0  0  0  0  0  0  0  0  0  0  0
   -4.3288    2.7004    0.3112 C   0  0  0  0  0  0  0  0  0  0  0  0
   -4.4465    4.1199    0.3739 O   0  0  0  0  0  0  0  0  0  0  0  0
   -1.7701    0.7731   -0.1306 N   0  0  0  0  0  0  0  0  0  0  0  0
   -0.7614    0.0710    0.3076 C   0  0  0  0  0  0  0  0  0  0  0  0
    0.3154    0.6355    0.9425 N   0  0  0  0  0  0  0  0  0  0  0  0
    1.6534    0.5452    0.4791 C   0  0  0  0  0  0  0  0  0  0  0  0
    1.9962    0.1292   -0.8109 C   0  0  0  0  0  0  0  0  0  0  0  0
    3.3362    0.0868   -1.2099 C   0  0  0  0  0  0  0  0  0  0  0  0
    4.3558    0.4674   -0.3361 C   0  0  0  0  0  0  0  0  0  0  0  0
    5.6173    0.3772   -0.8541 O   0  0  0  0  0  0  0  0  0  0  0  0
    6.6929    0.7356    0.0043 C   0  0  0  0  0  0  0  0  0  0  0  0
    4.0226    0.8987    0.9460 C   0  0  0  0  0  0  0  0  0  0  0  0
    2.6811    0.9416    1.3457 C   0  0  0  0  0  0  0  0  0  0  0  0
   -0.7665   -1.3716    0.2102 C   0  0  0  0  0  0  0  0  0  0  0  0
    0.0504   -2.4448    0.5964 C   0  0  0  0  0  0  0  0  0  0  0  0
   -0.4673   -3.6325    0.2422 N   0  0  0  0  0  0  0  0  0  0  0  0
   -1.6343   -3.3095   -0.3687 N   0  0  0  0  0  0  0  0  0  0  0  0
   -2.4743   -4.3624   -0.8796 C   0  0  0  0  0  0  0  0  0  0  0  0
   -1.8386   -1.9676   -0.3943 C   0  0  0  0  0  0  0  0  0  0  0  0
   -3.6920   -1.6137   -1.3240 H   0  0  0  0  0  0  0  0  0  0  0  0
   -2.8128    2.6880   -1.2517 H   0  0  0  0  0  0  0  0  0  0  0  0
   -4.4448    2.6833   -1.8364 H   0  0  0  0  0  0  0  0  0  0  0  0
   -5.3136    2.2650    0.5122 H   0  0  0  0  0  0  0  0  0  0  0  0
   -3.6570    2.3828    1.1142 H   0  0  0  0  0  0  0  0  0  0  0  0
   -5.0907    4.3810   -0.3063 H   0  0  0  0  0  0  0  0  0  0  0  0
    0.1197    1.6205    1.1138 H   0  0  0  0  0  0  0  0  0  0  0  0
    1.2360   -0.1576   -1.5329 H   0  0  0  0  0  0  0  0  0  0  0  0
    3.5858   -0.2431   -2.2158 H   0  0  0  0  0  0  0  0  0  0  0  0
    6.6305    1.7893    0.2956 H   0  0  0  0  0  0  0  0  0  0  0  0
    7.6249    0.5989   -0.5526 H   0  0  0  0  0  0  0  0  0  0  0  0
    6.7312    0.0835    0.8831 H   0  0  0  0  0  0  0  0  0  0  0  0
    4.7776    1.2087    1.6605 H   0  0  0  0  0  0  0  0  0  0  0  0
    2.4432    1.2767    2.3532 H   0  0  0  0  0  0  0  0  0  0  0  0
    0.9988   -2.4220    1.1179 H   0  0  0  0  0  0  0  0  0  0  0  0
   -3.3452   -3.9342   -1.3802 H   0  0  0  0  0  0  0  0  0  0  0  0
   -1.8927   -4.9532   -1.5918 H   0  0  0  0  0  0  0  0  0  0  0  0
   -2.7960   -4.9834   -0.0399 H   0  0  0  0  0  0  0  0  0  0  0  0
  1  2  1  0
  2  3  2  3
  3  4  1  0
  4  5  1  0
  5  6  1  0
  2  7  1  0
  7  8  2  0
  8  9  1  0
  9 10  1  0
 10 11  2  0
 11 12  1  0
 12 13  2  0
 13 14  1  0
 14 15  1  0
 13 16  1  0
 16 17  2  0
  8 18  1  0
 18 19  1  0
 19 20  2  0
 20 21  1  0
 21 22  1  0
 21 23  1  0
 23  1  1  0
 17 10  1  0
 23 18  2  0
  1 24  1  0
  4 25  1  0
  4 26  1  0
  5 27  1  0
  5 28  1  0
  6 29  1  0
  9 30  1  0
 11 31  1  0
 12 32  1  0
 15 33  1  0
 15 34  1  0
 15 35  1  0
 16 36  1  0
 17 37  1  0
 19 38  1  0
 22 39  1  0
 22 40  1  0
 22 41  1  0
M  END
>  <ScrubInfo>  (4) 
{"isomerGroup": 0, "isomerId": 3, "confId": 0, "nr_conformers:": 1, "nr_isomers:": 9}

$$$$
_i4
     RDKit          3D

 41 43  0  0  0  0  0  0  0  0999 V2000
   -2.4420   -0.7098   -0.6518 N   0  0  0  0  0  0  0  0  0  0  0  0
   -2.5546    0.5696   -0.1713 C   0  0  0  0  0  0  0  0  0  0  0  0
   -3.8338    1.0198   -0.0093 N   0  0  0  0  0  0  0  0  0  0  0  0
   -4.7794    0.3010    0.8512 C   0  0  0  0  0  0  0  0  0  0  0  0
   -6.1825    0.8717    0.6378 C   0  0  0  0  0  0  0  0  0  0  0  0
   -6.5582    0.7268   -0.7314 O   0  0  0  0  0  0  0  0  0  0  0  0
   -1.5639    1.3661    0.1072 N   0  0  0  0  0  0  0  0  0  0  0  0
   -0.2548    0.9265   -0.0605 C   0  0  0  0  0  0  0  0  0  0  0  0
    0.6697    1.7600    0.2966 N   0  0  0  0  0  0  0  0  0  0  0  0
    2.0273    1.4633    0.1939 C   0  0  0  0  0  0  0  0  0  0  0  0
    2.7460    1.8364   -0.9421 C   0  0  0  0  0  0  0  0  0  0  0  0
    4.1133    1.5630   -1.0308 C   0  0  0  0  0  0  0  0  0  0  0  0
    4.7822    0.9312    0.0208 C   0  0  0  0  0  0  0  0  0  0  0  0
    6.1156    0.7199   -0.1955 O   0  0  0  0  0  0  0  0  0  0  0  0
    6.8419    0.0786    0.8453 C   0  0  0  0  0  0  0  0  0  0  0  0
    4.0713    0.5831    1.1699 C   0  0  0  0  0  0  0  0  0  0  0  0
    2.7014    0.8573    1.2567 C   0  0  0  0  0  0  0  0  0  0  0  0
   -0.0834   -0.4083   -0.6126 C   0  0  0  0  0  0  0  0  0  0  0  0
    0.9759   -1.2462   -1.0068 C   0  0  0  0  0  0  0  0  0  0  0  0
    0.5556   -2.4277   -1.4877 N   0  0  0  0  0  0  0  0  0  0  0  0
   -0.7911   -2.3470   -1.4071 N   0  0  0  0  0  0  0  0  0  0  0  0
   -1.5873   -3.4623   -1.8517 C   0  0  0  0  0  0  0  0  0  0  0  0
   -1.1983   -1.1618   -0.8844 C   0  0  0  0  0  0  0  0  0  0  0  0
   -3.2791   -1.1423   -1.0191 H   0  0  0  0  0  0  0  0  0  0  0  0
   -3.7663    1.9946    0.2882 H   0  0  0  0  0  0  0  0  0  0  0  0
   -4.7888   -0.7634    0.5932 H   0  0  0  0  0  0  0  0  0  0  0  0
   -4.4821    0.4035    1.9001 H   0  0  0  0  0  0  0  0  0  0  0  0
   -6.2216    1.9361    0.8912 H   0  0  0  0  0  0  0  0  0  0  0  0
   -6.9135    0.3393    1.2530 H   0  0  0  0  0  0  0  0  0  0  0  0
   -5.8023    1.0689   -1.2484 H   0  0  0  0  0  0  0  0  0  0  0  0
    2.2402    2.3429   -1.7594 H   0  0  0  0  0  0  0  0  0  0  0  0
    4.6621    1.8512   -1.9239 H   0  0  0  0  0  0  0  0  0  0  0  0
    6.8376    0.6818    1.7591 H   0  0  0  0  0  0  0  0  0  0  0  0
    7.8809   -0.0196    0.5164 H   0  0  0  0  0  0  0  0  0  0  0  0
    6.4558   -0.9287    1.0337 H   0  0  0  0  0  0  0  0  0  0  0  0
    4.5492    0.1051    2.0181 H   0  0  0  0  0  0  0  0  0  0  0  0
    2.1548    0.5995    2.1601 H   0  0  0  0  0  0  0  0  0  0  0  0
    2.0417   -1.0649   -0.9782 H   0  0  0  0  0  0  0  0  0  0  0  0
   -2.6336   -3.3042   -1.5820 H   0  0  0  0  0  0  0  0  0  0  0  0
   -1.4888   -3.5418   -2.9371 H   0  0  0  0  0  0  0  0  0  0  0  0
   -1.2172   -4.3692   -1.3666 H   0  0  0  0  0  0  0  0  0  0  0  0
  1  2  1  0
  2  3  1  0
  3  4  1  0
  4  5  1  0
  5  6  1  0
  2  7  2  0
  7  8  1  0
  8  9  2  3
  9 10  1  0
 10 11  2  0
 11 12  1  0
 12 13  2  0
 13 14  1  0
 14 15  1  0
 13 16  1  0
 16 17  2  0
  8 18  1  0
 18 19  1  0
 19 20  2  0
 20 21  1  0
 21 22  1  0
 21 23  1  0
 23  1  1  0
 17 10  1  0
 23 18  2  0
  1 24  1  0
  3 25  1  0
  4 26  1  0
  4 27  1  0
  5 28  1  0
  5 29  1  0
  6 30  1  0
 11 31  1  0
 12 32  1  0
 15 33  1  0
 15 34  1  0
 15 35  1  0
 16 36  1  0
 17 37  1  0
 19 38  1  0
 22 39  1  0
 22 40  1  0
 22 41  1  0
M  END
>  <ScrubInfo>  (5) 
{"isomerGroup": 0, "isomerId": 4, "confId": 0, "nr_conformers:": 1, "nr_isomers:": 9}

$$$$
_i5
     RDKit          3D

 41 43  0  0  0  0  0  0  0  0999 V2000
   -0.0137    3.1817    0.6638 N   0  0  0  0  0  0  0  0  0  0  0  0
    0.4805    1.8973    0.4606 C   0  0  0  0  0  0  0  0  0  0  0  0
   -0.4794    0.9672    0.3409 C   0  0  0  0  0  0  0  0  0  0  0  0
   -0.6084   -0.4642    0.1007 C   0  0  0  0  0  0  0  0  0  0  0  0
    0.2902   -1.3840   -0.0197 N   0  0  0  0  0  0  0  0  0  0  0  0
    1.6461   -1.0728    0.0889 C   0  0  0  0  0  0  0  0  0  0  0  0
    2.3979   -0.7977   -1.0553 C   0  0  0  0  0  0  0  0  0  0  0  0
    3.7615   -0.4972   -0.9586 C   0  0  0  0  0  0  0  0  0  0  0  0
    4.3873   -0.4853    0.2884 C   0  0  0  0  0  0  0  0  0  0  0  0
    5.7043   -0.2036    0.5249 O   0  0  0  0  0  0  0  0  0  0  0  0
    6.5257    0.0289   -0.6126 C   0  0  0  0  0  0  0  0  0  0  0  0
    3.6401   -0.7841    1.4308 C   0  0  0  0  0  0  0  0  0  0  0  0
    2.2798   -1.0863    1.3318 C   0  0  0  0  0  0  0  0  0  0  0  0
   -1.9042   -0.8898   -0.0189 N   0  0  0  0  0  0  0  0  0  0  0  0
   -2.9312   -0.1127    0.1289 C   0  0  0  0  0  0  0  0  0  0  0  0
   -4.2008   -0.5976    0.0026 N   0  0  0  0  0  0  0  0  0  0  0  0
   -4.5210   -1.8149   -0.7194 C   0  0  0  0  0  0  0  0  0  0  0  0
   -4.1244   -3.0747    0.0521 C   0  0  0  0  0  0  0  0  0  0  0  0
   -4.7309   -4.2206   -0.5467 O   0  0  0  0  0  0  0  0  0  0  0  0
   -2.8763    1.2241    0.4158 N   0  0  0  0  0  0  0  0  0  0  0  0
   -1.7103    1.7565    0.5351 C   0  0  0  0  0  0  0  0  0  0  0  0
   -1.3870    3.0814    0.8323 N   0  0  0  0  0  0  0  0  0  0  0  0
   -2.2337    4.1746    0.3960 C   0  0  0  0  0  0  0  0  0  0  0  0
    0.4929    3.6983    1.3869 H   0  0  0  0  0  0  0  0  0  0  0  0
    1.5516    1.7631    0.4214 H   0  0  0  0  0  0  0  0  0  0  0  0
    1.9161   -0.8215   -2.0295 H   0  0  0  0  0  0  0  0  0  0  0  0
    4.3015   -0.2846   -1.8748 H   0  0  0  0  0  0  0  0  0  0  0  0
    7.5455    0.2061   -0.2577 H   0  0  0  0  0  0  0  0  0  0  0  0
    6.5491   -0.8468   -1.2697 H   0  0  0  0  0  0  0  0  0  0  0  0
    6.2022    0.9230   -1.1556 H   0  0  0  0  0  0  0  0  0  0  0  0
    4.1232   -0.7931    2.4047 H   0  0  0  0  0  0  0  0  0  0  0  0
    1.7129   -1.3366    2.2242 H   0  0  0  0  0  0  0  0  0  0  0  0
   -4.8791    0.1479   -0.0901 H   0  0  0  0  0  0  0  0  0  0  0  0
   -4.0583   -1.8136   -1.7137 H   0  0  0  0  0  0  0  0  0  0  0  0
   -5.6030   -1.8370   -0.8974 H   0  0  0  0  0  0  0  0  0  0  0  0
   -3.0407   -3.2217    0.0474 H   0  0  0  0  0  0  0  0  0  0  0  0
   -4.4630   -3.0169    1.0920 H   0  0  0  0  0  0  0  0  0  0  0  0
   -4.3679   -4.9944   -0.0814 H   0  0  0  0  0  0  0  0  0  0  0  0
   -3.2590    4.0343    0.7530 H   0  0  0  0  0  0  0  0  0  0  0  0
   -2.2490    4.2429   -0.6968 H   0  0  0  0  0  0  0  0  0  0  0  0
   -1.8671    5.1244    0.7988 H   0  0  0  0  0  0  0  0  0  0  0  0
  1  2  1  0
  2  3  2  0
  3  4  1  0
  4  5  2  3
  5  6  1  0
  6  7  2  0
  7  8  1  0
  8  9  2  0
  9 10  1  0
 10 11  1  0
  9 12  1  0
 12 13  2  0
  4 14  1  0
 14 15  2  0
 15 16  1  0
 16 17  1  0
 17 18  1  0
 18 19  1  0
 15 20  1  0
 20 21  2  0
 21 22  1  0
 22 23  1  0
 22  1  1  0
 21  3  1  0
 13  6  1  0
  1 24  1  0
  2 25  1  0
  7 26  1  0
  8 27  1  0
 11 28  1  0
 11 29  1  0
 11 30  1  0
 12 31  1  0
 13 32  1  0
 16 33  1  0
 17 34  1  0
 17 35  1  0
 18 36  1  0
 18 37  1  0
 19 38  1  0
 23 39  1  0
 23 40  1  0
 23 41  1  0
M  END
>  <ScrubInfo>  (6) 
{"isomerGroup": 0, "isomerId": 5, "confId": 0, "nr_conformers:": 1, "nr_isomers:": 9}

$$$$
_i6
     RDKit          3D

 41 43  0  0  0  0  0  0  0  0999 V2000
   -2.0412   -4.4311   -0.3264 N   0  0  0  0  0  0  0  0  0  0  0  0
   -0.8744   -3.6768   -0.3900 C   0  0  0  0  0  0  0  0  0  0  0  0
   -1.0910   -2.3638   -0.2276 C   0  0  0  0  0  0  0  0  0  0  0  0
   -0.3182   -1.1171   -0.2151 C   0  0  0  0  0  0  0  0  0  0  0  0
    1.0519   -1.1727   -0.3961 N   0  0  0  0  0  0  0  0  0  0  0  0
    2.0181   -0.1578   -0.2623 C   0  0  0  0  0  0  0  0  0  0  0  0
    1.7747    1.0864    0.3220 C   0  0  0  0  0  0  0  0  0  0  0  0
    2.7778    2.0615    0.3929 C   0  0  0  0  0  0  0  0  0  0  0  0
    4.0480    1.8214   -0.1280 C   0  0  0  0  0  0  0  0  0  0  0  0
    4.9303    2.8558    0.0067 O   0  0  0  0  0  0  0  0  0  0  0  0
    6.2352    2.6628   -0.5237 C   0  0  0  0  0  0  0  0  0  0  0  0
    4.3071    0.5910   -0.7235 C   0  0  0  0  0  0  0  0  0  0  0  0
    3.3007   -0.3832   -0.7907 C   0  0  0  0  0  0  0  0  0  0  0  0
   -0.9874   -0.0111   -0.0525 N   0  0  0  0  0  0  0  0  0  0  0  0
   -2.3570   -0.0467    0.0902 C   0  0  0  0  0  0  0  0  0  0  0  0
   -3.0158    1.0557    0.1740 N   0  0  0  0  0  0  0  0  0  0  0  0
   -2.2496    2.3058    0.1084 C   0  0  0  0  0  0  0  0  0  0  0  0
   -3.2478    3.4628    0.1420 C   0  0  0  0  0  0  0  0  0  0  0  0
   -4.0631    3.3574    1.3086 O   0  0  0  0  0  0  0  0  0  0  0  0
   -3.1492   -1.1656    0.1614 N   0  0  0  0  0  0  0  0  0  0  0  0
   -2.5471   -2.2931    0.0199 C   0  0  0  0  0  0  0  0  0  0  0  0
   -3.0762   -3.5830    0.0512 N   0  0  0  0  0  0  0  0  0  0  0  0
   -4.4229   -3.8483   -0.4188 C   0  0  0  0  0  0  0  0  0  0  0  0
   -1.9481   -5.2912    0.2198 H   0  0  0  0  0  0  0  0  0  0  0  0
    0.0627   -4.1877   -0.5534 H   0  0  0  0  0  0  0  0  0  0  0  0
    1.4490   -2.0739   -0.6246 H   0  0  0  0  0  0  0  0  0  0  0  0
    0.8091    1.3264    0.7556 H   0  0  0  0  0  0  0  0  0  0  0  0
    2.5590    3.0183    0.8614 H   0  0  0  0  0  0  0  0  0  0  0  0
    6.8092    3.5762   -0.3405 H   0  0  0  0  0  0  0  0  0  0  0  0
    6.7492    1.8392   -0.0172 H   0  0  0  0  0  0  0  0  0  0  0  0
    6.2016    2.5021   -1.6064 H   0  0  0  0  0  0  0  0  0  0  0  0
    5.2761    0.3547   -1.1497 H   0  0  0  0  0  0  0  0  0  0  0  0
    3.5359   -1.3277   -1.2757 H   0  0  0  0  0  0  0  0  0  0  0  0
   -1.6561    2.3707   -0.8104 H   0  0  0  0  0  0  0  0  0  0  0  0
   -1.5913    2.3805    0.9820 H   0  0  0  0  0  0  0  0  0  0  0  0
   -2.7297    4.4256    0.1652 H   0  0  0  0  0  0  0  0  0  0  0  0
   -3.9057    3.4386   -0.7327 H   0  0  0  0  0  0  0  0  0  0  0  0
   -4.2803    2.4030    1.3566 H   0  0  0  0  0  0  0  0  0  0  0  0
   -4.5038   -3.6584   -1.4942 H   0  0  0  0  0  0  0  0  0  0  0  0
   -5.1459   -3.2148    0.1049 H   0  0  0  0  0  0  0  0  0  0  0  0
   -4.6935   -4.8919   -0.2284 H   0  0  0  0  0  0  0  0  0  0  0  0
  1  2  1  0
  2  3  2  0
  3  4  1  0
  4  5  1  0
  5  6  1  0
  6  7  2  0
  7  8  1  0
  8  9  2  0
  9 10  1  0
 10 11  1  0
  9 12  1  0
 12 13  2  0
  4 14  2  0
 14 15  1  0
 15 16  2  3
 16 17  1  0
 17 18  1  0
 18 19  1  0
 15 20  1  0
 20 21  2  0
 21 22  1  0
 22 23  1  0
 22  1  1  0
 21  3  1  0
 13  6  1  0
  1 24  1  0
  2 25  1  0
  5 26  1  0
  7 27  1  0
  8 28  1  0
 11 29  1  0
 11 30  1  0
 11 31  1  0
 12 32  1  0
 13 33  1  0
 17 34  1  0
 17 35  1  0
 18 36  1  0
 18 37  1  0
 19 38  1  0
 23 39  1  0
 23 40  1  0
 23 41  1  0
M  END
>  <ScrubInfo>  (7) 
{"isomerGroup": 0, "isomerId": 6, "confId": 0, "nr_conformers:": 1, "nr_isomers:": 9}

$$$$
_i7
     RDKit          3D

 41 43  0  0  0  0  0  0  0  0999 V2000
   -2.6749   -1.1441   -0.1840 N   0  0  0  0  0  0  0  0  0  0  0  0
   -2.8628    0.2219   -0.2351 C   0  0  0  0  0  0  0  0  0  0  0  0
   -4.0730    0.6715   -0.2421 N   0  0  0  0  0  0  0  0  0  0  0  0
   -4.2678    2.1177   -0.2950 C   0  0  0  0  0  0  0  0  0  0  0  0
   -5.7614    2.4294   -0.2152 C   0  0  0  0  0  0  0  0  0  0  0  0
   -5.9855    3.8277   -0.3661 O   0  0  0  0  0  0  0  0  0  0  0  0
   -1.6800    0.9350   -0.2748 N   0  0  0  0  0  0  0  0  0  0  0  0
   -0.3642    0.5135   -0.2739 C   0  0  0  0  0  0  0  0  0  0  0  0
    0.6047    1.3786   -0.3143 N   0  0  0  0  0  0  0  0  0  0  0  0
    1.9460    0.9952   -0.3123 C   0  0  0  0  0  0  0  0  0  0  0  0
    2.6266    0.8023   -1.5147 C   0  0  0  0  0  0  0  0  0  0  0  0
    3.9781    0.4487   -1.5085 C   0  0  0  0  0  0  0  0  0  0  0  0
    4.6696    0.3003   -0.3033 C   0  0  0  0  0  0  0  0  0  0  0  0
    5.9840   -0.0507   -0.4387 O   0  0  0  0  0  0  0  0  0  0  0  0
    6.7280   -0.2317    0.7596 C   0  0  0  0  0  0  0  0  0  0  0  0
    3.9975    0.5190    0.8996 C   0  0  0  0  0  0  0  0  0  0  0  0
    2.6433    0.8732    0.8918 C   0  0  0  0  0  0  0  0  0  0  0  0
   -0.2753   -0.9358   -0.2232 C   0  0  0  0  0  0  0  0  0  0  0  0
    0.7379   -1.9126   -0.2092 C   0  0  0  0  0  0  0  0  0  0  0  0
    0.2556   -3.1636   -0.1558 N   0  0  0  0  0  0  0  0  0  0  0  0
   -1.0842   -2.9920   -0.1310 N   0  0  0  0  0  0  0  0  0  0  0  0
   -1.9410   -4.1497   -0.0787 C   0  0  0  0  0  0  0  0  0  0  0  0
   -1.4355   -1.6784   -0.1775 C   0  0  0  0  0  0  0  0  0  0  0  0
   -3.5323   -1.6832   -0.1543 H   0  0  0  0  0  0  0  0  0  0  0  0
   -3.7578    2.6207    0.5358 H   0  0  0  0  0  0  0  0  0  0  0  0
   -3.8639    2.5293   -1.2282 H   0  0  0  0  0  0  0  0  0  0  0  0
   -6.3218    1.8994   -0.9930 H   0  0  0  0  0  0  0  0  0  0  0  0
   -6.1652    2.1211    0.7546 H   0  0  0  0  0  0  0  0  0  0  0  0
   -5.8036    4.0481   -1.2957 H   0  0  0  0  0  0  0  0  0  0  0  0
   -1.7551    1.9395   -0.3058 H   0  0  0  0  0  0  0  0  0  0  0  0
    2.1048    0.9267   -2.4592 H   0  0  0  0  0  0  0  0  0  0  0  0
    4.4975    0.2922   -2.4508 H   0  0  0  0  0  0  0  0  0  0  0  0
    6.7898    0.7010    1.3300 H   0  0  0  0  0  0  0  0  0  0  0  0
    7.7463   -0.5191    0.4805 H   0  0  0  0  0  0  0  0  0  0  0  0
    6.3083   -1.0404    1.3670 H   0  0  0  0  0  0  0  0  0  0  0  0
    4.4946    0.4292    1.8594 H   0  0  0  0  0  0  0  0  0  0  0  0
    2.1283    1.0551    1.8314 H   0  0  0  0  0  0  0  0  0  0  0  0
    1.8118   -1.7884   -0.2371 H   0  0  0  0  0  0  0  0  0  0  0  0
   -2.9077   -3.8720    0.3470 H   0  0  0  0  0  0  0  0  0  0  0  0
   -2.0672   -4.5254   -1.0968 H   0  0  0  0  0  0  0  0  0  0  0  0
   -1.4726   -4.9094    0.5527 H   0  0  0  0  0  0  0  0  0  0  0  0
  1  2  1  0
  2  3  2  3
  3  4  1  0
  4  5  1  0
  5  6  1  0
  2  7  1  0
  7  8  1  0
  8  9  2  3
  9 10  1  0
 10 11  2  0
 11 12  1  0
 12 13  2  0
 13 14  1  0
 14 15  1  0
 13 16  1  0
 16 17  2  0
  8 18  1  0
 18 19  1  0
 19 20  2  0
 20 21  1  0
 21 22  1  0
 21 23  1  0
 23  1  1  0
 17 10  1  0
 23 18  2  0
  1 24  1  0
  4 25  1  0
  4 26  1  0
  5 27  1  0
  5 28  1  0
  6 29  1  0
  7 30  1  0
 11 31  1  0
 12 32  1  0
 15 33  1  0
 15 34  1  0
 15 35  1  0
 16 36  1  0
 17 37  1  0
 19 38  1  0
 22 39  1  0
 22 40  1  0
 22 41  1  0
M  END
>  <ScrubInfo>  (8) 
{"isomerGroup": 0, "isomerId": 7, "confId": 0, "nr_conformers:": 1, "nr_isomers:": 9}

$$$$
_i8
     RDKit          3D

 41 43  0  0  0  0  0  0  0  0999 V2000
    0.2618   -3.0076    0.2886 N   0  0  0  0  0  0  0  0  0  0  0  0
    0.7116   -1.6947    0.2048 C   0  0  0  0  0  0  0  0  0  0  0  0
   -0.2748   -0.7996    0.0515 C   0  0  0  0  0  0  0  0  0  0  0  0
   -0.4739    0.6501   -0.1280 C   0  0  0  0  0  0  0  0  0  0  0  0
    0.4048    1.6090   -0.1475 N   0  0  0  0  0  0  0  0  0  0  0  0
    1.7636    1.3352    0.0266 C   0  0  0  0  0  0  0  0  0  0  0  0
    2.3258    1.3273    1.3033 C   0  0  0  0  0  0  0  0  0  0  0  0
    3.6884    1.0678    1.4695 C   0  0  0  0  0  0  0  0  0  0  0  0
    4.5082    0.8322    0.3627 C   0  0  0  0  0  0  0  0  0  0  0  0
    5.8187    0.5872    0.6648 O   0  0  0  0  0  0  0  0  0  0  0  0
    6.7075    0.4010   -0.4298 C   0  0  0  0  0  0  0  0  0  0  0  0
    3.9526    0.8647   -0.9167 C   0  0  0  0  0  0  0  0  0  0  0  0
    2.5867    1.1229   -1.0814 C   0  0  0  0  0  0  0  0  0  0  0  0
   -1.7921    0.9836   -0.3000 N   0  0  0  0  0  0  0  0  0  0  0  0
   -2.8691    0.1341   -0.3076 C   0  0  0  0  0  0  0  0  0  0  0  0
   -4.0993    0.4577   -0.4980 N   0  0  0  0  0  0  0  0  0  0  0  0
   -4.4405    1.8607   -0.7363 C   0  0  0  0  0  0  0  0  0  0  0  0
   -5.9583    1.9504   -0.8956 C   0  0  0  0  0  0  0  0  0  0  0  0
   -6.5877    1.4290    0.2728 O   0  0  0  0  0  0  0  0  0  0  0  0
   -2.7057   -1.2175   -0.0925 N   0  0  0  0  0  0  0  0  0  0  0  0
   -1.5040   -1.6651    0.0918 C   0  0  0  0  0  0  0  0  0  0  0  0
   -1.1241   -2.9854    0.3425 N   0  0  0  0  0  0  0  0  0  0  0  0
   -1.8745   -4.0971   -0.2095 C   0  0  0  0  0  0  0  0  0  0  0  0
    0.7323   -3.5519    1.0155 H   0  0  0  0  0  0  0  0  0  0  0  0
    1.7750   -1.5161    0.2674 H   0  0  0  0  0  0  0  0  0  0  0  0
    1.7029    1.5250    2.1710 H   0  0  0  0  0  0  0  0  0  0  0  0
    4.1162    1.0586    2.4691 H   0  0  0  0  0  0  0  0  0  0  0  0
    6.7443    1.2920   -1.0653 H   0  0  0  0  0  0  0  0  0  0  0  0
    7.7105    0.2409   -0.0225 H   0  0  0  0  0  0  0  0  0  0  0  0
    6.4377   -0.4880   -1.0093 H   0  0  0  0  0  0  0  0  0  0  0  0
    4.5503    0.6993   -1.8066 H   0  0  0  0  0  0  0  0  0  0  0  0
    2.1611    1.1596   -2.0807 H   0  0  0  0  0  0  0  0  0  0  0  0
   -1.9587    1.9676   -0.4323 H   0  0  0  0  0  0  0  0  0  0  0  0
   -3.9551    2.2378   -1.6428 H   0  0  0  0  0  0  0  0  0  0  0  0
   -4.1366    2.4679    0.1245 H   0  0  0  0  0  0  0  0  0  0  0  0
   -6.2756    2.9887   -1.0275 H   0  0  0  0  0  0  0  0  0  0  0  0
   -6.3001    1.3659   -1.7558 H   0  0  0  0  0  0  0  0  0  0  0  0
   -6.1097    0.5915    0.4480 H   0  0  0  0  0  0  0  0  0  0  0  0
   -1.8094   -4.1055   -1.3025 H   0  0  0  0  0  0  0  0  0  0  0  0
   -2.9285   -4.0328    0.0790 H   0  0  0  0  0  0  0  0  0  0  0  0
   -1.4826   -5.0465    0.1695 H   0  0  0  0  0  0  0  0  0  0  0  0
  1  2  1  0
  2  3  2  0
  3  4  1  0
  4  5  2  3
  5  6  1  0
  6  7  2  0
  7  8  1  0
  8  9  2  0
  9 10  1  0
 10 11  1  0
  9 12  1  0
 12 13  2  0
  4 14  1  0
 14 15  1  0
 15 16  2  3
 16 17  1  0
 17 18  1  0
 18 19  1  0
 15 20  1  0
 20 21  2  0
 21 22  1  0
 22 23  1  0
 22  1  1  0
 21  3  1  0
 13  6  1  0
  1 24  1  0
  2 25  1  0
  7 26  1  0
  8 27  1  0
 11 28  1  0
 11 29  1  0
 11 30  1  0
 12 31  1  0
 13 32  1  0
 14 33  1  0
 17 34  1  0
 17 35  1  0
 18 36  1  0
 18 37  1  0
 19 38  1  0
 23 39  1  0
 23 40  1  0
 23 41  1  0
M  END
>  <ScrubInfo>  (9) 
{"isomerGroup": 0, "isomerId": 8, "confId": 0, "nr_conformers:": 1, "nr_isomers:": 9}

$$$$
