REMARK SMILES COc1ccc(Nc2nc(NCCO)nc3c2cnn3C)cc1
REMARK SMILES IDX 8 1 9 2 10 3 15 4 16 5 17 6 18 7 19 8 20 9 21 10 7 11 6 13
REMARK SMILES IDX 3 14 4 15 23 16 5 17 22 18 2 19 1 20 11 21 12 23 13 24 14 25
REMARK H PARENT 7 12 11 22 14 26
ROOT
ATOM      1  C   UNL     1       0.136  -1.042  -0.720  1.00  0.00     0.147 A 
ATOM      2  N   UNL     1       0.665  -0.128   0.137  1.00  0.00    -0.195 NA
ATOM      3  C   UNL     1       1.973  -0.145   0.447  1.00  0.00     0.226 A 
ATOM      4  N   UNL     1       2.878  -1.005  -0.035  1.00  0.00    -0.193 NA
ATOM      5  C   UNL     1       2.345  -1.900  -0.878  1.00  0.00     0.165 A 
ATOM      6  C   UNL     1       1.022  -1.981  -1.263  1.00  0.00     0.082 A 
ATOM      7  C   UNL     1       0.986  -3.075  -2.154  1.00  0.00     0.149 A 
ATOM      8  N   UNL     1       2.182  -3.647  -2.328  1.00  0.00    -0.179 NA
ATOM      9  N   UNL     1       2.993  -2.914  -1.529  1.00  0.00    -0.250 N 
ATOM     10  C   UNL     1       4.393  -3.247  -1.440  1.00  0.00     0.176 C 
ENDROOT
BRANCH   1  11
ATOM     11  N   UNL     1      -1.223  -1.030  -1.072  1.00  0.00    -0.339 N 
ATOM     12  H   UNL     1      -1.471  -1.726  -1.761  1.00  0.00     0.168 HD
BRANCH  11  13
ATOM     13  C   UNL     1      -2.317  -0.293  -0.587  1.00  0.00     0.040 A 
ATOM     14  C   UNL     1      -4.585   1.199   0.237  1.00  0.00     0.119 A 
ATOM     15  C   UNL     1      -3.389   1.264   0.948  1.00  0.00     0.048 A 
ATOM     16  C   UNL     1      -4.651   0.391  -0.894  1.00  0.00     0.048 A 
ATOM     17  C   UNL     1      -2.267   0.531   0.538  1.00  0.00     0.030 A 
ATOM     18  C   UNL     1      -3.526  -0.342  -1.300  1.00  0.00     0.030 A 
BRANCH  14  19
ATOM     19  O   UNL     1      -5.598   1.963   0.743  1.00  0.00    -0.497 OA
ATOM     20  C   UNL     1      -6.842   1.921   0.055  1.00  0.00     0.278 C 
ENDBRANCH  14  19
ENDBRANCH  11  13
ENDBRANCH   1  11
BRANCH   3  21
ATOM     21  N   UNL     1       2.362   0.847   1.342  1.00  0.00    -0.352 N 
ATOM     22  H   UNL     1       1.592   1.509   1.343  1.00  0.00     0.163 HD
BRANCH  21  23
ATOM     23  C   UNL     1       3.673   1.411   1.072  1.00  0.00     0.144 C 
BRANCH  23  24
ATOM     24  C   UNL     1       3.981   2.543   2.058  1.00  0.00     0.177 C 
BRANCH  24  25
ATOM     25  O   UNL     1       5.212   3.185   1.738  1.00  0.00    -0.395 OA
ATOM     26  H   UNL     1       5.093   3.640   0.886  1.00  0.00     0.210 HD
ENDBRANCH  24  25
ENDBRANCH  23  24
ENDBRANCH  21  23
ENDBRANCH   3  21
TORSDOF 7
