_i0
     RDKit          3D

 47 49  0  0  0  0  0  0  0  0999 V2000
   -3.4363   -2.4173   -3.2025 C   0  0  0  0  0  0  0  0  0  0  0  0
   -4.1791   -1.5980   -2.1797 C   0  0  0  0  0  0  0  0  0  0  0  0
   -5.5859   -1.6004   -2.2169 C   0  0  0  0  0  0  0  0  0  0  0  0
   -6.3244   -0.8498   -1.3068 C   0  0  0  0  0  0  0  0  0  0  0  0
   -5.6650   -0.0883   -0.3518 C   0  0  0  0  0  0  0  0  0  0  0  0
   -4.2679   -0.0815   -0.3046 C   0  0  0  0  0  0  0  0  0  0  0  0
   -3.4967   -0.8404   -1.1972 C   0  0  0  0  0  0  0  0  0  0  0  0
   -2.0936   -0.8179   -1.1840 N   0  0  0  0  0  0  0  0  0  0  0  0
   -1.1422   -0.0512   -0.5110 C   0  0  0  0  0  0  0  0  0  0  0  0
    0.1055   -0.4876   -0.6303 N   0  0  0  0  0  0  0  0  0  0  0  0
    1.0272    0.2355   -0.0180 C   0  0  0  0  0  0  0  0  0  0  0  0
    2.3317   -0.2272   -0.1421 N   0  0  0  0  0  0  0  0  0  0  0  0
    3.1545    0.0077    1.0266 C   0  0  0  0  0  0  0  0  0  0  0  0
    4.4782   -0.7027    0.8460 C   0  0  0  0  0  0  0  0  0  0  0  0
    5.4115   -0.2295   -0.0903 C   0  0  0  0  0  0  0  0  0  0  0  0
    6.6313   -0.8851   -0.2707 C   0  0  0  0  0  0  0  0  0  0  0  0
    6.9231   -2.0203    0.4816 C   0  0  0  0  0  0  0  0  0  0  0  0
    8.4251   -2.8300    0.2605 Cl  0  0  0  0  0  0  0  0  0  0  0  0
    6.0050   -2.5069    1.4103 C   0  0  0  0  0  0  0  0  0  0  0  0
    4.7842   -1.8516    1.5907 C   0  0  0  0  0  0  0  0  0  0  0  0
    0.7751    1.3341    0.6758 N   0  0  0  0  0  0  0  0  0  0  0  0
   -0.4936    1.7222    0.7409 C   0  0  0  0  0  0  0  0  0  0  0  0
   -0.8087    2.8729    1.4740 N   0  0  0  0  0  0  0  0  0  0  0  0
   -2.0887    3.4729    1.1263 C   0  0  0  0  0  0  0  0  0  0  0  0
    0.3068    3.7885    1.6628 C   0  0  0  0  0  0  0  0  0  0  0  0
   -1.4758    1.0406    0.1633 N   0  0  0  0  0  0  0  0  0  0  0  0
   -2.8810   -3.2224   -2.7108 H   0  0  0  0  0  0  0  0  0  0  0  0
   -4.1190   -2.8785   -3.9243 H   0  0  0  0  0  0  0  0  0  0  0  0
   -2.7441   -1.7852   -3.7681 H   0  0  0  0  0  0  0  0  0  0  0  0
   -6.1152   -2.1870   -2.9647 H   0  0  0  0  0  0  0  0  0  0  0  0
   -7.4101   -0.8573   -1.3457 H   0  0  0  0  0  0  0  0  0  0  0  0
   -6.2317    0.5030    0.3623 H   0  0  0  0  0  0  0  0  0  0  0  0
   -3.7945    0.5184    0.4665 H   0  0  0  0  0  0  0  0  0  0  0  0
   -1.6240   -1.5728   -1.6600 H   0  0  0  0  0  0  0  0  0  0  0  0
    2.2745   -1.1964   -0.4333 H   0  0  0  0  0  0  0  0  0  0  0  0
    2.6622   -0.3600    1.9366 H   0  0  0  0  0  0  0  0  0  0  0  0
    3.3519    1.0783    1.1679 H   0  0  0  0  0  0  0  0  0  0  0  0
    5.1820    0.6509   -0.6885 H   0  0  0  0  0  0  0  0  0  0  0  0
    7.3433   -0.5079   -0.9996 H   0  0  0  0  0  0  0  0  0  0  0  0
    6.2323   -3.3946    1.9945 H   0  0  0  0  0  0  0  0  0  0  0  0
    4.0749   -2.2444    2.3163 H   0  0  0  0  0  0  0  0  0  0  0  0
   -2.9211    2.7854    1.3143 H   0  0  0  0  0  0  0  0  0  0  0  0
   -2.1114    3.7914    0.0776 H   0  0  0  0  0  0  0  0  0  0  0  0
   -2.2750    4.3568    1.7470 H   0  0  0  0  0  0  0  0  0  0  0  0
   -0.0058    4.6486    2.2658 H   0  0  0  0  0  0  0  0  0  0  0  0
    1.1315    3.3146    2.2077 H   0  0  0  0  0  0  0  0  0  0  0  0
    0.6786    4.1703    0.7048 H   0  0  0  0  0  0  0  0  0  0  0  0
  1  2  1  0
  2  3  2  0
  3  4  1  0
  4  5  2  0
  5  6  1  0
  6  7  2  0
  7  8  1  0
  8  9  1  0
  9 10  2  0
 10 11  1  0
 11 12  1  0
 12 13  1  0
 13 14  1  0
 14 15  2  0
 15 16  1  0
 16 17  2  0
 17 18  1  0
 17 19  1  0
 19 20  2  0
 11 21  2  0
 21 22  1  0
 22 23  1  0
 23 24  1  0
 23 25  1  0
 22 26  2  0
  7  2  1  0
 26  9  1  0
 20 14  1  0
  1 27  1  0
  1 28  1  0
  1 29  1  0
  3 30  1  0
  4 31  1  0
  5 32  1  0
  6 33  1  0
  8 34  1  0
 12 35  1  0
 13 36  1  0
 13 37  1  0
 15 38  1  0
 16 39  1  0
 19 40  1  0
 20 41  1  0
 24 42  1  0
 24 43  1  0
 24 44  1  0
 25 45  1  0
 25 46  1  0
 25 47  1  0
M  END
>  <ScrubInfo>  (1) 
{"isomerGroup": 0, "isomerId": 0, "confId": 0, "nr_conformers:": 1, "nr_isomers:": 9}

$$$$
_i1
     RDKit          3D

 47 49  0  0  0  0  0  0  0  0999 V2000
    0.0776    0.9956   -0.3330 N   0  0  0  0  0  0  0  0  0  0  0  0
    0.9541   -0.0197   -0.2422 C   0  0  0  0  0  0  0  0  0  0  0  0
    2.2331    0.3091   -0.5862 N   0  0  0  0  0  0  0  0  0  0  0  0
    3.3122   -0.6397   -0.3832 C   0  0  0  0  0  0  0  0  0  0  0  0
    4.6049   -0.0326   -0.8752 C   0  0  0  0  0  0  0  0  0  0  0  0
    4.8625    0.0610   -2.2521 C   0  0  0  0  0  0  0  0  0  0  0  0
    6.0472    0.6383   -2.7144 C   0  0  0  0  0  0  0  0  0  0  0  0
    6.9784    1.1299   -1.8025 C   0  0  0  0  0  0  0  0  0  0  0  0
    8.4376    1.8425   -2.3706 Cl  0  0  0  0  0  0  0  0  0  0  0  0
    6.7339    1.0518   -0.4328 C   0  0  0  0  0  0  0  0  0  0  0  0
    5.5488    0.4747    0.0304 C   0  0  0  0  0  0  0  0  0  0  0  0
    0.5742   -1.1988    0.1299 N   0  0  0  0  0  0  0  0  0  0  0  0
   -0.7594   -1.3676    0.4544 C   0  0  0  0  0  0  0  0  0  0  0  0
   -1.1557   -2.6183    0.9059 N   0  0  0  0  0  0  0  0  0  0  0  0
   -2.5775   -2.9133    1.0267 C   0  0  0  0  0  0  0  0  0  0  0  0
   -0.2828   -3.7665    0.7241 C   0  0  0  0  0  0  0  0  0  0  0  0
   -1.6439   -0.4143    0.3561 N   0  0  0  0  0  0  0  0  0  0  0  0
   -1.2384    0.8075   -0.0911 C   0  0  0  0  0  0  0  0  0  0  0  0
   -2.0789    1.7802   -0.2969 N   0  0  0  0  0  0  0  0  0  0  0  0
   -3.4445    1.5573   -0.0464 C   0  0  0  0  0  0  0  0  0  0  0  0
   -4.2594    1.0884   -1.0845 C   0  0  0  0  0  0  0  0  0  0  0  0
   -5.6239    0.8786   -0.8834 C   0  0  0  0  0  0  0  0  0  0  0  0
   -6.1888    1.1456    0.3604 C   0  0  0  0  0  0  0  0  0  0  0  0
   -5.3916    1.6283    1.3992 C   0  0  0  0  0  0  0  0  0  0  0  0
   -4.0191    1.8508    1.2036 C   0  0  0  0  0  0  0  0  0  0  0  0
   -3.1753    2.3624    2.3357 C   0  0  0  0  0  0  0  0  0  0  0  0
    0.3164    1.8546   -0.7954 H   0  0  0  0  0  0  0  0  0  0  0  0
    2.5030    1.2607   -0.3688 H   0  0  0  0  0  0  0  0  0  0  0  0
    3.3966   -0.8965    0.6797 H   0  0  0  0  0  0  0  0  0  0  0  0
    3.1208   -1.5712   -0.9299 H   0  0  0  0  0  0  0  0  0  0  0  0
    4.1345   -0.3140   -2.9698 H   0  0  0  0  0  0  0  0  0  0  0  0
    6.2349    0.7027   -3.7829 H   0  0  0  0  0  0  0  0  0  0  0  0
    7.4601    1.4379    0.2778 H   0  0  0  0  0  0  0  0  0  0  0  0
    5.3691    0.4225    1.1025 H   0  0  0  0  0  0  0  0  0  0  0  0
   -3.0972   -2.1349    1.5961 H   0  0  0  0  0  0  0  0  0  0  0  0
   -3.0371   -2.9945    0.0361 H   0  0  0  0  0  0  0  0  0  0  0  0
   -2.7441   -3.8557    1.5595 H   0  0  0  0  0  0  0  0  0  0  0  0
   -0.6568   -4.6421    1.2657 H   0  0  0  0  0  0  0  0  0  0  0  0
    0.7224   -3.5657    1.1102 H   0  0  0  0  0  0  0  0  0  0  0  0
   -0.2092   -4.0276   -0.3368 H   0  0  0  0  0  0  0  0  0  0  0  0
   -3.8178    0.8804   -2.0548 H   0  0  0  0  0  0  0  0  0  0  0  0
   -6.2410    0.5078   -1.6966 H   0  0  0  0  0  0  0  0  0  0  0  0
   -7.2506    0.9811    0.5224 H   0  0  0  0  0  0  0  0  0  0  0  0
   -5.8474    1.8336    2.3649 H   0  0  0  0  0  0  0  0  0  0  0  0
   -2.5176    1.5693    2.7051 H   0  0  0  0  0  0  0  0  0  0  0  0
   -2.5700    3.2152    2.0115 H   0  0  0  0  0  0  0  0  0  0  0  0
   -3.7943    2.7052    3.1716 H   0  0  0  0  0  0  0  0  0  0  0  0
  1  2  1  0
  2  3  1  0
  3  4  1  0
  4  5  1  0
  5  6  2  0
  6  7  1  0
  7  8  2  0
  8  9  1  0
  8 10  1  0
 10 11  2  0
  2 12  2  0
 12 13  1  0
 13 14  1  0
 14 15  1  0
 14 16  1  0
 13 17  2  0
 17 18  1  0
 18 19  2  3
 19 20  1  0
 20 21  2  0
 21 22  1  0
 22 23  2  0
 23 24  1  0
 24 25  2  0
 25 26  1  0
 18  1  1  0
 25 20  1  0
 11  5  1  0
  1 27  1  0
  3 28  1  0
  4 29  1  0
  4 30  1  0
  6 31  1  0
  7 32  1  0
 10 33  1  0
 11 34  1  0
 15 35  1  0
 15 36  1  0
 15 37  1  0
 16 38  1  0
 16 39  1  0
 16 40  1  0
 21 41  1  0
 22 42  1  0
 23 43  1  0
 24 44  1  0
 26 45  1  0
 26 46  1  0
 26 47  1  0
M  END
>  <ScrubInfo>  (2) 
{"isomerGroup": 0, "isomerId": 1, "confId": 0, "nr_conformers:": 1, "nr_isomers:": 9}

$$$$
_i2
     RDKit          3D

 47 49  0  0  0  0  0  0  0  0999 V2000
   -0.3129    0.3281   -0.5245 N   0  0  0  0  0  0  0  0  0  0  0  0
   -1.4452    1.0513   -0.6399 C   0  0  0  0  0  0  0  0  0  0  0  0
   -2.5991    0.3654   -0.8982 N   0  0  0  0  0  0  0  0  0  0  0  0
   -3.0202   -0.8255   -0.2563 C   0  0  0  0  0  0  0  0  0  0  0  0
   -2.5562   -1.1817    1.0207 C   0  0  0  0  0  0  0  0  0  0  0  0
   -2.9973   -2.3489    1.6460 C   0  0  0  0  0  0  0  0  0  0  0  0
   -3.9192   -3.1720    1.0092 C   0  0  0  0  0  0  0  0  0  0  0  0
   -4.4063   -2.8255   -0.2499 C   0  0  0  0  0  0  0  0  0  0  0  0
   -3.9692   -1.6547   -0.8908 C   0  0  0  0  0  0  0  0  0  0  0  0
   -4.5144   -1.3154   -2.2523 C   0  0  0  0  0  0  0  0  0  0  0  0
   -1.4264    2.3442   -0.5664 N   0  0  0  0  0  0  0  0  0  0  0  0
   -0.2046    2.9461   -0.3313 C   0  0  0  0  0  0  0  0  0  0  0  0
   -0.1845    4.3295   -0.2319 N   0  0  0  0  0  0  0  0  0  0  0  0
   -1.4247    5.0702   -0.0704 C   0  0  0  0  0  0  0  0  0  0  0  0
    1.0217    4.9951    0.2412 C   0  0  0  0  0  0  0  0  0  0  0  0
    0.9068    2.2764   -0.2016 N   0  0  0  0  0  0  0  0  0  0  0  0
    0.8853    0.9185   -0.3114 C   0  0  0  0  0  0  0  0  0  0  0  0
    2.0354    0.3585   -0.1922 N   0  0  0  0  0  0  0  0  0  0  0  0
    2.1163   -1.0951   -0.2819 C   0  0  0  0  0  0  0  0  0  0  0  0
    3.5145   -1.6236   -0.0410 C   0  0  0  0  0  0  0  0  0  0  0  0
    4.4114   -0.9554    0.8068 C   0  0  0  0  0  0  0  0  0  0  0  0
    5.6846   -1.4755    1.0515 C   0  0  0  0  0  0  0  0  0  0  0  0
    6.0662   -2.6755    0.4578 C   0  0  0  0  0  0  0  0  0  0  0  0
    7.6330   -3.3202    0.7596 Cl  0  0  0  0  0  0  0  0  0  0  0  0
    5.1853   -3.3606   -0.3759 C   0  0  0  0  0  0  0  0  0  0  0  0
    3.9121   -2.8388   -0.6204 C   0  0  0  0  0  0  0  0  0  0  0  0
   -0.3645   -0.6611   -0.6888 H   0  0  0  0  0  0  0  0  0  0  0  0
   -3.3853    1.0012   -1.0074 H   0  0  0  0  0  0  0  0  0  0  0  0
   -1.8631   -0.5406    1.5612 H   0  0  0  0  0  0  0  0  0  0  0  0
   -2.6293   -2.6075    2.6359 H   0  0  0  0  0  0  0  0  0  0  0  0
   -4.2671   -4.0797    1.4962 H   0  0  0  0  0  0  0  0  0  0  0  0
   -5.1332   -3.4774   -0.7303 H   0  0  0  0  0  0  0  0  0  0  0  0
   -3.6991   -1.2301   -2.9780 H   0  0  0  0  0  0  0  0  0  0  0  0
   -5.1987   -2.0893   -2.6162 H   0  0  0  0  0  0  0  0  0  0  0  0
   -5.0699   -0.3729   -2.2139 H   0  0  0  0  0  0  0  0  0  0  0  0
   -1.8581    4.8800    0.9170 H   0  0  0  0  0  0  0  0  0  0  0  0
   -2.1553    4.7921   -0.8375 H   0  0  0  0  0  0  0  0  0  0  0  0
   -1.2625    6.1490   -0.1693 H   0  0  0  0  0  0  0  0  0  0  0  0
    1.9060    4.6486   -0.3044 H   0  0  0  0  0  0  0  0  0  0  0  0
    0.9644    6.0784    0.0896 H   0  0  0  0  0  0  0  0  0  0  0  0
    1.1678    4.8070    1.3100 H   0  0  0  0  0  0  0  0  0  0  0  0
    1.7930   -1.4113   -1.2818 H   0  0  0  0  0  0  0  0  0  0  0  0
    1.4594   -1.5632    0.4621 H   0  0  0  0  0  0  0  0  0  0  0  0
    4.1207   -0.0155    1.2738 H   0  0  0  0  0  0  0  0  0  0  0  0
    6.3679   -0.9381    1.7028 H   0  0  0  0  0  0  0  0  0  0  0  0
    5.4816   -4.2985   -0.8371 H   0  0  0  0  0  0  0  0  0  0  0  0
    3.2329   -3.3860   -1.2702 H   0  0  0  0  0  0  0  0  0  0  0  0
  1  2  1  0
  2  3  1  0
  3  4  1  0
  4  5  2  0
  5  6  1  0
  6  7  2  0
  7  8  1  0
  8  9  2  0
  9 10  1  0
  2 11  2  0
 11 12  1  0
 12 13  1  0
 13 14  1  0
 13 15  1  0
 12 16  2  0
 16 17  1  0
 17 18  2  3
 18 19  1  0
 19 20  1  0
 20 21  2  0
 21 22  1  0
 22 23  2  0
 23 24  1  0
 23 25  1  0
 25 26  2  0
 17  1  1  0
 26 20  1  0
  9  4  1  0
  1 27  1  0
  3 28  1  0
  5 29  1  0
  6 30  1  0
  7 31  1  0
  8 32  1  0
 10 33  1  0
 10 34  1  0
 10 35  1  0
 14 36  1  0
 14 37  1  0
 14 38  1  0
 15 39  1  0
 15 40  1  0
 15 41  1  0
 19 42  1  0
 19 43  1  0
 21 44  1  0
 22 45  1  0
 25 46  1  0
 26 47  1  0
M  END
>  <ScrubInfo>  (3) 
{"isomerGroup": 0, "isomerId": 2, "confId": 0, "nr_conformers:": 1, "nr_isomers:": 9}

$$$$
_i3
     RDKit          3D

 47 49  0  0  0  0  0  0  0  0999 V2000
    0.5192    2.6953    0.5704 N   0  0  0  0  0  0  0  0  0  0  0  0
   -0.2961    2.4788    1.6224 C   0  0  0  0  0  0  0  0  0  0  0  0
   -0.2798    3.4226    2.6349 N   0  0  0  0  0  0  0  0  0  0  0  0
   -1.1227    3.1802    3.8076 C   0  0  0  0  0  0  0  0  0  0  0  0
   -0.0548    4.8386    2.3512 C   0  0  0  0  0  0  0  0  0  0  0  0
   -1.0397    1.4129    1.6526 N   0  0  0  0  0  0  0  0  0  0  0  0
   -0.9830    0.5503    0.5757 C   0  0  0  0  0  0  0  0  0  0  0  0
   -1.8355   -0.5146    0.7002 N   0  0  0  0  0  0  0  0  0  0  0  0
   -2.2172   -1.5103   -0.2155 C   0  0  0  0  0  0  0  0  0  0  0  0
   -1.9724   -1.4012   -1.5925 C   0  0  0  0  0  0  0  0  0  0  0  0
   -2.3202   -2.4201   -2.4836 C   0  0  0  0  0  0  0  0  0  0  0  0
   -2.9166   -3.5814   -2.0122 C   0  0  0  0  0  0  0  0  0  0  0  0
   -3.1611   -3.7245   -0.6495 C   0  0  0  0  0  0  0  0  0  0  0  0
   -2.8102   -2.7065    0.2565 C   0  0  0  0  0  0  0  0  0  0  0  0
   -3.0801   -2.9296    1.7216 C   0  0  0  0  0  0  0  0  0  0  0  0
   -0.1867    0.7202   -0.4373 N   0  0  0  0  0  0  0  0  0  0  0  0
    0.6462    1.7949   -0.4270 C   0  0  0  0  0  0  0  0  0  0  0  0
    1.5558    1.9621   -1.3279 N   0  0  0  0  0  0  0  0  0  0  0  0
    1.6782    0.9494   -2.3760 C   0  0  0  0  0  0  0  0  0  0  0  0
    2.6914   -0.1154   -2.0255 C   0  0  0  0  0  0  0  0  0  0  0  0
    2.2743   -1.3737   -1.5685 C   0  0  0  0  0  0  0  0  0  0  0  0
    3.2123   -2.3503   -1.2273 C   0  0  0  0  0  0  0  0  0  0  0  0
    4.5724   -2.0697   -1.3351 C   0  0  0  0  0  0  0  0  0  0  0  0
    5.7296   -3.2722   -0.9135 Cl  0  0  0  0  0  0  0  0  0  0  0  0
    5.0032   -0.8201   -1.7762 C   0  0  0  0  0  0  0  0  0  0  0  0
    4.0643    0.1562   -2.1162 C   0  0  0  0  0  0  0  0  0  0  0  0
    1.2783    3.3483    0.6409 H   0  0  0  0  0  0  0  0  0  0  0  0
   -2.1763    3.3553    3.5658 H   0  0  0  0  0  0  0  0  0  0  0  0
   -1.0069    2.1527    4.1696 H   0  0  0  0  0  0  0  0  0  0  0  0
   -0.8420    3.8392    4.6363 H   0  0  0  0  0  0  0  0  0  0  0  0
   -0.0618    5.4378    3.2683 H   0  0  0  0  0  0  0  0  0  0  0  0
   -0.8364    5.2230    1.6876 H   0  0  0  0  0  0  0  0  0  0  0  0
    0.9205    5.0004    1.8823 H   0  0  0  0  0  0  0  0  0  0  0  0
   -2.3236   -0.5150    1.5820 H   0  0  0  0  0  0  0  0  0  0  0  0
   -1.5243   -0.5029   -2.0067 H   0  0  0  0  0  0  0  0  0  0  0  0
   -2.1237   -2.2986   -3.5455 H   0  0  0  0  0  0  0  0  0  0  0  0
   -3.1881   -4.3753   -2.7027 H   0  0  0  0  0  0  0  0  0  0  0  0
   -3.6226   -4.6430   -0.2933 H   0  0  0  0  0  0  0  0  0  0  0  0
   -2.1572   -2.8207    2.3006 H   0  0  0  0  0  0  0  0  0  0  0  0
   -3.4667   -3.9363    1.9127 H   0  0  0  0  0  0  0  0  0  0  0  0
   -3.8263   -2.2141    2.0815 H   0  0  0  0  0  0  0  0  0  0  0  0
    2.0145    1.4540   -3.2910 H   0  0  0  0  0  0  0  0  0  0  0  0
    0.7194    0.4981   -2.6600 H   0  0  0  0  0  0  0  0  0  0  0  0
    1.2132   -1.5938   -1.4655 H   0  0  0  0  0  0  0  0  0  0  0  0
    2.8732   -3.3199   -0.8739 H   0  0  0  0  0  0  0  0  0  0  0  0
    6.0635   -0.5973   -1.8522 H   0  0  0  0  0  0  0  0  0  0  0  0
    4.4024    1.1361   -2.4462 H   0  0  0  0  0  0  0  0  0  0  0  0
  1  2  1  0
  2  3  1  0
  3  4  1  0
  3  5  1  0
  2  6  2  0
  6  7  1  0
  7  8  1  0
  8  9  1  0
  9 10  2  0
 10 11  1  0
 11 12  2  0
 12 13  1  0
 13 14  2  0
 14 15  1  0
  7 16  2  0
 16 17  1  0
 17 18  2  3
 18 19  1  0
 19 20  1  0
 20 21  2  0
 21 22  1  0
 22 23  2  0
 23 24  1  0
 23 25  1  0
 25 26  2  0
 17  1  1  0
 26 20  1  0
 14  9  1  0
  1 27  1  0
  4 28  1  0
  4 29  1  0
  4 30  1  0
  5 31  1  0
  5 32  1  0
  5 33  1  0
  8 34  1  0
 10 35  1  0
 11 36  1  0
 12 37  1  0
 13 38  1  0
 15 39  1  0
 15 40  1  0
 15 41  1  0
 19 42  1  0
 19 43  1  0
 21 44  1  0
 22 45  1  0
 25 46  1  0
 26 47  1  0
M  END
>  <ScrubInfo>  (4) 
{"isomerGroup": 0, "isomerId": 3, "confId": 0, "nr_conformers:": 1, "nr_isomers:": 9}

$$$$
_i4
     RDKit          3D

 47 49  0  0  0  0  0  0  0  0999 V2000
   -1.5580    0.4983   -0.0471 N   0  0  0  0  0  0  0  0  0  0  0  0
   -0.6623    1.3530    0.4906 C   0  0  0  0  0  0  0  0  0  0  0  0
   -1.1615    2.5375    1.0060 N   0  0  0  0  0  0  0  0  0  0  0  0
   -0.2146    3.4458    1.6571 C   0  0  0  0  0  0  0  0  0  0  0  0
   -2.3025    3.2134    0.3917 C   0  0  0  0  0  0  0  0  0  0  0  0
    0.5984    1.0405    0.5136 N   0  0  0  0  0  0  0  0  0  0  0  0
    0.9630   -0.1658   -0.0336 C   0  0  0  0  0  0  0  0  0  0  0  0
    2.2839   -0.5033   -0.0510 N   0  0  0  0  0  0  0  0  0  0  0  0
    3.3294    0.4846    0.0119 C   0  0  0  0  0  0  0  0  0  0  0  0
    4.6748   -0.2005   -0.0462 C   0  0  0  0  0  0  0  0  0  0  0  0
    5.1704   -0.8802    1.0778 C   0  0  0  0  0  0  0  0  0  0  0  0
    6.4063   -1.5285    1.0271 C   0  0  0  0  0  0  0  0  0  0  0  0
    7.1507   -1.5058   -0.1499 C   0  0  0  0  0  0  0  0  0  0  0  0
    8.6741   -2.3034   -0.2138 Cl  0  0  0  0  0  0  0  0  0  0  0  0
    6.6683   -0.8444   -1.2776 C   0  0  0  0  0  0  0  0  0  0  0  0
    5.4317   -0.1960   -1.2275 C   0  0  0  0  0  0  0  0  0  0  0  0
    0.1354   -1.0234   -0.5544 N   0  0  0  0  0  0  0  0  0  0  0  0
   -1.1932   -0.7153   -0.5352 C   0  0  0  0  0  0  0  0  0  0  0  0
   -1.9782   -1.6441   -0.9872 N   0  0  0  0  0  0  0  0  0  0  0  0
   -3.3614   -1.4134   -1.0026 C   0  0  0  0  0  0  0  0  0  0  0  0
   -3.9390   -0.8073   -2.1246 C   0  0  0  0  0  0  0  0  0  0  0  0
   -5.3067   -0.5379   -2.1637 C   0  0  0  0  0  0  0  0  0  0  0  0
   -6.1106   -0.8814   -1.0801 C   0  0  0  0  0  0  0  0  0  0  0  0
   -5.5500   -1.5048    0.0358 C   0  0  0  0  0  0  0  0  0  0  0  0
   -4.1764   -1.7882    0.0804 C   0  0  0  0  0  0  0  0  0  0  0  0
   -3.5887   -2.4692    1.2846 C   0  0  0  0  0  0  0  0  0  0  0  0
   -2.5352    0.6313    0.1363 H   0  0  0  0  0  0  0  0  0  0  0  0
    0.4333    2.9042    2.3551 H   0  0  0  0  0  0  0  0  0  0  0  0
   -0.7408    4.2074    2.2426 H   0  0  0  0  0  0  0  0  0  0  0  0
    0.4090    3.9499    0.9112 H   0  0  0  0  0  0  0  0  0  0  0  0
   -3.1968    2.5832    0.4120 H   0  0  0  0  0  0  0  0  0  0  0  0
   -2.5593    4.1343    0.9266 H   0  0  0  0  0  0  0  0  0  0  0  0
   -2.0760    3.4754   -0.6471 H   0  0  0  0  0  0  0  0  0  0  0  0
    2.4606   -1.2984   -0.6527 H   0  0  0  0  0  0  0  0  0  0  0  0
    3.2668    1.0661    0.9399 H   0  0  0  0  0  0  0  0  0  0  0  0
    3.2332    1.1933   -0.8196 H   0  0  0  0  0  0  0  0  0  0  0  0
    4.5859   -0.9120    1.9959 H   0  0  0  0  0  0  0  0  0  0  0  0
    6.7772   -2.0511    1.9046 H   0  0  0  0  0  0  0  0  0  0  0  0
    7.2467   -0.8327   -2.1975 H   0  0  0  0  0  0  0  0  0  0  0  0
    5.0621    0.3103   -2.1170 H   0  0  0  0  0  0  0  0  0  0  0  0
   -3.3112   -0.5503   -2.9743 H   0  0  0  0  0  0  0  0  0  0  0  0
   -5.7434   -0.0707   -3.0422 H   0  0  0  0  0  0  0  0  0  0  0  0
   -7.1784   -0.6790   -1.1092 H   0  0  0  0  0  0  0  0  0  0  0  0
   -6.1947   -1.7818    0.8672 H   0  0  0  0  0  0  0  0  0  0  0  0
   -2.9829   -3.3299    0.9828 H   0  0  0  0  0  0  0  0  0  0  0  0
   -4.3715   -2.8423    1.9535 H   0  0  0  0  0  0  0  0  0  0  0  0
   -2.9678   -1.7672    1.8500 H   0  0  0  0  0  0  0  0  0  0  0  0
  1  2  1  0
  2  3  1  0
  3  4  1  0
  3  5  1  0
  2  6  2  0
  6  7  1  0
  7  8  1  0
  8  9  1  0
  9 10  1  0
 10 11  2  0
 11 12  1  0
 12 13  2  0
 13 14  1  0
 13 15  1  0
 15 16  2  0
  7 17  2  0
 17 18  1  0
 18 19  2  3
 19 20  1  0
 20 21  2  0
 21 22  1  0
 22 23  2  0
 23 24  1  0
 24 25  2  0
 25 26  1  0
 18  1  1  0
 25 20  1  0
 16 10  1  0
  1 27  1  0
  4 28  1  0
  4 29  1  0
  4 30  1  0
  5 31  1  0
  5 32  1  0
  5 33  1  0
  8 34  1  0
  9 35  1  0
  9 36  1  0
 11 37  1  0
 12 38  1  0
 15 39  1  0
 16 40  1  0
 21 41  1  0
 22 42  1  0
 23 43  1  0
 24 44  1  0
 26 45  1  0
 26 46  1  0
 26 47  1  0
M  END
>  <ScrubInfo>  (5) 
{"isomerGroup": 0, "isomerId": 4, "confId": 0, "nr_conformers:": 1, "nr_isomers:": 9}

$$$$
_i5
     RDKit          3D

 47 49  0  0  0  0  0  0  0  0999 V2000
    0.4582   -1.9117    0.2589 N   0  0  0  0  0  0  0  0  0  0  0  0
    0.2570   -0.5778    0.3586 C   0  0  0  0  0  0  0  0  0  0  0  0
    1.3696    0.2027    0.4737 N   0  0  0  0  0  0  0  0  0  0  0  0
    2.4201    0.1434   -0.5299 C   0  0  0  0  0  0  0  0  0  0  0  0
    3.4555    1.2024   -0.2386 C   0  0  0  0  0  0  0  0  0  0  0  0
    3.5391    2.3571   -1.0313 C   0  0  0  0  0  0  0  0  0  0  0  0
    4.4917    3.3403   -0.7519 C   0  0  0  0  0  0  0  0  0  0  0  0
    5.3613    3.1775    0.3243 C   0  0  0  0  0  0  0  0  0  0  0  0
    6.5340    4.3887    0.6670 Cl  0  0  0  0  0  0  0  0  0  0  0  0
    5.2848    2.0414    1.1266 C   0  0  0  0  0  0  0  0  0  0  0  0
    4.3330    1.0579    0.8477 C   0  0  0  0  0  0  0  0  0  0  0  0
   -0.9234   -0.0555    0.3611 N   0  0  0  0  0  0  0  0  0  0  0  0
   -1.9544   -0.9664    0.2346 C   0  0  0  0  0  0  0  0  0  0  0  0
   -3.1843   -0.5603    0.1621 N   0  0  0  0  0  0  0  0  0  0  0  0
   -3.4592    0.8157    0.2097 C   0  0  0  0  0  0  0  0  0  0  0  0
   -3.6403    1.4372    1.4517 C   0  0  0  0  0  0  0  0  0  0  0  0
   -3.9414    2.7969    1.5337 C   0  0  0  0  0  0  0  0  0  0  0  0
   -4.0762    3.5473    0.3688 C   0  0  0  0  0  0  0  0  0  0  0  0
   -3.9178    2.9370   -0.8763 C   0  0  0  0  0  0  0  0  0  0  0  0
   -3.6202    1.5680   -0.9683 C   0  0  0  0  0  0  0  0  0  0  0  0
   -3.4587    0.9226   -2.3149 C   0  0  0  0  0  0  0  0  0  0  0  0
   -1.8044   -2.3349    0.1738 N   0  0  0  0  0  0  0  0  0  0  0  0
   -0.5845   -2.7831    0.2030 C   0  0  0  0  0  0  0  0  0  0  0  0
   -0.2869   -4.1339    0.1488 N   0  0  0  0  0  0  0  0  0  0  0  0
    1.0123   -4.6971    0.4804 C   0  0  0  0  0  0  0  0  0  0  0  0
   -1.4020   -5.0832    0.1934 C   0  0  0  0  0  0  0  0  0  0  0  0
    1.3554   -2.2485    0.5533 H   0  0  0  0  0  0  0  0  0  0  0  0
    1.0630    1.1682    0.5949 H   0  0  0  0  0  0  0  0  0  0  0  0
    2.9060   -0.8397   -0.5295 H   0  0  0  0  0  0  0  0  0  0  0  0
    1.9940    0.2929   -1.5294 H   0  0  0  0  0  0  0  0  0  0  0  0
    2.8615    2.5025   -1.8708 H   0  0  0  0  0  0  0  0  0  0  0  0
    4.5475    4.2300   -1.3738 H   0  0  0  0  0  0  0  0  0  0  0  0
    5.9572    1.9182    1.9715 H   0  0  0  0  0  0  0  0  0  0  0  0
    4.2711    0.1805    1.4886 H   0  0  0  0  0  0  0  0  0  0  0  0
   -3.5403    0.8484    2.3591 H   0  0  0  0  0  0  0  0  0  0  0  0
   -4.0726    3.2649    2.5049 H   0  0  0  0  0  0  0  0  0  0  0  0
   -4.3114    4.6064    0.4285 H   0  0  0  0  0  0  0  0  0  0  0  0
   -4.0343    3.5341   -1.7774 H   0  0  0  0  0  0  0  0  0  0  0  0
   -3.7299    1.6102   -3.1230 H   0  0  0  0  0  0  0  0  0  0  0  0
   -2.4179    0.6198   -2.4673 H   0  0  0  0  0  0  0  0  0  0  0  0
   -4.1094    0.0463   -2.4012 H   0  0  0  0  0  0  0  0  0  0  0  0
    1.2483   -4.5160    1.5341 H   0  0  0  0  0  0  0  0  0  0  0  0
    1.7977   -4.2553   -0.1416 H   0  0  0  0  0  0  0  0  0  0  0  0
    1.0480   -5.7782    0.3078 H   0  0  0  0  0  0  0  0  0  0  0  0
   -1.8105   -5.1398    1.2078 H   0  0  0  0  0  0  0  0  0  0  0  0
   -2.2009   -4.7892   -0.4961 H   0  0  0  0  0  0  0  0  0  0  0  0
   -1.0854   -6.0878   -0.1070 H   0  0  0  0  0  0  0  0  0  0  0  0
  1  2  1  0
  2  3  1  0
  3  4  1  0
  4  5  1  0
  5  6  2  0
  6  7  1  0
  7  8  2  0
  8  9  1  0
  8 10  1  0
 10 11  2  0
  2 12  2  0
 12 13  1  0
 13 14  2  3
 14 15  1  0
 15 16  2  0
 16 17  1  0
 17 18  2  0
 18 19  1  0
 19 20  2  0
 20 21  1  0
 13 22  1  0
 22 23  2  0
 23 24  1  0
 24 25  1  0
 24 26  1  0
 23  1  1  0
 11  5  1  0
 20 15  1  0
  1 27  1  0
  3 28  1  0
  4 29  1  0
  4 30  1  0
  6 31  1  0
  7 32  1  0
 10 33  1  0
 11 34  1  0
 16 35  1  0
 17 36  1  0
 18 37  1  0
 19 38  1  0
 21 39  1  0
 21 40  1  0
 21 41  1  0
 25 42  1  0
 25 43  1  0
 25 44  1  0
 26 45  1  0
 26 46  1  0
 26 47  1  0
M  END
>  <ScrubInfo>  (6) 
{"isomerGroup": 0, "isomerId": 5, "confId": 0, "nr_conformers:": 1, "nr_isomers:": 9}

$$$$
_i6
     RDKit          3D

 47 49  0  0  0  0  0  0  0  0999 V2000
   -1.4927    1.7138   -0.0814 N   0  0  0  0  0  0  0  0  0  0  0  0
   -1.5351    0.3514   -0.1517 C   0  0  0  0  0  0  0  0  0  0  0  0
   -2.8176   -0.1177   -0.3051 N   0  0  0  0  0  0  0  0  0  0  0  0
   -3.2652   -1.4612   -0.3171 C   0  0  0  0  0  0  0  0  0  0  0  0
   -2.5012   -2.5076    0.2237 C   0  0  0  0  0  0  0  0  0  0  0  0
   -2.9698   -3.8242    0.2450 C   0  0  0  0  0  0  0  0  0  0  0  0
   -4.2274   -4.1231   -0.2594 C   0  0  0  0  0  0  0  0  0  0  0  0
   -5.0203   -3.1029   -0.7763 C   0  0  0  0  0  0  0  0  0  0  0  0
   -4.5606   -1.7723   -0.8020 C   0  0  0  0  0  0  0  0  0  0  0  0
   -5.4781   -0.7194   -1.3658 C   0  0  0  0  0  0  0  0  0  0  0  0
   -0.4458   -0.3419   -0.0891 N   0  0  0  0  0  0  0  0  0  0  0  0
    0.7148    0.3732    0.0725 C   0  0  0  0  0  0  0  0  0  0  0  0
    1.7824   -0.3446    0.0870 N   0  0  0  0  0  0  0  0  0  0  0  0
    3.0500    0.3618    0.2573 C   0  0  0  0  0  0  0  0  0  0  0  0
    4.2413   -0.5766    0.2313 C   0  0  0  0  0  0  0  0  0  0  0  0
    5.3848   -0.2806    0.9894 C   0  0  0  0  0  0  0  0  0  0  0  0
    6.5039   -1.1161    0.9439 C   0  0  0  0  0  0  0  0  0  0  0  0
    6.4903   -2.2479    0.1316 C   0  0  0  0  0  0  0  0  0  0  0  0
    7.8701   -3.2753    0.0750 Cl  0  0  0  0  0  0  0  0  0  0  0  0
    5.3699   -2.5500   -0.6376 C   0  0  0  0  0  0  0  0  0  0  0  0
    4.2522   -1.7135   -0.5915 C   0  0  0  0  0  0  0  0  0  0  0  0
    0.7988    1.7397    0.2202 N   0  0  0  0  0  0  0  0  0  0  0  0
   -0.3260    2.3783    0.1348 C   0  0  0  0  0  0  0  0  0  0  0  0
   -0.4427    3.7508    0.2783 N   0  0  0  0  0  0  0  0  0  0  0  0
   -1.2739    4.5162   -0.6527 C   0  0  0  0  0  0  0  0  0  0  0  0
    0.7558    4.4809    0.7084 C   0  0  0  0  0  0  0  0  0  0  0  0
   -2.3093    2.1636    0.3003 H   0  0  0  0  0  0  0  0  0  0  0  0
   -3.4191    0.4977   -0.8308 H   0  0  0  0  0  0  0  0  0  0  0  0
   -1.5179   -2.3223    0.6483 H   0  0  0  0  0  0  0  0  0  0  0  0
   -2.3446   -4.6101    0.6610 H   0  0  0  0  0  0  0  0  0  0  0  0
   -4.5920   -5.1465   -0.2444 H   0  0  0  0  0  0  0  0  0  0  0  0
   -6.0075   -3.3528   -1.1593 H   0  0  0  0  0  0  0  0  0  0  0  0
   -5.6699    0.0577   -0.6189 H   0  0  0  0  0  0  0  0  0  0  0  0
   -5.0339   -0.2698   -2.2597 H   0  0  0  0  0  0  0  0  0  0  0  0
   -6.4477   -1.1388   -1.6550 H   0  0  0  0  0  0  0  0  0  0  0  0
    3.0487    0.8897    1.2198 H   0  0  0  0  0  0  0  0  0  0  0  0
    3.1998    1.0936   -0.5469 H   0  0  0  0  0  0  0  0  0  0  0  0
    5.4072    0.6029    1.6234 H   0  0  0  0  0  0  0  0  0  0  0  0
    7.3789   -0.8779    1.5417 H   0  0  0  0  0  0  0  0  0  0  0  0
    5.3550   -3.4305   -1.2732 H   0  0  0  0  0  0  0  0  0  0  0  0
    3.3779   -1.9542   -1.1942 H   0  0  0  0  0  0  0  0  0  0  0  0
   -1.3627    5.5597   -0.3313 H   0  0  0  0  0  0  0  0  0  0  0  0
   -0.8360    4.4993   -1.6563 H   0  0  0  0  0  0  0  0  0  0  0  0
   -2.2912    4.1166   -0.7085 H   0  0  0  0  0  0  0  0  0  0  0  0
    1.4927    4.5264   -0.1006 H   0  0  0  0  0  0  0  0  0  0  0  0
    1.2127    4.0001    1.5804 H   0  0  0  0  0  0  0  0  0  0  0  0
    0.5013    5.5040    1.0056 H   0  0  0  0  0  0  0  0  0  0  0  0
  1  2  1  0
  2  3  1  0
  3  4  1  0
  4  5  2  0
  5  6  1  0
  6  7  2  0
  7  8  1  0
  8  9  2  0
  9 10  1  0
  2 11  2  0
 11 12  1  0
 12 13  2  3
 13 14  1  0
 14 15  1  0
 15 16  2  0
 16 17  1  0
 17 18  2  0
 18 19  1  0
 18 20  1  0
 20 21  2  0
 12 22  1  0
 22 23  2  0
 23 24  1  0
 24 25  1  0
 24 26  1  0
 23  1  1  0
  9  4  1  0
 21 15  1  0
  1 27  1  0
  3 28  1  0
  5 29  1  0
  6 30  1  0
  7 31  1  0
  8 32  1  0
 10 33  1  0
 10 34  1  0
 10 35  1  0
 14 36  1  0
 14 37  1  0
 16 38  1  0
 17 39  1  0
 20 40  1  0
 21 41  1  0
 25 42  1  0
 25 43  1  0
 25 44  1  0
 26 45  1  0
 26 46  1  0
 26 47  1  0
M  END
>  <ScrubInfo>  (7) 
{"isomerGroup": 0, "isomerId": 6, "confId": 0, "nr_conformers:": 1, "nr_isomers:": 9}

$$$$
_i7
     RDKit          3D

 47 49  0  0  0  0  0  0  0  0999 V2000
    0.3439    1.8924    0.2181 N   0  0  0  0  0  0  0  0  0  0  0  0
   -0.8016    2.6087    0.4434 C   0  0  0  0  0  0  0  0  0  0  0  0
   -0.5821    3.9422    0.7540 N   0  0  0  0  0  0  0  0  0  0  0  0
    0.2444    4.2649    1.9209 C   0  0  0  0  0  0  0  0  0  0  0  0
   -1.7385    4.8405    0.6257 C   0  0  0  0  0  0  0  0  0  0  0  0
   -1.9900    2.0886    0.3440 N   0  0  0  0  0  0  0  0  0  0  0  0
   -2.0398    0.7485    0.0235 C   0  0  0  0  0  0  0  0  0  0  0  0
   -3.2437    0.2680   -0.0435 N   0  0  0  0  0  0  0  0  0  0  0  0
   -3.4203   -1.0856   -0.3641 C   0  0  0  0  0  0  0  0  0  0  0  0
   -3.5515   -1.4544   -1.7083 C   0  0  0  0  0  0  0  0  0  0  0  0
   -3.7055   -2.7929   -2.0679 C   0  0  0  0  0  0  0  0  0  0  0  0
   -3.7389   -3.7747   -1.0816 C   0  0  0  0  0  0  0  0  0  0  0  0
   -3.6309   -3.4176    0.2633 C   0  0  0  0  0  0  0  0  0  0  0  0
   -3.4847   -2.0724    0.6356 C   0  0  0  0  0  0  0  0  0  0  0  0
   -3.3757   -1.7041    2.0883 C   0  0  0  0  0  0  0  0  0  0  0  0
   -0.8710    0.0621   -0.1882 N   0  0  0  0  0  0  0  0  0  0  0  0
    0.3910    0.5711   -0.1354 C   0  0  0  0  0  0  0  0  0  0  0  0
    1.4062   -0.1719   -0.4060 N   0  0  0  0  0  0  0  0  0  0  0  0
    2.7334    0.4269   -0.3304 C   0  0  0  0  0  0  0  0  0  0  0  0
    3.8027   -0.6009   -0.6109 C   0  0  0  0  0  0  0  0  0  0  0  0
    4.3108   -0.7661   -1.9076 C   0  0  0  0  0  0  0  0  0  0  0  0
    5.2881   -1.7297   -2.1675 C   0  0  0  0  0  0  0  0  0  0  0  0
    5.7536   -2.5397   -1.1340 C   0  0  0  0  0  0  0  0  0  0  0  0
    6.9574   -3.7270   -1.4545 Cl  0  0  0  0  0  0  0  0  0  0  0  0
    5.2468   -2.3989    0.1559 C   0  0  0  0  0  0  0  0  0  0  0  0
    4.2697   -1.4352    0.4155 C   0  0  0  0  0  0  0  0  0  0  0  0
    1.1876    2.4340    0.1506 H   0  0  0  0  0  0  0  0  0  0  0  0
   -0.2675    3.9738    2.8445 H   0  0  0  0  0  0  0  0  0  0  0  0
    1.2116    3.7541    1.8851 H   0  0  0  0  0  0  0  0  0  0  0  0
    0.4528    5.3395    1.9623 H   0  0  0  0  0  0  0  0  0  0  0  0
   -1.4194    5.8869    0.6802 H   0  0  0  0  0  0  0  0  0  0  0  0
   -2.4672    4.6569    1.4227 H   0  0  0  0  0  0  0  0  0  0  0  0
   -2.2284    4.7046   -0.3448 H   0  0  0  0  0  0  0  0  0  0  0  0
   -3.5338   -0.6859   -2.4770 H   0  0  0  0  0  0  0  0  0  0  0  0
   -3.8042   -3.0662   -3.1150 H   0  0  0  0  0  0  0  0  0  0  0  0
   -3.8601   -4.8191   -1.3578 H   0  0  0  0  0  0  0  0  0  0  0  0
   -3.6708   -4.1960    1.0221 H   0  0  0  0  0  0  0  0  0  0  0  0
   -4.0714   -0.8952    2.3342 H   0  0  0  0  0  0  0  0  0  0  0  0
   -3.6247   -2.5525    2.7346 H   0  0  0  0  0  0  0  0  0  0  0  0
   -2.3540   -1.3891    2.3225 H   0  0  0  0  0  0  0  0  0  0  0  0
   -0.9415   -0.9108   -0.4426 H   0  0  0  0  0  0  0  0  0  0  0  0
    2.9127    0.8557    0.6643 H   0  0  0  0  0  0  0  0  0  0  0  0
    2.8268    1.2463   -1.0547 H   0  0  0  0  0  0  0  0  0  0  0  0
    3.9397   -0.1502   -2.7238 H   0  0  0  0  0  0  0  0  0  0  0  0
    5.6742   -1.8475   -3.1762 H   0  0  0  0  0  0  0  0  0  0  0  0
    5.6001   -3.0387    0.9597 H   0  0  0  0  0  0  0  0  0  0  0  0
    3.8640   -1.3432    1.4207 H   0  0  0  0  0  0  0  0  0  0  0  0
  1  2  1  0
  2  3  1  0
  3  4  1  0
  3  5  1  0
  2  6  2  0
  6  7  1  0
  7  8  2  3
  8  9  1  0
  9 10  2  0
 10 11  1  0
 11 12  2  0
 12 13  1  0
 13 14  2  0
 14 15  1  0
  7 16  1  0
 16 17  1  0
 17 18  2  3
 18 19  1  0
 19 20  1  0
 20 21  2  0
 21 22  1  0
 22 23  2  0
 23 24  1  0
 23 25  1  0
 25 26  2  0
 17  1  1  0
 26 20  1  0
 14  9  1  0
  1 27  1  0
  4 28  1  0
  4 29  1  0
  4 30  1  0
  5 31  1  0
  5 32  1  0
  5 33  1  0
 10 34  1  0
 11 35  1  0
 12 36  1  0
 13 37  1  0
 15 38  1  0
 15 39  1  0
 15 40  1  0
 16 41  1  0
 19 42  1  0
 19 43  1  0
 21 44  1  0
 22 45  1  0
 25 46  1  0
 26 47  1  0
M  END
>  <ScrubInfo>  (8) 
{"isomerGroup": 0, "isomerId": 7, "confId": 0, "nr_conformers:": 1, "nr_isomers:": 9}

$$$$
_i8
     RDKit          3D

 47 49  0  0  0  0  0  0  0  0999 V2000
   -1.4416    0.7886   -0.0220 N   0  0  0  0  0  0  0  0  0  0  0  0
   -0.5125    1.7853    0.0924 C   0  0  0  0  0  0  0  0  0  0  0  0
   -1.0395    3.0510    0.3015 N   0  0  0  0  0  0  0  0  0  0  0  0
   -2.0162    3.2594    1.3729 C   0  0  0  0  0  0  0  0  0  0  0  0
   -0.1147    4.1820    0.1513 C   0  0  0  0  0  0  0  0  0  0  0  0
    0.7664    1.5609   -0.0141 N   0  0  0  0  0  0  0  0  0  0  0  0
    1.1465    0.2525   -0.2192 C   0  0  0  0  0  0  0  0  0  0  0  0
    2.4211    0.1006   -0.2943 N   0  0  0  0  0  0  0  0  0  0  0  0
    2.9614   -1.2357   -0.5131 C   0  0  0  0  0  0  0  0  0  0  0  0
    4.4734   -1.2514   -0.5944 C   0  0  0  0  0  0  0  0  0  0  0  0
    5.1866   -0.1585   -1.1108 C   0  0  0  0  0  0  0  0  0  0  0  0
    6.5789   -0.2004   -1.2169 C   0  0  0  0  0  0  0  0  0  0  0  0
    7.2677   -1.3421   -0.8171 C   0  0  0  0  0  0  0  0  0  0  0  0
    8.9828   -1.3976   -0.9485 Cl  0  0  0  0  0  0  0  0  0  0  0  0
    6.5766   -2.4426   -0.3151 C   0  0  0  0  0  0  0  0  0  0  0  0
    5.1838   -2.3991   -0.2090 C   0  0  0  0  0  0  0  0  0  0  0  0
    0.1864   -0.7196   -0.3212 N   0  0  0  0  0  0  0  0  0  0  0  0
   -1.1621   -0.5301   -0.2563 C   0  0  0  0  0  0  0  0  0  0  0  0
   -1.9823   -1.5238   -0.4143 N   0  0  0  0  0  0  0  0  0  0  0  0
   -3.3600   -1.2638   -0.3365 C   0  0  0  0  0  0  0  0  0  0  0  0
   -4.0569   -0.9423   -1.5073 C   0  0  0  0  0  0  0  0  0  0  0  0
   -5.4207   -0.6540   -1.4677 C   0  0  0  0  0  0  0  0  0  0  0  0
   -6.1012   -0.6930   -0.2540 C   0  0  0  0  0  0  0  0  0  0  0  0
   -5.4215   -1.0308    0.9171 C   0  0  0  0  0  0  0  0  0  0  0  0
   -4.0511   -1.3319    0.8864 C   0  0  0  0  0  0  0  0  0  0  0  0
   -3.3368   -1.6951    2.1576 C   0  0  0  0  0  0  0  0  0  0  0  0
   -2.4063    1.0678   -0.0930 H   0  0  0  0  0  0  0  0  0  0  0  0
   -1.5480    3.1033    2.3507 H   0  0  0  0  0  0  0  0  0  0  0  0
   -2.8702    2.5813    1.2839 H   0  0  0  0  0  0  0  0  0  0  0  0
   -2.4190    4.2777    1.3410 H   0  0  0  0  0  0  0  0  0  0  0  0
    0.4466    4.1037   -0.7863 H   0  0  0  0  0  0  0  0  0  0  0  0
    0.5909    4.2218    0.9881 H   0  0  0  0  0  0  0  0  0  0  0  0
   -0.6649    5.1285    0.1150 H   0  0  0  0  0  0  0  0  0  0  0  0
    2.6517   -1.8903    0.3114 H   0  0  0  0  0  0  0  0  0  0  0  0
    2.5802   -1.6533   -1.4535 H   0  0  0  0  0  0  0  0  0  0  0  0
    4.6543    0.7382   -1.4249 H   0  0  0  0  0  0  0  0  0  0  0  0
    7.1132    0.6596   -1.6103 H   0  0  0  0  0  0  0  0  0  0  0  0
    7.1135   -3.3351   -0.0065 H   0  0  0  0  0  0  0  0  0  0  0  0
    4.6564   -3.2670    0.1804 H   0  0  0  0  0  0  0  0  0  0  0  0
    0.4701   -1.6672   -0.4983 H   0  0  0  0  0  0  0  0  0  0  0  0
   -3.5275   -0.9182   -2.4565 H   0  0  0  0  0  0  0  0  0  0  0  0
   -5.9505   -0.4059   -2.3837 H   0  0  0  0  0  0  0  0  0  0  0  0
   -7.1654   -0.4725   -0.2200 H   0  0  0  0  0  0  0  0  0  0  0  0
   -5.9715   -1.0690    1.8551 H   0  0  0  0  0  0  0  0  0  0  0  0
   -2.6879   -0.8725    2.4739 H   0  0  0  0  0  0  0  0  0  0  0  0
   -2.7358   -2.5996    2.0180 H   0  0  0  0  0  0  0  0  0  0  0  0
   -4.0445   -1.8999    2.9679 H   0  0  0  0  0  0  0  0  0  0  0  0
  1  2  1  0
  2  3  1  0
  3  4  1  0
  3  5  1  0
  2  6  2  0
  6  7  1  0
  7  8  2  3
  8  9  1  0
  9 10  1  0
 10 11  2  0
 11 12  1  0
 12 13  2  0
 13 14  1  0
 13 15  1  0
 15 16  2  0
  7 17  1  0
 17 18  1  0
 18 19  2  3
 19 20  1  0
 20 21  2  0
 21 22  1  0
 22 23  2  0
 23 24  1  0
 24 25  2  0
 25 26  1  0
 18  1  1  0
 25 20  1  0
 16 10  1  0
  1 27  1  0
  4 28  1  0
  4 29  1  0
  4 30  1  0
  5 31  1  0
  5 32  1  0
  5 33  1  0
  9 34  1  0
  9 35  1  0
 11 36  1  0
 12 37  1  0
 15 38  1  0
 16 39  1  0
 17 40  1  0
 21 41  1  0
 22 42  1  0
 23 43  1  0
 24 44  1  0
 26 45  1  0
 26 46  1  0
 26 47  1  0
M  END
>  <ScrubInfo>  (9) 
{"isomerGroup": 0, "isomerId": 8, "confId": 0, "nr_conformers:": 1, "nr_isomers:": 9}

$$$$
