REMARK SMILES Cc1ccccc1Nc1nc(NCc2ccc(Cl)cc2)nc(N(C)C)n1
REMARK SMILES IDX 9 1 10 2 11 3 21 4 22 5 26 6 8 7 7 9 2 10 3 11 4 12 6 13
REMARK SMILES IDX 5 14 1 15 12 16 13 18 14 19 15 20 20 21 16 22 19 23 17 24
REMARK SMILES IDX 18 25 23 26 24 27 25 28
REMARK H PARENT 8 8 12 17
ROOT
ATOM      1  C   UNL     1      -1.142  -0.051  -0.511  1.00  0.00     0.233 A 
ATOM      2  N   UNL     1       0.105  -0.488  -0.630  1.00  0.00    -0.177 NA
ATOM      3  C   UNL     1       1.027   0.235  -0.018  1.00  0.00     0.229 A 
ATOM      4  N   UNL     1       0.775   1.334   0.676  1.00  0.00    -0.177 NA
ATOM      5  C   UNL     1      -0.494   1.722   0.741  1.00  0.00     0.231 A 
ATOM      6  N   UNL     1      -1.476   1.041   0.163  1.00  0.00    -0.176 NA
ENDROOT
BRANCH   1   7
ATOM      7  N   UNL     1      -2.094  -0.818  -1.184  1.00  0.00    -0.324 N 
ATOM      8  H   UNL     1      -1.624  -1.573  -1.660  1.00  0.00     0.170 HD
BRANCH   7   9
ATOM      9  C   UNL     1      -3.497  -0.840  -1.197  1.00  0.00     0.044 A 
ATOM     10  C   UNL     1      -4.179  -1.598  -2.180  1.00  0.00    -0.027 A 
ATOM     11  C   UNL     1      -5.586  -1.600  -2.217  1.00  0.00     0.005 A 
ATOM     12  C   UNL     1      -6.324  -0.850  -1.307  1.00  0.00     0.000 A 
ATOM     13  C   UNL     1      -4.268  -0.082  -0.305  1.00  0.00     0.026 A 
ATOM     14  C   UNL     1      -5.665  -0.088  -0.352  1.00  0.00     0.002 A 
ATOM     15  C   UNL     1      -3.436  -2.417  -3.203  1.00  0.00     0.046 C 
ENDBRANCH   7   9
ENDBRANCH   1   7
BRANCH   3  16
ATOM     16  N   UNL     1       2.332  -0.227  -0.142  1.00  0.00    -0.350 N 
ATOM     17  H   UNL     1       2.275  -1.196  -0.433  1.00  0.00     0.164 HD
BRANCH  16  18
ATOM     18  C   UNL     1       3.155   0.008   1.027  1.00  0.00     0.152 C 
BRANCH  18  19
ATOM     19  C   UNL     1       4.478  -0.703   0.846  1.00  0.00    -0.029 A 
ATOM     20  C   UNL     1       5.412  -0.230  -0.090  1.00  0.00     0.007 A 
ATOM     21  C   UNL     1       4.784  -1.852   1.591  1.00  0.00     0.007 A 
ATOM     22  C   UNL     1       6.631  -0.885  -0.271  1.00  0.00     0.021 A 
ATOM     23  C   UNL     1       6.005  -2.507   1.410  1.00  0.00     0.021 A 
ATOM     24  C   UNL     1       6.923  -2.020   0.482  1.00  0.00     0.041 A 
ATOM     25  Cl  UNL     1       8.425  -2.830   0.261  1.00  0.00    -0.084 Cl
ENDBRANCH  18  19
ENDBRANCH  16  18
ENDBRANCH   3  16
BRANCH   5  26
ATOM     26  N   UNL     1      -0.809   2.873   1.474  1.00  0.00    -0.347 N 
ATOM     27  C   UNL     1      -2.089   3.473   1.126  1.00  0.00     0.146 C 
ATOM     28  C   UNL     1       0.307   3.788   1.663  1.00  0.00     0.146 C 
ENDBRANCH   5  26
TORSDOF 6
