_i0
     RDKit          3D

 53 56  0  0  0  0  0  0  0  0999 V2000
    8.3368    2.7855    1.0332 C   0  0  0  0  0  0  0  0  0  0  0  0
    7.1375    1.9666    0.6583 C   0  0  0  0  0  0  0  0  0  0  0  0
    6.7185    0.9096    1.4736 C   0  0  0  0  0  0  0  0  0  0  0  0
    5.5831    0.1671    1.1420 C   0  0  0  0  0  0  0  0  0  0  0  0
    4.8420    0.4715   -0.0082 C   0  0  0  0  0  0  0  0  0  0  0  0
    3.6072   -0.3287   -0.3535 C   0  0  0  0  0  0  0  0  0  0  0  0
    2.5443    0.0217    0.5648 N   0  0  0  0  0  0  0  0  0  0  0  0
    1.3012   -0.5016    0.2378 C   0  0  0  0  0  0  0  0  0  0  0  0
    0.2631    0.2481    0.5656 N   0  0  0  0  0  0  0  0  0  0  0  0
   -0.9287   -0.2581    0.2754 C   0  0  0  0  0  0  0  0  0  0  0  0
   -2.0063    0.5540    0.6298 N   0  0  0  0  0  0  0  0  0  0  0  0
   -3.3949    0.3779    0.6410 C   0  0  0  0  0  0  0  0  0  0  0  0
   -4.0323   -0.8204    0.2983 C   0  0  0  0  0  0  0  0  0  0  0  0
   -5.4285   -0.9289    0.2988 C   0  0  0  0  0  0  0  0  0  0  0  0
   -6.2107    0.1689    0.6358 C   0  0  0  0  0  0  0  0  0  0  0  0
   -5.5985    1.3843    0.9413 C   0  0  0  0  0  0  0  0  0  0  0  0
   -4.2056    1.4826    0.9533 C   0  0  0  0  0  0  0  0  0  0  0  0
   -6.2997    2.5240    1.2459 O   0  0  0  0  0  0  0  0  0  0  0  0
   -7.6780    2.4014    0.8757 C   0  0  0  0  0  0  0  0  0  0  0  0
   -8.2355    1.0578    1.3161 C   0  0  0  0  0  0  0  0  0  0  0  0
   -7.5692   -0.0127    0.6371 O   0  0  0  0  0  0  0  0  0  0  0  0
   -1.1032   -1.4239   -0.3318 N   0  0  0  0  0  0  0  0  0  0  0  0
   -0.0123   -2.1150   -0.6423 C   0  0  0  0  0  0  0  0  0  0  0  0
   -0.1563   -3.3589   -1.2653 N   0  0  0  0  0  0  0  0  0  0  0  0
    1.0390   -3.8525   -1.9304 C   0  0  0  0  0  0  0  0  0  0  0  0
   -1.4203   -3.5490   -1.9591 C   0  0  0  0  0  0  0  0  0  0  0  0
    1.2109   -1.6750   -0.3684 N   0  0  0  0  0  0  0  0  0  0  0  0
    5.2499    1.5454   -0.8105 C   0  0  0  0  0  0  0  0  0  0  0  0
    6.3864    2.2873   -0.4781 C   0  0  0  0  0  0  0  0  0  0  0  0
    8.0349    3.6198    1.6738 H   0  0  0  0  0  0  0  0  0  0  0  0
    8.8315    3.1846    0.1414 H   0  0  0  0  0  0  0  0  0  0  0  0
    9.0738    2.1770    1.5678 H   0  0  0  0  0  0  0  0  0  0  0  0
    7.2716    0.6581    2.3758 H   0  0  0  0  0  0  0  0  0  0  0  0
    5.2677   -0.6477    1.7912 H   0  0  0  0  0  0  0  0  0  0  0  0
    3.3168   -0.1215   -1.3921 H   0  0  0  0  0  0  0  0  0  0  0  0
    3.8525   -1.3967   -0.2887 H   0  0  0  0  0  0  0  0  0  0  0  0
    2.4270    1.0150    0.7253 H   0  0  0  0  0  0  0  0  0  0  0  0
   -1.6546    1.3868    1.0806 H   0  0  0  0  0  0  0  0  0  0  0  0
   -3.4567   -1.7042    0.0425 H   0  0  0  0  0  0  0  0  0  0  0  0
   -5.8977   -1.8755    0.0466 H   0  0  0  0  0  0  0  0  0  0  0  0
   -3.7557    2.4412    1.1980 H   0  0  0  0  0  0  0  0  0  0  0  0
   -7.7601    2.5339   -0.2103 H   0  0  0  0  0  0  0  0  0  0  0  0
   -8.2252    3.2156    1.3610 H   0  0  0  0  0  0  0  0  0  0  0  0
   -8.1212    0.9101    2.3972 H   0  0  0  0  0  0  0  0  0  0  0  0
   -9.3008    0.9922    1.0735 H   0  0  0  0  0  0  0  0  0  0  0  0
    0.8564   -4.8470   -2.3531 H   0  0  0  0  0  0  0  0  0  0  0  0
    1.3416   -3.1917   -2.7511 H   0  0  0  0  0  0  0  0  0  0  0  0
    1.8748   -3.9645   -1.2302 H   0  0  0  0  0  0  0  0  0  0  0  0
   -2.2712   -3.4844   -1.2720 H   0  0  0  0  0  0  0  0  0  0  0  0
   -1.5490   -2.8173   -2.7651 H   0  0  0  0  0  0  0  0  0  0  0  0
   -1.4631   -4.5485   -2.4069 H   0  0  0  0  0  0  0  0  0  0  0  0
    4.6845    1.8154   -1.6996 H   0  0  0  0  0  0  0  0  0  0  0  0
    6.6819    3.1198   -1.1129 H   0  0  0  0  0  0  0  0  0  0  0  0
  1  2  1  0
  2  3  2  0
  3  4  1  0
  4  5  2  0
  5  6  1  0
  6  7  1  0
  7  8  1  0
  8  9  2  0
  9 10  1  0
 10 11  1  0
 11 12  1  0
 12 13  2  0
 13 14  1  0
 14 15  2  0
 15 16  1  0
 16 17  2  0
 16 18  1  0
 18 19  1  0
 19 20  1  0
 20 21  1  0
 10 22  2  0
 22 23  1  0
 23 24  1  0
 24 25  1  0
 24 26  1  0
 23 27  2  0
  5 28  1  0
 28 29  2  0
 29  2  1  0
 27  8  1  0
 17 12  1  0
 21 15  1  0
  1 30  1  0
  1 31  1  0
  1 32  1  0
  3 33  1  0
  4 34  1  0
  6 35  1  0
  6 36  1  0
  7 37  1  0
 11 38  1  0
 13 39  1  0
 14 40  1  0
 17 41  1  0
 19 42  1  0
 19 43  1  0
 20 44  1  0
 20 45  1  0
 25 46  1  0
 25 47  1  0
 25 48  1  0
 26 49  1  0
 26 50  1  0
 26 51  1  0
 28 52  1  0
 29 53  1  0
M  END
>  <ScrubInfo>  (1) 
{"isomerGroup": 0, "isomerId": 0, "confId": 0, "nr_conformers:": 1, "nr_isomers:": 9}

$$$$
_i1
     RDKit          3D

 53 56  0  0  0  0  0  0  0  0999 V2000
    0.1228   -1.0871   -0.4700 N   0  0  0  0  0  0  0  0  0  0  0  0
    1.0988   -2.0025   -0.6369 C   0  0  0  0  0  0  0  0  0  0  0  0
    2.3292   -1.5464   -1.0169 N   0  0  0  0  0  0  0  0  0  0  0  0
    3.0279   -0.4386   -0.4876 C   0  0  0  0  0  0  0  0  0  0  0  0
    2.6735    0.1947    0.7125 C   0  0  0  0  0  0  0  0  0  0  0  0
    3.3844    1.3075    1.1737 C   0  0  0  0  0  0  0  0  0  0  0  0
    4.4568    1.8010    0.4380 C   0  0  0  0  0  0  0  0  0  0  0  0
    4.8422    1.1619   -0.7416 C   0  0  0  0  0  0  0  0  0  0  0  0
    4.1243    0.0596   -1.2071 C   0  0  0  0  0  0  0  0  0  0  0  0
    5.9091    1.5680   -1.5019 O   0  0  0  0  0  0  0  0  0  0  0  0
    6.7596    2.4609   -0.7722 C   0  0  0  0  0  0  0  0  0  0  0  0
    5.9368    3.5141   -0.0484 C   0  0  0  0  0  0  0  0  0  0  0  0
    5.0924    2.9077    0.9372 O   0  0  0  0  0  0  0  0  0  0  0  0
    0.8594   -3.2690   -0.5073 N   0  0  0  0  0  0  0  0  0  0  0  0
   -0.4236   -3.6373   -0.1492 C   0  0  0  0  0  0  0  0  0  0  0  0
   -0.6735   -4.9907    0.0244 N   0  0  0  0  0  0  0  0  0  0  0  0
   -1.9304   -5.4127    0.6279 C   0  0  0  0  0  0  0  0  0  0  0  0
    0.4304   -5.9301    0.1339 C   0  0  0  0  0  0  0  0  0  0  0  0
   -1.3883   -2.7780    0.0275 N   0  0  0  0  0  0  0  0  0  0  0  0
   -1.1416   -1.4504   -0.1532 C   0  0  0  0  0  0  0  0  0  0  0  0
   -2.1674   -0.6932    0.0033 N   0  0  0  0  0  0  0  0  0  0  0  0
   -2.0039    0.7474   -0.1644 C   0  0  0  0  0  0  0  0  0  0  0  0
   -3.2800    1.5236    0.0746 C   0  0  0  0  0  0  0  0  0  0  0  0
   -3.2178    2.8552    0.5097 C   0  0  0  0  0  0  0  0  0  0  0  0
   -4.3853    3.6013    0.6953 C   0  0  0  0  0  0  0  0  0  0  0  0
   -5.6377    3.0376    0.4298 C   0  0  0  0  0  0  0  0  0  0  0  0
   -6.8924    3.8246    0.6633 C   0  0  0  0  0  0  0  0  0  0  0  0
   -5.7045    1.7094   -0.0030 C   0  0  0  0  0  0  0  0  0  0  0  0
   -4.5370    0.9643   -0.1889 C   0  0  0  0  0  0  0  0  0  0  0  0
    0.3168   -0.1361   -0.7265 H   0  0  0  0  0  0  0  0  0  0  0  0
    2.9648   -2.3118   -1.2267 H   0  0  0  0  0  0  0  0  0  0  0  0
    1.8589   -0.1819    1.3271 H   0  0  0  0  0  0  0  0  0  0  0  0
    3.0990    1.7878    2.1061 H   0  0  0  0  0  0  0  0  0  0  0  0
    4.4256   -0.4080   -2.1414 H   0  0  0  0  0  0  0  0  0  0  0  0
    7.4355    2.9358   -1.4901 H   0  0  0  0  0  0  0  0  0  0  0  0
    7.3639    1.8716   -0.0714 H   0  0  0  0  0  0  0  0  0  0  0  0
    5.3070    4.0806   -0.7456 H   0  0  0  0  0  0  0  0  0  0  0  0
    6.5950    4.2200    0.4678 H   0  0  0  0  0  0  0  0  0  0  0  0
   -2.7860   -4.9381    0.1354 H   0  0  0  0  0  0  0  0  0  0  0  0
   -2.0744   -6.4944    0.5326 H   0  0  0  0  0  0  0  0  0  0  0  0
   -1.9477   -5.1582    1.6928 H   0  0  0  0  0  0  0  0  0  0  0  0
    1.1328   -5.8152   -0.6986 H   0  0  0  0  0  0  0  0  0  0  0  0
    0.0779   -6.9668    0.1050 H   0  0  0  0  0  0  0  0  0  0  0  0
    0.9691   -5.7795    1.0753 H   0  0  0  0  0  0  0  0  0  0  0  0
   -1.6708    0.9744   -1.1850 H   0  0  0  0  0  0  0  0  0  0  0  0
   -1.2430    1.1090    0.5393 H   0  0  0  0  0  0  0  0  0  0  0  0
   -2.2571    3.3217    0.7133 H   0  0  0  0  0  0  0  0  0  0  0  0
   -4.3097    4.6272    1.0477 H   0  0  0  0  0  0  0  0  0  0  0  0
   -7.2373    3.6826    1.6921 H   0  0  0  0  0  0  0  0  0  0  0  0
   -6.7215    4.8925    0.4913 H   0  0  0  0  0  0  0  0  0  0  0  0
   -7.6852    3.5086   -0.0229 H   0  0  0  0  0  0  0  0  0  0  0  0
   -6.6659    1.2410   -0.1999 H   0  0  0  0  0  0  0  0  0  0  0  0
   -4.6121   -0.0661   -0.5323 H   0  0  0  0  0  0  0  0  0  0  0  0
  1  2  1  0
  2  3  1  0
  3  4  1  0
  4  5  2  0
  5  6  1  0
  6  7  2  0
  7  8  1  0
  8  9  2  0
  8 10  1  0
 10 11  1  0
 11 12  1  0
 12 13  1  0
  2 14  2  0
 14 15  1  0
 15 16  1  0
 16 17  1  0
 16 18  1  0
 15 19  2  0
 19 20  1  0
 20 21  2  3
 21 22  1  0
 22 23  1  0
 23 24  2  0
 24 25  1  0
 25 26  2  0
 26 27  1  0
 26 28  1  0
 28 29  2  0
 20  1  1  0
 29 23  1  0
  9  4  1  0
 13  7  1  0
  1 30  1  0
  3 31  1  0
  5 32  1  0
  6 33  1  0
  9 34  1  0
 11 35  1  0
 11 36  1  0
 12 37  1  0
 12 38  1  0
 17 39  1  0
 17 40  1  0
 17 41  1  0
 18 42  1  0
 18 43  1  0
 18 44  1  0
 22 45  1  0
 22 46  1  0
 24 47  1  0
 25 48  1  0
 27 49  1  0
 27 50  1  0
 27 51  1  0
 28 52  1  0
 29 53  1  0
M  END
>  <ScrubInfo>  (2) 
{"isomerGroup": 0, "isomerId": 1, "confId": 0, "nr_conformers:": 1, "nr_isomers:": 9}

$$$$
_i2
     RDKit          3D

 53 56  0  0  0  0  0  0  0  0999 V2000
   -0.3550    0.6361    0.6882 N   0  0  0  0  0  0  0  0  0  0  0  0
   -1.2267   -0.1188   -0.0030 C   0  0  0  0  0  0  0  0  0  0  0  0
   -2.5123    0.3350    0.0305 N   0  0  0  0  0  0  0  0  0  0  0  0
   -3.5879   -0.4497   -0.5461 C   0  0  0  0  0  0  0  0  0  0  0  0
   -4.8926    0.2855   -0.3596 C   0  0  0  0  0  0  0  0  0  0  0  0
   -5.7848   -0.0844    0.6554 C   0  0  0  0  0  0  0  0  0  0  0  0
   -6.9806    0.6148    0.8374 C   0  0  0  0  0  0  0  0  0  0  0  0
   -7.3072    1.6925    0.0067 C   0  0  0  0  0  0  0  0  0  0  0  0
   -8.5757    2.4631    0.2243 C   0  0  0  0  0  0  0  0  0  0  0  0
   -6.4064    2.0784   -0.9920 C   0  0  0  0  0  0  0  0  0  0  0  0
   -5.2109    1.3800   -1.1752 C   0  0  0  0  0  0  0  0  0  0  0  0
   -0.8360   -1.1738   -0.6413 N   0  0  0  0  0  0  0  0  0  0  0  0
    0.5064   -1.4989   -0.5787 C   0  0  0  0  0  0  0  0  0  0  0  0
    0.9191   -2.6459   -1.2408 N   0  0  0  0  0  0  0  0  0  0  0  0
    2.2625   -3.1600   -1.0142 C   0  0  0  0  0  0  0  0  0  0  0  0
   -0.0616   -3.6066   -1.7173 C   0  0  0  0  0  0  0  0  0  0  0  0
    1.3852   -0.7835    0.0677 N   0  0  0  0  0  0  0  0  0  0  0  0
    0.9651    0.3494    0.6984 C   0  0  0  0  0  0  0  0  0  0  0  0
    1.7989    1.1522    1.2950 N   0  0  0  0  0  0  0  0  0  0  0  0
    3.1647    0.8322    1.2836 C   0  0  0  0  0  0  0  0  0  0  0  0
    3.7224    0.0985    2.3366 C   0  0  0  0  0  0  0  0  0  0  0  0
    5.0852   -0.2072    2.3455 C   0  0  0  0  0  0  0  0  0  0  0  0
    5.8969    0.2300    1.3018 C   0  0  0  0  0  0  0  0  0  0  0  0
    5.3543    1.0010    0.2679 C   0  0  0  0  0  0  0  0  0  0  0  0
    3.9913    1.2925    0.2546 C   0  0  0  0  0  0  0  0  0  0  0  0
    6.1030    1.4989   -0.7693 O   0  0  0  0  0  0  0  0  0  0  0  0
    7.5028    1.4382   -0.4763 C   0  0  0  0  0  0  0  0  0  0  0  0
    7.8707    0.0819    0.1017 C   0  0  0  0  0  0  0  0  0  0  0  0
    7.2209   -0.1244    1.3610 O   0  0  0  0  0  0  0  0  0  0  0  0
   -0.6076    1.5471    1.0275 H   0  0  0  0  0  0  0  0  0  0  0  0
   -2.7859    0.8105    0.8816 H   0  0  0  0  0  0  0  0  0  0  0  0
   -3.6399   -1.4344   -0.0659 H   0  0  0  0  0  0  0  0  0  0  0  0
   -3.4154   -0.6181   -1.6161 H   0  0  0  0  0  0  0  0  0  0  0  0
   -5.5557   -0.9199    1.3135 H   0  0  0  0  0  0  0  0  0  0  0  0
   -7.6577    0.3120    1.6333 H   0  0  0  0  0  0  0  0  0  0  0  0
   -9.3640    1.8140    0.6198 H   0  0  0  0  0  0  0  0  0  0  0  0
   -8.4009    3.2793    0.9319 H   0  0  0  0  0  0  0  0  0  0  0  0
   -8.9439    2.8834   -0.7176 H   0  0  0  0  0  0  0  0  0  0  0  0
   -6.6290    2.9274   -1.6346 H   0  0  0  0  0  0  0  0  0  0  0  0
   -4.5213    1.6973   -1.9554 H   0  0  0  0  0  0  0  0  0  0  0  0
    2.3463   -3.5790   -0.0060 H   0  0  0  0  0  0  0  0  0  0  0  0
    3.0144   -2.3723   -1.1342 H   0  0  0  0  0  0  0  0  0  0  0  0
    2.5149   -3.9467   -1.7333 H   0  0  0  0  0  0  0  0  0  0  0  0
    0.4005   -4.3671   -2.3560 H   0  0  0  0  0  0  0  0  0  0  0  0
   -0.5399   -4.1154   -0.8738 H   0  0  0  0  0  0  0  0  0  0  0  0
   -0.8344   -3.1185   -2.3208 H   0  0  0  0  0  0  0  0  0  0  0  0
    3.0845   -0.2430    3.1465 H   0  0  0  0  0  0  0  0  0  0  0  0
    5.5070   -0.7907    3.1581 H   0  0  0  0  0  0  0  0  0  0  0  0
    3.5680    1.8806   -0.5532 H   0  0  0  0  0  0  0  0  0  0  0  0
    7.7503    2.2515    0.2172 H   0  0  0  0  0  0  0  0  0  0  0  0
    8.0449    1.6105   -1.4114 H   0  0  0  0  0  0  0  0  0  0  0  0
    7.5872   -0.7338   -0.5750 H   0  0  0  0  0  0  0  0  0  0  0  0
    8.9502    0.0237    0.2726 H   0  0  0  0  0  0  0  0  0  0  0  0
  1  2  1  0
  2  3  1  0
  3  4  1  0
  4  5  1  0
  5  6  2  0
  6  7  1  0
  7  8  2  0
  8  9  1  0
  8 10  1  0
 10 11  2  0
  2 12  2  0
 12 13  1  0
 13 14  1  0
 14 15  1  0
 14 16  1  0
 13 17  2  0
 17 18  1  0
 18 19  2  3
 19 20  1  0
 20 21  2  0
 21 22  1  0
 22 23  2  0
 23 24  1  0
 24 25  2  0
 24 26  1  0
 26 27  1  0
 27 28  1  0
 28 29  1  0
 18  1  1  0
 25 20  1  0
 11  5  1  0
 29 23  1  0
  1 30  1  0
  3 31  1  0
  4 32  1  0
  4 33  1  0
  6 34  1  0
  7 35  1  0
  9 36  1  0
  9 37  1  0
  9 38  1  0
 10 39  1  0
 11 40  1  0
 15 41  1  0
 15 42  1  0
 15 43  1  0
 16 44  1  0
 16 45  1  0
 16 46  1  0
 21 47  1  0
 22 48  1  0
 25 49  1  0
 27 50  1  0
 27 51  1  0
 28 52  1  0
 28 53  1  0
M  END
>  <ScrubInfo>  (3) 
{"isomerGroup": 0, "isomerId": 2, "confId": 0, "nr_conformers:": 1, "nr_isomers:": 9}

$$$$
_i3
     RDKit          3D

 53 56  0  0  0  0  0  0  0  0999 V2000
   -1.0422   -1.0638    0.0747 N   0  0  0  0  0  0  0  0  0  0  0  0
    0.1622   -1.6592   -0.0580 C   0  0  0  0  0  0  0  0  0  0  0  0
    0.2343   -2.9975    0.2930 N   0  0  0  0  0  0  0  0  0  0  0  0
   -0.8643   -3.9133   -0.0140 C   0  0  0  0  0  0  0  0  0  0  0  0
    1.5540   -3.6337    0.2475 C   0  0  0  0  0  0  0  0  0  0  0  0
    1.1828   -0.9739   -0.4766 N   0  0  0  0  0  0  0  0  0  0  0  0
    0.9695    0.3427   -0.8069 C   0  0  0  0  0  0  0  0  0  0  0  0
    2.0109    1.0683   -1.3042 N   0  0  0  0  0  0  0  0  0  0  0  0
    3.3836    0.7166   -1.0429 C   0  0  0  0  0  0  0  0  0  0  0  0
    4.2969    1.7426   -1.6688 C   0  0  0  0  0  0  0  0  0  0  0  0
    4.5144    1.7458   -3.0535 C   0  0  0  0  0  0  0  0  0  0  0  0
    5.3459    2.7025   -3.6401 C   0  0  0  0  0  0  0  0  0  0  0  0
    5.9616    3.6837   -2.8555 C   0  0  0  0  0  0  0  0  0  0  0  0
    6.8788    4.6920   -3.4813 C   0  0  0  0  0  0  0  0  0  0  0  0
    5.7497    3.6799   -1.4722 C   0  0  0  0  0  0  0  0  0  0  0  0
    4.9177    2.7236   -0.8844 C   0  0  0  0  0  0  0  0  0  0  0  0
   -0.1655    0.9639   -0.6737 N   0  0  0  0  0  0  0  0  0  0  0  0
   -1.2207    0.2596   -0.1731 C   0  0  0  0  0  0  0  0  0  0  0  0
   -2.2980    0.9552    0.0242 N   0  0  0  0  0  0  0  0  0  0  0  0
   -3.4374    0.3203    0.5297 C   0  0  0  0  0  0  0  0  0  0  0  0
   -4.3722   -0.2442   -0.3444 C   0  0  0  0  0  0  0  0  0  0  0  0
   -5.5109   -0.8820    0.1517 C   0  0  0  0  0  0  0  0  0  0  0  0
   -5.7232   -0.9434    1.5268 C   0  0  0  0  0  0  0  0  0  0  0  0
   -4.7873   -0.3894    2.4066 C   0  0  0  0  0  0  0  0  0  0  0  0
   -3.6586    0.2588    1.9080 C   0  0  0  0  0  0  0  0  0  0  0  0
   -4.9173   -0.4394    3.7712 O   0  0  0  0  0  0  0  0  0  0  0  0
   -5.9230   -1.3770    4.1721 C   0  0  0  0  0  0  0  0  0  0  0  0
   -7.1664   -1.2384    3.3096 C   0  0  0  0  0  0  0  0  0  0  0  0
   -6.8707   -1.5658    1.9466 O   0  0  0  0  0  0  0  0  0  0  0  0
   -1.7512   -1.5209    0.6172 H   0  0  0  0  0  0  0  0  0  0  0  0
   -0.6569   -4.9226    0.3581 H   0  0  0  0  0  0  0  0  0  0  0  0
   -1.7975   -3.5940    0.4596 H   0  0  0  0  0  0  0  0  0  0  0  0
   -1.0191   -3.9730   -1.0964 H   0  0  0  0  0  0  0  0  0  0  0  0
    1.5406   -4.5993    0.7644 H   0  0  0  0  0  0  0  0  0  0  0  0
    2.3047   -3.0159    0.7525 H   0  0  0  0  0  0  0  0  0  0  0  0
    1.8671   -3.7983   -0.7890 H   0  0  0  0  0  0  0  0  0  0  0  0
    1.8083    2.0606   -1.3157 H   0  0  0  0  0  0  0  0  0  0  0  0
    3.6205   -0.2716   -1.4558 H   0  0  0  0  0  0  0  0  0  0  0  0
    3.5637    0.6653    0.0378 H   0  0  0  0  0  0  0  0  0  0  0  0
    4.0287    1.0018   -3.6820 H   0  0  0  0  0  0  0  0  0  0  0  0
    5.5038    2.6799   -4.7160 H   0  0  0  0  0  0  0  0  0  0  0  0
    6.5688    4.9188   -4.5068 H   0  0  0  0  0  0  0  0  0  0  0  0
    7.9028    4.3064   -3.4981 H   0  0  0  0  0  0  0  0  0  0  0  0
    6.8640    5.6336   -2.9224 H   0  0  0  0  0  0  0  0  0  0  0  0
    6.2281    4.4267   -0.8423 H   0  0  0  0  0  0  0  0  0  0  0  0
    4.7582    2.7506    0.1913 H   0  0  0  0  0  0  0  0  0  0  0  0
   -4.2129   -0.1732   -1.4177 H   0  0  0  0  0  0  0  0  0  0  0  0
   -6.2383   -1.3091   -0.5327 H   0  0  0  0  0  0  0  0  0  0  0  0
   -2.9456    0.7138    2.5897 H   0  0  0  0  0  0  0  0  0  0  0  0
   -6.1649   -1.1757    5.2203 H   0  0  0  0  0  0  0  0  0  0  0  0
   -5.5007   -2.3874    4.1063 H   0  0  0  0  0  0  0  0  0  0  0  0
   -7.5704   -0.2189    3.3454 H   0  0  0  0  0  0  0  0  0  0  0  0
   -7.9449   -1.9262    3.6543 H   0  0  0  0  0  0  0  0  0  0  0  0
  1  2  1  0
  2  3  1  0
  3  4  1  0
  3  5  1  0
  2  6  2  0
  6  7  1  0
  7  8  1  0
  8  9  1  0
  9 10  1  0
 10 11  2  0
 11 12  1  0
 12 13  2  0
 13 14  1  0
 13 15  1  0
 15 16  2  0
  7 17  2  0
 17 18  1  0
 18 19  2  3
 19 20  1  0
 20 21  2  0
 21 22  1  0
 22 23  2  0
 23 24  1  0
 24 25  2  0
 24 26  1  0
 26 27  1  0
 27 28  1  0
 28 29  1  0
 18  1  1  0
 25 20  1  0
 16 10  1  0
 29 23  1  0
  1 30  1  0
  4 31  1  0
  4 32  1  0
  4 33  1  0
  5 34  1  0
  5 35  1  0
  5 36  1  0
  8 37  1  0
  9 38  1  0
  9 39  1  0
 11 40  1  0
 12 41  1  0
 14 42  1  0
 14 43  1  0
 14 44  1  0
 15 45  1  0
 16 46  1  0
 21 47  1  0
 22 48  1  0
 25 49  1  0
 27 50  1  0
 27 51  1  0
 28 52  1  0
 28 53  1  0
M  END
>  <ScrubInfo>  (4) 
{"isomerGroup": 0, "isomerId": 3, "confId": 0, "nr_conformers:": 1, "nr_isomers:": 9}

$$$$
_i4
     RDKit          3D

 53 56  0  0  0  0  0  0  0  0999 V2000
   -1.1722   -2.4274   -0.3887 N   0  0  0  0  0  0  0  0  0  0  0  0
   -0.1531   -3.3128   -0.4091 C   0  0  0  0  0  0  0  0  0  0  0  0
   -0.5129   -4.6447   -0.5257 N   0  0  0  0  0  0  0  0  0  0  0  0
   -1.5769   -5.1903    0.3203 C   0  0  0  0  0  0  0  0  0  0  0  0
    0.5629   -5.6084   -0.7821 C   0  0  0  0  0  0  0  0  0  0  0  0
    1.0752   -2.9008   -0.3487 N   0  0  0  0  0  0  0  0  0  0  0  0
    1.2934   -1.5422   -0.2281 C   0  0  0  0  0  0  0  0  0  0  0  0
    2.6218   -1.2271   -0.1139 N   0  0  0  0  0  0  0  0  0  0  0  0
    3.2844    0.0069   -0.0332 C   0  0  0  0  0  0  0  0  0  0  0  0
    2.6429    1.2513   -0.0632 C   0  0  0  0  0  0  0  0  0  0  0  0
    3.3665    2.4475    0.0292 C   0  0  0  0  0  0  0  0  0  0  0  0
    4.7495    2.4167    0.1558 C   0  0  0  0  0  0  0  0  0  0  0  0
    5.4076    1.1891    0.2222 C   0  0  0  0  0  0  0  0  0  0  0  0
    4.6832   -0.0001    0.1159 C   0  0  0  0  0  0  0  0  0  0  0  0
    6.7655    1.0712    0.3833 O   0  0  0  0  0  0  0  0  0  0  0  0
    7.3460    2.3069    0.8175 C   0  0  0  0  0  0  0  0  0  0  0  0
    6.8034    3.4707    0.0045 C   0  0  0  0  0  0  0  0  0  0  0  0
    5.3960    3.6235    0.2187 O   0  0  0  0  0  0  0  0  0  0  0  0
    0.3360   -0.6668   -0.2194 N   0  0  0  0  0  0  0  0  0  0  0  0
   -0.9506   -1.0909   -0.3475 C   0  0  0  0  0  0  0  0  0  0  0  0
   -1.8132   -0.1423   -0.4226 N   0  0  0  0  0  0  0  0  0  0  0  0
   -3.2257   -0.4858   -0.5448 C   0  0  0  0  0  0  0  0  0  0  0  0
   -4.1371    0.7188   -0.4696 C   0  0  0  0  0  0  0  0  0  0  0  0
   -5.3646    0.7142   -1.1470 C   0  0  0  0  0  0  0  0  0  0  0  0
   -6.2370    1.8023   -1.0512 C   0  0  0  0  0  0  0  0  0  0  0  0
   -5.9088    2.9080   -0.2598 C   0  0  0  0  0  0  0  0  0  0  0  0
   -6.8263    4.0917   -0.1863 C   0  0  0  0  0  0  0  0  0  0  0  0
   -4.6844    2.9176    0.4161 C   0  0  0  0  0  0  0  0  0  0  0  0
   -3.8130    1.8294    0.3205 C   0  0  0  0  0  0  0  0  0  0  0  0
   -2.0682   -2.7453   -0.7052 H   0  0  0  0  0  0  0  0  0  0  0  0
   -1.2638   -5.1946    1.3698 H   0  0  0  0  0  0  0  0  0  0  0  0
   -1.8215   -6.2174    0.0283 H   0  0  0  0  0  0  0  0  0  0  0  0
   -2.5011   -4.6108    0.2339 H   0  0  0  0  0  0  0  0  0  0  0  0
    1.1752   -5.7535    0.1143 H   0  0  0  0  0  0  0  0  0  0  0  0
    1.2054   -5.2660   -1.6008 H   0  0  0  0  0  0  0  0  0  0  0  0
    0.1521   -6.5779   -1.0838 H   0  0  0  0  0  0  0  0  0  0  0  0
    3.2146   -2.0425   -0.1512 H   0  0  0  0  0  0  0  0  0  0  0  0
    1.5640    1.3270   -0.1676 H   0  0  0  0  0  0  0  0  0  0  0  0
    2.8419    3.3982   -0.0091 H   0  0  0  0  0  0  0  0  0  0  0  0
    5.2257   -0.9407    0.1621 H   0  0  0  0  0  0  0  0  0  0  0  0
    8.4298    2.2274    0.6877 H   0  0  0  0  0  0  0  0  0  0  0  0
    7.1381    2.4326    1.8874 H   0  0  0  0  0  0  0  0  0  0  0  0
    7.2884    4.4035    0.3086 H   0  0  0  0  0  0  0  0  0  0  0  0
    6.9796    3.3277   -1.0689 H   0  0  0  0  0  0  0  0  0  0  0  0
   -3.3872   -0.9862   -1.5079 H   0  0  0  0  0  0  0  0  0  0  0  0
   -3.5279   -1.1712    0.2573 H   0  0  0  0  0  0  0  0  0  0  0  0
   -5.6491   -0.1357   -1.7624 H   0  0  0  0  0  0  0  0  0  0  0  0
   -7.1758    1.7803   -1.5995 H   0  0  0  0  0  0  0  0  0  0  0  0
   -6.7361    4.5965    0.7813 H   0  0  0  0  0  0  0  0  0  0  0  0
   -7.8714    3.7832   -0.2949 H   0  0  0  0  0  0  0  0  0  0  0  0
   -6.5830    4.8036   -0.9810 H   0  0  0  0  0  0  0  0  0  0  0  0
   -4.3958    3.7727    1.0228 H   0  0  0  0  0  0  0  0  0  0  0  0
   -2.8667    1.8562    0.8582 H   0  0  0  0  0  0  0  0  0  0  0  0
  1  2  1  0
  2  3  1  0
  3  4  1  0
  3  5  1  0
  2  6  2  0
  6  7  1  0
  7  8  1  0
  8  9  1  0
  9 10  2  0
 10 11  1  0
 11 12  2  0
 12 13  1  0
 13 14  2  0
 13 15  1  0
 15 16  1  0
 16 17  1  0
 17 18  1  0
  7 19  2  0
 19 20  1  0
 20 21  2  3
 21 22  1  0
 22 23  1  0
 23 24  2  0
 24 25  1  0
 25 26  2  0
 26 27  1  0
 26 28  1  0
 28 29  2  0
 20  1  1  0
 29 23  1  0
 14  9  1  0
 18 12  1  0
  1 30  1  0
  4 31  1  0
  4 32  1  0
  4 33  1  0
  5 34  1  0
  5 35  1  0
  5 36  1  0
  8 37  1  0
 10 38  1  0
 11 39  1  0
 14 40  1  0
 16 41  1  0
 16 42  1  0
 17 43  1  0
 17 44  1  0
 22 45  1  0
 22 46  1  0
 24 47  1  0
 25 48  1  0
 27 49  1  0
 27 50  1  0
 27 51  1  0
 28 52  1  0
 29 53  1  0
M  END
>  <ScrubInfo>  (5) 
{"isomerGroup": 0, "isomerId": 4, "confId": 0, "nr_conformers:": 1, "nr_isomers:": 9}

$$$$
_i5
     RDKit          3D

 53 56  0  0  0  0  0  0  0  0999 V2000
   -0.5680   -0.2149    0.3555 N   0  0  0  0  0  0  0  0  0  0  0  0
   -0.7004    0.9674   -0.2975 C   0  0  0  0  0  0  0  0  0  0  0  0
   -1.8916    1.2110   -0.9201 N   0  0  0  0  0  0  0  0  0  0  0  0
   -3.1906    0.9449   -0.4375 C   0  0  0  0  0  0  0  0  0  0  0  0
   -3.4669    0.6200    0.8981 C   0  0  0  0  0  0  0  0  0  0  0  0
   -4.7711    0.3300    1.3127 C   0  0  0  0  0  0  0  0  0  0  0  0
   -5.8144    0.3562    0.3932 C   0  0  0  0  0  0  0  0  0  0  0  0
   -5.5609    0.7064   -0.9340 C   0  0  0  0  0  0  0  0  0  0  0  0
   -4.2574    0.9836   -1.3480 C   0  0  0  0  0  0  0  0  0  0  0  0
   -6.5417    0.7875   -1.8895 O   0  0  0  0  0  0  0  0  0  0  0  0
   -7.8444    0.8338   -1.2951 C   0  0  0  0  0  0  0  0  0  0  0  0
   -7.9750   -0.2214   -0.2089 C   0  0  0  0  0  0  0  0  0  0  0  0
   -7.0617    0.0387    0.8639 O   0  0  0  0  0  0  0  0  0  0  0  0
    0.2833    1.8059   -0.3848 N   0  0  0  0  0  0  0  0  0  0  0  0
    1.4453    1.4060    0.2380 C   0  0  0  0  0  0  0  0  0  0  0  0
    2.3941    2.2719    0.1772 N   0  0  0  0  0  0  0  0  0  0  0  0
    3.6728    1.9391    0.8009 C   0  0  0  0  0  0  0  0  0  0  0  0
    4.5991    1.1512   -0.0979 C   0  0  0  0  0  0  0  0  0  0  0  0
    5.2660    0.0176    0.3831 C   0  0  0  0  0  0  0  0  0  0  0  0
    6.1406   -0.6961   -0.4407 C   0  0  0  0  0  0  0  0  0  0  0  0
    6.3591   -0.2927   -1.7628 C   0  0  0  0  0  0  0  0  0  0  0  0
    7.3220   -1.0388   -2.6369 C   0  0  0  0  0  0  0  0  0  0  0  0
    5.7086    0.8505   -2.2398 C   0  0  0  0  0  0  0  0  0  0  0  0
    4.8350    1.5637   -1.4156 C   0  0  0  0  0  0  0  0  0  0  0  0
    1.6374    0.2008    0.8774 N   0  0  0  0  0  0  0  0  0  0  0  0
    0.6111   -0.5922    0.9103 C   0  0  0  0  0  0  0  0  0  0  0  0
    0.6348   -1.8520    1.4830 N   0  0  0  0  0  0  0  0  0  0  0  0
   -0.4852   -2.3188    2.2991 C   0  0  0  0  0  0  0  0  0  0  0  0
    1.9357   -2.3575    1.9327 C   0  0  0  0  0  0  0  0  0  0  0  0
   -1.2029   -0.9466    0.0797 H   0  0  0  0  0  0  0  0  0  0  0  0
   -1.8620    2.0708   -1.4629 H   0  0  0  0  0  0  0  0  0  0  0  0
   -2.6794    0.6196    1.6477 H   0  0  0  0  0  0  0  0  0  0  0  0
   -4.9705    0.0845    2.3523 H   0  0  0  0  0  0  0  0  0  0  0  0
   -4.0783    1.2298   -2.3919 H   0  0  0  0  0  0  0  0  0  0  0  0
   -8.5772    0.6540   -2.0878 H   0  0  0  0  0  0  0  0  0  0  0  0
   -8.0109    1.8427   -0.8975 H   0  0  0  0  0  0  0  0  0  0  0  0
   -7.7747   -1.2266   -0.6001 H   0  0  0  0  0  0  0  0  0  0  0  0
   -8.9870   -0.2126    0.2077 H   0  0  0  0  0  0  0  0  0  0  0  0
    4.1799    2.8815    1.0446 H   0  0  0  0  0  0  0  0  0  0  0  0
    3.5380    1.4391    1.7688 H   0  0  0  0  0  0  0  0  0  0  0  0
    5.1039   -0.3172    1.4044 H   0  0  0  0  0  0  0  0  0  0  0  0
    6.6494   -1.5704   -0.0427 H   0  0  0  0  0  0  0  0  0  0  0  0
    8.3284   -0.6240   -2.5244 H   0  0  0  0  0  0  0  0  0  0  0  0
    7.0270   -0.9719   -3.6894 H   0  0  0  0  0  0  0  0  0  0  0  0
    7.3456   -2.1016   -2.3739 H   0  0  0  0  0  0  0  0  0  0  0  0
    5.8738    1.1949   -3.2578 H   0  0  0  0  0  0  0  0  0  0  0  0
    4.3285    2.4457   -1.8029 H   0  0  0  0  0  0  0  0  0  0  0  0
   -1.4332   -2.2621    1.7554 H   0  0  0  0  0  0  0  0  0  0  0  0
   -0.5678   -1.7176    3.2107 H   0  0  0  0  0  0  0  0  0  0  0  0
   -0.3523   -3.3669    2.5884 H   0  0  0  0  0  0  0  0  0  0  0  0
    1.8838   -3.4301    2.1485 H   0  0  0  0  0  0  0  0  0  0  0  0
    2.2607   -1.8358    2.8392 H   0  0  0  0  0  0  0  0  0  0  0  0
    2.6957   -2.2266    1.1545 H   0  0  0  0  0  0  0  0  0  0  0  0
  1  2  1  0
  2  3  1  0
  3  4  1  0
  4  5  2  0
  5  6  1  0
  6  7  2  0
  7  8  1  0
  8  9  2  0
  8 10  1  0
 10 11  1  0
 11 12  1  0
 12 13  1  0
  2 14  2  0
 14 15  1  0
 15 16  2  3
 16 17  1  0
 17 18  1  0
 18 19  2  0
 19 20  1  0
 20 21  2  0
 21 22  1  0
 21 23  1  0
 23 24  2  0
 15 25  1  0
 25 26  2  0
 26 27  1  0
 27 28  1  0
 27 29  1  0
 26  1  1  0
  9  4  1  0
 24 18  1  0
 13  7  1  0
  1 30  1  0
  3 31  1  0
  5 32  1  0
  6 33  1  0
  9 34  1  0
 11 35  1  0
 11 36  1  0
 12 37  1  0
 12 38  1  0
 17 39  1  0
 17 40  1  0
 19 41  1  0
 20 42  1  0
 22 43  1  0
 22 44  1  0
 22 45  1  0
 23 46  1  0
 24 47  1  0
 28 48  1  0
 28 49  1  0
 28 50  1  0
 29 51  1  0
 29 52  1  0
 29 53  1  0
M  END
>  <ScrubInfo>  (6) 
{"isomerGroup": 0, "isomerId": 5, "confId": 0, "nr_conformers:": 1, "nr_isomers:": 9}

$$$$
_i6
     RDKit          3D

 53 56  0  0  0  0  0  0  0  0999 V2000
   -0.6976   -1.1206    0.4499 N   0  0  0  0  0  0  0  0  0  0  0  0
   -1.1970   -0.2129   -0.4230 C   0  0  0  0  0  0  0  0  0  0  0  0
   -2.5545   -0.0950   -0.4715 N   0  0  0  0  0  0  0  0  0  0  0  0
   -3.3398    0.0990    0.7350 C   0  0  0  0  0  0  0  0  0  0  0  0
   -4.7852    0.3241    0.3693 C   0  0  0  0  0  0  0  0  0  0  0  0
   -5.3614    1.5964    0.4803 C   0  0  0  0  0  0  0  0  0  0  0  0
   -6.6986    1.8024    0.1316 C   0  0  0  0  0  0  0  0  0  0  0  0
   -7.4787    0.7452   -0.3494 C   0  0  0  0  0  0  0  0  0  0  0  0
   -8.9221    0.9617   -0.6954 C   0  0  0  0  0  0  0  0  0  0  0  0
   -6.9073   -0.5273   -0.4557 C   0  0  0  0  0  0  0  0  0  0  0  0
   -5.5707   -0.7347   -0.1071 C   0  0  0  0  0  0  0  0  0  0  0  0
   -0.4379    0.5016   -1.1863 N   0  0  0  0  0  0  0  0  0  0  0  0
    0.9126    0.2641   -1.0399 C   0  0  0  0  0  0  0  0  0  0  0  0
    1.6734    1.0483   -1.7399 N   0  0  0  0  0  0  0  0  0  0  0  0
    3.0640    0.8932   -1.6682 C   0  0  0  0  0  0  0  0  0  0  0  0
    3.7264    0.0658   -2.5820 C   0  0  0  0  0  0  0  0  0  0  0  0
    5.1157   -0.0700   -2.5402 C   0  0  0  0  0  0  0  0  0  0  0  0
    5.8491    0.6367   -1.5905 C   0  0  0  0  0  0  0  0  0  0  0  0
    5.1932    1.4584   -0.6668 C   0  0  0  0  0  0  0  0  0  0  0  0
    3.8079    1.6021   -0.7202 C   0  0  0  0  0  0  0  0  0  0  0  0
    5.8505    2.1619    0.3118 O   0  0  0  0  0  0  0  0  0  0  0  0
    7.1913    1.6906    0.4817 C   0  0  0  0  0  0  0  0  0  0  0  0
    7.8689    1.4998   -0.8648 C   0  0  0  0  0  0  0  0  0  0  0  0
    7.2114    0.4757   -1.6191 O   0  0  0  0  0  0  0  0  0  0  0  0
    1.4686   -0.7110   -0.2364 N   0  0  0  0  0  0  0  0  0  0  0  0
    0.6361   -1.3816    0.4978 C   0  0  0  0  0  0  0  0  0  0  0  0
    1.0210   -2.4026    1.3509 N   0  0  0  0  0  0  0  0  0  0  0  0
    0.4268   -2.5142    2.6827 C   0  0  0  0  0  0  0  0  0  0  0  0
    2.4336   -2.8006    1.3130 C   0  0  0  0  0  0  0  0  0  0  0  0
   -1.3010   -1.8986    0.6595 H   0  0  0  0  0  0  0  0  0  0  0  0
   -2.7975    0.6054   -1.1716 H   0  0  0  0  0  0  0  0  0  0  0  0
   -3.2712   -0.7770    1.3911 H   0  0  0  0  0  0  0  0  0  0  0  0
   -2.9525    0.9557    1.2998 H   0  0  0  0  0  0  0  0  0  0  0  0
   -4.7747    2.4400    0.8383 H   0  0  0  0  0  0  0  0  0  0  0  0
   -7.1267    2.7975    0.2327 H   0  0  0  0  0  0  0  0  0  0  0  0
   -9.2408    0.2772   -1.4885 H   0  0  0  0  0  0  0  0  0  0  0  0
   -9.0878    1.9807   -1.0606 H   0  0  0  0  0  0  0  0  0  0  0  0
   -9.5472    0.7961    0.1875 H   0  0  0  0  0  0  0  0  0  0  0  0
   -7.4982   -1.3655   -0.8186 H   0  0  0  0  0  0  0  0  0  0  0  0
   -5.1412   -1.7283   -0.2167 H   0  0  0  0  0  0  0  0  0  0  0  0
    3.1493   -0.4718   -3.3292 H   0  0  0  0  0  0  0  0  0  0  0  0
    5.6211   -0.7118   -3.2552 H   0  0  0  0  0  0  0  0  0  0  0  0
    3.2990    2.2543   -0.0179 H   0  0  0  0  0  0  0  0  0  0  0  0
    7.7316    2.4352    1.0748 H   0  0  0  0  0  0  0  0  0  0  0  0
    7.1621    0.7544    1.0529 H   0  0  0  0  0  0  0  0  0  0  0  0
    7.8636    2.4258   -1.4531 H   0  0  0  0  0  0  0  0  0  0  0  0
    8.9096    1.1911   -0.7242 H   0  0  0  0  0  0  0  0  0  0  0  0
   -0.6658   -2.5550    2.6355 H   0  0  0  0  0  0  0  0  0  0  0  0
    0.7538   -3.4322    3.1830 H   0  0  0  0  0  0  0  0  0  0  0  0
    0.7191   -1.6603    3.3029 H   0  0  0  0  0  0  0  0  0  0  0  0
    2.5864   -3.7430    1.8500 H   0  0  0  0  0  0  0  0  0  0  0  0
    3.0645   -2.0322    1.7726 H   0  0  0  0  0  0  0  0  0  0  0  0
    2.7654   -2.9650    0.2818 H   0  0  0  0  0  0  0  0  0  0  0  0
  1  2  1  0
  2  3  1  0
  3  4  1  0
  4  5  1  0
  5  6  2  0
  6  7  1  0
  7  8  2  0
  8  9  1  0
  8 10  1  0
 10 11  2  0
  2 12  2  0
 12 13  1  0
 13 14  2  3
 14 15  1  0
 15 16  2  0
 16 17  1  0
 17 18  2  0
 18 19  1  0
 19 20  2  0
 19 21  1  0
 21 22  1  0
 22 23  1  0
 23 24  1  0
 13 25  1  0
 25 26  2  0
 26 27  1  0
 27 28  1  0
 27 29  1  0
 26  1  1  0
 11  5  1  0
 20 15  1  0
 24 18  1  0
  1 30  1  0
  3 31  1  0
  4 32  1  0
  4 33  1  0
  6 34  1  0
  7 35  1  0
  9 36  1  0
  9 37  1  0
  9 38  1  0
 10 39  1  0
 11 40  1  0
 16 41  1  0
 17 42  1  0
 20 43  1  0
 22 44  1  0
 22 45  1  0
 23 46  1  0
 23 47  1  0
 28 48  1  0
 28 49  1  0
 28 50  1  0
 29 51  1  0
 29 52  1  0
 29 53  1  0
M  END
>  <ScrubInfo>  (7) 
{"isomerGroup": 0, "isomerId": 6, "confId": 0, "nr_conformers:": 1, "nr_isomers:": 9}

$$$$
_i7
     RDKit          3D

 53 56  0  0  0  0  0  0  0  0999 V2000
   -1.2543   -0.5359   -0.1197 N   0  0  0  0  0  0  0  0  0  0  0  0
   -0.2708   -1.3460    0.3818 C   0  0  0  0  0  0  0  0  0  0  0  0
   -0.7264   -2.4948    1.0113 N   0  0  0  0  0  0  0  0  0  0  0  0
    0.2520   -3.2548    1.7982 C   0  0  0  0  0  0  0  0  0  0  0  0
   -1.7019   -3.3549    0.3369 C   0  0  0  0  0  0  0  0  0  0  0  0
    0.9960   -1.0465    0.2948 N   0  0  0  0  0  0  0  0  0  0  0  0
    1.2889    0.1294   -0.3610 C   0  0  0  0  0  0  0  0  0  0  0  0
    2.5141    0.5107   -0.5121 N   0  0  0  0  0  0  0  0  0  0  0  0
    3.5442   -0.3644    0.0448 C   0  0  0  0  0  0  0  0  0  0  0  0
    4.9212    0.2070   -0.2039 C   0  0  0  0  0  0  0  0  0  0  0  0
    5.6244   -0.1123   -1.3722 C   0  0  0  0  0  0  0  0  0  0  0  0
    6.8917    0.4267   -1.6081 C   0  0  0  0  0  0  0  0  0  0  0  0
    7.4780    1.2947   -0.6801 C   0  0  0  0  0  0  0  0  0  0  0  0
    8.8218    1.9022   -0.9512 C   0  0  0  0  0  0  0  0  0  0  0  0
    6.7632    1.6396    0.4726 C   0  0  0  0  0  0  0  0  0  0  0  0
    5.4960    1.1005    0.7085 C   0  0  0  0  0  0  0  0  0  0  0  0
    0.2846    0.9055   -0.8575 N   0  0  0  0  0  0  0  0  0  0  0  0
   -1.0507    0.6608   -0.7583 C   0  0  0  0  0  0  0  0  0  0  0  0
   -1.9297    1.4969   -1.2197 N   0  0  0  0  0  0  0  0  0  0  0  0
   -3.2874    1.1814   -1.0863 C   0  0  0  0  0  0  0  0  0  0  0  0
   -3.9489    0.4875   -2.1046 C   0  0  0  0  0  0  0  0  0  0  0  0
   -5.2996    0.1576   -1.9749 C   0  0  0  0  0  0  0  0  0  0  0  0
   -5.9941    0.5292   -0.8263 C   0  0  0  0  0  0  0  0  0  0  0  0
   -5.3482    1.2606    0.1758 C   0  0  0  0  0  0  0  0  0  0  0  0
   -3.9967    1.5774    0.0503 C   0  0  0  0  0  0  0  0  0  0  0  0
   -5.9803    1.6906    1.3148 O   0  0  0  0  0  0  0  0  0  0  0  0
   -7.4041    1.6407    1.1670 C   0  0  0  0  0  0  0  0  0  0  0  0
   -7.8309    0.3091    0.5717 C   0  0  0  0  0  0  0  0  0  0  0  0
   -7.3104    0.1529   -0.7538 O   0  0  0  0  0  0  0  0  0  0  0  0
   -2.2009   -0.7495    0.1465 H   0  0  0  0  0  0  0  0  0  0  0  0
    0.8115   -2.5925    2.4682 H   0  0  0  0  0  0  0  0  0  0  0  0
   -0.2501   -3.9958    2.4294 H   0  0  0  0  0  0  0  0  0  0  0  0
    0.9570   -3.7768    1.1423 H   0  0  0  0  0  0  0  0  0  0  0  0
   -2.0403   -4.1578    1.0010 H   0  0  0  0  0  0  0  0  0  0  0  0
   -2.5956   -2.8002    0.0358 H   0  0  0  0  0  0  0  0  0  0  0  0
   -1.2562   -3.8090   -0.5545 H   0  0  0  0  0  0  0  0  0  0  0  0
    3.4100   -0.4888    1.1276 H   0  0  0  0  0  0  0  0  0  0  0  0
    3.4952   -1.3642   -0.4067 H   0  0  0  0  0  0  0  0  0  0  0  0
    5.1803   -0.7772   -2.1091 H   0  0  0  0  0  0  0  0  0  0  0  0
    7.4148    0.1681   -2.5255 H   0  0  0  0  0  0  0  0  0  0  0  0
    9.4474    1.2208   -1.5372 H   0  0  0  0  0  0  0  0  0  0  0  0
    8.7044    2.8391   -1.5044 H   0  0  0  0  0  0  0  0  0  0  0  0
    9.3535    2.1072   -0.0161 H   0  0  0  0  0  0  0  0  0  0  0  0
    7.1851    2.3358    1.1933 H   0  0  0  0  0  0  0  0  0  0  0  0
    4.9508    1.3875    1.6045 H   0  0  0  0  0  0  0  0  0  0  0  0
    0.5710    1.7634   -1.3018 H   0  0  0  0  0  0  0  0  0  0  0  0
   -3.4057    0.2053   -3.0030 H   0  0  0  0  0  0  0  0  0  0  0  0
   -5.8063   -0.3878   -2.7661 H   0  0  0  0  0  0  0  0  0  0  0  0
   -3.4967    2.1453    0.8297 H   0  0  0  0  0  0  0  0  0  0  0  0
   -7.8454    1.7703    2.1601 H   0  0  0  0  0  0  0  0  0  0  0  0
   -7.7209    2.4828    0.5392 H   0  0  0  0  0  0  0  0  0  0  0  0
   -7.4822   -0.5328    1.1825 H   0  0  0  0  0  0  0  0  0  0  0  0
   -8.9222    0.2554    0.5076 H   0  0  0  0  0  0  0  0  0  0  0  0
  1  2  1  0
  2  3  1  0
  3  4  1  0
  3  5  1  0
  2  6  2  0
  6  7  1  0
  7  8  2  3
  8  9  1  0
  9 10  1  0
 10 11  2  0
 11 12  1  0
 12 13  2  0
 13 14  1  0
 13 15  1  0
 15 16  2  0
  7 17  1  0
 17 18  1  0
 18 19  2  3
 19 20  1  0
 20 21  2  0
 21 22  1  0
 22 23  2  0
 23 24  1  0
 24 25  2  0
 24 26  1  0
 26 27  1  0
 27 28  1  0
 28 29  1  0
 18  1  1  0
 25 20  1  0
 16 10  1  0
 29 23  1  0
  1 30  1  0
  4 31  1  0
  4 32  1  0
  4 33  1  0
  5 34  1  0
  5 35  1  0
  5 36  1  0
  9 37  1  0
  9 38  1  0
 11 39  1  0
 12 40  1  0
 14 41  1  0
 14 42  1  0
 14 43  1  0
 15 44  1  0
 16 45  1  0
 17 46  1  0
 21 47  1  0
 22 48  1  0
 25 49  1  0
 27 50  1  0
 27 51  1  0
 28 52  1  0
 28 53  1  0
M  END
>  <ScrubInfo>  (8) 
{"isomerGroup": 0, "isomerId": 7, "confId": 0, "nr_conformers:": 1, "nr_isomers:": 9}

$$$$
_i8
     RDKit          3D

 53 56  0  0  0  0  0  0  0  0999 V2000
   -0.8284    0.9017    0.6531 N   0  0  0  0  0  0  0  0  0  0  0  0
    0.4994    1.2198    0.7737 C   0  0  0  0  0  0  0  0  0  0  0  0
    0.7597    2.2658    1.6458 N   0  0  0  0  0  0  0  0  0  0  0  0
    0.2928    2.1635    3.0314 C   0  0  0  0  0  0  0  0  0  0  0  0
    2.0913    2.8807    1.5495 C   0  0  0  0  0  0  0  0  0  0  0  0
    1.4342    0.6101    0.1033 N   0  0  0  0  0  0  0  0  0  0  0  0
    1.0101   -0.4094   -0.7224 C   0  0  0  0  0  0  0  0  0  0  0  0
    1.8631   -1.0979   -1.4269 N   0  0  0  0  0  0  0  0  0  0  0  0
    3.2276   -0.7885   -1.3306 C   0  0  0  0  0  0  0  0  0  0  0  0
    3.8038    0.1322   -2.2129 C   0  0  0  0  0  0  0  0  0  0  0  0
    5.1688    0.4205   -2.1471 C   0  0  0  0  0  0  0  0  0  0  0  0
    5.9653   -0.2254   -1.2049 C   0  0  0  0  0  0  0  0  0  0  0  0
    5.3942   -1.1390   -0.3120 C   0  0  0  0  0  0  0  0  0  0  0  0
    4.0342   -1.4344   -0.3892 C   0  0  0  0  0  0  0  0  0  0  0  0
    6.1141   -1.7908    0.6582 O   0  0  0  0  0  0  0  0  0  0  0  0
    7.3902   -1.1751    0.8623 C   0  0  0  0  0  0  0  0  0  0  0  0
    8.0604   -0.8743   -0.4678 C   0  0  0  0  0  0  0  0  0  0  0  0
    7.3012    0.0871   -1.2093 O   0  0  0  0  0  0  0  0  0  0  0  0
   -0.3192   -0.7051   -0.8106 N   0  0  0  0  0  0  0  0  0  0  0  0
   -1.3374   -0.0717   -0.1663 C   0  0  0  0  0  0  0  0  0  0  0  0
   -2.5606   -0.4110   -0.3774 N   0  0  0  0  0  0  0  0  0  0  0  0
   -3.6063    0.3056    0.3513 C   0  0  0  0  0  0  0  0  0  0  0  0
   -4.9881   -0.1997    0.0083 C   0  0  0  0  0  0  0  0  0  0  0  0
   -5.3684   -0.3892   -1.3271 C   0  0  0  0  0  0  0  0  0  0  0  0
   -6.6576   -0.8213   -1.6481 C   0  0  0  0  0  0  0  0  0  0  0  0
   -7.5920   -1.0753   -0.6388 C   0  0  0  0  0  0  0  0  0  0  0  0
   -8.9850   -1.5095   -0.9846 C   0  0  0  0  0  0  0  0  0  0  0  0
   -7.2240   -0.8649    0.6944 C   0  0  0  0  0  0  0  0  0  0  0  0
   -5.9339   -0.4328    1.0153 C   0  0  0  0  0  0  0  0  0  0  0  0
   -1.4719    1.5487    1.0739 H   0  0  0  0  0  0  0  0  0  0  0  0
   -0.7766    1.9373    3.0830 H   0  0  0  0  0  0  0  0  0  0  0  0
    0.4435    3.1099    3.5619 H   0  0  0  0  0  0  0  0  0  0  0  0
    0.8401    1.3767    3.5618 H   0  0  0  0  0  0  0  0  0  0  0  0
    2.3305    3.1262    0.5089 H   0  0  0  0  0  0  0  0  0  0  0  0
    2.1237    3.8180    2.1154 H   0  0  0  0  0  0  0  0  0  0  0  0
    2.8616    2.2091    1.9440 H   0  0  0  0  0  0  0  0  0  0  0  0
    3.1802    0.6247   -2.9533 H   0  0  0  0  0  0  0  0  0  0  0  0
    5.6082    1.1344   -2.8370 H   0  0  0  0  0  0  0  0  0  0  0  0
    3.5936   -2.1556    0.2914 H   0  0  0  0  0  0  0  0  0  0  0  0
    8.0032   -1.8687    1.4464 H   0  0  0  0  0  0  0  0  0  0  0  0
    7.2467   -0.2632    1.4552 H   0  0  0  0  0  0  0  0  0  0  0  0
    8.1689   -1.7798   -1.0777 H   0  0  0  0  0  0  0  0  0  0  0  0
    9.0570   -0.4530   -0.3025 H   0  0  0  0  0  0  0  0  0  0  0  0
   -0.5648   -1.4477   -1.4459 H   0  0  0  0  0  0  0  0  0  0  0  0
   -3.5773    1.3763    0.1123 H   0  0  0  0  0  0  0  0  0  0  0  0
   -3.4395    0.1937    1.4301 H   0  0  0  0  0  0  0  0  0  0  0  0
   -4.6527   -0.2048   -2.1257 H   0  0  0  0  0  0  0  0  0  0  0  0
   -6.9241   -0.9608   -2.6931 H   0  0  0  0  0  0  0  0  0  0  0  0
   -9.4077   -2.1348   -0.1912 H   0  0  0  0  0  0  0  0  0  0  0  0
   -9.6261   -0.6337   -1.1243 H   0  0  0  0  0  0  0  0  0  0  0  0
   -8.9921   -2.1039   -1.9043 H   0  0  0  0  0  0  0  0  0  0  0  0
   -7.9401   -1.0384    1.4943 H   0  0  0  0  0  0  0  0  0  0  0  0
   -5.6744   -0.2820    2.0603 H   0  0  0  0  0  0  0  0  0  0  0  0
  1  2  1  0
  2  3  1  0
  3  4  1  0
  3  5  1  0
  2  6  2  0
  6  7  1  0
  7  8  2  3
  8  9  1  0
  9 10  2  0
 10 11  1  0
 11 12  2  0
 12 13  1  0
 13 14  2  0
 13 15  1  0
 15 16  1  0
 16 17  1  0
 17 18  1  0
  7 19  1  0
 19 20  1  0
 20 21  2  3
 21 22  1  0
 22 23  1  0
 23 24  2  0
 24 25  1  0
 25 26  2  0
 26 27  1  0
 26 28  1  0
 28 29  2  0
 20  1  1  0
 29 23  1  0
 14  9  1  0
 18 12  1  0
  1 30  1  0
  4 31  1  0
  4 32  1  0
  4 33  1  0
  5 34  1  0
  5 35  1  0
  5 36  1  0
 10 37  1  0
 11 38  1  0
 14 39  1  0
 16 40  1  0
 16 41  1  0
 17 42  1  0
 17 43  1  0
 19 44  1  0
 22 45  1  0
 22 46  1  0
 24 47  1  0
 25 48  1  0
 27 49  1  0
 27 50  1  0
 27 51  1  0
 28 52  1  0
 29 53  1  0
M  END
>  <ScrubInfo>  (9) 
{"isomerGroup": 0, "isomerId": 8, "confId": 0, "nr_conformers:": 1, "nr_isomers:": 9}

$$$$
