REMARK SMILES Cc1ccc(CNc2nc(Nc3ccc4c(c3)OCCO4)nc(N(C)C)n2)cc1
REMARK SMILES IDX 7 1 6 3 5 4 2 5 3 6 29 7 4 8 28 9 1 10 8 11 9 12 27 13 10 14
REMARK SMILES IDX 23 15 22 16 11 17 12 19 13 20 17 21 14 22 16 23 15 24 18 25
REMARK SMILES IDX 21 26 19 27 20 28 24 29 25 30 26 31
REMARK H PARENT 7 2 11 18
ROOT
ATOM      1  N   UNL     1       2.544   0.022   0.565  1.00  0.00    -0.350 N 
ATOM      2  H   UNL     1       2.427   1.015   0.725  1.00  0.00     0.164 HD
ENDROOT
BRANCH   1   3
ATOM      3  C   UNL     1       3.607  -0.329  -0.353  1.00  0.00     0.152 C 
BRANCH   3   4
ATOM      4  C   UNL     1       4.842   0.471  -0.008  1.00  0.00    -0.029 A 
ATOM      5  C   UNL     1       7.138   1.967   0.658  1.00  0.00    -0.051 A 
ATOM      6  C   UNL     1       6.718   0.910   1.474  1.00  0.00     0.004 A 
ATOM      7  C   UNL     1       6.386   2.287  -0.478  1.00  0.00     0.004 A 
ATOM      8  C   UNL     1       5.583   0.167   1.142  1.00  0.00     0.006 A 
ATOM      9  C   UNL     1       5.250   1.545  -0.810  1.00  0.00     0.006 A 
ATOM     10  C   UNL     1       8.337   2.785   1.033  1.00  0.00     0.044 C 
ENDBRANCH   3   4
ENDBRANCH   1   3
BRANCH   1  11
ATOM     11  C   UNL     1       1.301  -0.502   0.238  1.00  0.00     0.229 A 
ATOM     12  N   UNL     1       0.263   0.248   0.566  1.00  0.00    -0.177 NA
ATOM     13  N   UNL     1       1.211  -1.675  -0.368  1.00  0.00    -0.177 NA
ATOM     14  C   UNL     1      -0.929  -0.258   0.275  1.00  0.00     0.233 A 
ATOM     15  C   UNL     1      -0.012  -2.115  -0.642  1.00  0.00     0.231 A 
ATOM     16  N   UNL     1      -1.103  -1.424  -0.332  1.00  0.00    -0.176 NA
BRANCH  14  17
ATOM     17  N   UNL     1      -2.006   0.554   0.630  1.00  0.00    -0.324 N 
ATOM     18  H   UNL     1      -1.655   1.387   1.081  1.00  0.00     0.170 HD
BRANCH  17  19
ATOM     19  C   UNL     1      -3.395   0.378   0.641  1.00  0.00     0.045 A 
ATOM     20  C   UNL     1      -4.032  -0.820   0.298  1.00  0.00     0.030 A 
ATOM     21  C   UNL     1      -4.206   1.483   0.953  1.00  0.00     0.076 A 
ATOM     22  C   UNL     1      -5.428  -0.929   0.299  1.00  0.00     0.052 A 
ATOM     23  C   UNL     1      -5.598   1.384   0.941  1.00  0.00     0.163 A 
ATOM     24  C   UNL     1      -6.211   0.169   0.636  1.00  0.00     0.161 A 
ATOM     25  O   UNL     1      -6.300   2.524   1.246  1.00  0.00    -0.486 OA
ATOM     26  O   UNL     1      -7.569  -0.013   0.637  1.00  0.00    -0.486 OA
ATOM     27  C   UNL     1      -7.678   2.401   0.876  1.00  0.00     0.271 C 
ATOM     28  C   UNL     1      -8.236   1.058   1.316  1.00  0.00     0.271 C 
ENDBRANCH  17  19
ENDBRANCH  14  17
BRANCH  15  29
ATOM     29  N   UNL     1      -0.156  -3.359  -1.265  1.00  0.00    -0.347 N 
ATOM     30  C   UNL     1       1.039  -3.853  -1.930  1.00  0.00     0.146 C 
ATOM     31  C   UNL     1      -1.420  -3.549  -1.959  1.00  0.00     0.146 C 
ENDBRANCH  15  29
ENDBRANCH   1  11
TORSDOF 6
