REMARK SMILES Cc1ccc(Nc2nc(NCCC(C)C)nc3c2cnn3C)cc1C
REMARK SMILES IDX 10 1 9 3 7 4 8 5 18 6 17 7 19 8 16 9 21 10 20 11 22 12 6 13
REMARK SMILES IDX 5 15 2 16 3 17 24 18 4 19 23 20 1 21 25 22 11 23 12 24 13 25
REMARK SMILES IDX 14 26 15 27
REMARK H PARENT 10 2 6 14
ROOT
ATOM      1  N   UNL     1       2.258   0.236   1.335  1.00  0.00    -0.354 N 
ATOM      2  H   UNL     1       3.187  -0.163   1.380  1.00  0.00     0.163 HD
ENDROOT
BRANCH   1   3
ATOM      3  C   UNL     1       1.394  -0.840   1.159  1.00  0.00     0.226 A 
ATOM      4  C   UNL     1      -0.726  -1.654   0.531  1.00  0.00     0.147 A 
ATOM      5  N   UNL     1       0.143  -0.624   0.713  1.00  0.00    -0.195 NA
ATOM      6  C   UNL     1      -0.246  -2.938   0.820  1.00  0.00     0.082 A 
ATOM      7  C   UNL     1       1.056  -3.042   1.269  1.00  0.00     0.165 A 
ATOM      8  C   UNL     1      -0.713  -4.268   0.796  1.00  0.00     0.149 A 
ATOM      9  N   UNL     1       1.921  -2.034   1.454  1.00  0.00    -0.193 NA
ATOM     10  N   UNL     1       1.278  -4.375   1.482  1.00  0.00    -0.250 N 
ATOM     11  N   UNL     1       0.208  -5.153   1.193  1.00  0.00    -0.179 NA
ATOM     12  C   UNL     1       2.491  -4.986   1.962  1.00  0.00     0.176 C 
BRANCH   4  13
ATOM     13  N   UNL     1      -2.027  -1.452   0.046  1.00  0.00    -0.339 N 
ATOM     14  H   UNL     1      -2.544  -2.306  -0.103  1.00  0.00     0.168 HD
BRANCH  13  15
ATOM     15  C   UNL     1      -2.775  -0.285  -0.193  1.00  0.00     0.040 A 
ATOM     16  C   UNL     1      -4.353   1.999  -0.806  1.00  0.00    -0.048 A 
ATOM     17  C   UNL     1      -3.145   2.118  -0.108  1.00  0.00     0.006 A 
ATOM     18  C   UNL     1      -4.779   0.722  -1.210  1.00  0.00    -0.046 A 
ATOM     19  C   UNL     1      -2.368   0.993   0.187  1.00  0.00     0.026 A 
ATOM     20  C   UNL     1      -3.983  -0.398  -0.902  1.00  0.00     0.029 A 
ATOM     21  C   UNL     1      -5.159   3.232  -1.106  1.00  0.00     0.044 C 
ATOM     22  C   UNL     1      -6.063   0.528  -1.970  1.00  0.00     0.044 C 
ENDBRANCH  13  15
ENDBRANCH   4  13
ENDBRANCH   1   3
BRANCH   1  23
ATOM     23  C   UNL     1       2.066   1.325   0.391  1.00  0.00     0.116 C 
BRANCH  23  24
ATOM     24  C   UNL     1       3.147   2.398   0.578  1.00  0.00     0.024 C 
BRANCH  24  25
ATOM     25  C   UNL     1       4.449   2.221  -0.233  1.00  0.00    -0.016 C 
ATOM     26  C   UNL     1       4.214   2.349  -1.740  1.00  0.00     0.007 C 
ATOM     27  C   UNL     1       5.191   0.923   0.079  1.00  0.00     0.007 C 
ENDBRANCH  24  25
ENDBRANCH  23  24
ENDBRANCH   1  23
TORSDOF 6
