_i0
     RDKit          3D

 51 53  0  0  0  0  0  0  0  0999 V2000
   -5.1587    3.2317   -1.1056 C   0  0  0  0  0  0  0  0  0  0  0  0
   -4.3527    1.9986   -0.8061 C   0  0  0  0  0  0  0  0  0  0  0  0
   -3.1448    2.1183   -0.1084 C   0  0  0  0  0  0  0  0  0  0  0  0
   -2.3680    0.9926    0.1874 C   0  0  0  0  0  0  0  0  0  0  0  0
   -2.7746   -0.2855   -0.1931 C   0  0  0  0  0  0  0  0  0  0  0  0
   -2.0266   -1.4517    0.0463 N   0  0  0  0  0  0  0  0  0  0  0  0
   -0.7255   -1.6536    0.5308 C   0  0  0  0  0  0  0  0  0  0  0  0
    0.1429   -0.6244    0.7132 N   0  0  0  0  0  0  0  0  0  0  0  0
    1.3944   -0.8398    1.1590 C   0  0  0  0  0  0  0  0  0  0  0  0
    2.2581    0.2365    1.3355 N   0  0  0  0  0  0  0  0  0  0  0  0
    2.0663    1.3248    0.3913 C   0  0  0  0  0  0  0  0  0  0  0  0
    3.1474    2.3978    0.5775 C   0  0  0  0  0  0  0  0  0  0  0  0
    4.4491    2.2207   -0.2332 C   0  0  0  0  0  0  0  0  0  0  0  0
    4.2144    2.3486   -1.7399 C   0  0  0  0  0  0  0  0  0  0  0  0
    5.1907    0.9235    0.0790 C   0  0  0  0  0  0  0  0  0  0  0  0
    1.9214   -2.0343    1.4538 N   0  0  0  0  0  0  0  0  0  0  0  0
    1.0563   -3.0415    1.2686 C   0  0  0  0  0  0  0  0  0  0  0  0
   -0.2457   -2.9375    0.8201 C   0  0  0  0  0  0  0  0  0  0  0  0
   -0.7132   -4.2684    0.7959 C   0  0  0  0  0  0  0  0  0  0  0  0
    0.2083   -5.1530    1.1928 N   0  0  0  0  0  0  0  0  0  0  0  0
    1.2776   -4.3747    1.4820 N   0  0  0  0  0  0  0  0  0  0  0  0
    2.4910   -4.9864    1.9621 C   0  0  0  0  0  0  0  0  0  0  0  0
   -3.9833   -0.3977   -0.9017 C   0  0  0  0  0  0  0  0  0  0  0  0
   -4.7793    0.7219   -1.2099 C   0  0  0  0  0  0  0  0  0  0  0  0
   -6.0627    0.5279   -1.9698 C   0  0  0  0  0  0  0  0  0  0  0  0
   -4.6708    4.1342   -0.7221 H   0  0  0  0  0  0  0  0  0  0  0  0
   -5.2771    3.3560   -2.1866 H   0  0  0  0  0  0  0  0  0  0  0  0
   -6.1447    3.1652   -0.6349 H   0  0  0  0  0  0  0  0  0  0  0  0
   -2.7903    3.0939    0.2172 H   0  0  0  0  0  0  0  0  0  0  0  0
   -1.4464    1.1429    0.7404 H   0  0  0  0  0  0  0  0  0  0  0  0
   -2.5441   -2.3057   -0.1034 H   0  0  0  0  0  0  0  0  0  0  0  0
    3.1872   -0.1630    1.3804 H   0  0  0  0  0  0  0  0  0  0  0  0
    2.0492    0.9590   -0.6409 H   0  0  0  0  0  0  0  0  0  0  0  0
    1.0969    1.7992    0.5903 H   0  0  0  0  0  0  0  0  0  0  0  0
    3.4005    2.4886    1.6421 H   0  0  0  0  0  0  0  0  0  0  0  0
    2.7124    3.3639    0.2878 H   0  0  0  0  0  0  0  0  0  0  0  0
    5.1098    3.0486    0.0578 H   0  0  0  0  0  0  0  0  0  0  0  0
    3.6327    1.5112   -2.1369 H   0  0  0  0  0  0  0  0  0  0  0  0
    5.1699    2.3688   -2.2754 H   0  0  0  0  0  0  0  0  0  0  0  0
    3.6831    3.2766   -1.9753 H   0  0  0  0  0  0  0  0  0  0  0  0
    5.3460    0.8109    1.1568 H   0  0  0  0  0  0  0  0  0  0  0  0
    4.6491    0.0470   -0.2904 H   0  0  0  0  0  0  0  0  0  0  0  0
    6.1767    0.9228   -0.3987 H   0  0  0  0  0  0  0  0  0  0  0  0
   -1.6890   -4.6348    0.5058 H   0  0  0  0  0  0  0  0  0  0  0  0
    3.2451   -4.2210    2.1577 H   0  0  0  0  0  0  0  0  0  0  0  0
    2.8536   -5.6770    1.1965 H   0  0  0  0  0  0  0  0  0  0  0  0
    2.2624   -5.5250    2.8853 H   0  0  0  0  0  0  0  0  0  0  0  0
   -4.3157   -1.3804   -1.2299 H   0  0  0  0  0  0  0  0  0  0  0  0
   -6.0224    1.0600   -2.9255 H   0  0  0  0  0  0  0  0  0  0  0  0
   -6.9115    0.8932   -1.3831 H   0  0  0  0  0  0  0  0  0  0  0  0
   -6.2458   -0.5295   -2.1884 H   0  0  0  0  0  0  0  0  0  0  0  0
  1  2  1  0
  2  3  2  0
  3  4  1  0
  4  5  2  0
  5  6  1  0
  6  7  1  0
  7  8  2  0
  8  9  1  0
  9 10  1  0
 10 11  1  0
 11 12  1  0
 12 13  1  0
 13 14  1  0
 13 15  1  0
  9 16  2  0
 16 17  1  0
 17 18  2  0
 18 19  1  0
 19 20  2  0
 20 21  1  0
 21 22  1  0
  5 23  1  0
 23 24  2  0
 24 25  1  0
 24  2  1  0
 18  7  1  0
 21 17  1  0
  1 26  1  0
  1 27  1  0
  1 28  1  0
  3 29  1  0
  4 30  1  0
  6 31  1  0
 10 32  1  0
 11 33  1  0
 11 34  1  0
 12 35  1  0
 12 36  1  0
 13 37  1  0
 14 38  1  0
 14 39  1  0
 14 40  1  0
 15 41  1  0
 15 42  1  0
 15 43  1  0
 19 44  1  0
 22 45  1  0
 22 46  1  0
 22 47  1  0
 23 48  1  0
 25 49  1  0
 25 50  1  0
 25 51  1  0
M  END
>  <ScrubInfo>  (1) 
{"isomerGroup": 0, "isomerId": 0, "confId": 0, "nr_conformers:": 1, "nr_isomers:": 9}

$$$$
_i1
     RDKit          3D

 51 53  0  0  0  0  0  0  0  0999 V2000
   -0.2969   -0.8548    0.6242 N   0  0  0  0  0  0  0  0  0  0  0  0
    1.0435   -1.1763    0.5930 C   0  0  0  0  0  0  0  0  0  0  0  0
    1.8455   -0.0653    0.5895 N   0  0  0  0  0  0  0  0  0  0  0  0
    3.2940   -0.1969    0.6324 C   0  0  0  0  0  0  0  0  0  0  0  0
    3.9754    1.1606    0.4355 C   0  0  0  0  0  0  0  0  0  0  0  0
    3.9603    1.7539   -0.9894 C   0  0  0  0  0  0  0  0  0  0  0  0
    2.5621    2.1351   -1.4739 C   0  0  0  0  0  0  0  0  0  0  0  0
    4.6479    0.8458   -2.0093 C   0  0  0  0  0  0  0  0  0  0  0  0
    1.5028   -2.4018    0.5574 N   0  0  0  0  0  0  0  0  0  0  0  0
    0.4939   -3.3178    0.5711 C   0  0  0  0  0  0  0  0  0  0  0  0
   -0.8670   -3.0859    0.5987 C   0  0  0  0  0  0  0  0  0  0  0  0
   -1.4605   -4.3551    0.6002 C   0  0  0  0  0  0  0  0  0  0  0  0
   -0.5512   -5.3392    0.5795 N   0  0  0  0  0  0  0  0  0  0  0  0
    0.6335   -4.6778    0.5578 N   0  0  0  0  0  0  0  0  0  0  0  0
    1.8617   -5.4303    0.5243 C   0  0  0  0  0  0  0  0  0  0  0  0
   -1.3602   -1.7334    0.6087 C   0  0  0  0  0  0  0  0  0  0  0  0
   -2.6358   -1.5324    0.5918 N   0  0  0  0  0  0  0  0  0  0  0  0
   -3.0806   -0.2048    0.5937 C   0  0  0  0  0  0  0  0  0  0  0  0
   -3.3519    0.4442    1.7961 C   0  0  0  0  0  0  0  0  0  0  0  0
   -3.7740    1.7745    1.7987 C   0  0  0  0  0  0  0  0  0  0  0  0
   -3.9393    2.4767    0.5949 C   0  0  0  0  0  0  0  0  0  0  0  0
   -4.4073    3.9061    0.6347 C   0  0  0  0  0  0  0  0  0  0  0  0
   -3.6883    1.8194   -0.6264 C   0  0  0  0  0  0  0  0  0  0  0  0
   -3.8734    2.5155   -1.9468 C   0  0  0  0  0  0  0  0  0  0  0  0
   -3.2647    0.4801   -0.6099 C   0  0  0  0  0  0  0  0  0  0  0  0
   -0.5344    0.1153    0.4994 H   0  0  0  0  0  0  0  0  0  0  0  0
    1.5038    0.6942    1.1662 H   0  0  0  0  0  0  0  0  0  0  0  0
    3.6433   -0.9153   -0.1161 H   0  0  0  0  0  0  0  0  0  0  0  0
    3.5775   -0.5890    1.6166 H   0  0  0  0  0  0  0  0  0  0  0  0
    3.5402    1.8925    1.1286 H   0  0  0  0  0  0  0  0  0  0  0  0
    5.0259    1.0482    0.7354 H   0  0  0  0  0  0  0  0  0  0  0  0
    4.5442    2.6832   -0.9406 H   0  0  0  0  0  0  0  0  0  0  0  0
    2.0391    2.7410   -0.7270 H   0  0  0  0  0  0  0  0  0  0  0  0
    1.9519    1.2550   -1.6980 H   0  0  0  0  0  0  0  0  0  0  0  0
    2.6271    2.7266   -2.3939 H   0  0  0  0  0  0  0  0  0  0  0  0
    4.7617    1.3641   -2.9677 H   0  0  0  0  0  0  0  0  0  0  0  0
    4.0730   -0.0668   -2.1955 H   0  0  0  0  0  0  0  0  0  0  0  0
    5.6472    0.5587   -1.6659 H   0  0  0  0  0  0  0  0  0  0  0  0
   -2.5133   -4.6052    0.6152 H   0  0  0  0  0  0  0  0  0  0  0  0
    1.8598   -6.0515   -0.3750 H   0  0  0  0  0  0  0  0  0  0  0  0
    2.7179   -4.7526    0.5034 H   0  0  0  0  0  0  0  0  0  0  0  0
    1.9062   -6.0552    1.4199 H   0  0  0  0  0  0  0  0  0  0  0  0
   -3.2388   -0.0914    2.7349 H   0  0  0  0  0  0  0  0  0  0  0  0
   -3.9829    2.2568    2.7514 H   0  0  0  0  0  0  0  0  0  0  0  0
   -3.6913    4.5566    0.1227 H   0  0  0  0  0  0  0  0  0  0  0  0
   -5.3891    3.9967    0.1594 H   0  0  0  0  0  0  0  0  0  0  0  0
   -4.5008    4.2697    1.6636 H   0  0  0  0  0  0  0  0  0  0  0  0
   -3.2018    3.3768   -2.0195 H   0  0  0  0  0  0  0  0  0  0  0  0
   -3.6484    1.8504   -2.7873 H   0  0  0  0  0  0  0  0  0  0  0  0
   -4.9099    2.8489   -2.0593 H   0  0  0  0  0  0  0  0  0  0  0  0
   -3.0778   -0.0476   -1.5430 H   0  0  0  0  0  0  0  0  0  0  0  0
  1  2  1  0
  2  3  1  0
  3  4  1  0
  4  5  1  0
  5  6  1  0
  6  7  1  0
  6  8  1  0
  2  9  2  0
  9 10  1  0
 10 11  2  0
 11 12  1  0
 12 13  2  0
 13 14  1  0
 14 15  1  0
 11 16  1  0
 16 17  2  3
 17 18  1  0
 18 19  2  0
 19 20  1  0
 20 21  2  0
 21 22  1  0
 21 23  1  0
 23 24  1  0
 23 25  2  0
 16  1  1  0
 25 18  1  0
 14 10  1  0
  1 26  1  0
  3 27  1  0
  4 28  1  0
  4 29  1  0
  5 30  1  0
  5 31  1  0
  6 32  1  0
  7 33  1  0
  7 34  1  0
  7 35  1  0
  8 36  1  0
  8 37  1  0
  8 38  1  0
 12 39  1  0
 15 40  1  0
 15 41  1  0
 15 42  1  0
 19 43  1  0
 20 44  1  0
 22 45  1  0
 22 46  1  0
 22 47  1  0
 24 48  1  0
 24 49  1  0
 24 50  1  0
 25 51  1  0
M  END
>  <ScrubInfo>  (2) 
{"isomerGroup": 0, "isomerId": 1, "confId": 0, "nr_conformers:": 1, "nr_isomers:": 9}

$$$$
_i2
     RDKit          3D

 51 53  0  0  0  0  0  0  0  0999 V2000
    0.7733   -0.2961   -0.5003 N   0  0  0  0  0  0  0  0  0  0  0  0
   -0.5562   -0.4885   -0.8296 C   0  0  0  0  0  0  0  0  0  0  0  0
   -1.4336    0.5774   -0.8865 N   0  0  0  0  0  0  0  0  0  0  0  0
   -2.6742    0.6923   -0.2176 C   0  0  0  0  0  0  0  0  0  0  0  0
   -3.1227   -0.2148    0.7448 C   0  0  0  0  0  0  0  0  0  0  0  0
   -4.3797   -0.0659    1.3382 C   0  0  0  0  0  0  0  0  0  0  0  0
   -5.2266    0.9904    0.9778 C   0  0  0  0  0  0  0  0  0  0  0  0
   -6.5725    1.1154    1.6378 C   0  0  0  0  0  0  0  0  0  0  0  0
   -4.7947    1.9104    0.0057 C   0  0  0  0  0  0  0  0  0  0  0  0
   -5.6651    3.0575   -0.4301 C   0  0  0  0  0  0  0  0  0  0  0  0
   -3.5273    1.7451   -0.5814 C   0  0  0  0  0  0  0  0  0  0  0  0
   -0.8910   -1.7429   -1.1548 C   0  0  0  0  0  0  0  0  0  0  0  0
   -2.0721   -2.4622   -1.6445 C   0  0  0  0  0  0  0  0  0  0  0  0
   -1.8486   -3.7381   -1.8405 N   0  0  0  0  0  0  0  0  0  0  0  0
   -0.5148   -3.9477   -1.4495 N   0  0  0  0  0  0  0  0  0  0  0  0
    0.1447   -5.1693   -1.8430 C   0  0  0  0  0  0  0  0  0  0  0  0
    0.1490   -2.7876   -1.0834 C   0  0  0  0  0  0  0  0  0  0  0  0
    1.3809   -2.5958   -0.7588 N   0  0  0  0  0  0  0  0  0  0  0  0
    1.7178   -1.2992   -0.4376 C   0  0  0  0  0  0  0  0  0  0  0  0
    2.9484   -1.1651   -0.0915 N   0  0  0  0  0  0  0  0  0  0  0  0
    3.4506    0.1528    0.2744 C   0  0  0  0  0  0  0  0  0  0  0  0
    4.9363    0.0184    0.6150 C   0  0  0  0  0  0  0  0  0  0  0  0
    5.5631    1.3156    1.1568 C   0  0  0  0  0  0  0  0  0  0  0  0
    7.0039    1.0500    1.6002 C   0  0  0  0  0  0  0  0  0  0  0  0
    5.5396    2.4486    0.1300 C   0  0  0  0  0  0  0  0  0  0  0  0
    1.0332    0.6210   -0.1805 H   0  0  0  0  0  0  0  0  0  0  0  0
   -0.9762    1.4812   -0.9585 H   0  0  0  0  0  0  0  0  0  0  0  0
   -2.4990   -1.0409    1.0750 H   0  0  0  0  0  0  0  0  0  0  0  0
   -4.6916   -0.7878    2.0908 H   0  0  0  0  0  0  0  0  0  0  0  0
   -6.7484    0.3019    2.3498 H   0  0  0  0  0  0  0  0  0  0  0  0
   -7.3694    1.0739    0.8887 H   0  0  0  0  0  0  0  0  0  0  0  0
   -6.6383    2.0578    2.1905 H   0  0  0  0  0  0  0  0  0  0  0  0
   -6.5820    2.6823   -0.8954 H   0  0  0  0  0  0  0  0  0  0  0  0
   -5.1571    3.6923   -1.1638 H   0  0  0  0  0  0  0  0  0  0  0  0
   -5.9212    3.6889    0.4265 H   0  0  0  0  0  0  0  0  0  0  0  0
   -3.2052    2.4454   -1.3500 H   0  0  0  0  0  0  0  0  0  0  0  0
   -3.0181   -1.9405   -1.8381 H   0  0  0  0  0  0  0  0  0  0  0  0
    0.9782   -5.3970   -1.1710 H   0  0  0  0  0  0  0  0  0  0  0  0
   -0.5514   -6.0136   -1.8085 H   0  0  0  0  0  0  0  0  0  0  0  0
    0.5326   -5.0816   -2.8627 H   0  0  0  0  0  0  0  0  0  0  0  0
    3.3216    0.8493   -0.5611 H   0  0  0  0  0  0  0  0  0  0  0  0
    2.9111    0.5383    1.1475 H   0  0  0  0  0  0  0  0  0  0  0  0
    5.0540   -0.7748    1.3656 H   0  0  0  0  0  0  0  0  0  0  0  0
    5.4837   -0.3204   -0.2744 H   0  0  0  0  0  0  0  0  0  0  0  0
    4.9951    1.6393    2.0381 H   0  0  0  0  0  0  0  0  0  0  0  0
    7.6255    0.7256    0.7587 H   0  0  0  0  0  0  0  0  0  0  0  0
    7.4534    1.9537    2.0252 H   0  0  0  0  0  0  0  0  0  0  0  0
    7.0376    0.2697    2.3678 H   0  0  0  0  0  0  0  0  0  0  0  0
    6.0518    3.3355    0.5188 H   0  0  0  0  0  0  0  0  0  0  0  0
    4.5149    2.7473   -0.1105 H   0  0  0  0  0  0  0  0  0  0  0  0
    6.0367    2.1523   -0.7999 H   0  0  0  0  0  0  0  0  0  0  0  0
  1  2  1  0
  2  3  1  0
  3  4  1  0
  4  5  2  0
  5  6  1  0
  6  7  2  0
  7  8  1  0
  7  9  1  0
  9 10  1  0
  9 11  2  0
  2 12  2  0
 12 13  1  0
 13 14  2  0
 14 15  1  0
 15 16  1  0
 15 17  1  0
 17 18  2  0
 18 19  1  0
 19 20  2  3
 20 21  1  0
 21 22  1  0
 22 23  1  0
 23 24  1  0
 23 25  1  0
 19  1  1  0
 11  4  1  0
 17 12  1  0
  1 26  1  0
  3 27  1  0
  5 28  1  0
  6 29  1  0
  8 30  1  0
  8 31  1  0
  8 32  1  0
 10 33  1  0
 10 34  1  0
 10 35  1  0
 11 36  1  0
 13 37  1  0
 16 38  1  0
 16 39  1  0
 16 40  1  0
 21 41  1  0
 21 42  1  0
 22 43  1  0
 22 44  1  0
 23 45  1  0
 24 46  1  0
 24 47  1  0
 24 48  1  0
 25 49  1  0
 25 50  1  0
 25 51  1  0
M  END
>  <ScrubInfo>  (3) 
{"isomerGroup": 0, "isomerId": 2, "confId": 0, "nr_conformers:": 1, "nr_isomers:": 9}

$$$$
_i3
     RDKit          3D

 51 53  0  0  0  0  0  0  0  0999 V2000
   -1.4388    1.2892    0.0813 N   0  0  0  0  0  0  0  0  0  0  0  0
   -1.4200   -0.0265    0.5187 C   0  0  0  0  0  0  0  0  0  0  0  0
   -2.4229   -0.8314    0.5452 N   0  0  0  0  0  0  0  0  0  0  0  0
   -3.7252   -0.3704    0.0825 C   0  0  0  0  0  0  0  0  0  0  0  0
   -4.7138   -1.5313    0.2100 C   0  0  0  0  0  0  0  0  0  0  0  0
   -6.1030   -1.2237   -0.3772 C   0  0  0  0  0  0  0  0  0  0  0  0
   -6.9752   -2.4807   -0.3327 C   0  0  0  0  0  0  0  0  0  0  0  0
   -6.8068   -0.0808    0.3558 C   0  0  0  0  0  0  0  0  0  0  0  0
   -0.2518   -0.6102    0.9885 N   0  0  0  0  0  0  0  0  0  0  0  0
    0.8544    0.0775    1.0052 C   0  0  0  0  0  0  0  0  0  0  0  0
    2.0381   -0.4307    1.4772 N   0  0  0  0  0  0  0  0  0  0  0  0
    3.2218   -0.5359    0.7005 C   0  0  0  0  0  0  0  0  0  0  0  0
    3.2264   -0.5006   -0.6956 C   0  0  0  0  0  0  0  0  0  0  0  0
    4.4206   -0.6487   -1.4055 C   0  0  0  0  0  0  0  0  0  0  0  0
    5.6362   -0.8508   -0.7372 C   0  0  0  0  0  0  0  0  0  0  0  0
    6.9002   -1.0072   -1.5375 C   0  0  0  0  0  0  0  0  0  0  0  0
    5.6422   -0.9183    0.6685 C   0  0  0  0  0  0  0  0  0  0  0  0
    6.9149   -1.1427    1.4384 C   0  0  0  0  0  0  0  0  0  0  0  0
    4.4327   -0.7652    1.3682 C   0  0  0  0  0  0  0  0  0  0  0  0
    0.8699    1.4587    0.5838 C   0  0  0  0  0  0  0  0  0  0  0  0
    1.7928    2.5124    0.5062 C   0  0  0  0  0  0  0  0  0  0  0  0
    1.2410    3.6375    0.0229 N   0  0  0  0  0  0  0  0  0  0  0  0
   -0.0520    3.2956   -0.1989 N   0  0  0  0  0  0  0  0  0  0  0  0
   -0.9576    4.2871   -0.7204 C   0  0  0  0  0  0  0  0  0  0  0  0
   -0.3005    2.0017    0.1324 C   0  0  0  0  0  0  0  0  0  0  0  0
   -2.3223    1.6617   -0.2304 H   0  0  0  0  0  0  0  0  0  0  0  0
   -3.6699   -0.0542   -0.9658 H   0  0  0  0  0  0  0  0  0  0  0  0
   -4.0621    0.4742    0.6932 H   0  0  0  0  0  0  0  0  0  0  0  0
   -4.8071   -1.8147    1.2666 H   0  0  0  0  0  0  0  0  0  0  0  0
   -4.2954   -2.4068   -0.3045 H   0  0  0  0  0  0  0  0  0  0  0  0
   -5.9841   -0.9349   -1.4292 H   0  0  0  0  0  0  0  0  0  0  0  0
   -6.5072   -3.2995   -0.8893 H   0  0  0  0  0  0  0  0  0  0  0  0
   -7.9554   -2.2908   -0.7829 H   0  0  0  0  0  0  0  0  0  0  0  0
   -7.1347   -2.8178    0.6973 H   0  0  0  0  0  0  0  0  0  0  0  0
   -7.8174    0.0696   -0.0393 H   0  0  0  0  0  0  0  0  0  0  0  0
   -6.2681    0.8635    0.2322 H   0  0  0  0  0  0  0  0  0  0  0  0
   -6.8910   -0.2889    1.4278 H   0  0  0  0  0  0  0  0  0  0  0  0
    1.8561   -1.3520    1.8729 H   0  0  0  0  0  0  0  0  0  0  0  0
    2.3047   -0.3685   -1.2568 H   0  0  0  0  0  0  0  0  0  0  0  0
    4.3910   -0.6095   -2.4927 H   0  0  0  0  0  0  0  0  0  0  0  0
    7.6375   -0.2558   -1.2376 H   0  0  0  0  0  0  0  0  0  0  0  0
    7.3185   -2.0083   -1.3936 H   0  0  0  0  0  0  0  0  0  0  0  0
    6.7164   -0.8749   -2.6091 H   0  0  0  0  0  0  0  0  0  0  0  0
    7.3875   -2.0803    1.1291 H   0  0  0  0  0  0  0  0  0  0  0  0
    6.7273   -1.2106    2.5153 H   0  0  0  0  0  0  0  0  0  0  0  0
    7.6084   -0.3119    1.2749 H   0  0  0  0  0  0  0  0  0  0  0  0
    4.4337   -0.8109    2.4560 H   0  0  0  0  0  0  0  0  0  0  0  0
    2.8411    2.5167    0.7765 H   0  0  0  0  0  0  0  0  0  0  0  0
   -1.9389    3.8410   -0.8944 H   0  0  0  0  0  0  0  0  0  0  0  0
   -0.5518    4.6642   -1.6626 H   0  0  0  0  0  0  0  0  0  0  0  0
   -1.0408    5.0949    0.0109 H   0  0  0  0  0  0  0  0  0  0  0  0
  1  2  1  0
  2  3  2  3
  3  4  1  0
  4  5  1  0
  5  6  1  0
  6  7  1  0
  6  8  1  0
  2  9  1  0
  9 10  2  0
 10 11  1  0
 11 12  1  0
 12 13  2  0
 13 14  1  0
 14 15  2  0
 15 16  1  0
 15 17  1  0
 17 18  1  0
 17 19  2  0
 10 20  1  0
 20 21  1  0
 21 22  2  0
 22 23  1  0
 23 24  1  0
 23 25  1  0
 25  1  1  0
 19 12  1  0
 25 20  2  0
  1 26  1  0
  4 27  1  0
  4 28  1  0
  5 29  1  0
  5 30  1  0
  6 31  1  0
  7 32  1  0
  7 33  1  0
  7 34  1  0
  8 35  1  0
  8 36  1  0
  8 37  1  0
 11 38  1  0
 13 39  1  0
 14 40  1  0
 16 41  1  0
 16 42  1  0
 16 43  1  0
 18 44  1  0
 18 45  1  0
 18 46  1  0
 19 47  1  0
 21 48  1  0
 24 49  1  0
 24 50  1  0
 24 51  1  0
M  END
>  <ScrubInfo>  (4) 
{"isomerGroup": 0, "isomerId": 3, "confId": 0, "nr_conformers:": 1, "nr_isomers:": 9}

$$$$
_i4
     RDKit          3D

 51 53  0  0  0  0  0  0  0  0999 V2000
    1.3123    1.5535    0.6273 N   0  0  0  0  0  0  0  0  0  0  0  0
    1.6013    0.2198    0.4546 C   0  0  0  0  0  0  0  0  0  0  0  0
    2.9389   -0.0290    0.6130 N   0  0  0  0  0  0  0  0  0  0  0  0
    3.4427   -1.3951    0.5381 C   0  0  0  0  0  0  0  0  0  0  0  0
    4.9734   -1.4153    0.5787 C   0  0  0  0  0  0  0  0  0  0  0  0
    5.6591   -1.1327   -0.7742 C   0  0  0  0  0  0  0  0  0  0  0  0
    5.3759    0.2683   -1.3156 C   0  0  0  0  0  0  0  0  0  0  0  0
    7.1714   -1.3314   -0.6337 C   0  0  0  0  0  0  0  0  0  0  0  0
    0.7308   -0.7037    0.1689 N   0  0  0  0  0  0  0  0  0  0  0  0
   -0.6124   -0.3804    0.0241 C   0  0  0  0  0  0  0  0  0  0  0  0
   -1.4121   -1.3731   -0.2059 N   0  0  0  0  0  0  0  0  0  0  0  0
   -2.7864   -1.2039   -0.3680 C   0  0  0  0  0  0  0  0  0  0  0  0
   -3.3297   -1.0576   -1.6429 C   0  0  0  0  0  0  0  0  0  0  0  0
   -4.7074   -0.9077   -1.8096 C   0  0  0  0  0  0  0  0  0  0  0  0
   -5.5687   -0.9175   -0.7016 C   0  0  0  0  0  0  0  0  0  0  0  0
   -7.0485   -0.7565   -0.9184 C   0  0  0  0  0  0  0  0  0  0  0  0
   -5.0302   -1.0998    0.5882 C   0  0  0  0  0  0  0  0  0  0  0  0
   -5.9080   -1.1399    1.8085 C   0  0  0  0  0  0  0  0  0  0  0  0
   -3.6410   -1.2490    0.7368 C   0  0  0  0  0  0  0  0  0  0  0  0
   -0.9568    1.0270    0.1456 C   0  0  0  0  0  0  0  0  0  0  0  0
   -2.1031    1.8346    0.0285 C   0  0  0  0  0  0  0  0  0  0  0  0
   -1.8459    3.1379    0.2280 N   0  0  0  0  0  0  0  0  0  0  0  0
   -0.5178    3.1679    0.4767 N   0  0  0  0  0  0  0  0  0  0  0  0
    0.1154    4.4341    0.7434 C   0  0  0  0  0  0  0  0  0  0  0  0
    0.0351    1.9283    0.4401 C   0  0  0  0  0  0  0  0  0  0  0  0
    2.0901    2.1985    0.6095 H   0  0  0  0  0  0  0  0  0  0  0  0
    3.3550    0.4949    1.3730 H   0  0  0  0  0  0  0  0  0  0  0  0
    3.0855   -1.8945   -0.3700 H   0  0  0  0  0  0  0  0  0  0  0  0
    3.0600   -1.9535    1.4006 H   0  0  0  0  0  0  0  0  0  0  0  0
    5.2774   -2.4192    0.9037 H   0  0  0  0  0  0  0  0  0  0  0  0
    5.3436   -0.7172    1.3405 H   0  0  0  0  0  0  0  0  0  0  0  0
    5.2950   -1.8619   -1.5093 H   0  0  0  0  0  0  0  0  0  0  0  0
    4.3255    0.3801   -1.5993 H   0  0  0  0  0  0  0  0  0  0  0  0
    5.6195    1.0380   -0.5757 H   0  0  0  0  0  0  0  0  0  0  0  0
    5.9702    0.4654   -2.2147 H   0  0  0  0  0  0  0  0  0  0  0  0
    7.6750   -1.1851   -1.5952 H   0  0  0  0  0  0  0  0  0  0  0  0
    7.4014   -2.3456   -0.2903 H   0  0  0  0  0  0  0  0  0  0  0  0
    7.5998   -0.6241    0.0847 H   0  0  0  0  0  0  0  0  0  0  0  0
   -2.6747   -1.0610   -2.5099 H   0  0  0  0  0  0  0  0  0  0  0  0
   -5.1038   -0.7884   -2.8155 H   0  0  0  0  0  0  0  0  0  0  0  0
   -7.5770   -1.6658   -0.6155 H   0  0  0  0  0  0  0  0  0  0  0  0
   -7.4278    0.0954   -0.3453 H   0  0  0  0  0  0  0  0  0  0  0  0
   -7.2824   -0.5712   -1.9721 H   0  0  0  0  0  0  0  0  0  0  0  0
   -6.4289   -0.1853    1.9327 H   0  0  0  0  0  0  0  0  0  0  0  0
   -5.3246   -1.3187    2.7181 H   0  0  0  0  0  0  0  0  0  0  0  0
   -6.6408   -1.9486    1.7245 H   0  0  0  0  0  0  0  0  0  0  0  0
   -3.2080   -1.4032    1.7226 H   0  0  0  0  0  0  0  0  0  0  0  0
   -3.1216    1.5507   -0.1991 H   0  0  0  0  0  0  0  0  0  0  0  0
    0.1139    5.0184   -0.1801 H   0  0  0  0  0  0  0  0  0  0  0  0
    1.1408    4.2736    1.0829 H   0  0  0  0  0  0  0  0  0  0  0  0
   -0.4516    4.9496    1.5229 H   0  0  0  0  0  0  0  0  0  0  0  0
  1  2  1  0
  2  3  1  0
  3  4  1  0
  4  5  1  0
  5  6  1  0
  6  7  1  0
  6  8  1  0
  2  9  2  0
  9 10  1  0
 10 11  2  3
 11 12  1  0
 12 13  2  0
 13 14  1  0
 14 15  2  0
 15 16  1  0
 15 17  1  0
 17 18  1  0
 17 19  2  0
 10 20  1  0
 20 21  1  0
 21 22  2  0
 22 23  1  0
 23 24  1  0
 23 25  1  0
 25  1  1  0
 19 12  1  0
 25 20  2  0
  1 26  1  0
  3 27  1  0
  4 28  1  0
  4 29  1  0
  5 30  1  0
  5 31  1  0
  6 32  1  0
  7 33  1  0
  7 34  1  0
  7 35  1  0
  8 36  1  0
  8 37  1  0
  8 38  1  0
 13 39  1  0
 14 40  1  0
 16 41  1  0
 16 42  1  0
 16 43  1  0
 18 44  1  0
 18 45  1  0
 18 46  1  0
 19 47  1  0
 21 48  1  0
 24 49  1  0
 24 50  1  0
 24 51  1  0
M  END
>  <ScrubInfo>  (5) 
{"isomerGroup": 0, "isomerId": 4, "confId": 0, "nr_conformers:": 1, "nr_isomers:": 9}

$$$$
_i5
     RDKit          3D

 51 53  0  0  0  0  0  0  0  0999 V2000
    1.6538   -3.1459   -0.8427 N   0  0  0  0  0  0  0  0  0  0  0  0
    1.8576   -1.9043   -0.2494 C   0  0  0  0  0  0  0  0  0  0  0  0
    0.8059   -1.0784   -0.3611 C   0  0  0  0  0  0  0  0  0  0  0  0
    0.4070    0.2649    0.0397 C   0  0  0  0  0  0  0  0  0  0  0  0
    1.0712    1.1971    0.6385 N   0  0  0  0  0  0  0  0  0  0  0  0
    2.4034    0.9961    1.0052 C   0  0  0  0  0  0  0  0  0  0  0  0
    2.7185    0.5323    2.2808 C   0  0  0  0  0  0  0  0  0  0  0  0
    4.0501    0.3386    2.6517 C   0  0  0  0  0  0  0  0  0  0  0  0
    5.0924    0.6199    1.7549 C   0  0  0  0  0  0  0  0  0  0  0  0
    6.5163    0.4098    2.1924 C   0  0  0  0  0  0  0  0  0  0  0  0
    4.7829    1.1195    0.4737 C   0  0  0  0  0  0  0  0  0  0  0  0
    5.8601    1.4656   -0.5170 C   0  0  0  0  0  0  0  0  0  0  0  0
    3.4368    1.3077    0.1177 C   0  0  0  0  0  0  0  0  0  0  0  0
   -0.8886    0.5739   -0.2779 N   0  0  0  0  0  0  0  0  0  0  0  0
   -1.6745   -0.2222   -0.9344 C   0  0  0  0  0  0  0  0  0  0  0  0
   -2.9608    0.1394   -1.2143 N   0  0  0  0  0  0  0  0  0  0  0  0
   -3.4061    1.5152   -1.1738 C   0  0  0  0  0  0  0  0  0  0  0  0
   -4.9205    1.6117   -1.3819 C   0  0  0  0  0  0  0  0  0  0  0  0
   -5.8193    1.1912   -0.1997 C   0  0  0  0  0  0  0  0  0  0  0  0
   -5.5733    2.0346    1.0518 C   0  0  0  0  0  0  0  0  0  0  0  0
   -5.7254   -0.2966    0.1349 C   0  0  0  0  0  0  0  0  0  0  0  0
   -1.3308   -1.4573   -1.4136 N   0  0  0  0  0  0  0  0  0  0  0  0
   -0.1445   -1.8829   -1.1513 C   0  0  0  0  0  0  0  0  0  0  0  0
    0.4421   -3.0961   -1.5172 N   0  0  0  0  0  0  0  0  0  0  0  0
   -0.3542   -4.3042   -1.6205 C   0  0  0  0  0  0  0  0  0  0  0  0
    2.4587   -3.4711   -1.3832 H   0  0  0  0  0  0  0  0  0  0  0  0
    2.8085   -1.7151    0.2270 H   0  0  0  0  0  0  0  0  0  0  0  0
    1.9207    0.3245    2.9887 H   0  0  0  0  0  0  0  0  0  0  0  0
    4.2670   -0.0260    3.6535 H   0  0  0  0  0  0  0  0  0  0  0  0
    6.5680   -0.0369    3.1911 H   0  0  0  0  0  0  0  0  0  0  0  0
    7.0467    1.3666    2.2279 H   0  0  0  0  0  0  0  0  0  0  0  0
    7.0310   -0.2687    1.5049 H   0  0  0  0  0  0  0  0  0  0  0  0
    5.4387    1.8557   -1.4496 H   0  0  0  0  0  0  0  0  0  0  0  0
    6.5211    2.2357   -0.1072 H   0  0  0  0  0  0  0  0  0  0  0  0
    6.4460    0.5756   -0.7672 H   0  0  0  0  0  0  0  0  0  0  0  0
    3.1777    1.7073   -0.8603 H   0  0  0  0  0  0  0  0  0  0  0  0
   -3.3657   -0.4414   -1.9370 H   0  0  0  0  0  0  0  0  0  0  0  0
   -3.1160    1.9968   -0.2348 H   0  0  0  0  0  0  0  0  0  0  0  0
   -2.9099    2.0633   -1.9838 H   0  0  0  0  0  0  0  0  0  0  0  0
   -5.1547    2.6583   -1.6185 H   0  0  0  0  0  0  0  0  0  0  0  0
   -5.2062    1.0306   -2.2686 H   0  0  0  0  0  0  0  0  0  0  0  0
   -6.8535    1.3814   -0.5177 H   0  0  0  0  0  0  0  0  0  0  0  0
   -4.5946    1.8288    1.4963 H   0  0  0  0  0  0  0  0  0  0  0  0
   -5.6277    3.1033    0.8198 H   0  0  0  0  0  0  0  0  0  0  0  0
   -6.3317    1.8204    1.8127 H   0  0  0  0  0  0  0  0  0  0  0  0
   -5.8504   -0.9098   -0.7634 H   0  0  0  0  0  0  0  0  0  0  0  0
   -4.7688   -0.5520    0.6007 H   0  0  0  0  0  0  0  0  0  0  0  0
   -6.5148   -0.5781    0.8407 H   0  0  0  0  0  0  0  0  0  0  0  0
    0.2565   -5.1315   -1.9966 H   0  0  0  0  0  0  0  0  0  0  0  0
   -0.7607   -4.5877   -0.6440 H   0  0  0  0  0  0  0  0  0  0  0  0
   -1.1855   -4.1594   -2.3179 H   0  0  0  0  0  0  0  0  0  0  0  0
  1  2  1  0
  2  3  2  0
  3  4  1  0
  4  5  2  3
  5  6  1  0
  6  7  2  0
  7  8  1  0
  8  9  2  0
  9 10  1  0
  9 11  1  0
 11 12  1  0
 11 13  2  0
  4 14  1  0
 14 15  2  0
 15 16  1  0
 16 17  1  0
 17 18  1  0
 18 19  1  0
 19 20  1  0
 19 21  1  0
 15 22  1  0
 22 23  2  0
 23 24  1  0
 24 25  1  0
 24  1  1  0
 23  3  1  0
 13  6  1  0
  1 26  1  0
  2 27  1  0
  7 28  1  0
  8 29  1  0
 10 30  1  0
 10 31  1  0
 10 32  1  0
 12 33  1  0
 12 34  1  0
 12 35  1  0
 13 36  1  0
 16 37  1  0
 17 38  1  0
 17 39  1  0
 18 40  1  0
 18 41  1  0
 19 42  1  0
 20 43  1  0
 20 44  1  0
 20 45  1  0
 21 46  1  0
 21 47  1  0
 21 48  1  0
 25 49  1  0
 25 50  1  0
 25 51  1  0
M  END
>  <ScrubInfo>  (6) 
{"isomerGroup": 0, "isomerId": 5, "confId": 0, "nr_conformers:": 1, "nr_isomers:": 9}

$$$$
_i6
     RDKit          3D

 51 53  0  0  0  0  0  0  0  0999 V2000
    0.6531   -5.4741   -1.3400 N   0  0  0  0  0  0  0  0  0  0  0  0
    1.3536   -4.2744   -1.2721 C   0  0  0  0  0  0  0  0  0  0  0  0
    0.6228   -3.2692   -0.7694 C   0  0  0  0  0  0  0  0  0  0  0  0
    0.7750   -1.8387   -0.4820 C   0  0  0  0  0  0  0  0  0  0  0  0
    1.9888   -1.2279   -0.7418 N   0  0  0  0  0  0  0  0  0  0  0  0
    2.4231    0.0814   -0.4562 C   0  0  0  0  0  0  0  0  0  0  0  0
    1.7279    0.9820    0.3494 C   0  0  0  0  0  0  0  0  0  0  0  0
    2.2064    2.2788    0.5685 C   0  0  0  0  0  0  0  0  0  0  0  0
    3.3980    2.7180   -0.0201 C   0  0  0  0  0  0  0  0  0  0  0  0
    3.8769    4.1196    0.2382 C   0  0  0  0  0  0  0  0  0  0  0  0
    4.1153    1.8320   -0.8413 C   0  0  0  0  0  0  0  0  0  0  0  0
    5.3976    2.2471   -1.5093 C   0  0  0  0  0  0  0  0  0  0  0  0
    3.6163    0.5320   -1.0496 C   0  0  0  0  0  0  0  0  0  0  0  0
   -0.2685   -1.2208   -0.0074 N   0  0  0  0  0  0  0  0  0  0  0  0
   -1.4492   -1.9045    0.1917 C   0  0  0  0  0  0  0  0  0  0  0  0
   -2.4951   -1.2639    0.5814 N   0  0  0  0  0  0  0  0  0  0  0  0
   -2.3670    0.1767    0.7918 C   0  0  0  0  0  0  0  0  0  0  0  0
   -3.7381    0.7213    1.1988 C   0  0  0  0  0  0  0  0  0  0  0  0
   -3.7125    2.2055    1.6067 C   0  0  0  0  0  0  0  0  0  0  0  0
   -3.2808    3.1202    0.4596 C   0  0  0  0  0  0  0  0  0  0  0  0
   -5.0934    2.6281    2.1139 C   0  0  0  0  0  0  0  0  0  0  0  0
   -1.6575   -3.2514    0.0195 N   0  0  0  0  0  0  0  0  0  0  0  0
   -0.6602   -3.9233   -0.4350 C   0  0  0  0  0  0  0  0  0  0  0  0
   -0.5697   -5.2890   -0.7044 N   0  0  0  0  0  0  0  0  0  0  0  0
   -1.7286   -6.0355   -1.1568 C   0  0  0  0  0  0  0  0  0  0  0  0
    1.1949   -6.2862   -1.0347 H   0  0  0  0  0  0  0  0  0  0  0  0
    2.3787   -4.2549   -1.6108 H   0  0  0  0  0  0  0  0  0  0  0  0
    2.6965   -1.7906   -1.1932 H   0  0  0  0  0  0  0  0  0  0  0  0
    0.8040    0.6989    0.8426 H   0  0  0  0  0  0  0  0  0  0  0  0
    1.6299    2.9436    1.2087 H   0  0  0  0  0  0  0  0  0  0  0  0
    4.8545    4.1028    0.7302 H   0  0  0  0  0  0  0  0  0  0  0  0
    3.1884    4.6660    0.8917 H   0  0  0  0  0  0  0  0  0  0  0  0
    3.9497    4.6763   -0.7014 H   0  0  0  0  0  0  0  0  0  0  0  0
    6.1382    2.5449   -0.7604 H   0  0  0  0  0  0  0  0  0  0  0  0
    5.2157    3.0801   -2.1957 H   0  0  0  0  0  0  0  0  0  0  0  0
    5.8319    1.4277   -2.0919 H   0  0  0  0  0  0  0  0  0  0  0  0
    4.1746   -0.1395   -1.6987 H   0  0  0  0  0  0  0  0  0  0  0  0
   -1.6458    0.3833    1.5915 H   0  0  0  0  0  0  0  0  0  0  0  0
   -2.0351    0.6683   -0.1295 H   0  0  0  0  0  0  0  0  0  0  0  0
   -4.4477    0.5699    0.3748 H   0  0  0  0  0  0  0  0  0  0  0  0
   -4.1173    0.1271    2.0410 H   0  0  0  0  0  0  0  0  0  0  0  0
   -2.9995    2.3307    2.4314 H   0  0  0  0  0  0  0  0  0  0  0  0
   -2.2451    2.9271    0.1642 H   0  0  0  0  0  0  0  0  0  0  0  0
   -3.9190    2.9826   -0.4197 H   0  0  0  0  0  0  0  0  0  0  0  0
   -3.3403    4.1724    0.7587 H   0  0  0  0  0  0  0  0  0  0  0  0
   -5.8521    2.5299    1.3300 H   0  0  0  0  0  0  0  0  0  0  0  0
   -5.0834    3.6713    2.4473 H   0  0  0  0  0  0  0  0  0  0  0  0
   -5.4018    2.0106    2.9641 H   0  0  0  0  0  0  0  0  0  0  0  0
   -2.0552   -5.6871   -2.1422 H   0  0  0  0  0  0  0  0  0  0  0  0
   -1.4906   -7.1019   -1.2260 H   0  0  0  0  0  0  0  0  0  0  0  0
   -2.5586   -5.9236   -0.4519 H   0  0  0  0  0  0  0  0  0  0  0  0
  1  2  1  0
  2  3  2  0
  3  4  1  0
  4  5  1  0
  5  6  1  0
  6  7  2  0
  7  8  1  0
  8  9  2  0
  9 10  1  0
  9 11  1  0
 11 12  1  0
 11 13  2  0
  4 14  2  0
 14 15  1  0
 15 16  2  3
 16 17  1  0
 17 18  1  0
 18 19  1  0
 19 20  1  0
 19 21  1  0
 15 22  1  0
 22 23  2  0
 23 24  1  0
 24 25  1  0
 24  1  1  0
 23  3  1  0
 13  6  1  0
  1 26  1  0
  2 27  1  0
  5 28  1  0
  7 29  1  0
  8 30  1  0
 10 31  1  0
 10 32  1  0
 10 33  1  0
 12 34  1  0
 12 35  1  0
 12 36  1  0
 13 37  1  0
 17 38  1  0
 17 39  1  0
 18 40  1  0
 18 41  1  0
 19 42  1  0
 20 43  1  0
 20 44  1  0
 20 45  1  0
 21 46  1  0
 21 47  1  0
 21 48  1  0
 25 49  1  0
 25 50  1  0
 25 51  1  0
M  END
>  <ScrubInfo>  (7) 
{"isomerGroup": 0, "isomerId": 6, "confId": 0, "nr_conformers:": 1, "nr_isomers:": 9}

$$$$
_i7
     RDKit          3D

 51 53  0  0  0  0  0  0  0  0999 V2000
   -1.3385    0.8826   -0.0024 N   0  0  0  0  0  0  0  0  0  0  0  0
   -1.4719   -0.4834   -0.1881 C   0  0  0  0  0  0  0  0  0  0  0  0
   -2.5615   -1.1720   -0.2472 N   0  0  0  0  0  0  0  0  0  0  0  0
   -3.8360   -0.4726   -0.1069 C   0  0  0  0  0  0  0  0  0  0  0  0
   -4.9597   -1.5046   -0.2209 C   0  0  0  0  0  0  0  0  0  0  0  0
   -6.3675   -0.8825   -0.2302 C   0  0  0  0  0  0  0  0  0  0  0  0
   -7.4138   -1.9697   -0.4875 C   0  0  0  0  0  0  0  0  0  0  0  0
   -6.6919   -0.1523    1.0738 C   0  0  0  0  0  0  0  0  0  0  0  0
   -0.2664   -1.1362   -0.3195 N   0  0  0  0  0  0  0  0  0  0  0  0
    1.0340   -0.6801   -0.3015 C   0  0  0  0  0  0  0  0  0  0  0  0
    2.0334   -1.4972   -0.4482 N   0  0  0  0  0  0  0  0  0  0  0  0
    3.3593   -1.0620   -0.4321 C   0  0  0  0  0  0  0  0  0  0  0  0
    4.0041   -0.7279   -1.6214 C   0  0  0  0  0  0  0  0  0  0  0  0
    5.3371   -0.3139   -1.6083 C   0  0  0  0  0  0  0  0  0  0  0  0
    6.0535   -0.2416   -0.4037 C   0  0  0  0  0  0  0  0  0  0  0  0
    7.4891    0.2071   -0.4269 C   0  0  0  0  0  0  0  0  0  0  0  0
    5.4177   -0.6092    0.7993 C   0  0  0  0  0  0  0  0  0  0  0  0
    6.1427   -0.5682    2.1162 C   0  0  0  0  0  0  0  0  0  0  0  0
    4.0753   -1.0233    0.7671 C   0  0  0  0  0  0  0  0  0  0  0  0
    1.0722    0.7602   -0.1051 C   0  0  0  0  0  0  0  0  0  0  0  0
    2.0528    1.7656   -0.0089 C   0  0  0  0  0  0  0  0  0  0  0  0
    1.5304    2.9877    0.1759 N   0  0  0  0  0  0  0  0  0  0  0  0
    0.1988    2.7673    0.2070 N   0  0  0  0  0  0  0  0  0  0  0  0
   -0.6952    3.8829    0.3897 C   0  0  0  0  0  0  0  0  0  0  0  0
   -0.1120    1.4532    0.0352 C   0  0  0  0  0  0  0  0  0  0  0  0
   -2.1900    1.4175    0.0969 H   0  0  0  0  0  0  0  0  0  0  0  0
   -3.9489    0.2778   -0.8982 H   0  0  0  0  0  0  0  0  0  0  0  0
   -3.8836    0.0251    0.8676 H   0  0  0  0  0  0  0  0  0  0  0  0
   -4.8739   -2.2275    0.6011 H   0  0  0  0  0  0  0  0  0  0  0  0
   -4.8172   -2.0779   -1.1468 H   0  0  0  0  0  0  0  0  0  0  0  0
   -6.4267   -0.1585   -1.0527 H   0  0  0  0  0  0  0  0  0  0  0  0
   -7.2228   -2.4765   -1.4394 H   0  0  0  0  0  0  0  0  0  0  0  0
   -8.4194   -1.5387   -0.5366 H   0  0  0  0  0  0  0  0  0  0  0  0
   -7.4066   -2.7244    0.3063 H   0  0  0  0  0  0  0  0  0  0  0  0
   -7.7218    0.2207    1.0640 H   0  0  0  0  0  0  0  0  0  0  0  0
   -6.0371    0.7120    1.2201 H   0  0  0  0  0  0  0  0  0  0  0  0
   -6.5812   -0.8155    1.9384 H   0  0  0  0  0  0  0  0  0  0  0  0
   -0.3531   -2.1332   -0.4547 H   0  0  0  0  0  0  0  0  0  0  0  0
    3.4651   -0.7891   -2.5626 H   0  0  0  0  0  0  0  0  0  0  0  0
    5.8141   -0.0514   -2.5500 H   0  0  0  0  0  0  0  0  0  0  0  0
    7.6279    1.0763    0.2237 H   0  0  0  0  0  0  0  0  0  0  0  0
    7.8023    0.5001   -1.4347 H   0  0  0  0  0  0  0  0  0  0  0  0
    8.1454   -0.6048   -0.0981 H   0  0  0  0  0  0  0  0  0  0  0  0
    5.5057   -0.9146    2.9371 H   0  0  0  0  0  0  0  0  0  0  0  0
    6.4515    0.4561    2.3475 H   0  0  0  0  0  0  0  0  0  0  0  0
    7.0228   -1.2182    2.0872 H   0  0  0  0  0  0  0  0  0  0  0  0
    3.5716   -1.3199    1.6842 H   0  0  0  0  0  0  0  0  0  0  0  0
    3.1295    1.6811   -0.0653 H   0  0  0  0  0  0  0  0  0  0  0  0
   -1.6042    3.5421    0.8906 H   0  0  0  0  0  0  0  0  0  0  0  0
   -0.9321    4.2931   -0.5948 H   0  0  0  0  0  0  0  0  0  0  0  0
   -0.2032    4.6383    1.0083 H   0  0  0  0  0  0  0  0  0  0  0  0
  1  2  1  0
  2  3  2  3
  3  4  1  0
  4  5  1  0
  5  6  1  0
  6  7  1  0
  6  8  1  0
  2  9  1  0
  9 10  1  0
 10 11  2  3
 11 12  1  0
 12 13  2  0
 13 14  1  0
 14 15  2  0
 15 16  1  0
 15 17  1  0
 17 18  1  0
 17 19  2  0
 10 20  1  0
 20 21  1  0
 21 22  2  0
 22 23  1  0
 23 24  1  0
 23 25  1  0
 25  1  1  0
 19 12  1  0
 25 20  2  0
  1 26  1  0
  4 27  1  0
  4 28  1  0
  5 29  1  0
  5 30  1  0
  6 31  1  0
  7 32  1  0
  7 33  1  0
  7 34  1  0
  8 35  1  0
  8 36  1  0
  8 37  1  0
  9 38  1  0
 13 39  1  0
 14 40  1  0
 16 41  1  0
 16 42  1  0
 16 43  1  0
 18 44  1  0
 18 45  1  0
 18 46  1  0
 19 47  1  0
 21 48  1  0
 24 49  1  0
 24 50  1  0
 24 51  1  0
M  END
>  <ScrubInfo>  (8) 
{"isomerGroup": 0, "isomerId": 7, "confId": 0, "nr_conformers:": 1, "nr_isomers:": 9}

$$$$
_i8
     RDKit          3D

 51 53  0  0  0  0  0  0  0  0999 V2000
    1.3606   -3.2504   -0.4918 N   0  0  0  0  0  0  0  0  0  0  0  0
    1.7272   -1.9092   -0.4752 C   0  0  0  0  0  0  0  0  0  0  0  0
    0.7218   -1.0831   -0.1522 C   0  0  0  0  0  0  0  0  0  0  0  0
    0.4577    0.3503    0.0693 C   0  0  0  0  0  0  0  0  0  0  0  0
    1.2603    1.3669   -0.0528 N   0  0  0  0  0  0  0  0  0  0  0  0
    2.5868    1.1821   -0.4533 C   0  0  0  0  0  0  0  0  0  0  0  0
    2.9282    1.2354   -1.8033 C   0  0  0  0  0  0  0  0  0  0  0  0
    4.2548    1.0638   -2.2020 C   0  0  0  0  0  0  0  0  0  0  0  0
    5.2664    0.8485   -1.2534 C   0  0  0  0  0  0  0  0  0  0  0  0
    6.6868    0.6758   -1.7182 C   0  0  0  0  0  0  0  0  0  0  0  0
    4.9329    0.8232    0.1158 C   0  0  0  0  0  0  0  0  0  0  0  0
    5.9794    0.6183    1.1765 C   0  0  0  0  0  0  0  0  0  0  0  0
    3.5923    0.9977    0.4988 C   0  0  0  0  0  0  0  0  0  0  0  0
   -0.8321    0.5930    0.4629 N   0  0  0  0  0  0  0  0  0  0  0  0
   -1.8330   -0.3275    0.6459 C   0  0  0  0  0  0  0  0  0  0  0  0
   -3.0309   -0.0832    1.0443 N   0  0  0  0  0  0  0  0  0  0  0  0
   -3.4252    1.2861    1.3416 C   0  0  0  0  0  0  0  0  0  0  0  0
   -4.8958    1.3173    1.7683 C   0  0  0  0  0  0  0  0  0  0  0  0
   -5.9504    1.1558    0.6532 C   0  0  0  0  0  0  0  0  0  0  0  0
   -5.8796    2.2768   -0.3844 C   0  0  0  0  0  0  0  0  0  0  0  0
   -5.9028   -0.2080   -0.0338 C   0  0  0  0  0  0  0  0  0  0  0  0
   -1.6156   -1.6661    0.3956 N   0  0  0  0  0  0  0  0  0  0  0  0
   -0.4345   -2.0305    0.0086 C   0  0  0  0  0  0  0  0  0  0  0  0
   -0.0131   -3.3233   -0.3118 N   0  0  0  0  0  0  0  0  0  0  0  0
   -0.5818   -4.4786    0.3559 C   0  0  0  0  0  0  0  0  0  0  0  0
    1.7375   -3.7635   -1.2918 H   0  0  0  0  0  0  0  0  0  0  0  0
    2.7503   -1.6573   -0.7129 H   0  0  0  0  0  0  0  0  0  0  0  0
    2.1573    1.4137   -2.5477 H   0  0  0  0  0  0  0  0  0  0  0  0
    4.4938    1.1079   -3.2625 H   0  0  0  0  0  0  0  0  0  0  0  0
    7.0931   -0.2750   -1.3591 H   0  0  0  0  0  0  0  0  0  0  0  0
    6.7536    0.6671   -2.8113 H   0  0  0  0  0  0  0  0  0  0  0  0
    7.3076    1.5002   -1.3536 H   0  0  0  0  0  0  0  0  0  0  0  0
    5.5457    0.6528    2.1816 H   0  0  0  0  0  0  0  0  0  0  0  0
    6.7387    1.4046    1.1193 H   0  0  0  0  0  0  0  0  0  0  0  0
    6.4554   -0.3599    1.0559 H   0  0  0  0  0  0  0  0  0  0  0  0
    3.3180    0.9916    1.5513 H   0  0  0  0  0  0  0  0  0  0  0  0
   -1.0399    1.5612    0.6427 H   0  0  0  0  0  0  0  0  0  0  0  0
   -3.2595    1.9465    0.4844 H   0  0  0  0  0  0  0  0  0  0  0  0
   -2.8239    1.6622    2.1786 H   0  0  0  0  0  0  0  0  0  0  0  0
   -5.0790    2.2812    2.2614 H   0  0  0  0  0  0  0  0  0  0  0  0
   -5.0675    0.5471    2.5317 H   0  0  0  0  0  0  0  0  0  0  0  0
   -6.9305    1.2329    1.1433 H   0  0  0  0  0  0  0  0  0  0  0  0
   -6.7352    2.2215   -1.0664 H   0  0  0  0  0  0  0  0  0  0  0  0
   -4.9710    2.2144   -0.9914 H   0  0  0  0  0  0  0  0  0  0  0  0
   -5.9030    3.2590    0.0991 H   0  0  0  0  0  0  0  0  0  0  0  0
   -5.9056   -1.0185    0.7021 H   0  0  0  0  0  0  0  0  0  0  0  0
   -5.0172   -0.3157   -0.6676 H   0  0  0  0  0  0  0  0  0  0  0  0
   -6.7800   -0.3409   -0.6767 H   0  0  0  0  0  0  0  0  0  0  0  0
   -0.3323   -4.4734    1.4221 H   0  0  0  0  0  0  0  0  0  0  0  0
   -0.1956   -5.4024   -0.0870 H   0  0  0  0  0  0  0  0  0  0  0  0
   -1.6713   -4.4885    0.2501 H   0  0  0  0  0  0  0  0  0  0  0  0
  1  2  1  0
  2  3  2  0
  3  4  1  0
  4  5  2  3
  5  6  1  0
  6  7  2  0
  7  8  1  0
  8  9  2  0
  9 10  1  0
  9 11  1  0
 11 12  1  0
 11 13  2  0
  4 14  1  0
 14 15  1  0
 15 16  2  3
 16 17  1  0
 17 18  1  0
 18 19  1  0
 19 20  1  0
 19 21  1  0
 15 22  1  0
 22 23  2  0
 23 24  1  0
 24 25  1  0
 24  1  1  0
 23  3  1  0
 13  6  1  0
  1 26  1  0
  2 27  1  0
  7 28  1  0
  8 29  1  0
 10 30  1  0
 10 31  1  0
 10 32  1  0
 12 33  1  0
 12 34  1  0
 12 35  1  0
 13 36  1  0
 14 37  1  0
 17 38  1  0
 17 39  1  0
 18 40  1  0
 18 41  1  0
 19 42  1  0
 20 43  1  0
 20 44  1  0
 20 45  1  0
 21 46  1  0
 21 47  1  0
 21 48  1  0
 25 49  1  0
 25 50  1  0
 25 51  1  0
M  END
>  <ScrubInfo>  (9) 
{"isomerGroup": 0, "isomerId": 8, "confId": 0, "nr_conformers:": 1, "nr_isomers:": 9}

$$$$
