_i0
     RDKit          3D

 49 52  0  0  0  0  0  0  0  0999 V2000
   -7.8365    0.4291    0.6314 C   0  0  0  0  0  0  0  0  0  0  0  0
   -7.0461    0.3657   -0.5494 O   0  0  0  0  0  0  0  0  0  0  0  0
   -5.6907    0.2799   -0.3812 C   0  0  0  0  0  0  0  0  0  0  0  0
   -5.0177    0.2553    0.8369 C   0  0  0  0  0  0  0  0  0  0  0  0
   -3.6207    0.1651    0.8693 C   0  0  0  0  0  0  0  0  0  0  0  0
   -2.8718    0.0963   -0.3093 C   0  0  0  0  0  0  0  0  0  0  0  0
   -1.4705    0.0086   -0.3346 N   0  0  0  0  0  0  0  0  0  0  0  0
   -0.4766   -0.0553    0.6303 C   0  0  0  0  0  0  0  0  0  0  0  0
    0.7702   -0.1462    0.1568 N   0  0  0  0  0  0  0  0  0  0  0  0
    1.7826   -0.2067    1.0424 C   0  0  0  0  0  0  0  0  0  0  0  0
    3.1016   -0.3826    0.5574 N   0  0  0  0  0  0  0  0  0  0  0  0
    3.2948   -0.0480   -0.8437 C   0  0  0  0  0  0  0  0  0  0  0  0
    4.7684   -0.1270   -1.1724 C   0  0  0  0  0  0  0  0  0  0  0  0
    5.4235   -1.3677   -1.1902 C   0  0  0  0  0  0  0  0  0  0  0  0
    6.7846   -1.4474   -1.4873 C   0  0  0  0  0  0  0  0  0  0  0  0
    7.5059   -0.2883   -1.7669 C   0  0  0  0  0  0  0  0  0  0  0  0
    6.8680    0.9509   -1.7468 C   0  0  0  0  0  0  0  0  0  0  0  0
    5.5063    1.0329   -1.4491 C   0  0  0  0  0  0  0  0  0  0  0  0
    1.5842   -0.1888    2.4211 C   0  0  0  0  0  0  0  0  0  0  0  0
    2.6070   -0.2346    3.3328 N   0  0  0  0  0  0  0  0  0  0  0  0
    2.2473   -0.2045    4.6283 C   0  0  0  0  0  0  0  0  0  0  0  0
    0.9266   -0.1179    5.0032 C   0  0  0  0  0  0  0  0  0  0  0  0
   -0.0784   -0.0571    4.1008 N   0  0  0  0  0  0  0  0  0  0  0  0
    0.2401   -0.0923    2.8000 C   0  0  0  0  0  0  0  0  0  0  0  0
   -0.7592   -0.0243    1.9310 N   0  0  0  0  0  0  0  0  0  0  0  0
   -3.5628    0.1231   -1.5434 C   0  0  0  0  0  0  0  0  0  0  0  0
   -2.7587    0.0541   -2.6607 O   0  0  0  0  0  0  0  0  0  0  0  0
   -3.4092    0.0595   -3.9254 C   0  0  0  0  0  0  0  0  0  0  0  0
   -4.9588    0.2140   -1.5696 C   0  0  0  0  0  0  0  0  0  0  0  0
   -8.8860    0.4906    0.3278 H   0  0  0  0  0  0  0  0  0  0  0  0
   -7.6053    1.3273    1.2135 H   0  0  0  0  0  0  0  0  0  0  0  0
   -7.7174   -0.4764    1.2355 H   0  0  0  0  0  0  0  0  0  0  0  0
   -5.5415    0.3047    1.7856 H   0  0  0  0  0  0  0  0  0  0  0  0
   -3.1360    0.1497    1.8411 H   0  0  0  0  0  0  0  0  0  0  0  0
   -1.0816   -0.0485   -1.2681 H   0  0  0  0  0  0  0  0  0  0  0  0
    3.7512    0.0982    1.1791 H   0  0  0  0  0  0  0  0  0  0  0  0
    2.7538   -0.7458   -1.4954 H   0  0  0  0  0  0  0  0  0  0  0  0
    2.9253    0.9632   -1.0580 H   0  0  0  0  0  0  0  0  0  0  0  0
    4.8692   -2.2764   -0.9624 H   0  0  0  0  0  0  0  0  0  0  0  0
    7.2815   -2.4139   -1.4967 H   0  0  0  0  0  0  0  0  0  0  0  0
    8.5661   -0.3508   -1.9975 H   0  0  0  0  0  0  0  0  0  0  0  0
    7.4322    1.8547   -1.9619 H   0  0  0  0  0  0  0  0  0  0  0  0
    5.0257    2.0085   -1.4350 H   0  0  0  0  0  0  0  0  0  0  0  0
    3.0497   -0.2516    5.3551 H   0  0  0  0  0  0  0  0  0  0  0  0
    0.6296   -0.0928    6.0456 H   0  0  0  0  0  0  0  0  0  0  0  0
   -3.9558    0.9948   -4.0842 H   0  0  0  0  0  0  0  0  0  0  0  0
   -4.0660   -0.8096   -4.0358 H   0  0  0  0  0  0  0  0  0  0  0  0
   -2.6368   -0.0084   -4.6976 H   0  0  0  0  0  0  0  0  0  0  0  0
   -5.5115    0.2364   -2.5025 H   0  0  0  0  0  0  0  0  0  0  0  0
  1  2  1  0
  2  3  1  0
  3  4  2  0
  4  5  1  0
  5  6  2  0
  6  7  1  0
  7  8  1  0
  8  9  2  0
  9 10  1  0
 10 11  1  0
 11 12  1  0
 12 13  1  0
 13 14  2  0
 14 15  1  0
 15 16  2  0
 16 17  1  0
 17 18  2  0
 10 19  2  0
 19 20  1  0
 20 21  2  0
 21 22  1  0
 22 23  2  0
 23 24  1  0
 24 25  2  0
  6 26  1  0
 26 27  1  0
 27 28  1  0
 26 29  2  0
 29  3  1  0
 25  8  1  0
 18 13  1  0
 24 19  1  0
  1 30  1  0
  1 31  1  0
  1 32  1  0
  4 33  1  0
  5 34  1  0
  7 35  1  0
 11 36  1  0
 12 37  1  0
 12 38  1  0
 14 39  1  0
 15 40  1  0
 16 41  1  0
 17 42  1  0
 18 43  1  0
 21 44  1  0
 22 45  1  0
 28 46  1  0
 28 47  1  0
 28 48  1  0
 29 49  1  0
M  END
>  <ScrubInfo>  (1) 
{"isomerGroup": 0, "isomerId": 0, "confId": 0, "nr_conformers:": 1, "nr_isomers:": 9}

$$$$
_i1
     RDKit          3D

 49 52  0  0  0  0  0  0  0  0999 V2000
    0.6376    0.2114    0.6151 N   0  0  0  0  0  0  0  0  0  0  0  0
    1.5343    0.0381   -0.4108 C   0  0  0  0  0  0  0  0  0  0  0  0
    2.8682   -0.1045   -0.0506 N   0  0  0  0  0  0  0  0  0  0  0  0
    4.0139   -0.0927   -0.9435 C   0  0  0  0  0  0  0  0  0  0  0  0
    5.2809   -0.1649   -0.1221 C   0  0  0  0  0  0  0  0  0  0  0  0
    5.6913   -1.3832    0.4399 C   0  0  0  0  0  0  0  0  0  0  0  0
    6.8484   -1.4509    1.2169 C   0  0  0  0  0  0  0  0  0  0  0  0
    7.6030   -0.3017    1.4453 C   0  0  0  0  0  0  0  0  0  0  0  0
    7.1998    0.9165    0.9010 C   0  0  0  0  0  0  0  0  0  0  0  0
    6.0423    0.9868    0.1238 C   0  0  0  0  0  0  0  0  0  0  0  0
    1.0503    0.0152   -1.6828 C   0  0  0  0  0  0  0  0  0  0  0  0
    1.8296   -0.1442   -2.8124 N   0  0  0  0  0  0  0  0  0  0  0  0
    1.1972   -0.1243   -3.9359 C   0  0  0  0  0  0  0  0  0  0  0  0
   -0.2758    0.0637   -4.0348 C   0  0  0  0  0  0  0  0  0  0  0  0
   -1.0332    0.2122   -3.0052 N   0  0  0  0  0  0  0  0  0  0  0  0
   -0.4596    0.1941   -1.7538 C   0  0  0  0  0  0  0  0  0  0  0  0
   -1.2793    0.3297   -0.7682 N   0  0  0  0  0  0  0  0  0  0  0  0
   -0.7158    0.2903    0.4772 C   0  0  0  0  0  0  0  0  0  0  0  0
   -1.4443    0.3305    1.5550 N   0  0  0  0  0  0  0  0  0  0  0  0
   -2.8447    0.3693    1.4316 C   0  0  0  0  0  0  0  0  0  0  0  0
   -3.5056    1.5881    1.6099 C   0  0  0  0  0  0  0  0  0  0  0  0
   -4.9011    1.6687    1.5332 C   0  0  0  0  0  0  0  0  0  0  0  0
   -5.6564    0.5200    1.2952 C   0  0  0  0  0  0  0  0  0  0  0  0
   -7.0209    0.4589    1.2103 O   0  0  0  0  0  0  0  0  0  0  0  0
   -7.7289    1.6814    1.3710 C   0  0  0  0  0  0  0  0  0  0  0  0
   -5.0061   -0.7057    1.1303 C   0  0  0  0  0  0  0  0  0  0  0  0
   -3.6101   -0.7812    1.1846 C   0  0  0  0  0  0  0  0  0  0  0  0
   -2.9670   -1.9903    1.0616 O   0  0  0  0  0  0  0  0  0  0  0  0
   -3.2184   -2.5866   -0.2091 C   0  0  0  0  0  0  0  0  0  0  0  0
    0.9652    0.0552    1.5555 H   0  0  0  0  0  0  0  0  0  0  0  0
    3.0727    0.2917    0.8614 H   0  0  0  0  0  0  0  0  0  0  0  0
    3.9899   -0.9515   -1.6243 H   0  0  0  0  0  0  0  0  0  0  0  0
    4.0218    0.8210   -1.5496 H   0  0  0  0  0  0  0  0  0  0  0  0
    5.1016   -2.2833    0.2768 H   0  0  0  0  0  0  0  0  0  0  0  0
    7.1583   -2.3997    1.6471 H   0  0  0  0  0  0  0  0  0  0  0  0
    8.5035   -0.3549    2.0516 H   0  0  0  0  0  0  0  0  0  0  0  0
    7.7862    1.8132    1.0845 H   0  0  0  0  0  0  0  0  0  0  0  0
    5.7368    1.9462   -0.2880 H   0  0  0  0  0  0  0  0  0  0  0  0
    1.7215   -0.2451   -4.8962 H   0  0  0  0  0  0  0  0  0  0  0  0
   -0.6820    0.0686   -5.0575 H   0  0  0  0  0  0  0  0  0  0  0  0
   -2.9223    2.4827    1.8087 H   0  0  0  0  0  0  0  0  0  0  0  0
   -5.3608    2.6407    1.6727 H   0  0  0  0  0  0  0  0  0  0  0  0
   -7.4620    2.3986    0.5878 H   0  0  0  0  0  0  0  0  0  0  0  0
   -8.7970    1.4644    1.2728 H   0  0  0  0  0  0  0  0  0  0  0  0
   -7.5658    2.1042    2.3679 H   0  0  0  0  0  0  0  0  0  0  0  0
   -5.5966   -1.6034    0.9764 H   0  0  0  0  0  0  0  0  0  0  0  0
   -4.1772   -3.1146   -0.2014 H   0  0  0  0  0  0  0  0  0  0  0  0
   -3.1922   -1.8554   -1.0252 H   0  0  0  0  0  0  0  0  0  0  0  0
   -2.4311   -3.3237   -0.3934 H   0  0  0  0  0  0  0  0  0  0  0  0
  1  2  1  0
  2  3  1  0
  3  4  1  0
  4  5  1  0
  5  6  2  0
  6  7  1  0
  7  8  2  0
  8  9  1  0
  9 10  2  0
  2 11  2  0
 11 12  1  0
 12 13  2  0
 13 14  1  0
 14 15  2  0
 15 16  1  0
 16 17  2  0
 17 18  1  0
 18 19  2  3
 19 20  1  0
 20 21  2  0
 21 22  1  0
 22 23  2  0
 23 24  1  0
 24 25  1  0
 23 26  1  0
 26 27  2  0
 27 28  1  0
 28 29  1  0
 18  1  1  0
 27 20  1  0
 10  5  1  0
 16 11  1  0
  1 30  1  0
  3 31  1  0
  4 32  1  0
  4 33  1  0
  6 34  1  0
  7 35  1  0
  8 36  1  0
  9 37  1  0
 10 38  1  0
 13 39  1  0
 14 40  1  0
 21 41  1  0
 22 42  1  0
 25 43  1  0
 25 44  1  0
 25 45  1  0
 26 46  1  0
 29 47  1  0
 29 48  1  0
 29 49  1  0
M  END
>  <ScrubInfo>  (2) 
{"isomerGroup": 0, "isomerId": 1, "confId": 0, "nr_conformers:": 1, "nr_isomers:": 9}

$$$$
_i2
     RDKit          3D

 49 52  0  0  0  0  0  0  0  0999 V2000
   -1.3906   -0.1707    0.9513 N   0  0  0  0  0  0  0  0  0  0  0  0
   -0.1717   -0.7406    0.6735 C   0  0  0  0  0  0  0  0  0  0  0  0
    0.7105    0.1660    0.1507 N   0  0  0  0  0  0  0  0  0  0  0  0
    2.0490   -0.0102   -0.2714 C   0  0  0  0  0  0  0  0  0  0  0  0
    2.6435   -1.2575   -0.4799 C   0  0  0  0  0  0  0  0  0  0  0  0
    3.9689   -1.3624   -0.9194 C   0  0  0  0  0  0  0  0  0  0  0  0
    4.7198   -0.2164   -1.1662 C   0  0  0  0  0  0  0  0  0  0  0  0
    6.0183   -0.1832   -1.5965 O   0  0  0  0  0  0  0  0  0  0  0  0
    6.6633   -1.4369   -1.7866 C   0  0  0  0  0  0  0  0  0  0  0  0
    4.1371    1.0394   -0.9759 C   0  0  0  0  0  0  0  0  0  0  0  0
    2.8139    1.1505   -0.5368 C   0  0  0  0  0  0  0  0  0  0  0  0
    2.1510    2.3404   -0.3200 O   0  0  0  0  0  0  0  0  0  0  0  0
    2.8751    3.5354   -0.5914 C   0  0  0  0  0  0  0  0  0  0  0  0
    0.0670   -1.9979    0.9025 N   0  0  0  0  0  0  0  0  0  0  0  0
   -0.9836   -2.7654    1.4403 C   0  0  0  0  0  0  0  0  0  0  0  0
   -0.6753   -4.0661    1.6612 N   0  0  0  0  0  0  0  0  0  0  0  0
   -1.6734   -4.8255    2.1740 C   0  0  0  0  0  0  0  0  0  0  0  0
   -2.9357   -4.3220    2.4595 C   0  0  0  0  0  0  0  0  0  0  0  0
   -3.2683   -3.0310    2.2477 N   0  0  0  0  0  0  0  0  0  0  0  0
   -2.2616   -2.2728    1.7334 C   0  0  0  0  0  0  0  0  0  0  0  0
   -2.4975   -0.8245    1.4497 C   0  0  0  0  0  0  0  0  0  0  0  0
   -3.6659   -0.3219    1.6725 N   0  0  0  0  0  0  0  0  0  0  0  0
   -3.9227    1.1017    1.4580 C   0  0  0  0  0  0  0  0  0  0  0  0
   -3.8653    1.5539    0.0165 C   0  0  0  0  0  0  0  0  0  0  0  0
   -3.3431    2.8154   -0.3056 C   0  0  0  0  0  0  0  0  0  0  0  0
   -3.2837    3.2388   -1.6344 C   0  0  0  0  0  0  0  0  0  0  0  0
   -3.7561    2.4122   -2.6520 C   0  0  0  0  0  0  0  0  0  0  0  0
   -4.2967    1.1660   -2.3421 C   0  0  0  0  0  0  0  0  0  0  0  0
   -4.3578    0.7417   -1.0144 C   0  0  0  0  0  0  0  0  0  0  0  0
   -1.5574    0.7422    0.5581 H   0  0  0  0  0  0  0  0  0  0  0  0
    0.5173    1.1539    0.2757 H   0  0  0  0  0  0  0  0  0  0  0  0
    2.0911   -2.1779   -0.3125 H   0  0  0  0  0  0  0  0  0  0  0  0
    4.3752   -2.3588   -1.0589 H   0  0  0  0  0  0  0  0  0  0  0  0
    6.1680   -2.0205   -2.5696 H   0  0  0  0  0  0  0  0  0  0  0  0
    7.6875   -1.2387   -2.1172 H   0  0  0  0  0  0  0  0  0  0  0  0
    6.7193   -1.9989   -0.8484 H   0  0  0  0  0  0  0  0  0  0  0  0
    4.7473    1.9125   -1.1801 H   0  0  0  0  0  0  0  0  0  0  0  0
    3.1633    3.5921   -1.6462 H   0  0  0  0  0  0  0  0  0  0  0  0
    2.2120    4.3806   -0.3828 H   0  0  0  0  0  0  0  0  0  0  0  0
    3.7460    3.6267    0.0658 H   0  0  0  0  0  0  0  0  0  0  0  0
   -1.4281   -5.8668    2.3522 H   0  0  0  0  0  0  0  0  0  0  0  0
   -3.7167   -4.9529    2.8696 H   0  0  0  0  0  0  0  0  0  0  0  0
   -3.2273    1.6892    2.0714 H   0  0  0  0  0  0  0  0  0  0  0  0
   -4.9266    1.3273    1.8372 H   0  0  0  0  0  0  0  0  0  0  0  0
   -2.9845    3.4804    0.4772 H   0  0  0  0  0  0  0  0  0  0  0  0
   -2.8772    4.2174   -1.8767 H   0  0  0  0  0  0  0  0  0  0  0  0
   -3.7132    2.7427   -3.6866 H   0  0  0  0  0  0  0  0  0  0  0  0
   -4.6759    0.5241   -3.1332 H   0  0  0  0  0  0  0  0  0  0  0  0
   -4.7888   -0.2311   -0.7820 H   0  0  0  0  0  0  0  0  0  0  0  0
  1  2  1  0
  2  3  1  0
  3  4  1  0
  4  5  2  0
  5  6  1  0
  6  7  2  0
  7  8  1  0
  8  9  1  0
  7 10  1  0
 10 11  2  0
 11 12  1  0
 12 13  1  0
  2 14  2  0
 14 15  1  0
 15 16  2  0
 16 17  1  0
 17 18  2  0
 18 19  1  0
 19 20  2  0
 20 21  1  0
 21 22  2  3
 22 23  1  0
 23 24  1  0
 24 25  2  0
 25 26  1  0
 26 27  2  0
 27 28  1  0
 28 29  2  0
 21  1  1  0
 29 24  1  0
 11  4  1  0
 20 15  1  0
  1 30  1  0
  3 31  1  0
  5 32  1  0
  6 33  1  0
  9 34  1  0
  9 35  1  0
  9 36  1  0
 10 37  1  0
 13 38  1  0
 13 39  1  0
 13 40  1  0
 17 41  1  0
 18 42  1  0
 23 43  1  0
 23 44  1  0
 25 45  1  0
 26 46  1  0
 27 47  1  0
 28 48  1  0
 29 49  1  0
M  END
>  <ScrubInfo>  (3) 
{"isomerGroup": 0, "isomerId": 2, "confId": 0, "nr_conformers:": 1, "nr_isomers:": 9}

$$$$
_i3
     RDKit          3D

 49 52  0  0  0  0  0  0  0  0999 V2000
    1.5735   -3.2900    0.1097 N   0  0  0  0  0  0  0  0  0  0  0  0
    1.6488   -1.9598   -0.1670 C   0  0  0  0  0  0  0  0  0  0  0  0
    2.8269   -1.4447   -0.3858 N   0  0  0  0  0  0  0  0  0  0  0  0
    2.9143   -0.0680   -0.6689 C   0  0  0  0  0  0  0  0  0  0  0  0
    2.8489    0.3372   -2.0078 C   0  0  0  0  0  0  0  0  0  0  0  0
    2.8845    1.6909   -2.3498 C   0  0  0  0  0  0  0  0  0  0  0  0
    2.9872    2.6678   -1.3600 C   0  0  0  0  0  0  0  0  0  0  0  0
    2.9939    3.9546   -1.8243 O   0  0  0  0  0  0  0  0  0  0  0  0
    3.0614    4.9866   -0.8480 C   0  0  0  0  0  0  0  0  0  0  0  0
    3.0778    2.2758   -0.0246 C   0  0  0  0  0  0  0  0  0  0  0  0
    3.0716    0.9162    0.3239 C   0  0  0  0  0  0  0  0  0  0  0  0
    3.1788    0.6847    1.6744 O   0  0  0  0  0  0  0  0  0  0  0  0
    4.0218   -0.4087    2.0234 C   0  0  0  0  0  0  0  0  0  0  0  0
    0.5244   -1.1673   -0.2221 N   0  0  0  0  0  0  0  0  0  0  0  0
   -0.6474   -1.6963   -0.0036 C   0  0  0  0  0  0  0  0  0  0  0  0
   -1.7891   -0.9234   -0.0338 N   0  0  0  0  0  0  0  0  0  0  0  0
   -1.8121    0.4141   -0.5788 C   0  0  0  0  0  0  0  0  0  0  0  0
   -3.2011    0.9878   -0.4380 C   0  0  0  0  0  0  0  0  0  0  0  0
   -4.0906    0.9853   -1.5220 C   0  0  0  0  0  0  0  0  0  0  0  0
   -5.3809    1.4984   -1.3790 C   0  0  0  0  0  0  0  0  0  0  0  0
   -5.7967    2.0113   -0.1513 C   0  0  0  0  0  0  0  0  0  0  0  0
   -4.9249    2.0092    0.9360 C   0  0  0  0  0  0  0  0  0  0  0  0
   -3.6344    1.4971    0.7951 C   0  0  0  0  0  0  0  0  0  0  0  0
   -0.8110   -3.1506    0.2855 C   0  0  0  0  0  0  0  0  0  0  0  0
   -2.0665   -3.6457    0.4656 N   0  0  0  0  0  0  0  0  0  0  0  0
   -2.0936   -4.9728    0.7160 C   0  0  0  0  0  0  0  0  0  0  0  0
   -0.9401   -5.7467    0.7727 C   0  0  0  0  0  0  0  0  0  0  0  0
    0.3035   -5.2356    0.5803 N   0  0  0  0  0  0  0  0  0  0  0  0
    0.3567   -3.9066    0.3307 C   0  0  0  0  0  0  0  0  0  0  0  0
    2.4099   -3.8454    0.1337 H   0  0  0  0  0  0  0  0  0  0  0  0
    2.7475   -0.4117   -2.7879 H   0  0  0  0  0  0  0  0  0  0  0  0
    2.8193    1.9835   -3.3944 H   0  0  0  0  0  0  0  0  0  0  0  0
    2.1962    4.9543   -0.1776 H   0  0  0  0  0  0  0  0  0  0  0  0
    4.0003    4.9374   -0.2866 H   0  0  0  0  0  0  0  0  0  0  0  0
    3.0388    5.9459   -1.3741 H   0  0  0  0  0  0  0  0  0  0  0  0
    3.1676    3.0004    0.7772 H   0  0  0  0  0  0  0  0  0  0  0  0
    4.4446   -0.1953    3.0103 H   0  0  0  0  0  0  0  0  0  0  0  0
    3.4368   -1.3279    2.1142 H   0  0  0  0  0  0  0  0  0  0  0  0
    4.8604   -0.5374    1.3298 H   0  0  0  0  0  0  0  0  0  0  0  0
   -2.6722   -1.4293   -0.0360 H   0  0  0  0  0  0  0  0  0  0  0  0
   -1.0978    1.0612   -0.0552 H   0  0  0  0  0  0  0  0  0  0  0  0
   -1.5179    0.3979   -1.6350 H   0  0  0  0  0  0  0  0  0  0  0  0
   -3.7820    0.5838   -2.4848 H   0  0  0  0  0  0  0  0  0  0  0  0
   -6.0626    1.4972   -2.2255 H   0  0  0  0  0  0  0  0  0  0  0  0
   -6.8015    2.4105   -0.0410 H   0  0  0  0  0  0  0  0  0  0  0  0
   -5.2498    2.4041    1.8951 H   0  0  0  0  0  0  0  0  0  0  0  0
   -2.9632    1.4909    1.6520 H   0  0  0  0  0  0  0  0  0  0  0  0
   -3.0742   -5.4095    0.8726 H   0  0  0  0  0  0  0  0  0  0  0  0
   -0.9861   -6.8116    0.9757 H   0  0  0  0  0  0  0  0  0  0  0  0
  1  2  1  0
  2  3  2  3
  3  4  1  0
  4  5  2  0
  5  6  1  0
  6  7  2  0
  7  8  1  0
  8  9  1  0
  7 10  1  0
 10 11  2  0
 11 12  1  0
 12 13  1  0
  2 14  1  0
 14 15  2  0
 15 16  1  0
 16 17  1  0
 17 18  1  0
 18 19  2  0
 19 20  1  0
 20 21  2  0
 21 22  1  0
 22 23  2  0
 15 24  1  0
 24 25  2  0
 25 26  1  0
 26 27  2  0
 27 28  1  0
 28 29  2  0
 29  1  1  0
 11  4  1  0
 23 18  1  0
 29 24  1  0
  1 30  1  0
  5 31  1  0
  6 32  1  0
  9 33  1  0
  9 34  1  0
  9 35  1  0
 10 36  1  0
 13 37  1  0
 13 38  1  0
 13 39  1  0
 16 40  1  0
 17 41  1  0
 17 42  1  0
 19 43  1  0
 20 44  1  0
 21 45  1  0
 22 46  1  0
 23 47  1  0
 26 48  1  0
 27 49  1  0
M  END
>  <ScrubInfo>  (4) 
{"isomerGroup": 0, "isomerId": 3, "confId": 0, "nr_conformers:": 1, "nr_isomers:": 9}

$$$$
_i4
     RDKit          3D

 49 52  0  0  0  0  0  0  0  0999 V2000
   -0.2226   -3.1075   -1.5670 N   0  0  0  0  0  0  0  0  0  0  0  0
   -1.4194   -3.6934   -1.8771 C   0  0  0  0  0  0  0  0  0  0  0  0
   -2.5820   -3.1108   -1.5385 C   0  0  0  0  0  0  0  0  0  0  0  0
   -2.6742   -1.9034   -0.8708 N   0  0  0  0  0  0  0  0  0  0  0  0
   -1.5421   -1.3124   -0.5764 C   0  0  0  0  0  0  0  0  0  0  0  0
   -1.5500    0.0043    0.1501 C   0  0  0  0  0  0  0  0  0  0  0  0
   -2.7683    0.5593    0.4669 N   0  0  0  0  0  0  0  0  0  0  0  0
   -2.9105    1.6035    1.4530 C   0  0  0  0  0  0  0  0  0  0  0  0
   -4.3637    1.9942    1.5621 C   0  0  0  0  0  0  0  0  0  0  0  0
   -4.9450    2.8343    0.6007 C   0  0  0  0  0  0  0  0  0  0  0  0
   -6.2941    3.1810    0.6856 C   0  0  0  0  0  0  0  0  0  0  0  0
   -7.0768    2.6867    1.7273 C   0  0  0  0  0  0  0  0  0  0  0  0
   -6.5131    1.8429    2.6828 C   0  0  0  0  0  0  0  0  0  0  0  0
   -5.1638    1.4945    2.5997 C   0  0  0  0  0  0  0  0  0  0  0  0
   -0.4144    0.5463    0.4463 N   0  0  0  0  0  0  0  0  0  0  0  0
    0.7536   -0.0670    0.0685 C   0  0  0  0  0  0  0  0  0  0  0  0
    1.8140    0.6109    0.3786 N   0  0  0  0  0  0  0  0  0  0  0  0
    3.0764    0.1070    0.0213 C   0  0  0  0  0  0  0  0  0  0  0  0
    3.8086   -0.5933    0.9879 C   0  0  0  0  0  0  0  0  0  0  0  0
    5.0571   -1.1501    0.6881 C   0  0  0  0  0  0  0  0  0  0  0  0
    5.5932   -1.0109   -0.5908 C   0  0  0  0  0  0  0  0  0  0  0  0
    6.7905   -1.5144   -1.0198 O   0  0  0  0  0  0  0  0  0  0  0  0
    7.5682   -2.2252   -0.0651 C   0  0  0  0  0  0  0  0  0  0  0  0
    4.8791   -0.2963   -1.5556 C   0  0  0  0  0  0  0  0  0  0  0  0
    3.6444    0.2877   -1.2513 C   0  0  0  0  0  0  0  0  0  0  0  0
    3.0543    0.9678   -2.2884 O   0  0  0  0  0  0  0  0  0  0  0  0
    2.5559    2.2526   -1.9200 C   0  0  0  0  0  0  0  0  0  0  0  0
    0.8777   -1.2756   -0.5723 N   0  0  0  0  0  0  0  0  0  0  0  0
   -0.1945   -1.9030   -0.9120 C   0  0  0  0  0  0  0  0  0  0  0  0
    0.6491   -3.5405   -1.8434 H   0  0  0  0  0  0  0  0  0  0  0  0
   -1.3650   -4.6395   -2.4045 H   0  0  0  0  0  0  0  0  0  0  0  0
   -3.5266   -3.5864   -1.7913 H   0  0  0  0  0  0  0  0  0  0  0  0
   -3.5717   -0.0546    0.3421 H   0  0  0  0  0  0  0  0  0  0  0  0
   -2.3172    2.4835    1.1765 H   0  0  0  0  0  0  0  0  0  0  0  0
   -2.5404    1.2586    2.4260 H   0  0  0  0  0  0  0  0  0  0  0  0
   -4.3452    3.2180   -0.2225 H   0  0  0  0  0  0  0  0  0  0  0  0
   -6.7346    3.8343   -0.0631 H   0  0  0  0  0  0  0  0  0  0  0  0
   -8.1276    2.9568    1.7926 H   0  0  0  0  0  0  0  0  0  0  0  0
   -7.1257    1.4546    3.4925 H   0  0  0  0  0  0  0  0  0  0  0  0
   -4.7408    0.8305    3.3504 H   0  0  0  0  0  0  0  0  0  0  0  0
    3.3901   -0.7155    1.9835 H   0  0  0  0  0  0  0  0  0  0  0  0
    5.5749   -1.6891    1.4737 H   0  0  0  0  0  0  0  0  0  0  0  0
    7.0438   -3.1215    0.2823 H   0  0  0  0  0  0  0  0  0  0  0  0
    8.4894   -2.5494   -0.5589 H   0  0  0  0  0  0  0  0  0  0  0  0
    7.8497   -1.5807    0.7743 H   0  0  0  0  0  0  0  0  0  0  0  0
    5.2939   -0.1778   -2.5532 H   0  0  0  0  0  0  0  0  0  0  0  0
    3.1280    2.7166   -1.1083 H   0  0  0  0  0  0  0  0  0  0  0  0
    1.4943    2.1897   -1.6661 H   0  0  0  0  0  0  0  0  0  0  0  0
    2.6432    2.9026   -2.7965 H   0  0  0  0  0  0  0  0  0  0  0  0
  1  2  1  0
  2  3  2  0
  3  4  1  0
  4  5  2  0
  5  6  1  0
  6  7  1  0
  7  8  1  0
  8  9  1  0
  9 10  2  0
 10 11  1  0
 11 12  2  0
 12 13  1  0
 13 14  2  0
  6 15  2  0
 15 16  1  0
 16 17  2  3
 17 18  1  0
 18 19  2  0
 19 20  1  0
 20 21  2  0
 21 22  1  0
 22 23  1  0
 21 24  1  0
 24 25  2  0
 25 26  1  0
 26 27  1  0
 16 28  1  0
 28 29  2  0
 29  1  1  0
 29  5  1  0
 14  9  1  0
 25 18  1  0
  1 30  1  0
  2 31  1  0
  3 32  1  0
  7 33  1  0
  8 34  1  0
  8 35  1  0
 10 36  1  0
 11 37  1  0
 12 38  1  0
 13 39  1  0
 14 40  1  0
 19 41  1  0
 20 42  1  0
 23 43  1  0
 23 44  1  0
 23 45  1  0
 24 46  1  0
 27 47  1  0
 27 48  1  0
 27 49  1  0
M  END
>  <ScrubInfo>  (5) 
{"isomerGroup": 0, "isomerId": 4, "confId": 0, "nr_conformers:": 1, "nr_isomers:": 9}

$$$$
_i5
     RDKit          3D

 49 52  0  0  0  0  0  0  0  0999 V2000
    0.2463   -3.0043   -1.3321 N   0  0  0  0  0  0  0  0  0  0  0  0
    0.4203   -1.7297   -0.8791 C   0  0  0  0  0  0  0  0  0  0  0  0
    1.7493   -1.3991   -0.8298 N   0  0  0  0  0  0  0  0  0  0  0  0
    2.3471   -0.1746   -0.4458 C   0  0  0  0  0  0  0  0  0  0  0  0
    1.6872    1.0546   -0.5005 C   0  0  0  0  0  0  0  0  0  0  0  0
    2.3423    2.2313   -0.1297 C   0  0  0  0  0  0  0  0  0  0  0  0
    3.6710    2.2065    0.2929 C   0  0  0  0  0  0  0  0  0  0  0  0
    4.1834    3.4309    0.6241 O   0  0  0  0  0  0  0  0  0  0  0  0
    5.5234    3.4693    1.0969 C   0  0  0  0  0  0  0  0  0  0  0  0
    4.3534    0.9896    0.3369 C   0  0  0  0  0  0  0  0  0  0  0  0
    3.7017   -0.1950   -0.0337 C   0  0  0  0  0  0  0  0  0  0  0  0
    4.2795   -1.4478   -0.0320 O   0  0  0  0  0  0  0  0  0  0  0  0
    5.6329   -1.5366    0.3978 C   0  0  0  0  0  0  0  0  0  0  0  0
   -0.5572   -0.9471   -0.5361 N   0  0  0  0  0  0  0  0  0  0  0  0
   -1.8618   -1.3991   -0.6147 C   0  0  0  0  0  0  0  0  0  0  0  0
   -2.8358   -0.6451   -0.2260 N   0  0  0  0  0  0  0  0  0  0  0  0
   -2.4851    0.6764    0.2999 C   0  0  0  0  0  0  0  0  0  0  0  0
   -3.6922    1.4822    0.7381 C   0  0  0  0  0  0  0  0  0  0  0  0
   -4.9048    0.8713    1.0869 C   0  0  0  0  0  0  0  0  0  0  0  0
   -5.9897    1.6359    1.5213 C   0  0  0  0  0  0  0  0  0  0  0  0
   -5.8724    3.0206    1.6225 C   0  0  0  0  0  0  0  0  0  0  0  0
   -4.6695    3.6413    1.2923 C   0  0  0  0  0  0  0  0  0  0  0  0
   -3.5848    2.8768    0.8573 C   0  0  0  0  0  0  0  0  0  0  0  0
   -2.1404   -2.7599   -1.1539 C   0  0  0  0  0  0  0  0  0  0  0  0
   -3.4227   -3.1989   -1.2862 N   0  0  0  0  0  0  0  0  0  0  0  0
   -3.5430   -4.4382   -1.8055 C   0  0  0  0  0  0  0  0  0  0  0  0
   -2.4426   -5.1985   -2.1733 C   0  0  0  0  0  0  0  0  0  0  0  0
   -1.1662   -4.7586   -2.0374 N   0  0  0  0  0  0  0  0  0  0  0  0
   -1.0297   -3.5155   -1.5153 C   0  0  0  0  0  0  0  0  0  0  0  0
    0.9934   -3.5714   -1.6963 H   0  0  0  0  0  0  0  0  0  0  0  0
    2.4058   -2.1601   -0.6901 H   0  0  0  0  0  0  0  0  0  0  0  0
    0.6598    1.1248   -0.8441 H   0  0  0  0  0  0  0  0  0  0  0  0
    1.8075    3.1773   -0.1760 H   0  0  0  0  0  0  0  0  0  0  0  0
    6.2231    3.1318    0.3252 H   0  0  0  0  0  0  0  0  0  0  0  0
    5.7652    4.5100    1.3331 H   0  0  0  0  0  0  0  0  0  0  0  0
    5.6353    2.8845    2.0159 H   0  0  0  0  0  0  0  0  0  0  0  0
    5.3865    0.9651    0.6551 H   0  0  0  0  0  0  0  0  0  0  0  0
    5.9298   -2.5886    0.3479 H   0  0  0  0  0  0  0  0  0  0  0  0
    5.7393   -1.2104    1.4376 H   0  0  0  0  0  0  0  0  0  0  0  0
    6.2954   -0.9726   -0.2668 H   0  0  0  0  0  0  0  0  0  0  0  0
   -1.9635    1.2499   -0.4771 H   0  0  0  0  0  0  0  0  0  0  0  0
   -1.8281    0.5771    1.1735 H   0  0  0  0  0  0  0  0  0  0  0  0
   -5.0090   -0.2096    1.0145 H   0  0  0  0  0  0  0  0  0  0  0  0
   -6.9245    1.1467    1.7800 H   0  0  0  0  0  0  0  0  0  0  0  0
   -6.7170    3.6142    1.9603 H   0  0  0  0  0  0  0  0  0  0  0  0
   -4.5740    4.7204    1.3746 H   0  0  0  0  0  0  0  0  0  0  0  0
   -2.6500    3.3741    0.6092 H   0  0  0  0  0  0  0  0  0  0  0  0
   -4.5554   -4.8091   -1.9218 H   0  0  0  0  0  0  0  0  0  0  0  0
   -2.5596   -6.1930   -2.5907 H   0  0  0  0  0  0  0  0  0  0  0  0
  1  2  1  0
  2  3  1  0
  3  4  1  0
  4  5  2  0
  5  6  1  0
  6  7  2  0
  7  8  1  0
  8  9  1  0
  7 10  1  0
 10 11  2  0
 11 12  1  0
 12 13  1  0
  2 14  2  0
 14 15  1  0
 15 16  2  3
 16 17  1  0
 17 18  1  0
 18 19  2  0
 19 20  1  0
 20 21  2  0
 21 22  1  0
 22 23  2  0
 15 24  1  0
 24 25  2  0
 25 26  1  0
 26 27  2  0
 27 28  1  0
 28 29  2  0
 29  1  1  0
 11  4  1  0
 23 18  1  0
 29 24  1  0
  1 30  1  0
  3 31  1  0
  5 32  1  0
  6 33  1  0
  9 34  1  0
  9 35  1  0
  9 36  1  0
 10 37  1  0
 13 38  1  0
 13 39  1  0
 13 40  1  0
 17 41  1  0
 17 42  1  0
 19 43  1  0
 20 44  1  0
 21 45  1  0
 22 46  1  0
 23 47  1  0
 26 48  1  0
 27 49  1  0
M  END
>  <ScrubInfo>  (6) 
{"isomerGroup": 0, "isomerId": 5, "confId": 0, "nr_conformers:": 1, "nr_isomers:": 9}

$$$$
_i6
     RDKit          3D

 49 52  0  0  0  0  0  0  0  0999 V2000
   -0.5427    0.6801   -3.1330 N   0  0  0  0  0  0  0  0  0  0  0  0
   -1.4846    0.4992   -4.1114 C   0  0  0  0  0  0  0  0  0  0  0  0
   -2.5903   -0.2277   -3.8800 C   0  0  0  0  0  0  0  0  0  0  0  0
   -2.8874   -0.8096   -2.6626 N   0  0  0  0  0  0  0  0  0  0  0  0
   -2.0052   -0.6588   -1.7072 C   0  0  0  0  0  0  0  0  0  0  0  0
   -2.1629   -1.1604   -0.3048 C   0  0  0  0  0  0  0  0  0  0  0  0
   -3.2648   -1.3405    0.3348 N   0  0  0  0  0  0  0  0  0  0  0  0
   -4.5546   -0.9970   -0.2514 C   0  0  0  0  0  0  0  0  0  0  0  0
   -4.8127    0.4921   -0.3172 C   0  0  0  0  0  0  0  0  0  0  0  0
   -4.5140    1.3184    0.7762 C   0  0  0  0  0  0  0  0  0  0  0  0
   -4.7675    2.6897    0.7211 C   0  0  0  0  0  0  0  0  0  0  0  0
   -5.3309    3.2488   -0.4241 C   0  0  0  0  0  0  0  0  0  0  0  0
   -5.6439    2.4369   -1.5127 C   0  0  0  0  0  0  0  0  0  0  0  0
   -5.3907    1.0651   -1.4579 C   0  0  0  0  0  0  0  0  0  0  0  0
   -1.0318   -1.4166    0.4203 N   0  0  0  0  0  0  0  0  0  0  0  0
    0.1049   -0.8938    0.0517 C   0  0  0  0  0  0  0  0  0  0  0  0
    1.1574   -1.1947    0.8648 N   0  0  0  0  0  0  0  0  0  0  0  0
    2.5122   -0.8159    0.8808 C   0  0  0  0  0  0  0  0  0  0  0  0
    3.0904    0.0786   -0.0235 C   0  0  0  0  0  0  0  0  0  0  0  0
    4.4521    0.4022    0.0436 C   0  0  0  0  0  0  0  0  0  0  0  0
    5.2625   -0.1689    1.0202 C   0  0  0  0  0  0  0  0  0  0  0  0
    6.5999    0.0621    1.1920 O   0  0  0  0  0  0  0  0  0  0  0  0
    7.2161    0.9771    0.2943 C   0  0  0  0  0  0  0  0  0  0  0  0
    4.7042   -1.0668    1.9325 C   0  0  0  0  0  0  0  0  0  0  0  0
    3.3451   -1.3923    1.8704 C   0  0  0  0  0  0  0  0  0  0  0  0
    2.7071   -2.2640    2.7262 O   0  0  0  0  0  0  0  0  0  0  0  0
    3.4976   -2.8714    3.7408 C   0  0  0  0  0  0  0  0  0  0  0  0
    0.2694   -0.1119   -1.0663 N   0  0  0  0  0  0  0  0  0  0  0  0
   -0.6722    0.0077   -1.9424 C   0  0  0  0  0  0  0  0  0  0  0  0
    0.3629    1.0552   -3.3818 H   0  0  0  0  0  0  0  0  0  0  0  0
   -1.2709    0.9579   -5.0706 H   0  0  0  0  0  0  0  0  0  0  0  0
   -3.3264   -0.3725   -4.6667 H   0  0  0  0  0  0  0  0  0  0  0  0
   -5.3328   -1.4233    0.3949 H   0  0  0  0  0  0  0  0  0  0  0  0
   -4.7035   -1.4895   -1.2177 H   0  0  0  0  0  0  0  0  0  0  0  0
   -4.0786    0.8890    1.6770 H   0  0  0  0  0  0  0  0  0  0  0  0
   -4.5277    3.3187    1.5741 H   0  0  0  0  0  0  0  0  0  0  0  0
   -5.5301    4.3161   -0.4660 H   0  0  0  0  0  0  0  0  0  0  0  0
   -6.0873    2.8706   -2.4048 H   0  0  0  0  0  0  0  0  0  0  0  0
   -5.6379    0.4429   -2.3152 H   0  0  0  0  0  0  0  0  0  0  0  0
    0.9136   -1.7999    1.6430 H   0  0  0  0  0  0  0  0  0  0  0  0
    2.4988    0.5544   -0.7973 H   0  0  0  0  0  0  0  0  0  0  0  0
    4.8411    1.1059   -0.6847 H   0  0  0  0  0  0  0  0  0  0  0  0
    8.2733    1.0518    0.5666 H   0  0  0  0  0  0  0  0  0  0  0  0
    7.1628    0.6139   -0.7374 H   0  0  0  0  0  0  0  0  0  0  0  0
    6.7772    1.9761    0.3859 H   0  0  0  0  0  0  0  0  0  0  0  0
    5.3598   -1.4959    2.6826 H   0  0  0  0  0  0  0  0  0  0  0  0
    2.8443   -3.5268    4.3246 H   0  0  0  0  0  0  0  0  0  0  0  0
    4.2884   -3.4919    3.3066 H   0  0  0  0  0  0  0  0  0  0  0  0
    3.9098   -2.1204    4.4226 H   0  0  0  0  0  0  0  0  0  0  0  0
  1  2  1  0
  2  3  2  0
  3  4  1  0
  4  5  2  0
  5  6  1  0
  6  7  2  3
  7  8  1  0
  8  9  1  0
  9 10  2  0
 10 11  1  0
 11 12  2  0
 12 13  1  0
 13 14  2  0
  6 15  1  0
 15 16  2  0
 16 17  1  0
 17 18  1  0
 18 19  2  0
 19 20  1  0
 20 21  2  0
 21 22  1  0
 22 23  1  0
 21 24  1  0
 24 25  2  0
 25 26  1  0
 26 27  1  0
 16 28  1  0
 28 29  2  0
 29  1  1  0
 29  5  1  0
 14  9  1  0
 25 18  1  0
  1 30  1  0
  2 31  1  0
  3 32  1  0
  8 33  1  0
  8 34  1  0
 10 35  1  0
 11 36  1  0
 12 37  1  0
 13 38  1  0
 14 39  1  0
 17 40  1  0
 19 41  1  0
 20 42  1  0
 23 43  1  0
 23 44  1  0
 23 45  1  0
 24 46  1  0
 27 47  1  0
 27 48  1  0
 27 49  1  0
M  END
>  <ScrubInfo>  (7) 
{"isomerGroup": 0, "isomerId": 6, "confId": 0, "nr_conformers:": 1, "nr_isomers:": 9}

$$$$
_i7
     RDKit          3D

 49 52  0  0  0  0  0  0  0  0999 V2000
    0.9909    0.4583   -0.8007 N   0  0  0  0  0  0  0  0  0  0  0  0
    0.6887    0.0124    0.4573 C   0  0  0  0  0  0  0  0  0  0  0  0
    1.5125   -0.3669    1.3886 N   0  0  0  0  0  0  0  0  0  0  0  0
    2.8971   -0.3635    1.1354 C   0  0  0  0  0  0  0  0  0  0  0  0
    3.6816    0.5700    1.8200 C   0  0  0  0  0  0  0  0  0  0  0  0
    5.0662    0.6178    1.6391 C   0  0  0  0  0  0  0  0  0  0  0  0
    5.6836   -0.2792    0.7707 C   0  0  0  0  0  0  0  0  0  0  0  0
    7.0229   -0.3374    0.4958 O   0  0  0  0  0  0  0  0  0  0  0  0
    7.8625    0.5804    1.1860 C   0  0  0  0  0  0  0  0  0  0  0  0
    4.9089   -1.2267    0.0909 C   0  0  0  0  0  0  0  0  0  0  0  0
    3.5225   -1.2869    0.2733 C   0  0  0  0  0  0  0  0  0  0  0  0
    2.6958   -2.1760   -0.3685 O   0  0  0  0  0  0  0  0  0  0  0  0
    3.3112   -3.2939   -0.9947 C   0  0  0  0  0  0  0  0  0  0  0  0
   -0.6536    0.0010    0.7188 N   0  0  0  0  0  0  0  0  0  0  0  0
   -1.7156    0.3437   -0.0839 C   0  0  0  0  0  0  0  0  0  0  0  0
   -2.8989    0.2341    0.4354 N   0  0  0  0  0  0  0  0  0  0  0  0
   -4.0990    0.5728   -0.3242 C   0  0  0  0  0  0  0  0  0  0  0  0
   -5.3557    0.3562    0.4947 C   0  0  0  0  0  0  0  0  0  0  0  0
   -6.3815    1.3124    0.4918 C   0  0  0  0  0  0  0  0  0  0  0  0
   -7.5551    1.0974    1.2177 C   0  0  0  0  0  0  0  0  0  0  0  0
   -7.7198   -0.0785    1.9474 C   0  0  0  0  0  0  0  0  0  0  0  0
   -6.7127   -1.0413    1.9507 C   0  0  0  0  0  0  0  0  0  0  0  0
   -5.5395   -0.8271    1.2251 C   0  0  0  0  0  0  0  0  0  0  0  0
   -1.3362    0.7980   -1.4631 C   0  0  0  0  0  0  0  0  0  0  0  0
   -2.2912    1.1521   -2.3620 N   0  0  0  0  0  0  0  0  0  0  0  0
   -1.8222    1.5316   -3.5700 C   0  0  0  0  0  0  0  0  0  0  0  0
   -0.4693    1.5583   -3.8678 C   0  0  0  0  0  0  0  0  0  0  0  0
    0.4843    1.2073   -2.9720 N   0  0  0  0  0  0  0  0  0  0  0  0
    0.0390    0.8205   -1.7507 C   0  0  0  0  0  0  0  0  0  0  0  0
    1.9450    0.4729   -1.1255 H   0  0  0  0  0  0  0  0  0  0  0  0
    3.2025    1.2647    2.5057 H   0  0  0  0  0  0  0  0  0  0  0  0
    5.6266    1.3636    2.1925 H   0  0  0  0  0  0  0  0  0  0  0  0
    8.8928    0.3950    0.8675 H   0  0  0  0  0  0  0  0  0  0  0  0
    7.6142    1.6144    0.9252 H   0  0  0  0  0  0  0  0  0  0  0  0
    7.8149    0.4222    2.2685 H   0  0  0  0  0  0  0  0  0  0  0  0
    5.4214   -1.9057   -0.5828 H   0  0  0  0  0  0  0  0  0  0  0  0
    2.5172   -3.9736   -1.3188 H   0  0  0  0  0  0  0  0  0  0  0  0
    3.8667   -2.9843   -1.8857 H   0  0  0  0  0  0  0  0  0  0  0  0
    3.9539   -3.8412   -0.2970 H   0  0  0  0  0  0  0  0  0  0  0  0
   -0.9046   -0.3210    1.6447 H   0  0  0  0  0  0  0  0  0  0  0  0
   -4.1896   -0.0580   -1.2163 H   0  0  0  0  0  0  0  0  0  0  0  0
   -4.0600    1.6265   -0.6238 H   0  0  0  0  0  0  0  0  0  0  0  0
   -6.2701    2.2336   -0.0750 H   0  0  0  0  0  0  0  0  0  0  0  0
   -8.3405    1.8482    1.2131 H   0  0  0  0  0  0  0  0  0  0  0  0
   -8.6322   -0.2446    2.5133 H   0  0  0  0  0  0  0  0  0  0  0  0
   -6.8375   -1.9593    2.5181 H   0  0  0  0  0  0  0  0  0  0  0  0
   -4.7576   -1.5835    1.2331 H   0  0  0  0  0  0  0  0  0  0  0  0
   -2.5688    1.8170   -4.3032 H   0  0  0  0  0  0  0  0  0  0  0  0
   -0.1117    1.8660   -4.8446 H   0  0  0  0  0  0  0  0  0  0  0  0
  1  2  1  0
  2  3  2  3
  3  4  1  0
  4  5  2  0
  5  6  1  0
  6  7  2  0
  7  8  1  0
  8  9  1  0
  7 10  1  0
 10 11  2  0
 11 12  1  0
 12 13  1  0
  2 14  1  0
 14 15  1  0
 15 16  2  3
 16 17  1  0
 17 18  1  0
 18 19  2  0
 19 20  1  0
 20 21  2  0
 21 22  1  0
 22 23  2  0
 15 24  1  0
 24 25  2  0
 25 26  1  0
 26 27  2  0
 27 28  1  0
 28 29  2  0
 29  1  1  0
 11  4  1  0
 23 18  1  0
 29 24  1  0
  1 30  1  0
  5 31  1  0
  6 32  1  0
  9 33  1  0
  9 34  1  0
  9 35  1  0
 10 36  1  0
 13 37  1  0
 13 38  1  0
 13 39  1  0
 14 40  1  0
 17 41  1  0
 17 42  1  0
 19 43  1  0
 20 44  1  0
 21 45  1  0
 22 46  1  0
 23 47  1  0
 26 48  1  0
 27 49  1  0
M  END
>  <ScrubInfo>  (8) 
{"isomerGroup": 0, "isomerId": 7, "confId": 0, "nr_conformers:": 1, "nr_isomers:": 9}

$$$$
_i8
     RDKit          3D

 49 52  0  0  0  0  0  0  0  0999 V2000
   -0.2048   -0.2534   -2.6296 N   0  0  0  0  0  0  0  0  0  0  0  0
   -1.1846   -0.7000   -3.4700 C   0  0  0  0  0  0  0  0  0  0  0  0
   -2.3101   -1.2477   -2.9874 C   0  0  0  0  0  0  0  0  0  0  0  0
   -2.5837   -1.3921   -1.6432 N   0  0  0  0  0  0  0  0  0  0  0  0
   -1.6804   -0.9820   -0.7901 C   0  0  0  0  0  0  0  0  0  0  0  0
   -1.8736   -1.0697    0.7135 C   0  0  0  0  0  0  0  0  0  0  0  0
   -2.9537   -1.3219    1.3745 N   0  0  0  0  0  0  0  0  0  0  0  0
   -4.2451   -1.5189    0.7247 C   0  0  0  0  0  0  0  0  0  0  0  0
   -4.9284   -0.2238    0.3492 C   0  0  0  0  0  0  0  0  0  0  0  0
   -5.0077    0.8341    1.2671 C   0  0  0  0  0  0  0  0  0  0  0  0
   -5.6580    2.0222    0.9295 C   0  0  0  0  0  0  0  0  0  0  0  0
   -6.2433    2.1633   -0.3270 C   0  0  0  0  0  0  0  0  0  0  0  0
   -6.1811    1.1162   -1.2445 C   0  0  0  0  0  0  0  0  0  0  0  0
   -5.5313   -0.0725   -0.9066 C   0  0  0  0  0  0  0  0  0  0  0  0
   -0.7163   -0.8228    1.3864 N   0  0  0  0  0  0  0  0  0  0  0  0
    0.4803   -0.4125    0.8886 C   0  0  0  0  0  0  0  0  0  0  0  0
    1.4597   -0.2274    1.7257 N   0  0  0  0  0  0  0  0  0  0  0  0
    2.7211    0.1479    1.2248 C   0  0  0  0  0  0  0  0  0  0  0  0
    3.1016    1.4912    1.3119 C   0  0  0  0  0  0  0  0  0  0  0  0
    4.3517    1.9137    0.8531 C   0  0  0  0  0  0  0  0  0  0  0  0
    5.2402    0.9881    0.3099 C   0  0  0  0  0  0  0  0  0  0  0  0
    6.4891    1.2658   -0.1776 O   0  0  0  0  0  0  0  0  0  0  0  0
    6.9241    2.6176   -0.0988 C   0  0  0  0  0  0  0  0  0  0  0  0
    4.8734   -0.3615    0.2340 C   0  0  0  0  0  0  0  0  0  0  0  0
    3.6244   -0.7950    0.6941 C   0  0  0  0  0  0  0  0  0  0  0  0
    3.1905   -2.0989    0.6672 O   0  0  0  0  0  0  0  0  0  0  0  0
    4.1058   -3.0806    0.2036 C   0  0  0  0  0  0  0  0  0  0  0  0
    0.6516   -0.1734   -0.4537 N   0  0  0  0  0  0  0  0  0  0  0  0
   -0.3224   -0.4287   -1.2731 C   0  0  0  0  0  0  0  0  0  0  0  0
    0.6910    0.0333   -3.0021 H   0  0  0  0  0  0  0  0  0  0  0  0
   -0.9893   -0.5930   -4.5313 H   0  0  0  0  0  0  0  0  0  0  0  0
   -3.0802   -1.6029   -3.6675 H   0  0  0  0  0  0  0  0  0  0  0  0
   -4.9002   -2.0219    1.4482 H   0  0  0  0  0  0  0  0  0  0  0  0
   -4.1847   -2.2222   -0.1112 H   0  0  0  0  0  0  0  0  0  0  0  0
   -4.5582    0.7307    2.2526 H   0  0  0  0  0  0  0  0  0  0  0  0
   -5.7090    2.8349    1.6487 H   0  0  0  0  0  0  0  0  0  0  0  0
   -6.7501    3.0877   -0.5900 H   0  0  0  0  0  0  0  0  0  0  0  0
   -6.6389    1.2234   -2.2240 H   0  0  0  0  0  0  0  0  0  0  0  0
   -5.4879   -0.8808   -1.6330 H   0  0  0  0  0  0  0  0  0  0  0  0
   -0.7535   -0.9040    2.3918 H   0  0  0  0  0  0  0  0  0  0  0  0
    2.4106    2.2121    1.7401 H   0  0  0  0  0  0  0  0  0  0  0  0
    4.5952    2.9669    0.9373 H   0  0  0  0  0  0  0  0  0  0  0  0
    7.9346    2.6681   -0.5156 H   0  0  0  0  0  0  0  0  0  0  0  0
    6.2838    3.2735   -0.6979 H   0  0  0  0  0  0  0  0  0  0  0  0
    6.9757    2.9562    0.9413 H   0  0  0  0  0  0  0  0  0  0  0  0
    5.5924   -1.0537   -0.1907 H   0  0  0  0  0  0  0  0  0  0  0  0
    3.6169   -4.0565    0.2815 H   0  0  0  0  0  0  0  0  0  0  0  0
    4.3567   -2.9191   -0.8499 H   0  0  0  0  0  0  0  0  0  0  0  0
    5.0060   -3.1099    0.8264 H   0  0  0  0  0  0  0  0  0  0  0  0
  1  2  1  0
  2  3  2  0
  3  4  1  0
  4  5  2  0
  5  6  1  0
  6  7  2  3
  7  8  1  0
  8  9  1  0
  9 10  2  0
 10 11  1  0
 11 12  2  0
 12 13  1  0
 13 14  2  0
  6 15  1  0
 15 16  1  0
 16 17  2  3
 17 18  1  0
 18 19  2  0
 19 20  1  0
 20 21  2  0
 21 22  1  0
 22 23  1  0
 21 24  1  0
 24 25  2  0
 25 26  1  0
 26 27  1  0
 16 28  1  0
 28 29  2  0
 29  1  1  0
 29  5  1  0
 14  9  1  0
 25 18  1  0
  1 30  1  0
  2 31  1  0
  3 32  1  0
  8 33  1  0
  8 34  1  0
 10 35  1  0
 11 36  1  0
 12 37  1  0
 13 38  1  0
 14 39  1  0
 15 40  1  0
 19 41  1  0
 20 42  1  0
 23 43  1  0
 23 44  1  0
 23 45  1  0
 24 46  1  0
 27 47  1  0
 27 48  1  0
 27 49  1  0
M  END
>  <ScrubInfo>  (9) 
{"isomerGroup": 0, "isomerId": 8, "confId": 0, "nr_conformers:": 1, "nr_isomers:": 9}

$$$$
