REMARK SMILES COc1ccc(Nc2nc(NCc3ccccc3)c3nccnc3n2)c(OC)c1
REMARK SMILES IDX 8 1 9 2 10 3 19 4 20 5 21 6 22 7 23 8 24 9 25 10 7 11 6 13
REMARK SMILES IDX 3 14 4 15 29 16 5 17 26 18 2 19 1 20 27 21 28 22 11 23 12 25
REMARK SMILES IDX 13 26 14 27 18 28 15 29 17 30 16 31
REMARK H PARENT 7 12 11 24
ROOT
ATOM      1  C   UNL     1      -0.477  -0.055   0.630  1.00  0.00     0.231 A 
ATOM      2  N   UNL     1       0.770  -0.146   0.157  1.00  0.00    -0.193 NA
ATOM      3  C   UNL     1       1.783  -0.207   1.042  1.00  0.00     0.160 A 
ATOM      4  C   UNL     1       1.584  -0.189   2.421  1.00  0.00     0.150 A 
ATOM      5  N   UNL     1       2.607  -0.235   3.333  1.00  0.00    -0.247 NA
ATOM      6  C   UNL     1       2.247  -0.204   4.628  1.00  0.00     0.132 A 
ATOM      7  C   UNL     1       0.927  -0.118   5.003  1.00  0.00     0.133 A 
ATOM      8  N   UNL     1      -0.078  -0.057   4.101  1.00  0.00    -0.233 NA
ATOM      9  C   UNL     1       0.240  -0.092   2.800  1.00  0.00     0.185 A 
ATOM     10  N   UNL     1      -0.759  -0.024   1.931  1.00  0.00    -0.191 NA
ENDROOT
BRANCH   1  11
ATOM     11  N   UNL     1      -1.470   0.009  -0.335  1.00  0.00    -0.321 N 
ATOM     12  H   UNL     1      -1.082  -0.049  -1.268  1.00  0.00     0.170 HD
BRANCH  11  13
ATOM     13  C   UNL     1      -2.872   0.096  -0.309  1.00  0.00     0.084 A 
ATOM     14  C   UNL     1      -5.691   0.280  -0.381  1.00  0.00     0.122 A 
ATOM     15  C   UNL     1      -5.018   0.255   0.837  1.00  0.00     0.049 A 
ATOM     16  C   UNL     1      -4.959   0.214  -1.570  1.00  0.00     0.095 A 
ATOM     17  C   UNL     1      -3.621   0.165   0.869  1.00  0.00     0.034 A 
ATOM     18  C   UNL     1      -3.563   0.123  -1.543  1.00  0.00     0.146 A 
BRANCH  14  19
ATOM     19  O   UNL     1      -7.046   0.366  -0.549  1.00  0.00    -0.497 OA
ATOM     20  C   UNL     1      -7.837   0.429   0.631  1.00  0.00     0.278 C 
ENDBRANCH  14  19
BRANCH  18  21
ATOM     21  O   UNL     1      -2.759   0.054  -2.661  1.00  0.00    -0.494 OA
ATOM     22  C   UNL     1      -3.409   0.059  -3.925  1.00  0.00     0.278 C 
ENDBRANCH  18  21
ENDBRANCH  11  13
ENDBRANCH   1  11
BRANCH   3  23
ATOM     23  N   UNL     1       3.102  -0.383   0.557  1.00  0.00    -0.364 N 
ATOM     24  H   UNL     1       3.751   0.098   1.179  1.00  0.00     0.162 HD
BRANCH  23  25
ATOM     25  C   UNL     1       3.295  -0.048  -0.844  1.00  0.00     0.150 C 
BRANCH  25  26
ATOM     26  C   UNL     1       4.768  -0.127  -1.172  1.00  0.00    -0.029 A 
ATOM     27  C   UNL     1       5.423  -1.368  -1.190  1.00  0.00     0.005 A 
ATOM     28  C   UNL     1       5.506   1.033  -1.449  1.00  0.00     0.005 A 
ATOM     29  C   UNL     1       6.785  -1.447  -1.487  1.00  0.00     0.000 A 
ATOM     30  C   UNL     1       6.868   0.951  -1.747  1.00  0.00     0.000 A 
ATOM     31  C   UNL     1       7.506  -0.288  -1.767  1.00  0.00     0.000 A 
ENDBRANCH  25  26
ENDBRANCH  23  25
ENDBRANCH   3  23
TORSDOF 7
