REMARK SMILES C=CCNc1nc(Nc2ccc(OC)cc2OC)c2cnn(C)c2n1
REMARK SMILES IDX 5 1 6 2 7 3 19 4 20 5 21 6 22 7 23 8 24 9 25 10 4 11 3 13
REMARK SMILES IDX 2 14 1 15 8 16 9 18 10 19 16 20 11 21 15 22 12 23 17 24
REMARK SMILES IDX 18 25 13 26 14 27
REMARK H PARENT 4 12 8 17
ROOT
ATOM      1  C   UNL     1      -3.336   0.212  -0.526  1.00  0.00     0.226 A 
ATOM      2  N   UNL     1      -2.156  -0.403  -0.324  1.00  0.00    -0.195 NA
ATOM      3  C   UNL     1      -0.988   0.241  -0.573  1.00  0.00     0.147 A 
ATOM      4  C   UNL     1      -1.064   1.529  -1.106  1.00  0.00     0.082 A 
ATOM      5  C   UNL     1      -0.199   2.524  -1.607  1.00  0.00     0.149 A 
ATOM      6  N   UNL     1      -0.846   3.623  -2.013  1.00  0.00    -0.179 NA
ATOM      7  N   UNL     1      -2.145   3.308  -1.803  1.00  0.00    -0.250 N 
ATOM      8  C   UNL     1      -3.170   4.257  -2.159  1.00  0.00     0.176 C 
ATOM      9  C   UNL     1      -2.328   2.061  -1.273  1.00  0.00     0.165 A 
ATOM     10  N   UNL     1      -3.493   1.461  -0.983  1.00  0.00    -0.193 NA
ENDROOT
BRANCH   1  11
ATOM     11  N   UNL     1      -4.524  -0.455  -0.254  1.00  0.00    -0.351 N 
ATOM     12  H   UNL     1      -5.234   0.267  -0.202  1.00  0.00     0.164 HD
BRANCH  11  13
ATOM     13  C   UNL     1      -4.493  -1.354   0.878  1.00  0.00     0.143 C 
BRANCH  13  14
ATOM     14  C   UNL     1      -4.341  -2.755   0.366  1.00  0.00    -0.014 C 
ATOM     15  C   UNL     1      -3.343  -3.584   0.701  1.00  0.00     0.006 C 
ENDBRANCH  13  14
ENDBRANCH  11  13
ENDBRANCH   1  11
BRANCH   3  16
ATOM     16  N   UNL     1       0.185  -0.481  -0.350  1.00  0.00    -0.336 N 
ATOM     17  H   UNL     1      -0.027  -1.468  -0.224  1.00  0.00     0.168 HD
BRANCH  16  18
ATOM     18  C   UNL     1       1.403  -0.137   0.275  1.00  0.00     0.083 A 
ATOM     19  C   UNL     1       1.632   1.105   0.872  1.00  0.00     0.034 A 
ATOM     20  C   UNL     1       2.464  -1.074   0.243  1.00  0.00     0.146 A 
ATOM     21  C   UNL     1       2.877   1.412   1.425  1.00  0.00     0.049 A 
ATOM     22  C   UNL     1       3.711  -0.760   0.803  1.00  0.00     0.095 A 
ATOM     23  C   UNL     1       3.921   0.488   1.392  1.00  0.00     0.122 A 
BRANCH  20  24
ATOM     24  O   UNL     1       2.155  -2.282  -0.342  1.00  0.00    -0.494 OA
ATOM     25  C   UNL     1       3.226  -3.185  -0.582  1.00  0.00     0.278 C 
ENDBRANCH  20  24
BRANCH  23  26
ATOM     26  O   UNL     1       5.081   0.922   1.972  1.00  0.00    -0.497 OA
ATOM     27  C   UNL     1       6.190   0.032   1.951  1.00  0.00     0.278 C 
ENDBRANCH  23  26
ENDBRANCH  16  18
ENDBRANCH   3  16
TORSDOF 7
