_i0
     RDKit          3D

 45 47  0  0  0  0  0  0  0  0999 V2000
   -3.3434   -3.5842    0.7011 C   0  0  0  0  0  0  0  0  0  0  0  0
   -4.3411   -2.7548    0.3657 C   0  0  0  0  0  0  0  0  0  0  0  0
   -4.4926   -1.3543    0.8778 C   0  0  0  0  0  0  0  0  0  0  0  0
   -4.5243   -0.4547   -0.2538 N   0  0  0  0  0  0  0  0  0  0  0  0
   -3.3356    0.2119   -0.5265 C   0  0  0  0  0  0  0  0  0  0  0  0
   -2.1560   -0.4032   -0.3236 N   0  0  0  0  0  0  0  0  0  0  0  0
   -0.9879    0.2407   -0.5726 C   0  0  0  0  0  0  0  0  0  0  0  0
    0.1850   -0.4810   -0.3496 N   0  0  0  0  0  0  0  0  0  0  0  0
    1.4035   -0.1374    0.2747 C   0  0  0  0  0  0  0  0  0  0  0  0
    1.6318    1.1050    0.8720 C   0  0  0  0  0  0  0  0  0  0  0  0
    2.8773    1.4123    1.4250 C   0  0  0  0  0  0  0  0  0  0  0  0
    3.9206    0.4880    1.3919 C   0  0  0  0  0  0  0  0  0  0  0  0
    5.0810    0.9221    1.9718 O   0  0  0  0  0  0  0  0  0  0  0  0
    6.1897    0.0323    1.9510 C   0  0  0  0  0  0  0  0  0  0  0  0
    3.7110   -0.7598    0.8034 C   0  0  0  0  0  0  0  0  0  0  0  0
    2.4644   -1.0741    0.2430 C   0  0  0  0  0  0  0  0  0  0  0  0
    2.1546   -2.2821   -0.3422 O   0  0  0  0  0  0  0  0  0  0  0  0
    3.2256   -3.1854   -0.5815 C   0  0  0  0  0  0  0  0  0  0  0  0
   -1.0637    1.5289   -1.1061 C   0  0  0  0  0  0  0  0  0  0  0  0
   -0.1986    2.5241   -1.6070 C   0  0  0  0  0  0  0  0  0  0  0  0
   -0.8460    3.6229   -2.0132 N   0  0  0  0  0  0  0  0  0  0  0  0
   -2.1452    3.3084   -1.8033 N   0  0  0  0  0  0  0  0  0  0  0  0
   -3.1698    4.2571   -2.1595 C   0  0  0  0  0  0  0  0  0  0  0  0
   -2.3275    2.0605   -1.2728 C   0  0  0  0  0  0  0  0  0  0  0  0
   -3.4926    1.4614   -0.9834 N   0  0  0  0  0  0  0  0  0  0  0  0
   -2.5519   -3.2746    1.3765 H   0  0  0  0  0  0  0  0  0  0  0  0
   -3.2887   -4.5840    0.2828 H   0  0  0  0  0  0  0  0  0  0  0  0
   -5.1015   -3.0992   -0.3307 H   0  0  0  0  0  0  0  0  0  0  0  0
   -3.7306   -1.0896    1.6218 H   0  0  0  0  0  0  0  0  0  0  0  0
   -5.4573   -1.2934    1.3959 H   0  0  0  0  0  0  0  0  0  0  0  0
   -5.2335    0.2667   -0.2019 H   0  0  0  0  0  0  0  0  0  0  0  0
   -0.0267   -1.4682   -0.2244 H   0  0  0  0  0  0  0  0  0  0  0  0
    0.8426    1.8456    0.9506 H   0  0  0  0  0  0  0  0  0  0  0  0
    3.0317    2.3826    1.8917 H   0  0  0  0  0  0  0  0  0  0  0  0
    6.4892   -0.2020    0.9240 H   0  0  0  0  0  0  0  0  0  0  0  0
    5.9743   -0.8790    2.5185 H   0  0  0  0  0  0  0  0  0  0  0  0
    7.0315    0.5355    2.4365 H   0  0  0  0  0  0  0  0  0  0  0  0
    4.5101   -1.4881    0.7872 H   0  0  0  0  0  0  0  0  0  0  0  0
    2.8254   -4.0374   -1.1394 H   0  0  0  0  0  0  0  0  0  0  0  0
    4.0071   -2.7240   -1.1944 H   0  0  0  0  0  0  0  0  0  0  0  0
    3.6330   -3.5673    0.3601 H   0  0  0  0  0  0  0  0  0  0  0  0
    0.8802    2.4919   -1.6922 H   0  0  0  0  0  0  0  0  0  0  0  0
   -2.9677    5.1954   -1.6365 H   0  0  0  0  0  0  0  0  0  0  0  0
   -4.1509    3.8767   -1.8669 H   0  0  0  0  0  0  0  0  0  0  0  0
   -3.1364    4.4078   -3.2414 H   0  0  0  0  0  0  0  0  0  0  0  0
  1  2  2  0
  2  3  1  0
  3  4  1  0
  4  5  1  0
  5  6  2  0
  6  7  1  0
  7  8  1  0
  8  9  1  0
  9 10  2  0
 10 11  1  0
 11 12  2  0
 12 13  1  0
 13 14  1  0
 12 15  1  0
 15 16  2  0
 16 17  1  0
 17 18  1  0
  7 19  2  0
 19 20  1  0
 20 21  2  0
 21 22  1  0
 22 23  1  0
 22 24  1  0
 24 25  2  0
 25  5  1  0
 16  9  1  0
 24 19  1  0
  1 26  1  0
  1 27  1  0
  2 28  1  0
  3 29  1  0
  3 30  1  0
  4 31  1  0
  8 32  1  0
 10 33  1  0
 11 34  1  0
 14 35  1  0
 14 36  1  0
 14 37  1  0
 15 38  1  0
 18 39  1  0
 18 40  1  0
 18 41  1  0
 20 42  1  0
 23 43  1  0
 23 44  1  0
 23 45  1  0
M  END
>  <ScrubInfo>  (1) 
{"isomerGroup": 0, "isomerId": 0, "confId": 0, "nr_conformers:": 1, "nr_isomers:": 9}

$$$$
_i1
     RDKit          3D

 45 47  0  0  0  0  0  0  0  0999 V2000
   -1.7932   -0.4671    0.0651 N   0  0  0  0  0  0  0  0  0  0  0  0
   -0.7060    0.2504   -0.3863 C   0  0  0  0  0  0  0  0  0  0  0  0
    0.3745   -0.3758   -0.9693 N   0  0  0  0  0  0  0  0  0  0  0  0
    1.6961   -0.4507   -0.4470 C   0  0  0  0  0  0  0  0  0  0  0  0
    2.1407    0.3223    0.6301 C   0  0  0  0  0  0  0  0  0  0  0  0
    3.4716    0.2545    1.0493 C   0  0  0  0  0  0  0  0  0  0  0  0
    4.3861   -0.5719    0.3963 C   0  0  0  0  0  0  0  0  0  0  0  0
    5.6519   -0.5350    0.9138 O   0  0  0  0  0  0  0  0  0  0  0  0
    6.6407   -1.3304    0.2727 C   0  0  0  0  0  0  0  0  0  0  0  0
    3.9620   -1.3441   -0.6861 C   0  0  0  0  0  0  0  0  0  0  0  0
    2.6282   -1.2842   -1.1128 C   0  0  0  0  0  0  0  0  0  0  0  0
    2.1033   -2.0164   -2.1558 O   0  0  0  0  0  0  0  0  0  0  0  0
    3.0104   -2.7955   -2.9258 C   0  0  0  0  0  0  0  0  0  0  0  0
   -0.8241    1.5796   -0.2925 C   0  0  0  0  0  0  0  0  0  0  0  0
   -0.0559    2.7655   -0.6818 C   0  0  0  0  0  0  0  0  0  0  0  0
   -0.6597    3.8871   -0.3752 N   0  0  0  0  0  0  0  0  0  0  0  0
   -1.8480    3.5082    0.2750 N   0  0  0  0  0  0  0  0  0  0  0  0
   -2.8876    4.4924    0.4543 C   0  0  0  0  0  0  0  0  0  0  0  0
   -2.0510    2.1377    0.3137 C   0  0  0  0  0  0  0  0  0  0  0  0
   -3.0528    1.4512    0.7496 N   0  0  0  0  0  0  0  0  0  0  0  0
   -2.9113    0.0837    0.6383 C   0  0  0  0  0  0  0  0  0  0  0  0
   -3.8311   -0.7109    1.0764 N   0  0  0  0  0  0  0  0  0  0  0  0
   -5.0044   -0.0818    1.6783 C   0  0  0  0  0  0  0  0  0  0  0  0
   -5.9924   -1.1126    2.1568 C   0  0  0  0  0  0  0  0  0  0  0  0
   -5.8736   -2.4462    2.0864 C   0  0  0  0  0  0  0  0  0  0  0  0
   -1.7383   -1.4735    0.0796 H   0  0  0  0  0  0  0  0  0  0  0  0
    0.1496   -1.2724   -1.4010 H   0  0  0  0  0  0  0  0  0  0  0  0
    1.4685    0.9742    1.1786 H   0  0  0  0  0  0  0  0  0  0  0  0
    3.7989    0.8549    1.8957 H   0  0  0  0  0  0  0  0  0  0  0  0
    6.7837   -1.0194   -0.7675 H   0  0  0  0  0  0  0  0  0  0  0  0
    6.3933   -2.3952    0.3372 H   0  0  0  0  0  0  0  0  0  0  0  0
    7.5872   -1.1760    0.7994 H   0  0  0  0  0  0  0  0  0  0  0  0
    4.6649   -1.9916   -1.1922 H   0  0  0  0  0  0  0  0  0  0  0  0
    3.7833   -2.1681   -3.3821 H   0  0  0  0  0  0  0  0  0  0  0  0
    3.4517   -3.5948   -2.3217 H   0  0  0  0  0  0  0  0  0  0  0  0
    2.4436   -3.2664   -3.7345 H   0  0  0  0  0  0  0  0  0  0  0  0
    0.9099    2.6747   -1.1955 H   0  0  0  0  0  0  0  0  0  0  0  0
   -3.5388    4.2228    1.2918 H   0  0  0  0  0  0  0  0  0  0  0  0
   -3.4978    4.5720   -0.4507 H   0  0  0  0  0  0  0  0  0  0  0  0
   -2.4575    5.4758    0.6698 H   0  0  0  0  0  0  0  0  0  0  0  0
   -4.7163    0.5292    2.5427 H   0  0  0  0  0  0  0  0  0  0  0  0
   -5.5165    0.5566    0.9479 H   0  0  0  0  0  0  0  0  0  0  0  0
   -6.8939   -0.7030    2.6071 H   0  0  0  0  0  0  0  0  0  0  0  0
   -4.9963   -2.9135    1.6502 H   0  0  0  0  0  0  0  0  0  0  0  0
   -6.6537   -3.0963    2.4669 H   0  0  0  0  0  0  0  0  0  0  0  0
  1  2  1  0
  2  3  1  0
  3  4  1  0
  4  5  2  0
  5  6  1  0
  6  7  2  0
  7  8  1  0
  8  9  1  0
  7 10  1  0
 10 11  2  0
 11 12  1  0
 12 13  1  0
  2 14  2  0
 14 15  1  0
 15 16  2  0
 16 17  1  0
 17 18  1  0
 17 19  1  0
 19 20  2  0
 20 21  1  0
 21 22  2  3
 22 23  1  0
 23 24  1  0
 24 25  2  0
 21  1  1  0
 11  4  1  0
 19 14  1  0
  1 26  1  0
  3 27  1  0
  5 28  1  0
  6 29  1  0
  9 30  1  0
  9 31  1  0
  9 32  1  0
 10 33  1  0
 13 34  1  0
 13 35  1  0
 13 36  1  0
 15 37  1  0
 18 38  1  0
 18 39  1  0
 18 40  1  0
 23 41  1  0
 23 42  1  0
 24 43  1  0
 25 44  1  0
 25 45  1  0
M  END
>  <ScrubInfo>  (2) 
{"isomerGroup": 0, "isomerId": 1, "confId": 0, "nr_conformers:": 1, "nr_isomers:": 9}

$$$$
_i2
     RDKit          3D

 45 47  0  0  0  0  0  0  0  0999 V2000
    1.6271    1.3441    0.7365 N   0  0  0  0  0  0  0  0  0  0  0  0
    2.7906    0.9817    0.1003 C   0  0  0  0  0  0  0  0  0  0  0  0
    3.9004    1.5659    0.6496 N   0  0  0  0  0  0  0  0  0  0  0  0
    5.2404    1.2125    0.2281 C   0  0  0  0  0  0  0  0  0  0  0  0
    5.6817    0.0235    1.0257 C   0  0  0  0  0  0  0  0  0  0  0  0
    6.6400    0.0382    1.9622 C   0  0  0  0  0  0  0  0  0  0  0  0
    2.8293    0.1768   -0.9303 N   0  0  0  0  0  0  0  0  0  0  0  0
    1.5875   -0.2673   -1.2740 C   0  0  0  0  0  0  0  0  0  0  0  0
    0.3676    0.0362   -0.6888 C   0  0  0  0  0  0  0  0  0  0  0  0
   -0.5705   -0.6800   -1.4527 C   0  0  0  0  0  0  0  0  0  0  0  0
   -0.0061   -1.3889   -2.4394 N   0  0  0  0  0  0  0  0  0  0  0  0
    1.3128   -1.1222   -2.3038 N   0  0  0  0  0  0  0  0  0  0  0  0
    2.2523   -1.7210   -3.2178 C   0  0  0  0  0  0  0  0  0  0  0  0
    0.3441    0.9443    0.4408 C   0  0  0  0  0  0  0  0  0  0  0  0
   -0.6721    1.3871    1.1164 N   0  0  0  0  0  0  0  0  0  0  0  0
   -1.9786    0.9483    0.8609 C   0  0  0  0  0  0  0  0  0  0  0  0
   -2.8237    1.7702    0.1083 C   0  0  0  0  0  0  0  0  0  0  0  0
   -4.1454    1.3963   -0.1461 C   0  0  0  0  0  0  0  0  0  0  0  0
   -4.6389    0.1983    0.3666 C   0  0  0  0  0  0  0  0  0  0  0  0
   -5.9076   -0.2853    0.1946 O   0  0  0  0  0  0  0  0  0  0  0  0
   -6.7900    0.4910   -0.6064 C   0  0  0  0  0  0  0  0  0  0  0  0
   -3.8050   -0.6201    1.1388 C   0  0  0  0  0  0  0  0  0  0  0  0
   -2.4785   -0.2561    1.3957 C   0  0  0  0  0  0  0  0  0  0  0  0
   -1.5922   -0.9980    2.1371 O   0  0  0  0  0  0  0  0  0  0  0  0
   -2.0295   -2.2700    2.5942 C   0  0  0  0  0  0  0  0  0  0  0  0
    1.6763    2.0356    1.4650 H   0  0  0  0  0  0  0  0  0  0  0  0
    3.8491    1.7404    1.6450 H   0  0  0  0  0  0  0  0  0  0  0  0
    5.8994    2.0686    0.4119 H   0  0  0  0  0  0  0  0  0  0  0  0
    5.2945    0.9978   -0.8447 H   0  0  0  0  0  0  0  0  0  0  0  0
    5.1792   -0.9147    0.7961 H   0  0  0  0  0  0  0  0  0  0  0  0
    7.1768    0.9457    2.2204 H   0  0  0  0  0  0  0  0  0  0  0  0
    6.9085   -0.8713    2.4919 H   0  0  0  0  0  0  0  0  0  0  0  0
   -1.6455   -0.7253   -1.3524 H   0  0  0  0  0  0  0  0  0  0  0  0
    3.2750   -1.5241   -2.8890 H   0  0  0  0  0  0  0  0  0  0  0  0
    2.0761   -2.7996   -3.2384 H   0  0  0  0  0  0  0  0  0  0  0  0
    2.0883   -1.2888   -4.2080 H   0  0  0  0  0  0  0  0  0  0  0  0
   -2.4443    2.7113   -0.2815 H   0  0  0  0  0  0  0  0  0  0  0  0
   -4.7589    2.0651   -0.7400 H   0  0  0  0  0  0  0  0  0  0  0  0
   -6.9738    1.4710   -0.1538 H   0  0  0  0  0  0  0  0  0  0  0  0
   -7.7471   -0.0370   -0.6569 H   0  0  0  0  0  0  0  0  0  0  0  0
   -6.4107    0.5915   -1.6287 H   0  0  0  0  0  0  0  0  0  0  0  0
   -4.2265   -1.5404    1.5296 H   0  0  0  0  0  0  0  0  0  0  0  0
   -2.8555   -2.1700    3.3058 H   0  0  0  0  0  0  0  0  0  0  0  0
   -2.3032   -2.9199    1.7564 H   0  0  0  0  0  0  0  0  0  0  0  0
   -1.1937   -2.7413    3.1202 H   0  0  0  0  0  0  0  0  0  0  0  0
  1  2  1  0
  2  3  1  0
  3  4  1  0
  4  5  1  0
  5  6  2  0
  2  7  2  0
  7  8  1  0
  8  9  2  0
  9 10  1  0
 10 11  2  0
 11 12  1  0
 12 13  1  0
  9 14  1  0
 14 15  2  3
 15 16  1  0
 16 17  2  0
 17 18  1  0
 18 19  2  0
 19 20  1  0
 20 21  1  0
 19 22  1  0
 22 23  2  0
 23 24  1  0
 24 25  1  0
 14  1  1  0
 23 16  1  0
 12  8  1  0
  1 26  1  0
  3 27  1  0
  4 28  1  0
  4 29  1  0
  5 30  1  0
  6 31  1  0
  6 32  1  0
 10 33  1  0
 13 34  1  0
 13 35  1  0
 13 36  1  0
 17 37  1  0
 18 38  1  0
 21 39  1  0
 21 40  1  0
 21 41  1  0
 22 42  1  0
 25 43  1  0
 25 44  1  0
 25 45  1  0
M  END
>  <ScrubInfo>  (3) 
{"isomerGroup": 0, "isomerId": 2, "confId": 0, "nr_conformers:": 1, "nr_isomers:": 9}

$$$$
_i3
     RDKit          3D

 45 47  0  0  0  0  0  0  0  0999 V2000
   -2.8699   -1.4272   -1.2003 N   0  0  0  0  0  0  0  0  0  0  0  0
   -2.8353   -0.8611    0.0576 C   0  0  0  0  0  0  0  0  0  0  0  0
   -3.7867   -1.1631    0.8767 N   0  0  0  0  0  0  0  0  0  0  0  0
   -3.7820   -0.5912    2.2173 C   0  0  0  0  0  0  0  0  0  0  0  0
   -4.7260    0.5731    2.2533 C   0  0  0  0  0  0  0  0  0  0  0  0
   -5.8571    0.6187    2.9695 C   0  0  0  0  0  0  0  0  0  0  0  0
   -1.8242    0.0099    0.4368 N   0  0  0  0  0  0  0  0  0  0  0  0
   -0.8723    0.2861   -0.4104 C   0  0  0  0  0  0  0  0  0  0  0  0
    0.1560    1.1500   -0.1498 N   0  0  0  0  0  0  0  0  0  0  0  0
    1.4848    0.7318    0.1733 C   0  0  0  0  0  0  0  0  0  0  0  0
    1.9858   -0.5386   -0.1362 C   0  0  0  0  0  0  0  0  0  0  0  0
    3.3183   -0.8709    0.1346 C   0  0  0  0  0  0  0  0  0  0  0  0
    4.1730    0.0673    0.7080 C   0  0  0  0  0  0  0  0  0  0  0  0
    5.4900   -0.1314    1.0209 O   0  0  0  0  0  0  0  0  0  0  0  0
    6.0348   -1.4134    0.7325 C   0  0  0  0  0  0  0  0  0  0  0  0
    3.6895    1.3435    1.0107 C   0  0  0  0  0  0  0  0  0  0  0  0
    2.3604    1.6846    0.7427 C   0  0  0  0  0  0  0  0  0  0  0  0
    1.7901    2.9067    1.0165 O   0  0  0  0  0  0  0  0  0  0  0  0
    2.6524    3.9259    1.5084 C   0  0  0  0  0  0  0  0  0  0  0  0
   -0.8972   -0.2517   -1.7514 C   0  0  0  0  0  0  0  0  0  0  0  0
   -0.1435   -0.1392   -2.9290 C   0  0  0  0  0  0  0  0  0  0  0  0
   -0.6393   -0.8928   -3.9241 N   0  0  0  0  0  0  0  0  0  0  0  0
   -1.7388   -1.4710   -3.3771 N   0  0  0  0  0  0  0  0  0  0  0  0
   -2.5470   -2.3487   -4.1841 C   0  0  0  0  0  0  0  0  0  0  0  0
   -1.9142   -1.1023   -2.0824 C   0  0  0  0  0  0  0  0  0  0  0  0
   -3.6715   -2.0185   -1.3739 H   0  0  0  0  0  0  0  0  0  0  0  0
   -4.1086   -1.3710    2.9157 H   0  0  0  0  0  0  0  0  0  0  0  0
   -2.7932   -0.2791    2.5709 H   0  0  0  0  0  0  0  0  0  0  0  0
   -4.4452    1.4317    1.6485 H   0  0  0  0  0  0  0  0  0  0  0  0
   -6.1747   -0.2191    3.5818 H   0  0  0  0  0  0  0  0  0  0  0  0
   -6.4932    1.4975    2.9457 H   0  0  0  0  0  0  0  0  0  0  0  0
   -0.0988    1.8120    0.5843 H   0  0  0  0  0  0  0  0  0  0  0  0
    1.3543   -1.3024   -0.5805 H   0  0  0  0  0  0  0  0  0  0  0  0
    3.6523   -1.8721   -0.1180 H   0  0  0  0  0  0  0  0  0  0  0  0
    5.5258   -2.1962    1.3045 H   0  0  0  0  0  0  0  0  0  0  0  0
    6.0030   -1.6231   -0.3417 H   0  0  0  0  0  0  0  0  0  0  0  0
    7.0852   -1.4067    1.0393 H   0  0  0  0  0  0  0  0  0  0  0  0
    4.3800    2.0500    1.4594 H   0  0  0  0  0  0  0  0  0  0  0  0
    2.0586    4.8378    1.6235 H   0  0  0  0  0  0  0  0  0  0  0  0
    3.0503    3.6621    2.4936 H   0  0  0  0  0  0  0  0  0  0  0  0
    3.4578    4.1409    0.7983 H   0  0  0  0  0  0  0  0  0  0  0  0
    0.7452    0.4522   -3.1092 H   0  0  0  0  0  0  0  0  0  0  0  0
   -1.9131   -3.1583   -4.5546 H   0  0  0  0  0  0  0  0  0  0  0  0
   -3.3606   -2.7621   -3.5845 H   0  0  0  0  0  0  0  0  0  0  0  0
   -2.9554   -1.7708   -5.0170 H   0  0  0  0  0  0  0  0  0  0  0  0
  1  2  1  0
  2  3  2  3
  3  4  1  0
  4  5  1  0
  5  6  2  0
  2  7  1  0
  7  8  2  0
  8  9  1  0
  9 10  1  0
 10 11  2  0
 11 12  1  0
 12 13  2  0
 13 14  1  0
 14 15  1  0
 13 16  1  0
 16 17  2  0
 17 18  1  0
 18 19  1  0
  8 20  1  0
 20 21  1  0
 21 22  2  0
 22 23  1  0
 23 24  1  0
 23 25  1  0
 25  1  1  0
 17 10  1  0
 25 20  2  0
  1 26  1  0
  4 27  1  0
  4 28  1  0
  5 29  1  0
  6 30  1  0
  6 31  1  0
  9 32  1  0
 11 33  1  0
 12 34  1  0
 15 35  1  0
 15 36  1  0
 15 37  1  0
 16 38  1  0
 19 39  1  0
 19 40  1  0
 19 41  1  0
 21 42  1  0
 24 43  1  0
 24 44  1  0
 24 45  1  0
M  END
>  <ScrubInfo>  (4) 
{"isomerGroup": 0, "isomerId": 3, "confId": 0, "nr_conformers:": 1, "nr_isomers:": 9}

$$$$
_i4
     RDKit          3D

 45 47  0  0  0  0  0  0  0  0999 V2000
   -0.5872   -2.7663    1.7021 N   0  0  0  0  0  0  0  0  0  0  0  0
    0.1991   -1.7911    1.0962 C   0  0  0  0  0  0  0  0  0  0  0  0
   -0.4927   -0.7093    0.7068 C   0  0  0  0  0  0  0  0  0  0  0  0
   -0.2641    0.5815    0.0705 C   0  0  0  0  0  0  0  0  0  0  0  0
    0.8029    1.0947   -0.4464 N   0  0  0  0  0  0  0  0  0  0  0  0
    1.9994    0.3680   -0.4748 C   0  0  0  0  0  0  0  0  0  0  0  0
    2.9644    0.6458    0.4997 C   0  0  0  0  0  0  0  0  0  0  0  0
    4.1689   -0.0650    0.5475 C   0  0  0  0  0  0  0  0  0  0  0  0
    4.4254   -1.0662   -0.3879 C   0  0  0  0  0  0  0  0  0  0  0  0
    5.5478   -1.8452   -0.4439 O   0  0  0  0  0  0  0  0  0  0  0  0
    6.5689   -1.5730    0.5079 C   0  0  0  0  0  0  0  0  0  0  0  0
    3.4771   -1.3347   -1.3779 C   0  0  0  0  0  0  0  0  0  0  0  0
    2.2855   -0.6058   -1.4462 C   0  0  0  0  0  0  0  0  0  0  0  0
    1.4305   -0.9733   -2.4549 O   0  0  0  0  0  0  0  0  0  0  0  0
    0.9514    0.1334   -3.2195 C   0  0  0  0  0  0  0  0  0  0  0  0
   -1.3771    1.3782    0.0196 N   0  0  0  0  0  0  0  0  0  0  0  0
   -2.5490    0.9971    0.4256 C   0  0  0  0  0  0  0  0  0  0  0  0
   -3.6203    1.8389    0.3533 N   0  0  0  0  0  0  0  0  0  0  0  0
   -3.6359    2.9707   -0.5398 C   0  0  0  0  0  0  0  0  0  0  0  0
   -4.8811    3.7926   -0.3421 C   0  0  0  0  0  0  0  0  0  0  0  0
   -5.7233    3.7785    0.7021 C   0  0  0  0  0  0  0  0  0  0  0  0
   -2.8459   -0.2357    0.9404 N   0  0  0  0  0  0  0  0  0  0  0  0
   -1.8735   -1.0677    1.0808 C   0  0  0  0  0  0  0  0  0  0  0  0
   -1.9117   -2.3682    1.5865 N   0  0  0  0  0  0  0  0  0  0  0  0
   -2.8498   -2.7348    2.6300 C   0  0  0  0  0  0  0  0  0  0  0  0
   -0.3726   -3.7108    1.3726 H   0  0  0  0  0  0  0  0  0  0  0  0
    1.2557   -1.9856    0.9866 H   0  0  0  0  0  0  0  0  0  0  0  0
    2.7678    1.4227    1.2351 H   0  0  0  0  0  0  0  0  0  0  0  0
    4.8774    0.1874    1.3292 H   0  0  0  0  0  0  0  0  0  0  0  0
    6.9501   -0.5523    0.3981 H   0  0  0  0  0  0  0  0  0  0  0  0
    6.2154   -1.7561    1.5279 H   0  0  0  0  0  0  0  0  0  0  0  0
    7.3979   -2.2606    0.3146 H   0  0  0  0  0  0  0  0  0  0  0  0
    3.6731   -2.1098   -2.1145 H   0  0  0  0  0  0  0  0  0  0  0  0
    1.6576    0.9712   -3.2490 H   0  0  0  0  0  0  0  0  0  0  0  0
    0.8092   -0.2145   -4.2476 H   0  0  0  0  0  0  0  0  0  0  0  0
   -0.0240    0.4576   -2.8467 H   0  0  0  0  0  0  0  0  0  0  0  0
   -4.4934    1.3325    0.4153 H   0  0  0  0  0  0  0  0  0  0  0  0
   -3.6140    2.6134   -1.5758 H   0  0  0  0  0  0  0  0  0  0  0  0
   -2.7636    3.6150   -0.3830 H   0  0  0  0  0  0  0  0  0  0  0  0
   -5.0953    4.4833   -1.1560 H   0  0  0  0  0  0  0  0  0  0  0  0
   -5.5612    3.1401    1.5652 H   0  0  0  0  0  0  0  0  0  0  0  0
   -6.5889    4.4334    0.7247 H   0  0  0  0  0  0  0  0  0  0  0  0
   -2.6342   -2.1915    3.5560 H   0  0  0  0  0  0  0  0  0  0  0  0
   -2.7907   -3.8087    2.8349 H   0  0  0  0  0  0  0  0  0  0  0  0
   -3.8759   -2.5099    2.3221 H   0  0  0  0  0  0  0  0  0  0  0  0
  1  2  1  0
  2  3  2  0
  3  4  1  0
  4  5  2  3
  5  6  1  0
  6  7  2  0
  7  8  1  0
  8  9  2  0
  9 10  1  0
 10 11  1  0
  9 12  1  0
 12 13  2  0
 13 14  1  0
 14 15  1  0
  4 16  1  0
 16 17  2  0
 17 18  1  0
 18 19  1  0
 19 20  1  0
 20 21  2  0
 17 22  1  0
 22 23  2  0
 23 24  1  0
 24 25  1  0
 24  1  1  0
 23  3  1  0
 13  6  1  0
  1 26  1  0
  2 27  1  0
  7 28  1  0
  8 29  1  0
 11 30  1  0
 11 31  1  0
 11 32  1  0
 12 33  1  0
 15 34  1  0
 15 35  1  0
 15 36  1  0
 18 37  1  0
 19 38  1  0
 19 39  1  0
 20 40  1  0
 21 41  1  0
 21 42  1  0
 25 43  1  0
 25 44  1  0
 25 45  1  0
M  END
>  <ScrubInfo>  (5) 
{"isomerGroup": 0, "isomerId": 4, "confId": 0, "nr_conformers:": 1, "nr_isomers:": 9}

$$$$
_i5
     RDKit          3D

 45 47  0  0  0  0  0  0  0  0999 V2000
   -2.6963   -0.6745   -0.4228 N   0  0  0  0  0  0  0  0  0  0  0  0
   -2.4427    0.5391   -1.0108 C   0  0  0  0  0  0  0  0  0  0  0  0
   -3.5520    1.2287   -1.4079 N   0  0  0  0  0  0  0  0  0  0  0  0
   -4.5764    1.5931   -0.4474 C   0  0  0  0  0  0  0  0  0  0  0  0
   -5.6480    2.3176   -1.2007 C   0  0  0  0  0  0  0  0  0  0  0  0
   -5.9747    3.6039   -1.0149 C   0  0  0  0  0  0  0  0  0  0  0  0
   -1.2626    1.0454   -1.2250 N   0  0  0  0  0  0  0  0  0  0  0  0
   -0.1270    0.3484   -0.8250 C   0  0  0  0  0  0  0  0  0  0  0  0
    0.9993    0.9590   -1.0164 N   0  0  0  0  0  0  0  0  0  0  0  0
    2.2249    0.4016   -0.6406 C   0  0  0  0  0  0  0  0  0  0  0  0
    2.9734   -0.2724   -1.6107 C   0  0  0  0  0  0  0  0  0  0  0  0
    4.1944   -0.8663   -1.2827 C   0  0  0  0  0  0  0  0  0  0  0  0
    4.6928   -0.7926    0.0190 C   0  0  0  0  0  0  0  0  0  0  0  0
    5.8869   -1.4308    0.2106 O   0  0  0  0  0  0  0  0  0  0  0  0
    6.4222   -1.4087    1.5282 C   0  0  0  0  0  0  0  0  0  0  0  0
    3.9684   -0.0978    0.9873 C   0  0  0  0  0  0  0  0  0  0  0  0
    2.7569    0.5243    0.6556 C   0  0  0  0  0  0  0  0  0  0  0  0
    2.1373    1.1724    1.6963 O   0  0  0  0  0  0  0  0  0  0  0  0
    1.6884    2.4863    1.3662 C   0  0  0  0  0  0  0  0  0  0  0  0
   -0.3424   -0.9700   -0.2504 C   0  0  0  0  0  0  0  0  0  0  0  0
    0.4351   -2.0465    0.2145 C   0  0  0  0  0  0  0  0  0  0  0  0
   -0.3070   -3.0853    0.6325 N   0  0  0  0  0  0  0  0  0  0  0  0
   -1.5780   -2.6689    0.4403 N   0  0  0  0  0  0  0  0  0  0  0  0
   -2.6635   -3.5476    0.7933 C   0  0  0  0  0  0  0  0  0  0  0  0
   -1.6294   -1.4166   -0.0815 C   0  0  0  0  0  0  0  0  0  0  0  0
   -3.6297   -1.0478   -0.5312 H   0  0  0  0  0  0  0  0  0  0  0  0
   -3.2323    2.0673   -1.8920 H   0  0  0  0  0  0  0  0  0  0  0  0
   -5.0127    0.7054    0.0229 H   0  0  0  0  0  0  0  0  0  0  0  0
   -4.1466    2.2198    0.3425 H   0  0  0  0  0  0  0  0  0  0  0  0
   -6.1909    1.7392   -1.9453 H   0  0  0  0  0  0  0  0  0  0  0  0
   -6.7649    4.0654   -1.6000 H   0  0  0  0  0  0  0  0  0  0  0  0
   -5.4635    4.2268   -0.2869 H   0  0  0  0  0  0  0  0  0  0  0  0
    2.5959   -0.3426   -2.6276 H   0  0  0  0  0  0  0  0  0  0  0  0
    4.7576   -1.3953   -2.0476 H   0  0  0  0  0  0  0  0  0  0  0  0
    6.6502   -0.3853    1.8440 H   0  0  0  0  0  0  0  0  0  0  0  0
    7.3613   -1.9702    1.5167 H   0  0  0  0  0  0  0  0  0  0  0  0
    5.7484   -1.9015    2.2370 H   0  0  0  0  0  0  0  0  0  0  0  0
    4.3208   -0.0073    2.0091 H   0  0  0  0  0  0  0  0  0  0  0  0
    2.3009    2.9665    0.5944 H   0  0  0  0  0  0  0  0  0  0  0  0
    0.6349    2.4648    1.0744 H   0  0  0  0  0  0  0  0  0  0  0  0
    1.7634    3.0962    2.2721 H   0  0  0  0  0  0  0  0  0  0  0  0
    1.5105   -2.1445    0.2669 H   0  0  0  0  0  0  0  0  0  0  0  0
   -2.5001   -3.9121    1.8108 H   0  0  0  0  0  0  0  0  0  0  0  0
   -2.6730   -4.3805    0.0859 H   0  0  0  0  0  0  0  0  0  0  0  0
   -3.6107   -3.0061    0.7471 H   0  0  0  0  0  0  0  0  0  0  0  0
  1  2  1  0
  2  3  1  0
  3  4  1  0
  4  5  1  0
  5  6  2  0
  2  7  2  0
  7  8  1  0
  8  9  2  3
  9 10  1  0
 10 11  2  0
 11 12  1  0
 12 13  2  0
 13 14  1  0
 14 15  1  0
 13 16  1  0
 16 17  2  0
 17 18  1  0
 18 19  1  0
  8 20  1  0
 20 21  1  0
 21 22  2  0
 22 23  1  0
 23 24  1  0
 23 25  1  0
 25  1  1  0
 17 10  1  0
 25 20  2  0
  1 26  1  0
  3 27  1  0
  4 28  1  0
  4 29  1  0
  5 30  1  0
  6 31  1  0
  6 32  1  0
 11 33  1  0
 12 34  1  0
 15 35  1  0
 15 36  1  0
 15 37  1  0
 16 38  1  0
 19 39  1  0
 19 40  1  0
 19 41  1  0
 21 42  1  0
 24 43  1  0
 24 44  1  0
 24 45  1  0
M  END
>  <ScrubInfo>  (6) 
{"isomerGroup": 0, "isomerId": 5, "confId": 0, "nr_conformers:": 1, "nr_isomers:": 9}

$$$$
_i6
     RDKit          3D

 45 47  0  0  0  0  0  0  0  0999 V2000
   -0.2695   -3.1452   -0.9612 N   0  0  0  0  0  0  0  0  0  0  0  0
    0.2411   -1.8856   -1.2591 C   0  0  0  0  0  0  0  0  0  0  0  0
   -0.6156   -0.8934   -0.9830 C   0  0  0  0  0  0  0  0  0  0  0  0
   -0.6726    0.5660   -1.0458 C   0  0  0  0  0  0  0  0  0  0  0  0
    0.3471    1.3612   -1.5302 N   0  0  0  0  0  0  0  0  0  0  0  0
    1.7143    1.1635   -1.1997 C   0  0  0  0  0  0  0  0  0  0  0  0
    2.6572    1.4087   -2.2057 C   0  0  0  0  0  0  0  0  0  0  0  0
    4.0217    1.2943   -1.9437 C   0  0  0  0  0  0  0  0  0  0  0  0
    4.4713    0.9641   -0.6660 C   0  0  0  0  0  0  0  0  0  0  0  0
    5.8317    0.8800   -0.5495 O   0  0  0  0  0  0  0  0  0  0  0  0
    6.3565    0.5614    0.7330 C   0  0  0  0  0  0  0  0  0  0  0  0
    3.5431    0.7631    0.3591 C   0  0  0  0  0  0  0  0  0  0  0  0
    2.1675    0.8789    0.1076 C   0  0  0  0  0  0  0  0  0  0  0  0
    1.1950    0.7453    1.0660 O   0  0  0  0  0  0  0  0  0  0  0  0
    1.5989    0.4933    2.4042 C   0  0  0  0  0  0  0  0  0  0  0  0
   -1.7675    1.1578   -0.6518 N   0  0  0  0  0  0  0  0  0  0  0  0
   -2.7990    0.3950   -0.1486 C   0  0  0  0  0  0  0  0  0  0  0  0
   -3.7797    1.0925    0.3050 N   0  0  0  0  0  0  0  0  0  0  0  0
   -4.9182    0.3654    0.8510 C   0  0  0  0  0  0  0  0  0  0  0  0
   -5.9800    1.3070    1.3562 C   0  0  0  0  0  0  0  0  0  0  0  0
   -5.9437    2.6470    1.3400 C   0  0  0  0  0  0  0  0  0  0  0  0
   -2.8630   -0.9810   -0.1007 N   0  0  0  0  0  0  0  0  0  0  0  0
   -1.8191   -1.6115   -0.5153 C   0  0  0  0  0  0  0  0  0  0  0  0
   -1.6049   -2.9882   -0.6028 N   0  0  0  0  0  0  0  0  0  0  0  0
   -2.1888   -3.8973    0.3640 C   0  0  0  0  0  0  0  0  0  0  0  0
   -0.0801   -3.8381   -1.6892 H   0  0  0  0  0  0  0  0  0  0  0  0
    1.2360   -1.8048   -1.6729 H   0  0  0  0  0  0  0  0  0  0  0  0
    0.1042    2.3362   -1.3620 H   0  0  0  0  0  0  0  0  0  0  0  0
    2.3274    1.6750   -3.2074 H   0  0  0  0  0  0  0  0  0  0  0  0
    4.7401    1.4690   -2.7413 H   0  0  0  0  0  0  0  0  0  0  0  0
    6.0223   -0.4283    1.0613 H   0  0  0  0  0  0  0  0  0  0  0  0
    7.4473    0.5339    0.6505 H   0  0  0  0  0  0  0  0  0  0  0  0
    6.0973    1.3310    1.4675 H   0  0  0  0  0  0  0  0  0  0  0  0
    3.8906    0.5270    1.3560 H   0  0  0  0  0  0  0  0  0  0  0  0
    2.2137    1.3119    2.7924 H   0  0  0  0  0  0  0  0  0  0  0  0
    2.1190   -0.4668    2.4840 H   0  0  0  0  0  0  0  0  0  0  0  0
    0.6962    0.4341    3.0199 H   0  0  0  0  0  0  0  0  0  0  0  0
   -5.3761   -0.2697    0.0827 H   0  0  0  0  0  0  0  0  0  0  0  0
   -4.6083   -0.2659    1.6930 H   0  0  0  0  0  0  0  0  0  0  0  0
   -6.8601    0.8230    1.7726 H   0  0  0  0  0  0  0  0  0  0  0  0
   -5.0895    3.1817    0.9343 H   0  0  0  0  0  0  0  0  0  0  0  0
   -6.7670    3.2344    1.7303 H   0  0  0  0  0  0  0  0  0  0  0  0
   -1.7729   -3.7237    1.3619 H   0  0  0  0  0  0  0  0  0  0  0  0
   -3.2748   -3.7665    0.4093 H   0  0  0  0  0  0  0  0  0  0  0  0
   -1.9890   -4.9355    0.0796 H   0  0  0  0  0  0  0  0  0  0  0  0
  1  2  1  0
  2  3  2  0
  3  4  1  0
  4  5  1  0
  5  6  1  0
  6  7  2  0
  7  8  1  0
  8  9  2  0
  9 10  1  0
 10 11  1  0
  9 12  1  0
 12 13  2  0
 13 14  1  0
 14 15  1  0
  4 16  2  0
 16 17  1  0
 17 18  2  3
 18 19  1  0
 19 20  1  0
 20 21  2  0
 17 22  1  0
 22 23  2  0
 23 24  1  0
 24 25  1  0
 24  1  1  0
 23  3  1  0
 13  6  1  0
  1 26  1  0
  2 27  1  0
  5 28  1  0
  7 29  1  0
  8 30  1  0
 11 31  1  0
 11 32  1  0
 11 33  1  0
 12 34  1  0
 15 35  1  0
 15 36  1  0
 15 37  1  0
 19 38  1  0
 19 39  1  0
 20 40  1  0
 21 41  1  0
 21 42  1  0
 25 43  1  0
 25 44  1  0
 25 45  1  0
M  END
>  <ScrubInfo>  (7) 
{"isomerGroup": 0, "isomerId": 6, "confId": 0, "nr_conformers:": 1, "nr_isomers:": 9}

$$$$
_i7
     RDKit          3D

 45 47  0  0  0  0  0  0  0  0999 V2000
    0.0146   -3.2087    0.1703 N   0  0  0  0  0  0  0  0  0  0  0  0
    0.4035   -1.8733    0.1739 C   0  0  0  0  0  0  0  0  0  0  0  0
   -0.6184   -1.0157    0.0415 C   0  0  0  0  0  0  0  0  0  0  0  0
   -0.8880    0.4333    0.0214 C   0  0  0  0  0  0  0  0  0  0  0  0
   -0.0582    1.4319    0.0957 N   0  0  0  0  0  0  0  0  0  0  0  0
    1.3271    1.2116    0.1446 C   0  0  0  0  0  0  0  0  0  0  0  0
    1.9756    1.3311    1.3778 C   0  0  0  0  0  0  0  0  0  0  0  0
    3.3575    1.1538    1.4808 C   0  0  0  0  0  0  0  0  0  0  0  0
    4.1071    0.8657    0.3421 C   0  0  0  0  0  0  0  0  0  0  0  0
    5.4597    0.6613    0.3030 O   0  0  0  0  0  0  0  0  0  0  0  0
    6.1686    0.8034    1.5281 C   0  0  0  0  0  0  0  0  0  0  0  0
    3.4679    0.7624   -0.8996 C   0  0  0  0  0  0  0  0  0  0  0  0
    2.0850    0.9434   -1.0130 C   0  0  0  0  0  0  0  0  0  0  0  0
    1.3796    0.8460   -2.1871 O   0  0  0  0  0  0  0  0  0  0  0  0
    2.1297    0.7858   -3.3925 C   0  0  0  0  0  0  0  0  0  0  0  0
   -2.2254    0.7166   -0.0717 N   0  0  0  0  0  0  0  0  0  0  0  0
   -3.2647   -0.1760   -0.1493 C   0  0  0  0  0  0  0  0  0  0  0  0
   -4.5178    0.1048   -0.2094 N   0  0  0  0  0  0  0  0  0  0  0  0
   -4.9632    1.4890   -0.2623 C   0  0  0  0  0  0  0  0  0  0  0  0
   -5.0132    2.1598    1.0816 C   0  0  0  0  0  0  0  0  0  0  0  0
   -4.8246    1.5885    2.2794 C   0  0  0  0  0  0  0  0  0  0  0  0
   -3.0250   -1.5352   -0.1686 N   0  0  0  0  0  0  0  0  0  0  0  0
   -1.7961   -1.9389   -0.0995 C   0  0  0  0  0  0  0  0  0  0  0  0
   -1.3410   -3.2598   -0.1215 N   0  0  0  0  0  0  0  0  0  0  0  0
   -2.1459   -4.3337    0.4281 C   0  0  0  0  0  0  0  0  0  0  0  0
    0.6180   -3.8009   -0.4048 H   0  0  0  0  0  0  0  0  0  0  0  0
    1.4539   -1.6501    0.2839 H   0  0  0  0  0  0  0  0  0  0  0  0
    1.3936    1.5683    2.2648 H   0  0  0  0  0  0  0  0  0  0  0  0
    3.8119    1.2517    2.4608 H   0  0  0  0  0  0  0  0  0  0  0  0
    6.0681    1.8181    1.9275 H   0  0  0  0  0  0  0  0  0  0  0  0
    5.8449    0.0556    2.2595 H   0  0  0  0  0  0  0  0  0  0  0  0
    7.2293    0.6302    1.3222 H   0  0  0  0  0  0  0  0  0  0  0  0
    4.0826    0.5356   -1.7646 H   0  0  0  0  0  0  0  0  0  0  0  0
    1.4234    0.8234   -4.2275 H   0  0  0  0  0  0  0  0  0  0  0  0
    2.8030    1.6442   -3.4873 H   0  0  0  0  0  0  0  0  0  0  0  0
    2.6785   -0.1587   -3.4646 H   0  0  0  0  0  0  0  0  0  0  0  0
   -2.4472    1.6970   -0.0167 H   0  0  0  0  0  0  0  0  0  0  0  0
   -5.9730    1.5054   -0.6886 H   0  0  0  0  0  0  0  0  0  0  0  0
   -4.3451    2.0802   -0.9487 H   0  0  0  0  0  0  0  0  0  0  0  0
   -5.2442    3.2231    1.0547 H   0  0  0  0  0  0  0  0  0  0  0  0
   -4.6207    0.5261    2.3792 H   0  0  0  0  0  0  0  0  0  0  0  0
   -4.8961    2.1704    3.1925 H   0  0  0  0  0  0  0  0  0  0  0  0
   -2.2725   -4.2111    1.5088 H   0  0  0  0  0  0  0  0  0  0  0  0
   -1.6681   -5.3011    0.2418 H   0  0  0  0  0  0  0  0  0  0  0  0
   -3.1347   -4.3548   -0.0413 H   0  0  0  0  0  0  0  0  0  0  0  0
  1  2  1  0
  2  3  2  0
  3  4  1  0
  4  5  2  3
  5  6  1  0
  6  7  2  0
  7  8  1  0
  8  9  2  0
  9 10  1  0
 10 11  1  0
  9 12  1  0
 12 13  2  0
 13 14  1  0
 14 15  1  0
  4 16  1  0
 16 17  1  0
 17 18  2  3
 18 19  1  0
 19 20  1  0
 20 21  2  0
 17 22  1  0
 22 23  2  0
 23 24  1  0
 24 25  1  0
 24  1  1  0
 23  3  1  0
 13  6  1  0
  1 26  1  0
  2 27  1  0
  7 28  1  0
  8 29  1  0
 11 30  1  0
 11 31  1  0
 11 32  1  0
 12 33  1  0
 15 34  1  0
 15 35  1  0
 15 36  1  0
 16 37  1  0
 19 38  1  0
 19 39  1  0
 20 40  1  0
 21 41  1  0
 21 42  1  0
 25 43  1  0
 25 44  1  0
 25 45  1  0
M  END
>  <ScrubInfo>  (8) 
{"isomerGroup": 0, "isomerId": 7, "confId": 0, "nr_conformers:": 1, "nr_isomers:": 9}

$$$$
_i8
     RDKit          3D

 45 47  0  0  0  0  0  0  0  0999 V2000
   -2.7867   -0.9313   -0.9783 N   0  0  0  0  0  0  0  0  0  0  0  0
   -3.0540    0.0678   -0.0643 C   0  0  0  0  0  0  0  0  0  0  0  0
   -4.2826    0.4271    0.0987 N   0  0  0  0  0  0  0  0  0  0  0  0
   -4.5661    1.4779    1.0656 C   0  0  0  0  0  0  0  0  0  0  0  0
   -6.0464    1.7012    1.0780 C   0  0  0  0  0  0  0  0  0  0  0  0
   -6.8305    1.5656    2.1558 C   0  0  0  0  0  0  0  0  0  0  0  0
   -1.9208    0.5507    0.5623 N   0  0  0  0  0  0  0  0  0  0  0  0
   -0.5881    0.2147    0.4175 C   0  0  0  0  0  0  0  0  0  0  0  0
    0.3210    0.8237    1.1181 N   0  0  0  0  0  0  0  0  0  0  0  0
    1.6877    0.5576    0.9566 C   0  0  0  0  0  0  0  0  0  0  0  0
    2.3240   -0.2576    1.8981 C   0  0  0  0  0  0  0  0  0  0  0  0
    3.6919   -0.5253    1.8049 C   0  0  0  0  0  0  0  0  0  0  0  0
    4.4404    0.0360    0.7723 C   0  0  0  0  0  0  0  0  0  0  0  0
    5.7811   -0.1435    0.5644 O   0  0  0  0  0  0  0  0  0  0  0  0
    6.4665   -0.9941    1.4754 C   0  0  0  0  0  0  0  0  0  0  0  0
    3.8144    0.8705   -0.1622 C   0  0  0  0  0  0  0  0  0  0  0  0
    2.4445    1.1432   -0.0783 C   0  0  0  0  0  0  0  0  0  0  0  0
    1.7498    1.9438   -0.9512 O   0  0  0  0  0  0  0  0  0  0  0  0
    2.4742    2.5128   -2.0328 C   0  0  0  0  0  0  0  0  0  0  0  0
   -0.4169   -0.8514   -0.5549 C   0  0  0  0  0  0  0  0  0  0  0  0
    0.6413   -1.6157   -1.0805 C   0  0  0  0  0  0  0  0  0  0  0  0
    0.2344   -2.5223   -1.9826 N   0  0  0  0  0  0  0  0  0  0  0  0
   -1.1023   -2.3339   -2.0458 N   0  0  0  0  0  0  0  0  0  0  0  0
   -1.8888   -3.1542   -2.9319 C   0  0  0  0  0  0  0  0  0  0  0  0
   -1.5256   -1.3583   -1.1976 C   0  0  0  0  0  0  0  0  0  0  0  0
   -3.6089   -1.3009   -1.4410 H   0  0  0  0  0  0  0  0  0  0  0  0
   -4.2117    1.1943    2.0638 H   0  0  0  0  0  0  0  0  0  0  0  0
   -4.0776    2.4149    0.7737 H   0  0  0  0  0  0  0  0  0  0  0  0
   -6.4955    1.9897    0.1305 H   0  0  0  0  0  0  0  0  0  0  0  0
   -6.4295    1.2704    3.1200 H   0  0  0  0  0  0  0  0  0  0  0  0
   -7.8998    1.7388    2.0871 H   0  0  0  0  0  0  0  0  0  0  0  0
   -2.0466    1.2983    1.2258 H   0  0  0  0  0  0  0  0  0  0  0  0
    1.7446   -0.6851    2.7123 H   0  0  0  0  0  0  0  0  0  0  0  0
    4.1378   -1.1680    2.5563 H   0  0  0  0  0  0  0  0  0  0  0  0
    6.4355   -0.5892    2.4923 H   0  0  0  0  0  0  0  0  0  0  0  0
    6.0663   -2.0128    1.4420 H   0  0  0  0  0  0  0  0  0  0  0  0
    7.5153   -1.0383    1.1666 H   0  0  0  0  0  0  0  0  0  0  0  0
    4.4305    1.2956   -0.9477 H   0  0  0  0  0  0  0  0  0  0  0  0
    3.2549    3.1904   -1.6720 H   0  0  0  0  0  0  0  0  0  0  0  0
    2.8913    1.7356   -2.6816 H   0  0  0  0  0  0  0  0  0  0  0  0
    1.7729    3.1028   -2.6307 H   0  0  0  0  0  0  0  0  0  0  0  0
    1.6973   -1.5715   -0.8536 H   0  0  0  0  0  0  0  0  0  0  0  0
   -2.1247   -4.0861   -2.4127 H   0  0  0  0  0  0  0  0  0  0  0  0
   -2.8058   -2.6259   -3.2024 H   0  0  0  0  0  0  0  0  0  0  0  0
   -1.3089   -3.3580   -3.8360 H   0  0  0  0  0  0  0  0  0  0  0  0
  1  2  1  0
  2  3  2  3
  3  4  1  0
  4  5  1  0
  5  6  2  0
  2  7  1  0
  7  8  1  0
  8  9  2  3
  9 10  1  0
 10 11  2  0
 11 12  1  0
 12 13  2  0
 13 14  1  0
 14 15  1  0
 13 16  1  0
 16 17  2  0
 17 18  1  0
 18 19  1  0
  8 20  1  0
 20 21  1  0
 21 22  2  0
 22 23  1  0
 23 24  1  0
 23 25  1  0
 25  1  1  0
 17 10  1  0
 25 20  2  0
  1 26  1  0
  4 27  1  0
  4 28  1  0
  5 29  1  0
  6 30  1  0
  6 31  1  0
  7 32  1  0
 11 33  1  0
 12 34  1  0
 15 35  1  0
 15 36  1  0
 15 37  1  0
 16 38  1  0
 19 39  1  0
 19 40  1  0
 19 41  1  0
 21 42  1  0
 24 43  1  0
 24 44  1  0
 24 45  1  0
M  END
>  <ScrubInfo>  (9) 
{"isomerGroup": 0, "isomerId": 8, "confId": 0, "nr_conformers:": 1, "nr_isomers:": 9}

$$$$
