_i0
     RDKit          3D

 47 50  0  0  0  0  0  0  0  0999 V2000
   -5.1237    4.2986    0.2124 C   0  0  0  0  0  0  0  0  0  0  0  0
   -4.0454    5.1006   -0.1443 C   0  0  0  0  0  0  0  0  0  0  0  0
   -2.7707    4.5399   -0.2716 C   0  0  0  0  0  0  0  0  0  0  0  0
   -2.5444    3.1719   -0.0428 C   0  0  0  0  0  0  0  0  0  0  0  0
   -1.2464    2.6748   -0.2032 N   0  0  0  0  0  0  0  0  0  0  0  0
   -0.6787    1.4025   -0.1397 C   0  0  0  0  0  0  0  0  0  0  0  0
    0.6409    1.3771   -0.2863 N   0  0  0  0  0  0  0  0  0  0  0  0
    1.2020    0.1805   -0.2403 C   0  0  0  0  0  0  0  0  0  0  0  0
    2.5837    0.1612   -0.3960 N   0  0  0  0  0  0  0  0  0  0  0  0
    3.2495   -0.8780    0.3660 C   0  0  0  0  0  0  0  0  0  0  0  0
    4.7418   -0.7220    0.2389 C   0  0  0  0  0  0  0  0  0  0  0  0
    5.3769   -0.7194   -1.0078 C   0  0  0  0  0  0  0  0  0  0  0  0
    6.7605   -0.5904   -1.0805 C   0  0  0  0  0  0  0  0  0  0  0  0
    7.4699   -0.4733    0.1026 C   0  0  0  0  0  0  0  0  0  0  0  0
    6.8966   -0.4783    1.3251 N   0  0  0  0  0  0  0  0  0  0  0  0
    5.5503   -0.6046    1.3649 C   0  0  0  0  0  0  0  0  0  0  0  0
    0.5379   -0.9497   -0.0605 N   0  0  0  0  0  0  0  0  0  0  0  0
   -0.7787   -0.8461    0.0697 C   0  0  0  0  0  0  0  0  0  0  0  0
   -1.5093   -1.9914    0.2727 N   0  0  0  0  0  0  0  0  0  0  0  0
   -0.9531   -3.2907   -0.0743 C   0  0  0  0  0  0  0  0  0  0  0  0
   -2.1742   -4.1210   -0.4780 C   0  0  0  0  0  0  0  0  0  0  0  0
   -3.3298   -3.4392    0.2399 C   0  0  0  0  0  0  0  0  0  0  0  0
   -2.9557   -1.9631    0.1460 C   0  0  0  0  0  0  0  0  0  0  0  0
   -1.4164    0.3169    0.0437 N   0  0  0  0  0  0  0  0  0  0  0  0
   -3.6455    2.3849    0.3091 C   0  0  0  0  0  0  0  0  0  0  0  0
   -4.9238    2.9405    0.4388 C   0  0  0  0  0  0  0  0  0  0  0  0
   -6.1163    4.7288    0.3129 H   0  0  0  0  0  0  0  0  0  0  0  0
   -4.1923    6.1619   -0.3260 H   0  0  0  0  0  0  0  0  0  0  0  0
   -1.9469    5.1898   -0.5569 H   0  0  0  0  0  0  0  0  0  0  0  0
   -0.5188    3.3535   -0.3723 H   0  0  0  0  0  0  0  0  0  0  0  0
    2.9112    1.1028   -0.2103 H   0  0  0  0  0  0  0  0  0  0  0  0
    2.9809   -1.8763   -0.0026 H   0  0  0  0  0  0  0  0  0  0  0  0
    2.9598   -0.8210    1.4235 H   0  0  0  0  0  0  0  0  0  0  0  0
    4.7918   -0.8131   -1.9202 H   0  0  0  0  0  0  0  0  0  0  0  0
    7.2717   -0.5817   -2.0364 H   0  0  0  0  0  0  0  0  0  0  0  0
    8.5512   -0.3700    0.0987 H   0  0  0  0  0  0  0  0  0  0  0  0
    5.1306   -0.6073    2.3677 H   0  0  0  0  0  0  0  0  0  0  0  0
   -0.2370   -3.2591   -0.9035 H   0  0  0  0  0  0  0  0  0  0  0  0
   -0.4612   -3.7262    0.8023 H   0  0  0  0  0  0  0  0  0  0  0  0
   -2.0693   -5.1761   -0.2101 H   0  0  0  0  0  0  0  0  0  0  0  0
   -2.3236   -4.0589   -1.5629 H   0  0  0  0  0  0  0  0  0  0  0  0
   -3.3582   -3.7574    1.2891 H   0  0  0  0  0  0  0  0  0  0  0  0
   -4.3006   -3.6566   -0.2139 H   0  0  0  0  0  0  0  0  0  0  0  0
   -3.4336   -1.3837    0.9427 H   0  0  0  0  0  0  0  0  0  0  0  0
   -3.2590   -1.5598   -0.8282 H   0  0  0  0  0  0  0  0  0  0  0  0
   -3.5337    1.3225    0.4992 H   0  0  0  0  0  0  0  0  0  0  0  0
   -5.7607    2.3060    0.7180 H   0  0  0  0  0  0  0  0  0  0  0  0
  1  2  2  0
  2  3  1  0
  3  4  2  0
  4  5  1  0
  5  6  1  0
  6  7  2  0
  7  8  1  0
  8  9  1  0
  9 10  1  0
 10 11  1  0
 11 12  2  0
 12 13  1  0
 13 14  2  0
 14 15  1  0
 15 16  2  0
  8 17  2  0
 17 18  1  0
 18 19  1  0
 19 20  1  0
 20 21  1  0
 21 22  1  0
 22 23  1  0
 18 24  2  0
  4 25  1  0
 25 26  2  0
 26  1  1  0
 24  6  1  0
 16 11  1  0
 23 19  1  0
  1 27  1  0
  2 28  1  0
  3 29  1  0
  5 30  1  0
  9 31  1  0
 10 32  1  0
 10 33  1  0
 12 34  1  0
 13 35  1  0
 14 36  1  0
 16 37  1  0
 20 38  1  0
 20 39  1  0
 21 40  1  0
 21 41  1  0
 22 42  1  0
 22 43  1  0
 23 44  1  0
 23 45  1  0
 25 46  1  0
 26 47  1  0
M  END
>  <ScrubInfo>  (1) 
{"isomerGroup": 0, "isomerId": 0, "confId": 0, "nr_conformers:": 1, "nr_isomers:": 9}

$$$$
_i1
     RDKit          3D

 47 50  0  0  0  0  0  0  0  0999 V2000
   -0.5078    0.6586    0.0705 N   0  0  0  0  0  0  0  0  0  0  0  0
    0.3041   -0.3875   -0.1570 C   0  0  0  0  0  0  0  0  0  0  0  0
    1.6468   -0.1798   -0.0451 N   0  0  0  0  0  0  0  0  0  0  0  0
    2.2294    0.5100    1.0942 C   0  0  0  0  0  0  0  0  0  0  0  0
    3.7255    0.5602    0.9633 C   0  0  0  0  0  0  0  0  0  0  0  0
    4.3502    1.0859   -0.1732 C   0  0  0  0  0  0  0  0  0  0  0  0
    5.7394    1.1332   -0.2413 C   0  0  0  0  0  0  0  0  0  0  0  0
    6.4645    0.6581    0.8379 C   0  0  0  0  0  0  0  0  0  0  0  0
    5.9001    0.1523    1.9552 N   0  0  0  0  0  0  0  0  0  0  0  0
    4.5490    0.1163    1.9932 C   0  0  0  0  0  0  0  0  0  0  0  0
   -0.1621   -1.5485   -0.4838 N   0  0  0  0  0  0  0  0  0  0  0  0
   -1.5358   -1.6719   -0.5666 C   0  0  0  0  0  0  0  0  0  0  0  0
   -2.0355   -2.9140   -0.8691 N   0  0  0  0  0  0  0  0  0  0  0  0
   -3.4522   -3.1912   -1.0422 C   0  0  0  0  0  0  0  0  0  0  0  0
   -3.4793   -4.5740   -1.6872 C   0  0  0  0  0  0  0  0  0  0  0  0
   -2.2311   -5.2359   -1.1278 C   0  0  0  0  0  0  0  0  0  0  0  0
   -1.2212   -4.0924   -1.1023 C   0  0  0  0  0  0  0  0  0  0  0  0
   -2.3619   -0.6823   -0.3717 N   0  0  0  0  0  0  0  0  0  0  0  0
   -1.8528    0.5487   -0.0815 C   0  0  0  0  0  0  0  0  0  0  0  0
   -2.7299    1.5003    0.0103 N   0  0  0  0  0  0  0  0  0  0  0  0
   -2.2939    2.7962    0.3072 C   0  0  0  0  0  0  0  0  0  0  0  0
   -2.1690    3.2136    1.6348 C   0  0  0  0  0  0  0  0  0  0  0  0
   -1.7165    4.5005    1.9310 C   0  0  0  0  0  0  0  0  0  0  0  0
   -1.3966    5.3805    0.8974 C   0  0  0  0  0  0  0  0  0  0  0  0
   -1.5378    4.9776   -0.4303 C   0  0  0  0  0  0  0  0  0  0  0  0
   -1.9909    3.6901   -0.7230 C   0  0  0  0  0  0  0  0  0  0  0  0
   -0.1244    1.5863    0.0992 H   0  0  0  0  0  0  0  0  0  0  0  0
    2.1319   -1.0559   -0.2315 H   0  0  0  0  0  0  0  0  0  0  0  0
    1.9421   -0.0109    2.0154 H   0  0  0  0  0  0  0  0  0  0  0  0
    1.8547    1.5377    1.1648 H   0  0  0  0  0  0  0  0  0  0  0  0
    3.7571    1.4535   -1.0079 H   0  0  0  0  0  0  0  0  0  0  0  0
    6.2439    1.5309   -1.1148 H   0  0  0  0  0  0  0  0  0  0  0  0
    7.5507    0.6728    0.8332 H   0  0  0  0  0  0  0  0  0  0  0  0
    4.1390   -0.2965    2.9118 H   0  0  0  0  0  0  0  0  0  0  0  0
   -3.9499   -3.2090   -0.0663 H   0  0  0  0  0  0  0  0  0  0  0  0
   -3.9490   -2.4560   -1.6837 H   0  0  0  0  0  0  0  0  0  0  0  0
   -3.3967   -4.4825   -2.7771 H   0  0  0  0  0  0  0  0  0  0  0  0
   -4.3949   -5.1260   -1.4578 H   0  0  0  0  0  0  0  0  0  0  0  0
   -1.8907   -6.0830   -1.7296 H   0  0  0  0  0  0  0  0  0  0  0  0
   -2.4224   -5.5923   -0.1084 H   0  0  0  0  0  0  0  0  0  0  0  0
   -0.4772   -4.2503   -0.3147 H   0  0  0  0  0  0  0  0  0  0  0  0
   -0.7085   -4.0077   -2.0670 H   0  0  0  0  0  0  0  0  0  0  0  0
   -2.4347    2.5312    2.4381 H   0  0  0  0  0  0  0  0  0  0  0  0
   -1.6267    4.8193    2.9662 H   0  0  0  0  0  0  0  0  0  0  0  0
   -1.0536    6.3865    1.1265 H   0  0  0  0  0  0  0  0  0  0  0  0
   -1.3081    5.6683   -1.2375 H   0  0  0  0  0  0  0  0  0  0  0  0
   -2.1173    3.3790   -1.7569 H   0  0  0  0  0  0  0  0  0  0  0  0
  1  2  1  0
  2  3  1  0
  3  4  1  0
  4  5  1  0
  5  6  2  0
  6  7  1  0
  7  8  2  0
  8  9  1  0
  9 10  2  0
  2 11  2  0
 11 12  1  0
 12 13  1  0
 13 14  1  0
 14 15  1  0
 15 16  1  0
 16 17  1  0
 12 18  2  0
 18 19  1  0
 19 20  2  3
 20 21  1  0
 21 22  2  0
 22 23  1  0
 23 24  2  0
 24 25  1  0
 25 26  2  0
 19  1  1  0
 26 21  1  0
 10  5  1  0
 17 13  1  0
  1 27  1  0
  3 28  1  0
  4 29  1  0
  4 30  1  0
  6 31  1  0
  7 32  1  0
  8 33  1  0
 10 34  1  0
 14 35  1  0
 14 36  1  0
 15 37  1  0
 15 38  1  0
 16 39  1  0
 16 40  1  0
 17 41  1  0
 17 42  1  0
 22 43  1  0
 23 44  1  0
 24 45  1  0
 25 46  1  0
 26 47  1  0
M  END
>  <ScrubInfo>  (2) 
{"isomerGroup": 0, "isomerId": 1, "confId": 0, "nr_conformers:": 1, "nr_isomers:": 9}

$$$$
_i2
     RDKit          3D

 47 50  0  0  0  0  0  0  0  0999 V2000
   -0.2670    0.3487   -0.6699 N   0  0  0  0  0  0  0  0  0  0  0  0
   -1.5647   -0.0145   -0.7360 C   0  0  0  0  0  0  0  0  0  0  0  0
   -2.3991    0.7793   -1.4714 N   0  0  0  0  0  0  0  0  0  0  0  0
   -2.4583    2.1905   -1.4455 C   0  0  0  0  0  0  0  0  0  0  0  0
   -1.9039    2.9654   -0.4183 C   0  0  0  0  0  0  0  0  0  0  0  0
   -1.9844    4.3604   -0.4524 C   0  0  0  0  0  0  0  0  0  0  0  0
   -2.6234    4.9980   -1.5127 C   0  0  0  0  0  0  0  0  0  0  0  0
   -3.1884    4.2418   -2.5360 C   0  0  0  0  0  0  0  0  0  0  0  0
   -3.1086    2.8477   -2.4995 C   0  0  0  0  0  0  0  0  0  0  0  0
   -1.9840   -1.1075   -0.1815 N   0  0  0  0  0  0  0  0  0  0  0  0
   -1.0557   -1.8517    0.5188 C   0  0  0  0  0  0  0  0  0  0  0  0
   -1.5067   -2.9867    1.1445 N   0  0  0  0  0  0  0  0  0  0  0  0
   -0.6582   -3.8552    1.9446 C   0  0  0  0  0  0  0  0  0  0  0  0
   -1.6450   -4.7750    2.6575 C   0  0  0  0  0  0  0  0  0  0  0  0
   -2.7901   -4.8801    1.6643 C   0  0  0  0  0  0  0  0  0  0  0  0
   -2.8745   -3.4692    1.0891 C   0  0  0  0  0  0  0  0  0  0  0  0
    0.2040   -1.5301    0.6110 N   0  0  0  0  0  0  0  0  0  0  0  0
    0.6470   -0.4036   -0.0142 C   0  0  0  0  0  0  0  0  0  0  0  0
    1.9095   -0.1951    0.1010 N   0  0  0  0  0  0  0  0  0  0  0  0
    2.4851    0.9890   -0.5282 C   0  0  0  0  0  0  0  0  0  0  0  0
    3.9659    1.1305   -0.2884 C   0  0  0  0  0  0  0  0  0  0  0  0
    4.7810    0.0598    0.0881 C   0  0  0  0  0  0  0  0  0  0  0  0
    6.1487    0.2544    0.2592 C   0  0  0  0  0  0  0  0  0  0  0  0
    6.6643    1.5197    0.0360 C   0  0  0  0  0  0  0  0  0  0  0  0
    5.9177    2.5790   -0.3418 N   0  0  0  0  0  0  0  0  0  0  0  0
    4.5916    2.3576   -0.4956 C   0  0  0  0  0  0  0  0  0  0  0  0
    0.0312    1.1318   -1.2228 H   0  0  0  0  0  0  0  0  0  0  0  0
   -3.3331    0.3823   -1.5323 H   0  0  0  0  0  0  0  0  0  0  0  0
   -1.4298    2.4993    0.4423 H   0  0  0  0  0  0  0  0  0  0  0  0
   -1.5567    4.9483    0.3564 H   0  0  0  0  0  0  0  0  0  0  0  0
   -2.6875    6.0831   -1.5374 H   0  0  0  0  0  0  0  0  0  0  0  0
   -3.6910    4.7359   -3.3638 H   0  0  0  0  0  0  0  0  0  0  0  0
   -3.5479    2.2740   -3.3128 H   0  0  0  0  0  0  0  0  0  0  0  0
    0.0063   -4.4318    1.2915 H   0  0  0  0  0  0  0  0  0  0  0  0
   -0.0540   -3.2995    2.6692 H   0  0  0  0  0  0  0  0  0  0  0  0
   -1.9963   -4.3047    3.5840 H   0  0  0  0  0  0  0  0  0  0  0  0
   -1.2076   -5.7450    2.9094 H   0  0  0  0  0  0  0  0  0  0  0  0
   -3.7277   -5.2018    2.1258 H   0  0  0  0  0  0  0  0  0  0  0  0
   -2.5333   -5.5946    0.8727 H   0  0  0  0  0  0  0  0  0  0  0  0
   -3.2707   -3.4909    0.0687 H   0  0  0  0  0  0  0  0  0  0  0  0
   -3.5187   -2.8363    1.7095 H   0  0  0  0  0  0  0  0  0  0  0  0
    1.9886    1.8860   -0.1360 H   0  0  0  0  0  0  0  0  0  0  0  0
    2.3300    0.9481   -1.6137 H   0  0  0  0  0  0  0  0  0  0  0  0
    4.3514   -0.9259    0.2547 H   0  0  0  0  0  0  0  0  0  0  0  0
    6.7937   -0.5634    0.5589 H   0  0  0  0  0  0  0  0  0  0  0  0
    7.7247    1.7200    0.1573 H   0  0  0  0  0  0  0  0  0  0  0  0
    4.0253    3.2323   -0.8044 H   0  0  0  0  0  0  0  0  0  0  0  0
  1  2  1  0
  2  3  1  0
  3  4  1  0
  4  5  2  0
  5  6  1  0
  6  7  2  0
  7  8  1  0
  8  9  2  0
  2 10  2  0
 10 11  1  0
 11 12  1  0
 12 13  1  0
 13 14  1  0
 14 15  1  0
 15 16  1  0
 11 17  2  0
 17 18  1  0
 18 19  2  3
 19 20  1  0
 20 21  1  0
 21 22  2  0
 22 23  1  0
 23 24  2  0
 24 25  1  0
 25 26  2  0
 18  1  1  0
 26 21  1  0
  9  4  1  0
 16 12  1  0
  1 27  1  0
  3 28  1  0
  5 29  1  0
  6 30  1  0
  7 31  1  0
  8 32  1  0
  9 33  1  0
 13 34  1  0
 13 35  1  0
 14 36  1  0
 14 37  1  0
 15 38  1  0
 15 39  1  0
 16 40  1  0
 16 41  1  0
 20 42  1  0
 20 43  1  0
 22 44  1  0
 23 45  1  0
 24 46  1  0
 26 47  1  0
M  END
>  <ScrubInfo>  (3) 
{"isomerGroup": 0, "isomerId": 2, "confId": 0, "nr_conformers:": 1, "nr_isomers:": 9}

$$$$
_i3
     RDKit          3D

 47 50  0  0  0  0  0  0  0  0999 V2000
    0.4437    1.1812   -0.5102 N   0  0  0  0  0  0  0  0  0  0  0  0
   -0.8876    1.0956   -0.3320 C   0  0  0  0  0  0  0  0  0  0  0  0
   -1.6554    2.1355   -0.7846 N   0  0  0  0  0  0  0  0  0  0  0  0
   -1.2163    3.2873   -1.5595 C   0  0  0  0  0  0  0  0  0  0  0  0
   -2.5080    3.9159   -2.0720 C   0  0  0  0  0  0  0  0  0  0  0  0
   -3.5053    3.5820   -0.9779 C   0  0  0  0  0  0  0  0  0  0  0  0
   -3.1024    2.1677   -0.5771 C   0  0  0  0  0  0  0  0  0  0  0  0
   -1.3926    0.0528    0.2542 N   0  0  0  0  0  0  0  0  0  0  0  0
   -0.5353   -0.9392    0.6729 C   0  0  0  0  0  0  0  0  0  0  0  0
   -0.9921   -2.0685    1.2983 N   0  0  0  0  0  0  0  0  0  0  0  0
   -2.2840   -2.5803    1.4884 C   0  0  0  0  0  0  0  0  0  0  0  0
   -2.4363   -3.6972    2.3299 C   0  0  0  0  0  0  0  0  0  0  0  0
   -3.6938   -4.2484    2.5953 C   0  0  0  0  0  0  0  0  0  0  0  0
   -4.8311   -3.6854    2.0280 C   0  0  0  0  0  0  0  0  0  0  0  0
   -4.7064   -2.5733    1.2017 C   0  0  0  0  0  0  0  0  0  0  0  0
   -3.4445   -2.0253    0.9408 C   0  0  0  0  0  0  0  0  0  0  0  0
    0.7656   -0.8791    0.5320 N   0  0  0  0  0  0  0  0  0  0  0  0
    1.2868    0.2249   -0.0731 C   0  0  0  0  0  0  0  0  0  0  0  0
    2.5608    0.3688   -0.2272 N   0  0  0  0  0  0  0  0  0  0  0  0
    3.4060   -0.7110    0.2787 C   0  0  0  0  0  0  0  0  0  0  0  0
    4.8577   -0.4115    0.0211 C   0  0  0  0  0  0  0  0  0  0  0  0
    5.4643   -0.7288   -1.1968 C   0  0  0  0  0  0  0  0  0  0  0  0
    6.8066   -0.4226   -1.3996 C   0  0  0  0  0  0  0  0  0  0  0  0
    7.4991    0.2011   -0.3748 C   0  0  0  0  0  0  0  0  0  0  0  0
    6.9473    0.5364    0.8107 N   0  0  0  0  0  0  0  0  0  0  0  0
    5.6385    0.2313    0.9759 C   0  0  0  0  0  0  0  0  0  0  0  0
    0.8749    2.0011   -0.8936 H   0  0  0  0  0  0  0  0  0  0  0  0
   -0.6764    3.9858   -0.9107 H   0  0  0  0  0  0  0  0  0  0  0  0
   -0.5692    3.0033   -2.3958 H   0  0  0  0  0  0  0  0  0  0  0  0
   -2.8111    3.4401   -3.0125 H   0  0  0  0  0  0  0  0  0  0  0  0
   -2.4102    4.9907   -2.2477 H   0  0  0  0  0  0  0  0  0  0  0  0
   -4.5442    3.6433   -1.3133 H   0  0  0  0  0  0  0  0  0  0  0  0
   -3.3752    4.2662   -0.1308 H   0  0  0  0  0  0  0  0  0  0  0  0
   -3.5862    1.4282   -1.2252 H   0  0  0  0  0  0  0  0  0  0  0  0
   -3.3768    1.9652    0.4635 H   0  0  0  0  0  0  0  0  0  0  0  0
   -0.2409   -2.6827    1.5757 H   0  0  0  0  0  0  0  0  0  0  0  0
   -1.5658   -4.1519    2.7972 H   0  0  0  0  0  0  0  0  0  0  0  0
   -3.7811   -5.1131    3.2477 H   0  0  0  0  0  0  0  0  0  0  0  0
   -5.8110   -4.1084    2.2308 H   0  0  0  0  0  0  0  0  0  0  0  0
   -5.5902   -2.1248    0.7556 H   0  0  0  0  0  0  0  0  0  0  0  0
   -3.3968   -1.1625    0.2849 H   0  0  0  0  0  0  0  0  0  0  0  0
    3.1577   -1.6637   -0.2078 H   0  0  0  0  0  0  0  0  0  0  0  0
    3.2594   -0.8485    1.3582 H   0  0  0  0  0  0  0  0  0  0  0  0
    4.8909   -1.2072   -1.9864 H   0  0  0  0  0  0  0  0  0  0  0  0
    7.2988   -0.6607   -2.3353 H   0  0  0  0  0  0  0  0  0  0  0  0
    8.5481    0.4594   -0.4856 H   0  0  0  0  0  0  0  0  0  0  0  0
    5.2199    0.5304    1.9332 H   0  0  0  0  0  0  0  0  0  0  0  0
  1  2  1  0
  2  3  1  0
  3  4  1  0
  4  5  1  0
  5  6  1  0
  6  7  1  0
  2  8  2  0
  8  9  1  0
  9 10  1  0
 10 11  1  0
 11 12  2  0
 12 13  1  0
 13 14  2  0
 14 15  1  0
 15 16  2  0
  9 17  2  0
 17 18  1  0
 18 19  2  3
 19 20  1  0
 20 21  1  0
 21 22  2  0
 22 23  1  0
 23 24  2  0
 24 25  1  0
 25 26  2  0
 18  1  1  0
 26 21  1  0
  7  3  1  0
 16 11  1  0
  1 27  1  0
  4 28  1  0
  4 29  1  0
  5 30  1  0
  5 31  1  0
  6 32  1  0
  6 33  1  0
  7 34  1  0
  7 35  1  0
 10 36  1  0
 12 37  1  0
 13 38  1  0
 14 39  1  0
 15 40  1  0
 16 41  1  0
 20 42  1  0
 20 43  1  0
 22 44  1  0
 23 45  1  0
 24 46  1  0
 26 47  1  0
M  END
>  <ScrubInfo>  (4) 
{"isomerGroup": 0, "isomerId": 3, "confId": 0, "nr_conformers:": 1, "nr_isomers:": 9}

$$$$
_i4
     RDKit          3D

 47 50  0  0  0  0  0  0  0  0999 V2000
   -1.7345    0.8680    0.4608 N   0  0  0  0  0  0  0  0  0  0  0  0
   -0.7294    1.6541    0.0283 C   0  0  0  0  0  0  0  0  0  0  0  0
   -0.7309    2.9628    0.4342 N   0  0  0  0  0  0  0  0  0  0  0  0
    0.3416    3.8841    0.0636 C   0  0  0  0  0  0  0  0  0  0  0  0
    0.0852    5.1185    0.9199 C   0  0  0  0  0  0  0  0  0  0  0  0
   -1.4274    5.1318    1.0411 C   0  0  0  0  0  0  0  0  0  0  0  0
   -1.7714    3.6527    1.1838 C   0  0  0  0  0  0  0  0  0  0  0  0
    0.1955    1.1583   -0.7391 N   0  0  0  0  0  0  0  0  0  0  0  0
    0.0927   -0.1701   -1.0777 C   0  0  0  0  0  0  0  0  0  0  0  0
    1.0435   -0.7208   -1.8874 N   0  0  0  0  0  0  0  0  0  0  0  0
    2.3702   -0.1771   -2.0311 C   0  0  0  0  0  0  0  0  0  0  0  0
    3.2573   -0.6131   -0.9000 C   0  0  0  0  0  0  0  0  0  0  0  0
    3.9570   -1.8231   -0.9361 C   0  0  0  0  0  0  0  0  0  0  0  0
    4.7603   -2.1877    0.1407 C   0  0  0  0  0  0  0  0  0  0  0  0
    4.8362   -1.3283    1.2241 C   0  0  0  0  0  0  0  0  0  0  0  0
    4.1714   -0.1562    1.3004 N   0  0  0  0  0  0  0  0  0  0  0  0
    3.3897    0.1681    0.2442 C   0  0  0  0  0  0  0  0  0  0  0  0
   -0.8538   -0.9679   -0.6756 N   0  0  0  0  0  0  0  0  0  0  0  0
   -1.8091   -0.4435    0.1453 C   0  0  0  0  0  0  0  0  0  0  0  0
   -2.7741   -1.1696    0.6321 N   0  0  0  0  0  0  0  0  0  0  0  0
   -2.8294   -2.5312    0.3006 C   0  0  0  0  0  0  0  0  0  0  0  0
   -2.1950   -3.4810    1.1063 C   0  0  0  0  0  0  0  0  0  0  0  0
   -2.2798   -4.8409    0.7996 C   0  0  0  0  0  0  0  0  0  0  0  0
   -3.0110   -5.2593   -0.3116 C   0  0  0  0  0  0  0  0  0  0  0  0
   -3.6591   -4.3197   -1.1126 C   0  0  0  0  0  0  0  0  0  0  0  0
   -3.5721   -2.9607   -0.8025 C   0  0  0  0  0  0  0  0  0  0  0  0
   -2.4183    1.1946    1.1165 H   0  0  0  0  0  0  0  0  0  0  0  0
    1.3340    3.4686    0.2674 H   0  0  0  0  0  0  0  0  0  0  0  0
    0.2682    4.1294   -1.0020 H   0  0  0  0  0  0  0  0  0  0  0  0
    0.5395    4.9923    1.9101 H   0  0  0  0  0  0  0  0  0  0  0  0
    0.4862    6.0314    0.4712 H   0  0  0  0  0  0  0  0  0  0  0  0
   -1.8727    5.5351    0.1235 H   0  0  0  0  0  0  0  0  0  0  0  0
   -1.7833    5.7283    1.8856 H   0  0  0  0  0  0  0  0  0  0  0  0
   -2.7721    3.4518    0.7876 H   0  0  0  0  0  0  0  0  0  0  0  0
   -1.7348    3.3461    2.2350 H   0  0  0  0  0  0  0  0  0  0  0  0
    0.9816   -1.7312   -1.8868 H   0  0  0  0  0  0  0  0  0  0  0  0
    2.7955   -0.5352   -2.9766 H   0  0  0  0  0  0  0  0  0  0  0  0
    2.3580    0.9164   -2.1163 H   0  0  0  0  0  0  0  0  0  0  0  0
    3.8791   -2.4830   -1.7962 H   0  0  0  0  0  0  0  0  0  0  0  0
    5.3127   -3.1205    0.1366 H   0  0  0  0  0  0  0  0  0  0  0  0
    5.4500   -1.5687    2.0873 H   0  0  0  0  0  0  0  0  0  0  0  0
    2.8503    1.1067    0.3489 H   0  0  0  0  0  0  0  0  0  0  0  0
   -1.6293   -3.1538    1.9736 H   0  0  0  0  0  0  0  0  0  0  0  0
   -1.7772   -5.5698    1.4290 H   0  0  0  0  0  0  0  0  0  0  0  0
   -3.0785   -6.3170   -0.5513 H   0  0  0  0  0  0  0  0  0  0  0  0
   -4.2333   -4.6417   -1.9767 H   0  0  0  0  0  0  0  0  0  0  0  0
   -4.0794   -2.2281   -1.4230 H   0  0  0  0  0  0  0  0  0  0  0  0
  1  2  1  0
  2  3  1  0
  3  4  1  0
  4  5  1  0
  5  6  1  0
  6  7  1  0
  2  8  2  0
  8  9  1  0
  9 10  1  0
 10 11  1  0
 11 12  1  0
 12 13  2  0
 13 14  1  0
 14 15  2  0
 15 16  1  0
 16 17  2  0
  9 18  2  0
 18 19  1  0
 19 20  2  3
 20 21  1  0
 21 22  2  0
 22 23  1  0
 23 24  2  0
 24 25  1  0
 25 26  2  0
 19  1  1  0
 26 21  1  0
  7  3  1  0
 17 12  1  0
  1 27  1  0
  4 28  1  0
  4 29  1  0
  5 30  1  0
  5 31  1  0
  6 32  1  0
  6 33  1  0
  7 34  1  0
  7 35  1  0
 10 36  1  0
 11 37  1  0
 11 38  1  0
 13 39  1  0
 14 40  1  0
 15 41  1  0
 17 42  1  0
 22 43  1  0
 23 44  1  0
 24 45  1  0
 25 46  1  0
 26 47  1  0
M  END
>  <ScrubInfo>  (5) 
{"isomerGroup": 0, "isomerId": 4, "confId": 0, "nr_conformers:": 1, "nr_isomers:": 9}

$$$$
_i5
     RDKit          3D

 47 50  0  0  0  0  0  0  0  0999 V2000
    0.6121    0.6692    0.3947 N   0  0  0  0  0  0  0  0  0  0  0  0
    1.1325   -0.5247    0.0177 C   0  0  0  0  0  0  0  0  0  0  0  0
    2.4982   -0.5604    0.0534 N   0  0  0  0  0  0  0  0  0  0  0  0
    3.1922   -1.8143   -0.2021 C   0  0  0  0  0  0  0  0  0  0  0  0
    4.6756   -1.5785   -0.1613 C   0  0  0  0  0  0  0  0  0  0  0  0
    5.3269   -0.8515   -1.1633 C   0  0  0  0  0  0  0  0  0  0  0  0
    6.7004   -0.6431   -1.0845 C   0  0  0  0  0  0  0  0  0  0  0  0
    7.3807   -1.1664    0.0020 C   0  0  0  0  0  0  0  0  0  0  0  0
    6.7873   -1.8674    0.9918 N   0  0  0  0  0  0  0  0  0  0  0  0
    5.4531   -2.0614    0.8859 C   0  0  0  0  0  0  0  0  0  0  0  0
    0.3847   -1.5133   -0.3437 N   0  0  0  0  0  0  0  0  0  0  0  0
   -0.9703   -1.2587   -0.3164 C   0  0  0  0  0  0  0  0  0  0  0  0
   -1.7103   -2.2824   -0.6125 N   0  0  0  0  0  0  0  0  0  0  0  0
   -3.1041   -2.1398   -0.6194 C   0  0  0  0  0  0  0  0  0  0  0  0
   -3.7729   -1.7798   -1.7928 C   0  0  0  0  0  0  0  0  0  0  0  0
   -5.1650   -1.6701   -1.8106 C   0  0  0  0  0  0  0  0  0  0  0  0
   -5.8986   -1.9328   -0.6541 C   0  0  0  0  0  0  0  0  0  0  0  0
   -5.2413   -2.3094    0.5167 C   0  0  0  0  0  0  0  0  0  0  0  0
   -3.8489   -2.4179    0.5302 C   0  0  0  0  0  0  0  0  0  0  0  0
   -1.5465   -0.0425   -0.0129 N   0  0  0  0  0  0  0  0  0  0  0  0
   -0.7261    0.8994    0.3363 C   0  0  0  0  0  0  0  0  0  0  0  0
   -1.1458    2.1645    0.6597 N   0  0  0  0  0  0  0  0  0  0  0  0
   -2.5647    2.5219    0.6031 C   0  0  0  0  0  0  0  0  0  0  0  0
   -2.5862    3.9982    0.9783 C   0  0  0  0  0  0  0  0  0  0  0  0
   -1.4524    4.0980    1.9824 C   0  0  0  0  0  0  0  0  0  0  0  0
   -0.3918    3.1688    1.3996 C   0  0  0  0  0  0  0  0  0  0  0  0
    1.2101    1.4702    0.2901 H   0  0  0  0  0  0  0  0  0  0  0  0
    2.9067   -0.0456    0.8245 H   0  0  0  0  0  0  0  0  0  0  0  0
    2.9035   -2.5618    0.5467 H   0  0  0  0  0  0  0  0  0  0  0  0
    2.9214   -2.2141   -1.1870 H   0  0  0  0  0  0  0  0  0  0  0  0
    4.7645   -0.4497   -2.0033 H   0  0  0  0  0  0  0  0  0  0  0  0
    7.2272   -0.0873   -1.8519 H   0  0  0  0  0  0  0  0  0  0  0  0
    8.4533   -1.0319    0.1087 H   0  0  0  0  0  0  0  0  0  0  0  0
    5.0160   -2.6346    1.6999 H   0  0  0  0  0  0  0  0  0  0  0  0
   -3.1991   -1.5838   -2.6938 H   0  0  0  0  0  0  0  0  0  0  0  0
   -5.6732   -1.3849   -2.7272 H   0  0  0  0  0  0  0  0  0  0  0  0
   -6.9820   -1.8509   -0.6671 H   0  0  0  0  0  0  0  0  0  0  0  0
   -5.8091   -2.5236    1.4175 H   0  0  0  0  0  0  0  0  0  0  0  0
   -3.3346   -2.7191    1.4379 H   0  0  0  0  0  0  0  0  0  0  0  0
   -2.9882    2.3618   -0.3937 H   0  0  0  0  0  0  0  0  0  0  0  0
   -3.1304    1.9315    1.3335 H   0  0  0  0  0  0  0  0  0  0  0  0
   -3.5493    4.3134    1.3888 H   0  0  0  0  0  0  0  0  0  0  0  0
   -2.3653    4.6161    0.0997 H   0  0  0  0  0  0  0  0  0  0  0  0
   -1.0871    5.1202    2.1143 H   0  0  0  0  0  0  0  0  0  0  0  0
   -1.7837    3.7239    2.9588 H   0  0  0  0  0  0  0  0  0  0  0  0
    0.2156    2.7306    2.1985 H   0  0  0  0  0  0  0  0  0  0  0  0
    0.2647    3.7137    0.7125 H   0  0  0  0  0  0  0  0  0  0  0  0
  1  2  1  0
  2  3  1  0
  3  4  1  0
  4  5  1  0
  5  6  2  0
  6  7  1  0
  7  8  2  0
  8  9  1  0
  9 10  2  0
  2 11  2  0
 11 12  1  0
 12 13  2  3
 13 14  1  0
 14 15  2  0
 15 16  1  0
 16 17  2  0
 17 18  1  0
 18 19  2  0
 12 20  1  0
 20 21  2  0
 21 22  1  0
 22 23  1  0
 23 24  1  0
 24 25  1  0
 25 26  1  0
 21  1  1  0
 26 22  1  0
 10  5  1  0
 19 14  1  0
  1 27  1  0
  3 28  1  0
  4 29  1  0
  4 30  1  0
  6 31  1  0
  7 32  1  0
  8 33  1  0
 10 34  1  0
 15 35  1  0
 16 36  1  0
 17 37  1  0
 18 38  1  0
 19 39  1  0
 23 40  1  0
 23 41  1  0
 24 42  1  0
 24 43  1  0
 25 44  1  0
 25 45  1  0
 26 46  1  0
 26 47  1  0
M  END
>  <ScrubInfo>  (6) 
{"isomerGroup": 0, "isomerId": 5, "confId": 0, "nr_conformers:": 1, "nr_isomers:": 9}

$$$$
_i6
     RDKit          3D

 47 50  0  0  0  0  0  0  0  0999 V2000
   -1.2320    0.3499   -0.3056 N   0  0  0  0  0  0  0  0  0  0  0  0
   -0.6825   -0.7855   -0.8045 C   0  0  0  0  0  0  0  0  0  0  0  0
   -1.5346   -1.7035   -1.3505 N   0  0  0  0  0  0  0  0  0  0  0  0
   -2.7832   -2.1220   -0.8421 C   0  0  0  0  0  0  0  0  0  0  0  0
   -3.2083   -1.8679    0.4682 C   0  0  0  0  0  0  0  0  0  0  0  0
   -4.4671   -2.2888    0.9073 C   0  0  0  0  0  0  0  0  0  0  0  0
   -5.3189   -2.9680    0.0402 C   0  0  0  0  0  0  0  0  0  0  0  0
   -4.9110   -3.2316   -1.2644 C   0  0  0  0  0  0  0  0  0  0  0  0
   -3.6517   -2.8123   -1.7002 C   0  0  0  0  0  0  0  0  0  0  0  0
    0.6023   -0.9624   -0.8258 N   0  0  0  0  0  0  0  0  0  0  0  0
    1.3350    0.0705   -0.2764 C   0  0  0  0  0  0  0  0  0  0  0  0
    2.6140   -0.0315   -0.1771 N   0  0  0  0  0  0  0  0  0  0  0  0
    3.2207   -1.2693   -0.6635 C   0  0  0  0  0  0  0  0  0  0  0  0
    4.7217   -1.2879   -0.5082 C   0  0  0  0  0  0  0  0  0  0  0  0
    5.4910   -0.1241   -0.4306 C   0  0  0  0  0  0  0  0  0  0  0  0
    6.8763   -0.2130   -0.3274 C   0  0  0  0  0  0  0  0  0  0  0  0
    7.4538   -1.4714   -0.3175 C   0  0  0  0  0  0  0  0  0  0  0  0
    6.7523   -2.6214   -0.4056 N   0  0  0  0  0  0  0  0  0  0  0  0
    5.4071   -2.5002   -0.5006 C   0  0  0  0  0  0  0  0  0  0  0  0
    0.8231    1.2577    0.1924 N   0  0  0  0  0  0  0  0  0  0  0  0
   -0.4696    1.3674    0.1635 C   0  0  0  0  0  0  0  0  0  0  0  0
   -1.1325    2.4872    0.5944 N   0  0  0  0  0  0  0  0  0  0  0  0
   -0.4023    3.6536    1.0928 C   0  0  0  0  0  0  0  0  0  0  0  0
   -1.4909    4.6899    1.3435 C   0  0  0  0  0  0  0  0  0  0  0  0
   -2.6669    3.8348    1.7785 C   0  0  0  0  0  0  0  0  0  0  0  0
   -2.5572    2.6123    0.8726 C   0  0  0  0  0  0  0  0  0  0  0  0
   -2.1849    0.5420   -0.5641 H   0  0  0  0  0  0  0  0  0  0  0  0
   -1.0370   -2.4768   -1.7836 H   0  0  0  0  0  0  0  0  0  0  0  0
   -2.5553   -1.3722    1.1825 H   0  0  0  0  0  0  0  0  0  0  0  0
   -4.7765   -2.0960    1.9317 H   0  0  0  0  0  0  0  0  0  0  0  0
   -6.2963   -3.2982    0.3830 H   0  0  0  0  0  0  0  0  0  0  0  0
   -5.5718   -3.7636   -1.9443 H   0  0  0  0  0  0  0  0  0  0  0  0
   -3.3557   -3.0190   -2.7265 H   0  0  0  0  0  0  0  0  0  0  0  0
    3.0047   -1.4072   -1.7308 H   0  0  0  0  0  0  0  0  0  0  0  0
    2.8123   -2.1214   -0.1043 H   0  0  0  0  0  0  0  0  0  0  0  0
    5.0109    0.8518   -0.4444 H   0  0  0  0  0  0  0  0  0  0  0  0
    7.4872    0.6792   -0.2573 H   0  0  0  0  0  0  0  0  0  0  0  0
    8.5301   -1.5910   -0.2381 H   0  0  0  0  0  0  0  0  0  0  0  0
    4.8749   -3.4449   -0.5751 H   0  0  0  0  0  0  0  0  0  0  0  0
    0.1123    3.4014    2.0272 H   0  0  0  0  0  0  0  0  0  0  0  0
    0.3303    4.0212    0.3669 H   0  0  0  0  0  0  0  0  0  0  0  0
   -1.7338    5.2168    0.4128 H   0  0  0  0  0  0  0  0  0  0  0  0
   -1.2007    5.4307    2.0935 H   0  0  0  0  0  0  0  0  0  0  0  0
   -3.6279    4.3465    1.6772 H   0  0  0  0  0  0  0  0  0  0  0  0
   -2.5455    3.5375    2.8272 H   0  0  0  0  0  0  0  0  0  0  0  0
   -3.1018    2.7741   -0.0641 H   0  0  0  0  0  0  0  0  0  0  0  0
   -2.9640    1.7268    1.3722 H   0  0  0  0  0  0  0  0  0  0  0  0
  1  2  1  0
  2  3  1  0
  3  4  1  0
  4  5  2  0
  5  6  1  0
  6  7  2  0
  7  8  1  0
  8  9  2  0
  2 10  2  0
 10 11  1  0
 11 12  2  3
 12 13  1  0
 13 14  1  0
 14 15  2  0
 15 16  1  0
 16 17  2  0
 17 18  1  0
 18 19  2  0
 11 20  1  0
 20 21  2  0
 21 22  1  0
 22 23  1  0
 23 24  1  0
 24 25  1  0
 25 26  1  0
 21  1  1  0
 26 22  1  0
  9  4  1  0
 19 14  1  0
  1 27  1  0
  3 28  1  0
  5 29  1  0
  6 30  1  0
  7 31  1  0
  8 32  1  0
  9 33  1  0
 13 34  1  0
 13 35  1  0
 15 36  1  0
 16 37  1  0
 17 38  1  0
 19 39  1  0
 23 40  1  0
 23 41  1  0
 24 42  1  0
 24 43  1  0
 25 44  1  0
 25 45  1  0
 26 46  1  0
 26 47  1  0
M  END
>  <ScrubInfo>  (7) 
{"isomerGroup": 0, "isomerId": 6, "confId": 0, "nr_conformers:": 1, "nr_isomers:": 9}

$$$$
_i7
     RDKit          3D

 47 50  0  0  0  0  0  0  0  0999 V2000
    0.3202    0.9944   -0.3019 N   0  0  0  0  0  0  0  0  0  0  0  0
   -1.0145    0.7155   -0.2013 C   0  0  0  0  0  0  0  0  0  0  0  0
   -1.8803    1.7073   -0.5888 N   0  0  0  0  0  0  0  0  0  0  0  0
   -1.5589    2.9588   -1.2596 C   0  0  0  0  0  0  0  0  0  0  0  0
   -2.8970    3.4644   -1.7895 C   0  0  0  0  0  0  0  0  0  0  0  0
   -3.8909    2.9211   -0.7799 C   0  0  0  0  0  0  0  0  0  0  0  0
   -3.3296    1.5387   -0.4696 C   0  0  0  0  0  0  0  0  0  0  0  0
   -1.4502   -0.4307    0.2452 N   0  0  0  0  0  0  0  0  0  0  0  0
   -0.4846   -1.3448    0.6006 C   0  0  0  0  0  0  0  0  0  0  0  0
   -0.8030   -2.5240    1.0556 N   0  0  0  0  0  0  0  0  0  0  0  0
   -2.1598   -2.8571    1.1819 C   0  0  0  0  0  0  0  0  0  0  0  0
   -2.8335   -3.4885    0.1327 C   0  0  0  0  0  0  0  0  0  0  0  0
   -4.1744   -3.8544    0.2695 C   0  0  0  0  0  0  0  0  0  0  0  0
   -4.8467   -3.6000    1.4643 C   0  0  0  0  0  0  0  0  0  0  0  0
   -4.1783   -2.9839    2.5217 C   0  0  0  0  0  0  0  0  0  0  0  0
   -2.8374   -2.6196    2.3810 C   0  0  0  0  0  0  0  0  0  0  0  0
    0.8408   -1.0303    0.4828 N   0  0  0  0  0  0  0  0  0  0  0  0
    1.3441    0.1551    0.0345 C   0  0  0  0  0  0  0  0  0  0  0  0
    2.5654    0.5424   -0.0940 N   0  0  0  0  0  0  0  0  0  0  0  0
    3.6193   -0.4000    0.2794 C   0  0  0  0  0  0  0  0  0  0  0  0
    4.9905    0.1884    0.0871 C   0  0  0  0  0  0  0  0  0  0  0  0
    6.0215   -0.5358   -0.5178 C   0  0  0  0  0  0  0  0  0  0  0  0
    7.2866    0.0327   -0.6408 C   0  0  0  0  0  0  0  0  0  0  0  0
    7.4842    1.3100   -0.1434 C   0  0  0  0  0  0  0  0  0  0  0  0
    6.5202    2.0386    0.4566 N   0  0  0  0  0  0  0  0  0  0  0  0
    5.2989    1.4621    0.5563 C   0  0  0  0  0  0  0  0  0  0  0  0
    0.6107    1.9057   -0.6107 H   0  0  0  0  0  0  0  0  0  0  0  0
   -1.1355    3.6666   -0.5385 H   0  0  0  0  0  0  0  0  0  0  0  0
   -0.8503    2.8201   -2.0826 H   0  0  0  0  0  0  0  0  0  0  0  0
   -2.9286    4.5540   -1.8766 H   0  0  0  0  0  0  0  0  0  0  0  0
   -3.0964    3.0351   -2.7789 H   0  0  0  0  0  0  0  0  0  0  0  0
   -4.9135    2.8822   -1.1650 H   0  0  0  0  0  0  0  0  0  0  0  0
   -3.8855    3.5428    0.1236 H   0  0  0  0  0  0  0  0  0  0  0  0
   -3.6799    0.8046   -1.2043 H   0  0  0  0  0  0  0  0  0  0  0  0
   -3.6279    1.2137    0.5327 H   0  0  0  0  0  0  0  0  0  0  0  0
   -2.3077   -3.6896   -0.7958 H   0  0  0  0  0  0  0  0  0  0  0  0
   -4.6901   -4.3385   -0.5549 H   0  0  0  0  0  0  0  0  0  0  0  0
   -5.8898   -3.8849    1.5727 H   0  0  0  0  0  0  0  0  0  0  0  0
   -4.6970   -2.7885    3.4559 H   0  0  0  0  0  0  0  0  0  0  0  0
   -2.3147   -2.1435    3.2051 H   0  0  0  0  0  0  0  0  0  0  0  0
    1.4573   -1.7676    0.7781 H   0  0  0  0  0  0  0  0  0  0  0  0
    3.5288   -1.3075   -0.3308 H   0  0  0  0  0  0  0  0  0  0  0  0
    3.5231   -0.6886    1.3338 H   0  0  0  0  0  0  0  0  0  0  0  0
    5.8469   -1.5391   -0.8973 H   0  0  0  0  0  0  0  0  0  0  0  0
    8.0995   -0.5080   -1.1117 H   0  0  0  0  0  0  0  0  0  0  0  0
    8.4532    1.7950   -0.2153 H   0  0  0  0  0  0  0  0  0  0  0  0
    4.5446    2.0755    1.0429 H   0  0  0  0  0  0  0  0  0  0  0  0
  1  2  1  0
  2  3  1  0
  3  4  1  0
  4  5  1  0
  5  6  1  0
  6  7  1  0
  2  8  2  0
  8  9  1  0
  9 10  2  3
 10 11  1  0
 11 12  2  0
 12 13  1  0
 13 14  2  0
 14 15  1  0
 15 16  2  0
  9 17  1  0
 17 18  1  0
 18 19  2  3
 19 20  1  0
 20 21  1  0
 21 22  2  0
 22 23  1  0
 23 24  2  0
 24 25  1  0
 25 26  2  0
 18  1  1  0
 26 21  1  0
  7  3  1  0
 16 11  1  0
  1 27  1  0
  4 28  1  0
  4 29  1  0
  5 30  1  0
  5 31  1  0
  6 32  1  0
  6 33  1  0
  7 34  1  0
  7 35  1  0
 12 36  1  0
 13 37  1  0
 14 38  1  0
 15 39  1  0
 16 40  1  0
 17 41  1  0
 20 42  1  0
 20 43  1  0
 22 44  1  0
 23 45  1  0
 24 46  1  0
 26 47  1  0
M  END
>  <ScrubInfo>  (8) 
{"isomerGroup": 0, "isomerId": 7, "confId": 0, "nr_conformers:": 1, "nr_isomers:": 9}

$$$$
_i8
     RDKit          3D

 47 50  0  0  0  0  0  0  0  0999 V2000
   -1.6339   -0.5938    0.8591 N   0  0  0  0  0  0  0  0  0  0  0  0
   -0.7924   -1.3660    0.1080 C   0  0  0  0  0  0  0  0  0  0  0  0
   -0.8895   -2.7247    0.2827 N   0  0  0  0  0  0  0  0  0  0  0  0
   -0.0129   -3.6523   -0.4325 C   0  0  0  0  0  0  0  0  0  0  0  0
   -0.3094   -5.0068    0.1994 C   0  0  0  0  0  0  0  0  0  0  0  0
   -1.7814   -4.8941    0.5489 C   0  0  0  0  0  0  0  0  0  0  0  0
   -1.9109   -3.4510    1.0261 C   0  0  0  0  0  0  0  0  0  0  0  0
    0.0645   -0.8466   -0.7304 N   0  0  0  0  0  0  0  0  0  0  0  0
    0.0623    0.5271   -0.8200 C   0  0  0  0  0  0  0  0  0  0  0  0
    0.8714    1.1435   -1.6159 N   0  0  0  0  0  0  0  0  0  0  0  0
    1.8035    0.3562   -2.4183 C   0  0  0  0  0  0  0  0  0  0  0  0
    3.1833    0.3429   -1.8215 C   0  0  0  0  0  0  0  0  0  0  0  0
    3.5795   -0.6484   -0.9206 C   0  0  0  0  0  0  0  0  0  0  0  0
    4.8604   -0.6165   -0.3781 C   0  0  0  0  0  0  0  0  0  0  0  0
    5.7051    0.4157   -0.7521 C   0  0  0  0  0  0  0  0  0  0  0  0
    5.3575    1.3992   -1.6090 N   0  0  0  0  0  0  0  0  0  0  0  0
    4.1023    1.3449   -2.1139 C   0  0  0  0  0  0  0  0  0  0  0  0
   -0.7992    1.2635   -0.0608 N   0  0  0  0  0  0  0  0  0  0  0  0
   -1.6956    0.7710    0.8426 C   0  0  0  0  0  0  0  0  0  0  0  0
   -2.5194    1.4067    1.6183 N   0  0  0  0  0  0  0  0  0  0  0  0
   -2.5337    2.8064    1.5602 C   0  0  0  0  0  0  0  0  0  0  0  0
   -1.6842    3.5563    2.3777 C   0  0  0  0  0  0  0  0  0  0  0  0
   -1.6920    4.9508    2.3135 C   0  0  0  0  0  0  0  0  0  0  0  0
   -2.5591    5.6022    1.4371 C   0  0  0  0  0  0  0  0  0  0  0  0
   -3.4219    4.8609    0.6307 C   0  0  0  0  0  0  0  0  0  0  0  0
   -3.4116    3.4664    0.6967 C   0  0  0  0  0  0  0  0  0  0  0  0
   -2.2344   -1.0292    1.5371 H   0  0  0  0  0  0  0  0  0  0  0  0
   -0.2679   -3.6584   -1.4984 H   0  0  0  0  0  0  0  0  0  0  0  0
    1.0447   -3.3930   -0.3183 H   0  0  0  0  0  0  0  0  0  0  0  0
   -0.0924   -5.8407   -0.4736 H   0  0  0  0  0  0  0  0  0  0  0  0
    0.2842   -5.1363    1.1125 H   0  0  0  0  0  0  0  0  0  0  0  0
   -2.3920   -5.0497   -0.3488 H   0  0  0  0  0  0  0  0  0  0  0  0
   -2.0973   -5.6160    1.3070 H   0  0  0  0  0  0  0  0  0  0  0  0
   -1.7072   -3.3784    2.1000 H   0  0  0  0  0  0  0  0  0  0  0  0
   -2.9190   -3.0728    0.8269 H   0  0  0  0  0  0  0  0  0  0  0  0
    1.4690   -0.6696   -2.6174 H   0  0  0  0  0  0  0  0  0  0  0  0
    1.8546    0.8144   -3.4146 H   0  0  0  0  0  0  0  0  0  0  0  0
    2.8874   -1.4370   -0.6368 H   0  0  0  0  0  0  0  0  0  0  0  0
    5.1892   -1.3746    0.3228 H   0  0  0  0  0  0  0  0  0  0  0  0
    6.7139    0.4835   -0.3561 H   0  0  0  0  0  0  0  0  0  0  0  0
    3.8456    2.1612   -2.7840 H   0  0  0  0  0  0  0  0  0  0  0  0
   -0.7184    2.2616   -0.1752 H   0  0  0  0  0  0  0  0  0  0  0  0
   -1.0140    3.0495    3.0667 H   0  0  0  0  0  0  0  0  0  0  0  0
   -1.0256    5.5271    2.9500 H   0  0  0  0  0  0  0  0  0  0  0  0
   -2.5679    6.6883    1.3885 H   0  0  0  0  0  0  0  0  0  0  0  0
   -4.1058    5.3673   -0.0455 H   0  0  0  0  0  0  0  0  0  0  0  0
   -4.0896    2.8892    0.0742 H   0  0  0  0  0  0  0  0  0  0  0  0
  1  2  1  0
  2  3  1  0
  3  4  1  0
  4  5  1  0
  5  6  1  0
  6  7  1  0
  2  8  2  0
  8  9  1  0
  9 10  2  3
 10 11  1  0
 11 12  1  0
 12 13  2  0
 13 14  1  0
 14 15  2  0
 15 16  1  0
 16 17  2  0
  9 18  1  0
 18 19  1  0
 19 20  2  3
 20 21  1  0
 21 22  2  0
 22 23  1  0
 23 24  2  0
 24 25  1  0
 25 26  2  0
 19  1  1  0
 26 21  1  0
  7  3  1  0
 17 12  1  0
  1 27  1  0
  4 28  1  0
  4 29  1  0
  5 30  1  0
  5 31  1  0
  6 32  1  0
  6 33  1  0
  7 34  1  0
  7 35  1  0
 11 36  1  0
 11 37  1  0
 13 38  1  0
 14 39  1  0
 15 40  1  0
 17 41  1  0
 18 42  1  0
 22 43  1  0
 23 44  1  0
 24 45  1  0
 25 46  1  0
 26 47  1  0
M  END
>  <ScrubInfo>  (9) 
{"isomerGroup": 0, "isomerId": 8, "confId": 0, "nr_conformers:": 1, "nr_isomers:": 9}

$$$$
