REMARK SMILES c1ccc(Nc2nc(NCc3cccnc3)nc(N3CCCC3)n2)cc1
REMARK SMILES IDX 6 1 7 2 8 3 17 4 18 5 24 6 5 7 4 9 1 10 2 11 26 12 3 13
REMARK SMILES IDX 25 14 9 15 10 17 11 18 12 19 16 20 13 21 15 22 14 23 19 24
REMARK SMILES IDX 20 25 23 26 21 27 22 28
REMARK H PARENT 5 8 9 16
ROOT
ATOM      1  C   UNL     1      -0.679   1.403  -0.140  1.00  0.00     0.233 A 
ATOM      2  N   UNL     1       0.641   1.377  -0.286  1.00  0.00    -0.177 NA
ATOM      3  C   UNL     1       1.202   0.180  -0.240  1.00  0.00     0.229 A 
ATOM      4  N   UNL     1       0.538  -0.950  -0.060  1.00  0.00    -0.177 NA
ATOM      5  C   UNL     1      -0.779  -0.846   0.070  1.00  0.00     0.231 A 
ATOM      6  N   UNL     1      -1.416   0.317   0.044  1.00  0.00    -0.176 NA
ENDROOT
BRANCH   1   7
ATOM      7  N   UNL     1      -1.246   2.675  -0.203  1.00  0.00    -0.324 N 
ATOM      8  H   UNL     1      -0.519   3.353  -0.372  1.00  0.00     0.170 HD
BRANCH   7   9
ATOM      9  C   UNL     1      -2.544   3.172  -0.043  1.00  0.00     0.041 A 
ATOM     10  C   UNL     1      -5.124   4.299   0.212  1.00  0.00     0.000 A 
ATOM     11  C   UNL     1      -4.045   5.101  -0.144  1.00  0.00     0.002 A 
ATOM     12  C   UNL     1      -4.924   2.941   0.439  1.00  0.00     0.002 A 
ATOM     13  C   UNL     1      -2.771   4.540  -0.272  1.00  0.00     0.026 A 
ATOM     14  C   UNL     1      -3.646   2.385   0.309  1.00  0.00     0.026 A 
ENDBRANCH   7   9
ENDBRANCH   1   7
BRANCH   3  15
ATOM     15  N   UNL     1       2.584   0.161  -0.396  1.00  0.00    -0.350 N 
ATOM     16  H   UNL     1       2.911   1.103  -0.210  1.00  0.00     0.164 HD
BRANCH  15  17
ATOM     17  C   UNL     1       3.249  -0.878   0.366  1.00  0.00     0.153 C 
BRANCH  17  18
ATOM     18  C   UNL     1       4.742  -0.722   0.239  1.00  0.00    -0.010 A 
ATOM     19  C   UNL     1       5.377  -0.719  -1.008  1.00  0.00     0.009 A 
ATOM     20  C   UNL     1       5.550  -0.605   1.365  1.00  0.00     0.116 A 
ATOM     21  C   UNL     1       6.761  -0.590  -1.081  1.00  0.00     0.020 A 
ATOM     22  N   UNL     1       6.897  -0.478   1.325  1.00  0.00    -0.264 NA
ATOM     23  C   UNL     1       7.470  -0.473   0.103  1.00  0.00     0.111 A 
ENDBRANCH  17  18
ENDBRANCH  15  17
ENDBRANCH   3  15
BRANCH   5  24
ATOM     24  N   UNL     1      -1.509  -1.991   0.273  1.00  0.00    -0.341 N 
ATOM     25  C   UNL     1      -0.953  -3.291  -0.074  1.00  0.00     0.120 C 
ATOM     26  C   UNL     1      -2.956  -1.963   0.146  1.00  0.00     0.120 C 
ATOM     27  C   UNL     1      -2.174  -4.121  -0.478  1.00  0.00     0.023 C 
ATOM     28  C   UNL     1      -3.330  -3.439   0.240  1.00  0.00     0.023 C 
ENDBRANCH   5  24
TORSDOF 6
