_i0
     RDKit          3D

 45 47  0  0  0  0  0  0  0  0999 V2000
    5.2265    2.8275   -0.5978 C   0  0  0  0  0  0  0  0  0  0  0  0
    4.0943    1.8625   -0.2804 C   0  0  0  0  0  0  0  0  0  0  0  0
    4.1644    1.3785    1.1686 C   0  0  0  0  0  0  0  0  0  0  0  0
    2.9803    0.4935    1.5673 C   0  0  0  0  0  0  0  0  0  0  0  0
    2.9635   -0.8568    0.8457 C   0  0  0  0  0  0  0  0  0  0  0  0
    1.8925   -1.6958    1.3580 N   0  0  0  0  0  0  0  0  0  0  0  0
    0.6834   -1.6337    0.6768 C   0  0  0  0  0  0  0  0  0  0  0  0
    0.3055   -0.4845    0.0872 N   0  0  0  0  0  0  0  0  0  0  0  0
   -0.8789   -0.4008   -0.5689 C   0  0  0  0  0  0  0  0  0  0  0  0
   -1.1701    0.8597   -1.1386 N   0  0  0  0  0  0  0  0  0  0  0  0
   -2.4677    1.4182   -1.2188 C   0  0  0  0  0  0  0  0  0  0  0  0
   -3.1756    1.3013   -2.4246 C   0  0  0  0  0  0  0  0  0  0  0  0
   -4.4740    1.8008   -2.5349 C   0  0  0  0  0  0  0  0  0  0  0  0
   -5.0684    2.4131   -1.4377 C   0  0  0  0  0  0  0  0  0  0  0  0
   -6.3145    2.8911   -1.5474 F   0  0  0  0  0  0  0  0  0  0  0  0
   -4.3930    2.5395   -0.2310 C   0  0  0  0  0  0  0  0  0  0  0  0
   -3.0950    2.0411   -0.1216 C   0  0  0  0  0  0  0  0  0  0  0  0
   -2.2716    2.2282    1.3861 Cl  0  0  0  0  0  0  0  0  0  0  0  0
   -1.6762   -1.5468   -0.6179 C   0  0  0  0  0  0  0  0  0  0  0  0
   -2.9151   -1.9672   -1.1442 C   0  0  0  0  0  0  0  0  0  0  0  0
   -3.1939   -3.2478   -0.8730 N   0  0  0  0  0  0  0  0  0  0  0  0
   -2.1202   -3.6504   -0.1567 N   0  0  0  0  0  0  0  0  0  0  0  0
   -2.0632   -5.0041    0.3344 C   0  0  0  0  0  0  0  0  0  0  0  0
   -1.1812   -2.6709    0.0166 C   0  0  0  0  0  0  0  0  0  0  0  0
   -0.0149   -2.7744    0.6712 N   0  0  0  0  0  0  0  0  0  0  0  0
    5.1608    3.1593   -1.6387 H   0  0  0  0  0  0  0  0  0  0  0  0
    5.1794    3.7129    0.0442 H   0  0  0  0  0  0  0  0  0  0  0  0
    6.2008    2.3496   -0.4541 H   0  0  0  0  0  0  0  0  0  0  0  0
    3.1354    2.3620   -0.4609 H   0  0  0  0  0  0  0  0  0  0  0  0
    4.1548    1.0138   -0.9698 H   0  0  0  0  0  0  0  0  0  0  0  0
    5.1035    0.8373    1.3356 H   0  0  0  0  0  0  0  0  0  0  0  0
    4.1796    2.2495    1.8357 H   0  0  0  0  0  0  0  0  0  0  0  0
    2.0452    1.0383    1.3931 H   0  0  0  0  0  0  0  0  0  0  0  0
    3.0319    0.3163    2.6495 H   0  0  0  0  0  0  0  0  0  0  0  0
    2.9024   -0.7424   -0.2429 H   0  0  0  0  0  0  0  0  0  0  0  0
    3.9127   -1.3686    1.0462 H   0  0  0  0  0  0  0  0  0  0  0  0
    2.1151   -2.6817    1.4402 H   0  0  0  0  0  0  0  0  0  0  0  0
   -0.5477    1.4820   -0.6167 H   0  0  0  0  0  0  0  0  0  0  0  0
   -2.7088    0.8227   -3.2830 H   0  0  0  0  0  0  0  0  0  0  0  0
   -5.0239    1.7159   -3.4674 H   0  0  0  0  0  0  0  0  0  0  0  0
   -4.8834    3.0238    0.6071 H   0  0  0  0  0  0  0  0  0  0  0  0
   -3.6344   -1.3993   -1.7171 H   0  0  0  0  0  0  0  0  0  0  0  0
   -1.1419   -5.1597    0.9000 H   0  0  0  0  0  0  0  0  0  0  0  0
   -2.0907   -5.6818   -0.5227 H   0  0  0  0  0  0  0  0  0  0  0  0
   -2.9276   -5.1717    0.9819 H   0  0  0  0  0  0  0  0  0  0  0  0
  1  2  1  0
  2  3  1  0
  3  4  1  0
  4  5  1  0
  5  6  1  0
  6  7  1  0
  7  8  2  0
  8  9  1  0
  9 10  1  0
 10 11  1  0
 11 12  2  0
 12 13  1  0
 13 14  2  0
 14 15  1  0
 14 16  1  0
 16 17  2  0
 17 18  1  0
  9 19  2  0
 19 20  1  0
 20 21  2  0
 21 22  1  0
 22 23  1  0
 22 24  1  0
 24 25  2  0
 25  7  1  0
 17 11  1  0
 24 19  1  0
  1 26  1  0
  1 27  1  0
  1 28  1  0
  2 29  1  0
  2 30  1  0
  3 31  1  0
  3 32  1  0
  4 33  1  0
  4 34  1  0
  5 35  1  0
  5 36  1  0
  6 37  1  0
 10 38  1  0
 12 39  1  0
 13 40  1  0
 16 41  1  0
 20 42  1  0
 23 43  1  0
 23 44  1  0
 23 45  1  0
M  END
>  <ScrubInfo>  (1) 
{"isomerGroup": 0, "isomerId": 0, "confId": 0, "nr_conformers:": 1, "nr_isomers:": 9}

$$$$
_i1
     RDKit          3D

 45 47  0  0  0  0  0  0  0  0999 V2000
   -1.1412   -0.3265    0.0136 N   0  0  0  0  0  0  0  0  0  0  0  0
   -2.3887   -0.6081   -0.5100 C   0  0  0  0  0  0  0  0  0  0  0  0
   -3.5865   -0.3076    0.1331 N   0  0  0  0  0  0  0  0  0  0  0  0
   -3.7114    0.5049    1.2850 C   0  0  0  0  0  0  0  0  0  0  0  0
   -4.2938    1.7766    1.1405 C   0  0  0  0  0  0  0  0  0  0  0  0
   -4.3958    2.6441    2.2299 C   0  0  0  0  0  0  0  0  0  0  0  0
   -3.9107    2.2485    3.4694 C   0  0  0  0  0  0  0  0  0  0  0  0
   -4.0109    3.0828    4.5117 F   0  0  0  0  0  0  0  0  0  0  0  0
   -3.3253    1.0029    3.6450 C   0  0  0  0  0  0  0  0  0  0  0  0
   -3.2229    0.1342    2.5564 C   0  0  0  0  0  0  0  0  0  0  0  0
   -2.5298   -1.4242    2.8449 Cl  0  0  0  0  0  0  0  0  0  0  0  0
   -2.3637   -1.1976   -1.7130 C   0  0  0  0  0  0  0  0  0  0  0  0
   -3.3270   -1.7297   -2.6832 C   0  0  0  0  0  0  0  0  0  0  0  0
   -2.7599   -2.2360   -3.7483 N   0  0  0  0  0  0  0  0  0  0  0  0
   -1.3814   -2.0325   -3.5694 N   0  0  0  0  0  0  0  0  0  0  0  0
   -0.4556   -2.7645   -4.4004 C   0  0  0  0  0  0  0  0  0  0  0  0
   -1.0532   -1.4692   -2.3460 C   0  0  0  0  0  0  0  0  0  0  0  0
    0.0995   -1.2238   -1.8232 N   0  0  0  0  0  0  0  0  0  0  0  0
    0.0552   -0.6478   -0.5726 C   0  0  0  0  0  0  0  0  0  0  0  0
    1.1456   -0.3995    0.0748 N   0  0  0  0  0  0  0  0  0  0  0  0
    2.4043   -0.7545   -0.5817 C   0  0  0  0  0  0  0  0  0  0  0  0
    3.5693   -0.3679    0.3326 C   0  0  0  0  0  0  0  0  0  0  0  0
    3.7172    1.1502    0.4797 C   0  0  0  0  0  0  0  0  0  0  0  0
    4.8329    1.5586    1.4446 C   0  0  0  0  0  0  0  0  0  0  0  0
    6.2247    1.1827    0.9600 C   0  0  0  0  0  0  0  0  0  0  0  0
   -1.0851    0.0099    0.9623 H   0  0  0  0  0  0  0  0  0  0  0  0
   -4.3686   -0.2004   -0.5068 H   0  0  0  0  0  0  0  0  0  0  0  0
   -4.6589    2.1087    0.1712 H   0  0  0  0  0  0  0  0  0  0  0  0
   -4.8434    3.6272    2.1175 H   0  0  0  0  0  0  0  0  0  0  0  0
   -2.9607    0.7200    4.6274 H   0  0  0  0  0  0  0  0  0  0  0  0
   -4.4060   -1.7041   -2.4854 H   0  0  0  0  0  0  0  0  0  0  0  0
   -0.8434   -2.8615   -5.4196 H   0  0  0  0  0  0  0  0  0  0  0  0
   -0.2912   -3.7678   -3.9952 H   0  0  0  0  0  0  0  0  0  0  0  0
    0.5084   -2.2492   -4.4582 H   0  0  0  0  0  0  0  0  0  0  0  0
    2.5095   -0.2395   -1.5443 H   0  0  0  0  0  0  0  0  0  0  0  0
    2.4473   -1.8368   -0.7543 H   0  0  0  0  0  0  0  0  0  0  0  0
    4.4880   -0.7871   -0.0927 H   0  0  0  0  0  0  0  0  0  0  0  0
    3.4305   -0.8228    1.3210 H   0  0  0  0  0  0  0  0  0  0  0  0
    2.7772    1.5752    0.8517 H   0  0  0  0  0  0  0  0  0  0  0  0
    3.8993    1.6005   -0.5038 H   0  0  0  0  0  0  0  0  0  0  0  0
    4.6564    1.1118    2.4299 H   0  0  0  0  0  0  0  0  0  0  0  0
    4.7940    2.6463    1.5787 H   0  0  0  0  0  0  0  0  0  0  0  0
    6.9808    1.5879    1.6402 H   0  0  0  0  0  0  0  0  0  0  0  0
    6.3588    0.0977    0.9261 H   0  0  0  0  0  0  0  0  0  0  0  0
    6.4160    1.5876   -0.0387 H   0  0  0  0  0  0  0  0  0  0  0  0
  1  2  1  0
  2  3  1  0
  3  4  1  0
  4  5  2  0
  5  6  1  0
  6  7  2  0
  7  8  1  0
  7  9  1  0
  9 10  2  0
 10 11  1  0
  2 12  2  0
 12 13  1  0
 13 14  2  0
 14 15  1  0
 15 16  1  0
 15 17  1  0
 17 18  2  0
 18 19  1  0
 19 20  2  3
 20 21  1  0
 21 22  1  0
 22 23  1  0
 23 24  1  0
 24 25  1  0
 19  1  1  0
 10  4  1  0
 17 12  1  0
  1 26  1  0
  3 27  1  0
  5 28  1  0
  6 29  1  0
  9 30  1  0
 13 31  1  0
 16 32  1  0
 16 33  1  0
 16 34  1  0
 21 35  1  0
 21 36  1  0
 22 37  1  0
 22 38  1  0
 23 39  1  0
 23 40  1  0
 24 41  1  0
 24 42  1  0
 25 43  1  0
 25 44  1  0
 25 45  1  0
M  END
>  <ScrubInfo>  (2) 
{"isomerGroup": 0, "isomerId": 1, "confId": 0, "nr_conformers:": 1, "nr_isomers:": 9}

$$$$
_i2
     RDKit          3D

 45 47  0  0  0  0  0  0  0  0999 V2000
    0.3642   -0.2435    0.5311 N   0  0  0  0  0  0  0  0  0  0  0  0
   -0.4719   -0.2751   -0.5598 C   0  0  0  0  0  0  0  0  0  0  0  0
   -1.7741   -0.5320   -0.2188 N   0  0  0  0  0  0  0  0  0  0  0  0
   -2.8200   -0.5052   -1.2331 C   0  0  0  0  0  0  0  0  0  0  0  0
   -4.1450   -1.0148   -0.6635 C   0  0  0  0  0  0  0  0  0  0  0  0
   -4.8023   -0.0235    0.3019 C   0  0  0  0  0  0  0  0  0  0  0  0
   -6.1575   -0.5402    0.7870 C   0  0  0  0  0  0  0  0  0  0  0  0
   -6.8165    0.4389    1.7455 C   0  0  0  0  0  0  0  0  0  0  0  0
   -0.0674   -0.0872   -1.7888 N   0  0  0  0  0  0  0  0  0  0  0  0
    1.2722    0.1543   -1.8497 C   0  0  0  0  0  0  0  0  0  0  0  0
    2.1910    0.1965   -0.8120 C   0  0  0  0  0  0  0  0  0  0  0  0
    3.4097    0.5039   -1.4414 C   0  0  0  0  0  0  0  0  0  0  0  0
    3.2895    0.6448   -2.7673 N   0  0  0  0  0  0  0  0  0  0  0  0
    1.9762    0.4122   -2.9921 N   0  0  0  0  0  0  0  0  0  0  0  0
    1.4678    0.4703   -4.3393 C   0  0  0  0  0  0  0  0  0  0  0  0
    1.7269   -0.0530    0.5382 C   0  0  0  0  0  0  0  0  0  0  0  0
    2.4140   -0.1123    1.6387 N   0  0  0  0  0  0  0  0  0  0  0  0
    3.8075    0.0310    1.6583 C   0  0  0  0  0  0  0  0  0  0  0  0
    4.3474    1.2924    1.9441 C   0  0  0  0  0  0  0  0  0  0  0  0
    5.7296    1.4722    2.0159 C   0  0  0  0  0  0  0  0  0  0  0  0
    6.5730    0.3851    1.8176 C   0  0  0  0  0  0  0  0  0  0  0  0
    7.8986    0.5606    1.8892 F   0  0  0  0  0  0  0  0  0  0  0  0
    6.0653   -0.8803    1.5533 C   0  0  0  0  0  0  0  0  0  0  0  0
    4.6832   -1.0587    1.4824 C   0  0  0  0  0  0  0  0  0  0  0  0
    4.0809   -2.6477    1.1658 Cl  0  0  0  0  0  0  0  0  0  0  0  0
   -0.0049   -0.5690    1.4094 H   0  0  0  0  0  0  0  0  0  0  0  0
   -2.0576   -0.1104    0.6565 H   0  0  0  0  0  0  0  0  0  0  0  0
   -2.9379    0.5110   -1.6265 H   0  0  0  0  0  0  0  0  0  0  0  0
   -2.5328   -1.1570   -2.0668 H   0  0  0  0  0  0  0  0  0  0  0  0
   -4.8305   -1.1977   -1.5003 H   0  0  0  0  0  0  0  0  0  0  0  0
   -3.9903   -1.9766   -0.1589 H   0  0  0  0  0  0  0  0  0  0  0  0
   -4.9369    0.9426   -0.1996 H   0  0  0  0  0  0  0  0  0  0  0  0
   -4.1527    0.1494    1.1673 H   0  0  0  0  0  0  0  0  0  0  0  0
   -6.8214   -0.7062   -0.0694 H   0  0  0  0  0  0  0  0  0  0  0  0
   -6.0293   -1.5054    1.2905 H   0  0  0  0  0  0  0  0  0  0  0  0
   -7.7836    0.0499    2.0792 H   0  0  0  0  0  0  0  0  0  0  0  0
   -6.1925    0.6021    2.6301 H   0  0  0  0  0  0  0  0  0  0  0  0
   -6.9877    1.4061    1.2622 H   0  0  0  0  0  0  0  0  0  0  0  0
    4.3912    0.6412   -1.0115 H   0  0  0  0  0  0  0  0  0  0  0  0
    2.0945   -0.1618   -4.9738 H   0  0  0  0  0  0  0  0  0  0  0  0
    0.4374    0.1093   -4.3683 H   0  0  0  0  0  0  0  0  0  0  0  0
    1.5099    1.5093   -4.6755 H   0  0  0  0  0  0  0  0  0  0  0  0
    3.6831    2.1366    2.1128 H   0  0  0  0  0  0  0  0  0  0  0  0
    6.1515    2.4493    2.2307 H   0  0  0  0  0  0  0  0  0  0  0  0
    6.7483   -1.7113    1.4109 H   0  0  0  0  0  0  0  0  0  0  0  0
  1  2  1  0
  2  3  1  0
  3  4  1  0
  4  5  1  0
  5  6  1  0
  6  7  1  0
  7  8  1  0
  2  9  2  0
  9 10  1  0
 10 11  2  0
 11 12  1  0
 12 13  2  0
 13 14  1  0
 14 15  1  0
 11 16  1  0
 16 17  2  3
 17 18  1  0
 18 19  2  0
 19 20  1  0
 20 21  2  0
 21 22  1  0
 21 23  1  0
 23 24  2  0
 24 25  1  0
 16  1  1  0
 24 18  1  0
 14 10  1  0
  1 26  1  0
  3 27  1  0
  4 28  1  0
  4 29  1  0
  5 30  1  0
  5 31  1  0
  6 32  1  0
  6 33  1  0
  7 34  1  0
  7 35  1  0
  8 36  1  0
  8 37  1  0
  8 38  1  0
 12 39  1  0
 15 40  1  0
 15 41  1  0
 15 42  1  0
 19 43  1  0
 20 44  1  0
 23 45  1  0
M  END
>  <ScrubInfo>  (3) 
{"isomerGroup": 0, "isomerId": 2, "confId": 0, "nr_conformers:": 1, "nr_isomers:": 9}

$$$$
_i3
     RDKit          3D

 45 47  0  0  0  0  0  0  0  0999 V2000
   -0.0010   -2.5893   -0.3389 N   0  0  0  0  0  0  0  0  0  0  0  0
    0.6517   -1.4814    0.1591 C   0  0  0  0  0  0  0  0  0  0  0  0
    1.9415   -1.4458    0.0687 N   0  0  0  0  0  0  0  0  0  0  0  0
    2.6128   -0.2594    0.6037 C   0  0  0  0  0  0  0  0  0  0  0  0
    4.1169   -0.4321    0.3904 C   0  0  0  0  0  0  0  0  0  0  0  0
    4.9557    0.6824    1.0218 C   0  0  0  0  0  0  0  0  0  0  0  0
    4.6730    2.0968    0.5099 C   0  0  0  0  0  0  0  0  0  0  0  0
    4.9055    2.2602   -0.9839 C   0  0  0  0  0  0  0  0  0  0  0  0
   -0.0381   -0.4269    0.7426 N   0  0  0  0  0  0  0  0  0  0  0  0
   -1.3392   -0.4790    0.8025 C   0  0  0  0  0  0  0  0  0  0  0  0
   -2.1082    0.4973    1.3771 N   0  0  0  0  0  0  0  0  0  0  0  0
   -2.9167    1.4202    0.6472 C   0  0  0  0  0  0  0  0  0  0  0  0
   -3.1953    1.2700   -0.7210 C   0  0  0  0  0  0  0  0  0  0  0  0
   -4.0430    2.1652   -1.3809 C   0  0  0  0  0  0  0  0  0  0  0  0
   -4.6274    3.2101   -0.6774 C   0  0  0  0  0  0  0  0  0  0  0  0
   -5.4383    4.0626   -1.3165 F   0  0  0  0  0  0  0  0  0  0  0  0
   -4.3841    3.3837    0.6762 C   0  0  0  0  0  0  0  0  0  0  0  0
   -3.5380    2.4900    1.3332 C   0  0  0  0  0  0  0  0  0  0  0  0
   -3.2506    2.7378    3.0224 Cl  0  0  0  0  0  0  0  0  0  0  0  0
   -2.0581   -1.6400    0.3301 C   0  0  0  0  0  0  0  0  0  0  0  0
   -3.3838   -2.0964    0.2900 C   0  0  0  0  0  0  0  0  0  0  0  0
   -3.4885   -3.3037   -0.2883 N   0  0  0  0  0  0  0  0  0  0  0  0
   -2.2076   -3.6306   -0.5952 N   0  0  0  0  0  0  0  0  0  0  0  0
   -1.9361   -4.8983   -1.2231 C   0  0  0  0  0  0  0  0  0  0  0  0
   -1.3359   -2.6548   -0.2330 C   0  0  0  0  0  0  0  0  0  0  0  0
    0.6071   -3.3017   -0.7201 H   0  0  0  0  0  0  0  0  0  0  0  0
    2.2666    0.6389    0.0804 H   0  0  0  0  0  0  0  0  0  0  0  0
    2.4096   -0.1527    1.6761 H   0  0  0  0  0  0  0  0  0  0  0  0
    4.4327   -1.3879    0.8288 H   0  0  0  0  0  0  0  0  0  0  0  0
    4.3335   -0.5101   -0.6817 H   0  0  0  0  0  0  0  0  0  0  0  0
    4.8025    0.6699    2.1082 H   0  0  0  0  0  0  0  0  0  0  0  0
    6.0159    0.4517    0.8586 H   0  0  0  0  0  0  0  0  0  0  0  0
    5.3319    2.7931    1.0428 H   0  0  0  0  0  0  0  0  0  0  0  0
    3.6478    2.3942    0.7559 H   0  0  0  0  0  0  0  0  0  0  0  0
    4.1891    1.6747   -1.5676 H   0  0  0  0  0  0  0  0  0  0  0  0
    5.9171    1.9473   -1.2609 H   0  0  0  0  0  0  0  0  0  0  0  0
    4.7855    3.3102   -1.2699 H   0  0  0  0  0  0  0  0  0  0  0  0
   -1.5511    1.0462    2.0321 H   0  0  0  0  0  0  0  0  0  0  0  0
   -2.7505    0.4698   -1.3071 H   0  0  0  0  0  0  0  0  0  0  0  0
   -4.2500    2.0500   -2.4411 H   0  0  0  0  0  0  0  0  0  0  0  0
   -4.8550    4.2074    1.2026 H   0  0  0  0  0  0  0  0  0  0  0  0
   -4.2804   -1.6084    0.6501 H   0  0  0  0  0  0  0  0  0  0  0  0
   -2.2432   -5.6934   -0.5390 H   0  0  0  0  0  0  0  0  0  0  0  0
   -0.8693   -4.9858   -1.4395 H   0  0  0  0  0  0  0  0  0  0  0  0
   -2.5073   -4.9520   -2.1533 H   0  0  0  0  0  0  0  0  0  0  0  0
  1  2  1  0
  2  3  2  3
  3  4  1  0
  4  5  1  0
  5  6  1  0
  6  7  1  0
  7  8  1  0
  2  9  1  0
  9 10  2  0
 10 11  1  0
 11 12  1  0
 12 13  2  0
 13 14  1  0
 14 15  2  0
 15 16  1  0
 15 17  1  0
 17 18  2  0
 18 19  1  0
 10 20  1  0
 20 21  1  0
 21 22  2  0
 22 23  1  0
 23 24  1  0
 23 25  1  0
 25  1  1  0
 18 12  1  0
 25 20  2  0
  1 26  1  0
  4 27  1  0
  4 28  1  0
  5 29  1  0
  5 30  1  0
  6 31  1  0
  6 32  1  0
  7 33  1  0
  7 34  1  0
  8 35  1  0
  8 36  1  0
  8 37  1  0
 11 38  1  0
 13 39  1  0
 14 40  1  0
 17 41  1  0
 21 42  1  0
 24 43  1  0
 24 44  1  0
 24 45  1  0
M  END
>  <ScrubInfo>  (4) 
{"isomerGroup": 0, "isomerId": 3, "confId": 0, "nr_conformers:": 1, "nr_isomers:": 9}

$$$$
_i4
     RDKit          3D

 45 47  0  0  0  0  0  0  0  0999 V2000
   -3.4071   -2.4358    1.2727 N   0  0  0  0  0  0  0  0  0  0  0  0
   -3.2545   -1.2632    0.5399 C   0  0  0  0  0  0  0  0  0  0  0  0
   -1.9864   -0.8278    0.4841 C   0  0  0  0  0  0  0  0  0  0  0  0
   -1.2132    0.2560   -0.1075 C   0  0  0  0  0  0  0  0  0  0  0  0
   -1.5910    1.2976   -0.7714 N   0  0  0  0  0  0  0  0  0  0  0  0
   -2.9470    1.5544   -1.0098 C   0  0  0  0  0  0  0  0  0  0  0  0
   -3.4767    1.2048   -2.2596 C   0  0  0  0  0  0  0  0  0  0  0  0
   -4.8123    1.4696   -2.5651 C   0  0  0  0  0  0  0  0  0  0  0  0
   -5.6168    2.1001   -1.6236 C   0  0  0  0  0  0  0  0  0  0  0  0
   -6.8990    2.3511   -1.9168 F   0  0  0  0  0  0  0  0  0  0  0  0
   -5.1144    2.4756   -0.3844 C   0  0  0  0  0  0  0  0  0  0  0  0
   -3.7782    2.2096   -0.0804 C   0  0  0  0  0  0  0  0  0  0  0  0
   -3.1893    2.6867    1.4730 Cl  0  0  0  0  0  0  0  0  0  0  0  0
    0.1375    0.1324    0.0710 N   0  0  0  0  0  0  0  0  0  0  0  0
    0.6851   -0.8106    0.7735 C   0  0  0  0  0  0  0  0  0  0  0  0
    2.0402   -0.8805    0.9176 N   0  0  0  0  0  0  0  0  0  0  0  0
    2.9358    0.2180    0.6241 C   0  0  0  0  0  0  0  0  0  0  0  0
    3.3484    0.1877   -0.8473 C   0  0  0  0  0  0  0  0  0  0  0  0
    4.2131    1.3822   -1.2609 C   0  0  0  0  0  0  0  0  0  0  0  0
    5.5394    1.5331   -0.5123 C   0  0  0  0  0  0  0  0  0  0  0  0
    6.4654    0.3373   -0.6694 C   0  0  0  0  0  0  0  0  0  0  0  0
    0.0070   -1.8015    1.4308 N   0  0  0  0  0  0  0  0  0  0  0  0
   -1.2739   -1.8239    1.3063 C   0  0  0  0  0  0  0  0  0  0  0  0
   -2.1838   -2.7264    1.8595 N   0  0  0  0  0  0  0  0  0  0  0  0
   -1.8186   -4.1130    2.0781 C   0  0  0  0  0  0  0  0  0  0  0  0
   -4.2130   -2.4178    1.9024 H   0  0  0  0  0  0  0  0  0  0  0  0
   -4.1359   -0.8223    0.0998 H   0  0  0  0  0  0  0  0  0  0  0  0
   -2.8348    0.7304   -2.9987 H   0  0  0  0  0  0  0  0  0  0  0  0
   -5.2239    1.1978   -3.5323 H   0  0  0  0  0  0  0  0  0  0  0  0
   -5.7644    2.9751    0.3264 H   0  0  0  0  0  0  0  0  0  0  0  0
    2.3239   -1.5086    1.6579 H   0  0  0  0  0  0  0  0  0  0  0  0
    2.4747    1.1778    0.8848 H   0  0  0  0  0  0  0  0  0  0  0  0
    3.8218    0.1101    1.2588 H   0  0  0  0  0  0  0  0  0  0  0  0
    3.8696   -0.7517   -1.0675 H   0  0  0  0  0  0  0  0  0  0  0  0
    2.4530    0.1853   -1.4815 H   0  0  0  0  0  0  0  0  0  0  0  0
    4.4202    1.3030   -2.3355 H   0  0  0  0  0  0  0  0  0  0  0  0
    3.6324    2.3034   -1.1272 H   0  0  0  0  0  0  0  0  0  0  0  0
    5.3586    1.7192    0.5519 H   0  0  0  0  0  0  0  0  0  0  0  0
    6.0520    2.4229   -0.8977 H   0  0  0  0  0  0  0  0  0  0  0  0
    6.6444    0.1148   -1.7261 H   0  0  0  0  0  0  0  0  0  0  0  0
    7.4316    0.5462   -0.1990 H   0  0  0  0  0  0  0  0  0  0  0  0
    6.0515   -0.5558   -0.1921 H   0  0  0  0  0  0  0  0  0  0  0  0
   -0.9212   -4.1816    2.7013 H   0  0  0  0  0  0  0  0  0  0  0  0
   -2.6255   -4.6421    2.5956 H   0  0  0  0  0  0  0  0  0  0  0  0
   -1.6247   -4.6193    1.1267 H   0  0  0  0  0  0  0  0  0  0  0  0
  1  2  1  0
  2  3  2  0
  3  4  1  0
  4  5  2  3
  5  6  1  0
  6  7  2  0
  7  8  1  0
  8  9  2  0
  9 10  1  0
  9 11  1  0
 11 12  2  0
 12 13  1  0
  4 14  1  0
 14 15  2  0
 15 16  1  0
 16 17  1  0
 17 18  1  0
 18 19  1  0
 19 20  1  0
 20 21  1  0
 15 22  1  0
 22 23  2  0
 23 24  1  0
 24 25  1  0
 24  1  1  0
 23  3  1  0
 12  6  1  0
  1 26  1  0
  2 27  1  0
  7 28  1  0
  8 29  1  0
 11 30  1  0
 16 31  1  0
 17 32  1  0
 17 33  1  0
 18 34  1  0
 18 35  1  0
 19 36  1  0
 19 37  1  0
 20 38  1  0
 20 39  1  0
 21 40  1  0
 21 41  1  0
 21 42  1  0
 25 43  1  0
 25 44  1  0
 25 45  1  0
M  END
>  <ScrubInfo>  (5) 
{"isomerGroup": 0, "isomerId": 4, "confId": 0, "nr_conformers:": 1, "nr_isomers:": 9}

$$$$
_i5
     RDKit          3D

 45 47  0  0  0  0  0  0  0  0999 V2000
    0.3083    2.5005    0.3126 N   0  0  0  0  0  0  0  0  0  0  0  0
    0.2172    1.2324   -0.2129 C   0  0  0  0  0  0  0  0  0  0  0  0
    1.4036    0.6770   -0.6010 N   0  0  0  0  0  0  0  0  0  0  0  0
    2.5056    0.5372    0.3448 C   0  0  0  0  0  0  0  0  0  0  0  0
    3.7171   -0.1212   -0.3180 C   0  0  0  0  0  0  0  0  0  0  0  0
    3.5087   -1.5582   -0.8124 C   0  0  0  0  0  0  0  0  0  0  0  0
    3.0738   -2.5288    0.2858 C   0  0  0  0  0  0  0  0  0  0  0  0
    3.0080   -3.9579   -0.2315 C   0  0  0  0  0  0  0  0  0  0  0  0
   -0.8832    0.5503   -0.3768 N   0  0  0  0  0  0  0  0  0  0  0  0
   -2.0877    1.1112    0.0306 C   0  0  0  0  0  0  0  0  0  0  0  0
   -3.2293    0.5034   -0.0378 N   0  0  0  0  0  0  0  0  0  0  0  0
   -3.2392   -0.8155   -0.5271 C   0  0  0  0  0  0  0  0  0  0  0  0
   -3.6254   -1.0271   -1.8580 C   0  0  0  0  0  0  0  0  0  0  0  0
   -3.6675   -2.3167   -2.3897 C   0  0  0  0  0  0  0  0  0  0  0  0
   -3.3330   -3.3991   -1.5849 C   0  0  0  0  0  0  0  0  0  0  0  0
   -3.3730   -4.6361   -2.0969 F   0  0  0  0  0  0  0  0  0  0  0  0
   -2.9631   -3.2219   -0.2581 C   0  0  0  0  0  0  0  0  0  0  0  0
   -2.9215   -1.9312    0.2722 C   0  0  0  0  0  0  0  0  0  0  0  0
   -2.4759   -1.7522    1.9345 Cl  0  0  0  0  0  0  0  0  0  0  0  0
   -2.0464    2.4539    0.5493 C   0  0  0  0  0  0  0  0  0  0  0  0
   -2.9852    3.3850    1.0118 C   0  0  0  0  0  0  0  0  0  0  0  0
   -2.4128    4.5439    1.3793 N   0  0  0  0  0  0  0  0  0  0  0  0
   -1.0908    4.3385    1.1532 N   0  0  0  0  0  0  0  0  0  0  0  0
   -0.1570    5.3937    1.4514 C   0  0  0  0  0  0  0  0  0  0  0  0
   -0.8445    3.0957    0.6637 C   0  0  0  0  0  0  0  0  0  0  0  0
    1.1859    2.9875    0.1940 H   0  0  0  0  0  0  0  0  0  0  0  0
    1.1807   -0.2249   -1.0190 H   0  0  0  0  0  0  0  0  0  0  0  0
    2.8123    1.5264    0.7037 H   0  0  0  0  0  0  0  0  0  0  0  0
    2.1797   -0.0348    1.2202 H   0  0  0  0  0  0  0  0  0  0  0  0
    4.0376    0.4915   -1.1701 H   0  0  0  0  0  0  0  0  0  0  0  0
    4.5475   -0.1157    0.3992 H   0  0  0  0  0  0  0  0  0  0  0  0
    4.4556   -1.9061   -1.2446 H   0  0  0  0  0  0  0  0  0  0  0  0
    2.7778   -1.5727   -1.6291 H   0  0  0  0  0  0  0  0  0  0  0  0
    2.0855   -2.2524    0.6686 H   0  0  0  0  0  0  0  0  0  0  0  0
    3.7765   -2.4819    1.1255 H   0  0  0  0  0  0  0  0  0  0  0  0
    2.2916   -4.0440   -1.0547 H   0  0  0  0  0  0  0  0  0  0  0  0
    2.6909   -4.6356    0.5673 H   0  0  0  0  0  0  0  0  0  0  0  0
    3.9869   -4.2911   -0.5906 H   0  0  0  0  0  0  0  0  0  0  0  0
   -3.8891   -0.1755   -2.4799 H   0  0  0  0  0  0  0  0  0  0  0  0
   -3.9599   -2.4808   -3.4219 H   0  0  0  0  0  0  0  0  0  0  0  0
   -2.7162   -4.0867    0.3481 H   0  0  0  0  0  0  0  0  0  0  0  0
   -4.0591    3.2747    1.0925 H   0  0  0  0  0  0  0  0  0  0  0  0
    0.8642    5.0461    1.2813 H   0  0  0  0  0  0  0  0  0  0  0  0
   -0.3756    6.2409    0.7966 H   0  0  0  0  0  0  0  0  0  0  0  0
   -0.2796    5.6785    2.4994 H   0  0  0  0  0  0  0  0  0  0  0  0
  1  2  1  0
  2  3  1  0
  3  4  1  0
  4  5  1  0
  5  6  1  0
  6  7  1  0
  7  8  1  0
  2  9  2  0
  9 10  1  0
 10 11  2  3
 11 12  1  0
 12 13  2  0
 13 14  1  0
 14 15  2  0
 15 16  1  0
 15 17  1  0
 17 18  2  0
 18 19  1  0
 10 20  1  0
 20 21  1  0
 21 22  2  0
 22 23  1  0
 23 24  1  0
 23 25  1  0
 25  1  1  0
 18 12  1  0
 25 20  2  0
  1 26  1  0
  3 27  1  0
  4 28  1  0
  4 29  1  0
  5 30  1  0
  5 31  1  0
  6 32  1  0
  6 33  1  0
  7 34  1  0
  7 35  1  0
  8 36  1  0
  8 37  1  0
  8 38  1  0
 13 39  1  0
 14 40  1  0
 17 41  1  0
 21 42  1  0
 24 43  1  0
 24 44  1  0
 24 45  1  0
M  END
>  <ScrubInfo>  (6) 
{"isomerGroup": 0, "isomerId": 5, "confId": 0, "nr_conformers:": 1, "nr_isomers:": 9}

$$$$
_i6
     RDKit          3D

 45 47  0  0  0  0  0  0  0  0999 V2000
   -2.7034   -1.8541   -2.5835 N   0  0  0  0  0  0  0  0  0  0  0  0
   -2.9075   -0.7660   -1.7413 C   0  0  0  0  0  0  0  0  0  0  0  0
   -1.8439   -0.4900   -0.9744 C   0  0  0  0  0  0  0  0  0  0  0  0
   -1.4296    0.4831    0.0350 C   0  0  0  0  0  0  0  0  0  0  0  0
   -2.2399    1.4868    0.5284 N   0  0  0  0  0  0  0  0  0  0  0  0
   -3.6148    1.3123    0.8172 C   0  0  0  0  0  0  0  0  0  0  0  0
   -4.4968    2.2968    0.3400 C   0  0  0  0  0  0  0  0  0  0  0  0
   -5.8617    2.2330    0.6236 C   0  0  0  0  0  0  0  0  0  0  0  0
   -6.3480    1.1992    1.4123 C   0  0  0  0  0  0  0  0  0  0  0  0
   -7.6573    1.1392    1.6848 F   0  0  0  0  0  0  0  0  0  0  0  0
   -5.4964    0.2360    1.9355 C   0  0  0  0  0  0  0  0  0  0  0  0
   -4.1299    0.2996    1.6530 C   0  0  0  0  0  0  0  0  0  0  0  0
   -3.1132   -0.8833    2.3970 Cl  0  0  0  0  0  0  0  0  0  0  0  0
   -0.2058    0.4261    0.4861 N   0  0  0  0  0  0  0  0  0  0  0  0
    0.6376   -0.5581    0.0083 C   0  0  0  0  0  0  0  0  0  0  0  0
    1.8623   -0.5851    0.4006 N   0  0  0  0  0  0  0  0  0  0  0  0
    2.3003    0.4391    1.3438 C   0  0  0  0  0  0  0  0  0  0  0  0
    3.7827    0.2272    1.6568 C   0  0  0  0  0  0  0  0  0  0  0  0
    4.6820    0.5016    0.4477 C   0  0  0  0  0  0  0  0  0  0  0  0
    6.1581    0.3230    0.8035 C   0  0  0  0  0  0  0  0  0  0  0  0
    7.0563    0.5948   -0.3928 C   0  0  0  0  0  0  0  0  0  0  0  0
    0.3170   -1.5608   -0.8751 N   0  0  0  0  0  0  0  0  0  0  0  0
   -0.8790   -1.5456   -1.3490 C   0  0  0  0  0  0  0  0  0  0  0  0
   -1.4777   -2.4230   -2.2535 N   0  0  0  0  0  0  0  0  0  0  0  0
   -0.6949   -3.0741   -3.2866 C   0  0  0  0  0  0  0  0  0  0  0  0
   -3.4980   -2.4969   -2.6200 H   0  0  0  0  0  0  0  0  0  0  0  0
   -3.8590   -0.2559   -1.7704 H   0  0  0  0  0  0  0  0  0  0  0  0
   -1.7698    1.9489    1.3052 H   0  0  0  0  0  0  0  0  0  0  0  0
   -4.1182    3.1140   -0.2719 H   0  0  0  0  0  0  0  0  0  0  0  0
   -6.5447    2.9852    0.2398 H   0  0  0  0  0  0  0  0  0  0  0  0
   -5.9042   -0.5448    2.5701 H   0  0  0  0  0  0  0  0  0  0  0  0
    1.7365    0.3568    2.2811 H   0  0  0  0  0  0  0  0  0  0  0  0
    2.1551    1.4460    0.9340 H   0  0  0  0  0  0  0  0  0  0  0  0
    3.9434   -0.7987    2.0104 H   0  0  0  0  0  0  0  0  0  0  0  0
    4.0661    0.8996    2.4756 H   0  0  0  0  0  0  0  0  0  0  0  0
    4.4220   -0.1763   -0.3739 H   0  0  0  0  0  0  0  0  0  0  0  0
    4.5123    1.5241    0.0889 H   0  0  0  0  0  0  0  0  0  0  0  0
    6.3341   -0.6983    1.1606 H   0  0  0  0  0  0  0  0  0  0  0  0
    6.4300    1.0035    1.6188 H   0  0  0  0  0  0  0  0  0  0  0  0
    6.8322   -0.0915   -1.2156 H   0  0  0  0  0  0  0  0  0  0  0  0
    8.1068    0.4616   -0.1160 H   0  0  0  0  0  0  0  0  0  0  0  0
    6.9277    1.6197   -0.7551 H   0  0  0  0  0  0  0  0  0  0  0  0
   -1.3130   -3.7904   -3.8375 H   0  0  0  0  0  0  0  0  0  0  0  0
   -0.2982   -2.3396   -3.9952 H   0  0  0  0  0  0  0  0  0  0  0  0
    0.1425   -3.6249   -2.8463 H   0  0  0  0  0  0  0  0  0  0  0  0
  1  2  1  0
  2  3  2  0
  3  4  1  0
  4  5  1  0
  5  6  1  0
  6  7  2  0
  7  8  1  0
  8  9  2  0
  9 10  1  0
  9 11  1  0
 11 12  2  0
 12 13  1  0
  4 14  2  0
 14 15  1  0
 15 16  2  3
 16 17  1  0
 17 18  1  0
 18 19  1  0
 19 20  1  0
 20 21  1  0
 15 22  1  0
 22 23  2  0
 23 24  1  0
 24 25  1  0
 24  1  1  0
 23  3  1  0
 12  6  1  0
  1 26  1  0
  2 27  1  0
  5 28  1  0
  7 29  1  0
  8 30  1  0
 11 31  1  0
 17 32  1  0
 17 33  1  0
 18 34  1  0
 18 35  1  0
 19 36  1  0
 19 37  1  0
 20 38  1  0
 20 39  1  0
 21 40  1  0
 21 41  1  0
 21 42  1  0
 25 43  1  0
 25 44  1  0
 25 45  1  0
M  END
>  <ScrubInfo>  (7) 
{"isomerGroup": 0, "isomerId": 6, "confId": 0, "nr_conformers:": 1, "nr_isomers:": 9}

$$$$
_i7
     RDKit          3D

 45 47  0  0  0  0  0  0  0  0999 V2000
   -2.4943   -1.0805    2.3585 N   0  0  0  0  0  0  0  0  0  0  0  0
   -2.8585   -0.5046    1.1466 C   0  0  0  0  0  0  0  0  0  0  0  0
   -1.8279   -0.3187    0.3093 C   0  0  0  0  0  0  0  0  0  0  0  0
   -1.5471    0.1706   -1.0552 C   0  0  0  0  0  0  0  0  0  0  0  0
   -2.3609    0.6821   -1.9313 N   0  0  0  0  0  0  0  0  0  0  0  0
   -3.7191    0.8724   -1.6389 C   0  0  0  0  0  0  0  0  0  0  0  0
   -4.6349   -0.0967   -2.0704 C   0  0  0  0  0  0  0  0  0  0  0  0
   -6.0014    0.0640   -1.8365 C   0  0  0  0  0  0  0  0  0  0  0  0
   -6.4544    1.2040   -1.1830 C   0  0  0  0  0  0  0  0  0  0  0  0
   -7.7655    1.3548   -0.9573 F   0  0  0  0  0  0  0  0  0  0  0  0
   -5.5718    2.1899   -0.7614 C   0  0  0  0  0  0  0  0  0  0  0  0
   -4.2056    2.0275   -0.9958 C   0  0  0  0  0  0  0  0  0  0  0  0
   -3.1339    3.2715   -0.4563 Cl  0  0  0  0  0  0  0  0  0  0  0  0
   -0.2280    0.0331   -1.3906 N   0  0  0  0  0  0  0  0  0  0  0  0
    0.7809   -0.4618   -0.6145 C   0  0  0  0  0  0  0  0  0  0  0  0
    1.9694   -0.5252   -1.1195 N   0  0  0  0  0  0  0  0  0  0  0  0
    3.0329   -1.0502   -0.2629 C   0  0  0  0  0  0  0  0  0  0  0  0
    4.3587   -0.9988   -1.0244 C   0  0  0  0  0  0  0  0  0  0  0  0
    4.8089    0.4066   -1.4424 C   0  0  0  0  0  0  0  0  0  0  0  0
    4.9728    1.4179   -0.3055 C   0  0  0  0  0  0  0  0  0  0  0  0
    5.9939    0.9971    0.7396 C   0  0  0  0  0  0  0  0  0  0  0  0
    0.5546   -0.8851    0.6779 N   0  0  0  0  0  0  0  0  0  0  0  0
   -0.6595   -0.8068    1.1262 C   0  0  0  0  0  0  0  0  0  0  0  0
   -1.1103   -1.1599    2.4000 N   0  0  0  0  0  0  0  0  0  0  0  0
   -0.4840   -2.2350    3.1454 C   0  0  0  0  0  0  0  0  0  0  0  0
   -2.9427   -0.6433    3.1673 H   0  0  0  0  0  0  0  0  0  0  0  0
   -3.9007   -0.2714    0.9918 H   0  0  0  0  0  0  0  0  0  0  0  0
   -4.2759   -0.9777   -2.5975 H   0  0  0  0  0  0  0  0  0  0  0  0
   -6.7125   -0.6868   -2.1676 H   0  0  0  0  0  0  0  0  0  0  0  0
   -5.9562    3.0732   -0.2621 H   0  0  0  0  0  0  0  0  0  0  0  0
    0.0479    0.3431   -2.3102 H   0  0  0  0  0  0  0  0  0  0  0  0
    3.1148   -0.4799    0.6691 H   0  0  0  0  0  0  0  0  0  0  0  0
    2.8270   -2.0969   -0.0067 H   0  0  0  0  0  0  0  0  0  0  0  0
    5.1381   -1.4673   -0.4123 H   0  0  0  0  0  0  0  0  0  0  0  0
    4.2720   -1.6109   -1.9313 H   0  0  0  0  0  0  0  0  0  0  0  0
    5.7639    0.3161   -1.9754 H   0  0  0  0  0  0  0  0  0  0  0  0
    4.0951    0.8141   -2.1687 H   0  0  0  0  0  0  0  0  0  0  0  0
    4.0088    1.6081    0.1788 H   0  0  0  0  0  0  0  0  0  0  0  0
    5.2927    2.3733   -0.7392 H   0  0  0  0  0  0  0  0  0  0  0  0
    6.9628    0.7822    0.2780 H   0  0  0  0  0  0  0  0  0  0  0  0
    6.1373    1.8004    1.4693 H   0  0  0  0  0  0  0  0  0  0  0  0
    5.6655    0.1083    1.2862 H   0  0  0  0  0  0  0  0  0  0  0  0
    0.5910   -2.0570    3.2504 H   0  0  0  0  0  0  0  0  0  0  0  0
   -0.9110   -2.3001    4.1515 H   0  0  0  0  0  0  0  0  0  0  0  0
   -0.6332   -3.1956    2.6414 H   0  0  0  0  0  0  0  0  0  0  0  0
  1  2  1  0
  2  3  2  0
  3  4  1  0
  4  5  2  3
  5  6  1  0
  6  7  2  0
  7  8  1  0
  8  9  2  0
  9 10  1  0
  9 11  1  0
 11 12  2  0
 12 13  1  0
  4 14  1  0
 14 15  1  0
 15 16  2  3
 16 17  1  0
 17 18  1  0
 18 19  1  0
 19 20  1  0
 20 21  1  0
 15 22  1  0
 22 23  2  0
 23 24  1  0
 24 25  1  0
 24  1  1  0
 23  3  1  0
 12  6  1  0
  1 26  1  0
  2 27  1  0
  7 28  1  0
  8 29  1  0
 11 30  1  0
 14 31  1  0
 17 32  1  0
 17 33  1  0
 18 34  1  0
 18 35  1  0
 19 36  1  0
 19 37  1  0
 20 38  1  0
 20 39  1  0
 21 40  1  0
 21 41  1  0
 21 42  1  0
 25 43  1  0
 25 44  1  0
 25 45  1  0
M  END
>  <ScrubInfo>  (8) 
{"isomerGroup": 0, "isomerId": 7, "confId": 0, "nr_conformers:": 1, "nr_isomers:": 9}

$$$$
_i8
     RDKit          3D

 45 47  0  0  0  0  0  0  0  0999 V2000
    0.3876   -1.1548    1.1993 N   0  0  0  0  0  0  0  0  0  0  0  0
    0.0412   -0.0736    0.4026 C   0  0  0  0  0  0  0  0  0  0  0  0
    0.8252    0.7052   -0.2643 N   0  0  0  0  0  0  0  0  0  0  0  0
    2.2632    0.4549   -0.2077 C   0  0  0  0  0  0  0  0  0  0  0  0
    2.9622    1.5029   -1.0729 C   0  0  0  0  0  0  0  0  0  0  0  0
    4.4900    1.4349   -1.0002 C   0  0  0  0  0  0  0  0  0  0  0  0
    5.1173    0.1127   -1.4483 C   0  0  0  0  0  0  0  0  0  0  0  0
    4.7992   -0.2533   -2.8895 C   0  0  0  0  0  0  0  0  0  0  0  0
   -1.3182    0.1648    0.3459 N   0  0  0  0  0  0  0  0  0  0  0  0
   -2.3790   -0.4890    0.9407 C   0  0  0  0  0  0  0  0  0  0  0  0
   -3.6523   -0.2745    0.8967 N   0  0  0  0  0  0  0  0  0  0  0  0
   -4.1273    0.7887    0.1107 C   0  0  0  0  0  0  0  0  0  0  0  0
   -4.4477    1.9936    0.7501 C   0  0  0  0  0  0  0  0  0  0  0  0
   -4.9420    3.0754    0.0200 C   0  0  0  0  0  0  0  0  0  0  0  0
   -5.1266    2.9485   -1.3517 C   0  0  0  0  0  0  0  0  0  0  0  0
   -5.6005    3.9879   -2.0501 F   0  0  0  0  0  0  0  0  0  0  0  0
   -4.8304    1.7620   -2.0099 C   0  0  0  0  0  0  0  0  0  0  0  0
   -4.3368    0.6810   -1.2781 C   0  0  0  0  0  0  0  0  0  0  0  0
   -3.9780   -0.7804   -2.1282 Cl  0  0  0  0  0  0  0  0  0  0  0  0
   -1.9119   -1.5935    1.7448 C   0  0  0  0  0  0  0  0  0  0  0  0
   -2.5258   -2.5662    2.5471 C   0  0  0  0  0  0  0  0  0  0  0  0
   -1.6353   -3.3976    3.1094 N   0  0  0  0  0  0  0  0  0  0  0  0
   -0.4405   -2.9551    2.6474 N   0  0  0  0  0  0  0  0  0  0  0  0
    0.7596   -3.6396    3.0571 C   0  0  0  0  0  0  0  0  0  0  0  0
   -0.5695   -1.8708    1.8330 C   0  0  0  0  0  0  0  0  0  0  0  0
    1.3708   -1.3763    1.2737 H   0  0  0  0  0  0  0  0  0  0  0  0
    2.4842   -0.5487   -0.5870 H   0  0  0  0  0  0  0  0  0  0  0  0
    2.6245    0.5343    0.8244 H   0  0  0  0  0  0  0  0  0  0  0  0
    2.6485    2.5031   -0.7464 H   0  0  0  0  0  0  0  0  0  0  0  0
    2.6265    1.4103   -2.1127 H   0  0  0  0  0  0  0  0  0  0  0  0
    4.8057    1.6364    0.0311 H   0  0  0  0  0  0  0  0  0  0  0  0
    4.9017    2.2476   -1.6117 H   0  0  0  0  0  0  0  0  0  0  0  0
    6.2058    0.1955   -1.3424 H   0  0  0  0  0  0  0  0  0  0  0  0
    4.8051   -0.7021   -0.7859 H   0  0  0  0  0  0  0  0  0  0  0  0
    3.7345   -0.4659   -3.0235 H   0  0  0  0  0  0  0  0  0  0  0  0
    5.0805    0.5551   -3.5717 H   0  0  0  0  0  0  0  0  0  0  0  0
    5.3549   -1.1506   -3.1804 H   0  0  0  0  0  0  0  0  0  0  0  0
   -1.5461    0.9491   -0.2455 H   0  0  0  0  0  0  0  0  0  0  0  0
   -4.3156    2.0824    1.8261 H   0  0  0  0  0  0  0  0  0  0  0  0
   -5.1901    4.0104    0.5132 H   0  0  0  0  0  0  0  0  0  0  0  0
   -4.9913    1.6908   -3.0807 H   0  0  0  0  0  0  0  0  0  0  0  0
   -3.5807   -2.7040    2.7478 H   0  0  0  0  0  0  0  0  0  0  0  0
    0.9330   -3.4218    4.1138 H   0  0  0  0  0  0  0  0  0  0  0  0
    0.6174   -4.7129    2.9062 H   0  0  0  0  0  0  0  0  0  0  0  0
    1.6068   -3.2969    2.4598 H   0  0  0  0  0  0  0  0  0  0  0  0
  1  2  1  0
  2  3  2  3
  3  4  1  0
  4  5  1  0
  5  6  1  0
  6  7  1  0
  7  8  1  0
  2  9  1  0
  9 10  1  0
 10 11  2  3
 11 12  1  0
 12 13  2  0
 13 14  1  0
 14 15  2  0
 15 16  1  0
 15 17  1  0
 17 18  2  0
 18 19  1  0
 10 20  1  0
 20 21  1  0
 21 22  2  0
 22 23  1  0
 23 24  1  0
 23 25  1  0
 25  1  1  0
 18 12  1  0
 25 20  2  0
  1 26  1  0
  4 27  1  0
  4 28  1  0
  5 29  1  0
  5 30  1  0
  6 31  1  0
  6 32  1  0
  7 33  1  0
  7 34  1  0
  8 35  1  0
  8 36  1  0
  8 37  1  0
  9 38  1  0
 13 39  1  0
 14 40  1  0
 17 41  1  0
 21 42  1  0
 24 43  1  0
 24 44  1  0
 24 45  1  0
M  END
>  <ScrubInfo>  (9) 
{"isomerGroup": 0, "isomerId": 8, "confId": 0, "nr_conformers:": 1, "nr_isomers:": 9}

$$$$
