REMARK SMILES CCCCCNc1nc(Nc2ccc(F)cc2Cl)c2cnn(C)c2n1
REMARK SMILES IDX 5 1 4 2 3 3 2 4 1 5 6 6 7 8 8 9 25 10 9 11 24 12 19 13 22 14
REMARK SMILES IDX 20 15 21 16 23 17 10 18 11 20 12 21 17 22 13 23 16 24 14 25
REMARK SMILES IDX 18 26 15 27
REMARK H PARENT 6 7 10 19
ROOT
ATOM      1  C   UNL     1       2.963  -0.857   0.846  1.00  0.00     0.116 C 
ENDROOT
BRANCH   1   2
ATOM      2  C   UNL     1       2.980   0.493   1.567  1.00  0.00     0.021 C 
BRANCH   2   3
ATOM      3  C   UNL     1       4.164   1.379   1.169  1.00  0.00     0.002 C 
BRANCH   3   4
ATOM      4  C   UNL     1       4.094   1.863  -0.280  1.00  0.00    -0.003 C 
ATOM      5  C   UNL     1       5.226   2.828  -0.598  1.00  0.00     0.004 C 
ENDBRANCH   3   4
ENDBRANCH   2   3
ENDBRANCH   1   2
BRANCH   1   6
ATOM      6  N   UNL     1       1.893  -1.696   1.358  1.00  0.00    -0.354 N 
ATOM      7  H   UNL     1       2.115  -2.682   1.440  1.00  0.00     0.163 HD
BRANCH   6   8
ATOM      8  C   UNL     1       0.683  -1.634   0.677  1.00  0.00     0.226 A 
ATOM      9  N   UNL     1       0.305  -0.484   0.087  1.00  0.00    -0.195 NA
ATOM     10  N   UNL     1      -0.015  -2.774   0.671  1.00  0.00    -0.193 NA
ATOM     11  C   UNL     1      -0.879  -0.401  -0.569  1.00  0.00     0.147 A 
ATOM     12  C   UNL     1      -1.181  -2.671   0.017  1.00  0.00     0.165 A 
ATOM     13  C   UNL     1      -1.676  -1.547  -0.618  1.00  0.00     0.082 A 
ATOM     14  N   UNL     1      -2.120  -3.650  -0.157  1.00  0.00    -0.250 N 
ATOM     15  C   UNL     1      -2.915  -1.967  -1.144  1.00  0.00     0.149 A 
ATOM     16  N   UNL     1      -3.194  -3.248  -0.873  1.00  0.00    -0.179 NA
ATOM     17  C   UNL     1      -2.063  -5.004   0.334  1.00  0.00     0.176 C 
BRANCH  11  18
ATOM     18  N   UNL     1      -1.170   0.860  -1.139  1.00  0.00    -0.338 N 
ATOM     19  H   UNL     1      -0.548   1.482  -0.617  1.00  0.00     0.168 HD
BRANCH  18  20
ATOM     20  C   UNL     1      -2.468   1.418  -1.219  1.00  0.00     0.059 A 
ATOM     21  C   UNL     1      -3.176   1.301  -2.425  1.00  0.00     0.031 A 
ATOM     22  C   UNL     1      -3.095   2.041  -0.122  1.00  0.00     0.067 A 
ATOM     23  C   UNL     1      -4.474   1.801  -2.535  1.00  0.00     0.041 A 
ATOM     24  C   UNL     1      -4.393   2.539  -0.231  1.00  0.00     0.062 A 
ATOM     25  C   UNL     1      -5.068   2.413  -1.438  1.00  0.00     0.124 A 
ATOM     26  Cl  UNL     1      -2.272   2.228   1.386  1.00  0.00    -0.082 Cl
ATOM     27  F   UNL     1      -6.314   2.891  -1.547  1.00  0.00    -0.207 F 
ENDBRANCH  18  20
ENDBRANCH  11  18
ENDBRANCH   6   8
ENDBRANCH   1   6
TORSDOF 7
