_i0
     RDKit          3D

 41 43  0  0  0  0  0  0  0  0999 V2000
    4.6734    1.2796   -2.4881 C   0  0  0  0  0  0  0  0  0  0  0  0
    3.9412    1.0145   -1.3006 O   0  0  0  0  0  0  0  0  0  0  0  0
    2.5200    1.0827   -1.4862 C   0  0  0  0  0  0  0  0  0  0  0  0
    1.9376   -0.2351   -2.0250 C   0  0  0  0  0  0  0  0  0  0  0  0
    1.9569   -1.2792   -1.0134 N   0  0  0  0  0  0  0  0  0  0  0  0
    0.8487   -1.4828   -0.2192 C   0  0  0  0  0  0  0  0  0  0  0  0
   -0.0161   -0.4678    0.0137 N   0  0  0  0  0  0  0  0  0  0  0  0
   -1.0849   -0.6429    0.8403 C   0  0  0  0  0  0  0  0  0  0  0  0
   -1.9705    0.4036    1.1379 N   0  0  0  0  0  0  0  0  0  0  0  0
   -2.1196    1.7474    0.7329 C   0  0  0  0  0  0  0  0  0  0  0  0
   -2.9816    2.5511    1.5082 C   0  0  0  0  0  0  0  0  0  0  0  0
   -3.1990    3.8984    1.2039 C   0  0  0  0  0  0  0  0  0  0  0  0
   -4.2644    4.8317    2.1819 Cl  0  0  0  0  0  0  0  0  0  0  0  0
   -2.5636    4.4882    0.1200 C   0  0  0  0  0  0  0  0  0  0  0  0
   -1.7038    3.7209   -0.6587 C   0  0  0  0  0  0  0  0  0  0  0  0
   -1.4828    2.3743   -0.3494 C   0  0  0  0  0  0  0  0  0  0  0  0
   -0.6315    1.7307   -1.1985 O   0  0  0  0  0  0  0  0  0  0  0  0
   -1.2524   -1.9169    1.3986 C   0  0  0  0  0  0  0  0  0  0  0  0
   -2.1492   -2.5812    2.2624 C   0  0  0  0  0  0  0  0  0  0  0  0
   -1.8223   -3.8610    2.4703 N   0  0  0  0  0  0  0  0  0  0  0  0
   -0.6981   -4.0163    1.7326 N   0  0  0  0  0  0  0  0  0  0  0  0
   -0.0310   -5.2939    1.7153 C   0  0  0  0  0  0  0  0  0  0  0  0
   -0.3210   -2.8805    1.0694 C   0  0  0  0  0  0  0  0  0  0  0  0
    0.7399   -2.7230    0.2680 N   0  0  0  0  0  0  0  0  0  0  0  0
    5.7395    1.2140   -2.2542 H   0  0  0  0  0  0  0  0  0  0  0  0
    4.4457    0.5455   -3.2653 H   0  0  0  0  0  0  0  0  0  0  0  0
    4.4611    2.2898   -2.8510 H   0  0  0  0  0  0  0  0  0  0  0  0
    2.2753    1.9111   -2.1614 H   0  0  0  0  0  0  0  0  0  0  0  0
    2.0874    1.3205   -0.5091 H   0  0  0  0  0  0  0  0  0  0  0  0
    2.5415   -0.5845   -2.8689 H   0  0  0  0  0  0  0  0  0  0  0  0
    0.9258   -0.0812   -2.4161 H   0  0  0  0  0  0  0  0  0  0  0  0
    2.3400   -2.1745   -1.2874 H   0  0  0  0  0  0  0  0  0  0  0  0
   -2.6505    0.1328    1.8380 H   0  0  0  0  0  0  0  0  0  0  0  0
   -3.4934    2.1281    2.3694 H   0  0  0  0  0  0  0  0  0  0  0  0
   -2.7289    5.5337   -0.1231 H   0  0  0  0  0  0  0  0  0  0  0  0
   -1.1984    4.1666   -1.5117 H   0  0  0  0  0  0  0  0  0  0  0  0
   -0.4276    0.8738   -0.7679 H   0  0  0  0  0  0  0  0  0  0  0  0
   -3.0320   -2.1901    2.7509 H   0  0  0  0  0  0  0  0  0  0  0  0
   -0.7310   -6.0418    1.3343 H   0  0  0  0  0  0  0  0  0  0  0  0
    0.8493   -5.2486    1.0704 H   0  0  0  0  0  0  0  0  0  0  0  0
    0.2702   -5.5379    2.7372 H   0  0  0  0  0  0  0  0  0  0  0  0
  1  2  1  0
  2  3  1  0
  3  4  1  0
  4  5  1  0
  5  6  1  0
  6  7  2  0
  7  8  1  0
  8  9  1  0
  9 10  1  0
 10 11  2  0
 11 12  1  0
 12 13  1  0
 12 14  2  0
 14 15  1  0
 15 16  2  0
 16 17  1  0
  8 18  2  0
 18 19  1  0
 19 20  2  0
 20 21  1  0
 21 22  1  0
 21 23  1  0
 23 24  2  0
 24  6  1  0
 16 10  1  0
 23 18  1  0
  1 25  1  0
  1 26  1  0
  1 27  1  0
  3 28  1  0
  3 29  1  0
  4 30  1  0
  4 31  1  0
  5 32  1  0
  9 33  1  0
 11 34  1  0
 14 35  1  0
 15 36  1  0
 17 37  1  0
 19 38  1  0
 22 39  1  0
 22 40  1  0
 22 41  1  0
M  END
>  <ScrubInfo>  (1) 
{"isomerGroup": 0, "isomerId": 0, "confId": 0, "nr_conformers:": 1, "nr_isomers:": 9}

$$$$
_i1
     RDKit          3D

 41 43  0  0  0  0  0  0  0  0999 V2000
   -1.2878    0.1925   -0.2465 N   0  0  0  0  0  0  0  0  0  0  0  0
   -0.0130   -0.0117   -0.7405 C   0  0  0  0  0  0  0  0  0  0  0  0
    0.5891   -1.2604   -0.6328 N   0  0  0  0  0  0  0  0  0  0  0  0
    1.9317   -1.4495   -0.1986 C   0  0  0  0  0  0  0  0  0  0  0  0
    2.5253   -0.6660    0.7971 C   0  0  0  0  0  0  0  0  0  0  0  0
    3.8127   -0.9702    1.2482 C   0  0  0  0  0  0  0  0  0  0  0  0
    4.5406    0.0090    2.4622 Cl  0  0  0  0  0  0  0  0  0  0  0  0
    4.5101   -2.0659    0.7376 C   0  0  0  0  0  0  0  0  0  0  0  0
    3.9155   -2.8736   -0.2300 C   0  0  0  0  0  0  0  0  0  0  0  0
    2.6377   -2.5635   -0.6801 C   0  0  0  0  0  0  0  0  0  0  0  0
    2.0779   -3.3658   -1.6366 O   0  0  0  0  0  0  0  0  0  0  0  0
    0.5429    1.0436   -1.3484 C   0  0  0  0  0  0  0  0  0  0  0  0
    1.7718    1.3618   -2.0847 C   0  0  0  0  0  0  0  0  0  0  0  0
    1.8126    2.6027   -2.5017 N   0  0  0  0  0  0  0  0  0  0  0  0
    0.6329    3.1949   -2.0230 N   0  0  0  0  0  0  0  0  0  0  0  0
    0.2262    4.4753   -2.5484 C   0  0  0  0  0  0  0  0  0  0  0  0
   -0.2091    2.3152   -1.3628 C   0  0  0  0  0  0  0  0  0  0  0  0
   -1.3800    2.4996   -0.8580 N   0  0  0  0  0  0  0  0  0  0  0  0
   -1.9466    1.4010   -0.2499 C   0  0  0  0  0  0  0  0  0  0  0  0
   -3.0903    1.6502    0.2780 N   0  0  0  0  0  0  0  0  0  0  0  0
   -3.8910    0.5990    0.9094 C   0  0  0  0  0  0  0  0  0  0  0  0
   -3.2392    0.0265    2.1728 C   0  0  0  0  0  0  0  0  0  0  0  0
   -2.4026   -1.0989    1.8338 O   0  0  0  0  0  0  0  0  0  0  0  0
   -3.1123   -2.3336    1.9207 C   0  0  0  0  0  0  0  0  0  0  0  0
   -1.6499   -0.5129    0.3865 H   0  0  0  0  0  0  0  0  0  0  0  0
   -0.0021   -1.8803   -0.0749 H   0  0  0  0  0  0  0  0  0  0  0  0
    1.9921    0.1726    1.2371 H   0  0  0  0  0  0  0  0  0  0  0  0
    5.5098   -2.2992    1.0948 H   0  0  0  0  0  0  0  0  0  0  0  0
    4.4426   -3.7347   -0.6308 H   0  0  0  0  0  0  0  0  0  0  0  0
    1.2667   -2.9068   -1.9270 H   0  0  0  0  0  0  0  0  0  0  0  0
    2.5409    0.6012   -2.2685 H   0  0  0  0  0  0  0  0  0  0  0  0
   -0.3302    4.3444   -3.4817 H   0  0  0  0  0  0  0  0  0  0  0  0
    1.0978    5.1062   -2.7506 H   0  0  0  0  0  0  0  0  0  0  0  0
   -0.4110    5.0062   -1.8340 H   0  0  0  0  0  0  0  0  0  0  0  0
   -4.8408    1.0641    1.1960 H   0  0  0  0  0  0  0  0  0  0  0  0
   -4.1242   -0.1827    0.1777 H   0  0  0  0  0  0  0  0  0  0  0  0
   -4.0015   -0.2799    2.8986 H   0  0  0  0  0  0  0  0  0  0  0  0
   -2.6027    0.7760    2.6549 H   0  0  0  0  0  0  0  0  0  0  0  0
   -3.4187   -2.5225    2.9540 H   0  0  0  0  0  0  0  0  0  0  0  0
   -2.4394   -3.1353    1.6050 H   0  0  0  0  0  0  0  0  0  0  0  0
   -3.9846   -2.3285    1.2610 H   0  0  0  0  0  0  0  0  0  0  0  0
  1  2  1  0
  2  3  1  0
  3  4  1  0
  4  5  2  0
  5  6  1  0
  6  7  1  0
  6  8  2  0
  8  9  1  0
  9 10  2  0
 10 11  1  0
  2 12  2  0
 12 13  1  0
 13 14  2  0
 14 15  1  0
 15 16  1  0
 15 17  1  0
 17 18  2  0
 18 19  1  0
 19 20  2  3
 20 21  1  0
 21 22  1  0
 22 23  1  0
 23 24  1  0
 19  1  1  0
 10  4  1  0
 17 12  1  0
  1 25  1  0
  3 26  1  0
  5 27  1  0
  8 28  1  0
  9 29  1  0
 11 30  1  0
 13 31  1  0
 16 32  1  0
 16 33  1  0
 16 34  1  0
 21 35  1  0
 21 36  1  0
 22 37  1  0
 22 38  1  0
 24 39  1  0
 24 40  1  0
 24 41  1  0
M  END
>  <ScrubInfo>  (2) 
{"isomerGroup": 0, "isomerId": 1, "confId": 0, "nr_conformers:": 1, "nr_isomers:": 9}

$$$$
_i2
     RDKit          3D

 41 43  0  0  0  0  0  0  0  0999 V2000
    0.9841   -0.6545    0.8618 N   0  0  0  0  0  0  0  0  0  0  0  0
    1.7502    0.3774    1.3376 C   0  0  0  0  0  0  0  0  0  0  0  0
    3.0769    0.1082    1.5219 N   0  0  0  0  0  0  0  0  0  0  0  0
    3.8993   -0.5101    0.4856 C   0  0  0  0  0  0  0  0  0  0  0  0
    4.0182    0.3789   -0.7595 C   0  0  0  0  0  0  0  0  0  0  0  0
    4.8946   -0.1989   -1.7293 O   0  0  0  0  0  0  0  0  0  0  0  0
    4.2351   -1.1223   -2.5872 C   0  0  0  0  0  0  0  0  0  0  0  0
    1.2885    1.5712    1.6087 N   0  0  0  0  0  0  0  0  0  0  0  0
   -0.0461    1.6606    1.3418 C   0  0  0  0  0  0  0  0  0  0  0  0
   -0.8981    0.6803    0.8525 C   0  0  0  0  0  0  0  0  0  0  0  0
   -2.1521    1.3122    0.7904 C   0  0  0  0  0  0  0  0  0  0  0  0
   -2.1120    2.5903    1.1884 N   0  0  0  0  0  0  0  0  0  0  0  0
   -0.8144    2.7766    1.5212 N   0  0  0  0  0  0  0  0  0  0  0  0
   -0.3907    4.0615    2.0174 C   0  0  0  0  0  0  0  0  0  0  0  0
   -0.3610   -0.6384    0.5750 C   0  0  0  0  0  0  0  0  0  0  0  0
   -0.9725   -1.7003    0.1473 N   0  0  0  0  0  0  0  0  0  0  0  0
   -2.3270   -1.6853   -0.2063 C   0  0  0  0  0  0  0  0  0  0  0  0
   -3.2670   -2.2162    0.6801 C   0  0  0  0  0  0  0  0  0  0  0  0
   -4.6151   -2.2523    0.3279 C   0  0  0  0  0  0  0  0  0  0  0  0
   -5.7684   -2.8968    1.4306 Cl  0  0  0  0  0  0  0  0  0  0  0  0
   -5.0398   -1.7732   -0.9117 C   0  0  0  0  0  0  0  0  0  0  0  0
   -4.1087   -1.2581   -1.8150 C   0  0  0  0  0  0  0  0  0  0  0  0
   -2.7596   -1.2231   -1.4624 C   0  0  0  0  0  0  0  0  0  0  0  0
   -1.8360   -0.7167   -2.3381 O   0  0  0  0  0  0  0  0  0  0  0  0
    1.4012   -1.5690    0.8199 H   0  0  0  0  0  0  0  0  0  0  0  0
    3.5300    0.9386    1.9005 H   0  0  0  0  0  0  0  0  0  0  0  0
    3.5098   -1.4991    0.2227 H   0  0  0  0  0  0  0  0  0  0  0  0
    4.9005   -0.6914    0.8941 H   0  0  0  0  0  0  0  0  0  0  0  0
    3.0393    0.5947   -1.2042 H   0  0  0  0  0  0  0  0  0  0  0  0
    4.4540    1.3419   -0.4702 H   0  0  0  0  0  0  0  0  0  0  0  0
    4.9692   -1.5141   -3.2965 H   0  0  0  0  0  0  0  0  0  0  0  0
    3.4419   -0.6213   -3.1504 H   0  0  0  0  0  0  0  0  0  0  0  0
    3.8222   -1.9597   -2.0184 H   0  0  0  0  0  0  0  0  0  0  0  0
   -3.1067    0.9136    0.4794 H   0  0  0  0  0  0  0  0  0  0  0  0
   -0.8862    4.2387    2.9753 H   0  0  0  0  0  0  0  0  0  0  0  0
    0.6931    4.0753    2.1509 H   0  0  0  0  0  0  0  0  0  0  0  0
   -0.6807    4.8249    1.2907 H   0  0  0  0  0  0  0  0  0  0  0  0
   -2.9380   -2.6010    1.6411 H   0  0  0  0  0  0  0  0  0  0  0  0
   -6.0929   -1.8039   -1.1802 H   0  0  0  0  0  0  0  0  0  0  0  0
   -4.4499   -0.8931   -2.7788 H   0  0  0  0  0  0  0  0  0  0  0  0
   -2.2854   -0.4464   -3.1545 H   0  0  0  0  0  0  0  0  0  0  0  0
  1  2  1  0
  2  3  1  0
  3  4  1  0
  4  5  1  0
  5  6  1  0
  6  7  1  0
  2  8  2  0
  8  9  1  0
  9 10  2  0
 10 11  1  0
 11 12  2  0
 12 13  1  0
 13 14  1  0
 10 15  1  0
 15 16  2  3
 16 17  1  0
 17 18  2  0
 18 19  1  0
 19 20  1  0
 19 21  2  0
 21 22  1  0
 22 23  2  0
 23 24  1  0
 15  1  1  0
 23 17  1  0
 13  9  1  0
  1 25  1  0
  3 26  1  0
  4 27  1  0
  4 28  1  0
  5 29  1  0
  5 30  1  0
  7 31  1  0
  7 32  1  0
  7 33  1  0
 11 34  1  0
 14 35  1  0
 14 36  1  0
 14 37  1  0
 18 38  1  0
 21 39  1  0
 22 40  1  0
 24 41  1  0
M  END
>  <ScrubInfo>  (3) 
{"isomerGroup": 0, "isomerId": 2, "confId": 0, "nr_conformers:": 1, "nr_isomers:": 9}

$$$$
_i3
     RDKit          3D

 41 43  0  0  0  0  0  0  0  0999 V2000
    1.0246   -1.6281    0.2777 N   0  0  0  0  0  0  0  0  0  0  0  0
    0.8588   -0.2557    0.2542 C   0  0  0  0  0  0  0  0  0  0  0  0
    1.7606    0.6310    0.4776 N   0  0  0  0  0  0  0  0  0  0  0  0
    3.1174    0.2041    0.7932 C   0  0  0  0  0  0  0  0  0  0  0  0
    3.9619    1.4288    1.1518 C   0  0  0  0  0  0  0  0  0  0  0  0
    5.3122    1.0499    1.4350 O   0  0  0  0  0  0  0  0  0  0  0  0
    6.1296    1.0351    0.2719 C   0  0  0  0  0  0  0  0  0  0  0  0
   -0.3736    0.3140   -0.0312 N   0  0  0  0  0  0  0  0  0  0  0  0
   -1.4109   -0.4324   -0.2720 C   0  0  0  0  0  0  0  0  0  0  0  0
   -2.6787   -0.0129   -0.5751 N   0  0  0  0  0  0  0  0  0  0  0  0
   -3.2356    1.2834   -0.6740 C   0  0  0  0  0  0  0  0  0  0  0  0
   -4.5303    1.3603   -1.2368 C   0  0  0  0  0  0  0  0  0  0  0  0
   -5.1948    2.5800   -1.3963 C   0  0  0  0  0  0  0  0  0  0  0  0
   -6.7715    2.6079   -2.0857 Cl  0  0  0  0  0  0  0  0  0  0  0  0
   -4.5927    3.7647   -1.0025 C   0  0  0  0  0  0  0  0  0  0  0  0
   -3.3169    3.7201   -0.4506 C   0  0  0  0  0  0  0  0  0  0  0  0
   -2.6442    2.4998   -0.2951 C   0  0  0  0  0  0  0  0  0  0  0  0
   -1.4114    2.6358    0.2731 O   0  0  0  0  0  0  0  0  0  0  0  0
   -1.2749   -1.8767   -0.2423 C   0  0  0  0  0  0  0  0  0  0  0  0
   -2.0924   -3.0052   -0.4230 C   0  0  0  0  0  0  0  0  0  0  0  0
   -1.4190   -4.1553   -0.2746 N   0  0  0  0  0  0  0  0  0  0  0  0
   -0.1551   -3.7590    0.0107 N   0  0  0  0  0  0  0  0  0  0  0  0
    0.8570   -4.7582    0.2426 C   0  0  0  0  0  0  0  0  0  0  0  0
   -0.0431   -2.4051    0.0346 C   0  0  0  0  0  0  0  0  0  0  0  0
    1.9429   -1.9836    0.4987 H   0  0  0  0  0  0  0  0  0  0  0  0
    3.5618   -0.3163   -0.0627 H   0  0  0  0  0  0  0  0  0  0  0  0
    3.1329   -0.4893    1.6432 H   0  0  0  0  0  0  0  0  0  0  0  0
    3.9246    2.1916    0.3645 H   0  0  0  0  0  0  0  0  0  0  0  0
    3.5584    1.8891    2.0608 H   0  0  0  0  0  0  0  0  0  0  0  0
    7.1367    0.7268    0.5655 H   0  0  0  0  0  0  0  0  0  0  0  0
    5.7504    0.3225   -0.4656 H   0  0  0  0  0  0  0  0  0  0  0  0
    6.1882    2.0361   -0.1663 H   0  0  0  0  0  0  0  0  0  0  0  0
   -3.3531   -0.7351   -0.7872 H   0  0  0  0  0  0  0  0  0  0  0  0
   -5.0386    0.4556   -1.5631 H   0  0  0  0  0  0  0  0  0  0  0  0
   -5.1004    4.7175   -1.1194 H   0  0  0  0  0  0  0  0  0  0  0  0
   -2.8304    4.6409   -0.1357 H   0  0  0  0  0  0  0  0  0  0  0  0
   -0.9109    1.7973    0.1786 H   0  0  0  0  0  0  0  0  0  0  0  0
   -3.1475   -3.0599   -0.6554 H   0  0  0  0  0  0  0  0  0  0  0  0
    0.5581   -5.3561    1.1073 H   0  0  0  0  0  0  0  0  0  0  0  0
    0.9323   -5.3858   -0.6490 H   0  0  0  0  0  0  0  0  0  0  0  0
    1.8177   -4.2779    0.4385 H   0  0  0  0  0  0  0  0  0  0  0  0
  1  2  1  0
  2  3  2  3
  3  4  1  0
  4  5  1  0
  5  6  1  0
  6  7  1  0
  2  8  1  0
  8  9  2  0
  9 10  1  0
 10 11  1  0
 11 12  2  0
 12 13  1  0
 13 14  1  0
 13 15  2  0
 15 16  1  0
 16 17  2  0
 17 18  1  0
  9 19  1  0
 19 20  1  0
 20 21  2  0
 21 22  1  0
 22 23  1  0
 22 24  1  0
 24  1  1  0
 17 11  1  0
 24 19  2  0
  1 25  1  0
  4 26  1  0
  4 27  1  0
  5 28  1  0
  5 29  1  0
  7 30  1  0
  7 31  1  0
  7 32  1  0
 10 33  1  0
 12 34  1  0
 15 35  1  0
 16 36  1  0
 18 37  1  0
 20 38  1  0
 23 39  1  0
 23 40  1  0
 23 41  1  0
M  END
>  <ScrubInfo>  (4) 
{"isomerGroup": 0, "isomerId": 3, "confId": 0, "nr_conformers:": 1, "nr_isomers:": 9}

$$$$
_i4
     RDKit          3D

 41 43  0  0  0  0  0  0  0  0999 V2000
   -2.1843    2.6554   -0.6031 N   0  0  0  0  0  0  0  0  0  0  0  0
   -2.3855    1.3407   -0.1962 C   0  0  0  0  0  0  0  0  0  0  0  0
   -1.2714    0.5935   -0.2328 C   0  0  0  0  0  0  0  0  0  0  0  0
   -0.8384   -0.7625    0.0780 C   0  0  0  0  0  0  0  0  0  0  0  0
   -1.5125   -1.8030    0.4444 N   0  0  0  0  0  0  0  0  0  0  0  0
   -2.9059   -1.7450    0.5696 C   0  0  0  0  0  0  0  0  0  0  0  0
   -3.7434   -1.9117   -0.5335 C   0  0  0  0  0  0  0  0  0  0  0  0
   -5.1272   -1.8550   -0.3624 C   0  0  0  0  0  0  0  0  0  0  0  0
   -6.1606   -2.0309   -1.7274 Cl  0  0  0  0  0  0  0  0  0  0  0  0
   -5.6847   -1.6492    0.9025 C   0  0  0  0  0  0  0  0  0  0  0  0
   -4.8529   -1.5115    2.0137 C   0  0  0  0  0  0  0  0  0  0  0  0
   -3.4768   -1.5734    1.8375 C   0  0  0  0  0  0  0  0  0  0  0  0
   -2.6659   -1.4696    2.9345 O   0  0  0  0  0  0  0  0  0  0  0  0
    0.5125   -0.9524   -0.0269 N   0  0  0  0  0  0  0  0  0  0  0  0
    1.3308   -0.0375   -0.4563 C   0  0  0  0  0  0  0  0  0  0  0  0
    2.6475   -0.3840   -0.5160 N   0  0  0  0  0  0  0  0  0  0  0  0
    3.7192    0.5928   -0.4507 C   0  0  0  0  0  0  0  0  0  0  0  0
    5.0706   -0.1107   -0.6013 C   0  0  0  0  0  0  0  0  0  0  0  0
    5.2630   -1.0019    0.5043 O   0  0  0  0  0  0  0  0  0  0  0  0
    6.4894   -1.7124    0.3942 C   0  0  0  0  0  0  0  0  0  0  0  0
    0.9735    1.2266   -0.8434 N   0  0  0  0  0  0  0  0  0  0  0  0
   -0.2699    1.5446   -0.7512 C   0  0  0  0  0  0  0  0  0  0  0  0
   -0.8830    2.7567   -1.0721 N   0  0  0  0  0  0  0  0  0  0  0  0
   -0.1757    4.0137   -0.9210 C   0  0  0  0  0  0  0  0  0  0  0  0
   -2.9178    3.0058   -1.2239 H   0  0  0  0  0  0  0  0  0  0  0  0
   -3.3808    1.0487    0.1040 H   0  0  0  0  0  0  0  0  0  0  0  0
   -3.3131   -2.0853   -1.5154 H   0  0  0  0  0  0  0  0  0  0  0  0
   -6.7634   -1.6091    1.0297 H   0  0  0  0  0  0  0  0  0  0  0  0
   -5.2707   -1.3715    3.0063 H   0  0  0  0  0  0  0  0  0  0  0  0
   -1.7712   -1.6983    2.6048 H   0  0  0  0  0  0  0  0  0  0  0  0
    2.8400   -1.2325    0.0099 H   0  0  0  0  0  0  0  0  0  0  0  0
    3.6765    1.1068    0.5162 H   0  0  0  0  0  0  0  0  0  0  0  0
    3.6097    1.3338   -1.2498 H   0  0  0  0  0  0  0  0  0  0  0  0
    5.8739    0.6345   -0.6070 H   0  0  0  0  0  0  0  0  0  0  0  0
    5.1004   -0.6793   -1.5383 H   0  0  0  0  0  0  0  0  0  0  0  0
    6.5865   -2.3682    1.2635 H   0  0  0  0  0  0  0  0  0  0  0  0
    7.3348   -1.0178    0.3836 H   0  0  0  0  0  0  0  0  0  0  0  0
    6.4952   -2.3279   -0.5104 H   0  0  0  0  0  0  0  0  0  0  0  0
   -0.7833    4.8408   -1.3024 H   0  0  0  0  0  0  0  0  0  0  0  0
    0.0539    4.2072    0.1320 H   0  0  0  0  0  0  0  0  0  0  0  0
    0.7612    3.9991   -1.4872 H   0  0  0  0  0  0  0  0  0  0  0  0
  1  2  1  0
  2  3  2  0
  3  4  1  0
  4  5  2  3
  5  6  1  0
  6  7  2  0
  7  8  1  0
  8  9  1  0
  8 10  2  0
 10 11  1  0
 11 12  2  0
 12 13  1  0
  4 14  1  0
 14 15  2  0
 15 16  1  0
 16 17  1  0
 17 18  1  0
 18 19  1  0
 19 20  1  0
 15 21  1  0
 21 22  2  0
 22 23  1  0
 23 24  1  0
 23  1  1  0
 22  3  1  0
 12  6  1  0
  1 25  1  0
  2 26  1  0
  7 27  1  0
 10 28  1  0
 11 29  1  0
 13 30  1  0
 16 31  1  0
 17 32  1  0
 17 33  1  0
 18 34  1  0
 18 35  1  0
 20 36  1  0
 20 37  1  0
 20 38  1  0
 24 39  1  0
 24 40  1  0
 24 41  1  0
M  END
>  <ScrubInfo>  (5) 
{"isomerGroup": 0, "isomerId": 4, "confId": 0, "nr_conformers:": 1, "nr_isomers:": 9}

$$$$
_i5
     RDKit          3D

 41 43  0  0  0  0  0  0  0  0999 V2000
    0.7547   -2.5078    0.2844 N   0  0  0  0  0  0  0  0  0  0  0  0
    0.8115   -1.1467    0.0691 C   0  0  0  0  0  0  0  0  0  0  0  0
    2.0904   -0.7161   -0.1639 N   0  0  0  0  0  0  0  0  0  0  0  0
    2.3657    0.7152   -0.2948 C   0  0  0  0  0  0  0  0  0  0  0  0
    3.7593    0.9481   -0.8879 C   0  0  0  0  0  0  0  0  0  0  0  0
    4.1701    2.3142   -0.8143 O   0  0  0  0  0  0  0  0  0  0  0  0
    3.5050    3.1514   -1.7525 C   0  0  0  0  0  0  0  0  0  0  0  0
   -0.2153   -0.3437    0.0679 N   0  0  0  0  0  0  0  0  0  0  0  0
   -1.4839   -0.8507    0.2982 C   0  0  0  0  0  0  0  0  0  0  0  0
   -2.5580   -0.1265    0.3479 N   0  0  0  0  0  0  0  0  0  0  0  0
   -2.4361    1.2627    0.1420 C   0  0  0  0  0  0  0  0  0  0  0  0
   -2.0592    1.8076   -1.0877 C   0  0  0  0  0  0  0  0  0  0  0  0
   -1.9535    3.1918   -1.2302 C   0  0  0  0  0  0  0  0  0  0  0  0
   -1.4467    3.8554   -2.7363 Cl  0  0  0  0  0  0  0  0  0  0  0  0
   -2.2466    4.0459   -0.1646 C   0  0  0  0  0  0  0  0  0  0  0  0
   -2.6528    3.5129    1.0582 C   0  0  0  0  0  0  0  0  0  0  0  0
   -2.7480    2.1334    1.1955 C   0  0  0  0  0  0  0  0  0  0  0  0
   -3.1642    1.6222    2.3956 O   0  0  0  0  0  0  0  0  0  0  0  0
   -1.5939   -2.2721    0.4951 C   0  0  0  0  0  0  0  0  0  0  0  0
   -2.6366   -3.1829    0.7079 C   0  0  0  0  0  0  0  0  0  0  0  0
   -2.1929   -4.4463    0.8127 N   0  0  0  0  0  0  0  0  0  0  0  0
   -0.8496   -4.3334    0.6600 N   0  0  0  0  0  0  0  0  0  0  0  0
   -0.0363   -5.5209    0.7193 C   0  0  0  0  0  0  0  0  0  0  0  0
   -0.4647   -3.0434    0.4753 C   0  0  0  0  0  0  0  0  0  0  0  0
    1.5748   -3.0545    0.0597 H   0  0  0  0  0  0  0  0  0  0  0  0
    2.7818   -1.1840    0.4110 H   0  0  0  0  0  0  0  0  0  0  0  0
    2.2913    1.1995    0.6860 H   0  0  0  0  0  0  0  0  0  0  0  0
    1.6196    1.1877   -0.9437 H   0  0  0  0  0  0  0  0  0  0  0  0
    4.4961    0.3725   -0.3158 H   0  0  0  0  0  0  0  0  0  0  0  0
    3.8158    0.5887   -1.9226 H   0  0  0  0  0  0  0  0  0  0  0  0
    3.9528    4.1475   -1.6971 H   0  0  0  0  0  0  0  0  0  0  0  0
    2.4428    3.2413   -1.5098 H   0  0  0  0  0  0  0  0  0  0  0  0
    3.6314    2.7699   -2.7702 H   0  0  0  0  0  0  0  0  0  0  0  0
   -1.8321    1.1498   -1.9208 H   0  0  0  0  0  0  0  0  0  0  0  0
   -2.1657    5.1231   -0.2819 H   0  0  0  0  0  0  0  0  0  0  0  0
   -2.8951    4.1622    1.8939 H   0  0  0  0  0  0  0  0  0  0  0  0
   -3.2144    0.6573    2.2408 H   0  0  0  0  0  0  0  0  0  0  0  0
   -3.6985   -2.9872    0.7859 H   0  0  0  0  0  0  0  0  0  0  0  0
   -0.2346   -6.0294    1.6663 H   0  0  0  0  0  0  0  0  0  0  0  0
   -0.3045   -6.1629   -0.1234 H   0  0  0  0  0  0  0  0  0  0  0  0
    1.0203   -5.2514    0.6605 H   0  0  0  0  0  0  0  0  0  0  0  0
  1  2  1  0
  2  3  1  0
  3  4  1  0
  4  5  1  0
  5  6  1  0
  6  7  1  0
  2  8  2  0
  8  9  1  0
  9 10  2  3
 10 11  1  0
 11 12  2  0
 12 13  1  0
 13 14  1  0
 13 15  2  0
 15 16  1  0
 16 17  2  0
 17 18  1  0
  9 19  1  0
 19 20  1  0
 20 21  2  0
 21 22  1  0
 22 23  1  0
 22 24  1  0
 24  1  1  0
 17 11  1  0
 24 19  2  0
  1 25  1  0
  3 26  1  0
  4 27  1  0
  4 28  1  0
  5 29  1  0
  5 30  1  0
  7 31  1  0
  7 32  1  0
  7 33  1  0
 12 34  1  0
 15 35  1  0
 16 36  1  0
 18 37  1  0
 20 38  1  0
 23 39  1  0
 23 40  1  0
 23 41  1  0
M  END
>  <ScrubInfo>  (6) 
{"isomerGroup": 0, "isomerId": 5, "confId": 0, "nr_conformers:": 1, "nr_isomers:": 9}

$$$$
_i6
     RDKit          3D

 41 43  0  0  0  0  0  0  0  0999 V2000
   -2.2265   -2.4444   -1.9359 N   0  0  0  0  0  0  0  0  0  0  0  0
   -2.2955   -1.6667   -0.7844 C   0  0  0  0  0  0  0  0  0  0  0  0
   -1.0920   -1.3235   -0.3050 C   0  0  0  0  0  0  0  0  0  0  0  0
   -0.5065   -0.6097    0.8296 C   0  0  0  0  0  0  0  0  0  0  0  0
   -1.2315    0.0476    1.8132 N   0  0  0  0  0  0  0  0  0  0  0  0
   -2.2204    0.9983    1.4374 C   0  0  0  0  0  0  0  0  0  0  0  0
   -3.5753    0.6674    1.5175 C   0  0  0  0  0  0  0  0  0  0  0  0
   -4.5382    1.5825    1.0926 C   0  0  0  0  0  0  0  0  0  0  0  0
   -6.2053    1.1661    1.1819 Cl  0  0  0  0  0  0  0  0  0  0  0  0
   -4.1638    2.8290    0.5875 C   0  0  0  0  0  0  0  0  0  0  0  0
   -2.8130    3.1719    0.5079 C   0  0  0  0  0  0  0  0  0  0  0  0
   -1.8534    2.2569    0.9324 C   0  0  0  0  0  0  0  0  0  0  0  0
   -0.5231    2.5684    0.8887 O   0  0  0  0  0  0  0  0  0  0  0  0
    0.7951   -0.5999    0.9487 N   0  0  0  0  0  0  0  0  0  0  0  0
    1.5644   -1.2031   -0.0244 C   0  0  0  0  0  0  0  0  0  0  0  0
    2.8456   -1.1541    0.0633 N   0  0  0  0  0  0  0  0  0  0  0  0
    3.4550   -0.4502    1.1931 C   0  0  0  0  0  0  0  0  0  0  0  0
    3.4669    1.0736    0.9941 C   0  0  0  0  0  0  0  0  0  0  0  0
    4.0664    1.5298   -0.2227 O   0  0  0  0  0  0  0  0  0  0  0  0
    5.4252    1.1478   -0.3692 C   0  0  0  0  0  0  0  0  0  0  0  0
    1.1113   -1.8748   -1.1332 N   0  0  0  0  0  0  0  0  0  0  0  0
   -0.1646   -1.9204   -1.2926 C   0  0  0  0  0  0  0  0  0  0  0  0
   -0.8952   -2.5062   -2.3270 N   0  0  0  0  0  0  0  0  0  0  0  0
   -0.4067   -3.6927   -3.0031 C   0  0  0  0  0  0  0  0  0  0  0  0
   -2.8930   -2.1624   -2.6584 H   0  0  0  0  0  0  0  0  0  0  0  0
   -3.2690   -1.4267   -0.3864 H   0  0  0  0  0  0  0  0  0  0  0  0
   -0.5317    0.5671    2.3496 H   0  0  0  0  0  0  0  0  0  0  0  0
   -3.8740   -0.2995    1.9134 H   0  0  0  0  0  0  0  0  0  0  0  0
   -4.9203    3.5377    0.2592 H   0  0  0  0  0  0  0  0  0  0  0  0
   -2.5314    4.1476    0.1235 H   0  0  0  0  0  0  0  0  0  0  0  0
   -0.3969    3.3924    0.3884 H   0  0  0  0  0  0  0  0  0  0  0  0
    4.4835   -0.8161    1.2854 H   0  0  0  0  0  0  0  0  0  0  0  0
    2.9698   -0.7057    2.1433 H   0  0  0  0  0  0  0  0  0  0  0  0
    3.9828    1.5498    1.8364 H   0  0  0  0  0  0  0  0  0  0  0  0
    2.4438    1.4622    0.9960 H   0  0  0  0  0  0  0  0  0  0  0  0
    6.0032    1.4079    0.5228 H   0  0  0  0  0  0  0  0  0  0  0  0
    5.8415    1.6907   -1.2223 H   0  0  0  0  0  0  0  0  0  0  0  0
    5.5076    0.0780   -0.5789 H   0  0  0  0  0  0  0  0  0  0  0  0
   -1.0640   -3.9517   -3.8395 H   0  0  0  0  0  0  0  0  0  0  0  0
    0.5960   -3.5211   -3.4074 H   0  0  0  0  0  0  0  0  0  0  0  0
   -0.3671   -4.5439   -2.3154 H   0  0  0  0  0  0  0  0  0  0  0  0
  1  2  1  0
  2  3  2  0
  3  4  1  0
  4  5  1  0
  5  6  1  0
  6  7  2  0
  7  8  1  0
  8  9  1  0
  8 10  2  0
 10 11  1  0
 11 12  2  0
 12 13  1  0
  4 14  2  0
 14 15  1  0
 15 16  2  3
 16 17  1  0
 17 18  1  0
 18 19  1  0
 19 20  1  0
 15 21  1  0
 21 22  2  0
 22 23  1  0
 23 24  1  0
 23  1  1  0
 22  3  1  0
 12  6  1  0
  1 25  1  0
  2 26  1  0
  5 27  1  0
  7 28  1  0
 10 29  1  0
 11 30  1  0
 13 31  1  0
 17 32  1  0
 17 33  1  0
 18 34  1  0
 18 35  1  0
 20 36  1  0
 20 37  1  0
 20 38  1  0
 24 39  1  0
 24 40  1  0
 24 41  1  0
M  END
>  <ScrubInfo>  (7) 
{"isomerGroup": 0, "isomerId": 6, "confId": 0, "nr_conformers:": 1, "nr_isomers:": 9}

$$$$
_i7
     RDKit          3D

 41 43  0  0  0  0  0  0  0  0999 V2000
   -2.3967    2.7711   -0.2976 N   0  0  0  0  0  0  0  0  0  0  0  0
   -2.1599    1.4710    0.1338 C   0  0  0  0  0  0  0  0  0  0  0  0
   -0.9036    1.0555   -0.0827 C   0  0  0  0  0  0  0  0  0  0  0  0
   -0.0392   -0.1171    0.1473 C   0  0  0  0  0  0  0  0  0  0  0  0
   -0.3543   -1.2910    0.6163 N   0  0  0  0  0  0  0  0  0  0  0  0
   -1.6839   -1.6061    0.9325 C   0  0  0  0  0  0  0  0  0  0  0  0
   -2.5761   -2.0383   -0.0494 C   0  0  0  0  0  0  0  0  0  0  0  0
   -3.8880   -2.3584    0.3027 C   0  0  0  0  0  0  0  0  0  0  0  0
   -4.9949   -2.8657   -0.9135 Cl  0  0  0  0  0  0  0  0  0  0  0  0
   -4.3158   -2.2665    1.6296 C   0  0  0  0  0  0  0  0  0  0  0  0
   -3.4214   -1.8621    2.6205 C   0  0  0  0  0  0  0  0  0  0  0  0
   -2.1158   -1.5483    2.2644 C   0  0  0  0  0  0  0  0  0  0  0  0
   -1.2387   -1.1794    3.2470 O   0  0  0  0  0  0  0  0  0  0  0  0
    1.2646    0.1176   -0.2026 N   0  0  0  0  0  0  0  0  0  0  0  0
    1.7822    1.2492   -0.7792 C   0  0  0  0  0  0  0  0  0  0  0  0
    3.0097    1.4608   -1.0949 N   0  0  0  0  0  0  0  0  0  0  0  0
    4.0576    0.4866   -0.7831 C   0  0  0  0  0  0  0  0  0  0  0  0
    3.9561   -0.7778   -1.6397 C   0  0  0  0  0  0  0  0  0  0  0  0
    3.0718   -1.7235   -1.0156 O   0  0  0  0  0  0  0  0  0  0  0  0
    3.7684   -2.6576   -0.1946 C   0  0  0  0  0  0  0  0  0  0  0  0
    0.9682    2.3212   -1.0809 N   0  0  0  0  0  0  0  0  0  0  0  0
   -0.2858    2.2434   -0.7670 C   0  0  0  0  0  0  0  0  0  0  0  0
   -1.2700    3.2124   -0.9756 N   0  0  0  0  0  0  0  0  0  0  0  0
   -0.9393    4.6249   -0.9562 C   0  0  0  0  0  0  0  0  0  0  0  0
   -3.2891    2.8842   -0.7839 H   0  0  0  0  0  0  0  0  0  0  0  0
   -2.9764    0.9327    0.5913 H   0  0  0  0  0  0  0  0  0  0  0  0
   -2.2443   -2.1225   -1.0800 H   0  0  0  0  0  0  0  0  0  0  0  0
   -5.3382   -2.5195    1.8982 H   0  0  0  0  0  0  0  0  0  0  0  0
   -3.7338   -1.8028    3.6589 H   0  0  0  0  0  0  0  0  0  0  0  0
   -0.3704   -1.1312    2.7987 H   0  0  0  0  0  0  0  0  0  0  0  0
    1.8613   -0.7036   -0.2121 H   0  0  0  0  0  0  0  0  0  0  0  0
    4.0542    0.2571    0.2886 H   0  0  0  0  0  0  0  0  0  0  0  0
    5.0132    0.9758   -1.0028 H   0  0  0  0  0  0  0  0  0  0  0  0
    4.9451   -1.2270   -1.7879 H   0  0  0  0  0  0  0  0  0  0  0  0
    3.5448   -0.5430   -2.6271 H   0  0  0  0  0  0  0  0  0  0  0  0
    4.4366   -3.2733   -0.8041 H   0  0  0  0  0  0  0  0  0  0  0  0
    3.0311   -3.3096    0.2814 H   0  0  0  0  0  0  0  0  0  0  0  0
    4.3350   -2.1413    0.5856 H   0  0  0  0  0  0  0  0  0  0  0  0
   -1.8156    5.2245   -1.2233 H   0  0  0  0  0  0  0  0  0  0  0  0
   -0.5987    4.9310    0.0385 H   0  0  0  0  0  0  0  0  0  0  0  0
   -0.1501    4.8468   -1.6816 H   0  0  0  0  0  0  0  0  0  0  0  0
  1  2  1  0
  2  3  2  0
  3  4  1  0
  4  5  2  3
  5  6  1  0
  6  7  2  0
  7  8  1  0
  8  9  1  0
  8 10  2  0
 10 11  1  0
 11 12  2  0
 12 13  1  0
  4 14  1  0
 14 15  1  0
 15 16  2  3
 16 17  1  0
 17 18  1  0
 18 19  1  0
 19 20  1  0
 15 21  1  0
 21 22  2  0
 22 23  1  0
 23 24  1  0
 23  1  1  0
 22  3  1  0
 12  6  1  0
  1 25  1  0
  2 26  1  0
  7 27  1  0
 10 28  1  0
 11 29  1  0
 13 30  1  0
 14 31  1  0
 17 32  1  0
 17 33  1  0
 18 34  1  0
 18 35  1  0
 20 36  1  0
 20 37  1  0
 20 38  1  0
 24 39  1  0
 24 40  1  0
 24 41  1  0
M  END
>  <ScrubInfo>  (8) 
{"isomerGroup": 0, "isomerId": 7, "confId": 0, "nr_conformers:": 1, "nr_isomers:": 9}

$$$$
_i8
     RDKit          3D

 41 43  0  0  0  0  0  0  0  0999 V2000
    0.9324   -1.5471    0.2394 N   0  0  0  0  0  0  0  0  0  0  0  0
    0.7099   -0.1896    0.0601 C   0  0  0  0  0  0  0  0  0  0  0  0
    1.5867    0.7516   -0.0470 N   0  0  0  0  0  0  0  0  0  0  0  0
    3.0007    0.3885    0.0244 C   0  0  0  0  0  0  0  0  0  0  0  0
    3.8532    1.6590   -0.0121 C   0  0  0  0  0  0  0  0  0  0  0  0
    5.2464    1.3459    0.0595 O   0  0  0  0  0  0  0  0  0  0  0  0
    5.8177    1.0885   -1.2166 C   0  0  0  0  0  0  0  0  0  0  0  0
   -0.6275    0.1514   -0.0076 N   0  0  0  0  0  0  0  0  0  0  0  0
   -1.7659   -0.6251    0.0762 C   0  0  0  0  0  0  0  0  0  0  0  0
   -3.0205   -0.3159    0.0216 N   0  0  0  0  0  0  0  0  0  0  0  0
   -3.3587    1.0318   -0.1875 C   0  0  0  0  0  0  0  0  0  0  0  0
   -3.3578    1.5888   -1.4667 C   0  0  0  0  0  0  0  0  0  0  0  0
   -3.6931    2.9332   -1.6348 C   0  0  0  0  0  0  0  0  0  0  0  0
   -3.6754    3.6226   -3.2116 Cl  0  0  0  0  0  0  0  0  0  0  0  0
   -4.0381    3.7270   -0.5384 C   0  0  0  0  0  0  0  0  0  0  0  0
   -4.0607    3.1710    0.7406 C   0  0  0  0  0  0  0  0  0  0  0  0
   -3.7320    1.8310    0.9010 C   0  0  0  0  0  0  0  0  0  0  0  0
   -3.7807    1.2904    2.1564 O   0  0  0  0  0  0  0  0  0  0  0  0
   -1.4253   -2.0150    0.2663 C   0  0  0  0  0  0  0  0  0  0  0  0
   -2.1527   -3.2050    0.4129 C   0  0  0  0  0  0  0  0  0  0  0  0
   -1.3551   -4.2714    0.5732 N   0  0  0  0  0  0  0  0  0  0  0  0
   -0.1035   -3.7543    0.5193 N   0  0  0  0  0  0  0  0  0  0  0  0
    1.0225   -4.6424    0.6618 C   0  0  0  0  0  0  0  0  0  0  0  0
   -0.1098   -2.4041    0.3375 C   0  0  0  0  0  0  0  0  0  0  0  0
    1.8939   -1.8535    0.3050 H   0  0  0  0  0  0  0  0  0  0  0  0
    3.2688   -0.2629   -0.8150 H   0  0  0  0  0  0  0  0  0  0  0  0
    3.2258   -0.1565    0.9496 H   0  0  0  0  0  0  0  0  0  0  0  0
    3.6332    2.2681   -0.8974 H   0  0  0  0  0  0  0  0  0  0  0  0
    3.6166    2.2742    0.8635 H   0  0  0  0  0  0  0  0  0  0  0  0
    6.8774    0.8586   -1.0766 H   0  0  0  0  0  0  0  0  0  0  0  0
    5.3382    0.2308   -1.6958 H   0  0  0  0  0  0  0  0  0  0  0  0
    5.7369    1.9722   -1.8569 H   0  0  0  0  0  0  0  0  0  0  0  0
   -0.7682    1.1454   -0.1162 H   0  0  0  0  0  0  0  0  0  0  0  0
   -3.0998    0.9739   -2.3240 H   0  0  0  0  0  0  0  0  0  0  0  0
   -4.2988    4.7734   -0.6751 H   0  0  0  0  0  0  0  0  0  0  0  0
   -4.3411    3.7717    1.6009 H   0  0  0  0  0  0  0  0  0  0  0  0
   -3.6590    0.3286    2.0236 H   0  0  0  0  0  0  0  0  0  0  0  0
   -3.2265   -3.3431    0.4115 H   0  0  0  0  0  0  0  0  0  0  0  0
    1.0550   -4.9889    1.6976 H   0  0  0  0  0  0  0  0  0  0  0  0
    0.8886   -5.4865   -0.0198 H   0  0  0  0  0  0  0  0  0  0  0  0
    1.9464   -4.1163    0.4134 H   0  0  0  0  0  0  0  0  0  0  0  0
  1  2  1  0
  2  3  2  3
  3  4  1  0
  4  5  1  0
  5  6  1  0
  6  7  1  0
  2  8  1  0
  8  9  1  0
  9 10  2  3
 10 11  1  0
 11 12  2  0
 12 13  1  0
 13 14  1  0
 13 15  2  0
 15 16  1  0
 16 17  2  0
 17 18  1  0
  9 19  1  0
 19 20  1  0
 20 21  2  0
 21 22  1  0
 22 23  1  0
 22 24  1  0
 24  1  1  0
 17 11  1  0
 24 19  2  0
  1 25  1  0
  4 26  1  0
  4 27  1  0
  5 28  1  0
  5 29  1  0
  7 30  1  0
  7 31  1  0
  7 32  1  0
  8 33  1  0
 12 34  1  0
 15 35  1  0
 16 36  1  0
 18 37  1  0
 20 38  1  0
 23 39  1  0
 23 40  1  0
 23 41  1  0
M  END
>  <ScrubInfo>  (9) 
{"isomerGroup": 0, "isomerId": 8, "confId": 0, "nr_conformers:": 1, "nr_isomers:": 9}

$$$$
