_i0
     RDKit          3D

 40 42  0  0  0  0  0  0  0  0999 V2000
    4.6241    2.2632   -0.3541 C   0  0  0  0  0  0  0  0  0  0  0  0
    3.5843    1.4429   -0.8695 O   0  0  0  0  0  0  0  0  0  0  0  0
    2.2744    1.8700   -0.4691 C   0  0  0  0  0  0  0  0  0  0  0  0
    1.9415    1.4618    0.9746 C   0  0  0  0  0  0  0  0  0  0  0  0
    2.0896    0.0262    1.1810 N   0  0  0  0  0  0  0  0  0  0  0  0
    1.1006   -0.7787    0.6316 C   0  0  0  0  0  0  0  0  0  0  0  0
   -0.1388   -0.2834    0.4527 N   0  0  0  0  0  0  0  0  0  0  0  0
   -1.1348   -1.0555   -0.0507 C   0  0  0  0  0  0  0  0  0  0  0  0
   -2.4179   -0.5322   -0.2693 N   0  0  0  0  0  0  0  0  0  0  0  0
   -2.9520    0.7174    0.0957 C   0  0  0  0  0  0  0  0  0  0  0  0
   -3.8437    1.3421   -0.7971 C   0  0  0  0  0  0  0  0  0  0  0  0
   -4.3570    2.6156   -0.5329 C   0  0  0  0  0  0  0  0  0  0  0  0
   -3.9789    3.2795    0.6274 C   0  0  0  0  0  0  0  0  0  0  0  0
   -4.4730    4.5004    0.8736 F   0  0  0  0  0  0  0  0  0  0  0  0
   -3.1045    2.6852    1.5241 C   0  0  0  0  0  0  0  0  0  0  0  0
   -2.7604    3.3296    2.6490 F   0  0  0  0  0  0  0  0  0  0  0  0
   -2.5941    1.4172    1.2621 C   0  0  0  0  0  0  0  0  0  0  0  0
   -1.8092    0.8496    2.1905 F   0  0  0  0  0  0  0  0  0  0  0  0
   -0.8022   -2.3670   -0.4049 C   0  0  0  0  0  0  0  0  0  0  0  0
   -1.4307   -3.5059   -0.9498 C   0  0  0  0  0  0  0  0  0  0  0  0
   -0.5982   -4.5429   -1.0932 N   0  0  0  0  0  0  0  0  0  0  0  0
    0.5763   -4.0628   -0.6187 N   0  0  0  0  0  0  0  0  0  0  0  0
    1.7373   -4.9166   -0.5999 C   0  0  0  0  0  0  0  0  0  0  0  0
    0.5044   -2.7626   -0.1994 C   0  0  0  0  0  0  0  0  0  0  0  0
    1.4947   -2.0162    0.3085 N   0  0  0  0  0  0  0  0  0  0  0  0
    5.5723    1.9130   -0.7712 H   0  0  0  0  0  0  0  0  0  0  0  0
    4.6813    2.1858    0.7346 H   0  0  0  0  0  0  0  0  0  0  0  0
    4.4785    3.3056   -0.6532 H   0  0  0  0  0  0  0  0  0  0  0  0
    1.5675    1.4037   -1.1634 H   0  0  0  0  0  0  0  0  0  0  0  0
    2.1790    2.9548   -0.5951 H   0  0  0  0  0  0  0  0  0  0  0  0
    2.6384    1.9561    1.6596 H   0  0  0  0  0  0  0  0  0  0  0  0
    0.9426    1.8167    1.2549 H   0  0  0  0  0  0  0  0  0  0  0  0
    2.9748   -0.3480    0.8509 H   0  0  0  0  0  0  0  0  0  0  0  0
   -2.9920   -1.0875   -0.8876 H   0  0  0  0  0  0  0  0  0  0  0  0
   -4.1309    0.8458   -1.7220 H   0  0  0  0  0  0  0  0  0  0  0  0
   -5.0406    3.0945   -1.2278 H   0  0  0  0  0  0  0  0  0  0  0  0
   -2.4628   -3.6276   -1.2503 H   0  0  0  0  0  0  0  0  0  0  0  0
    1.9581   -5.2186   -1.6268 H   0  0  0  0  0  0  0  0  0  0  0  0
    2.5910   -4.3800   -0.1800 H   0  0  0  0  0  0  0  0  0  0  0  0
    1.5108   -5.7910    0.0153 H   0  0  0  0  0  0  0  0  0  0  0  0
  1  2  1  0
  2  3  1  0
  3  4  1  0
  4  5  1  0
  5  6  1  0
  6  7  2  0
  7  8  1  0
  8  9  1  0
  9 10  1  0
 10 11  2  0
 11 12  1  0
 12 13  2  0
 13 14  1  0
 13 15  1  0
 15 16  1  0
 15 17  2  0
 17 18  1  0
  8 19  2  0
 19 20  1  0
 20 21  2  0
 21 22  1  0
 22 23  1  0
 22 24  1  0
 24 25  2  0
 25  6  1  0
 17 10  1  0
 24 19  1  0
  1 26  1  0
  1 27  1  0
  1 28  1  0
  3 29  1  0
  3 30  1  0
  4 31  1  0
  4 32  1  0
  5 33  1  0
  9 34  1  0
 11 35  1  0
 12 36  1  0
 20 37  1  0
 23 38  1  0
 23 39  1  0
 23 40  1  0
M  END
>  <ScrubInfo>  (1) 
{"isomerGroup": 0, "isomerId": 0, "confId": 0, "nr_conformers:": 1, "nr_isomers:": 9}

$$$$
_i1
     RDKit          3D

 40 42  0  0  0  0  0  0  0  0999 V2000
    0.4868    0.3836   -0.6675 N   0  0  0  0  0  0  0  0  0  0  0  0
   -0.8553    0.0469   -0.7114 C   0  0  0  0  0  0  0  0  0  0  0  0
   -1.8164    1.0217   -0.9139 N   0  0  0  0  0  0  0  0  0  0  0  0
   -2.9576    1.2876   -0.1164 C   0  0  0  0  0  0  0  0  0  0  0  0
   -3.9109    2.1852   -0.6348 C   0  0  0  0  0  0  0  0  0  0  0  0
   -5.0867    2.4755    0.0644 C   0  0  0  0  0  0  0  0  0  0  0  0
   -5.3253    1.8641    1.2889 C   0  0  0  0  0  0  0  0  0  0  0  0
   -6.4537    2.1465    1.9532 F   0  0  0  0  0  0  0  0  0  0  0  0
   -4.4072    0.9701    1.8175 C   0  0  0  0  0  0  0  0  0  0  0  0
   -4.6451    0.3861    3.0006 F   0  0  0  0  0  0  0  0  0  0  0  0
   -3.2372    0.6804    1.1209 C   0  0  0  0  0  0  0  0  0  0  0  0
   -2.3630   -0.1713    1.6772 F   0  0  0  0  0  0  0  0  0  0  0  0
   -1.1199   -1.2636   -0.6412 C   0  0  0  0  0  0  0  0  0  0  0  0
   -2.2875   -2.1476   -0.7303 C   0  0  0  0  0  0  0  0  0  0  0  0
   -1.9793   -3.4175   -0.6448 N   0  0  0  0  0  0  0  0  0  0  0  0
   -0.5902   -3.4478   -0.4417 N   0  0  0  0  0  0  0  0  0  0  0  0
    0.1145   -4.6983   -0.5802 C   0  0  0  0  0  0  0  0  0  0  0  0
    0.0106   -2.2001   -0.4830 C   0  0  0  0  0  0  0  0  0  0  0  0
    1.2540   -1.8692   -0.4241 N   0  0  0  0  0  0  0  0  0  0  0  0
    1.5153   -0.5185   -0.4884 C   0  0  0  0  0  0  0  0  0  0  0  0
    2.7640   -0.2412   -0.3768 N   0  0  0  0  0  0  0  0  0  0  0  0
    3.2185    1.1464   -0.4366 C   0  0  0  0  0  0  0  0  0  0  0  0
    4.6618    1.2259    0.0701 C   0  0  0  0  0  0  0  0  0  0  0  0
    4.6568    1.3298    1.4981 O   0  0  0  0  0  0  0  0  0  0  0  0
    5.9692    1.2303    2.0324 C   0  0  0  0  0  0  0  0  0  0  0  0
    0.7049    1.3619   -0.5944 H   0  0  0  0  0  0  0  0  0  0  0  0
   -1.4331    1.8770   -1.3070 H   0  0  0  0  0  0  0  0  0  0  0  0
   -3.7488    2.6576   -1.6024 H   0  0  0  0  0  0  0  0  0  0  0  0
   -5.8186    3.1682   -0.3416 H   0  0  0  0  0  0  0  0  0  0  0  0
   -3.2962   -1.7446   -0.8837 H   0  0  0  0  0  0  0  0  0  0  0  0
    1.0416   -4.6910    0.0017 H   0  0  0  0  0  0  0  0  0  0  0  0
    0.3633   -4.8808   -1.6302 H   0  0  0  0  0  0  0  0  0  0  0  0
   -0.4983   -5.5310   -0.2200 H   0  0  0  0  0  0  0  0  0  0  0  0
    2.5898    1.8040    0.1739 H   0  0  0  0  0  0  0  0  0  0  0  0
    3.1887    1.4794   -1.4799 H   0  0  0  0  0  0  0  0  0  0  0  0
    5.1367    2.1287   -0.3305 H   0  0  0  0  0  0  0  0  0  0  0  0
    5.2371    0.3482   -0.2477 H   0  0  0  0  0  0  0  0  0  0  0  0
    6.4014    0.2507    1.8067 H   0  0  0  0  0  0  0  0  0  0  0  0
    5.9086    1.3421    3.1183 H   0  0  0  0  0  0  0  0  0  0  0  0
    6.6070    2.0251    1.6338 H   0  0  0  0  0  0  0  0  0  0  0  0
  1  2  1  0
  2  3  1  0
  3  4  1  0
  4  5  2  0
  5  6  1  0
  6  7  2  0
  7  8  1  0
  7  9  1  0
  9 10  1  0
  9 11  2  0
 11 12  1  0
  2 13  2  0
 13 14  1  0
 14 15  2  0
 15 16  1  0
 16 17  1  0
 16 18  1  0
 18 19  2  0
 19 20  1  0
 20 21  2  3
 21 22  1  0
 22 23  1  0
 23 24  1  0
 24 25  1  0
 20  1  1  0
 11  4  1  0
 18 13  1  0
  1 26  1  0
  3 27  1  0
  5 28  1  0
  6 29  1  0
 14 30  1  0
 17 31  1  0
 17 32  1  0
 17 33  1  0
 22 34  1  0
 22 35  1  0
 23 36  1  0
 23 37  1  0
 25 38  1  0
 25 39  1  0
 25 40  1  0
M  END
>  <ScrubInfo>  (2) 
{"isomerGroup": 0, "isomerId": 1, "confId": 0, "nr_conformers:": 1, "nr_isomers:": 9}

$$$$
_i2
     RDKit          3D

 40 42  0  0  0  0  0  0  0  0999 V2000
    0.3959   -0.8067    0.6807 N   0  0  0  0  0  0  0  0  0  0  0  0
    1.3158    0.2135    0.6609 C   0  0  0  0  0  0  0  0  0  0  0  0
    2.5483   -0.1736    1.1073 N   0  0  0  0  0  0  0  0  0  0  0  0
    3.6952    0.7240    1.0039 C   0  0  0  0  0  0  0  0  0  0  0  0
    4.9524    0.0045    1.5069 C   0  0  0  0  0  0  0  0  0  0  0  0
    5.1597   -1.2372    0.8175 O   0  0  0  0  0  0  0  0  0  0  0  0
    5.7774   -1.0710   -0.4532 C   0  0  0  0  0  0  0  0  0  0  0  0
    1.0396    1.4317    0.2731 N   0  0  0  0  0  0  0  0  0  0  0  0
   -0.2580    1.5534   -0.1251 C   0  0  0  0  0  0  0  0  0  0  0  0
   -1.2509    0.5848   -0.1455 C   0  0  0  0  0  0  0  0  0  0  0  0
   -2.3822    1.2609   -0.6339 C   0  0  0  0  0  0  0  0  0  0  0  0
   -2.1423    2.5497   -0.9043 N   0  0  0  0  0  0  0  0  0  0  0  0
   -0.8356    2.7009   -0.5906 N   0  0  0  0  0  0  0  0  0  0  0  0
   -0.2136    3.9901   -0.7580 C   0  0  0  0  0  0  0  0  0  0  0  0
   -0.9280   -0.7527    0.3117 C   0  0  0  0  0  0  0  0  0  0  0  0
   -1.7033   -1.7896    0.4099 N   0  0  0  0  0  0  0  0  0  0  0  0
   -3.0426   -1.7666    0.0081 C   0  0  0  0  0  0  0  0  0  0  0  0
   -4.0440   -1.5242    0.9576 C   0  0  0  0  0  0  0  0  0  0  0  0
   -5.3912   -1.5516    0.5874 C   0  0  0  0  0  0  0  0  0  0  0  0
   -5.7355   -1.8391   -0.7305 C   0  0  0  0  0  0  0  0  0  0  0  0
   -7.0295   -1.8661   -1.0766 F   0  0  0  0  0  0  0  0  0  0  0  0
   -4.7542   -2.1004   -1.6775 C   0  0  0  0  0  0  0  0  0  0  0  0
   -5.0989   -2.3812   -2.9424 F   0  0  0  0  0  0  0  0  0  0  0  0
   -3.4151   -2.0702   -1.3096 C   0  0  0  0  0  0  0  0  0  0  0  0
   -2.4712   -2.3255   -2.2295 F   0  0  0  0  0  0  0  0  0  0  0  0
    0.6771   -1.6829    1.0887 H   0  0  0  0  0  0  0  0  0  0  0  0
    2.8159   -1.1286    0.8804 H   0  0  0  0  0  0  0  0  0  0  0  0
    3.8272    1.0221   -0.0415 H   0  0  0  0  0  0  0  0  0  0  0  0
    3.5254    1.6262    1.6014 H   0  0  0  0  0  0  0  0  0  0  0  0
    4.8261   -0.2452    2.5662 H   0  0  0  0  0  0  0  0  0  0  0  0
    5.8375    0.6451    1.4222 H   0  0  0  0  0  0  0  0  0  0  0  0
    6.7466   -0.5744   -0.3474 H   0  0  0  0  0  0  0  0  0  0  0  0
    5.9411   -2.0622   -0.8846 H   0  0  0  0  0  0  0  0  0  0  0  0
    5.1333   -0.5039   -1.1302 H   0  0  0  0  0  0  0  0  0  0  0  0
   -3.3829    0.8941   -0.8083 H   0  0  0  0  0  0  0  0  0  0  0  0
    0.8570    3.9213   -0.5534 H   0  0  0  0  0  0  0  0  0  0  0  0
   -0.6819    4.6890   -0.0604 H   0  0  0  0  0  0  0  0  0  0  0  0
   -0.3699    4.3176   -1.7890 H   0  0  0  0  0  0  0  0  0  0  0  0
   -3.7693   -1.3173    1.9896 H   0  0  0  0  0  0  0  0  0  0  0  0
   -6.1713   -1.3587    1.3181 H   0  0  0  0  0  0  0  0  0  0  0  0
  1  2  1  0
  2  3  1  0
  3  4  1  0
  4  5  1  0
  5  6  1  0
  6  7  1  0
  2  8  2  0
  8  9  1  0
  9 10  2  0
 10 11  1  0
 11 12  2  0
 12 13  1  0
 13 14  1  0
 10 15  1  0
 15 16  2  3
 16 17  1  0
 17 18  2  0
 18 19  1  0
 19 20  2  0
 20 21  1  0
 20 22  1  0
 22 23  1  0
 22 24  2  0
 24 25  1  0
 15  1  1  0
 24 17  1  0
 13  9  1  0
  1 26  1  0
  3 27  1  0
  4 28  1  0
  4 29  1  0
  5 30  1  0
  5 31  1  0
  7 32  1  0
  7 33  1  0
  7 34  1  0
 11 35  1  0
 14 36  1  0
 14 37  1  0
 14 38  1  0
 18 39  1  0
 19 40  1  0
M  END
>  <ScrubInfo>  (3) 
{"isomerGroup": 0, "isomerId": 2, "confId": 0, "nr_conformers:": 1, "nr_isomers:": 9}

$$$$
_i3
     RDKit          3D

 40 42  0  0  0  0  0  0  0  0999 V2000
    1.3453    1.6547   -0.0450 N   0  0  0  0  0  0  0  0  0  0  0  0
    1.4602    0.4150    0.5466 C   0  0  0  0  0  0  0  0  0  0  0  0
    2.6392   -0.1091    0.6300 N   0  0  0  0  0  0  0  0  0  0  0  0
    2.7340   -1.4417    1.2417 C   0  0  0  0  0  0  0  0  0  0  0  0
    4.1883   -1.9189    1.1917 C   0  0  0  0  0  0  0  0  0  0  0  0
    4.5150   -2.3586   -0.1311 O   0  0  0  0  0  0  0  0  0  0  0  0
    5.8796   -2.7370   -0.2336 C   0  0  0  0  0  0  0  0  0  0  0  0
    0.3568   -0.2594    1.0537 N   0  0  0  0  0  0  0  0  0  0  0  0
   -0.8232    0.2838    0.9323 C   0  0  0  0  0  0  0  0  0  0  0  0
   -1.9625   -0.3143    1.4152 N   0  0  0  0  0  0  0  0  0  0  0  0
   -3.0776   -0.6512    0.5970 C   0  0  0  0  0  0  0  0  0  0  0  0
   -4.3090   -0.8767    1.2359 C   0  0  0  0  0  0  0  0  0  0  0  0
   -5.4360   -1.2572    0.5017 C   0  0  0  0  0  0  0  0  0  0  0  0
   -5.3325   -1.4360   -0.8738 C   0  0  0  0  0  0  0  0  0  0  0  0
   -6.4169   -1.8043   -1.5687 F   0  0  0  0  0  0  0  0  0  0  0  0
   -4.1191   -1.2481   -1.5195 C   0  0  0  0  0  0  0  0  0  0  0  0
   -4.0256   -1.4444   -2.8424 F   0  0  0  0  0  0  0  0  0  0  0  0
   -2.9974   -0.8689   -0.7898 C   0  0  0  0  0  0  0  0  0  0  0  0
   -1.8272   -0.7327   -1.4308 F   0  0  0  0  0  0  0  0  0  0  0  0
   -0.9843    1.5956    0.3467 C   0  0  0  0  0  0  0  0  0  0  0  0
   -2.0174    2.5156    0.1145 C   0  0  0  0  0  0  0  0  0  0  0  0
   -1.5804    3.6346   -0.4854 N   0  0  0  0  0  0  0  0  0  0  0  0
   -0.2483    3.4224   -0.6357 N   0  0  0  0  0  0  0  0  0  0  0  0
    0.5597    4.4370   -1.2624 C   0  0  0  0  0  0  0  0  0  0  0  0
    0.1337    2.2225   -0.1288 C   0  0  0  0  0  0  0  0  0  0  0  0
    2.2148    2.0397   -0.3887 H   0  0  0  0  0  0  0  0  0  0  0  0
    2.4234   -1.3863    2.2916 H   0  0  0  0  0  0  0  0  0  0  0  0
    2.1000   -2.1577    0.7054 H   0  0  0  0  0  0  0  0  0  0  0  0
    4.3115   -2.7665    1.8756 H   0  0  0  0  0  0  0  0  0  0  0  0
    4.8676   -1.1137    1.4956 H   0  0  0  0  0  0  0  0  0  0  0  0
    6.1024   -3.5600    0.4524 H   0  0  0  0  0  0  0  0  0  0  0  0
    6.0680   -3.0744   -1.2563 H   0  0  0  0  0  0  0  0  0  0  0  0
    6.5311   -1.8836   -0.0225 H   0  0  0  0  0  0  0  0  0  0  0  0
   -1.6789   -1.1610    1.9071 H   0  0  0  0  0  0  0  0  0  0  0  0
   -4.3982   -0.7395    2.3125 H   0  0  0  0  0  0  0  0  0  0  0  0
   -6.3914   -1.4171    0.9935 H   0  0  0  0  0  0  0  0  0  0  0  0
   -3.0690    2.4321    0.3538 H   0  0  0  0  0  0  0  0  0  0  0  0
    0.5347    5.3317   -0.6354 H   0  0  0  0  0  0  0  0  0  0  0  0
    0.1423    4.6500   -2.2498 H   0  0  0  0  0  0  0  0  0  0  0  0
    1.5877    4.0834   -1.3657 H   0  0  0  0  0  0  0  0  0  0  0  0
  1  2  1  0
  2  3  2  3
  3  4  1  0
  4  5  1  0
  5  6  1  0
  6  7  1  0
  2  8  1  0
  8  9  2  0
  9 10  1  0
 10 11  1  0
 11 12  2  0
 12 13  1  0
 13 14  2  0
 14 15  1  0
 14 16  1  0
 16 17  1  0
 16 18  2  0
 18 19  1  0
  9 20  1  0
 20 21  1  0
 21 22  2  0
 22 23  1  0
 23 24  1  0
 23 25  1  0
 25  1  1  0
 18 11  1  0
 25 20  2  0
  1 26  1  0
  4 27  1  0
  4 28  1  0
  5 29  1  0
  5 30  1  0
  7 31  1  0
  7 32  1  0
  7 33  1  0
 10 34  1  0
 12 35  1  0
 13 36  1  0
 21 37  1  0
 24 38  1  0
 24 39  1  0
 24 40  1  0
M  END
>  <ScrubInfo>  (4) 
{"isomerGroup": 0, "isomerId": 3, "confId": 0, "nr_conformers:": 1, "nr_isomers:": 9}

$$$$
_i4
     RDKit          3D

 40 42  0  0  0  0  0  0  0  0999 V2000
   -1.3762    4.4886   -0.8354 N   0  0  0  0  0  0  0  0  0  0  0  0
   -2.1819    3.3752   -0.6189 C   0  0  0  0  0  0  0  0  0  0  0  0
   -1.4814    2.2373   -0.5307 C   0  0  0  0  0  0  0  0  0  0  0  0
   -1.7486    0.8395   -0.2883 C   0  0  0  0  0  0  0  0  0  0  0  0
   -2.9524    0.3764   -0.1484 N   0  0  0  0  0  0  0  0  0  0  0  0
   -3.1033   -0.9945    0.1205 C   0  0  0  0  0  0  0  0  0  0  0  0
   -3.4955   -1.8544   -0.9140 C   0  0  0  0  0  0  0  0  0  0  0  0
   -3.6692   -3.2194   -0.6733 C   0  0  0  0  0  0  0  0  0  0  0  0
   -3.4597   -3.7209    0.6079 C   0  0  0  0  0  0  0  0  0  0  0  0
   -3.6294   -5.0313    0.8322 F   0  0  0  0  0  0  0  0  0  0  0  0
   -3.0858   -2.8780    1.6463 C   0  0  0  0  0  0  0  0  0  0  0  0
   -2.8981   -3.3743    2.8782 F   0  0  0  0  0  0  0  0  0  0  0  0
   -2.9135   -1.5211    1.4065 C   0  0  0  0  0  0  0  0  0  0  0  0
   -2.5649   -0.7118    2.4202 F   0  0  0  0  0  0  0  0  0  0  0  0
   -0.6311    0.0497   -0.2266 N   0  0  0  0  0  0  0  0  0  0  0  0
    0.5694    0.5248   -0.4028 C   0  0  0  0  0  0  0  0  0  0  0  0
    1.5907   -0.3735   -0.3070 N   0  0  0  0  0  0  0  0  0  0  0  0
    2.9409    0.0188    0.0569 C   0  0  0  0  0  0  0  0  0  0  0  0
    3.8587   -1.2064    0.0319 C   0  0  0  0  0  0  0  0  0  0  0  0
    3.4087   -2.1506    1.0115 O   0  0  0  0  0  0  0  0  0  0  0  0
    4.2127   -3.3230    1.0149 C   0  0  0  0  0  0  0  0  0  0  0  0
    0.8786    1.8339   -0.6771 N   0  0  0  0  0  0  0  0  0  0  0  0
   -0.0978    2.6688   -0.7591 C   0  0  0  0  0  0  0  0  0  0  0  0
   -0.0737    4.0366   -1.0401 N   0  0  0  0  0  0  0  0  0  0  0  0
    1.0336    4.8656   -0.6049 C   0  0  0  0  0  0  0  0  0  0  0  0
   -1.7487    5.1245   -1.5444 H   0  0  0  0  0  0  0  0  0  0  0  0
   -3.2534    3.4945   -0.5406 H   0  0  0  0  0  0  0  0  0  0  0  0
   -3.6578   -1.4525   -1.9111 H   0  0  0  0  0  0  0  0  0  0  0  0
   -3.9656   -3.8902   -1.4738 H   0  0  0  0  0  0  0  0  0  0  0  0
    1.2933   -1.2358    0.1419 H   0  0  0  0  0  0  0  0  0  0  0  0
    3.3239    0.7688   -0.6434 H   0  0  0  0  0  0  0  0  0  0  0  0
    2.9287    0.4494    1.0646 H   0  0  0  0  0  0  0  0  0  0  0  0
    3.8407   -1.6740   -0.9597 H   0  0  0  0  0  0  0  0  0  0  0  0
    4.8845   -0.9020    0.2677 H   0  0  0  0  0  0  0  0  0  0  0  0
    4.1605   -3.8256    0.0443 H   0  0  0  0  0  0  0  0  0  0  0  0
    3.8285   -4.0017    1.7809 H   0  0  0  0  0  0  0  0  0  0  0  0
    5.2507   -3.0747    1.2560 H   0  0  0  0  0  0  0  0  0  0  0  0
    0.9216    5.8838   -0.9912 H   0  0  0  0  0  0  0  0  0  0  0  0
    1.9824    4.4686   -0.9797 H   0  0  0  0  0  0  0  0  0  0  0  0
    1.0800    4.9111    0.4882 H   0  0  0  0  0  0  0  0  0  0  0  0
  1  2  1  0
  2  3  2  0
  3  4  1  0
  4  5  2  3
  5  6  1  0
  6  7  2  0
  7  8  1  0
  8  9  2  0
  9 10  1  0
  9 11  1  0
 11 12  1  0
 11 13  2  0
 13 14  1  0
  4 15  1  0
 15 16  2  0
 16 17  1  0
 17 18  1  0
 18 19  1  0
 19 20  1  0
 20 21  1  0
 16 22  1  0
 22 23  2  0
 23 24  1  0
 24 25  1  0
 24  1  1  0
 23  3  1  0
 13  6  1  0
  1 26  1  0
  2 27  1  0
  7 28  1  0
  8 29  1  0
 17 30  1  0
 18 31  1  0
 18 32  1  0
 19 33  1  0
 19 34  1  0
 21 35  1  0
 21 36  1  0
 21 37  1  0
 25 38  1  0
 25 39  1  0
 25 40  1  0
M  END
>  <ScrubInfo>  (5) 
{"isomerGroup": 0, "isomerId": 4, "confId": 0, "nr_conformers:": 1, "nr_isomers:": 9}

$$$$
_i5
     RDKit          3D

 40 42  0  0  0  0  0  0  0  0999 V2000
    0.7265   -2.1914    0.4519 N   0  0  0  0  0  0  0  0  0  0  0  0
    0.5030   -0.8552    0.6938 C   0  0  0  0  0  0  0  0  0  0  0  0
    1.4907   -0.2501    1.4190 N   0  0  0  0  0  0  0  0  0  0  0  0
    2.8144   -0.0557    0.8118 C   0  0  0  0  0  0  0  0  0  0  0  0
    2.8251    1.2151   -0.0510 C   0  0  0  0  0  0  0  0  0  0  0  0
    2.4674    2.3633    0.7290 O   0  0  0  0  0  0  0  0  0  0  0  0
    3.5732    2.9451    1.4063 C   0  0  0  0  0  0  0  0  0  0  0  0
   -0.5411   -0.1743    0.3140 N   0  0  0  0  0  0  0  0  0  0  0  0
   -1.5224   -0.8129   -0.4340 C   0  0  0  0  0  0  0  0  0  0  0  0
   -2.5611   -0.2140   -0.9243 N   0  0  0  0  0  0  0  0  0  0  0  0
   -2.6610    1.1742   -0.7305 C   0  0  0  0  0  0  0  0  0  0  0  0
   -3.5976    1.6681    0.1867 C   0  0  0  0  0  0  0  0  0  0  0  0
   -3.7314    3.0436    0.3913 C   0  0  0  0  0  0  0  0  0  0  0  0
   -2.9331    3.9251   -0.3320 C   0  0  0  0  0  0  0  0  0  0  0  0
   -3.0693    5.2434   -0.1323 F   0  0  0  0  0  0  0  0  0  0  0  0
   -2.0117    3.4509   -1.2565 C   0  0  0  0  0  0  0  0  0  0  0  0
   -1.2593    4.3129   -1.9566 F   0  0  0  0  0  0  0  0  0  0  0  0
   -1.8794    2.0837   -1.4597 C   0  0  0  0  0  0  0  0  0  0  0  0
   -0.9954    1.6350   -2.3664 F   0  0  0  0  0  0  0  0  0  0  0  0
   -1.3630   -2.2267   -0.6585 C   0  0  0  0  0  0  0  0  0  0  0  0
   -2.1069   -3.2401   -1.2764 C   0  0  0  0  0  0  0  0  0  0  0  0
   -1.4997   -4.4363   -1.1974 N   0  0  0  0  0  0  0  0  0  0  0  0
   -0.3503   -4.1729   -0.5259 N   0  0  0  0  0  0  0  0  0  0  0  0
    0.5692   -5.2495   -0.2618 C   0  0  0  0  0  0  0  0  0  0  0  0
   -0.2403   -2.8590   -0.2003 C   0  0  0  0  0  0  0  0  0  0  0  0
    1.4766   -2.6278    0.9709 H   0  0  0  0  0  0  0  0  0  0  0  0
    1.1506    0.6815    1.6787 H   0  0  0  0  0  0  0  0  0  0  0  0
    3.1072   -0.9239    0.2116 H   0  0  0  0  0  0  0  0  0  0  0  0
    3.5378    0.0383    1.6275 H   0  0  0  0  0  0  0  0  0  0  0  0
    2.0788    1.1272   -0.8481 H   0  0  0  0  0  0  0  0  0  0  0  0
    3.8016    1.3592   -0.5272 H   0  0  0  0  0  0  0  0  0  0  0  0
    3.2134    3.8129    1.9658 H   0  0  0  0  0  0  0  0  0  0  0  0
    4.0166    2.2381    2.1124 H   0  0  0  0  0  0  0  0  0  0  0  0
    4.3262    3.2835    0.6881 H   0  0  0  0  0  0  0  0  0  0  0  0
   -4.2185    0.9718    0.7452 H   0  0  0  0  0  0  0  0  0  0  0  0
   -4.4511    3.4301    1.1063 H   0  0  0  0  0  0  0  0  0  0  0  0
   -3.0644   -3.1636   -1.7757 H   0  0  0  0  0  0  0  0  0  0  0  0
    0.0726   -5.9737    0.3888 H   0  0  0  0  0  0  0  0  0  0  0  0
    1.4648   -4.8622    0.2287 H   0  0  0  0  0  0  0  0  0  0  0  0
    0.8413   -5.7134   -1.2133 H   0  0  0  0  0  0  0  0  0  0  0  0
  1  2  1  0
  2  3  1  0
  3  4  1  0
  4  5  1  0
  5  6  1  0
  6  7  1  0
  2  8  2  0
  8  9  1  0
  9 10  2  3
 10 11  1  0
 11 12  2  0
 12 13  1  0
 13 14  2  0
 14 15  1  0
 14 16  1  0
 16 17  1  0
 16 18  2  0
 18 19  1  0
  9 20  1  0
 20 21  1  0
 21 22  2  0
 22 23  1  0
 23 24  1  0
 23 25  1  0
 25  1  1  0
 18 11  1  0
 25 20  2  0
  1 26  1  0
  3 27  1  0
  4 28  1  0
  4 29  1  0
  5 30  1  0
  5 31  1  0
  7 32  1  0
  7 33  1  0
  7 34  1  0
 12 35  1  0
 13 36  1  0
 21 37  1  0
 24 38  1  0
 24 39  1  0
 24 40  1  0
M  END
>  <ScrubInfo>  (6) 
{"isomerGroup": 0, "isomerId": 5, "confId": 0, "nr_conformers:": 1, "nr_isomers:": 9}

$$$$
_i6
     RDKit          3D

 40 42  0  0  0  0  0  0  0  0999 V2000
   -0.7239   -4.3714    0.2817 N   0  0  0  0  0  0  0  0  0  0  0  0
   -1.5292   -3.2953    0.6383 C   0  0  0  0  0  0  0  0  0  0  0  0
   -0.8895   -2.1194    0.5693 C   0  0  0  0  0  0  0  0  0  0  0  0
   -1.1796   -0.6986    0.7844 C   0  0  0  0  0  0  0  0  0  0  0  0
   -2.4341   -0.3236    1.2235 N   0  0  0  0  0  0  0  0  0  0  0  0
   -2.9678    0.9595    1.4697 C   0  0  0  0  0  0  0  0  0  0  0  0
   -2.2812    2.1640    1.2713 C   0  0  0  0  0  0  0  0  0  0  0  0
   -2.8893    3.3961    1.5501 C   0  0  0  0  0  0  0  0  0  0  0  0
   -4.1919    3.4337    2.0326 C   0  0  0  0  0  0  0  0  0  0  0  0
   -4.7630    4.6166    2.2961 F   0  0  0  0  0  0  0  0  0  0  0  0
   -4.8932    2.2579    2.2390 C   0  0  0  0  0  0  0  0  0  0  0  0
   -6.1500    2.2914    2.7047 F   0  0  0  0  0  0  0  0  0  0  0  0
   -4.2852    1.0396    1.9604 C   0  0  0  0  0  0  0  0  0  0  0  0
   -4.9681   -0.1011    2.1617 F   0  0  0  0  0  0  0  0  0  0  0  0
   -0.2143    0.1401    0.5466 N   0  0  0  0  0  0  0  0  0  0  0  0
    1.0031   -0.3119    0.0916 C   0  0  0  0  0  0  0  0  0  0  0  0
    1.8262    0.6328   -0.1964 N   0  0  0  0  0  0  0  0  0  0  0  0
    3.1493    0.2484   -0.6999 C   0  0  0  0  0  0  0  0  0  0  0  0
    3.9112    1.5067   -1.1247 C   0  0  0  0  0  0  0  0  0  0  0  0
    3.4657    1.9342   -2.4170 O   0  0  0  0  0  0  0  0  0  0  0  0
    4.0642    3.1654   -2.7934 C   0  0  0  0  0  0  0  0  0  0  0  0
    1.3897   -1.6242   -0.0576 N   0  0  0  0  0  0  0  0  0  0  0  0
    0.4828   -2.5066    0.1762 C   0  0  0  0  0  0  0  0  0  0  0  0
    0.5720   -3.8974    0.1080 N   0  0  0  0  0  0  0  0  0  0  0  0
    1.4351   -4.5399   -0.8658 C   0  0  0  0  0  0  0  0  0  0  0  0
   -0.8262   -5.1854    0.8927 H   0  0  0  0  0  0  0  0  0  0  0  0
   -2.5517   -3.4872    0.9284 H   0  0  0  0  0  0  0  0  0  0  0  0
   -3.1104   -1.0610    1.3957 H   0  0  0  0  0  0  0  0  0  0  0  0
   -1.2621    2.1821    0.8928 H   0  0  0  0  0  0  0  0  0  0  0  0
   -2.3457    4.3233    1.3900 H   0  0  0  0  0  0  0  0  0  0  0  0
    3.7115   -0.2453    0.1014 H   0  0  0  0  0  0  0  0  0  0  0  0
    3.0621   -0.4268   -1.5597 H   0  0  0  0  0  0  0  0  0  0  0  0
    3.7683    2.3103   -0.3926 H   0  0  0  0  0  0  0  0  0  0  0  0
    4.9799    1.2736   -1.1939 H   0  0  0  0  0  0  0  0  0  0  0  0
    3.7047    3.4329   -3.7907 H   0  0  0  0  0  0  0  0  0  0  0  0
    3.7793    3.9592   -2.0961 H   0  0  0  0  0  0  0  0  0  0  0  0
    5.1535    3.0679   -2.8291 H   0  0  0  0  0  0  0  0  0  0  0  0
    1.0899   -4.3375   -1.8850 H   0  0  0  0  0  0  0  0  0  0  0  0
    2.4640   -4.1797   -0.7656 H   0  0  0  0  0  0  0  0  0  0  0  0
    1.4437   -5.6235   -0.7098 H   0  0  0  0  0  0  0  0  0  0  0  0
  1  2  1  0
  2  3  2  0
  3  4  1  0
  4  5  1  0
  5  6  1  0
  6  7  2  0
  7  8  1  0
  8  9  2  0
  9 10  1  0
  9 11  1  0
 11 12  1  0
 11 13  2  0
 13 14  1  0
  4 15  2  0
 15 16  1  0
 16 17  2  3
 17 18  1  0
 18 19  1  0
 19 20  1  0
 20 21  1  0
 16 22  1  0
 22 23  2  0
 23 24  1  0
 24 25  1  0
 24  1  1  0
 23  3  1  0
 13  6  1  0
  1 26  1  0
  2 27  1  0
  5 28  1  0
  7 29  1  0
  8 30  1  0
 18 31  1  0
 18 32  1  0
 19 33  1  0
 19 34  1  0
 21 35  1  0
 21 36  1  0
 21 37  1  0
 25 38  1  0
 25 39  1  0
 25 40  1  0
M  END
>  <ScrubInfo>  (7) 
{"isomerGroup": 0, "isomerId": 6, "confId": 0, "nr_conformers:": 1, "nr_isomers:": 9}

$$$$
_i7
     RDKit          3D

 40 42  0  0  0  0  0  0  0  0999 V2000
   -1.0562    4.3824   -0.7213 N   0  0  0  0  0  0  0  0  0  0  0  0
   -1.9376    3.3248   -0.5285 C   0  0  0  0  0  0  0  0  0  0  0  0
   -1.3206    2.1394   -0.4582 C   0  0  0  0  0  0  0  0  0  0  0  0
   -1.6818    0.7358   -0.2382 C   0  0  0  0  0  0  0  0  0  0  0  0
   -2.9363    0.4212   -0.1087 N   0  0  0  0  0  0  0  0  0  0  0  0
   -3.2993   -0.9143    0.1236 C   0  0  0  0  0  0  0  0  0  0  0  0
   -3.9059   -1.6390   -0.9098 C   0  0  0  0  0  0  0  0  0  0  0  0
   -4.3186   -2.9581   -0.7041 C   0  0  0  0  0  0  0  0  0  0  0  0
   -4.1333   -3.5487    0.5425 C   0  0  0  0  0  0  0  0  0  0  0  0
   -4.5305   -4.8141    0.7319 F   0  0  0  0  0  0  0  0  0  0  0  0
   -3.5445   -2.8389    1.5803 C   0  0  0  0  0  0  0  0  0  0  0  0
   -3.3685   -3.4191    2.7760 F   0  0  0  0  0  0  0  0  0  0  0  0
   -3.1338   -1.5280    1.3739 C   0  0  0  0  0  0  0  0  0  0  0  0
   -2.5562   -0.8514    2.3789 F   0  0  0  0  0  0  0  0  0  0  0  0
   -0.5794   -0.0795   -0.2078 N   0  0  0  0  0  0  0  0  0  0  0  0
    0.7265    0.3047   -0.3637 C   0  0  0  0  0  0  0  0  0  0  0  0
    1.6366   -0.6093   -0.2778 N   0  0  0  0  0  0  0  0  0  0  0  0
    3.0334   -0.1729   -0.4236 C   0  0  0  0  0  0  0  0  0  0  0  0
    3.9623   -1.3699   -0.2022 C   0  0  0  0  0  0  0  0  0  0  0  0
    4.0447   -1.6725    1.1946 O   0  0  0  0  0  0  0  0  0  0  0  0
    4.8387   -2.8251    1.4336 C   0  0  0  0  0  0  0  0  0  0  0  0
    1.0779    1.6148   -0.6209 N   0  0  0  0  0  0  0  0  0  0  0  0
    0.1187    2.4854   -0.6777 C   0  0  0  0  0  0  0  0  0  0  0  0
    0.2168    3.8564   -0.9333 N   0  0  0  0  0  0  0  0  0  0  0  0
    1.3713    4.6131   -0.4858 C   0  0  0  0  0  0  0  0  0  0  0  0
   -1.3833    5.0647   -1.4088 H   0  0  0  0  0  0  0  0  0  0  0  0
   -2.9982    3.5180   -0.4505 H   0  0  0  0  0  0  0  0  0  0  0  0
   -4.0629   -1.1660   -1.8769 H   0  0  0  0  0  0  0  0  0  0  0  0
   -4.7882   -3.5236   -1.5037 H   0  0  0  0  0  0  0  0  0  0  0  0
   -0.6861   -1.0611   -0.0097 H   0  0  0  0  0  0  0  0  0  0  0  0
    3.1940    0.2094   -1.4384 H   0  0  0  0  0  0  0  0  0  0  0  0
    3.2717    0.6081    0.3085 H   0  0  0  0  0  0  0  0  0  0  0  0
    3.5979   -2.2454   -0.7525 H   0  0  0  0  0  0  0  0  0  0  0  0
    4.9668   -1.1163   -0.5598 H   0  0  0  0  0  0  0  0  0  0  0  0
    4.3950   -3.7026    0.9534 H   0  0  0  0  0  0  0  0  0  0  0  0
    4.8766   -3.0002    2.5121 H   0  0  0  0  0  0  0  0  0  0  0  0
    5.8587   -2.6711    1.0686 H   0  0  0  0  0  0  0  0  0  0  0  0
    1.3146    5.6442   -0.8493 H   0  0  0  0  0  0  0  0  0  0  0  0
    2.2951    4.1726   -0.8744 H   0  0  0  0  0  0  0  0  0  0  0  0
    1.4242    4.6318    0.6078 H   0  0  0  0  0  0  0  0  0  0  0  0
  1  2  1  0
  2  3  2  0
  3  4  1  0
  4  5  2  3
  5  6  1  0
  6  7  2  0
  7  8  1  0
  8  9  2  0
  9 10  1  0
  9 11  1  0
 11 12  1  0
 11 13  2  0
 13 14  1  0
  4 15  1  0
 15 16  1  0
 16 17  2  3
 17 18  1  0
 18 19  1  0
 19 20  1  0
 20 21  1  0
 16 22  1  0
 22 23  2  0
 23 24  1  0
 24 25  1  0
 24  1  1  0
 23  3  1  0
 13  6  1  0
  1 26  1  0
  2 27  1  0
  7 28  1  0
  8 29  1  0
 15 30  1  0
 18 31  1  0
 18 32  1  0
 19 33  1  0
 19 34  1  0
 21 35  1  0
 21 36  1  0
 21 37  1  0
 25 38  1  0
 25 39  1  0
 25 40  1  0
M  END
>  <ScrubInfo>  (8) 
{"isomerGroup": 0, "isomerId": 7, "confId": 0, "nr_conformers:": 1, "nr_isomers:": 9}

$$$$
_i8
     RDKit          3D

 40 42  0  0  0  0  0  0  0  0999 V2000
    1.1319   -0.6347   -0.3850 N   0  0  0  0  0  0  0  0  0  0  0  0
    1.3395    0.6040    0.1983 C   0  0  0  0  0  0  0  0  0  0  0  0
    2.4616    1.2097    0.3967 N   0  0  0  0  0  0  0  0  0  0  0  0
    3.6907    0.5463   -0.0334 C   0  0  0  0  0  0  0  0  0  0  0  0
    4.8789    1.4840    0.1923 C   0  0  0  0  0  0  0  0  0  0  0  0
    6.1042    0.8687   -0.2135 O   0  0  0  0  0  0  0  0  0  0  0  0
    6.6966    0.0917    0.8189 C   0  0  0  0  0  0  0  0  0  0  0  0
    0.1745    1.2192    0.6002 N   0  0  0  0  0  0  0  0  0  0  0  0
   -1.1462    0.8362    0.5107 C   0  0  0  0  0  0  0  0  0  0  0  0
   -2.0979    1.6038    0.9504 N   0  0  0  0  0  0  0  0  0  0  0  0
   -3.4518    1.2754    0.8322 C   0  0  0  0  0  0  0  0  0  0  0  0
   -4.1208    0.7123    1.9268 C   0  0  0  0  0  0  0  0  0  0  0  0
   -5.4869    0.4286    1.8512 C   0  0  0  0  0  0  0  0  0  0  0  0
   -6.1864    0.7250    0.6846 C   0  0  0  0  0  0  0  0  0  0  0  0
   -7.4962    0.4506    0.6208 F   0  0  0  0  0  0  0  0  0  0  0  0
   -5.5402    1.3011   -0.4010 C   0  0  0  0  0  0  0  0  0  0  0  0
   -6.2257    1.5846   -1.5179 F   0  0  0  0  0  0  0  0  0  0  0  0
   -4.1818    1.5809   -0.3260 C   0  0  0  0  0  0  0  0  0  0  0  0
   -3.5627    2.1372   -1.3793 F   0  0  0  0  0  0  0  0  0  0  0  0
   -1.2629   -0.4764   -0.1025 C   0  0  0  0  0  0  0  0  0  0  0  0
   -2.2905   -1.3806   -0.4274 C   0  0  0  0  0  0  0  0  0  0  0  0
   -1.8366   -2.5044   -1.0004 N   0  0  0  0  0  0  0  0  0  0  0  0
   -0.4991   -2.3257   -1.0466 N   0  0  0  0  0  0  0  0  0  0  0  0
    0.3307   -3.3508   -1.6284 C   0  0  0  0  0  0  0  0  0  0  0  0
   -0.1204   -1.1317   -0.5129 C   0  0  0  0  0  0  0  0  0  0  0  0
    1.9485   -1.1336   -0.7115 H   0  0  0  0  0  0  0  0  0  0  0  0
    3.6506    0.2839   -1.0979 H   0  0  0  0  0  0  0  0  0  0  0  0
    3.8381   -0.3824    0.5292 H   0  0  0  0  0  0  0  0  0  0  0  0
    4.7496    2.3807   -0.4243 H   0  0  0  0  0  0  0  0  0  0  0  0
    4.9359    1.8206    1.2348 H   0  0  0  0  0  0  0  0  0  0  0  0
    6.9434    0.7224    1.6784 H   0  0  0  0  0  0  0  0  0  0  0  0
    6.0350   -0.7226    1.1267 H   0  0  0  0  0  0  0  0  0  0  0  0
    7.6223   -0.3427    0.4317 H   0  0  0  0  0  0  0  0  0  0  0  0
    0.3147    2.1321    1.0089 H   0  0  0  0  0  0  0  0  0  0  0  0
   -3.5727    0.5014    2.8424 H   0  0  0  0  0  0  0  0  0  0  0  0
   -6.0096   -0.0120    2.6952 H   0  0  0  0  0  0  0  0  0  0  0  0
   -3.3570   -1.2941   -0.2786 H   0  0  0  0  0  0  0  0  0  0  0  0
   -0.1491   -4.3231   -1.4884 H   0  0  0  0  0  0  0  0  0  0  0  0
    0.4436   -3.1324   -2.6929 H   0  0  0  0  0  0  0  0  0  0  0  0
    1.3043   -3.3535   -1.1330 H   0  0  0  0  0  0  0  0  0  0  0  0
  1  2  1  0
  2  3  2  3
  3  4  1  0
  4  5  1  0
  5  6  1  0
  6  7  1  0
  2  8  1  0
  8  9  1  0
  9 10  2  3
 10 11  1  0
 11 12  2  0
 12 13  1  0
 13 14  2  0
 14 15  1  0
 14 16  1  0
 16 17  1  0
 16 18  2  0
 18 19  1  0
  9 20  1  0
 20 21  1  0
 21 22  2  0
 22 23  1  0
 23 24  1  0
 23 25  1  0
 25  1  1  0
 18 11  1  0
 25 20  2  0
  1 26  1  0
  4 27  1  0
  4 28  1  0
  5 29  1  0
  5 30  1  0
  7 31  1  0
  7 32  1  0
  7 33  1  0
  8 34  1  0
 12 35  1  0
 13 36  1  0
 21 37  1  0
 24 38  1  0
 24 39  1  0
 24 40  1  0
M  END
>  <ScrubInfo>  (9) 
{"isomerGroup": 0, "isomerId": 8, "confId": 0, "nr_conformers:": 1, "nr_isomers:": 9}

$$$$
