REMARK SMILES COCCNc1nc(Nc2ccc(F)c(F)c2F)c2cnn(C)c2n1
REMARK SMILES IDX 5 1 4 3 3 4 2 5 1 6 6 7 7 8 25 9 8 10 24 11 19 12 22 13
REMARK SMILES IDX 20 14 21 15 23 16 9 17 10 19 11 20 17 21 12 22 15 23 13 24
REMARK SMILES IDX 18 25 16 26 14 27
REMARK H PARENT 5 2 9 18
ROOT
ATOM      1  N   UNL     1       2.090   0.026   1.181  1.00  0.00    -0.352 N 
ATOM      2  H   UNL     1       2.975  -0.348   0.851  1.00  0.00     0.163 HD
ENDROOT
BRANCH   1   3
ATOM      3  C   UNL     1       1.942   1.462   0.975  1.00  0.00     0.144 C 
BRANCH   3   4
ATOM      4  C   UNL     1       2.274   1.870  -0.469  1.00  0.00     0.181 C 
BRANCH   4   5
ATOM      5  O   UNL     1       3.584   1.443  -0.870  1.00  0.00    -0.383 OA
ATOM      6  C   UNL     1       4.624   2.263  -0.354  1.00  0.00     0.194 C 
ENDBRANCH   4   5
ENDBRANCH   3   4
ENDBRANCH   1   3
BRANCH   1   7
ATOM      7  C   UNL     1       1.101  -0.779   0.632  1.00  0.00     0.226 A 
ATOM      8  N   UNL     1      -0.139  -0.283   0.453  1.00  0.00    -0.195 NA
ATOM      9  N   UNL     1       1.495  -2.016   0.308  1.00  0.00    -0.193 NA
ATOM     10  C   UNL     1      -1.135  -1.056  -0.051  1.00  0.00     0.147 A 
ATOM     11  C   UNL     1       0.504  -2.763  -0.199  1.00  0.00     0.165 A 
ATOM     12  C   UNL     1      -0.802  -2.367  -0.405  1.00  0.00     0.082 A 
ATOM     13  N   UNL     1       0.576  -4.063  -0.619  1.00  0.00    -0.250 N 
ATOM     14  C   UNL     1      -1.431  -3.506  -0.950  1.00  0.00     0.149 A 
ATOM     15  N   UNL     1      -0.598  -4.543  -1.093  1.00  0.00    -0.179 NA
ATOM     16  C   UNL     1       1.737  -4.917  -0.600  1.00  0.00     0.176 C 
BRANCH  10  17
ATOM     17  N   UNL     1      -2.418  -0.532  -0.269  1.00  0.00    -0.337 N 
ATOM     18  H   UNL     1      -2.992  -1.087  -0.888  1.00  0.00     0.168 HD
BRANCH  17  19
ATOM     19  C   UNL     1      -2.952   0.717   0.096  1.00  0.00     0.079 A 
ATOM     20  C   UNL     1      -3.844   1.342  -0.797  1.00  0.00     0.032 A 
ATOM     21  C   UNL     1      -2.594   1.417   1.262  1.00  0.00     0.185 A 
ATOM     22  C   UNL     1      -4.357   2.616  -0.533  1.00  0.00     0.045 A 
ATOM     23  C   UNL     1      -3.104   2.685   1.524  1.00  0.00     0.196 A 
ATOM     24  C   UNL     1      -3.979   3.280   0.627  1.00  0.00     0.162 A 
ATOM     25  F   UNL     1      -1.809   0.850   2.191  1.00  0.00    -0.201 F 
ATOM     26  F   UNL     1      -2.760   3.330   2.649  1.00  0.00    -0.200 F 
ATOM     27  F   UNL     1      -4.473   4.500   0.874  1.00  0.00    -0.204 F 
ENDBRANCH  17  19
ENDBRANCH  10  17
ENDBRANCH   1   7
TORSDOF 6
