_i0
     RDKit          3D

 44 46  0  0  0  0  0  0  0  0999 V2000
    7.2432   -0.1706   -0.4038 C   0  0  0  0  0  0  0  0  0  0  0  0
    5.8401   -0.0605   -0.6025 O   0  0  0  0  0  0  0  0  0  0  0  0
    5.1453   -1.1997   -0.0774 C   0  0  0  0  0  0  0  0  0  0  0  0
    3.6379   -1.0099   -0.2818 C   0  0  0  0  0  0  0  0  0  0  0  0
    3.1801    0.1247    0.5119 N   0  0  0  0  0  0  0  0  0  0  0  0
    1.8634    0.4959    0.2617 C   0  0  0  0  0  0  0  0  0  0  0  0
    0.9434   -0.4595    0.0218 N   0  0  0  0  0  0  0  0  0  0  0  0
   -0.3514   -0.1174   -0.2021 C   0  0  0  0  0  0  0  0  0  0  0  0
   -1.2533   -1.1690   -0.4583 N   0  0  0  0  0  0  0  0  0  0  0  0
   -2.5999   -1.2237   -0.0250 C   0  0  0  0  0  0  0  0  0  0  0  0
   -3.5508   -1.7572   -0.9062 C   0  0  0  0  0  0  0  0  0  0  0  0
   -4.8957   -1.8914   -0.5322 C   0  0  0  0  0  0  0  0  0  0  0  0
   -5.8941   -2.4698   -1.4909 C   0  0  0  0  0  0  0  0  0  0  0  0
   -5.2799   -1.5349    0.7648 C   0  0  0  0  0  0  0  0  0  0  0  0
   -4.3391   -1.0433    1.6709 C   0  0  0  0  0  0  0  0  0  0  0  0
   -3.0076   -0.9037    1.2794 C   0  0  0  0  0  0  0  0  0  0  0  0
   -2.0794   -0.4693    2.1862 O   0  0  0  0  0  0  0  0  0  0  0  0
   -0.6732    1.2413   -0.2145 C   0  0  0  0  0  0  0  0  0  0  0  0
   -1.8002    2.0621   -0.4240 C   0  0  0  0  0  0  0  0  0  0  0  0
   -1.5243    3.3678   -0.3090 N   0  0  0  0  0  0  0  0  0  0  0  0
   -0.2012    3.3753   -0.0218 N   0  0  0  0  0  0  0  0  0  0  0  0
    0.4728    4.6331    0.1778 C   0  0  0  0  0  0  0  0  0  0  0  0
    0.3550    2.1269    0.0371 C   0  0  0  0  0  0  0  0  0  0  0  0
    1.6364    1.8161    0.2845 N   0  0  0  0  0  0  0  0  0  0  0  0
    7.4762   -0.2170    0.6643 H   0  0  0  0  0  0  0  0  0  0  0  0
    7.7215    0.7166   -0.8272 H   0  0  0  0  0  0  0  0  0  0  0  0
    7.6341   -1.0560   -0.9143 H   0  0  0  0  0  0  0  0  0  0  0  0
    5.3742   -1.3084    0.9893 H   0  0  0  0  0  0  0  0  0  0  0  0
    5.4765   -2.0982   -0.6100 H   0  0  0  0  0  0  0  0  0  0  0  0
    3.1219   -1.9266    0.0264 H   0  0  0  0  0  0  0  0  0  0  0  0
    3.4427   -0.8287   -1.3463 H   0  0  0  0  0  0  0  0  0  0  0  0
    3.7409    0.9602    0.3610 H   0  0  0  0  0  0  0  0  0  0  0  0
   -0.7604   -2.0044   -0.1462 H   0  0  0  0  0  0  0  0  0  0  0  0
   -3.2356   -2.0537   -1.9050 H   0  0  0  0  0  0  0  0  0  0  0  0
   -5.9178   -3.5595   -1.3941 H   0  0  0  0  0  0  0  0  0  0  0  0
   -6.8969   -2.0752   -1.2962 H   0  0  0  0  0  0  0  0  0  0  0  0
   -5.6386   -2.2107   -2.5237 H   0  0  0  0  0  0  0  0  0  0  0  0
   -6.3146   -1.6494    1.0811 H   0  0  0  0  0  0  0  0  0  0  0  0
   -4.6585   -0.7897    2.6769 H   0  0  0  0  0  0  0  0  0  0  0  0
   -2.5239   -0.2554    3.0217 H   0  0  0  0  0  0  0  0  0  0  0  0
   -2.8130    1.7590   -0.6557 H   0  0  0  0  0  0  0  0  0  0  0  0
    1.5216    4.4613    0.4296 H   0  0  0  0  0  0  0  0  0  0  0  0
    0.4032    5.2105   -0.7475 H   0  0  0  0  0  0  0  0  0  0  0  0
   -0.0214    5.1623    0.9965 H   0  0  0  0  0  0  0  0  0  0  0  0
  1  2  1  0
  2  3  1  0
  3  4  1  0
  4  5  1  0
  5  6  1  0
  6  7  2  0
  7  8  1  0
  8  9  1  0
  9 10  1  0
 10 11  2  0
 11 12  1  0
 12 13  1  0
 12 14  2  0
 14 15  1  0
 15 16  2  0
 16 17  1  0
  8 18  2  0
 18 19  1  0
 19 20  2  0
 20 21  1  0
 21 22  1  0
 21 23  1  0
 23 24  2  0
 24  6  1  0
 16 10  1  0
 23 18  1  0
  1 25  1  0
  1 26  1  0
  1 27  1  0
  3 28  1  0
  3 29  1  0
  4 30  1  0
  4 31  1  0
  5 32  1  0
  9 33  1  0
 11 34  1  0
 13 35  1  0
 13 36  1  0
 13 37  1  0
 14 38  1  0
 15 39  1  0
 17 40  1  0
 19 41  1  0
 22 42  1  0
 22 43  1  0
 22 44  1  0
M  END
>  <ScrubInfo>  (1) 
{"isomerGroup": 0, "isomerId": 0, "confId": 0, "nr_conformers:": 1, "nr_isomers:": 9}

$$$$
_i1
     RDKit          3D

 44 46  0  0  0  0  0  0  0  0999 V2000
    0.5564    0.9894   -0.7479 N   0  0  0  0  0  0  0  0  0  0  0  0
   -0.3928    0.6912    0.2082 C   0  0  0  0  0  0  0  0  0  0  0  0
   -1.4448    1.5639    0.4603 N   0  0  0  0  0  0  0  0  0  0  0  0
   -2.7924    1.1408    0.6384 C   0  0  0  0  0  0  0  0  0  0  0  0
   -3.3615    0.0949   -0.0993 C   0  0  0  0  0  0  0  0  0  0  0  0
   -4.7200   -0.2292    0.0464 C   0  0  0  0  0  0  0  0  0  0  0  0
   -5.3222   -1.3439   -0.7584 C   0  0  0  0  0  0  0  0  0  0  0  0
   -5.5230    0.5408    0.8989 C   0  0  0  0  0  0  0  0  0  0  0  0
   -4.9771    1.6078    1.6113 C   0  0  0  0  0  0  0  0  0  0  0  0
   -3.6271    1.8989    1.4713 C   0  0  0  0  0  0  0  0  0  0  0  0
   -3.1122    2.9446    2.1886 O   0  0  0  0  0  0  0  0  0  0  0  0
   -0.1820   -0.4498    0.8791 C   0  0  0  0  0  0  0  0  0  0  0  0
   -0.7944   -1.1985    1.9834 C   0  0  0  0  0  0  0  0  0  0  0  0
   -0.1524   -2.3034    2.2716 N   0  0  0  0  0  0  0  0  0  0  0  0
    0.9014   -2.3788    1.3457 N   0  0  0  0  0  0  0  0  0  0  0  0
    1.9904   -3.2883    1.6102 C   0  0  0  0  0  0  0  0  0  0  0  0
    0.9932   -1.2730    0.5155 C   0  0  0  0  0  0  0  0  0  0  0  0
    1.8779   -0.9700   -0.3735 N   0  0  0  0  0  0  0  0  0  0  0  0
    1.6637    0.2268   -1.0185 C   0  0  0  0  0  0  0  0  0  0  0  0
    2.5040    0.6650   -1.8950 N   0  0  0  0  0  0  0  0  0  0  0  0
    3.7026   -0.1371   -2.1693 C   0  0  0  0  0  0  0  0  0  0  0  0
    4.8065    0.1258   -1.1346 C   0  0  0  0  0  0  0  0  0  0  0  0
    5.2002    1.4981   -1.0212 O   0  0  0  0  0  0  0  0  0  0  0  0
    5.8233    2.0095   -2.1891 C   0  0  0  0  0  0  0  0  0  0  0  0
    0.5262    1.8783   -1.2221 H   0  0  0  0  0  0  0  0  0  0  0  0
   -1.4542    2.3167   -0.2293 H   0  0  0  0  0  0  0  0  0  0  0  0
   -2.7560   -0.4726   -0.8026 H   0  0  0  0  0  0  0  0  0  0  0  0
   -6.1688   -1.7945   -0.2299 H   0  0  0  0  0  0  0  0  0  0  0  0
   -4.5889   -2.1383   -0.9331 H   0  0  0  0  0  0  0  0  0  0  0  0
   -5.6695   -0.9630   -1.7237 H   0  0  0  0  0  0  0  0  0  0  0  0
   -6.5825    0.3177    1.0074 H   0  0  0  0  0  0  0  0  0  0  0  0
   -5.5993    2.2070    2.2695 H   0  0  0  0  0  0  0  0  0  0  0  0
   -2.1447    2.8898    2.0745 H   0  0  0  0  0  0  0  0  0  0  0  0
   -1.6843   -0.8241    2.5048 H   0  0  0  0  0  0  0  0  0  0  0  0
    2.7051   -2.8356    2.3045 H   0  0  0  0  0  0  0  0  0  0  0  0
    1.6193   -4.2188    2.0521 H   0  0  0  0  0  0  0  0  0  0  0  0
    2.5173   -3.5452    0.6857 H   0  0  0  0  0  0  0  0  0  0  0  0
    4.0545    0.1377   -3.1692 H   0  0  0  0  0  0  0  0  0  0  0  0
    3.4774   -1.2091   -2.2227 H   0  0  0  0  0  0  0  0  0  0  0  0
    5.6900   -0.4800   -1.3680 H   0  0  0  0  0  0  0  0  0  0  0  0
    4.4673   -0.1807   -0.1399 H   0  0  0  0  0  0  0  0  0  0  0  0
    6.6402    1.3584   -2.5146 H   0  0  0  0  0  0  0  0  0  0  0  0
    6.2384    2.9928   -1.9508 H   0  0  0  0  0  0  0  0  0  0  0  0
    5.0946    2.1380   -2.9938 H   0  0  0  0  0  0  0  0  0  0  0  0
  1  2  1  0
  2  3  1  0
  3  4  1  0
  4  5  2  0
  5  6  1  0
  6  7  1  0
  6  8  2  0
  8  9  1  0
  9 10  2  0
 10 11  1  0
  2 12  2  0
 12 13  1  0
 13 14  2  0
 14 15  1  0
 15 16  1  0
 15 17  1  0
 17 18  2  0
 18 19  1  0
 19 20  2  3
 20 21  1  0
 21 22  1  0
 22 23  1  0
 23 24  1  0
 19  1  1  0
 10  4  1  0
 17 12  1  0
  1 25  1  0
  3 26  1  0
  5 27  1  0
  7 28  1  0
  7 29  1  0
  7 30  1  0
  8 31  1  0
  9 32  1  0
 11 33  1  0
 13 34  1  0
 16 35  1  0
 16 36  1  0
 16 37  1  0
 21 38  1  0
 21 39  1  0
 22 40  1  0
 22 41  1  0
 24 42  1  0
 24 43  1  0
 24 44  1  0
M  END
>  <ScrubInfo>  (2) 
{"isomerGroup": 0, "isomerId": 1, "confId": 0, "nr_conformers:": 1, "nr_isomers:": 9}

$$$$
_i2
     RDKit          3D

 44 46  0  0  0  0  0  0  0  0999 V2000
    1.5477    0.0767   -0.0492 N   0  0  0  0  0  0  0  0  0  0  0  0
    2.3649   -0.3952   -1.0438 C   0  0  0  0  0  0  0  0  0  0  0  0
    3.6552    0.0521   -1.0656 N   0  0  0  0  0  0  0  0  0  0  0  0
    4.4586    0.3569    0.1125 C   0  0  0  0  0  0  0  0  0  0  0  0
    4.2757    1.8106    0.5660 C   0  0  0  0  0  0  0  0  0  0  0  0
    3.0049    1.9570    1.2147 O   0  0  0  0  0  0  0  0  0  0  0  0
    2.7839    3.3003    1.6338 C   0  0  0  0  0  0  0  0  0  0  0  0
    1.9738   -1.2360   -1.9706 N   0  0  0  0  0  0  0  0  0  0  0  0
    0.6675   -1.5901   -1.8072 C   0  0  0  0  0  0  0  0  0  0  0  0
   -0.2319   -1.1570   -0.8441 C   0  0  0  0  0  0  0  0  0  0  0  0
   -1.4103   -1.8720   -1.1246 C   0  0  0  0  0  0  0  0  0  0  0  0
   -1.2897   -2.6744   -2.1903 N   0  0  0  0  0  0  0  0  0  0  0  0
   -0.0126   -2.4804   -2.5894 N   0  0  0  0  0  0  0  0  0  0  0  0
    0.4893   -3.2058   -3.7288 C   0  0  0  0  0  0  0  0  0  0  0  0
    0.2115   -0.1868    0.1393 C   0  0  0  0  0  0  0  0  0  0  0  0
   -0.4766    0.3916    1.0784 N   0  0  0  0  0  0  0  0  0  0  0  0
   -1.8520    0.1720    1.2328 C   0  0  0  0  0  0  0  0  0  0  0  0
   -2.7878    0.8547    0.4512 C   0  0  0  0  0  0  0  0  0  0  0  0
   -4.1621    0.6299    0.6253 C   0  0  0  0  0  0  0  0  0  0  0  0
   -5.1619    1.3750   -0.2089 C   0  0  0  0  0  0  0  0  0  0  0  0
   -4.5914   -0.2555    1.6254 C   0  0  0  0  0  0  0  0  0  0  0  0
   -3.6648   -0.9172    2.4326 C   0  0  0  0  0  0  0  0  0  0  0  0
   -2.3100   -0.6899    2.2359 C   0  0  0  0  0  0  0  0  0  0  0  0
   -1.4110   -1.3201    3.0533 O   0  0  0  0  0  0  0  0  0  0  0  0
    1.9178    0.8160    0.5403 H   0  0  0  0  0  0  0  0  0  0  0  0
    4.1735   -0.4402   -1.7886 H   0  0  0  0  0  0  0  0  0  0  0  0
    5.5112    0.2067   -0.1517 H   0  0  0  0  0  0  0  0  0  0  0  0
    4.2161   -0.3401    0.9228 H   0  0  0  0  0  0  0  0  0  0  0  0
    4.3336    2.4919   -0.2908 H   0  0  0  0  0  0  0  0  0  0  0  0
    5.0642    2.0660    1.2828 H   0  0  0  0  0  0  0  0  0  0  0  0
    2.7791    3.9730    0.7709 H   0  0  0  0  0  0  0  0  0  0  0  0
    3.5513    3.6082    2.3502 H   0  0  0  0  0  0  0  0  0  0  0  0
    1.8071    3.3503    2.1222 H   0  0  0  0  0  0  0  0  0  0  0  0
   -2.3602   -1.8601   -0.6083 H   0  0  0  0  0  0  0  0  0  0  0  0
    0.5789   -4.2588   -3.4506 H   0  0  0  0  0  0  0  0  0  0  0  0
    1.4642   -2.8124   -4.0249 H   0  0  0  0  0  0  0  0  0  0  0  0
   -0.2177   -3.0881   -4.5542 H   0  0  0  0  0  0  0  0  0  0  0  0
   -2.4387    1.5572   -0.3014 H   0  0  0  0  0  0  0  0  0  0  0  0
   -4.7608    1.5810   -1.2069 H   0  0  0  0  0  0  0  0  0  0  0  0
   -5.4182    2.3235    0.2729 H   0  0  0  0  0  0  0  0  0  0  0  0
   -6.0758    0.7867   -0.3417 H   0  0  0  0  0  0  0  0  0  0  0  0
   -5.6533   -0.4285    1.7871 H   0  0  0  0  0  0  0  0  0  0  0  0
   -3.9962   -1.5942    3.2138 H   0  0  0  0  0  0  0  0  0  0  0  0
   -0.5473   -0.9345    2.8049 H   0  0  0  0  0  0  0  0  0  0  0  0
  1  2  1  0
  2  3  1  0
  3  4  1  0
  4  5  1  0
  5  6  1  0
  6  7  1  0
  2  8  2  0
  8  9  1  0
  9 10  2  0
 10 11  1  0
 11 12  2  0
 12 13  1  0
 13 14  1  0
 10 15  1  0
 15 16  2  3
 16 17  1  0
 17 18  2  0
 18 19  1  0
 19 20  1  0
 19 21  2  0
 21 22  1  0
 22 23  2  0
 23 24  1  0
 15  1  1  0
 23 17  1  0
 13  9  1  0
  1 25  1  0
  3 26  1  0
  4 27  1  0
  4 28  1  0
  5 29  1  0
  5 30  1  0
  7 31  1  0
  7 32  1  0
  7 33  1  0
 11 34  1  0
 14 35  1  0
 14 36  1  0
 14 37  1  0
 18 38  1  0
 20 39  1  0
 20 40  1  0
 20 41  1  0
 21 42  1  0
 22 43  1  0
 24 44  1  0
M  END
>  <ScrubInfo>  (3) 
{"isomerGroup": 0, "isomerId": 2, "confId": 0, "nr_conformers:": 1, "nr_isomers:": 9}

$$$$
_i3
     RDKit          3D

 44 46  0  0  0  0  0  0  0  0999 V2000
    1.8947   -0.6261   -0.9205 N   0  0  0  0  0  0  0  0  0  0  0  0
    1.0678    0.4511   -0.6465 C   0  0  0  0  0  0  0  0  0  0  0  0
    1.4075    1.6921   -0.6345 N   0  0  0  0  0  0  0  0  0  0  0  0
    2.7777    2.0798   -0.9470 C   0  0  0  0  0  0  0  0  0  0  0  0
    3.6493    2.0426    0.3074 C   0  0  0  0  0  0  0  0  0  0  0  0
    5.0240    2.0528   -0.0853 O   0  0  0  0  0  0  0  0  0  0  0  0
    5.8852    2.1188    1.0445 C   0  0  0  0  0  0  0  0  0  0  0  0
   -0.2675    0.2621   -0.3337 N   0  0  0  0  0  0  0  0  0  0  0  0
   -0.7848   -0.9308   -0.2927 C   0  0  0  0  0  0  0  0  0  0  0  0
   -2.0758   -1.2809   -0.0035 N   0  0  0  0  0  0  0  0  0  0  0  0
   -3.1829   -0.4711    0.3195 C   0  0  0  0  0  0  0  0  0  0  0  0
   -3.1552    0.9232    0.4003 C   0  0  0  0  0  0  0  0  0  0  0  0
   -4.3069    1.6562    0.7376 C   0  0  0  0  0  0  0  0  0  0  0  0
   -4.2528    3.1557    0.7832 C   0  0  0  0  0  0  0  0  0  0  0  0
   -5.5103    0.9810    0.9732 C   0  0  0  0  0  0  0  0  0  0  0  0
   -5.5630   -0.4095    0.8988 C   0  0  0  0  0  0  0  0  0  0  0  0
   -4.4070   -1.1167    0.5770 C   0  0  0  0  0  0  0  0  0  0  0  0
   -4.4302   -2.4897    0.4961 O   0  0  0  0  0  0  0  0  0  0  0  0
    0.0553   -2.0796   -0.5760 C   0  0  0  0  0  0  0  0  0  0  0  0
   -0.0791   -3.4768   -0.6394 C   0  0  0  0  0  0  0  0  0  0  0  0
    1.0716   -4.0892   -0.9588 N   0  0  0  0  0  0  0  0  0  0  0  0
    1.9519   -3.0688   -1.1044 N   0  0  0  0  0  0  0  0  0  0  0  0
    3.3162   -3.3658   -1.4598 C   0  0  0  0  0  0  0  0  0  0  0  0
    1.3710   -1.8616   -0.8794 C   0  0  0  0  0  0  0  0  0  0  0  0
    2.8626   -0.4347   -1.1314 H   0  0  0  0  0  0  0  0  0  0  0  0
    3.2109    1.4802   -1.7565 H   0  0  0  0  0  0  0  0  0  0  0  0
    2.7699    3.1032   -1.3415 H   0  0  0  0  0  0  0  0  0  0  0  0
    3.4280    2.9100    0.9405 H   0  0  0  0  0  0  0  0  0  0  0  0
    3.4585    1.1329    0.8882 H   0  0  0  0  0  0  0  0  0  0  0  0
    5.7331    1.2509    1.6935 H   0  0  0  0  0  0  0  0  0  0  0  0
    5.7131    3.0435    1.6037 H   0  0  0  0  0  0  0  0  0  0  0  0
    6.9192    2.1129    0.6896 H   0  0  0  0  0  0  0  0  0  0  0  0
   -2.3458   -2.2584   -0.0030 H   0  0  0  0  0  0  0  0  0  0  0  0
   -2.2364    1.4691    0.2018 H   0  0  0  0  0  0  0  0  0  0  0  0
   -3.2782    3.4995    1.1453 H   0  0  0  0  0  0  0  0  0  0  0  0
   -4.4262    3.5664   -0.2162 H   0  0  0  0  0  0  0  0  0  0  0  0
   -5.0111    3.5546    1.4652 H   0  0  0  0  0  0  0  0  0  0  0  0
   -6.4121    1.5385    1.2165 H   0  0  0  0  0  0  0  0  0  0  0  0
   -6.5033   -0.9158    1.0895 H   0  0  0  0  0  0  0  0  0  0  0  0
   -5.3349   -2.7851    0.6964 H   0  0  0  0  0  0  0  0  0  0  0  0
   -0.9557   -4.0878   -0.4692 H   0  0  0  0  0  0  0  0  0  0  0  0
    3.8919   -2.4413   -1.5376 H   0  0  0  0  0  0  0  0  0  0  0  0
    3.3163   -3.8839   -2.4221 H   0  0  0  0  0  0  0  0  0  0  0  0
    3.7435   -4.0036   -0.6819 H   0  0  0  0  0  0  0  0  0  0  0  0
  1  2  1  0
  2  3  2  3
  3  4  1  0
  4  5  1  0
  5  6  1  0
  6  7  1  0
  2  8  1  0
  8  9  2  0
  9 10  1  0
 10 11  1  0
 11 12  2  0
 12 13  1  0
 13 14  1  0
 13 15  2  0
 15 16  1  0
 16 17  2  0
 17 18  1  0
  9 19  1  0
 19 20  1  0
 20 21  2  0
 21 22  1  0
 22 23  1  0
 22 24  1  0
 24  1  1  0
 17 11  1  0
 24 19  2  0
  1 25  1  0
  4 26  1  0
  4 27  1  0
  5 28  1  0
  5 29  1  0
  7 30  1  0
  7 31  1  0
  7 32  1  0
 10 33  1  0
 12 34  1  0
 14 35  1  0
 14 36  1  0
 14 37  1  0
 15 38  1  0
 16 39  1  0
 18 40  1  0
 20 41  1  0
 23 42  1  0
 23 43  1  0
 23 44  1  0
M  END
>  <ScrubInfo>  (4) 
{"isomerGroup": 0, "isomerId": 3, "confId": 0, "nr_conformers:": 1, "nr_isomers:": 9}

$$$$
_i4
     RDKit          3D

 44 46  0  0  0  0  0  0  0  0999 V2000
   -1.0621   -3.1355   -0.9127 N   0  0  0  0  0  0  0  0  0  0  0  0
   -1.5020   -1.9297   -0.3771 C   0  0  0  0  0  0  0  0  0  0  0  0
   -0.5047   -1.1384    0.0469 C   0  0  0  0  0  0  0  0  0  0  0  0
   -0.3148    0.1581    0.6834 C   0  0  0  0  0  0  0  0  0  0  0  0
   -1.1602    1.0921    0.9728 N   0  0  0  0  0  0  0  0  0  0  0  0
   -2.5132    0.9490    0.6378 C   0  0  0  0  0  0  0  0  0  0  0  0
   -2.9855    1.2732   -0.6362 C   0  0  0  0  0  0  0  0  0  0  0  0
   -4.3433    1.1150   -0.9537 C   0  0  0  0  0  0  0  0  0  0  0  0
   -4.8503    1.4904   -2.3149 C   0  0  0  0  0  0  0  0  0  0  0  0
   -5.2315    0.6649    0.0352 C   0  0  0  0  0  0  0  0  0  0  0  0
   -4.7724    0.3667    1.3193 C   0  0  0  0  0  0  0  0  0  0  0  0
   -3.4245    0.5221    1.6096 C   0  0  0  0  0  0  0  0  0  0  0  0
   -2.9856    0.2573    2.8787 O   0  0  0  0  0  0  0  0  0  0  0  0
    0.9813    0.4182    1.0364 N   0  0  0  0  0  0  0  0  0  0  0  0
    1.9729   -0.3656    0.7402 C   0  0  0  0  0  0  0  0  0  0  0  0
    3.2473   -0.0468    1.1157 N   0  0  0  0  0  0  0  0  0  0  0  0
    3.6462    1.3221    1.4057 C   0  0  0  0  0  0  0  0  0  0  0  0
    3.8731    2.1102    0.1094 C   0  0  0  0  0  0  0  0  0  0  0  0
    4.9080    1.5264   -0.6950 O   0  0  0  0  0  0  0  0  0  0  0  0
    6.2147    1.9085   -0.2873 C   0  0  0  0  0  0  0  0  0  0  0  0
    1.8719   -1.5410    0.0476 N   0  0  0  0  0  0  0  0  0  0  0  0
    0.6929   -1.9295   -0.2924 C   0  0  0  0  0  0  0  0  0  0  0  0
    0.3230   -3.0876   -0.9786 N   0  0  0  0  0  0  0  0  0  0  0  0
    1.0771   -4.3168   -0.8202 C   0  0  0  0  0  0  0  0  0  0  0  0
   -1.5483   -3.3999   -1.7724 H   0  0  0  0  0  0  0  0  0  0  0  0
   -2.5652   -1.7401   -0.3506 H   0  0  0  0  0  0  0  0  0  0  0  0
   -2.2873    1.6512   -1.3791 H   0  0  0  0  0  0  0  0  0  0  0  0
   -4.0839    1.3176   -3.0778 H   0  0  0  0  0  0  0  0  0  0  0  0
   -5.7215    0.8856   -2.5875 H   0  0  0  0  0  0  0  0  0  0  0  0
   -5.1338    2.5472   -2.3302 H   0  0  0  0  0  0  0  0  0  0  0  0
   -6.2916    0.5585   -0.1855 H   0  0  0  0  0  0  0  0  0  0  0  0
   -5.4607    0.0331    2.0898 H   0  0  0  0  0  0  0  0  0  0  0  0
   -2.0593    0.5777    2.8882 H   0  0  0  0  0  0  0  0  0  0  0  0
    3.9244   -0.5494    0.5501 H   0  0  0  0  0  0  0  0  0  0  0  0
    4.5715    1.2808    1.9885 H   0  0  0  0  0  0  0  0  0  0  0  0
    2.9005    1.8258    2.0305 H   0  0  0  0  0  0  0  0  0  0  0  0
    4.1099    3.1579    0.3280 H   0  0  0  0  0  0  0  0  0  0  0  0
    2.9605    2.1025   -0.4963 H   0  0  0  0  0  0  0  0  0  0  0  0
    6.9335    1.4489   -0.9712 H   0  0  0  0  0  0  0  0  0  0  0  0
    6.3315    2.9950   -0.3416 H   0  0  0  0  0  0  0  0  0  0  0  0
    6.4296    1.5557    0.7247 H   0  0  0  0  0  0  0  0  0  0  0  0
    2.1318   -4.1561   -1.0655 H   0  0  0  0  0  0  0  0  0  0  0  0
    1.0082   -4.6864    0.2083 H   0  0  0  0  0  0  0  0  0  0  0  0
    0.6917   -5.0890   -1.4940 H   0  0  0  0  0  0  0  0  0  0  0  0
  1  2  1  0
  2  3  2  0
  3  4  1  0
  4  5  2  3
  5  6  1  0
  6  7  2  0
  7  8  1  0
  8  9  1  0
  8 10  2  0
 10 11  1  0
 11 12  2  0
 12 13  1  0
  4 14  1  0
 14 15  2  0
 15 16  1  0
 16 17  1  0
 17 18  1  0
 18 19  1  0
 19 20  1  0
 15 21  1  0
 21 22  2  0
 22 23  1  0
 23 24  1  0
 23  1  1  0
 22  3  1  0
 12  6  1  0
  1 25  1  0
  2 26  1  0
  7 27  1  0
  9 28  1  0
  9 29  1  0
  9 30  1  0
 10 31  1  0
 11 32  1  0
 13 33  1  0
 16 34  1  0
 17 35  1  0
 17 36  1  0
 18 37  1  0
 18 38  1  0
 20 39  1  0
 20 40  1  0
 20 41  1  0
 24 42  1  0
 24 43  1  0
 24 44  1  0
M  END
>  <ScrubInfo>  (5) 
{"isomerGroup": 0, "isomerId": 4, "confId": 0, "nr_conformers:": 1, "nr_isomers:": 9}

$$$$
_i5
     RDKit          3D

 44 46  0  0  0  0  0  0  0  0999 V2000
   -1.6813    1.9866    0.2380 N   0  0  0  0  0  0  0  0  0  0  0  0
   -2.0904    0.9111   -0.5100 C   0  0  0  0  0  0  0  0  0  0  0  0
   -3.4258    0.9166   -0.8017 N   0  0  0  0  0  0  0  0  0  0  0  0
   -4.4036    0.7334    0.2798 C   0  0  0  0  0  0  0  0  0  0  0  0
   -4.4536   -0.7359    0.7150 C   0  0  0  0  0  0  0  0  0  0  0  0
   -4.9210   -1.5196   -0.3893 O   0  0  0  0  0  0  0  0  0  0  0  0
   -4.7819   -2.9117   -0.1347 C   0  0  0  0  0  0  0  0  0  0  0  0
   -1.3269   -0.0470   -0.9458 N   0  0  0  0  0  0  0  0  0  0  0  0
    0.0268   -0.0516   -0.6213 C   0  0  0  0  0  0  0  0  0  0  0  0
    0.6938   -1.0968   -0.9931 N   0  0  0  0  0  0  0  0  0  0  0  0
    2.0478   -1.2687   -0.6866 C   0  0  0  0  0  0  0  0  0  0  0  0
    2.9968   -1.0947   -1.6999 C   0  0  0  0  0  0  0  0  0  0  0  0
    4.3623   -1.2996   -1.4555 C   0  0  0  0  0  0  0  0  0  0  0  0
    5.3682   -1.0652   -2.5431 C   0  0  0  0  0  0  0  0  0  0  0  0
    4.7757   -1.6765   -0.1719 C   0  0  0  0  0  0  0  0  0  0  0  0
    3.8392   -1.8768    0.8446 C   0  0  0  0  0  0  0  0  0  0  0  0
    2.4836   -1.6812    0.5823 C   0  0  0  0  0  0  0  0  0  0  0  0
    1.5622   -1.8647    1.5797 O   0  0  0  0  0  0  0  0  0  0  0  0
    0.5274    1.1237    0.0760 C   0  0  0  0  0  0  0  0  0  0  0  0
    1.7697    1.6444    0.4815 C   0  0  0  0  0  0  0  0  0  0  0  0
    1.6640    2.8360    1.0933 N   0  0  0  0  0  0  0  0  0  0  0  0
    0.3351    3.0864    1.0749 N   0  0  0  0  0  0  0  0  0  0  0  0
   -0.1560    4.3109    1.6529 C   0  0  0  0  0  0  0  0  0  0  0  0
   -0.3631    2.0889    0.4748 C   0  0  0  0  0  0  0  0  0  0  0  0
   -2.3333    2.7568    0.3024 H   0  0  0  0  0  0  0  0  0  0  0  0
   -3.5921    0.1620   -1.4750 H   0  0  0  0  0  0  0  0  0  0  0  0
   -5.3831    1.0342   -0.1076 H   0  0  0  0  0  0  0  0  0  0  0  0
   -4.1678    1.3778    1.1332 H   0  0  0  0  0  0  0  0  0  0  0  0
   -3.4609   -1.0792    1.0287 H   0  0  0  0  0  0  0  0  0  0  0  0
   -5.1521   -0.8518    1.5508 H   0  0  0  0  0  0  0  0  0  0  0  0
   -3.7265   -3.1743   -0.0142 H   0  0  0  0  0  0  0  0  0  0  0  0
   -5.3467   -3.1960    0.7584 H   0  0  0  0  0  0  0  0  0  0  0  0
   -5.1819   -3.4599   -0.9919 H   0  0  0  0  0  0  0  0  0  0  0  0
    2.6548   -0.8004   -2.6897 H   0  0  0  0  0  0  0  0  0  0  0  0
    5.6834   -0.0173   -2.5411 H   0  0  0  0  0  0  0  0  0  0  0  0
    4.9459   -1.3069   -3.5242 H   0  0  0  0  0  0  0  0  0  0  0  0
    6.2495   -1.7001   -2.4040 H   0  0  0  0  0  0  0  0  0  0  0  0
    5.8324   -1.8233    0.0416 H   0  0  0  0  0  0  0  0  0  0  0  0
    4.1835   -2.1764    1.8293 H   0  0  0  0  0  0  0  0  0  0  0  0
    2.0068   -2.2585    2.3460 H   0  0  0  0  0  0  0  0  0  0  0  0
    2.7591    1.2270    0.3561 H   0  0  0  0  0  0  0  0  0  0  0  0
   -1.2445    4.2739    1.7328 H   0  0  0  0  0  0  0  0  0  0  0  0
    0.2795    4.4257    2.6490 H   0  0  0  0  0  0  0  0  0  0  0  0
    0.1451    5.1389    1.0065 H   0  0  0  0  0  0  0  0  0  0  0  0
  1  2  1  0
  2  3  1  0
  3  4  1  0
  4  5  1  0
  5  6  1  0
  6  7  1  0
  2  8  2  0
  8  9  1  0
  9 10  2  3
 10 11  1  0
 11 12  2  0
 12 13  1  0
 13 14  1  0
 13 15  2  0
 15 16  1  0
 16 17  2  0
 17 18  1  0
  9 19  1  0
 19 20  1  0
 20 21  2  0
 21 22  1  0
 22 23  1  0
 22 24  1  0
 24  1  1  0
 17 11  1  0
 24 19  2  0
  1 25  1  0
  3 26  1  0
  4 27  1  0
  4 28  1  0
  5 29  1  0
  5 30  1  0
  7 31  1  0
  7 32  1  0
  7 33  1  0
 12 34  1  0
 14 35  1  0
 14 36  1  0
 14 37  1  0
 15 38  1  0
 16 39  1  0
 18 40  1  0
 20 41  1  0
 23 42  1  0
 23 43  1  0
 23 44  1  0
M  END
>  <ScrubInfo>  (6) 
{"isomerGroup": 0, "isomerId": 5, "confId": 0, "nr_conformers:": 1, "nr_isomers:": 9}

$$$$
_i6
     RDKit          3D

 44 46  0  0  0  0  0  0  0  0999 V2000
    0.2337   -3.2414   -1.4656 N   0  0  0  0  0  0  0  0  0  0  0  0
    0.8170   -2.0087   -1.1892 C   0  0  0  0  0  0  0  0  0  0  0  0
   -0.0477   -1.1207   -0.6805 C   0  0  0  0  0  0  0  0  0  0  0  0
   -0.0594    0.2607   -0.1999 C   0  0  0  0  0  0  0  0  0  0  0  0
    1.0422    1.0940   -0.2172 N   0  0  0  0  0  0  0  0  0  0  0  0
    2.3314    0.6815    0.2061 C   0  0  0  0  0  0  0  0  0  0  0  0
    3.4427    1.2127   -0.4645 C   0  0  0  0  0  0  0  0  0  0  0  0
    4.7503    0.9139   -0.0554 C   0  0  0  0  0  0  0  0  0  0  0  0
    5.9247    1.4447   -0.8237 C   0  0  0  0  0  0  0  0  0  0  0  0
    4.9437    0.0739    1.0465 C   0  0  0  0  0  0  0  0  0  0  0  0
    3.8503   -0.4263    1.7549 C   0  0  0  0  0  0  0  0  0  0  0  0
    2.5562   -0.1068    1.3457 C   0  0  0  0  0  0  0  0  0  0  0  0
    1.4872   -0.5551    2.0722 O   0  0  0  0  0  0  0  0  0  0  0  0
   -1.1891    0.7558    0.2331 N   0  0  0  0  0  0  0  0  0  0  0  0
   -2.3007   -0.0610    0.2748 C   0  0  0  0  0  0  0  0  0  0  0  0
   -3.3873    0.3760    0.8060 N   0  0  0  0  0  0  0  0  0  0  0  0
   -3.4086    1.7288    1.3754 C   0  0  0  0  0  0  0  0  0  0  0  0
   -3.6535    2.7904    0.2953 C   0  0  0  0  0  0  0  0  0  0  0  0
   -5.0383    2.9905   -0.0127 O   0  0  0  0  0  0  0  0  0  0  0  0
   -5.6343    1.8707   -0.6551 C   0  0  0  0  0  0  0  0  0  0  0  0
   -2.4072   -1.3381   -0.2211 N   0  0  0  0  0  0  0  0  0  0  0  0
   -1.3284   -1.8571   -0.6939 C   0  0  0  0  0  0  0  0  0  0  0  0
   -1.1379   -3.1150   -1.2680 N   0  0  0  0  0  0  0  0  0  0  0  0
   -1.8977   -4.2625   -0.8106 C   0  0  0  0  0  0  0  0  0  0  0  0
    0.5208   -3.6305   -2.3664 H   0  0  0  0  0  0  0  0  0  0  0  0
    1.8668   -1.8636   -1.3995 H   0  0  0  0  0  0  0  0  0  0  0  0
    0.8068    1.9599    0.2630 H   0  0  0  0  0  0  0  0  0  0  0  0
    3.2826    1.8574   -1.3270 H   0  0  0  0  0  0  0  0  0  0  0  0
    6.1851    0.7549   -1.6323 H   0  0  0  0  0  0  0  0  0  0  0  0
    5.6983    2.4261   -1.2536 H   0  0  0  0  0  0  0  0  0  0  0  0
    6.7950    1.5696   -0.1709 H   0  0  0  0  0  0  0  0  0  0  0  0
    5.9505   -0.1832    1.3700 H   0  0  0  0  0  0  0  0  0  0  0  0
    4.0270   -1.0528    2.6240 H   0  0  0  0  0  0  0  0  0  0  0  0
    1.8067   -1.0532    2.8421 H   0  0  0  0  0  0  0  0  0  0  0  0
   -4.2141    1.7655    2.1176 H   0  0  0  0  0  0  0  0  0  0  0  0
   -2.4803    1.9437    1.9183 H   0  0  0  0  0  0  0  0  0  0  0  0
   -3.2974    3.7530    0.6783 H   0  0  0  0  0  0  0  0  0  0  0  0
   -3.0995    2.5887   -0.6282 H   0  0  0  0  0  0  0  0  0  0  0  0
   -6.6053    2.1848   -1.0485 H   0  0  0  0  0  0  0  0  0  0  0  0
   -5.0207    1.5203   -1.4905 H   0  0  0  0  0  0  0  0  0  0  0  0
   -5.8106    1.0642    0.0611 H   0  0  0  0  0  0  0  0  0  0  0  0
   -2.9724   -4.0644   -0.8760 H   0  0  0  0  0  0  0  0  0  0  0  0
   -1.6481   -4.5057    0.2275 H   0  0  0  0  0  0  0  0  0  0  0  0
   -1.6805   -5.1357   -1.4343 H   0  0  0  0  0  0  0  0  0  0  0  0
  1  2  1  0
  2  3  2  0
  3  4  1  0
  4  5  1  0
  5  6  1  0
  6  7  2  0
  7  8  1  0
  8  9  1  0
  8 10  2  0
 10 11  1  0
 11 12  2  0
 12 13  1  0
  4 14  2  0
 14 15  1  0
 15 16  2  3
 16 17  1  0
 17 18  1  0
 18 19  1  0
 19 20  1  0
 15 21  1  0
 21 22  2  0
 22 23  1  0
 23 24  1  0
 23  1  1  0
 22  3  1  0
 12  6  1  0
  1 25  1  0
  2 26  1  0
  5 27  1  0
  7 28  1  0
  9 29  1  0
  9 30  1  0
  9 31  1  0
 10 32  1  0
 11 33  1  0
 13 34  1  0
 17 35  1  0
 17 36  1  0
 18 37  1  0
 18 38  1  0
 20 39  1  0
 20 40  1  0
 20 41  1  0
 24 42  1  0
 24 43  1  0
 24 44  1  0
M  END
>  <ScrubInfo>  (7) 
{"isomerGroup": 0, "isomerId": 6, "confId": 0, "nr_conformers:": 1, "nr_isomers:": 9}

$$$$
_i7
     RDKit          3D

 44 46  0  0  0  0  0  0  0  0999 V2000
   -0.9657   -3.2035   -0.8808 N   0  0  0  0  0  0  0  0  0  0  0  0
   -1.4013   -1.9962   -0.3472 C   0  0  0  0  0  0  0  0  0  0  0  0
   -0.4683   -1.0336   -0.3717 C   0  0  0  0  0  0  0  0  0  0  0  0
   -0.2699    0.3660    0.0474 C   0  0  0  0  0  0  0  0  0  0  0  0
   -1.1199    1.2010    0.5734 N   0  0  0  0  0  0  0  0  0  0  0  0
   -2.4605    0.8265    0.7581 C   0  0  0  0  0  0  0  0  0  0  0  0
   -3.3872    0.9325   -0.2825 C   0  0  0  0  0  0  0  0  0  0  0  0
   -4.7246    0.5536   -0.0888 C   0  0  0  0  0  0  0  0  0  0  0  0
   -5.7199    0.6937   -1.2028 C   0  0  0  0  0  0  0  0  0  0  0  0
   -5.1337    0.1033    1.1753 C   0  0  0  0  0  0  0  0  0  0  0  0
   -4.2212    0.0204    2.2281 C   0  0  0  0  0  0  0  0  0  0  0  0
   -2.9011    0.3910    2.0130 C   0  0  0  0  0  0  0  0  0  0  0  0
   -2.0233    0.3304    3.0609 O   0  0  0  0  0  0  0  0  0  0  0  0
    1.0113    0.8037   -0.1655 N   0  0  0  0  0  0  0  0  0  0  0  0
    2.0445    0.1030   -0.7367 C   0  0  0  0  0  0  0  0  0  0  0  0
    3.2434    0.5271   -0.9195 N   0  0  0  0  0  0  0  0  0  0  0  0
    3.6155    1.8727   -0.4884 C   0  0  0  0  0  0  0  0  0  0  0  0
    5.1255    2.0778   -0.6803 C   0  0  0  0  0  0  0  0  0  0  0  0
    5.9284    1.3314    0.2389 O   0  0  0  0  0  0  0  0  0  0  0  0
    5.9472    1.8683    1.5517 C   0  0  0  0  0  0  0  0  0  0  0  0
    1.8555   -1.1837   -1.1934 N   0  0  0  0  0  0  0  0  0  0  0  0
    0.6887   -1.7238   -1.0392 C   0  0  0  0  0  0  0  0  0  0  0  0
    0.2925   -3.0050   -1.4297 N   0  0  0  0  0  0  0  0  0  0  0  0
    1.2411   -4.1032   -1.4420 C   0  0  0  0  0  0  0  0  0  0  0  0
   -1.6560   -3.6589   -1.4818 H   0  0  0  0  0  0  0  0  0  0  0  0
   -2.4110   -1.9429    0.0328 H   0  0  0  0  0  0  0  0  0  0  0  0
   -3.0601    1.3118   -1.2474 H   0  0  0  0  0  0  0  0  0  0  0  0
   -5.2407    0.5397   -2.1754 H   0  0  0  0  0  0  0  0  0  0  0  0
   -6.5158   -0.0527   -1.1115 H   0  0  0  0  0  0  0  0  0  0  0  0
   -6.1667    1.6924   -1.1818 H   0  0  0  0  0  0  0  0  0  0  0  0
   -6.1712   -0.1737    1.3510 H   0  0  0  0  0  0  0  0  0  0  0  0
   -4.5398   -0.3159    3.2102 H   0  0  0  0  0  0  0  0  0  0  0  0
   -1.2086    0.7513    2.7230 H   0  0  0  0  0  0  0  0  0  0  0  0
    1.1819    1.7592    0.0990 H   0  0  0  0  0  0  0  0  0  0  0  0
    3.3427    2.0308    0.5594 H   0  0  0  0  0  0  0  0  0  0  0  0
    3.0865    2.6085   -1.1053 H   0  0  0  0  0  0  0  0  0  0  0  0
    5.3762    3.1418   -0.5963 H   0  0  0  0  0  0  0  0  0  0  0  0
    5.4134    1.7567   -1.6876 H   0  0  0  0  0  0  0  0  0  0  0  0
    6.6662    1.2955    2.1440 H   0  0  0  0  0  0  0  0  0  0  0  0
    6.2665    2.9148    1.5393 H   0  0  0  0  0  0  0  0  0  0  0  0
    4.9678    1.7775    2.0279 H   0  0  0  0  0  0  0  0  0  0  0  0
    2.1054   -3.8598   -2.0682 H   0  0  0  0  0  0  0  0  0  0  0  0
    1.5922   -4.3254   -0.4289 H   0  0  0  0  0  0  0  0  0  0  0  0
    0.7745   -5.0041   -1.8537 H   0  0  0  0  0  0  0  0  0  0  0  0
  1  2  1  0
  2  3  2  0
  3  4  1  0
  4  5  2  3
  5  6  1  0
  6  7  2  0
  7  8  1  0
  8  9  1  0
  8 10  2  0
 10 11  1  0
 11 12  2  0
 12 13  1  0
  4 14  1  0
 14 15  1  0
 15 16  2  3
 16 17  1  0
 17 18  1  0
 18 19  1  0
 19 20  1  0
 15 21  1  0
 21 22  2  0
 22 23  1  0
 23 24  1  0
 23  1  1  0
 22  3  1  0
 12  6  1  0
  1 25  1  0
  2 26  1  0
  7 27  1  0
  9 28  1  0
  9 29  1  0
  9 30  1  0
 10 31  1  0
 11 32  1  0
 13 33  1  0
 14 34  1  0
 17 35  1  0
 17 36  1  0
 18 37  1  0
 18 38  1  0
 20 39  1  0
 20 40  1  0
 20 41  1  0
 24 42  1  0
 24 43  1  0
 24 44  1  0
M  END
>  <ScrubInfo>  (8) 
{"isomerGroup": 0, "isomerId": 7, "confId": 0, "nr_conformers:": 1, "nr_isomers:": 9}

$$$$
_i8
     RDKit          3D

 44 46  0  0  0  0  0  0  0  0999 V2000
    1.8136   -0.3520   -0.6727 N   0  0  0  0  0  0  0  0  0  0  0  0
    1.7661    1.0160   -0.8833 C   0  0  0  0  0  0  0  0  0  0  0  0
    2.7496    1.8318   -1.0625 N   0  0  0  0  0  0  0  0  0  0  0  0
    4.1151    1.3084   -1.0804 C   0  0  0  0  0  0  0  0  0  0  0  0
    4.6918    1.2420    0.3331 C   0  0  0  0  0  0  0  0  0  0  0  0
    5.8758    0.4425    0.3102 O   0  0  0  0  0  0  0  0  0  0  0  0
    6.5111    0.4170    1.5823 C   0  0  0  0  0  0  0  0  0  0  0  0
    0.4848    1.5229   -0.8799 N   0  0  0  0  0  0  0  0  0  0  0  0
   -0.7421    0.9220   -0.6968 C   0  0  0  0  0  0  0  0  0  0  0  0
   -1.8387    1.6212   -0.7157 N   0  0  0  0  0  0  0  0  0  0  0  0
   -3.0928    1.0427   -0.4775 C   0  0  0  0  0  0  0  0  0  0  0  0
   -3.5620    0.8498    0.8248 C   0  0  0  0  0  0  0  0  0  0  0  0
   -4.8223    0.2755    1.0515 C   0  0  0  0  0  0  0  0  0  0  0  0
   -5.3268    0.0861    2.4516 C   0  0  0  0  0  0  0  0  0  0  0  0
   -5.6286   -0.0644   -0.0451 C   0  0  0  0  0  0  0  0  0  0  0  0
   -5.1815    0.1541   -1.3490 C   0  0  0  0  0  0  0  0  0  0  0  0
   -3.9276    0.7135   -1.5517 C   0  0  0  0  0  0  0  0  0  0  0  0
   -3.5149    0.9510   -2.8347 O   0  0  0  0  0  0  0  0  0  0  0  0
   -0.5916   -0.5106   -0.5025 C   0  0  0  0  0  0  0  0  0  0  0  0
   -1.4314   -1.6258   -0.3208 C   0  0  0  0  0  0  0  0  0  0  0  0
   -0.7512   -2.7746   -0.1879 N   0  0  0  0  0  0  0  0  0  0  0  0
    0.5406   -2.3997   -0.2988 N   0  0  0  0  0  0  0  0  0  0  0  0
    1.5755   -3.4004   -0.2247 C   0  0  0  0  0  0  0  0  0  0  0  0
    0.6736   -1.0594   -0.4966 C   0  0  0  0  0  0  0  0  0  0  0  0
    2.7249   -0.7916   -0.6671 H   0  0  0  0  0  0  0  0  0  0  0  0
    4.1853    0.3387   -1.5877 H   0  0  0  0  0  0  0  0  0  0  0  0
    4.7370    1.9790   -1.6859 H   0  0  0  0  0  0  0  0  0  0  0  0
    4.9226    2.2530    0.6891 H   0  0  0  0  0  0  0  0  0  0  0  0
    3.9736    0.7870    1.0248 H   0  0  0  0  0  0  0  0  0  0  0  0
    5.8415   -0.0079    2.3363 H   0  0  0  0  0  0  0  0  0  0  0  0
    6.8200    1.4247    1.8763 H   0  0  0  0  0  0  0  0  0  0  0  0
    7.4011   -0.2138    1.5098 H   0  0  0  0  0  0  0  0  0  0  0  0
    0.4444    2.5229   -1.0161 H   0  0  0  0  0  0  0  0  0  0  0  0
   -2.9364    1.1448    1.6634 H   0  0  0  0  0  0  0  0  0  0  0  0
   -4.4994   -0.1142    3.1405 H   0  0  0  0  0  0  0  0  0  0  0  0
   -5.8549    0.9852    2.7837 H   0  0  0  0  0  0  0  0  0  0  0  0
   -6.0101   -0.7677    2.5085 H   0  0  0  0  0  0  0  0  0  0  0  0
   -6.6165   -0.4928    0.1110 H   0  0  0  0  0  0  0  0  0  0  0  0
   -5.8099   -0.0976   -2.1978 H   0  0  0  0  0  0  0  0  0  0  0  0
   -2.6830    1.4541   -2.7357 H   0  0  0  0  0  0  0  0  0  0  0  0
   -2.5112   -1.6737   -0.2802 H   0  0  0  0  0  0  0  0  0  0  0  0
    2.4734   -2.9600    0.2152 H   0  0  0  0  0  0  0  0  0  0  0  0
    1.7795   -3.7538   -1.2381 H   0  0  0  0  0  0  0  0  0  0  0  0
    1.2321   -4.2260    0.4042 H   0  0  0  0  0  0  0  0  0  0  0  0
  1  2  1  0
  2  3  2  3
  3  4  1  0
  4  5  1  0
  5  6  1  0
  6  7  1  0
  2  8  1  0
  8  9  1  0
  9 10  2  3
 10 11  1  0
 11 12  2  0
 12 13  1  0
 13 14  1  0
 13 15  2  0
 15 16  1  0
 16 17  2  0
 17 18  1  0
  9 19  1  0
 19 20  1  0
 20 21  2  0
 21 22  1  0
 22 23  1  0
 22 24  1  0
 24  1  1  0
 17 11  1  0
 24 19  2  0
  1 25  1  0
  4 26  1  0
  4 27  1  0
  5 28  1  0
  5 29  1  0
  7 30  1  0
  7 31  1  0
  7 32  1  0
  8 33  1  0
 12 34  1  0
 14 35  1  0
 14 36  1  0
 14 37  1  0
 15 38  1  0
 16 39  1  0
 18 40  1  0
 20 41  1  0
 23 42  1  0
 23 43  1  0
 23 44  1  0
M  END
>  <ScrubInfo>  (9) 
{"isomerGroup": 0, "isomerId": 8, "confId": 0, "nr_conformers:": 1, "nr_isomers:": 9}

$$$$
