REMARK SMILES COCCNc1nc(Nc2cc(C)ccc2O)c2cnn(C)c2n1
REMARK SMILES IDX 6 1 7 2 8 3 18 4 19 5 20 6 21 7 22 8 23 9 24 10 5 11 4 13
REMARK SMILES IDX 3 14 2 15 1 16 9 17 10 19 11 20 16 21 12 22 15 23 14 24
REMARK SMILES IDX 13 25 17 26
REMARK H PARENT 5 12 9 18 17 27
ROOT
ATOM      1  C   UNL     1       1.863   0.496   0.262  1.00  0.00     0.226 A 
ATOM      2  N   UNL     1       0.943  -0.460   0.022  1.00  0.00    -0.195 NA
ATOM      3  C   UNL     1      -0.351  -0.117  -0.202  1.00  0.00     0.147 A 
ATOM      4  C   UNL     1      -0.673   1.241  -0.214  1.00  0.00     0.082 A 
ATOM      5  C   UNL     1      -1.800   2.062  -0.424  1.00  0.00     0.149 A 
ATOM      6  N   UNL     1      -1.524   3.368  -0.309  1.00  0.00    -0.179 NA
ATOM      7  N   UNL     1      -0.201   3.375  -0.022  1.00  0.00    -0.250 N 
ATOM      8  C   UNL     1       0.473   4.633   0.178  1.00  0.00     0.176 C 
ATOM      9  C   UNL     1       0.355   2.127   0.037  1.00  0.00     0.165 A 
ATOM     10  N   UNL     1       1.636   1.816   0.284  1.00  0.00    -0.193 NA
ENDROOT
BRANCH   1  11
ATOM     11  N   UNL     1       3.180   0.125   0.512  1.00  0.00    -0.352 N 
ATOM     12  H   UNL     1       3.741   0.960   0.361  1.00  0.00     0.163 HD
BRANCH  11  13
ATOM     13  C   UNL     1       3.638  -1.010  -0.282  1.00  0.00     0.144 C 
BRANCH  13  14
ATOM     14  C   UNL     1       5.145  -1.200  -0.077  1.00  0.00     0.181 C 
BRANCH  14  15
ATOM     15  O   UNL     1       5.840  -0.060  -0.603  1.00  0.00    -0.383 OA
ATOM     16  C   UNL     1       7.243  -0.171  -0.404  1.00  0.00     0.194 C 
ENDBRANCH  14  15
ENDBRANCH  13  14
ENDBRANCH  11  13
ENDBRANCH   1  11
BRANCH   3  17
ATOM     17  N   UNL     1      -1.253  -1.169  -0.458  1.00  0.00    -0.336 N 
ATOM     18  H   UNL     1      -0.760  -2.004  -0.146  1.00  0.00     0.168 HD
BRANCH  17  19
ATOM     19  C   UNL     1      -2.600  -1.224  -0.025  1.00  0.00     0.082 A 
ATOM     20  C   UNL     1      -3.551  -1.757  -0.906  1.00  0.00     0.033 A 
ATOM     21  C   UNL     1      -3.008  -0.904   1.279  1.00  0.00     0.139 A 
ATOM     22  C   UNL     1      -4.896  -1.891  -0.532  1.00  0.00    -0.049 A 
ATOM     23  C   UNL     1      -4.339  -1.043   1.671  1.00  0.00     0.048 A 
ATOM     24  C   UNL     1      -5.280  -1.535   0.765  1.00  0.00     0.007 A 
ATOM     25  C   UNL     1      -5.894  -2.470  -1.491  1.00  0.00     0.044 C 
BRANCH  21  26
ATOM     26  O   UNL     1      -2.079  -0.469   2.186  1.00  0.00    -0.506 OA
ATOM     27  H   UNL     1      -2.524  -0.255   3.022  1.00  0.00     0.293 HD
ENDBRANCH  21  26
ENDBRANCH  17  19
ENDBRANCH   3  17
TORSDOF 7
