_i0
     RDKit          3D

 45 47  0  0  0  0  0  0  0  0999 V2000
    5.9486   -0.1708    2.2610 C   0  0  0  0  0  0  0  0  0  0  0  0
    4.5448   -0.2108    2.0421 O   0  0  0  0  0  0  0  0  0  0  0  0
    4.1072    0.0130    0.7648 C   0  0  0  0  0  0  0  0  0  0  0  0
    4.9137    0.2781   -0.3389 C   0  0  0  0  0  0  0  0  0  0  0  0
    4.3381    0.4899   -1.5954 C   0  0  0  0  0  0  0  0  0  0  0  0
    2.9503    0.4372   -1.7537 C   0  0  0  0  0  0  0  0  0  0  0  0
    2.2887    0.6314   -2.9462 O   0  0  0  0  0  0  0  0  0  0  0  0
    3.0838    0.9041   -4.0925 C   0  0  0  0  0  0  0  0  0  0  0  0
    2.1160    0.1684   -0.6430 C   0  0  0  0  0  0  0  0  0  0  0  0
    0.7277    0.1270   -0.8521 N   0  0  0  0  0  0  0  0  0  0  0  0
   -0.3814   -0.1029   -0.0497 C   0  0  0  0  0  0  0  0  0  0  0  0
   -1.5598   -0.0486   -0.6851 N   0  0  0  0  0  0  0  0  0  0  0  0
   -2.6821   -0.2494    0.0277 C   0  0  0  0  0  0  0  0  0  0  0  0
   -3.9286   -0.1978   -0.6360 N   0  0  0  0  0  0  0  0  0  0  0  0
   -3.8639    0.2233   -2.0387 C   0  0  0  0  0  0  0  0  0  0  0  0
   -5.2883    0.3114   -2.5975 C   0  0  0  0  0  0  0  0  0  0  0  0
   -6.0368    1.2903   -1.8713 O   0  0  0  0  0  0  0  0  0  0  0  0
   -2.6461   -0.5511    1.3979 C   0  0  0  0  0  0  0  0  0  0  0  0
   -3.7776   -0.8242    2.2106 C   0  0  0  0  0  0  0  0  0  0  0  0
   -3.6326   -1.1041    3.5674 C   0  0  0  0  0  0  0  0  0  0  0  0
   -2.3623   -1.1181    4.1256 C   0  0  0  0  0  0  0  0  0  0  0  0
   -1.2494   -0.8588    3.3207 C   0  0  0  0  0  0  0  0  0  0  0  0
   -1.3701   -0.5796    1.9641 C   0  0  0  0  0  0  0  0  0  0  0  0
   -0.2612   -0.3533    1.2575 N   0  0  0  0  0  0  0  0  0  0  0  0
    2.7178   -0.0393    0.6039 C   0  0  0  0  0  0  0  0  0  0  0  0
    6.4603   -0.9500    1.6866 H   0  0  0  0  0  0  0  0  0  0  0  0
    6.1274   -0.3685    3.3223 H   0  0  0  0  0  0  0  0  0  0  0  0
    6.3556    0.8202    2.0341 H   0  0  0  0  0  0  0  0  0  0  0  0
    5.9943    0.3277   -0.2583 H   0  0  0  0  0  0  0  0  0  0  0  0
    5.0025    0.6935   -2.4279 H   0  0  0  0  0  0  0  0  0  0  0  0
    2.4087    1.0305   -4.9444 H   0  0  0  0  0  0  0  0  0  0  0  0
    3.7509    0.0659   -4.3191 H   0  0  0  0  0  0  0  0  0  0  0  0
    3.6441    1.8371   -3.9718 H   0  0  0  0  0  0  0  0  0  0  0  0
    0.4476    0.2921   -1.8102 H   0  0  0  0  0  0  0  0  0  0  0  0
   -4.5484    0.4359   -0.1302 H   0  0  0  0  0  0  0  0  0  0  0  0
   -3.3951    1.2126   -2.1108 H   0  0  0  0  0  0  0  0  0  0  0  0
   -3.2901   -0.4971   -2.6328 H   0  0  0  0  0  0  0  0  0  0  0  0
   -5.8028   -0.6509   -2.5060 H   0  0  0  0  0  0  0  0  0  0  0  0
   -5.2643    0.6070   -3.6508 H   0  0  0  0  0  0  0  0  0  0  0  0
   -6.9361    1.2843   -2.2425 H   0  0  0  0  0  0  0  0  0  0  0  0
   -4.7746   -0.8303    1.7764 H   0  0  0  0  0  0  0  0  0  0  0  0
   -4.5052   -1.3134    4.1804 H   0  0  0  0  0  0  0  0  0  0  0  0
   -2.2284   -1.3355    5.1821 H   0  0  0  0  0  0  0  0  0  0  0  0
   -0.2559   -0.8788    3.7641 H   0  0  0  0  0  0  0  0  0  0  0  0
    2.1129   -0.2475    1.4809 H   0  0  0  0  0  0  0  0  0  0  0  0
  1  2  1  0
  2  3  1  0
  3  4  2  0
  4  5  1  0
  5  6  2  0
  6  7  1  0
  7  8  1  0
  6  9  1  0
  9 10  1  0
 10 11  1  0
 11 12  2  0
 12 13  1  0
 13 14  1  0
 14 15  1  0
 15 16  1  0
 16 17  1  0
 13 18  2  0
 18 19  1  0
 19 20  2  0
 20 21  1  0
 21 22  2  0
 22 23  1  0
 23 24  2  0
  9 25  2  0
 25  3  1  0
 24 11  1  0
 23 18  1  0
  1 26  1  0
  1 27  1  0
  1 28  1  0
  4 29  1  0
  5 30  1  0
  8 31  1  0
  8 32  1  0
  8 33  1  0
 10 34  1  0
 14 35  1  0
 15 36  1  0
 15 37  1  0
 16 38  1  0
 16 39  1  0
 17 40  1  0
 19 41  1  0
 20 42  1  0
 21 43  1  0
 22 44  1  0
 25 45  1  0
M  END
>  <ScrubInfo>  (1) 
{"isomerGroup": 0, "isomerId": 0, "confId": 0, "nr_conformers:": 1, "nr_isomers:": 6}

$$$$
_i1
     RDKit          3D

 45 47  0  0  0  0  0  0  0  0999 V2000
   -1.6900    0.1403   -0.0166 N   0  0  0  0  0  0  0  0  0  0  0  0
   -2.2387   -1.0669   -0.3730 C   0  0  0  0  0  0  0  0  0  0  0  0
   -3.6242   -1.1633   -0.4791 N   0  0  0  0  0  0  0  0  0  0  0  0
   -4.4372   -0.1827   -1.2056 C   0  0  0  0  0  0  0  0  0  0  0  0
   -4.6356   -0.6467   -2.6538 C   0  0  0  0  0  0  0  0  0  0  0  0
   -5.2601   -1.9344   -2.6782 O   0  0  0  0  0  0  0  0  0  0  0  0
   -1.3923   -2.1081   -0.5769 C   0  0  0  0  0  0  0  0  0  0  0  0
   -1.7453   -3.4636   -0.9634 C   0  0  0  0  0  0  0  0  0  0  0  0
   -0.8017   -4.3941   -1.1660 C   0  0  0  0  0  0  0  0  0  0  0  0
    0.5996   -4.0918   -1.0115 C   0  0  0  0  0  0  0  0  0  0  0  0
    1.0316   -2.8753   -0.6561 C   0  0  0  0  0  0  0  0  0  0  0  0
    0.0716   -1.7649   -0.3960 C   0  0  0  0  0  0  0  0  0  0  0  0
    0.5533   -0.6143   -0.0402 N   0  0  0  0  0  0  0  0  0  0  0  0
   -0.3663    0.3681    0.2113 C   0  0  0  0  0  0  0  0  0  0  0  0
   -0.0030    1.5291    0.6792 N   0  0  0  0  0  0  0  0  0  0  0  0
    1.3665    1.7599    0.9160 C   0  0  0  0  0  0  0  0  0  0  0  0
    2.1373    2.2838   -0.1340 C   0  0  0  0  0  0  0  0  0  0  0  0
    3.5087    2.5149    0.0064 C   0  0  0  0  0  0  0  0  0  0  0  0
    4.1234    3.0190   -1.1071 O   0  0  0  0  0  0  0  0  0  0  0  0
    5.5226    3.2538   -1.0174 C   0  0  0  0  0  0  0  0  0  0  0  0
    4.1253    2.2213    1.2197 C   0  0  0  0  0  0  0  0  0  0  0  0
    3.3687    1.7186    2.2821 C   0  0  0  0  0  0  0  0  0  0  0  0
    1.9903    1.5116    2.1508 C   0  0  0  0  0  0  0  0  0  0  0  0
    1.3941    1.0298    3.2891 O   0  0  0  0  0  0  0  0  0  0  0  0
    0.0757    1.5046    3.5350 C   0  0  0  0  0  0  0  0  0  0  0  0
   -2.3230    0.8457    0.3216 H   0  0  0  0  0  0  0  0  0  0  0  0
   -3.9272   -2.1010   -0.7418 H   0  0  0  0  0  0  0  0  0  0  0  0
   -5.4112   -0.1329   -0.7067 H   0  0  0  0  0  0  0  0  0  0  0  0
   -3.9977    0.8194   -1.1819 H   0  0  0  0  0  0  0  0  0  0  0  0
   -5.2655    0.0567   -3.2069 H   0  0  0  0  0  0  0  0  0  0  0  0
   -3.6749   -0.7336   -3.1710 H   0  0  0  0  0  0  0  0  0  0  0  0
   -6.1653   -1.8237   -2.3379 H   0  0  0  0  0  0  0  0  0  0  0  0
   -2.7856   -3.7330   -1.1009 H   0  0  0  0  0  0  0  0  0  0  0  0
   -1.0732   -5.4043   -1.4591 H   0  0  0  0  0  0  0  0  0  0  0  0
    1.3111   -4.8916   -1.1946 H   0  0  0  0  0  0  0  0  0  0  0  0
    2.0841   -2.6462   -0.5371 H   0  0  0  0  0  0  0  0  0  0  0  0
    1.6558    2.4956   -1.0849 H   0  0  0  0  0  0  0  0  0  0  0  0
    5.7488    4.0053   -0.2537 H   0  0  0  0  0  0  0  0  0  0  0  0
    6.0684    2.3229   -0.8309 H   0  0  0  0  0  0  0  0  0  0  0  0
    5.8579    3.6483   -1.9814 H   0  0  0  0  0  0  0  0  0  0  0  0
    5.1873    2.3726    1.3776 H   0  0  0  0  0  0  0  0  0  0  0  0
    3.8535    1.4963    3.2294 H   0  0  0  0  0  0  0  0  0  0  0  0
   -0.6624    0.8462    3.0692 H   0  0  0  0  0  0  0  0  0  0  0  0
   -0.0633    2.5466    3.2260 H   0  0  0  0  0  0  0  0  0  0  0  0
   -0.0918    1.4620    4.6160 H   0  0  0  0  0  0  0  0  0  0  0  0
  1  2  1  0
  2  3  1  0
  3  4  1  0
  4  5  1  0
  5  6  1  0
  2  7  2  0
  7  8  1  0
  8  9  2  0
  9 10  1  0
 10 11  2  0
 11 12  1  0
 12 13  2  0
 13 14  1  0
 14 15  2  3
 15 16  1  0
 16 17  2  0
 17 18  1  0
 18 19  1  0
 19 20  1  0
 18 21  2  0
 21 22  1  0
 22 23  2  0
 23 24  1  0
 24 25  1  0
 14  1  1  0
 23 16  1  0
 12  7  1  0
  1 26  1  0
  3 27  1  0
  4 28  1  0
  4 29  1  0
  5 30  1  0
  5 31  1  0
  6 32  1  0
  8 33  1  0
  9 34  1  0
 10 35  1  0
 11 36  1  0
 17 37  1  0
 20 38  1  0
 20 39  1  0
 20 40  1  0
 21 41  1  0
 22 42  1  0
 25 43  1  0
 25 44  1  0
 25 45  1  0
M  END
>  <ScrubInfo>  (2) 
{"isomerGroup": 0, "isomerId": 1, "confId": 0, "nr_conformers:": 1, "nr_isomers:": 6}

$$$$
_i2
     RDKit          3D

 45 47  0  0  0  0  0  0  0  0999 V2000
   -0.8393    0.1294   -0.0333 N   0  0  0  0  0  0  0  0  0  0  0  0
   -0.2964    1.3249    0.3197 C   0  0  0  0  0  0  0  0  0  0  0  0
    0.8174    1.3019    1.1024 N   0  0  0  0  0  0  0  0  0  0  0  0
    1.9785    0.4953    1.0111 C   0  0  0  0  0  0  0  0  0  0  0  0
    2.1823   -0.4563    0.0027 C   0  0  0  0  0  0  0  0  0  0  0  0
    3.3161   -1.2762   -0.0082 C   0  0  0  0  0  0  0  0  0  0  0  0
    3.3761   -2.1502   -1.0587 O   0  0  0  0  0  0  0  0  0  0  0  0
    4.5089   -3.0075   -1.1233 C   0  0  0  0  0  0  0  0  0  0  0  0
    4.2626   -1.1491    1.0047 C   0  0  0  0  0  0  0  0  0  0  0  0
    4.0832   -0.2046    2.0204 C   0  0  0  0  0  0  0  0  0  0  0  0
    2.9501    0.6132    2.0322 C   0  0  0  0  0  0  0  0  0  0  0  0
    2.6892    1.5775    2.9778 O   0  0  0  0  0  0  0  0  0  0  0  0
    3.5856    1.6702    4.0778 C   0  0  0  0  0  0  0  0  0  0  0  0
   -0.8597    2.4585    0.0114 N   0  0  0  0  0  0  0  0  0  0  0  0
   -2.0196    2.4013   -0.7984 C   0  0  0  0  0  0  0  0  0  0  0  0
   -2.5420    3.6287   -1.2251 C   0  0  0  0  0  0  0  0  0  0  0  0
   -3.6527    3.6816   -2.0640 C   0  0  0  0  0  0  0  0  0  0  0  0
   -4.2458    2.5003   -2.4957 C   0  0  0  0  0  0  0  0  0  0  0  0
   -3.7420    1.2636   -2.0781 C   0  0  0  0  0  0  0  0  0  0  0  0
   -2.6455    1.1978   -1.2116 C   0  0  0  0  0  0  0  0  0  0  0  0
   -2.0257   -0.0666   -0.6888 C   0  0  0  0  0  0  0  0  0  0  0  0
   -2.4406   -1.2904   -0.7335 N   0  0  0  0  0  0  0  0  0  0  0  0
   -3.7012   -1.7397   -1.3017 C   0  0  0  0  0  0  0  0  0  0  0  0
   -3.9056   -3.2014   -0.8913 C   0  0  0  0  0  0  0  0  0  0  0  0
   -3.9282   -3.3010    0.5314 O   0  0  0  0  0  0  0  0  0  0  0  0
   -0.4640   -0.6928    0.4157 H   0  0  0  0  0  0  0  0  0  0  0  0
    1.0492    2.2076    1.5034 H   0  0  0  0  0  0  0  0  0  0  0  0
    1.4808   -0.5577   -0.8207 H   0  0  0  0  0  0  0  0  0  0  0  0
    5.4340   -2.4315   -1.2305 H   0  0  0  0  0  0  0  0  0  0  0  0
    4.5531   -3.6692   -0.2520 H   0  0  0  0  0  0  0  0  0  0  0  0
    4.4027   -3.6354   -2.0132 H   0  0  0  0  0  0  0  0  0  0  0  0
    5.1559   -1.7644    1.0330 H   0  0  0  0  0  0  0  0  0  0  0  0
    4.8492   -0.1328    2.7853 H   0  0  0  0  0  0  0  0  0  0  0  0
    3.2065    2.4435    4.7529 H   0  0  0  0  0  0  0  0  0  0  0  0
    3.6249    0.7299    4.6377 H   0  0  0  0  0  0  0  0  0  0  0  0
    4.5829    1.9777    3.7470 H   0  0  0  0  0  0  0  0  0  0  0  0
   -2.0635    4.5502   -0.9021 H   0  0  0  0  0  0  0  0  0  0  0  0
   -4.0429    4.6426   -2.3889 H   0  0  0  0  0  0  0  0  0  0  0  0
   -5.1018    2.5382   -3.1658 H   0  0  0  0  0  0  0  0  0  0  0  0
   -4.2254    0.3809   -2.4697 H   0  0  0  0  0  0  0  0  0  0  0  0
   -3.6779   -1.6885   -2.3941 H   0  0  0  0  0  0  0  0  0  0  0  0
   -4.5333   -1.1533   -0.8983 H   0  0  0  0  0  0  0  0  0  0  0  0
   -4.8534   -3.5849   -1.2798 H   0  0  0  0  0  0  0  0  0  0  0  0
   -3.0919   -3.8326   -1.2631 H   0  0  0  0  0  0  0  0  0  0  0  0
   -3.1910   -2.7287    0.8232 H   0  0  0  0  0  0  0  0  0  0  0  0
  1  2  1  0
  2  3  1  0
  3  4  1  0
  4  5  2  0
  5  6  1  0
  6  7  1  0
  7  8  1  0
  6  9  2  0
  9 10  1  0
 10 11  2  0
 11 12  1  0
 12 13  1  0
  2 14  2  0
 14 15  1  0
 15 16  2  0
 16 17  1  0
 17 18  2  0
 18 19  1  0
 19 20  2  0
 20 21  1  0
 21 22  2  3
 22 23  1  0
 23 24  1  0
 24 25  1  0
 21  1  1  0
 11  4  1  0
 20 15  1  0
  1 26  1  0
  3 27  1  0
  5 28  1  0
  8 29  1  0
  8 30  1  0
  8 31  1  0
  9 32  1  0
 10 33  1  0
 13 34  1  0
 13 35  1  0
 13 36  1  0
 16 37  1  0
 17 38  1  0
 18 39  1  0
 19 40  1  0
 23 41  1  0
 23 42  1  0
 24 43  1  0
 24 44  1  0
 25 45  1  0
M  END
>  <ScrubInfo>  (3) 
{"isomerGroup": 0, "isomerId": 2, "confId": 0, "nr_conformers:": 1, "nr_isomers:": 6}

$$$$
_i3
     RDKit          3D

 45 47  0  0  0  0  0  0  0  0999 V2000
   -0.0873   -1.1204   -0.1726 N   0  0  0  0  0  0  0  0  0  0  0  0
   -0.1258    0.2334    0.0320 C   0  0  0  0  0  0  0  0  0  0  0  0
   -1.1694    0.9945   -0.1127 N   0  0  0  0  0  0  0  0  0  0  0  0
   -2.3991    0.4285   -0.4876 C   0  0  0  0  0  0  0  0  0  0  0  0
   -3.3706    0.2633    0.5111 C   0  0  0  0  0  0  0  0  0  0  0  0
   -4.5998   -0.3328    0.2254 C   0  0  0  0  0  0  0  0  0  0  0  0
   -5.6128   -0.5550    1.1174 O   0  0  0  0  0  0  0  0  0  0  0  0
   -5.4188   -0.0683    2.4402 C   0  0  0  0  0  0  0  0  0  0  0  0
   -4.8600   -0.7707   -1.0741 C   0  0  0  0  0  0  0  0  0  0  0  0
   -3.9124   -0.5981   -2.0832 C   0  0  0  0  0  0  0  0  0  0  0  0
   -2.6960    0.0254   -1.8021 C   0  0  0  0  0  0  0  0  0  0  0  0
   -1.8311    0.1206   -2.8624 O   0  0  0  0  0  0  0  0  0  0  0  0
   -1.2667    1.4234   -3.0189 C   0  0  0  0  0  0  0  0  0  0  0  0
    0.9926    0.9303    0.4155 N   0  0  0  0  0  0  0  0  0  0  0  0
    2.1412    0.3223    0.5237 C   0  0  0  0  0  0  0  0  0  0  0  0
    3.2616    1.0507    0.8826 N   0  0  0  0  0  0  0  0  0  0  0  0
    3.2403    2.5108    0.8917 C   0  0  0  0  0  0  0  0  0  0  0  0
    4.5712    3.0300    1.4405 C   0  0  0  0  0  0  0  0  0  0  0  0
    5.6539    2.5263    0.6519 O   0  0  0  0  0  0  0  0  0  0  0  0
    2.2808   -1.1476    0.2681 C   0  0  0  0  0  0  0  0  0  0  0  0
    3.4863   -1.8438    0.4124 C   0  0  0  0  0  0  0  0  0  0  0  0
    3.5282   -3.2157    0.1565 C   0  0  0  0  0  0  0  0  0  0  0  0
    2.3706   -3.8904   -0.2290 C   0  0  0  0  0  0  0  0  0  0  0  0
    1.1656   -3.1966   -0.3563 C   0  0  0  0  0  0  0  0  0  0  0  0
    1.1162   -1.8196   -0.1189 C   0  0  0  0  0  0  0  0  0  0  0  0
   -0.8762   -1.5525   -0.6254 H   0  0  0  0  0  0  0  0  0  0  0  0
   -3.1207    0.6060    1.5101 H   0  0  0  0  0  0  0  0  0  0  0  0
   -5.2811    1.0181    2.4464 H   0  0  0  0  0  0  0  0  0  0  0  0
   -6.3230   -0.2923    3.0142 H   0  0  0  0  0  0  0  0  0  0  0  0
   -4.5807   -0.5771    2.9277 H   0  0  0  0  0  0  0  0  0  0  0  0
   -5.8117   -1.2441   -1.3036 H   0  0  0  0  0  0  0  0  0  0  0  0
   -4.1282   -0.9368   -3.0929 H   0  0  0  0  0  0  0  0  0  0  0  0
   -1.1204    1.5909   -4.0907 H   0  0  0  0  0  0  0  0  0  0  0  0
   -1.9200    2.2211   -2.6468 H   0  0  0  0  0  0  0  0  0  0  0  0
   -0.2830    1.4701   -2.5444 H   0  0  0  0  0  0  0  0  0  0  0  0
    4.1531    0.7175    0.5251 H   0  0  0  0  0  0  0  0  0  0  0  0
    2.4201    2.8855    1.5132 H   0  0  0  0  0  0  0  0  0  0  0  0
    3.1027    2.8685   -0.1350 H   0  0  0  0  0  0  0  0  0  0  0  0
    4.5948    4.1235    1.4082 H   0  0  0  0  0  0  0  0  0  0  0  0
    4.7209    2.6980    2.4731 H   0  0  0  0  0  0  0  0  0  0  0  0
    6.4681    2.9105    1.0217 H   0  0  0  0  0  0  0  0  0  0  0  0
    4.3938   -1.3460    0.7359 H   0  0  0  0  0  0  0  0  0  0  0  0
    4.4627   -3.7607    0.2675 H   0  0  0  0  0  0  0  0  0  0  0  0
    2.4031   -4.9607   -0.4188 H   0  0  0  0  0  0  0  0  0  0  0  0
    0.2669   -3.7400   -0.6366 H   0  0  0  0  0  0  0  0  0  0  0  0
  1  2  1  0
  2  3  2  3
  3  4  1  0
  4  5  2  0
  5  6  1  0
  6  7  1  0
  7  8  1  0
  6  9  2  0
  9 10  1  0
 10 11  2  0
 11 12  1  0
 12 13  1  0
  2 14  1  0
 14 15  2  0
 15 16  1  0
 16 17  1  0
 17 18  1  0
 18 19  1  0
 15 20  1  0
 20 21  2  0
 21 22  1  0
 22 23  2  0
 23 24  1  0
 24 25  2  0
 25  1  1  0
 11  4  1  0
 25 20  1  0
  1 26  1  0
  5 27  1  0
  8 28  1  0
  8 29  1  0
  8 30  1  0
  9 31  1  0
 10 32  1  0
 13 33  1  0
 13 34  1  0
 13 35  1  0
 16 36  1  0
 17 37  1  0
 17 38  1  0
 18 39  1  0
 18 40  1  0
 19 41  1  0
 21 42  1  0
 22 43  1  0
 23 44  1  0
 24 45  1  0
M  END
>  <ScrubInfo>  (4) 
{"isomerGroup": 0, "isomerId": 3, "confId": 0, "nr_conformers:": 1, "nr_isomers:": 6}

$$$$
_i4
     RDKit          3D

 45 47  0  0  0  0  0  0  0  0999 V2000
    0.2948   -1.1045   -0.3398 N   0  0  0  0  0  0  0  0  0  0  0  0
    0.3362    0.1715   -0.8338 C   0  0  0  0  0  0  0  0  0  0  0  0
   -0.8484    0.6743   -1.2866 N   0  0  0  0  0  0  0  0  0  0  0  0
   -2.1417    0.6230   -0.7082 C   0  0  0  0  0  0  0  0  0  0  0  0
   -2.4199   -0.0080    0.5118 C   0  0  0  0  0  0  0  0  0  0  0  0
   -3.7245   -0.0902    1.0106 C   0  0  0  0  0  0  0  0  0  0  0  0
   -3.8355   -0.7342    2.2124 O   0  0  0  0  0  0  0  0  0  0  0  0
   -5.1266   -0.7728    2.8076 C   0  0  0  0  0  0  0  0  0  0  0  0
   -4.7728    0.4606    0.2787 C   0  0  0  0  0  0  0  0  0  0  0  0
   -4.5208    1.0974   -0.9407 C   0  0  0  0  0  0  0  0  0  0  0  0
   -3.2175    1.1801   -1.4384 C   0  0  0  0  0  0  0  0  0  0  0  0
   -2.8671    1.7900   -2.6204 O   0  0  0  0  0  0  0  0  0  0  0  0
   -3.9132    2.3579   -3.3978 C   0  0  0  0  0  0  0  0  0  0  0  0
    1.4192    0.8739   -0.9859 N   0  0  0  0  0  0  0  0  0  0  0  0
    2.5985    0.3574   -0.4935 C   0  0  0  0  0  0  0  0  0  0  0  0
    3.4510    1.2639   -0.1771 N   0  0  0  0  0  0  0  0  0  0  0  0
    4.7004    1.0204    0.5113 C   0  0  0  0  0  0  0  0  0  0  0  0
    5.1189    2.2976    1.2430 C   0  0  0  0  0  0  0  0  0  0  0  0
    6.4226    2.1464    1.8007 O   0  0  0  0  0  0  0  0  0  0  0  0
    2.7146   -1.1275   -0.3679 C   0  0  0  0  0  0  0  0  0  0  0  0
    3.9177   -1.8383   -0.3821 C   0  0  0  0  0  0  0  0  0  0  0  0
    3.9126   -3.2254   -0.2139 C   0  0  0  0  0  0  0  0  0  0  0  0
    2.7082   -3.9053   -0.0421 C   0  0  0  0  0  0  0  0  0  0  0  0
    1.5018   -3.2057   -0.0741 C   0  0  0  0  0  0  0  0  0  0  0  0
    1.4984   -1.8225   -0.2808 C   0  0  0  0  0  0  0  0  0  0  0  0
   -0.5200   -1.6406   -0.6085 H   0  0  0  0  0  0  0  0  0  0  0  0
   -0.7342    1.5414   -1.8077 H   0  0  0  0  0  0  0  0  0  0  0  0
   -1.6201   -0.4165    1.1232 H   0  0  0  0  0  0  0  0  0  0  0  0
   -5.5045    0.2369    2.9997 H   0  0  0  0  0  0  0  0  0  0  0  0
   -5.0354   -1.2833    3.7712 H   0  0  0  0  0  0  0  0  0  0  0  0
   -5.8264   -1.3470    2.1915 H   0  0  0  0  0  0  0  0  0  0  0  0
   -5.7993    0.4161    0.6277 H   0  0  0  0  0  0  0  0  0  0  0  0
   -5.3657    1.5178   -1.4758 H   0  0  0  0  0  0  0  0  0  0  0  0
   -4.6288    1.5928   -3.7162 H   0  0  0  0  0  0  0  0  0  0  0  0
   -4.4124    3.1677   -2.8556 H   0  0  0  0  0  0  0  0  0  0  0  0
   -3.4643    2.7883   -4.2981 H   0  0  0  0  0  0  0  0  0  0  0  0
    5.4858    0.7569   -0.2055 H   0  0  0  0  0  0  0  0  0  0  0  0
    4.6288    0.2162    1.2518 H   0  0  0  0  0  0  0  0  0  0  0  0
    4.4213    2.5183    2.0576 H   0  0  0  0  0  0  0  0  0  0  0  0
    5.1278    3.1607    0.5684 H   0  0  0  0  0  0  0  0  0  0  0  0
    7.0457    2.1413    1.0541 H   0  0  0  0  0  0  0  0  0  0  0  0
    4.8666   -1.3403   -0.5404 H   0  0  0  0  0  0  0  0  0  0  0  0
    4.8513   -3.7750   -0.2144 H   0  0  0  0  0  0  0  0  0  0  0  0
    2.7084   -4.9830    0.1031 H   0  0  0  0  0  0  0  0  0  0  0  0
    0.5683   -3.7489    0.0468 H   0  0  0  0  0  0  0  0  0  0  0  0
  1  2  1  0
  2  3  1  0
  3  4  1  0
  4  5  2  0
  5  6  1  0
  6  7  1  0
  7  8  1  0
  6  9  2  0
  9 10  1  0
 10 11  2  0
 11 12  1  0
 12 13  1  0
  2 14  2  0
 14 15  1  0
 15 16  2  3
 16 17  1  0
 17 18  1  0
 18 19  1  0
 15 20  1  0
 20 21  2  0
 21 22  1  0
 22 23  2  0
 23 24  1  0
 24 25  2  0
 25  1  1  0
 11  4  1  0
 25 20  1  0
  1 26  1  0
  3 27  1  0
  5 28  1  0
  8 29  1  0
  8 30  1  0
  8 31  1  0
  9 32  1  0
 10 33  1  0
 13 34  1  0
 13 35  1  0
 13 36  1  0
 17 37  1  0
 17 38  1  0
 18 39  1  0
 18 40  1  0
 19 41  1  0
 21 42  1  0
 22 43  1  0
 23 44  1  0
 24 45  1  0
M  END
>  <ScrubInfo>  (5) 
{"isomerGroup": 0, "isomerId": 4, "confId": 0, "nr_conformers:": 1, "nr_isomers:": 6}

$$$$
_i5
     RDKit          3D

 45 47  0  0  0  0  0  0  0  0999 V2000
   -0.0688    0.8489   -0.4333 N   0  0  0  0  0  0  0  0  0  0  0  0
    0.1094   -0.3189    0.2668 C   0  0  0  0  0  0  0  0  0  0  0  0
   -0.7943   -1.1947    0.5994 N   0  0  0  0  0  0  0  0  0  0  0  0
   -2.1345   -0.9892    0.2163 C   0  0  0  0  0  0  0  0  0  0  0  0
   -3.0564   -0.6608    1.2205 C   0  0  0  0  0  0  0  0  0  0  0  0
   -4.4025   -0.4666    0.9159 C   0  0  0  0  0  0  0  0  0  0  0  0
   -5.3898   -0.1352    1.8021 O   0  0  0  0  0  0  0  0  0  0  0  0
   -5.0141   -0.0272    3.1701 C   0  0  0  0  0  0  0  0  0  0  0  0
   -4.8282   -0.6089   -0.4053 C   0  0  0  0  0  0  0  0  0  0  0  0
   -3.9263   -0.9508   -1.4168 C   0  0  0  0  0  0  0  0  0  0  0  0
   -2.5786   -1.1548   -1.1128 C   0  0  0  0  0  0  0  0  0  0  0  0
   -1.6190   -1.4647   -2.0437 O   0  0  0  0  0  0  0  0  0  0  0  0
   -2.0731   -2.0326   -3.2655 C   0  0  0  0  0  0  0  0  0  0  0  0
    1.4028   -0.5455    0.6533 N   0  0  0  0  0  0  0  0  0  0  0  0
    2.5329    0.1964    0.4058 C   0  0  0  0  0  0  0  0  0  0  0  0
    3.7403   -0.0659    0.7853 N   0  0  0  0  0  0  0  0  0  0  0  0
    3.9724   -1.2782    1.5799 C   0  0  0  0  0  0  0  0  0  0  0  0
    5.4666   -1.3525    1.8962 C   0  0  0  0  0  0  0  0  0  0  0  0
    6.2104   -1.3599    0.6790 O   0  0  0  0  0  0  0  0  0  0  0  0
    2.3034    1.4370   -0.3985 C   0  0  0  0  0  0  0  0  0  0  0  0
    3.3490    2.3018   -0.7379 C   0  0  0  0  0  0  0  0  0  0  0  0
    3.0796    3.4468   -1.4865 C   0  0  0  0  0  0  0  0  0  0  0  0
    1.7730    3.7261   -1.8883 C   0  0  0  0  0  0  0  0  0  0  0  0
    0.7293    2.8606   -1.5464 C   0  0  0  0  0  0  0  0  0  0  0  0
    0.9837    1.7002   -0.8071 C   0  0  0  0  0  0  0  0  0  0  0  0
   -0.9720    1.0106   -0.8533 H   0  0  0  0  0  0  0  0  0  0  0  0
   -2.6807   -0.5662    2.2336 H   0  0  0  0  0  0  0  0  0  0  0  0
   -4.6263   -0.9783    3.5500 H   0  0  0  0  0  0  0  0  0  0  0  0
   -5.9121    0.2194    3.7445 H   0  0  0  0  0  0  0  0  0  0  0  0
   -4.2918    0.7825    3.3173 H   0  0  0  0  0  0  0  0  0  0  0  0
   -5.8770   -0.4544   -0.6498 H   0  0  0  0  0  0  0  0  0  0  0  0
   -4.3060   -1.0413   -2.4288 H   0  0  0  0  0  0  0  0  0  0  0  0
   -1.1977   -2.4050   -3.8063 H   0  0  0  0  0  0  0  0  0  0  0  0
   -2.5520   -1.2735   -3.8920 H   0  0  0  0  0  0  0  0  0  0  0  0
   -2.7434   -2.8811   -3.0910 H   0  0  0  0  0  0  0  0  0  0  0  0
    1.5062   -1.4139    1.1543 H   0  0  0  0  0  0  0  0  0  0  0  0
    3.4028   -1.2523    2.5151 H   0  0  0  0  0  0  0  0  0  0  0  0
    3.6868   -2.1615    0.9969 H   0  0  0  0  0  0  0  0  0  0  0  0
    5.7876   -0.4868    2.4843 H   0  0  0  0  0  0  0  0  0  0  0  0
    5.7028   -2.2636    2.4532 H   0  0  0  0  0  0  0  0  0  0  0  0
    5.7681   -0.6847    0.1255 H   0  0  0  0  0  0  0  0  0  0  0  0
    4.3662    2.0894   -0.4199 H   0  0  0  0  0  0  0  0  0  0  0  0
    3.8883    4.1233   -1.7527 H   0  0  0  0  0  0  0  0  0  0  0  0
    1.5652    4.6232   -2.4669 H   0  0  0  0  0  0  0  0  0  0  0  0
   -0.2820    3.1027   -1.8625 H   0  0  0  0  0  0  0  0  0  0  0  0
  1  2  1  0
  2  3  2  3
  3  4  1  0
  4  5  2  0
  5  6  1  0
  6  7  1  0
  7  8  1  0
  6  9  2  0
  9 10  1  0
 10 11  2  0
 11 12  1  0
 12 13  1  0
  2 14  1  0
 14 15  1  0
 15 16  2  3
 16 17  1  0
 17 18  1  0
 18 19  1  0
 15 20  1  0
 20 21  2  0
 21 22  1  0
 22 23  2  0
 23 24  1  0
 24 25  2  0
 25  1  1  0
 11  4  1  0
 25 20  1  0
  1 26  1  0
  5 27  1  0
  8 28  1  0
  8 29  1  0
  8 30  1  0
  9 31  1  0
 10 32  1  0
 13 33  1  0
 13 34  1  0
 13 35  1  0
 14 36  1  0
 17 37  1  0
 17 38  1  0
 18 39  1  0
 18 40  1  0
 19 41  1  0
 21 42  1  0
 22 43  1  0
 23 44  1  0
 24 45  1  0
M  END
>  <ScrubInfo>  (6) 
{"isomerGroup": 0, "isomerId": 5, "confId": 0, "nr_conformers:": 1, "nr_isomers:": 6}

$$$$
