REMARK SMILES COc1ccc(OC)c(Nc2nc(NCCO)c3ccccc3n2)c1
REMARK SMILES IDX 11 1 12 2 13 3 18 4 19 5 20 6 21 7 22 8 23 9 24 10 10 11
REMARK SMILES IDX 9 13 3 14 4 15 25 16 5 17 6 18 2 19 1 20 7 21 8 22 14 23
REMARK SMILES IDX 15 25 16 26 17 27
REMARK H PARENT 10 12 14 24 17 28
ROOT
ATOM      1  C   UNL     1      -0.381  -0.103  -0.050  1.00  0.00     0.229 A 
ATOM      2  N   UNL     1      -1.560  -0.049  -0.685  1.00  0.00    -0.195 NA
ATOM      3  C   UNL     1      -2.682  -0.249   0.028  1.00  0.00     0.139 A 
ATOM      4  C   UNL     1      -2.646  -0.551   1.398  1.00  0.00     0.043 A 
ATOM      5  C   UNL     1      -3.778  -0.824   2.211  1.00  0.00     0.014 A 
ATOM      6  C   UNL     1      -3.633  -1.104   3.567  1.00  0.00     0.001 A 
ATOM      7  C   UNL     1      -2.362  -1.118   4.126  1.00  0.00     0.002 A 
ATOM      8  C   UNL     1      -1.249  -0.859   3.321  1.00  0.00     0.029 A 
ATOM      9  C   UNL     1      -1.370  -0.580   1.964  1.00  0.00     0.078 A 
ATOM     10  N   UNL     1      -0.261  -0.353   1.258  1.00  0.00    -0.213 NA
ENDROOT
BRANCH   1  11
ATOM     11  N   UNL     1       0.728   0.127  -0.852  1.00  0.00    -0.321 N 
ATOM     12  H   UNL     1       0.448   0.292  -1.810  1.00  0.00     0.170 HD
BRANCH  11  13
ATOM     13  C   UNL     1       2.116   0.168  -0.643  1.00  0.00     0.087 A 
ATOM     14  C   UNL     1       4.107   0.013   0.765  1.00  0.00     0.121 A 
ATOM     15  C   UNL     1       4.914   0.278  -0.339  1.00  0.00     0.050 A 
ATOM     16  C   UNL     1       2.718  -0.039   0.604  1.00  0.00     0.076 A 
ATOM     17  C   UNL     1       4.338   0.490  -1.595  1.00  0.00     0.052 A 
ATOM     18  C   UNL     1       2.950   0.437  -1.754  1.00  0.00     0.142 A 
BRANCH  14  19
ATOM     19  O   UNL     1       4.545  -0.211   2.042  1.00  0.00    -0.497 OA
ATOM     20  C   UNL     1       5.949  -0.171   2.261  1.00  0.00     0.278 C 
ENDBRANCH  14  19
BRANCH  18  21
ATOM     21  O   UNL     1       2.289   0.631  -2.946  1.00  0.00    -0.495 OA
ATOM     22  C   UNL     1       3.084   0.904  -4.093  1.00  0.00     0.278 C 
ENDBRANCH  18  21
ENDBRANCH  11  13
ENDBRANCH   1  11
BRANCH   3  23
ATOM     23  N   UNL     1      -3.929  -0.198  -0.636  1.00  0.00    -0.367 N 
ATOM     24  H   UNL     1      -4.548   0.436  -0.130  1.00  0.00     0.162 HD
BRANCH  23  25
ATOM     25  C   UNL     1      -3.864   0.223  -2.039  1.00  0.00     0.142 C 
BRANCH  25  26
ATOM     26  C   UNL     1      -5.288   0.311  -2.598  1.00  0.00     0.177 C 
BRANCH  26  27
ATOM     27  O   UNL     1      -6.037   1.290  -1.871  1.00  0.00    -0.395 OA
ATOM     28  H   UNL     1      -6.936   1.284  -2.243  1.00  0.00     0.210 HD
ENDBRANCH  26  27
ENDBRANCH  25  26
ENDBRANCH  23  25
ENDBRANCH   3  23
TORSDOF 8
