REMARK SMILES COCCNc1nc(Nc2ccc(C(C)C)c(C)c2)c2cnn(C)c2n1
REMARK SMILES IDX 6 1 7 2 8 3 20 4 21 5 22 6 23 7 24 8 25 9 26 10 5 11 4 13
REMARK SMILES IDX 3 14 2 15 1 16 9 17 10 19 11 20 19 21 12 22 17 23 13 24
REMARK SMILES IDX 18 25 14 26 15 27 16 28
REMARK H PARENT 5 12 9 18
ROOT
ATOM      1  C   UNL     1       2.859  -0.683  -0.455  1.00  0.00     0.226 A 
ATOM      2  N   UNL     1       1.567  -0.637  -0.086  1.00  0.00    -0.195 NA
ATOM      3  C   UNL     1       0.834  -1.774   0.046  1.00  0.00     0.147 A 
ATOM      4  C   UNL     1       1.492  -2.980  -0.229  1.00  0.00     0.082 A 
ATOM      5  C   UNL     1       1.201  -4.360  -0.245  1.00  0.00     0.149 A 
ATOM      6  N   UNL     1       2.249  -5.112  -0.600  1.00  0.00    -0.179 NA
ATOM      7  N   UNL     1       3.227  -4.198  -0.805  1.00  0.00    -0.250 N 
ATOM      8  C   UNL     1       4.541  -4.641  -1.196  1.00  0.00     0.176 C 
ATOM      9  C   UNL     1       2.819  -2.908  -0.604  1.00  0.00     0.165 A 
ATOM     10  N   UNL     1       3.552  -1.794  -0.740  1.00  0.00    -0.193 NA
ENDROOT
BRANCH   1  11
ATOM     11  N   UNL     1       3.484   0.554  -0.538  1.00  0.00    -0.352 N 
ATOM     12  H   UNL     1       2.739   1.249  -0.545  1.00  0.00     0.163 HD
BRANCH  11  13
ATOM     13  C   UNL     1       4.408   0.687  -1.655  1.00  0.00     0.144 C 
BRANCH  13  14
ATOM     14  C   UNL     1       4.771   2.167  -1.848  1.00  0.00     0.181 C 
BRANCH  14  15
ATOM     15  O   UNL     1       3.620   2.992  -2.076  1.00  0.00    -0.383 OA
ATOM     16  C   UNL     1       3.079   2.862  -3.383  1.00  0.00     0.194 C 
ENDBRANCH  14  15
ENDBRANCH  13  14
ENDBRANCH  11  13
ENDBRANCH   1  11
BRANCH   3  17
ATOM     17  N   UNL     1      -0.520  -1.749   0.414  1.00  0.00    -0.339 N 
ATOM     18  H   UNL     1      -0.949  -2.663   0.446  1.00  0.00     0.168 HD
BRANCH  17  19
ATOM     19  C   UNL     1      -1.373  -0.708   0.819  1.00  0.00     0.040 A 
ATOM     20  C   UNL     1      -0.962   0.600   1.040  1.00  0.00     0.026 A 
ATOM     21  C   UNL     1      -2.742  -0.983   0.973  1.00  0.00     0.029 A 
ATOM     22  C   UNL     1      -1.875   1.588   1.425  1.00  0.00     0.006 A 
ATOM     23  C   UNL     1      -3.688   0.001   1.346  1.00  0.00    -0.046 A 
ATOM     24  C   UNL     1      -3.247   1.313   1.600  1.00  0.00    -0.042 A 
ATOM     25  C   UNL     1      -5.116  -0.447   1.488  1.00  0.00     0.045 C 
BRANCH  24  26
ATOM     26  C   UNL     1      -4.125   2.486   2.023  1.00  0.00     0.013 C 
ATOM     27  C   UNL     1      -4.900   3.069   0.839  1.00  0.00     0.012 C 
ATOM     28  C   UNL     1      -5.040   2.212   3.218  1.00  0.00     0.012 C 
ENDBRANCH  24  26
ENDBRANCH  17  19
ENDBRANCH   3  17
TORSDOF 7
