_i0
     RDKit          3D

 52 54  0  0  0  0  0  0  0  0999 V2000
    3.0788    2.8620   -3.3830 C   0  0  0  0  0  0  0  0  0  0  0  0
    3.6198    2.9924   -2.0756 O   0  0  0  0  0  0  0  0  0  0  0  0
    4.7707    2.1675   -1.8484 C   0  0  0  0  0  0  0  0  0  0  0  0
    4.4076    0.6874   -1.6552 C   0  0  0  0  0  0  0  0  0  0  0  0
    3.4839    0.5543   -0.5376 N   0  0  0  0  0  0  0  0  0  0  0  0
    2.8593   -0.6829   -0.4546 C   0  0  0  0  0  0  0  0  0  0  0  0
    1.5674   -0.6371   -0.0861 N   0  0  0  0  0  0  0  0  0  0  0  0
    0.8340   -1.7737    0.0458 C   0  0  0  0  0  0  0  0  0  0  0  0
   -0.5199   -1.7491    0.4138 N   0  0  0  0  0  0  0  0  0  0  0  0
   -1.3734   -0.7084    0.8187 C   0  0  0  0  0  0  0  0  0  0  0  0
   -0.9616    0.5998    1.0401 C   0  0  0  0  0  0  0  0  0  0  0  0
   -1.8753    1.5876    1.4253 C   0  0  0  0  0  0  0  0  0  0  0  0
   -3.2465    1.3133    1.5997 C   0  0  0  0  0  0  0  0  0  0  0  0
   -4.1248    2.4862    2.0228 C   0  0  0  0  0  0  0  0  0  0  0  0
   -4.8999    3.0690    0.8388 C   0  0  0  0  0  0  0  0  0  0  0  0
   -5.0401    2.2120    3.2179 C   0  0  0  0  0  0  0  0  0  0  0  0
   -3.6877    0.0008    1.3457 C   0  0  0  0  0  0  0  0  0  0  0  0
   -5.1160   -0.4472    1.4883 C   0  0  0  0  0  0  0  0  0  0  0  0
   -2.7420   -0.9830    0.9726 C   0  0  0  0  0  0  0  0  0  0  0  0
    1.4921   -2.9800   -0.2287 C   0  0  0  0  0  0  0  0  0  0  0  0
    1.2007   -4.3604   -0.2449 C   0  0  0  0  0  0  0  0  0  0  0  0
    2.2491   -5.1116   -0.6000 N   0  0  0  0  0  0  0  0  0  0  0  0
    3.2267   -4.1979   -0.8049 N   0  0  0  0  0  0  0  0  0  0  0  0
    4.5410   -4.6409   -1.1964 C   0  0  0  0  0  0  0  0  0  0  0  0
    2.8192   -2.9075   -0.6039 C   0  0  0  0  0  0  0  0  0  0  0  0
    3.5522   -1.7938   -0.7401 N   0  0  0  0  0  0  0  0  0  0  0  0
    3.8427    3.0617   -4.1405 H   0  0  0  0  0  0  0  0  0  0  0  0
    2.2786    3.5987   -3.4954 H   0  0  0  0  0  0  0  0  0  0  0  0
    2.6489    1.8680   -3.5305 H   0  0  0  0  0  0  0  0  0  0  0  0
    5.2499    2.5444   -0.9379 H   0  0  0  0  0  0  0  0  0  0  0  0
    5.4867    2.2894   -2.6692 H   0  0  0  0  0  0  0  0  0  0  0  0
    3.9547    0.3001   -2.5754 H   0  0  0  0  0  0  0  0  0  0  0  0
    5.3248    0.1198   -1.4592 H   0  0  0  0  0  0  0  0  0  0  0  0
    2.7392    1.2486   -0.5448 H   0  0  0  0  0  0  0  0  0  0  0  0
   -0.9486   -2.6627    0.4459 H   0  0  0  0  0  0  0  0  0  0  0  0
    0.0797    0.8864    0.9369 H   0  0  0  0  0  0  0  0  0  0  0  0
   -1.4907    2.5928    1.5923 H   0  0  0  0  0  0  0  0  0  0  0  0
   -3.4525    3.2850    2.3681 H   0  0  0  0  0  0  0  0  0  0  0  0
   -4.2206    3.3459    0.0247 H   0  0  0  0  0  0  0  0  0  0  0  0
   -5.6307    2.3649    0.4320 H   0  0  0  0  0  0  0  0  0  0  0  0
   -5.4422    3.9716    1.1412 H   0  0  0  0  0  0  0  0  0  0  0  0
   -5.9150    1.6144    2.9509 H   0  0  0  0  0  0  0  0  0  0  0  0
   -4.5013    1.6976    4.0208 H   0  0  0  0  0  0  0  0  0  0  0  0
   -5.4203    3.1566    3.6237 H   0  0  0  0  0  0  0  0  0  0  0  0
   -5.3559   -0.6098    2.5432 H   0  0  0  0  0  0  0  0  0  0  0  0
   -5.2910   -1.3912    0.9595 H   0  0  0  0  0  0  0  0  0  0  0  0
   -5.8109    0.2735    1.0536 H   0  0  0  0  0  0  0  0  0  0  0  0
   -3.0952   -1.9969    0.7912 H   0  0  0  0  0  0  0  0  0  0  0  0
    0.2668   -4.8549   -0.0129 H   0  0  0  0  0  0  0  0  0  0  0  0
    4.9243   -5.3080   -0.4201 H   0  0  0  0  0  0  0  0  0  0  0  0
    5.2080   -3.7833   -1.3093 H   0  0  0  0  0  0  0  0  0  0  0  0
    4.4553   -5.1715   -2.1481 H   0  0  0  0  0  0  0  0  0  0  0  0
  1  2  1  0
  2  3  1  0
  3  4  1  0
  4  5  1  0
  5  6  1  0
  6  7  2  0
  7  8  1  0
  8  9  1  0
  9 10  1  0
 10 11  2  0
 11 12  1  0
 12 13  2  0
 13 14  1  0
 14 15  1  0
 14 16  1  0
 13 17  1  0
 17 18  1  0
 17 19  2  0
  8 20  2  0
 20 21  1  0
 21 22  2  0
 22 23  1  0
 23 24  1  0
 23 25  1  0
 25 26  2  0
 26  6  1  0
 19 10  1  0
 25 20  1  0
  1 27  1  0
  1 28  1  0
  1 29  1  0
  3 30  1  0
  3 31  1  0
  4 32  1  0
  4 33  1  0
  5 34  1  0
  9 35  1  0
 11 36  1  0
 12 37  1  0
 14 38  1  0
 15 39  1  0
 15 40  1  0
 15 41  1  0
 16 42  1  0
 16 43  1  0
 16 44  1  0
 18 45  1  0
 18 46  1  0
 18 47  1  0
 19 48  1  0
 21 49  1  0
 24 50  1  0
 24 51  1  0
 24 52  1  0
M  END
>  <ScrubInfo>  (1) 
{"isomerGroup": 0, "isomerId": 0, "confId": 0, "nr_conformers:": 1, "nr_isomers:": 9}

$$$$
_i1
     RDKit          3D

 52 54  0  0  0  0  0  0  0  0999 V2000
    2.1893   -0.1839    0.7920 N   0  0  0  0  0  0  0  0  0  0  0  0
    1.0277   -0.6228    0.1895 C   0  0  0  0  0  0  0  0  0  0  0  0
   -0.0298   -1.0951    0.9427 N   0  0  0  0  0  0  0  0  0  0  0  0
   -1.3694   -0.6449    0.8953 C   0  0  0  0  0  0  0  0  0  0  0  0
   -1.7823    0.4875    0.1949 C   0  0  0  0  0  0  0  0  0  0  0  0
   -3.1310    0.8550    0.1621 C   0  0  0  0  0  0  0  0  0  0  0  0
   -4.1163    0.0992    0.8227 C   0  0  0  0  0  0  0  0  0  0  0  0
   -5.5739    0.5418    0.7540 C   0  0  0  0  0  0  0  0  0  0  0  0
   -5.7753    1.9170    1.3983 C   0  0  0  0  0  0  0  0  0  0  0  0
   -6.0985    0.5312   -0.6853 C   0  0  0  0  0  0  0  0  0  0  0  0
   -3.7112   -1.0515    1.5295 C   0  0  0  0  0  0  0  0  0  0  0  0
   -4.6889   -1.9304    2.2628 C   0  0  0  0  0  0  0  0  0  0  0  0
   -2.3472   -1.4047    1.5522 C   0  0  0  0  0  0  0  0  0  0  0  0
    1.0415   -0.6075   -1.1494 C   0  0  0  0  0  0  0  0  0  0  0  0
    0.1462   -0.9732   -2.2528 C   0  0  0  0  0  0  0  0  0  0  0  0
    0.6622   -0.7278   -3.4319 N   0  0  0  0  0  0  0  0  0  0  0  0
    1.9536   -0.2365   -3.1805 N   0  0  0  0  0  0  0  0  0  0  0  0
    2.6856    0.3907   -4.2530 C   0  0  0  0  0  0  0  0  0  0  0  0
    2.2476   -0.0949   -1.8347 C   0  0  0  0  0  0  0  0  0  0  0  0
    3.3005    0.3726   -1.2535 N   0  0  0  0  0  0  0  0  0  0  0  0
    3.2612    0.3496    0.1225 C   0  0  0  0  0  0  0  0  0  0  0  0
    4.2397    0.8291    0.8164 N   0  0  0  0  0  0  0  0  0  0  0  0
    5.3797    1.4182    0.0934 C   0  0  0  0  0  0  0  0  0  0  0  0
    6.3692    0.3465   -0.3815 C   0  0  0  0  0  0  0  0  0  0  0  0
    7.3192   -0.0380    0.6201 O   0  0  0  0  0  0  0  0  0  0  0  0
    6.7389   -0.7699    1.6902 C   0  0  0  0  0  0  0  0  0  0  0  0
    2.2032   -0.0716    1.7937 H   0  0  0  0  0  0  0  0  0  0  0  0
    0.2317   -1.3370    1.8946 H   0  0  0  0  0  0  0  0  0  0  0  0
   -1.0680    1.1253   -0.3179 H   0  0  0  0  0  0  0  0  0  0  0  0
   -3.4053    1.7519   -0.3902 H   0  0  0  0  0  0  0  0  0  0  0  0
   -6.2014   -0.1575    1.3161 H   0  0  0  0  0  0  0  0  0  0  0  0
   -6.8386    2.1798    1.4178 H   0  0  0  0  0  0  0  0  0  0  0  0
   -5.4100    1.9216    2.4313 H   0  0  0  0  0  0  0  0  0  0  0  0
   -5.2493    2.7085    0.8538 H   0  0  0  0  0  0  0  0  0  0  0  0
   -5.9635   -0.4552   -1.1430 H   0  0  0  0  0  0  0  0  0  0  0  0
   -7.1682    0.7663   -0.7057 H   0  0  0  0  0  0  0  0  0  0  0  0
   -5.5868    1.2657   -1.3163 H   0  0  0  0  0  0  0  0  0  0  0  0
   -5.4217   -2.3482    1.5651 H   0  0  0  0  0  0  0  0  0  0  0  0
   -4.1878   -2.7727    2.7520 H   0  0  0  0  0  0  0  0  0  0  0  0
   -5.2018   -1.3598    3.0435 H   0  0  0  0  0  0  0  0  0  0  0  0
   -2.0428   -2.3047    2.0843 H   0  0  0  0  0  0  0  0  0  0  0  0
   -0.8509   -1.3914   -2.0643 H   0  0  0  0  0  0  0  0  0  0  0  0
    2.4756   -0.1031   -5.2074 H   0  0  0  0  0  0  0  0  0  0  0  0
    2.4050    1.4450   -4.3395 H   0  0  0  0  0  0  0  0  0  0  0  0
    3.7644    0.3307   -4.0769 H   0  0  0  0  0  0  0  0  0  0  0  0
    5.8847    2.1086    0.7785 H   0  0  0  0  0  0  0  0  0  0  0  0
    5.0350    2.0223   -0.7545 H   0  0  0  0  0  0  0  0  0  0  0  0
    6.9623    0.7707   -1.1989 H   0  0  0  0  0  0  0  0  0  0  0  0
    5.8708   -0.5457   -0.7765 H   0  0  0  0  0  0  0  0  0  0  0  0
    6.1637   -0.1084    2.3429 H   0  0  0  0  0  0  0  0  0  0  0  0
    7.5497   -1.2016    2.2838 H   0  0  0  0  0  0  0  0  0  0  0  0
    6.1118   -1.5858    1.3180 H   0  0  0  0  0  0  0  0  0  0  0  0
  1  2  1  0
  2  3  1  0
  3  4  1  0
  4  5  2  0
  5  6  1  0
  6  7  2  0
  7  8  1  0
  8  9  1  0
  8 10  1  0
  7 11  1  0
 11 12  1  0
 11 13  2  0
  2 14  2  0
 14 15  1  0
 15 16  2  0
 16 17  1  0
 17 18  1  0
 17 19  1  0
 19 20  2  0
 20 21  1  0
 21 22  2  3
 22 23  1  0
 23 24  1  0
 24 25  1  0
 25 26  1  0
 21  1  1  0
 13  4  1  0
 19 14  1  0
  1 27  1  0
  3 28  1  0
  5 29  1  0
  6 30  1  0
  8 31  1  0
  9 32  1  0
  9 33  1  0
  9 34  1  0
 10 35  1  0
 10 36  1  0
 10 37  1  0
 12 38  1  0
 12 39  1  0
 12 40  1  0
 13 41  1  0
 15 42  1  0
 18 43  1  0
 18 44  1  0
 18 45  1  0
 23 46  1  0
 23 47  1  0
 24 48  1  0
 24 49  1  0
 26 50  1  0
 26 51  1  0
 26 52  1  0
M  END
>  <ScrubInfo>  (2) 
{"isomerGroup": 0, "isomerId": 1, "confId": 0, "nr_conformers:": 1, "nr_isomers:": 9}

$$$$
_i2
     RDKit          3D

 52 54  0  0  0  0  0  0  0  0999 V2000
    0.7440   -0.6990   -0.6114 N   0  0  0  0  0  0  0  0  0  0  0  0
    2.0575   -0.9551   -0.2791 C   0  0  0  0  0  0  0  0  0  0  0  0
    2.3419   -0.6467    1.0244 N   0  0  0  0  0  0  0  0  0  0  0  0
    3.6968   -0.7557    1.5569 C   0  0  0  0  0  0  0  0  0  0  0  0
    4.6091    0.3712    1.0559 C   0  0  0  0  0  0  0  0  0  0  0  0
    5.8668    0.3747    1.7373 O   0  0  0  0  0  0  0  0  0  0  0  0
    5.8395    1.1046    2.9563 C   0  0  0  0  0  0  0  0  0  0  0  0
    2.9404   -1.4457   -1.1114 N   0  0  0  0  0  0  0  0  0  0  0  0
    2.4075   -1.6564   -2.3472 C   0  0  0  0  0  0  0  0  0  0  0  0
    1.1111   -1.4315   -2.7648 C   0  0  0  0  0  0  0  0  0  0  0  0
    1.0843   -1.8100   -4.1135 C   0  0  0  0  0  0  0  0  0  0  0  0
    2.2776   -2.2444   -4.5413 N   0  0  0  0  0  0  0  0  0  0  0  0
    3.0665   -2.1434   -3.4416 N   0  0  0  0  0  0  0  0  0  0  0  0
    4.4501   -2.5373   -3.5255 C   0  0  0  0  0  0  0  0  0  0  0  0
    0.1413   -0.9170   -1.8337 C   0  0  0  0  0  0  0  0  0  0  0  0
   -1.0764   -0.7475   -2.2288 N   0  0  0  0  0  0  0  0  0  0  0  0
   -1.9955   -0.2490   -1.2979 C   0  0  0  0  0  0  0  0  0  0  0  0
   -2.7371   -1.1194   -0.5061 C   0  0  0  0  0  0  0  0  0  0  0  0
   -3.6363   -0.6187    0.4368 C   0  0  0  0  0  0  0  0  0  0  0  0
   -3.8238    0.7674    0.6060 C   0  0  0  0  0  0  0  0  0  0  0  0
   -4.8244    1.2673    1.6432 C   0  0  0  0  0  0  0  0  0  0  0  0
   -4.4726    0.7838    3.0542 C   0  0  0  0  0  0  0  0  0  0  0  0
   -6.2559    0.8702    1.2714 C   0  0  0  0  0  0  0  0  0  0  0  0
   -3.0897    1.6511   -0.2165 C   0  0  0  0  0  0  0  0  0  0  0  0
   -3.2438    3.1459   -0.1320 C   0  0  0  0  0  0  0  0  0  0  0  0
   -2.1864    1.1267   -1.1600 C   0  0  0  0  0  0  0  0  0  0  0  0
    0.1181   -0.4637    0.1406 H   0  0  0  0  0  0  0  0  0  0  0  0
    1.8220    0.1303    1.4125 H   0  0  0  0  0  0  0  0  0  0  0  0
    3.6321   -0.7278    2.6497 H   0  0  0  0  0  0  0  0  0  0  0  0
    4.1356   -1.7318    1.3168 H   0  0  0  0  0  0  0  0  0  0  0  0
    4.1232    1.3507    1.1461 H   0  0  0  0  0  0  0  0  0  0  0  0
    4.8255    0.2234   -0.0073 H   0  0  0  0  0  0  0  0  0  0  0  0
    5.5975    2.1548    2.7670 H   0  0  0  0  0  0  0  0  0  0  0  0
    5.1200    0.6735    3.6574 H   0  0  0  0  0  0  0  0  0  0  0  0
    6.8343    1.0548    3.4073 H   0  0  0  0  0  0  0  0  0  0  0  0
    0.2495   -1.7885   -4.8019 H   0  0  0  0  0  0  0  0  0  0  0  0
    4.4897   -3.5975   -3.7880 H   0  0  0  0  0  0  0  0  0  0  0  0
    4.9464   -2.3745   -2.5663 H   0  0  0  0  0  0  0  0  0  0  0  0
    4.9332   -1.9342   -4.2984 H   0  0  0  0  0  0  0  0  0  0  0  0
   -2.6193   -2.1930   -0.6271 H   0  0  0  0  0  0  0  0  0  0  0  0
   -4.2034   -1.3294    1.0347 H   0  0  0  0  0  0  0  0  0  0  0  0
   -4.8019    2.3612    1.6828 H   0  0  0  0  0  0  0  0  0  0  0  0
   -5.1463    1.2330    3.7921 H   0  0  0  0  0  0  0  0  0  0  0  0
   -4.5560   -0.3038    3.1518 H   0  0  0  0  0  0  0  0  0  0  0  0
   -3.4480    1.0669    3.3199 H   0  0  0  0  0  0  0  0  0  0  0  0
   -6.3961   -0.2161    1.2787 H   0  0  0  0  0  0  0  0  0  0  0  0
   -6.9711    1.3016    1.9801 H   0  0  0  0  0  0  0  0  0  0  0  0
   -6.5149    1.2339    0.2708 H   0  0  0  0  0  0  0  0  0  0  0  0
   -2.6118    3.6592   -0.8648 H   0  0  0  0  0  0  0  0  0  0  0  0
   -2.9485    3.5025    0.8599 H   0  0  0  0  0  0  0  0  0  0  0  0
   -4.2796    3.4341   -0.3378 H   0  0  0  0  0  0  0  0  0  0  0  0
   -1.6227    1.7945   -1.8085 H   0  0  0  0  0  0  0  0  0  0  0  0
  1  2  1  0
  2  3  1  0
  3  4  1  0
  4  5  1  0
  5  6  1  0
  6  7  1  0
  2  8  2  0
  8  9  1  0
  9 10  2  0
 10 11  1  0
 11 12  2  0
 12 13  1  0
 13 14  1  0
 10 15  1  0
 15 16  2  3
 16 17  1  0
 17 18  2  0
 18 19  1  0
 19 20  2  0
 20 21  1  0
 21 22  1  0
 21 23  1  0
 20 24  1  0
 24 25  1  0
 24 26  2  0
 15  1  1  0
 26 17  1  0
 13  9  1  0
  1 27  1  0
  3 28  1  0
  4 29  1  0
  4 30  1  0
  5 31  1  0
  5 32  1  0
  7 33  1  0
  7 34  1  0
  7 35  1  0
 11 36  1  0
 14 37  1  0
 14 38  1  0
 14 39  1  0
 18 40  1  0
 19 41  1  0
 21 42  1  0
 22 43  1  0
 22 44  1  0
 22 45  1  0
 23 46  1  0
 23 47  1  0
 23 48  1  0
 25 49  1  0
 25 50  1  0
 25 51  1  0
 26 52  1  0
M  END
>  <ScrubInfo>  (3) 
{"isomerGroup": 0, "isomerId": 2, "confId": 0, "nr_conformers:": 1, "nr_isomers:": 9}

$$$$
_i3
     RDKit          3D

 52 54  0  0  0  0  0  0  0  0999 V2000
   -3.1177   -1.1620   -0.3329 N   0  0  0  0  0  0  0  0  0  0  0  0
   -3.0052    0.0193   -1.0508 C   0  0  0  0  0  0  0  0  0  0  0  0
   -3.9284    0.8981   -1.2150 N   0  0  0  0  0  0  0  0  0  0  0  0
   -5.2403    0.6968   -0.6080 C   0  0  0  0  0  0  0  0  0  0  0  0
   -6.1309    1.9186   -0.8798 C   0  0  0  0  0  0  0  0  0  0  0  0
   -5.7173    3.1113   -0.2073 O   0  0  0  0  0  0  0  0  0  0  0  0
   -5.9032    3.0771    1.1979 C   0  0  0  0  0  0  0  0  0  0  0  0
   -1.8206    0.3614   -1.6870 N   0  0  0  0  0  0  0  0  0  0  0  0
   -0.7842   -0.4218   -1.5940 C   0  0  0  0  0  0  0  0  0  0  0  0
    0.4090   -0.1507   -2.2148 N   0  0  0  0  0  0  0  0  0  0  0  0
    1.6447   -0.0140   -1.5319 C   0  0  0  0  0  0  0  0  0  0  0  0
    2.8215   -0.0783   -2.2738 C   0  0  0  0  0  0  0  0  0  0  0  0
    4.0617    0.0790   -1.6520 C   0  0  0  0  0  0  0  0  0  0  0  0
    4.1741    0.3240   -0.2672 C   0  0  0  0  0  0  0  0  0  0  0  0
    5.5906    0.4687    0.2819 C   0  0  0  0  0  0  0  0  0  0  0  0
    5.9719    1.9368    0.4856 C   0  0  0  0  0  0  0  0  0  0  0  0
    5.8937   -0.3723    1.5237 C   0  0  0  0  0  0  0  0  0  0  0  0
    2.9843    0.4438    0.4813 C   0  0  0  0  0  0  0  0  0  0  0  0
    2.9467    0.7121    1.9611 C   0  0  0  0  0  0  0  0  0  0  0  0
    1.7398    0.2671   -0.1648 C   0  0  0  0  0  0  0  0  0  0  0  0
   -0.8680   -1.6713   -0.8748 C   0  0  0  0  0  0  0  0  0  0  0  0
   -0.0410   -2.7704   -0.5988 C   0  0  0  0  0  0  0  0  0  0  0  0
   -0.6623   -3.7005    0.1446 N   0  0  0  0  0  0  0  0  0  0  0  0
   -1.9032   -3.1891    0.3340 N   0  0  0  0  0  0  0  0  0  0  0  0
   -2.8610   -3.9456    1.0990 C   0  0  0  0  0  0  0  0  0  0  0  0
   -2.0535   -1.9806   -0.2683 C   0  0  0  0  0  0  0  0  0  0  0  0
   -4.0106   -1.3682    0.0861 H   0  0  0  0  0  0  0  0  0  0  0  0
   -5.1438    0.5312    0.4695 H   0  0  0  0  0  0  0  0  0  0  0  0
   -5.7192   -0.1822   -1.0554 H   0  0  0  0  0  0  0  0  0  0  0  0
   -6.1252    2.1423   -1.9525 H   0  0  0  0  0  0  0  0  0  0  0  0
   -7.1681    1.6962   -0.6028 H   0  0  0  0  0  0  0  0  0  0  0  0
   -6.9305    2.7976    1.4504 H   0  0  0  0  0  0  0  0  0  0  0  0
   -5.7109    4.0791    1.5917 H   0  0  0  0  0  0  0  0  0  0  0  0
   -5.1959    2.3894    1.6684 H   0  0  0  0  0  0  0  0  0  0  0  0
    0.2879    0.6830   -2.7885 H   0  0  0  0  0  0  0  0  0  0  0  0
    2.7852   -0.2709   -3.3434 H   0  0  0  0  0  0  0  0  0  0  0  0
    4.9557    0.0052   -2.2696 H   0  0  0  0  0  0  0  0  0  0  0  0
    6.2752    0.0812   -0.4865 H   0  0  0  0  0  0  0  0  0  0  0  0
    7.0236    2.0236    0.7798 H   0  0  0  0  0  0  0  0  0  0  0  0
    5.3707    2.4200    1.2605 H   0  0  0  0  0  0  0  0  0  0  0  0
    5.8370    2.5080   -0.4398 H   0  0  0  0  0  0  0  0  0  0  0  0
    6.9768   -0.4292    1.6828 H   0  0  0  0  0  0  0  0  0  0  0  0
    5.5195   -1.3955    1.4115 H   0  0  0  0  0  0  0  0  0  0  0  0
    5.4683    0.0532    2.4358 H   0  0  0  0  0  0  0  0  0  0  0  0
    1.9593    1.0693    2.2754 H   0  0  0  0  0  0  0  0  0  0  0  0
    3.1573   -0.2072    2.5154 H   0  0  0  0  0  0  0  0  0  0  0  0
    3.6534    1.4927    2.2483 H   0  0  0  0  0  0  0  0  0  0  0  0
    0.8294    0.3669    0.4245 H   0  0  0  0  0  0  0  0  0  0  0  0
    0.9846   -2.9400   -0.9012 H   0  0  0  0  0  0  0  0  0  0  0  0
   -2.4347   -4.1461    2.0852 H   0  0  0  0  0  0  0  0  0  0  0  0
   -3.7860   -3.3755    1.2068 H   0  0  0  0  0  0  0  0  0  0  0  0
   -3.0604   -4.8815    0.5710 H   0  0  0  0  0  0  0  0  0  0  0  0
  1  2  1  0
  2  3  2  3
  3  4  1  0
  4  5  1  0
  5  6  1  0
  6  7  1  0
  2  8  1  0
  8  9  2  0
  9 10  1  0
 10 11  1  0
 11 12  2  0
 12 13  1  0
 13 14  2  0
 14 15  1  0
 15 16  1  0
 15 17  1  0
 14 18  1  0
 18 19  1  0
 18 20  2  0
  9 21  1  0
 21 22  1  0
 22 23  2  0
 23 24  1  0
 24 25  1  0
 24 26  1  0
 26  1  1  0
 20 11  1  0
 26 21  2  0
  1 27  1  0
  4 28  1  0
  4 29  1  0
  5 30  1  0
  5 31  1  0
  7 32  1  0
  7 33  1  0
  7 34  1  0
 10 35  1  0
 12 36  1  0
 13 37  1  0
 15 38  1  0
 16 39  1  0
 16 40  1  0
 16 41  1  0
 17 42  1  0
 17 43  1  0
 17 44  1  0
 19 45  1  0
 19 46  1  0
 19 47  1  0
 20 48  1  0
 22 49  1  0
 25 50  1  0
 25 51  1  0
 25 52  1  0
M  END
>  <ScrubInfo>  (4) 
{"isomerGroup": 0, "isomerId": 3, "confId": 0, "nr_conformers:": 1, "nr_isomers:": 9}

$$$$
_i4
     RDKit          3D

 52 54  0  0  0  0  0  0  0  0999 V2000
    0.0560   -3.5479    0.7672 N   0  0  0  0  0  0  0  0  0  0  0  0
    0.2432   -2.1840    0.5685 C   0  0  0  0  0  0  0  0  0  0  0  0
   -0.9023   -1.5059    0.3990 C   0  0  0  0  0  0  0  0  0  0  0  0
   -1.3539   -0.1444    0.1419 C   0  0  0  0  0  0  0  0  0  0  0  0
   -0.6943    0.9628    0.0585 N   0  0  0  0  0  0  0  0  0  0  0  0
    0.6910    0.9762    0.2314 C   0  0  0  0  0  0  0  0  0  0  0  0
    1.2436    1.1693    1.4909 C   0  0  0  0  0  0  0  0  0  0  0  0
    2.6299    1.1797    1.6529 C   0  0  0  0  0  0  0  0  0  0  0  0
    3.5083    1.0115    0.5590 C   0  0  0  0  0  0  0  0  0  0  0  0
    5.0002    1.0426    0.8795 C   0  0  0  0  0  0  0  0  0  0  0  0
    5.6222    2.4015    0.5503 C   0  0  0  0  0  0  0  0  0  0  0  0
    5.8137   -0.1105    0.2881 C   0  0  0  0  0  0  0  0  0  0  0  0
    2.9464    0.8679   -0.7287 C   0  0  0  0  0  0  0  0  0  0  0  0
    3.7531    0.6946   -1.9857 C   0  0  0  0  0  0  0  0  0  0  0  0
    1.5419    0.8475   -0.8672 C   0  0  0  0  0  0  0  0  0  0  0  0
   -2.7064   -0.0367   -0.0414 N   0  0  0  0  0  0  0  0  0  0  0  0
   -3.5260   -1.0364    0.0647 C   0  0  0  0  0  0  0  0  0  0  0  0
   -4.8648   -0.8606   -0.1362 N   0  0  0  0  0  0  0  0  0  0  0  0
   -5.4974    0.4441   -0.0994 C   0  0  0  0  0  0  0  0  0  0  0  0
   -5.3269    1.1969   -1.4238 C   0  0  0  0  0  0  0  0  0  0  0  0
   -5.9596    2.4811   -1.3785 O   0  0  0  0  0  0  0  0  0  0  0  0
   -5.1065    3.4800   -0.8296 C   0  0  0  0  0  0  0  0  0  0  0  0
   -3.1735   -2.3187    0.3844 N   0  0  0  0  0  0  0  0  0  0  0  0
   -1.9206   -2.5621    0.5537 C   0  0  0  0  0  0  0  0  0  0  0  0
   -1.3084   -3.7737    0.8802 N   0  0  0  0  0  0  0  0  0  0  0  0
   -1.8537   -5.0330    0.4101 C   0  0  0  0  0  0  0  0  0  0  0  0
    0.6410   -3.9313    1.5132 H   0  0  0  0  0  0  0  0  0  0  0  0
    1.2532   -1.8006    0.5717 H   0  0  0  0  0  0  0  0  0  0  0  0
    0.5939    1.3133    2.3495 H   0  0  0  0  0  0  0  0  0  0  0  0
    3.0252    1.3302    2.6563 H   0  0  0  0  0  0  0  0  0  0  0  0
    5.0984    0.9189    1.9678 H   0  0  0  0  0  0  0  0  0  0  0  0
    5.0837    3.2111    1.0557 H   0  0  0  0  0  0  0  0  0  0  0  0
    5.6091    2.6171   -0.5215 H   0  0  0  0  0  0  0  0  0  0  0  0
    6.6654    2.4375    0.8828 H   0  0  0  0  0  0  0  0  0  0  0  0
    6.0128    0.0173   -0.7786 H   0  0  0  0  0  0  0  0  0  0  0  0
    5.3061   -1.0701    0.4334 H   0  0  0  0  0  0  0  0  0  0  0  0
    6.7905   -0.1721    0.7817 H   0  0  0  0  0  0  0  0  0  0  0  0
    4.1091   -0.3368   -2.0650 H   0  0  0  0  0  0  0  0  0  0  0  0
    4.5971    1.3858   -2.0224 H   0  0  0  0  0  0  0  0  0  0  0  0
    3.1505    0.9060   -2.8764 H   0  0  0  0  0  0  0  0  0  0  0  0
    1.0921    0.7330   -1.8520 H   0  0  0  0  0  0  0  0  0  0  0  0
   -5.4133   -1.6292    0.2279 H   0  0  0  0  0  0  0  0  0  0  0  0
   -5.1201    1.0310    0.7456 H   0  0  0  0  0  0  0  0  0  0  0  0
   -6.5695    0.3149    0.0921 H   0  0  0  0  0  0  0  0  0  0  0  0
   -4.2768    1.2990   -1.7196 H   0  0  0  0  0  0  0  0  0  0  0  0
   -5.8210    0.6280   -2.2199 H   0  0  0  0  0  0  0  0  0  0  0  0
   -4.2108    3.5993   -1.4468 H   0  0  0  0  0  0  0  0  0  0  0  0
   -5.6514    4.4279   -0.8242 H   0  0  0  0  0  0  0  0  0  0  0  0
   -4.8264    3.2366    0.1988 H   0  0  0  0  0  0  0  0  0  0  0  0
   -2.8984   -5.1400    0.7194 H   0  0  0  0  0  0  0  0  0  0  0  0
   -1.8029   -5.0961   -0.6820 H   0  0  0  0  0  0  0  0  0  0  0  0
   -1.2927   -5.8724    0.8336 H   0  0  0  0  0  0  0  0  0  0  0  0
  1  2  1  0
  2  3  2  0
  3  4  1  0
  4  5  2  3
  5  6  1  0
  6  7  2  0
  7  8  1  0
  8  9  2  0
  9 10  1  0
 10 11  1  0
 10 12  1  0
  9 13  1  0
 13 14  1  0
 13 15  2  0
  4 16  1  0
 16 17  2  0
 17 18  1  0
 18 19  1  0
 19 20  1  0
 20 21  1  0
 21 22  1  0
 17 23  1  0
 23 24  2  0
 24 25  1  0
 25 26  1  0
 25  1  1  0
 24  3  1  0
 15  6  1  0
  1 27  1  0
  2 28  1  0
  7 29  1  0
  8 30  1  0
 10 31  1  0
 11 32  1  0
 11 33  1  0
 11 34  1  0
 12 35  1  0
 12 36  1  0
 12 37  1  0
 14 38  1  0
 14 39  1  0
 14 40  1  0
 15 41  1  0
 18 42  1  0
 19 43  1  0
 19 44  1  0
 20 45  1  0
 20 46  1  0
 22 47  1  0
 22 48  1  0
 22 49  1  0
 26 50  1  0
 26 51  1  0
 26 52  1  0
M  END
>  <ScrubInfo>  (5) 
{"isomerGroup": 0, "isomerId": 4, "confId": 0, "nr_conformers:": 1, "nr_isomers:": 9}

$$$$
_i5
     RDKit          3D

 52 54  0  0  0  0  0  0  0  0999 V2000
   -2.9717   -1.0044   -0.6328 N   0  0  0  0  0  0  0  0  0  0  0  0
   -3.0409    0.3036   -0.2149 C   0  0  0  0  0  0  0  0  0  0  0  0
   -4.3336    0.7419   -0.1343 N   0  0  0  0  0  0  0  0  0  0  0  0
   -4.6320    2.0420    0.4657 C   0  0  0  0  0  0  0  0  0  0  0  0
   -6.1344    2.3169    0.3662 C   0  0  0  0  0  0  0  0  0  0  0  0
   -6.8485    1.2687    1.0384 O   0  0  0  0  0  0  0  0  0  0  0  0
   -8.2521    1.4958    1.0057 C   0  0  0  0  0  0  0  0  0  0  0  0
   -2.0152    1.0562    0.0595 N   0  0  0  0  0  0  0  0  0  0  0  0
   -0.7261    0.5490   -0.0461 C   0  0  0  0  0  0  0  0  0  0  0  0
    0.2289    1.3563    0.2924 N   0  0  0  0  0  0  0  0  0  0  0  0
    1.5720    0.9861    0.2437 C   0  0  0  0  0  0  0  0  0  0  0  0
    2.3370    1.2654   -0.8843 C   0  0  0  0  0  0  0  0  0  0  0  0
    3.6860    0.9089   -0.9258 C   0  0  0  0  0  0  0  0  0  0  0  0
    4.3102    0.2772    0.1680 C   0  0  0  0  0  0  0  0  0  0  0  0
    5.7852   -0.0985    0.0745 C   0  0  0  0  0  0  0  0  0  0  0  0
    6.0488   -1.0782   -1.0738 C   0  0  0  0  0  0  0  0  0  0  0  0
    6.6712    1.1442   -0.0537 C   0  0  0  0  0  0  0  0  0  0  0  0
    3.5430    0.0261    1.3277 C   0  0  0  0  0  0  0  0  0  0  0  0
    4.1249   -0.6222    2.5545 C   0  0  0  0  0  0  0  0  0  0  0  0
    2.1842    0.3932    1.3497 C   0  0  0  0  0  0  0  0  0  0  0  0
   -0.6040   -0.8190   -0.5241 C   0  0  0  0  0  0  0  0  0  0  0  0
    0.4238   -1.7278   -0.8370 C   0  0  0  0  0  0  0  0  0  0  0  0
   -0.0398   -2.9098   -1.2759 N   0  0  0  0  0  0  0  0  0  0  0  0
   -1.3828   -2.7592   -1.2425 N   0  0  0  0  0  0  0  0  0  0  0  0
   -2.2204   -3.8571   -1.6521 C   0  0  0  0  0  0  0  0  0  0  0  0
   -1.7459   -1.5289   -0.7975 C   0  0  0  0  0  0  0  0  0  0  0  0
   -3.8175   -1.4208   -0.9961 H   0  0  0  0  0  0  0  0  0  0  0  0
   -4.9911    0.0477    0.2111 H   0  0  0  0  0  0  0  0  0  0  0  0
   -4.3326    2.0233    1.5200 H   0  0  0  0  0  0  0  0  0  0  0  0
   -4.0804    2.8375   -0.0467 H   0  0  0  0  0  0  0  0  0  0  0  0
   -6.4452    2.3454   -0.6847 H   0  0  0  0  0  0  0  0  0  0  0  0
   -6.3647    3.2791    0.8369 H   0  0  0  0  0  0  0  0  0  0  0  0
   -8.5007    2.4306    1.5174 H   0  0  0  0  0  0  0  0  0  0  0  0
   -8.6114    1.5235   -0.0275 H   0  0  0  0  0  0  0  0  0  0  0  0
   -8.7462    0.6708    1.5257 H   0  0  0  0  0  0  0  0  0  0  0  0
    1.8797    1.7624   -1.7354 H   0  0  0  0  0  0  0  0  0  0  0  0
    4.2505    1.1369   -1.8274 H   0  0  0  0  0  0  0  0  0  0  0  0
    6.0965   -0.6110    0.9904 H   0  0  0  0  0  0  0  0  0  0  0  0
    7.0938   -1.4069   -1.0650 H   0  0  0  0  0  0  0  0  0  0  0  0
    5.8528   -0.6293   -2.0534 H   0  0  0  0  0  0  0  0  0  0  0  0
    5.4167   -1.9683   -0.9806 H   0  0  0  0  0  0  0  0  0  0  0  0
    6.4864    1.6869   -0.9870 H   0  0  0  0  0  0  0  0  0  0  0  0
    7.7302    0.8644   -0.0375 H   0  0  0  0  0  0  0  0  0  0  0  0
    6.4949    1.8370    0.7767 H   0  0  0  0  0  0  0  0  0  0  0  0
    3.3826   -0.7116    3.3550 H   0  0  0  0  0  0  0  0  0  0  0  0
    4.4752   -1.6324    2.3203 H   0  0  0  0  0  0  0  0  0  0  0  0
    4.9532   -0.0226    2.9454 H   0  0  0  0  0  0  0  0  0  0  0  0
    1.5834    0.2171    2.2395 H   0  0  0  0  0  0  0  0  0  0  0  0
    1.4959   -1.5980   -0.7766 H   0  0  0  0  0  0  0  0  0  0  0  0
   -1.9055   -4.7549   -1.1137 H   0  0  0  0  0  0  0  0  0  0  0  0
   -3.2640   -3.6376   -1.4176 H   0  0  0  0  0  0  0  0  0  0  0  0
   -2.1001   -3.9957   -2.7294 H   0  0  0  0  0  0  0  0  0  0  0  0
  1  2  1  0
  2  3  1  0
  3  4  1  0
  4  5  1  0
  5  6  1  0
  6  7  1  0
  2  8  2  0
  8  9  1  0
  9 10  2  3
 10 11  1  0
 11 12  2  0
 12 13  1  0
 13 14  2  0
 14 15  1  0
 15 16  1  0
 15 17  1  0
 14 18  1  0
 18 19  1  0
 18 20  2  0
  9 21  1  0
 21 22  1  0
 22 23  2  0
 23 24  1  0
 24 25  1  0
 24 26  1  0
 26  1  1  0
 20 11  1  0
 26 21  2  0
  1 27  1  0
  3 28  1  0
  4 29  1  0
  4 30  1  0
  5 31  1  0
  5 32  1  0
  7 33  1  0
  7 34  1  0
  7 35  1  0
 12 36  1  0
 13 37  1  0
 15 38  1  0
 16 39  1  0
 16 40  1  0
 16 41  1  0
 17 42  1  0
 17 43  1  0
 17 44  1  0
 19 45  1  0
 19 46  1  0
 19 47  1  0
 20 48  1  0
 22 49  1  0
 25 50  1  0
 25 51  1  0
 25 52  1  0
M  END
>  <ScrubInfo>  (6) 
{"isomerGroup": 0, "isomerId": 5, "confId": 0, "nr_conformers:": 1, "nr_isomers:": 9}

$$$$
_i6
     RDKit          3D

 52 54  0  0  0  0  0  0  0  0999 V2000
    0.3970   -4.1207   -0.2539 N   0  0  0  0  0  0  0  0  0  0  0  0
    0.0708   -2.9528    0.4276 C   0  0  0  0  0  0  0  0  0  0  0  0
    1.1052   -2.1097    0.5426 C   0  0  0  0  0  0  0  0  0  0  0  0
    1.4092   -0.8201    1.1563 C   0  0  0  0  0  0  0  0  0  0  0  0
    0.4817   -0.0530    1.8311 N   0  0  0  0  0  0  0  0  0  0  0  0
   -0.7916    0.2613    1.3011 C   0  0  0  0  0  0  0  0  0  0  0  0
   -1.8333    0.5388    2.1846 C   0  0  0  0  0  0  0  0  0  0  0  0
   -3.0921    0.9093    1.7067 C   0  0  0  0  0  0  0  0  0  0  0  0
   -3.3430    1.0401    0.3283 C   0  0  0  0  0  0  0  0  0  0  0  0
   -4.7335    1.4482   -0.1466 C   0  0  0  0  0  0  0  0  0  0  0  0
   -5.8078    0.4582    0.3161 C   0  0  0  0  0  0  0  0  0  0  0  0
   -5.0767    2.8729    0.2981 C   0  0  0  0  0  0  0  0  0  0  0  0
   -2.2794    0.8087   -0.5704 C   0  0  0  0  0  0  0  0  0  0  0  0
   -2.4382    0.9594   -2.0600 C   0  0  0  0  0  0  0  0  0  0  0  0
   -1.0171    0.4332   -0.0696 C   0  0  0  0  0  0  0  0  0  0  0  0
    2.6359   -0.3833    1.0975 N   0  0  0  0  0  0  0  0  0  0  0  0
    3.5773   -1.1121    0.4030 C   0  0  0  0  0  0  0  0  0  0  0  0
    4.7757   -0.6633    0.2845 N   0  0  0  0  0  0  0  0  0  0  0  0
    5.1216    0.6358    0.8669 C   0  0  0  0  0  0  0  0  0  0  0  0
    5.0522    1.7300   -0.2020 C   0  0  0  0  0  0  0  0  0  0  0  0
    3.6953    2.1273   -0.4268 O   0  0  0  0  0  0  0  0  0  0  0  0
    3.5970    3.0717   -1.4822 C   0  0  0  0  0  0  0  0  0  0  0  0
    3.3831   -2.3231   -0.2221 N   0  0  0  0  0  0  0  0  0  0  0  0
    2.1897   -2.8034   -0.1808 C   0  0  0  0  0  0  0  0  0  0  0  0
    1.6941   -3.9824   -0.7406 N   0  0  0  0  0  0  0  0  0  0  0  0
    2.5355   -5.1579   -0.8580 C   0  0  0  0  0  0  0  0  0  0  0  0
   -0.3106   -4.4024   -0.9361 H   0  0  0  0  0  0  0  0  0  0  0  0
   -0.9357   -2.8197    0.7986 H   0  0  0  0  0  0  0  0  0  0  0  0
    0.9281    0.8080    2.1456 H   0  0  0  0  0  0  0  0  0  0  0  0
   -1.6757    0.4528    3.2572 H   0  0  0  0  0  0  0  0  0  0  0  0
   -3.8807    1.1030    2.4311 H   0  0  0  0  0  0  0  0  0  0  0  0
   -4.7680    1.4436   -1.2408 H   0  0  0  0  0  0  0  0  0  0  0  0
   -6.7801    0.7182   -0.1168 H   0  0  0  0  0  0  0  0  0  0  0  0
   -5.9237    0.4522    1.4051 H   0  0  0  0  0  0  0  0  0  0  0  0
   -5.5619   -0.5614   -0.0008 H   0  0  0  0  0  0  0  0  0  0  0  0
   -6.0429    3.1825   -0.1148 H   0  0  0  0  0  0  0  0  0  0  0  0
   -4.3198    3.5842   -0.0509 H   0  0  0  0  0  0  0  0  0  0  0  0
   -5.1389    2.9594    1.3883 H   0  0  0  0  0  0  0  0  0  0  0  0
   -3.1758    0.2439   -2.4372 H   0  0  0  0  0  0  0  0  0  0  0  0
   -1.4982    0.7679   -2.5888 H   0  0  0  0  0  0  0  0  0  0  0  0
   -2.7482    1.9794   -2.3085 H   0  0  0  0  0  0  0  0  0  0  0  0
   -0.1945    0.2906   -0.7687 H   0  0  0  0  0  0  0  0  0  0  0  0
    4.5154    0.8988    1.7407 H   0  0  0  0  0  0  0  0  0  0  0  0
    6.1561    0.5596    1.2208 H   0  0  0  0  0  0  0  0  0  0  0  0
    5.6116    2.6058    0.1465 H   0  0  0  0  0  0  0  0  0  0  0  0
    5.4971    1.3766   -1.1399 H   0  0  0  0  0  0  0  0  0  0  0  0
    4.1724    3.9722   -1.2469 H   0  0  0  0  0  0  0  0  0  0  0  0
    2.5459    3.3494   -1.5988 H   0  0  0  0  0  0  0  0  0  0  0  0
    3.9479    2.6346   -2.4220 H   0  0  0  0  0  0  0  0  0  0  0  0
    2.8147   -5.5371    0.1306 H   0  0  0  0  0  0  0  0  0  0  0  0
    2.0082   -5.9506   -1.3985 H   0  0  0  0  0  0  0  0  0  0  0  0
    3.4486   -4.9245   -1.4150 H   0  0  0  0  0  0  0  0  0  0  0  0
  1  2  1  0
  2  3  2  0
  3  4  1  0
  4  5  1  0
  5  6  1  0
  6  7  2  0
  7  8  1  0
  8  9  2  0
  9 10  1  0
 10 11  1  0
 10 12  1  0
  9 13  1  0
 13 14  1  0
 13 15  2  0
  4 16  2  0
 16 17  1  0
 17 18  2  3
 18 19  1  0
 19 20  1  0
 20 21  1  0
 21 22  1  0
 17 23  1  0
 23 24  2  0
 24 25  1  0
 25 26  1  0
 25  1  1  0
 24  3  1  0
 15  6  1  0
  1 27  1  0
  2 28  1  0
  5 29  1  0
  7 30  1  0
  8 31  1  0
 10 32  1  0
 11 33  1  0
 11 34  1  0
 11 35  1  0
 12 36  1  0
 12 37  1  0
 12 38  1  0
 14 39  1  0
 14 40  1  0
 14 41  1  0
 15 42  1  0
 19 43  1  0
 19 44  1  0
 20 45  1  0
 20 46  1  0
 22 47  1  0
 22 48  1  0
 22 49  1  0
 26 50  1  0
 26 51  1  0
 26 52  1  0
M  END
>  <ScrubInfo>  (7) 
{"isomerGroup": 0, "isomerId": 6, "confId": 0, "nr_conformers:": 1, "nr_isomers:": 9}

$$$$
_i7
     RDKit          3D

 52 54  0  0  0  0  0  0  0  0999 V2000
    0.1003   -3.4059    0.0100 N   0  0  0  0  0  0  0  0  0  0  0  0
    0.4369   -2.0636    0.1442 C   0  0  0  0  0  0  0  0  0  0  0  0
   -0.6078   -1.2337    0.0122 C   0  0  0  0  0  0  0  0  0  0  0  0
   -0.9296    0.2038    0.0744 C   0  0  0  0  0  0  0  0  0  0  0  0
   -0.1387    1.2192    0.2630 N   0  0  0  0  0  0  0  0  0  0  0  0
    1.2350    1.0289    0.4354 C   0  0  0  0  0  0  0  0  0  0  0  0
    1.7734    0.8991    1.7088 C   0  0  0  0  0  0  0  0  0  0  0  0
    3.1469    0.7119    1.8718 C   0  0  0  0  0  0  0  0  0  0  0  0
    4.0278    0.6630    0.7682 C   0  0  0  0  0  0  0  0  0  0  0  0
    5.5044    0.4508    1.0916 C   0  0  0  0  0  0  0  0  0  0  0  0
    6.2891    1.7637    1.0437 C   0  0  0  0  0  0  0  0  0  0  0  0
    6.1928   -0.6500    0.2820 C   0  0  0  0  0  0  0  0  0  0  0  0
    3.4864    0.8469   -0.5231 C   0  0  0  0  0  0  0  0  0  0  0  0
    4.3002    0.8330   -1.7873 C   0  0  0  0  0  0  0  0  0  0  0  0
    2.0929    1.0211   -0.6654 C   0  0  0  0  0  0  0  0  0  0  0  0
   -2.2671    0.4513   -0.0931 N   0  0  0  0  0  0  0  0  0  0  0  0
   -3.2619   -0.4686   -0.3111 C   0  0  0  0  0  0  0  0  0  0  0  0
   -4.5180   -0.2222   -0.4377 N   0  0  0  0  0  0  0  0  0  0  0  0
   -4.9810    1.1574   -0.3448 C   0  0  0  0  0  0  0  0  0  0  0  0
   -6.4977    1.1929   -0.5198 C   0  0  0  0  0  0  0  0  0  0  0  0
   -6.9415    2.5491   -0.4259 O   0  0  0  0  0  0  0  0  0  0  0  0
   -8.3512    2.6432   -0.5831 C   0  0  0  0  0  0  0  0  0  0  0  0
   -2.9701   -1.8119   -0.4229 N   0  0  0  0  0  0  0  0  0  0  0  0
   -1.7356   -2.1811   -0.2889 C   0  0  0  0  0  0  0  0  0  0  0  0
   -1.2286   -3.4796   -0.3816 N   0  0  0  0  0  0  0  0  0  0  0  0
   -2.0257   -4.6211    0.0250 C   0  0  0  0  0  0  0  0  0  0  0  0
    0.7667   -3.9360   -0.5559 H   0  0  0  0  0  0  0  0  0  0  0  0
    1.4700   -1.8138    0.3366 H   0  0  0  0  0  0  0  0  0  0  0  0
    1.1237    0.9401    2.5783 H   0  0  0  0  0  0  0  0  0  0  0  0
    3.5308    0.6079    2.8857 H   0  0  0  0  0  0  0  0  0  0  0  0
    5.5591    0.1018    2.1329 H   0  0  0  0  0  0  0  0  0  0  0  0
    6.3293    2.1887    0.0371 H   0  0  0  0  0  0  0  0  0  0  0  0
    7.3204    1.6077    1.3788 H   0  0  0  0  0  0  0  0  0  0  0  0
    5.8358    2.5147    1.7004 H   0  0  0  0  0  0  0  0  0  0  0  0
    6.4331   -0.3368   -0.7368 H   0  0  0  0  0  0  0  0  0  0  0  0
    5.5730   -1.5515    0.2302 H   0  0  0  0  0  0  0  0  0  0  0  0
    7.1425   -0.9253    0.7551 H   0  0  0  0  0  0  0  0  0  0  0  0
    4.5353   -0.1967   -2.0721 H   0  0  0  0  0  0  0  0  0  0  0  0
    5.2196    1.4117   -1.6823 H   0  0  0  0  0  0  0  0  0  0  0  0
    3.7498    1.2886   -2.6185 H   0  0  0  0  0  0  0  0  0  0  0  0
    1.6597    1.1582   -1.6544 H   0  0  0  0  0  0  0  0  0  0  0  0
   -2.5223    1.4241   -0.0388 H   0  0  0  0  0  0  0  0  0  0  0  0
   -4.5192    1.7815   -1.1199 H   0  0  0  0  0  0  0  0  0  0  0  0
   -4.7250    1.5951    0.6281 H   0  0  0  0  0  0  0  0  0  0  0  0
   -6.7733    0.7816   -1.4983 H   0  0  0  0  0  0  0  0  0  0  0  0
   -6.9807    0.5921    0.2601 H   0  0  0  0  0  0  0  0  0  0  0  0
   -8.6527    2.2734   -1.5678 H   0  0  0  0  0  0  0  0  0  0  0  0
   -8.6368    3.6955   -0.5030 H   0  0  0  0  0  0  0  0  0  0  0  0
   -8.8631    2.0815    0.2042 H   0  0  0  0  0  0  0  0  0  0  0  0
   -2.2295   -4.5900    1.1004 H   0  0  0  0  0  0  0  0  0  0  0  0
   -1.4988   -5.5536   -0.2021 H   0  0  0  0  0  0  0  0  0  0  0  0
   -2.9791   -4.6378   -0.5127 H   0  0  0  0  0  0  0  0  0  0  0  0
  1  2  1  0
  2  3  2  0
  3  4  1  0
  4  5  2  3
  5  6  1  0
  6  7  2  0
  7  8  1  0
  8  9  2  0
  9 10  1  0
 10 11  1  0
 10 12  1  0
  9 13  1  0
 13 14  1  0
 13 15  2  0
  4 16  1  0
 16 17  1  0
 17 18  2  3
 18 19  1  0
 19 20  1  0
 20 21  1  0
 21 22  1  0
 17 23  1  0
 23 24  2  0
 24 25  1  0
 25 26  1  0
 25  1  1  0
 24  3  1  0
 15  6  1  0
  1 27  1  0
  2 28  1  0
  7 29  1  0
  8 30  1  0
 10 31  1  0
 11 32  1  0
 11 33  1  0
 11 34  1  0
 12 35  1  0
 12 36  1  0
 12 37  1  0
 14 38  1  0
 14 39  1  0
 14 40  1  0
 15 41  1  0
 16 42  1  0
 19 43  1  0
 19 44  1  0
 20 45  1  0
 20 46  1  0
 22 47  1  0
 22 48  1  0
 22 49  1  0
 26 50  1  0
 26 51  1  0
 26 52  1  0
M  END
>  <ScrubInfo>  (8) 
{"isomerGroup": 0, "isomerId": 7, "confId": 0, "nr_conformers:": 1, "nr_isomers:": 9}

$$$$
_i8
     RDKit          3D

 52 54  0  0  0  0  0  0  0  0999 V2000
   -3.1211   -1.9197    0.3670 N   0  0  0  0  0  0  0  0  0  0  0  0
   -3.5095   -0.5953    0.3713 C   0  0  0  0  0  0  0  0  0  0  0  0
   -4.7673   -0.3368    0.5009 N   0  0  0  0  0  0  0  0  0  0  0  0
   -5.2122    1.0558    0.5283 C   0  0  0  0  0  0  0  0  0  0  0  0
   -5.4711    1.5744   -0.8881 C   0  0  0  0  0  0  0  0  0  0  0  0
   -5.6618    2.9903   -0.9049 O   0  0  0  0  0  0  0  0  0  0  0  0
   -6.9638    3.3797   -0.4877 C   0  0  0  0  0  0  0  0  0  0  0  0
   -2.4528    0.2832    0.2230 N   0  0  0  0  0  0  0  0  0  0  0  0
   -1.0965    0.0580    0.0808 C   0  0  0  0  0  0  0  0  0  0  0  0
   -0.2720    1.0543   -0.0460 N   0  0  0  0  0  0  0  0  0  0  0  0
    1.1029    0.8659   -0.1928 C   0  0  0  0  0  0  0  0  0  0  0  0
    1.6701    0.7744   -1.4572 C   0  0  0  0  0  0  0  0  0  0  0  0
    3.0479    0.5987   -1.5947 C   0  0  0  0  0  0  0  0  0  0  0  0
    3.9044    0.5242   -0.4735 C   0  0  0  0  0  0  0  0  0  0  0  0
    5.3881    0.3221   -0.7692 C   0  0  0  0  0  0  0  0  0  0  0  0
    6.1703    1.6333   -0.6656 C   0  0  0  0  0  0  0  0  0  0  0  0
    6.0588   -0.8016    0.0236 C   0  0  0  0  0  0  0  0  0  0  0  0
    3.3338    0.6716    0.8098 C   0  0  0  0  0  0  0  0  0  0  0  0
    4.1188    0.6221    2.0912 C   0  0  0  0  0  0  0  0  0  0  0  0
    1.9367    0.8357    0.9259 C   0  0  0  0  0  0  0  0  0  0  0  0
   -0.7936   -1.3631    0.0968 C   0  0  0  0  0  0  0  0  0  0  0  0
    0.3485   -2.1812    0.0070 C   0  0  0  0  0  0  0  0  0  0  0  0
    0.0605   -3.4896    0.0852 N   0  0  0  0  0  0  0  0  0  0  0  0
   -1.2836   -3.5160    0.2188 N   0  0  0  0  0  0  0  0  0  0  0  0
   -1.9540   -4.7861    0.3377 C   0  0  0  0  0  0  0  0  0  0  0  0
   -1.8238   -2.2675    0.2362 C   0  0  0  0  0  0  0  0  0  0  0  0
   -3.8831   -2.5777    0.4804 H   0  0  0  0  0  0  0  0  0  0  0  0
   -6.1414    1.0998    1.1078 H   0  0  0  0  0  0  0  0  0  0  0  0
   -4.5175    1.7102    1.0681 H   0  0  0  0  0  0  0  0  0  0  0  0
   -6.3212    1.0613   -1.3536 H   0  0  0  0  0  0  0  0  0  0  0  0
   -4.5988    1.3734   -1.5194 H   0  0  0  0  0  0  0  0  0  0  0  0
   -7.0436    4.4656   -0.5883 H   0  0  0  0  0  0  0  0  0  0  0  0
   -7.7265    2.9161   -1.1206 H   0  0  0  0  0  0  0  0  0  0  0  0
   -7.1324    3.1195    0.5607 H   0  0  0  0  0  0  0  0  0  0  0  0
   -2.6729    1.2671    0.1993 H   0  0  0  0  0  0  0  0  0  0  0  0
    1.0400    0.8343   -2.3399 H   0  0  0  0  0  0  0  0  0  0  0  0
    3.4544    0.5204   -2.6020 H   0  0  0  0  0  0  0  0  0  0  0  0
    5.4670    0.0035   -1.8188 H   0  0  0  0  0  0  0  0  0  0  0  0
    7.2089    1.4873   -0.9818 H   0  0  0  0  0  0  0  0  0  0  0  0
    6.1874    2.0291    0.3534 H   0  0  0  0  0  0  0  0  0  0  0  0
    5.7311    2.4028   -1.3105 H   0  0  0  0  0  0  0  0  0  0  0  0
    7.0195   -1.0625   -0.4353 H   0  0  0  0  0  0  0  0  0  0  0  0
    6.2753   -0.5182    1.0564 H   0  0  0  0  0  0  0  0  0  0  0  0
    5.4390   -1.7045    0.0347 H   0  0  0  0  0  0  0  0  0  0  0  0
    3.5501    1.0557    2.9218 H   0  0  0  0  0  0  0  0  0  0  0  0
    4.3469   -0.4154    2.3529 H   0  0  0  0  0  0  0  0  0  0  0  0
    5.0409    1.2021    2.0230 H   0  0  0  0  0  0  0  0  0  0  0  0
    1.4816    0.9416    1.9089 H   0  0  0  0  0  0  0  0  0  0  0  0
    1.3863   -1.9000   -0.1099 H   0  0  0  0  0  0  0  0  0  0  0  0
   -1.9057   -5.0993    1.3834 H   0  0  0  0  0  0  0  0  0  0  0  0
   -2.9935   -4.6839    0.0187 H   0  0  0  0  0  0  0  0  0  0  0  0
   -1.4494   -5.5150   -0.3021 H   0  0  0  0  0  0  0  0  0  0  0  0
  1  2  1  0
  2  3  2  3
  3  4  1  0
  4  5  1  0
  5  6  1  0
  6  7  1  0
  2  8  1  0
  8  9  1  0
  9 10  2  3
 10 11  1  0
 11 12  2  0
 12 13  1  0
 13 14  2  0
 14 15  1  0
 15 16  1  0
 15 17  1  0
 14 18  1  0
 18 19  1  0
 18 20  2  0
  9 21  1  0
 21 22  1  0
 22 23  2  0
 23 24  1  0
 24 25  1  0
 24 26  1  0
 26  1  1  0
 20 11  1  0
 26 21  2  0
  1 27  1  0
  4 28  1  0
  4 29  1  0
  5 30  1  0
  5 31  1  0
  7 32  1  0
  7 33  1  0
  7 34  1  0
  8 35  1  0
 12 36  1  0
 13 37  1  0
 15 38  1  0
 16 39  1  0
 16 40  1  0
 16 41  1  0
 17 42  1  0
 17 43  1  0
 17 44  1  0
 19 45  1  0
 19 46  1  0
 19 47  1  0
 20 48  1  0
 22 49  1  0
 25 50  1  0
 25 51  1  0
 25 52  1  0
M  END
>  <ScrubInfo>  (9) 
{"isomerGroup": 0, "isomerId": 8, "confId": 0, "nr_conformers:": 1, "nr_isomers:": 9}

$$$$
