_i0
     RDKit          3D

 45 47  0  0  0  0  0  0  0  0999 V2000
    5.9801    0.3424    0.0769 C   0  0  0  0  0  0  0  0  0  0  0  0
    4.9902   -0.7213   -0.3965 C   0  0  0  0  0  0  0  0  0  0  0  0
    4.5674   -0.4552   -1.8417 C   0  0  0  0  0  0  0  0  0  0  0  0
    3.7804   -0.8634    0.5463 C   0  0  0  0  0  0  0  0  0  0  0  0
    2.9365    0.4043    0.7214 C   0  0  0  0  0  0  0  0  0  0  0  0
    1.7940    0.1386    1.5820 N   0  0  0  0  0  0  0  0  0  0  0  0
    0.6103   -0.2015    0.9381 C   0  0  0  0  0  0  0  0  0  0  0  0
   -0.5048    0.2244    1.5620 N   0  0  0  0  0  0  0  0  0  0  0  0
   -1.7263   -0.0340    1.0304 C   0  0  0  0  0  0  0  0  0  0  0  0
   -2.8378    0.4278    1.7498 N   0  0  0  0  0  0  0  0  0  0  0  0
   -3.9895    1.0907    1.2822 C   0  0  0  0  0  0  0  0  0  0  0  0
   -5.0912    1.1908    2.1475 C   0  0  0  0  0  0  0  0  0  0  0  0
   -6.2655    1.8322    1.7465 C   0  0  0  0  0  0  0  0  0  0  0  0
   -6.3442    2.3846    0.4743 C   0  0  0  0  0  0  0  0  0  0  0  0
   -7.4785    2.9978    0.1062 F   0  0  0  0  0  0  0  0  0  0  0  0
   -5.2613    2.3038   -0.3960 C   0  0  0  0  0  0  0  0  0  0  0  0
   -5.3479    2.9976   -1.9698 Cl  0  0  0  0  0  0  0  0  0  0  0  0
   -4.0868    1.6606    0.0059 C   0  0  0  0  0  0  0  0  0  0  0  0
   -1.7802   -0.7876   -0.1436 C   0  0  0  0  0  0  0  0  0  0  0  0
   -2.7473   -1.3515   -1.0009 C   0  0  0  0  0  0  0  0  0  0  0  0
   -2.2073   -2.0088   -2.0341 N   0  0  0  0  0  0  0  0  0  0  0  0
   -0.8772   -1.8838   -1.8179 N   0  0  0  0  0  0  0  0  0  0  0  0
    0.0520   -2.4962   -2.7335 C   0  0  0  0  0  0  0  0  0  0  0  0
   -0.5725   -1.1671   -0.6934 C   0  0  0  0  0  0  0  0  0  0  0  0
    0.6462   -0.8914   -0.2092 N   0  0  0  0  0  0  0  0  0  0  0  0
    5.5593    1.3504    0.0059 H   0  0  0  0  0  0  0  0  0  0  0  0
    6.8883    0.3201   -0.5352 H   0  0  0  0  0  0  0  0  0  0  0  0
    6.2746    0.1656    1.1166 H   0  0  0  0  0  0  0  0  0  0  0  0
    5.5157   -1.6856   -0.3842 H   0  0  0  0  0  0  0  0  0  0  0  0
    5.4351   -0.5008   -2.5089 H   0  0  0  0  0  0  0  0  0  0  0  0
    3.8462   -1.2058   -2.1818 H   0  0  0  0  0  0  0  0  0  0  0  0
    4.1132    0.5335   -1.9591 H   0  0  0  0  0  0  0  0  0  0  0  0
    3.1530   -1.6859    0.1808 H   0  0  0  0  0  0  0  0  0  0  0  0
    4.1392   -1.1846    1.5335 H   0  0  0  0  0  0  0  0  0  0  0  0
    2.6274    0.8322   -0.2391 H   0  0  0  0  0  0  0  0  0  0  0  0
    3.5462    1.1693    1.2155 H   0  0  0  0  0  0  0  0  0  0  0  0
    1.5531    0.8863    2.2237 H   0  0  0  0  0  0  0  0  0  0  0  0
   -2.4908    0.8395    2.6139 H   0  0  0  0  0  0  0  0  0  0  0  0
   -5.0427    0.7517    3.1424 H   0  0  0  0  0  0  0  0  0  0  0  0
   -7.1169    1.9010    2.4166 H   0  0  0  0  0  0  0  0  0  0  0  0
   -3.2448    1.6333   -0.6802 H   0  0  0  0  0  0  0  0  0  0  0  0
   -3.8256   -1.3100   -0.9154 H   0  0  0  0  0  0  0  0  0  0  0  0
   -0.1443   -2.1063   -3.7356 H   0  0  0  0  0  0  0  0  0  0  0  0
    1.0776   -2.2602   -2.4406 H   0  0  0  0  0  0  0  0  0  0  0  0
   -0.1027   -3.5778   -2.7070 H   0  0  0  0  0  0  0  0  0  0  0  0
  1  2  1  0
  2  3  1  0
  2  4  1  0
  4  5  1  0
  5  6  1  0
  6  7  1  0
  7  8  2  0
  8  9  1  0
  9 10  1  0
 10 11  1  0
 11 12  2  0
 12 13  1  0
 13 14  2  0
 14 15  1  0
 14 16  1  0
 16 17  1  0
 16 18  2  0
  9 19  2  0
 19 20  1  0
 20 21  2  0
 21 22  1  0
 22 23  1  0
 22 24  1  0
 24 25  2  0
 25  7  1  0
 18 11  1  0
 24 19  1  0
  1 26  1  0
  1 27  1  0
  1 28  1  0
  2 29  1  0
  3 30  1  0
  3 31  1  0
  3 32  1  0
  4 33  1  0
  4 34  1  0
  5 35  1  0
  5 36  1  0
  6 37  1  0
 10 38  1  0
 12 39  1  0
 13 40  1  0
 18 41  1  0
 20 42  1  0
 23 43  1  0
 23 44  1  0
 23 45  1  0
M  END
>  <ScrubInfo>  (1) 
{"isomerGroup": 0, "isomerId": 0, "confId": 0, "nr_conformers:": 1, "nr_isomers:": 9}

$$$$
_i1
     RDKit          3D

 45 47  0  0  0  0  0  0  0  0999 V2000
    0.5669   -0.2135   -0.4303 N   0  0  0  0  0  0  0  0  0  0  0  0
    1.5417    0.5361   -1.0681 C   0  0  0  0  0  0  0  0  0  0  0  0
    2.5231    1.2227   -0.3740 N   0  0  0  0  0  0  0  0  0  0  0  0
    3.1303    0.8955    0.8550 C   0  0  0  0  0  0  0  0  0  0  0  0
    3.7861    1.9170    1.5636 C   0  0  0  0  0  0  0  0  0  0  0  0
    4.3651    1.6734    2.8119 C   0  0  0  0  0  0  0  0  0  0  0  0
    4.2865    0.4033    3.3685 C   0  0  0  0  0  0  0  0  0  0  0  0
    4.8447    0.1886    4.5684 F   0  0  0  0  0  0  0  0  0  0  0  0
    3.6371   -0.6219    2.6889 C   0  0  0  0  0  0  0  0  0  0  0  0
    3.5348   -2.1995    3.3711 Cl  0  0  0  0  0  0  0  0  0  0  0  0
    3.0585   -0.3769    1.4396 C   0  0  0  0  0  0  0  0  0  0  0  0
    1.4237    0.6019   -2.3998 C   0  0  0  0  0  0  0  0  0  0  0  0
    2.1089    1.2436   -3.5276 C   0  0  0  0  0  0  0  0  0  0  0  0
    1.5598    0.9762   -4.6845 N   0  0  0  0  0  0  0  0  0  0  0  0
    0.5032    0.0964   -4.3985 N   0  0  0  0  0  0  0  0  0  0  0  0
   -0.4939   -0.1568   -5.4108 C   0  0  0  0  0  0  0  0  0  0  0  0
    0.3166   -0.1350   -3.0450 C   0  0  0  0  0  0  0  0  0  0  0  0
   -0.5937   -0.8073   -2.4309 N   0  0  0  0  0  0  0  0  0  0  0  0
   -0.4920   -0.8313   -1.0575 C   0  0  0  0  0  0  0  0  0  0  0  0
   -1.4599   -1.4549   -0.4901 N   0  0  0  0  0  0  0  0  0  0  0  0
   -1.5115   -1.6115    0.9567 C   0  0  0  0  0  0  0  0  0  0  0  0
   -2.2123   -0.4199    1.6127 C   0  0  0  0  0  0  0  0  0  0  0  0
   -3.6537   -0.1639    1.1292 C   0  0  0  0  0  0  0  0  0  0  0  0
   -4.2062    1.0972    1.7991 C   0  0  0  0  0  0  0  0  0  0  0  0
   -4.5828   -1.3457    1.4087 C   0  0  0  0  0  0  0  0  0  0  0  0
    0.5216   -0.0947    0.5688 H   0  0  0  0  0  0  0  0  0  0  0  0
    3.0599    1.8930   -0.9168 H   0  0  0  0  0  0  0  0  0  0  0  0
    3.8392    2.9233    1.1521 H   0  0  0  0  0  0  0  0  0  0  0  0
    4.8692    2.4671    3.3551 H   0  0  0  0  0  0  0  0  0  0  0  0
    2.5862   -1.2032    0.9146 H   0  0  0  0  0  0  0  0  0  0  0  0
    2.9810    1.8905   -3.3697 H   0  0  0  0  0  0  0  0  0  0  0  0
   -0.0382   -0.1800   -6.4060 H   0  0  0  0  0  0  0  0  0  0  0  0
   -0.9822   -1.1224   -5.2452 H   0  0  0  0  0  0  0  0  0  0  0  0
   -1.2574    0.6273   -5.3977 H   0  0  0  0  0  0  0  0  0  0  0  0
   -0.5135   -1.7464    1.3906 H   0  0  0  0  0  0  0  0  0  0  0  0
   -2.0467   -2.5392    1.1856 H   0  0  0  0  0  0  0  0  0  0  0  0
   -2.2158   -0.5778    2.6989 H   0  0  0  0  0  0  0  0  0  0  0  0
   -1.6170    0.4845    1.4345 H   0  0  0  0  0  0  0  0  0  0  0  0
   -3.6428    0.0154    0.0470 H   0  0  0  0  0  0  0  0  0  0  0  0
   -5.2162    1.3192    1.4382 H   0  0  0  0  0  0  0  0  0  0  0  0
   -4.2529    0.9818    2.8874 H   0  0  0  0  0  0  0  0  0  0  0  0
   -3.5756    1.9644    1.5762 H   0  0  0  0  0  0  0  0  0  0  0  0
   -5.6126   -1.1062    1.1222 H   0  0  0  0  0  0  0  0  0  0  0  0
   -4.2863   -2.2297    0.8362 H   0  0  0  0  0  0  0  0  0  0  0  0
   -4.5810   -1.6096    2.4716 H   0  0  0  0  0  0  0  0  0  0  0  0
  1  2  1  0
  2  3  1  0
  3  4  1  0
  4  5  2  0
  5  6  1  0
  6  7  2  0
  7  8  1  0
  7  9  1  0
  9 10  1  0
  9 11  2  0
  2 12  2  0
 12 13  1  0
 13 14  2  0
 14 15  1  0
 15 16  1  0
 15 17  1  0
 17 18  2  0
 18 19  1  0
 19 20  2  3
 20 21  1  0
 21 22  1  0
 22 23  1  0
 23 24  1  0
 23 25  1  0
 19  1  1  0
 11  4  1  0
 17 12  1  0
  1 26  1  0
  3 27  1  0
  5 28  1  0
  6 29  1  0
 11 30  1  0
 13 31  1  0
 16 32  1  0
 16 33  1  0
 16 34  1  0
 21 35  1  0
 21 36  1  0
 22 37  1  0
 22 38  1  0
 23 39  1  0
 24 40  1  0
 24 41  1  0
 24 42  1  0
 25 43  1  0
 25 44  1  0
 25 45  1  0
M  END
>  <ScrubInfo>  (2) 
{"isomerGroup": 0, "isomerId": 1, "confId": 0, "nr_conformers:": 1, "nr_isomers:": 9}

$$$$
_i2
     RDKit          3D

 45 47  0  0  0  0  0  0  0  0999 V2000
   -0.1942   -0.1359   -0.1996 N   0  0  0  0  0  0  0  0  0  0  0  0
   -0.8594    1.0518   -0.0344 C   0  0  0  0  0  0  0  0  0  0  0  0
   -2.2236    0.9869   -0.0523 N   0  0  0  0  0  0  0  0  0  0  0  0
   -2.9578    0.3228   -1.1193 C   0  0  0  0  0  0  0  0  0  0  0  0
   -4.4618    0.3207   -0.8301 C   0  0  0  0  0  0  0  0  0  0  0  0
   -4.9653   -0.6639    0.2467 C   0  0  0  0  0  0  0  0  0  0  0  0
   -4.4544   -0.3414    1.6500 C   0  0  0  0  0  0  0  0  0  0  0  0
   -4.6654   -2.1211   -0.1065 C   0  0  0  0  0  0  0  0  0  0  0  0
   -0.2678    2.2035    0.1564 N   0  0  0  0  0  0  0  0  0  0  0  0
    1.0896    2.0754    0.1454 C   0  0  0  0  0  0  0  0  0  0  0  0
    1.8480    0.9241   -0.0114 C   0  0  0  0  0  0  0  0  0  0  0  0
    3.1780    1.3750    0.0488 C   0  0  0  0  0  0  0  0  0  0  0  0
    3.2704    2.6985    0.2271 N   0  0  0  0  0  0  0  0  0  0  0  0
    1.9810    3.1010    0.2915 N   0  0  0  0  0  0  0  0  0  0  0  0
    1.6864    4.4978    0.4899 C   0  0  0  0  0  0  0  0  0  0  0  0
    1.1651   -0.3440   -0.1804 C   0  0  0  0  0  0  0  0  0  0  0  0
    1.6733   -1.5339   -0.2913 N   0  0  0  0  0  0  0  0  0  0  0  0
    3.0479   -1.7665   -0.2588 C   0  0  0  0  0  0  0  0  0  0  0  0
    3.7805   -1.8076   -1.4508 C   0  0  0  0  0  0  0  0  0  0  0  0
    5.1475   -2.0889   -1.4297 C   0  0  0  0  0  0  0  0  0  0  0  0
    5.7758   -2.3468   -0.2152 C   0  0  0  0  0  0  0  0  0  0  0  0
    7.0892   -2.6177   -0.2151 F   0  0  0  0  0  0  0  0  0  0  0  0
    5.0510   -2.3304    0.9750 C   0  0  0  0  0  0  0  0  0  0  0  0
    5.8234   -2.6615    2.4775 Cl  0  0  0  0  0  0  0  0  0  0  0  0
    3.6852   -2.0471    0.9540 C   0  0  0  0  0  0  0  0  0  0  0  0
   -0.7433   -0.9790   -0.1761 H   0  0  0  0  0  0  0  0  0  0  0  0
   -2.5878    1.9239    0.1138 H   0  0  0  0  0  0  0  0  0  0  0  0
   -2.7824    0.8748   -2.0506 H   0  0  0  0  0  0  0  0  0  0  0  0
   -2.5970   -0.6968   -1.2813 H   0  0  0  0  0  0  0  0  0  0  0  0
   -4.7853    1.3350   -0.5622 H   0  0  0  0  0  0  0  0  0  0  0  0
   -4.9779    0.0767   -1.7683 H   0  0  0  0  0  0  0  0  0  0  0  0
   -6.0584   -0.5575    0.2730 H   0  0  0  0  0  0  0  0  0  0  0  0
   -4.9878   -0.9411    2.3958 H   0  0  0  0  0  0  0  0  0  0  0  0
   -3.3884   -0.5634    1.7585 H   0  0  0  0  0  0  0  0  0  0  0  0
   -4.6177    0.7132    1.8946 H   0  0  0  0  0  0  0  0  0  0  0  0
   -5.1733   -2.7962    0.5910 H   0  0  0  0  0  0  0  0  0  0  0  0
   -5.0175   -2.3592   -1.1155 H   0  0  0  0  0  0  0  0  0  0  0  0
   -3.5943   -2.3410   -0.0553 H   0  0  0  0  0  0  0  0  0  0  0  0
    4.0988    0.8152   -0.0292 H   0  0  0  0  0  0  0  0  0  0  0  0
    0.6095    4.6443    0.5971 H   0  0  0  0  0  0  0  0  0  0  0  0
    2.1949    4.8319    1.3979 H   0  0  0  0  0  0  0  0  0  0  0  0
    2.0525    5.0514   -0.3784 H   0  0  0  0  0  0  0  0  0  0  0  0
    3.2801   -1.6215   -2.3981 H   0  0  0  0  0  0  0  0  0  0  0  0
    5.7230   -2.1156   -2.3498 H   0  0  0  0  0  0  0  0  0  0  0  0
    3.1095   -2.0459    1.8755 H   0  0  0  0  0  0  0  0  0  0  0  0
  1  2  1  0
  2  3  1  0
  3  4  1  0
  4  5  1  0
  5  6  1  0
  6  7  1  0
  6  8  1  0
  2  9  2  0
  9 10  1  0
 10 11  2  0
 11 12  1  0
 12 13  2  0
 13 14  1  0
 14 15  1  0
 11 16  1  0
 16 17  2  3
 17 18  1  0
 18 19  2  0
 19 20  1  0
 20 21  2  0
 21 22  1  0
 21 23  1  0
 23 24  1  0
 23 25  2  0
 16  1  1  0
 25 18  1  0
 14 10  1  0
  1 26  1  0
  3 27  1  0
  4 28  1  0
  4 29  1  0
  5 30  1  0
  5 31  1  0
  6 32  1  0
  7 33  1  0
  7 34  1  0
  7 35  1  0
  8 36  1  0
  8 37  1  0
  8 38  1  0
 12 39  1  0
 15 40  1  0
 15 41  1  0
 15 42  1  0
 19 43  1  0
 20 44  1  0
 25 45  1  0
M  END
>  <ScrubInfo>  (3) 
{"isomerGroup": 0, "isomerId": 2, "confId": 0, "nr_conformers:": 1, "nr_isomers:": 9}

$$$$
_i3
     RDKit          3D

 45 47  0  0  0  0  0  0  0  0999 V2000
    0.2203   -1.6450   -0.7324 N   0  0  0  0  0  0  0  0  0  0  0  0
    0.6721   -0.3418   -0.8747 C   0  0  0  0  0  0  0  0  0  0  0  0
    1.8994    0.0410   -0.8768 N   0  0  0  0  0  0  0  0  0  0  0  0
    2.9593   -0.9421   -0.7106 C   0  0  0  0  0  0  0  0  0  0  0  0
    4.3137   -0.2285   -0.7110 C   0  0  0  0  0  0  0  0  0  0  0  0
    4.5113    0.7938    0.4264 C   0  0  0  0  0  0  0  0  0  0  0  0
    4.4209    0.1529    1.8118 C   0  0  0  0  0  0  0  0  0  0  0  0
    5.8664    1.4885    0.2659 C   0  0  0  0  0  0  0  0  0  0  0  0
   -0.2169    0.7125   -1.0340 N   0  0  0  0  0  0  0  0  0  0  0  0
   -1.4981    0.4827   -1.0357 C   0  0  0  0  0  0  0  0  0  0  0  0
   -2.4312    1.4750   -1.2013 N   0  0  0  0  0  0  0  0  0  0  0  0
   -3.4053    1.8202   -0.2267 C   0  0  0  0  0  0  0  0  0  0  0  0
   -4.4450    2.6819   -0.6130 C   0  0  0  0  0  0  0  0  0  0  0  0
   -5.4248    3.0760    0.3008 C   0  0  0  0  0  0  0  0  0  0  0  0
   -5.3647    2.6186    1.6119 C   0  0  0  0  0  0  0  0  0  0  0  0
   -6.3144    3.0085    2.4746 F   0  0  0  0  0  0  0  0  0  0  0  0
   -4.3332    1.7767    2.0181 C   0  0  0  0  0  0  0  0  0  0  0  0
   -4.2471    1.2183    3.6449 Cl  0  0  0  0  0  0  0  0  0  0  0  0
   -3.3518    1.3817    1.1046 C   0  0  0  0  0  0  0  0  0  0  0  0
   -2.0073   -0.8634   -0.9270 C   0  0  0  0  0  0  0  0  0  0  0  0
   -3.2511   -1.5104   -0.9562 C   0  0  0  0  0  0  0  0  0  0  0  0
   -3.1361   -2.8395   -0.8073 N   0  0  0  0  0  0  0  0  0  0  0  0
   -1.7998   -3.0406   -0.6956 N   0  0  0  0  0  0  0  0  0  0  0  0
   -1.3057   -4.3834   -0.5276 C   0  0  0  0  0  0  0  0  0  0  0  0
   -1.1030   -1.8768   -0.7728 C   0  0  0  0  0  0  0  0  0  0  0  0
    0.9160   -2.3696   -0.6426 H   0  0  0  0  0  0  0  0  0  0  0  0
    2.8334   -1.5118    0.2163 H   0  0  0  0  0  0  0  0  0  0  0  0
    2.9466   -1.6516   -1.5470 H   0  0  0  0  0  0  0  0  0  0  0  0
    5.1050   -0.9873   -0.6601 H   0  0  0  0  0  0  0  0  0  0  0  0
    4.4358    0.2862   -1.6732 H   0  0  0  0  0  0  0  0  0  0  0  0
    3.7344    1.5650    0.3548 H   0  0  0  0  0  0  0  0  0  0  0  0
    3.4161   -0.2336    2.0071 H   0  0  0  0  0  0  0  0  0  0  0  0
    5.1320   -0.6738    1.9141 H   0  0  0  0  0  0  0  0  0  0  0  0
    4.6419    0.8869    2.5944 H   0  0  0  0  0  0  0  0  0  0  0  0
    6.0085    2.2486    1.0414 H   0  0  0  0  0  0  0  0  0  0  0  0
    6.6918    0.7720    0.3382 H   0  0  0  0  0  0  0  0  0  0  0  0
    5.9348    1.9885   -0.7061 H   0  0  0  0  0  0  0  0  0  0  0  0
   -1.9432    2.3312   -1.4638 H   0  0  0  0  0  0  0  0  0  0  0  0
   -4.5036    3.0410   -1.6391 H   0  0  0  0  0  0  0  0  0  0  0  0
   -6.2331    3.7349   -0.0016 H   0  0  0  0  0  0  0  0  0  0  0  0
   -2.5432    0.7415    1.4488 H   0  0  0  0  0  0  0  0  0  0  0  0
   -4.2374   -1.0817   -1.0784 H   0  0  0  0  0  0  0  0  0  0  0  0
   -1.5497   -4.9539   -1.4272 H   0  0  0  0  0  0  0  0  0  0  0  0
   -1.7902   -4.8233    0.3478 H   0  0  0  0  0  0  0  0  0  0  0  0
   -0.2239   -4.3664   -0.3797 H   0  0  0  0  0  0  0  0  0  0  0  0
  1  2  1  0
  2  3  2  3
  3  4  1  0
  4  5  1  0
  5  6  1  0
  6  7  1  0
  6  8  1  0
  2  9  1  0
  9 10  2  0
 10 11  1  0
 11 12  1  0
 12 13  2  0
 13 14  1  0
 14 15  2  0
 15 16  1  0
 15 17  1  0
 17 18  1  0
 17 19  2  0
 10 20  1  0
 20 21  1  0
 21 22  2  0
 22 23  1  0
 23 24  1  0
 23 25  1  0
 25  1  1  0
 19 12  1  0
 25 20  2  0
  1 26  1  0
  4 27  1  0
  4 28  1  0
  5 29  1  0
  5 30  1  0
  6 31  1  0
  7 32  1  0
  7 33  1  0
  7 34  1  0
  8 35  1  0
  8 36  1  0
  8 37  1  0
 11 38  1  0
 13 39  1  0
 14 40  1  0
 19 41  1  0
 21 42  1  0
 24 43  1  0
 24 44  1  0
 24 45  1  0
M  END
>  <ScrubInfo>  (4) 
{"isomerGroup": 0, "isomerId": 3, "confId": 0, "nr_conformers:": 1, "nr_isomers:": 9}

$$$$
_i4
     RDKit          3D

 45 47  0  0  0  0  0  0  0  0999 V2000
   -2.9197   -2.7796    0.7836 N   0  0  0  0  0  0  0  0  0  0  0  0
   -3.0444   -1.4351    0.4498 C   0  0  0  0  0  0  0  0  0  0  0  0
   -1.8731   -0.8414    0.1730 C   0  0  0  0  0  0  0  0  0  0  0  0
   -1.3637    0.4563   -0.2512 C   0  0  0  0  0  0  0  0  0  0  0  0
   -1.9762    1.5747   -0.4587 N   0  0  0  0  0  0  0  0  0  0  0  0
   -3.3526    1.6906   -0.2695 C   0  0  0  0  0  0  0  0  0  0  0  0
   -4.2246    1.5131   -1.3499 C   0  0  0  0  0  0  0  0  0  0  0  0
   -5.6017    1.6585   -1.1768 C   0  0  0  0  0  0  0  0  0  0  0  0
   -6.1024    1.9966    0.0766 C   0  0  0  0  0  0  0  0  0  0  0  0
   -7.4289    2.1245    0.2263 F   0  0  0  0  0  0  0  0  0  0  0  0
   -5.2408    2.1984    1.1536 C   0  0  0  0  0  0  0  0  0  0  0  0
   -5.8589    2.6179    2.7045 Cl  0  0  0  0  0  0  0  0  0  0  0  0
   -3.8646    2.0539    0.9800 C   0  0  0  0  0  0  0  0  0  0  0  0
   -0.0128    0.4772   -0.4677 N   0  0  0  0  0  0  0  0  0  0  0  0
    0.7612   -0.5449   -0.2697 C   0  0  0  0  0  0  0  0  0  0  0  0
    2.1036   -0.4592   -0.4988 N   0  0  0  0  0  0  0  0  0  0  0  0
    2.6911    0.5794   -1.3171 C   0  0  0  0  0  0  0  0  0  0  0  0
    4.2205    0.5201   -1.2666 C   0  0  0  0  0  0  0  0  0  0  0  0
    4.8528    1.1988   -0.0338 C   0  0  0  0  0  0  0  0  0  0  0  0
    6.3778    1.2055   -0.1782 C   0  0  0  0  0  0  0  0  0  0  0  0
    4.4676    0.5340    1.2874 C   0  0  0  0  0  0  0  0  0  0  0  0
    0.3511   -1.7746    0.1693 N   0  0  0  0  0  0  0  0  0  0  0  0
   -0.9045   -1.9300    0.4051 C   0  0  0  0  0  0  0  0  0  0  0  0
   -1.5659   -3.0657    0.8739 N   0  0  0  0  0  0  0  0  0  0  0  0
   -1.0996   -4.3972    0.5392 C   0  0  0  0  0  0  0  0  0  0  0  0
   -3.4920   -3.0535    1.5863 H   0  0  0  0  0  0  0  0  0  0  0  0
   -4.0342   -1.0044    0.4419 H   0  0  0  0  0  0  0  0  0  0  0  0
   -3.8218    1.2682   -2.3301 H   0  0  0  0  0  0  0  0  0  0  0  0
   -6.2831    1.5193   -2.0103 H   0  0  0  0  0  0  0  0  0  0  0  0
   -3.1818    2.2274    1.8074 H   0  0  0  0  0  0  0  0  0  0  0  0
    2.5430   -1.3695   -0.5386 H   0  0  0  0  0  0  0  0  0  0  0  0
    2.3680    0.4268   -2.3536 H   0  0  0  0  0  0  0  0  0  0  0  0
    2.3457    1.5717   -1.0053 H   0  0  0  0  0  0  0  0  0  0  0  0
    4.5960    1.0355   -2.1606 H   0  0  0  0  0  0  0  0  0  0  0  0
    4.5643   -0.5197   -1.3410 H   0  0  0  0  0  0  0  0  0  0  0  0
    4.5176    2.2434   -0.0000 H   0  0  0  0  0  0  0  0  0  0  0  0
    6.8468    1.7276    0.6626 H   0  0  0  0  0  0  0  0  0  0  0  0
    6.6804    1.7187   -1.0972 H   0  0  0  0  0  0  0  0  0  0  0  0
    6.7781    0.1864   -0.2106 H   0  0  0  0  0  0  0  0  0  0  0  0
    4.6812   -0.5400    1.2701 H   0  0  0  0  0  0  0  0  0  0  0  0
    3.4050    0.6727    1.5072 H   0  0  0  0  0  0  0  0  0  0  0  0
    5.0245    0.9747    2.1216 H   0  0  0  0  0  0  0  0  0  0  0  0
   -0.0520   -4.5235    0.8307 H   0  0  0  0  0  0  0  0  0  0  0  0
   -1.6876   -5.1518    1.0718 H   0  0  0  0  0  0  0  0  0  0  0  0
   -1.1891   -4.5819   -0.5364 H   0  0  0  0  0  0  0  0  0  0  0  0
  1  2  1  0
  2  3  2  0
  3  4  1  0
  4  5  2  3
  5  6  1  0
  6  7  2  0
  7  8  1  0
  8  9  2  0
  9 10  1  0
  9 11  1  0
 11 12  1  0
 11 13  2  0
  4 14  1  0
 14 15  2  0
 15 16  1  0
 16 17  1  0
 17 18  1  0
 18 19  1  0
 19 20  1  0
 19 21  1  0
 15 22  1  0
 22 23  2  0
 23 24  1  0
 24 25  1  0
 24  1  1  0
 23  3  1  0
 13  6  1  0
  1 26  1  0
  2 27  1  0
  7 28  1  0
  8 29  1  0
 13 30  1  0
 16 31  1  0
 17 32  1  0
 17 33  1  0
 18 34  1  0
 18 35  1  0
 19 36  1  0
 20 37  1  0
 20 38  1  0
 20 39  1  0
 21 40  1  0
 21 41  1  0
 21 42  1  0
 25 43  1  0
 25 44  1  0
 25 45  1  0
M  END
>  <ScrubInfo>  (5) 
{"isomerGroup": 0, "isomerId": 4, "confId": 0, "nr_conformers:": 1, "nr_isomers:": 9}

$$$$
_i5
     RDKit          3D

 45 47  0  0  0  0  0  0  0  0999 V2000
   -0.0236   -1.9148    0.0645 N   0  0  0  0  0  0  0  0  0  0  0  0
   -0.2775   -0.7754   -0.6647 C   0  0  0  0  0  0  0  0  0  0  0  0
    0.6570   -0.4618   -1.6096 N   0  0  0  0  0  0  0  0  0  0  0  0
    2.0900   -0.4291   -1.3420 C   0  0  0  0  0  0  0  0  0  0  0  0
    2.4356    0.7175   -0.3871 C   0  0  0  0  0  0  0  0  0  0  0  0
    3.9317    0.8665   -0.0528 C   0  0  0  0  0  0  0  0  0  0  0  0
    4.7770    1.1797   -1.2871 C   0  0  0  0  0  0  0  0  0  0  0  0
    4.4868   -0.3548    0.6802 C   0  0  0  0  0  0  0  0  0  0  0  0
   -1.3210   -0.0019   -0.5293 N   0  0  0  0  0  0  0  0  0  0  0  0
   -2.2752   -0.3181    0.4296 C   0  0  0  0  0  0  0  0  0  0  0  0
   -3.3314    0.3935    0.6660 N   0  0  0  0  0  0  0  0  0  0  0  0
   -3.5261    1.5569   -0.0882 C   0  0  0  0  0  0  0  0  0  0  0  0
   -3.1613    2.7990    0.4441 C   0  0  0  0  0  0  0  0  0  0  0  0
   -3.3706    3.9700   -0.2856 C   0  0  0  0  0  0  0  0  0  0  0  0
   -3.9558    3.8956   -1.5456 C   0  0  0  0  0  0  0  0  0  0  0  0
   -4.1467    5.0309   -2.2341 F   0  0  0  0  0  0  0  0  0  0  0  0
   -4.3384    2.6658   -2.0785 C   0  0  0  0  0  0  0  0  0  0  0  0
   -5.0686    2.5743   -3.6356 Cl  0  0  0  0  0  0  0  0  0  0  0  0
   -4.1313    1.4964   -1.3479 C   0  0  0  0  0  0  0  0  0  0  0  0
   -2.0636   -1.5175    1.1976 C   0  0  0  0  0  0  0  0  0  0  0  0
   -2.7571   -2.2077    2.2003 C   0  0  0  0  0  0  0  0  0  0  0  0
   -2.1189   -3.3273    2.5804 N   0  0  0  0  0  0  0  0  0  0  0  0
   -1.0060   -3.3458    1.8046 N   0  0  0  0  0  0  0  0  0  0  0  0
   -0.0688   -4.4299    1.9496 C   0  0  0  0  0  0  0  0  0  0  0  0
   -0.9446   -2.2709    0.9764 C   0  0  0  0  0  0  0  0  0  0  0  0
    0.6941   -2.5362   -0.2815 H   0  0  0  0  0  0  0  0  0  0  0  0
    0.3551    0.3805   -2.0972 H   0  0  0  0  0  0  0  0  0  0  0  0
    2.4241   -1.3916   -0.9437 H   0  0  0  0  0  0  0  0  0  0  0  0
    2.6007   -0.2886   -2.3000 H   0  0  0  0  0  0  0  0  0  0  0  0
    1.8820    0.5880    0.5521 H   0  0  0  0  0  0  0  0  0  0  0  0
    2.0749    1.6613   -0.8175 H   0  0  0  0  0  0  0  0  0  0  0  0
    4.0195    1.7232    0.6285 H   0  0  0  0  0  0  0  0  0  0  0  0
    5.8060    1.4178   -0.9962 H   0  0  0  0  0  0  0  0  0  0  0  0
    4.8179    0.3326   -1.9790 H   0  0  0  0  0  0  0  0  0  0  0  0
    4.3750    2.0439   -1.8261 H   0  0  0  0  0  0  0  0  0  0  0  0
    4.5202   -1.2378    0.0343 H   0  0  0  0  0  0  0  0  0  0  0  0
    3.8762   -0.5944    1.5570 H   0  0  0  0  0  0  0  0  0  0  0  0
    5.5075   -0.1616    1.0278 H   0  0  0  0  0  0  0  0  0  0  0  0
   -2.7097    2.8468    1.4316 H   0  0  0  0  0  0  0  0  0  0  0  0
   -3.0843    4.9348    0.1202 H   0  0  0  0  0  0  0  0  0  0  0  0
   -4.4294    0.5333   -1.7514 H   0  0  0  0  0  0  0  0  0  0  0  0
   -3.6992   -1.9498    2.6671 H   0  0  0  0  0  0  0  0  0  0  0  0
   -0.5649   -5.3551    1.6461 H   0  0  0  0  0  0  0  0  0  0  0  0
    0.2371   -4.4855    2.9974 H   0  0  0  0  0  0  0  0  0  0  0  0
    0.8056   -4.2524    1.3199 H   0  0  0  0  0  0  0  0  0  0  0  0
  1  2  1  0
  2  3  1  0
  3  4  1  0
  4  5  1  0
  5  6  1  0
  6  7  1  0
  6  8  1  0
  2  9  2  0
  9 10  1  0
 10 11  2  3
 11 12  1  0
 12 13  2  0
 13 14  1  0
 14 15  2  0
 15 16  1  0
 15 17  1  0
 17 18  1  0
 17 19  2  0
 10 20  1  0
 20 21  1  0
 21 22  2  0
 22 23  1  0
 23 24  1  0
 23 25  1  0
 25  1  1  0
 19 12  1  0
 25 20  2  0
  1 26  1  0
  3 27  1  0
  4 28  1  0
  4 29  1  0
  5 30  1  0
  5 31  1  0
  6 32  1  0
  7 33  1  0
  7 34  1  0
  7 35  1  0
  8 36  1  0
  8 37  1  0
  8 38  1  0
 13 39  1  0
 14 40  1  0
 19 41  1  0
 21 42  1  0
 24 43  1  0
 24 44  1  0
 24 45  1  0
M  END
>  <ScrubInfo>  (6) 
{"isomerGroup": 0, "isomerId": 5, "confId": 0, "nr_conformers:": 1, "nr_isomers:": 9}

$$$$
_i6
     RDKit          3D

 45 47  0  0  0  0  0  0  0  0999 V2000
    2.4879    2.6176   -1.6204 N   0  0  0  0  0  0  0  0  0  0  0  0
    2.7663    1.7296   -0.5877 C   0  0  0  0  0  0  0  0  0  0  0  0
    1.7302    0.9337   -0.2924 C   0  0  0  0  0  0  0  0  0  0  0  0
    1.3897   -0.1240    0.6556 C   0  0  0  0  0  0  0  0  0  0  0  0
    2.2712   -0.6370    1.5841 N   0  0  0  0  0  0  0  0  0  0  0  0
    3.5653   -1.1138    1.2704 C   0  0  0  0  0  0  0  0  0  0  0  0
    3.9110   -1.5924   -0.0024 C   0  0  0  0  0  0  0  0  0  0  0  0
    5.1913   -2.0947   -0.2508 C   0  0  0  0  0  0  0  0  0  0  0  0
    6.1268   -2.1378    0.7769 C   0  0  0  0  0  0  0  0  0  0  0  0
    7.3495   -2.6221    0.5156 F   0  0  0  0  0  0  0  0  0  0  0  0
    5.7927   -1.6934    2.0526 C   0  0  0  0  0  0  0  0  0  0  0  0
    6.9414   -1.7546    3.3331 Cl  0  0  0  0  0  0  0  0  0  0  0  0
    4.5129   -1.1929    2.3018 C   0  0  0  0  0  0  0  0  0  0  0  0
    0.1713   -0.5870    0.6522 N   0  0  0  0  0  0  0  0  0  0  0  0
   -0.7357   -0.0825   -0.2553 C   0  0  0  0  0  0  0  0  0  0  0  0
   -1.9165   -0.5753   -0.1273 N   0  0  0  0  0  0  0  0  0  0  0  0
   -2.9534   -0.1049   -1.0414 C   0  0  0  0  0  0  0  0  0  0  0  0
   -4.2865   -0.7683   -0.6814 C   0  0  0  0  0  0  0  0  0  0  0  0
   -5.0501   -0.0924    0.4761 C   0  0  0  0  0  0  0  0  0  0  0  0
   -4.2932   -0.1302    1.8034 C   0  0  0  0  0  0  0  0  0  0  0  0
   -6.4184   -0.7593    0.6465 C   0  0  0  0  0  0  0  0  0  0  0  0
   -0.4886    0.8494   -1.2391 N   0  0  0  0  0  0  0  0  0  0  0  0
    0.7003    1.3429   -1.2701 C   0  0  0  0  0  0  0  0  0  0  0  0
    1.2363    2.2963   -2.1370 N   0  0  0  0  0  0  0  0  0  0  0  0
    0.4068    3.3544   -2.6832 C   0  0  0  0  0  0  0  0  0  0  0  0
    3.2474    2.7134   -2.2985 H   0  0  0  0  0  0  0  0  0  0  0  0
    3.7430    1.7470   -0.1255 H   0  0  0  0  0  0  0  0  0  0  0  0
    1.7880   -1.3188    2.1690 H   0  0  0  0  0  0  0  0  0  0  0  0
    3.1854   -1.6002   -0.8133 H   0  0  0  0  0  0  0  0  0  0  0  0
    5.4601   -2.4631   -1.2364 H   0  0  0  0  0  0  0  0  0  0  0  0
    4.2545   -0.8480    3.3007 H   0  0  0  0  0  0  0  0  0  0  0  0
   -3.0620    0.9858   -1.0078 H   0  0  0  0  0  0  0  0  0  0  0  0
   -2.6948   -0.3982   -2.0665 H   0  0  0  0  0  0  0  0  0  0  0  0
   -4.9254   -0.7268   -1.5734 H   0  0  0  0  0  0  0  0  0  0  0  0
   -4.1293   -1.8314   -0.4581 H   0  0  0  0  0  0  0  0  0  0  0  0
   -5.2230    0.9589    0.2129 H   0  0  0  0  0  0  0  0  0  0  0  0
   -3.3922    0.4890    1.7647 H   0  0  0  0  0  0  0  0  0  0  0  0
   -4.9140    0.2621    2.6164 H   0  0  0  0  0  0  0  0  0  0  0  0
   -4.0008   -1.1523    2.0662 H   0  0  0  0  0  0  0  0  0  0  0  0
   -6.9978   -0.7033   -0.2811 H   0  0  0  0  0  0  0  0  0  0  0  0
   -6.9994   -0.2622    1.4307 H   0  0  0  0  0  0  0  0  0  0  0  0
   -6.3145   -1.8151    0.9190 H   0  0  0  0  0  0  0  0  0  0  0  0
   -0.4603    2.9344   -3.2030 H   0  0  0  0  0  0  0  0  0  0  0  0
    0.0517    4.0196   -1.8892 H   0  0  0  0  0  0  0  0  0  0  0  0
    0.9750    3.9480   -3.4067 H   0  0  0  0  0  0  0  0  0  0  0  0
  1  2  1  0
  2  3  2  0
  3  4  1  0
  4  5  1  0
  5  6  1  0
  6  7  2  0
  7  8  1  0
  8  9  2  0
  9 10  1  0
  9 11  1  0
 11 12  1  0
 11 13  2  0
  4 14  2  0
 14 15  1  0
 15 16  2  3
 16 17  1  0
 17 18  1  0
 18 19  1  0
 19 20  1  0
 19 21  1  0
 15 22  1  0
 22 23  2  0
 23 24  1  0
 24 25  1  0
 24  1  1  0
 23  3  1  0
 13  6  1  0
  1 26  1  0
  2 27  1  0
  5 28  1  0
  7 29  1  0
  8 30  1  0
 13 31  1  0
 17 32  1  0
 17 33  1  0
 18 34  1  0
 18 35  1  0
 19 36  1  0
 20 37  1  0
 20 38  1  0
 20 39  1  0
 21 40  1  0
 21 41  1  0
 21 42  1  0
 25 43  1  0
 25 44  1  0
 25 45  1  0
M  END
>  <ScrubInfo>  (7) 
{"isomerGroup": 0, "isomerId": 6, "confId": 0, "nr_conformers:": 1, "nr_isomers:": 9}

$$$$
_i7
     RDKit          3D

 45 47  0  0  0  0  0  0  0  0999 V2000
    1.8598    4.4808   -1.0185 N   0  0  0  0  0  0  0  0  0  0  0  0
    2.6406    3.3946   -0.6396 C   0  0  0  0  0  0  0  0  0  0  0  0
    1.9293    2.2720   -0.4829 C   0  0  0  0  0  0  0  0  0  0  0  0
    2.1731    0.8664   -0.1491 C   0  0  0  0  0  0  0  0  0  0  0  0
    3.3817    0.4788    0.1321 N   0  0  0  0  0  0  0  0  0  0  0  0
    3.6075   -0.8649    0.4487 C   0  0  0  0  0  0  0  0  0  0  0  0
    3.9012   -1.7862   -0.5629 C   0  0  0  0  0  0  0  0  0  0  0  0
    4.1445   -3.1243   -0.2494 C   0  0  0  0  0  0  0  0  0  0  0  0
    4.1047   -3.5354    1.0794 C   0  0  0  0  0  0  0  0  0  0  0  0
    4.3406   -4.8250    1.3613 F   0  0  0  0  0  0  0  0  0  0  0  0
    3.8281   -2.6224    2.0953 C   0  0  0  0  0  0  0  0  0  0  0  0
    3.7834   -3.1269    3.7407 Cl  0  0  0  0  0  0  0  0  0  0  0  0
    3.5832   -1.2854    1.7815 C   0  0  0  0  0  0  0  0  0  0  0  0
    1.0231    0.1201   -0.1885 N   0  0  0  0  0  0  0  0  0  0  0  0
   -0.2344    0.5716   -0.4893 C   0  0  0  0  0  0  0  0  0  0  0  0
   -1.1970   -0.2915   -0.5045 N   0  0  0  0  0  0  0  0  0  0  0  0
   -2.5375    0.2068   -0.8150 C   0  0  0  0  0  0  0  0  0  0  0  0
   -3.5396   -0.9486   -0.7296 C   0  0  0  0  0  0  0  0  0  0  0  0
   -4.0234   -1.2773    0.6978 C   0  0  0  0  0  0  0  0  0  0  0  0
   -2.9014   -1.7455    1.6242 C   0  0  0  0  0  0  0  0  0  0  0  0
   -5.1169   -2.3479    0.6349 C   0  0  0  0  0  0  0  0  0  0  0  0
   -0.4869    1.9003   -0.7664 N   0  0  0  0  0  0  0  0  0  0  0  0
    0.5238    2.7125   -0.7496 C   0  0  0  0  0  0  0  0  0  0  0  0
    0.5225    4.0918   -0.9741 N   0  0  0  0  0  0  0  0  0  0  0  0
   -0.4193    4.6984   -1.8951 C   0  0  0  0  0  0  0  0  0  0  0  0
    2.0947    5.3419   -0.5192 H   0  0  0  0  0  0  0  0  0  0  0  0
    3.7057    3.5208   -0.5047 H   0  0  0  0  0  0  0  0  0  0  0  0
    3.9469   -1.4546   -1.5976 H   0  0  0  0  0  0  0  0  0  0  0  0
    4.3715   -3.8448   -1.0292 H   0  0  0  0  0  0  0  0  0  0  0  0
    3.3789   -0.5636    2.5676 H   0  0  0  0  0  0  0  0  0  0  0  0
    1.0666   -0.8681    0.0056 H   0  0  0  0  0  0  0  0  0  0  0  0
   -2.8397    1.0109   -0.1334 H   0  0  0  0  0  0  0  0  0  0  0  0
   -2.5519    0.5941   -1.8414 H   0  0  0  0  0  0  0  0  0  0  0  0
   -3.1186   -1.8466   -1.1999 H   0  0  0  0  0  0  0  0  0  0  0  0
   -4.4182   -0.6661   -1.3245 H   0  0  0  0  0  0  0  0  0  0  0  0
   -4.4681   -0.3728    1.1323 H   0  0  0  0  0  0  0  0  0  0  0  0
   -2.3502   -2.5859    1.1892 H   0  0  0  0  0  0  0  0  0  0  0  0
   -2.1940   -0.9372    1.8315 H   0  0  0  0  0  0  0  0  0  0  0  0
   -3.3044   -2.0707    2.5897 H   0  0  0  0  0  0  0  0  0  0  0  0
   -5.9539   -2.0145    0.0122 H   0  0  0  0  0  0  0  0  0  0  0  0
   -5.5117   -2.5612    1.6340 H   0  0  0  0  0  0  0  0  0  0  0  0
   -4.7327   -3.2839    0.2151 H   0  0  0  0  0  0  0  0  0  0  0  0
   -1.4473    4.4396   -1.6218 H   0  0  0  0  0  0  0  0  0  0  0  0
   -0.3310    5.7893   -1.8666 H   0  0  0  0  0  0  0  0  0  0  0  0
   -0.2331    4.3609   -2.9200 H   0  0  0  0  0  0  0  0  0  0  0  0
  1  2  1  0
  2  3  2  0
  3  4  1  0
  4  5  2  3
  5  6  1  0
  6  7  2  0
  7  8  1  0
  8  9  2  0
  9 10  1  0
  9 11  1  0
 11 12  1  0
 11 13  2  0
  4 14  1  0
 14 15  1  0
 15 16  2  3
 16 17  1  0
 17 18  1  0
 18 19  1  0
 19 20  1  0
 19 21  1  0
 15 22  1  0
 22 23  2  0
 23 24  1  0
 24 25  1  0
 24  1  1  0
 23  3  1  0
 13  6  1  0
  1 26  1  0
  2 27  1  0
  7 28  1  0
  8 29  1  0
 13 30  1  0
 14 31  1  0
 17 32  1  0
 17 33  1  0
 18 34  1  0
 18 35  1  0
 19 36  1  0
 20 37  1  0
 20 38  1  0
 20 39  1  0
 21 40  1  0
 21 41  1  0
 21 42  1  0
 25 43  1  0
 25 44  1  0
 25 45  1  0
M  END
>  <ScrubInfo>  (8) 
{"isomerGroup": 0, "isomerId": 7, "confId": 0, "nr_conformers:": 1, "nr_isomers:": 9}

$$$$
_i8
     RDKit          3D

 45 47  0  0  0  0  0  0  0  0999 V2000
    0.0694   -2.4817   -0.0884 N   0  0  0  0  0  0  0  0  0  0  0  0
    0.8888   -1.4430    0.3041 C   0  0  0  0  0  0  0  0  0  0  0  0
    2.1477   -1.6842    0.4418 N   0  0  0  0  0  0  0  0  0  0  0  0
    3.0537   -0.6225    0.8750 C   0  0  0  0  0  0  0  0  0  0  0  0
    3.5558    0.1584   -0.3401 C   0  0  0  0  0  0  0  0  0  0  0  0
    4.4320    1.3688    0.0292 C   0  0  0  0  0  0  0  0  0  0  0  0
    5.7211    0.9605    0.7435 C   0  0  0  0  0  0  0  0  0  0  0  0
    4.7706    2.1686   -1.2311 C   0  0  0  0  0  0  0  0  0  0  0  0
    0.2092   -0.2544    0.4898 N   0  0  0  0  0  0  0  0  0  0  0  0
   -1.1281    0.0603    0.3472 C   0  0  0  0  0  0  0  0  0  0  0  0
   -1.5500    1.2696    0.5698 N   0  0  0  0  0  0  0  0  0  0  0  0
   -2.8890    1.6355    0.4381 C   0  0  0  0  0  0  0  0  0  0  0  0
   -3.3657    2.1285   -0.7823 C   0  0  0  0  0  0  0  0  0  0  0  0
   -4.6929    2.5426   -0.9061 C   0  0  0  0  0  0  0  0  0  0  0  0
   -5.5368    2.4794    0.1985 C   0  0  0  0  0  0  0  0  0  0  0  0
   -6.8082    2.8829    0.0608 F   0  0  0  0  0  0  0  0  0  0  0  0
   -5.0658    2.0117    1.4240 C   0  0  0  0  0  0  0  0  0  0  0  0
   -6.1046    1.9428    2.7951 Cl  0  0  0  0  0  0  0  0  0  0  0  0
   -3.7398    1.5960    1.5471 C   0  0  0  0  0  0  0  0  0  0  0  0
   -1.9020   -1.0989   -0.0621 C   0  0  0  0  0  0  0  0  0  0  0  0
   -3.2447   -1.3987   -0.3567 C   0  0  0  0  0  0  0  0  0  0  0  0
   -3.4288   -2.6799   -0.7079 N   0  0  0  0  0  0  0  0  0  0  0  0
   -2.1916   -3.2176   -0.6281 N   0  0  0  0  0  0  0  0  0  0  0  0
   -2.0073   -4.6115   -0.9447 C   0  0  0  0  0  0  0  0  0  0  0  0
   -1.2575   -2.3019   -0.2540 C   0  0  0  0  0  0  0  0  0  0  0  0
    0.5541   -3.3603   -0.2314 H   0  0  0  0  0  0  0  0  0  0  0  0
    2.5911    0.0401    1.6151 H   0  0  0  0  0  0  0  0  0  0  0  0
    3.8958   -1.1022    1.3852 H   0  0  0  0  0  0  0  0  0  0  0  0
    4.1112   -0.5192   -1.0018 H   0  0  0  0  0  0  0  0  0  0  0  0
    2.6943    0.5110   -0.9216 H   0  0  0  0  0  0  0  0  0  0  0  0
    3.8610    2.0243    0.6991 H   0  0  0  0  0  0  0  0  0  0  0  0
    6.2998    0.2505    0.1431 H   0  0  0  0  0  0  0  0  0  0  0  0
    6.3528    1.8349    0.9342 H   0  0  0  0  0  0  0  0  0  0  0  0
    5.5104    0.4970    1.7119 H   0  0  0  0  0  0  0  0  0  0  0  0
    3.8587    2.5075   -1.7341 H   0  0  0  0  0  0  0  0  0  0  0  0
    5.3463    1.5659   -1.9418 H   0  0  0  0  0  0  0  0  0  0  0  0
    5.3619    3.0562   -0.9821 H   0  0  0  0  0  0  0  0  0  0  0  0
    0.7620    0.5441    0.7571 H   0  0  0  0  0  0  0  0  0  0  0  0
   -2.6966    2.1917   -1.6372 H   0  0  0  0  0  0  0  0  0  0  0  0
   -5.0708    2.9198   -1.8513 H   0  0  0  0  0  0  0  0  0  0  0  0
   -3.3602    1.2442    2.5024 H   0  0  0  0  0  0  0  0  0  0  0  0
   -4.1128   -0.7553   -0.3406 H   0  0  0  0  0  0  0  0  0  0  0  0
   -1.9158   -4.7043   -2.0294 H   0  0  0  0  0  0  0  0  0  0  0  0
   -2.8732   -5.1741   -0.5856 H   0  0  0  0  0  0  0  0  0  0  0  0
   -1.1055   -4.9835   -0.4535 H   0  0  0  0  0  0  0  0  0  0  0  0
  1  2  1  0
  2  3  2  3
  3  4  1  0
  4  5  1  0
  5  6  1  0
  6  7  1  0
  6  8  1  0
  2  9  1  0
  9 10  1  0
 10 11  2  3
 11 12  1  0
 12 13  2  0
 13 14  1  0
 14 15  2  0
 15 16  1  0
 15 17  1  0
 17 18  1  0
 17 19  2  0
 10 20  1  0
 20 21  1  0
 21 22  2  0
 22 23  1  0
 23 24  1  0
 23 25  1  0
 25  1  1  0
 19 12  1  0
 25 20  2  0
  1 26  1  0
  4 27  1  0
  4 28  1  0
  5 29  1  0
  5 30  1  0
  6 31  1  0
  7 32  1  0
  7 33  1  0
  7 34  1  0
  8 35  1  0
  8 36  1  0
  8 37  1  0
  9 38  1  0
 13 39  1  0
 14 40  1  0
 19 41  1  0
 21 42  1  0
 24 43  1  0
 24 44  1  0
 24 45  1  0
M  END
>  <ScrubInfo>  (9) 
{"isomerGroup": 0, "isomerId": 8, "confId": 0, "nr_conformers:": 1, "nr_isomers:": 9}

$$$$
