_i0
     RDKit          3D

 46 48  0  0  0  0  0  0  0  0999 V2000
    7.6934   -0.5612   -0.8528 C   0  0  0  0  0  0  0  0  0  0  0  0
    6.1816   -0.4703   -0.7818 C   0  0  0  0  0  0  0  0  0  0  0  0
    5.8336    0.8202   -0.2853 O   0  0  0  0  0  0  0  0  0  0  0  0
    4.4215    1.0165   -0.1803 C   0  0  0  0  0  0  0  0  0  0  0  0
    3.9024    0.4797    1.1517 C   0  0  0  0  0  0  0  0  0  0  0  0
    2.4249    0.7989    1.3641 C   0  0  0  0  0  0  0  0  0  0  0  0
    1.6135    0.0311    0.4344 N   0  0  0  0  0  0  0  0  0  0  0  0
    0.2430    0.2415    0.5554 C   0  0  0  0  0  0  0  0  0  0  0  0
   -0.5070   -0.8559    0.3512 N   0  0  0  0  0  0  0  0  0  0  0  0
   -1.8622   -0.7877    0.4274 C   0  0  0  0  0  0  0  0  0  0  0  0
   -2.5479   -1.9998    0.1912 N   0  0  0  0  0  0  0  0  0  0  0  0
   -3.8359   -2.0980   -0.3821 C   0  0  0  0  0  0  0  0  0  0  0  0
   -4.9398   -2.2331    0.4721 C   0  0  0  0  0  0  0  0  0  0  0  0
   -6.2377   -2.2906   -0.0396 C   0  0  0  0  0  0  0  0  0  0  0  0
   -6.4489   -2.2079   -1.4140 C   0  0  0  0  0  0  0  0  0  0  0  0
   -5.3631   -2.0708   -2.2790 C   0  0  0  0  0  0  0  0  0  0  0  0
   -4.0636   -2.0147   -1.7665 C   0  0  0  0  0  0  0  0  0  0  0  0
   -2.6275   -1.8412   -2.9974 Br  0  0  0  0  0  0  0  0  0  0  0  0
   -2.4341    0.4527    0.7253 C   0  0  0  0  0  0  0  0  0  0  0  0
   -3.7095    1.0282    0.9047 C   0  0  0  0  0  0  0  0  0  0  0  0
   -3.6609    2.3347    1.1926 N   0  0  0  0  0  0  0  0  0  0  0  0
   -2.3355    2.6007    1.1864 N   0  0  0  0  0  0  0  0  0  0  0  0
   -1.8809    3.9429    1.4480 C   0  0  0  0  0  0  0  0  0  0  0  0
   -1.5603    1.5064    0.9177 C   0  0  0  0  0  0  0  0  0  0  0  0
   -0.2219    1.4607    0.8504 N   0  0  0  0  0  0  0  0  0  0  0  0
    8.1355   -0.4089    0.1373 H   0  0  0  0  0  0  0  0  0  0  0  0
    8.0966    0.2201   -1.5056 H   0  0  0  0  0  0  0  0  0  0  0  0
    8.0081   -1.5367   -1.2338 H   0  0  0  0  0  0  0  0  0  0  0  0
    5.7558   -0.6083   -1.7816 H   0  0  0  0  0  0  0  0  0  0  0  0
    5.7972   -1.2501   -0.1172 H   0  0  0  0  0  0  0  0  0  0  0  0
    4.2521    2.0978   -0.2267 H   0  0  0  0  0  0  0  0  0  0  0  0
    3.9059    0.5685   -1.0374 H   0  0  0  0  0  0  0  0  0  0  0  0
    4.0702   -0.6016    1.2175 H   0  0  0  0  0  0  0  0  0  0  0  0
    4.4901    0.9246    1.9644 H   0  0  0  0  0  0  0  0  0  0  0  0
    2.1543    0.5392    2.3953 H   0  0  0  0  0  0  0  0  0  0  0  0
    2.2688    1.8772    1.2355 H   0  0  0  0  0  0  0  0  0  0  0  0
    1.7290   -0.9763    0.4916 H   0  0  0  0  0  0  0  0  0  0  0  0
   -1.8730   -2.5511   -0.3412 H   0  0  0  0  0  0  0  0  0  0  0  0
   -4.7855   -2.2976    1.5473 H   0  0  0  0  0  0  0  0  0  0  0  0
   -7.0829   -2.3986    0.6360 H   0  0  0  0  0  0  0  0  0  0  0  0
   -7.4596   -2.2513   -1.8130 H   0  0  0  0  0  0  0  0  0  0  0  0
   -5.5396   -2.0084   -3.3499 H   0  0  0  0  0  0  0  0  0  0  0  0
   -4.6796    0.5557    0.8380 H   0  0  0  0  0  0  0  0  0  0  0  0
   -0.7902    3.9847    1.4065 H   0  0  0  0  0  0  0  0  0  0  0  0
   -2.2247    4.2343    2.4437 H   0  0  0  0  0  0  0  0  0  0  0  0
   -2.3058    4.6039    0.6883 H   0  0  0  0  0  0  0  0  0  0  0  0
  1  2  1  0
  2  3  1  0
  3  4  1  0
  4  5  1  0
  5  6  1  0
  6  7  1  0
  7  8  1  0
  8  9  2  0
  9 10  1  0
 10 11  1  0
 11 12  1  0
 12 13  2  0
 13 14  1  0
 14 15  2  0
 15 16  1  0
 16 17  2  0
 17 18  1  0
 10 19  2  0
 19 20  1  0
 20 21  2  0
 21 22  1  0
 22 23  1  0
 22 24  1  0
 24 25  2  0
 25  8  1  0
 17 12  1  0
 24 19  1  0
  1 26  1  0
  1 27  1  0
  1 28  1  0
  2 29  1  0
  2 30  1  0
  4 31  1  0
  4 32  1  0
  5 33  1  0
  5 34  1  0
  6 35  1  0
  6 36  1  0
  7 37  1  0
 11 38  1  0
 13 39  1  0
 14 40  1  0
 15 41  1  0
 16 42  1  0
 20 43  1  0
 23 44  1  0
 23 45  1  0
 23 46  1  0
M  END
>  <ScrubInfo>  (1) 
{"isomerGroup": 0, "isomerId": 0, "confId": 0, "nr_conformers:": 1, "nr_isomers:": 9}

$$$$
_i1
     RDKit          3D

 46 48  0  0  0  0  0  0  0  0999 V2000
   -0.7315    0.6791    1.2997 N   0  0  0  0  0  0  0  0  0  0  0  0
   -1.9437    0.0830    1.0200 C   0  0  0  0  0  0  0  0  0  0  0  0
   -3.0837    0.8404    0.8523 N   0  0  0  0  0  0  0  0  0  0  0  0
   -3.9623    0.8582   -0.2606 C   0  0  0  0  0  0  0  0  0  0  0  0
   -3.7484    0.0781   -1.4072 C   0  0  0  0  0  0  0  0  0  0  0  0
   -4.6665    0.0750   -2.4630 C   0  0  0  0  0  0  0  0  0  0  0  0
   -5.8230    0.8458   -2.3900 C   0  0  0  0  0  0  0  0  0  0  0  0
   -6.0639    1.6248   -1.2616 C   0  0  0  0  0  0  0  0  0  0  0  0
   -5.1445    1.6271   -0.2076 C   0  0  0  0  0  0  0  0  0  0  0  0
   -5.5378    2.7153    1.3038 Br  0  0  0  0  0  0  0  0  0  0  0  0
   -1.9280   -1.2556    1.0116 C   0  0  0  0  0  0  0  0  0  0  0  0
   -2.8907   -2.3539    0.8765 C   0  0  0  0  0  0  0  0  0  0  0  0
   -2.3348   -3.5360    0.9739 N   0  0  0  0  0  0  0  0  0  0  0  0
   -0.9607   -3.2913    1.1400 N   0  0  0  0  0  0  0  0  0  0  0  0
   -0.1115   -4.3655    1.5948 C   0  0  0  0  0  0  0  0  0  0  0  0
   -0.6404   -1.9467    1.2363 C   0  0  0  0  0  0  0  0  0  0  0  0
    0.4887   -1.3706    1.4749 N   0  0  0  0  0  0  0  0  0  0  0  0
    0.4480    0.0051    1.4908 C   0  0  0  0  0  0  0  0  0  0  0  0
    1.5243    0.6964    1.6725 N   0  0  0  0  0  0  0  0  0  0  0  0
    2.7870   -0.0150    1.8843 C   0  0  0  0  0  0  0  0  0  0  0  0
    3.4867   -0.2888    0.5575 C   0  0  0  0  0  0  0  0  0  0  0  0
    3.8649    0.9926   -0.1767 C   0  0  0  0  0  0  0  0  0  0  0  0
    4.5963    0.6349   -1.3522 O   0  0  0  0  0  0  0  0  0  0  0  0
    4.9406    1.7551   -2.1639 C   0  0  0  0  0  0  0  0  0  0  0  0
    6.1479    2.4938   -1.6145 C   0  0  0  0  0  0  0  0  0  0  0  0
   -0.6617    1.6837    1.2603 H   0  0  0  0  0  0  0  0  0  0  0  0
   -3.0402    1.7565    1.2936 H   0  0  0  0  0  0  0  0  0  0  0  0
   -2.8504   -0.5235   -1.5193 H   0  0  0  0  0  0  0  0  0  0  0  0
   -4.4730   -0.5312   -3.3454 H   0  0  0  0  0  0  0  0  0  0  0  0
   -6.5347    0.8406   -3.2120 H   0  0  0  0  0  0  0  0  0  0  0  0
   -6.9696    2.2239   -1.2102 H   0  0  0  0  0  0  0  0  0  0  0  0
   -3.9615   -2.1590    0.7348 H   0  0  0  0  0  0  0  0  0  0  0  0
    0.9286   -4.1919    1.3006 H   0  0  0  0  0  0  0  0  0  0  0  0
   -0.1559   -4.4508    2.6849 H   0  0  0  0  0  0  0  0  0  0  0  0
   -0.4264   -5.3194    1.1593 H   0  0  0  0  0  0  0  0  0  0  0  0
    2.6558   -0.9470    2.4468 H   0  0  0  0  0  0  0  0  0  0  0  0
    3.4269    0.6156    2.5129 H   0  0  0  0  0  0  0  0  0  0  0  0
    2.8581   -0.9076   -0.0945 H   0  0  0  0  0  0  0  0  0  0  0  0
    4.3943   -0.8767    0.7426 H   0  0  0  0  0  0  0  0  0  0  0  0
    4.4861    1.6225    0.4679 H   0  0  0  0  0  0  0  0  0  0  0  0
    2.9659    1.5491   -0.4639 H   0  0  0  0  0  0  0  0  0  0  0  0
    5.1887    1.3630   -3.1558 H   0  0  0  0  0  0  0  0  0  0  0  0
    4.0825    2.4259   -2.2840 H   0  0  0  0  0  0  0  0  0  0  0  0
    6.9783    1.8016   -1.4421 H   0  0  0  0  0  0  0  0  0  0  0  0
    6.4737    3.2710   -2.3121 H   0  0  0  0  0  0  0  0  0  0  0  0
    5.9214    2.9701   -0.6561 H   0  0  0  0  0  0  0  0  0  0  0  0
  1  2  1  0
  2  3  1  0
  3  4  1  0
  4  5  2  0
  5  6  1  0
  6  7  2  0
  7  8  1  0
  8  9  2  0
  9 10  1  0
  2 11  2  0
 11 12  1  0
 12 13  2  0
 13 14  1  0
 14 15  1  0
 14 16  1  0
 16 17  2  0
 17 18  1  0
 18 19  2  3
 19 20  1  0
 20 21  1  0
 21 22  1  0
 22 23  1  0
 23 24  1  0
 24 25  1  0
 18  1  1  0
  9  4  1  0
 16 11  1  0
  1 26  1  0
  3 27  1  0
  5 28  1  0
  6 29  1  0
  7 30  1  0
  8 31  1  0
 12 32  1  0
 15 33  1  0
 15 34  1  0
 15 35  1  0
 20 36  1  0
 20 37  1  0
 21 38  1  0
 21 39  1  0
 22 40  1  0
 22 41  1  0
 24 42  1  0
 24 43  1  0
 25 44  1  0
 25 45  1  0
 25 46  1  0
M  END
>  <ScrubInfo>  (2) 
{"isomerGroup": 0, "isomerId": 1, "confId": 0, "nr_conformers:": 1, "nr_isomers:": 9}

$$$$
_i2
     RDKit          3D

 46 48  0  0  0  0  0  0  0  0999 V2000
   -1.7208    0.0298    0.1042 N   0  0  0  0  0  0  0  0  0  0  0  0
   -0.3997   -0.3580    0.1897 C   0  0  0  0  0  0  0  0  0  0  0  0
    0.4444    0.7102    0.3546 N   0  0  0  0  0  0  0  0  0  0  0  0
    1.8813    0.5200    0.5348 C   0  0  0  0  0  0  0  0  0  0  0  0
    2.5647    0.2901   -0.8114 C   0  0  0  0  0  0  0  0  0  0  0  0
    4.0465   -0.0173   -0.6425 C   0  0  0  0  0  0  0  0  0  0  0  0
    4.6859    1.0813    0.0053 O   0  0  0  0  0  0  0  0  0  0  0  0
    6.0854    0.8567    0.1658 C   0  0  0  0  0  0  0  0  0  0  0  0
    6.6857    2.0604    0.8643 C   0  0  0  0  0  0  0  0  0  0  0  0
    0.0056   -1.6004    0.1097 N   0  0  0  0  0  0  0  0  0  0  0  0
   -1.0385   -2.4617   -0.0454 C   0  0  0  0  0  0  0  0  0  0  0  0
   -2.3830   -2.1622   -0.1378 C   0  0  0  0  0  0  0  0  0  0  0  0
   -3.0294   -3.3966   -0.2853 C   0  0  0  0  0  0  0  0  0  0  0  0
   -2.1673   -4.4225   -0.2890 N   0  0  0  0  0  0  0  0  0  0  0  0
   -0.9592   -3.8233   -0.1395 N   0  0  0  0  0  0  0  0  0  0  0  0
    0.2304   -4.6349   -0.0953 C   0  0  0  0  0  0  0  0  0  0  0  0
   -2.8147   -0.7900   -0.0795 C   0  0  0  0  0  0  0  0  0  0  0  0
   -4.0724   -0.5294   -0.2110 N   0  0  0  0  0  0  0  0  0  0  0  0
   -4.4785    0.8146   -0.1540 C   0  0  0  0  0  0  0  0  0  0  0  0
   -4.6518    1.5070   -1.3587 C   0  0  0  0  0  0  0  0  0  0  0  0
   -5.0543    2.8441   -1.3649 C   0  0  0  0  0  0  0  0  0  0  0  0
   -5.2991    3.5029   -0.1619 C   0  0  0  0  0  0  0  0  0  0  0  0
   -5.1479    2.8241    1.0474 C   0  0  0  0  0  0  0  0  0  0  0  0
   -4.7447    1.4848    1.0518 C   0  0  0  0  0  0  0  0  0  0  0  0
   -4.5584    0.6177    2.7313 Br  0  0  0  0  0  0  0  0  0  0  0  0
   -1.8940    1.0177    0.0306 H   0  0  0  0  0  0  0  0  0  0  0  0
    0.0819    1.4311    0.9676 H   0  0  0  0  0  0  0  0  0  0  0  0
    2.2870    1.4244    1.0028 H   0  0  0  0  0  0  0  0  0  0  0  0
    2.0738   -0.3079    1.2274 H   0  0  0  0  0  0  0  0  0  0  0  0
    2.4442    1.1913   -1.4256 H   0  0  0  0  0  0  0  0  0  0  0  0
    2.0901   -0.5345   -1.3548 H   0  0  0  0  0  0  0  0  0  0  0  0
    4.5004   -0.1743   -1.6276 H   0  0  0  0  0  0  0  0  0  0  0  0
    4.1799   -0.9263   -0.0444 H   0  0  0  0  0  0  0  0  0  0  0  0
    6.2488   -0.0435    0.7683 H   0  0  0  0  0  0  0  0  0  0  0  0
    6.5535    0.7233   -0.8156 H   0  0  0  0  0  0  0  0  0  0  0  0
    6.5143    2.9705    0.2799 H   0  0  0  0  0  0  0  0  0  0  0  0
    7.7619    1.9311    1.0090 H   0  0  0  0  0  0  0  0  0  0  0  0
    6.2137    2.2149    1.8402 H   0  0  0  0  0  0  0  0  0  0  0  0
   -4.0885   -3.5928   -0.3909 H   0  0  0  0  0  0  0  0  0  0  0  0
    0.1555   -5.3074    0.7630 H   0  0  0  0  0  0  0  0  0  0  0  0
    1.1144   -4.0016    0.0066 H   0  0  0  0  0  0  0  0  0  0  0  0
    0.2913   -5.2071   -1.0245 H   0  0  0  0  0  0  0  0  0  0  0  0
   -4.4771    0.9926   -2.3012 H   0  0  0  0  0  0  0  0  0  0  0  0
   -5.1865    3.3660   -2.3098 H   0  0  0  0  0  0  0  0  0  0  0  0
   -5.6203    4.5420   -0.1661 H   0  0  0  0  0  0  0  0  0  0  0  0
   -5.3546    3.3432    1.9800 H   0  0  0  0  0  0  0  0  0  0  0  0
  1  2  1  0
  2  3  1  0
  3  4  1  0
  4  5  1  0
  5  6  1  0
  6  7  1  0
  7  8  1  0
  8  9  1  0
  2 10  2  0
 10 11  1  0
 11 12  2  0
 12 13  1  0
 13 14  2  0
 14 15  1  0
 15 16  1  0
 12 17  1  0
 17 18  2  3
 18 19  1  0
 19 20  2  0
 20 21  1  0
 21 22  2  0
 22 23  1  0
 23 24  2  0
 24 25  1  0
 17  1  1  0
 24 19  1  0
 15 11  1  0
  1 26  1  0
  3 27  1  0
  4 28  1  0
  4 29  1  0
  5 30  1  0
  5 31  1  0
  6 32  1  0
  6 33  1  0
  8 34  1  0
  8 35  1  0
  9 36  1  0
  9 37  1  0
  9 38  1  0
 13 39  1  0
 16 40  1  0
 16 41  1  0
 16 42  1  0
 20 43  1  0
 21 44  1  0
 22 45  1  0
 23 46  1  0
M  END
>  <ScrubInfo>  (3) 
{"isomerGroup": 0, "isomerId": 2, "confId": 0, "nr_conformers:": 1, "nr_isomers:": 9}

$$$$
_i3
     RDKit          3D

 46 48  0  0  0  0  0  0  0  0999 V2000
    0.2181   -0.7886    0.3662 N   0  0  0  0  0  0  0  0  0  0  0  0
    0.3203    0.4516   -0.2437 C   0  0  0  0  0  0  0  0  0  0  0  0
    1.3618    0.9242   -0.8340 N   0  0  0  0  0  0  0  0  0  0  0  0
    2.5704    0.1107   -0.8935 C   0  0  0  0  0  0  0  0  0  0  0  0
    3.6573    0.9197   -1.5978 C   0  0  0  0  0  0  0  0  0  0  0  0
    4.9327    0.1062   -1.7989 C   0  0  0  0  0  0  0  0  0  0  0  0
    5.4193   -0.4657   -0.5846 O   0  0  0  0  0  0  0  0  0  0  0  0
    6.1044    0.4738    0.2419 C   0  0  0  0  0  0  0  0  0  0  0  0
    6.6234   -0.2596    1.4633 C   0  0  0  0  0  0  0  0  0  0  0  0
   -0.7532    1.3295   -0.2666 N   0  0  0  0  0  0  0  0  0  0  0  0
   -1.8857    0.9850    0.2806 C   0  0  0  0  0  0  0  0  0  0  0  0
   -2.9714    1.8258    0.2800 N   0  0  0  0  0  0  0  0  0  0  0  0
   -4.2947    1.4346   -0.0501 C   0  0  0  0  0  0  0  0  0  0  0  0
   -5.3179    1.9239    0.7809 C   0  0  0  0  0  0  0  0  0  0  0  0
   -6.6599    1.6400    0.5218 C   0  0  0  0  0  0  0  0  0  0  0  0
   -7.0055    0.8851   -0.5939 C   0  0  0  0  0  0  0  0  0  0  0  0
   -6.0108    0.4309   -1.4588 C   0  0  0  0  0  0  0  0  0  0  0  0
   -4.6632    0.7158   -1.2021 C   0  0  0  0  0  0  0  0  0  0  0  0
   -3.4093    0.1319   -2.5054 Br  0  0  0  0  0  0  0  0  0  0  0  0
   -2.0214   -0.2843    0.9587 C   0  0  0  0  0  0  0  0  0  0  0  0
   -2.9913   -0.9798    1.6971 C   0  0  0  0  0  0  0  0  0  0  0  0
   -2.5540   -2.1778    2.1177 N   0  0  0  0  0  0  0  0  0  0  0  0
   -1.2861   -2.2437    1.6435 N   0  0  0  0  0  0  0  0  0  0  0  0
   -0.4969   -3.4179    1.9151 C   0  0  0  0  0  0  0  0  0  0  0  0
   -0.9404   -1.1223    0.9595 C   0  0  0  0  0  0  0  0  0  0  0  0
    1.0371   -1.3774    0.3598 H   0  0  0  0  0  0  0  0  0  0  0  0
    2.3802   -0.8116   -1.4552 H   0  0  0  0  0  0  0  0  0  0  0  0
    2.9049   -0.1514    0.1171 H   0  0  0  0  0  0  0  0  0  0  0  0
    3.2956    1.2653   -2.5739 H   0  0  0  0  0  0  0  0  0  0  0  0
    3.8697    1.8193   -1.0086 H   0  0  0  0  0  0  0  0  0  0  0  0
    4.7218   -0.7280   -2.4773 H   0  0  0  0  0  0  0  0  0  0  0  0
    5.7128    0.7130   -2.2733 H   0  0  0  0  0  0  0  0  0  0  0  0
    6.9424    0.9128   -0.3103 H   0  0  0  0  0  0  0  0  0  0  0  0
    5.4230    1.2698    0.5566 H   0  0  0  0  0  0  0  0  0  0  0  0
    7.2980   -1.0703    1.1688 H   0  0  0  0  0  0  0  0  0  0  0  0
    7.1600    0.4220    2.1291 H   0  0  0  0  0  0  0  0  0  0  0  0
    5.7973   -0.7177    2.0173 H   0  0  0  0  0  0  0  0  0  0  0  0
   -2.7294    2.6491   -0.2694 H   0  0  0  0  0  0  0  0  0  0  0  0
   -5.0636    2.5198    1.6560 H   0  0  0  0  0  0  0  0  0  0  0  0
   -7.4330    2.0114    1.1902 H   0  0  0  0  0  0  0  0  0  0  0  0
   -8.0496    0.6623   -0.8002 H   0  0  0  0  0  0  0  0  0  0  0  0
   -6.2973   -0.1356   -2.3422 H   0  0  0  0  0  0  0  0  0  0  0  0
   -3.9974   -0.6778    1.9558 H   0  0  0  0  0  0  0  0  0  0  0  0
   -0.3199   -3.4703    2.9922 H   0  0  0  0  0  0  0  0  0  0  0  0
   -1.0534   -4.2953    1.5758 H   0  0  0  0  0  0  0  0  0  0  0  0
    0.4549   -3.3587    1.3833 H   0  0  0  0  0  0  0  0  0  0  0  0
  1  2  1  0
  2  3  2  3
  3  4  1  0
  4  5  1  0
  5  6  1  0
  6  7  1  0
  7  8  1  0
  8  9  1  0
  2 10  1  0
 10 11  2  0
 11 12  1  0
 12 13  1  0
 13 14  2  0
 14 15  1  0
 15 16  2  0
 16 17  1  0
 17 18  2  0
 18 19  1  0
 11 20  1  0
 20 21  1  0
 21 22  2  0
 22 23  1  0
 23 24  1  0
 23 25  1  0
 25  1  1  0
 18 13  1  0
 25 20  2  0
  1 26  1  0
  4 27  1  0
  4 28  1  0
  5 29  1  0
  5 30  1  0
  6 31  1  0
  6 32  1  0
  8 33  1  0
  8 34  1  0
  9 35  1  0
  9 36  1  0
  9 37  1  0
 12 38  1  0
 14 39  1  0
 15 40  1  0
 16 41  1  0
 17 42  1  0
 21 43  1  0
 24 44  1  0
 24 45  1  0
 24 46  1  0
M  END
>  <ScrubInfo>  (4) 
{"isomerGroup": 0, "isomerId": 3, "confId": 0, "nr_conformers:": 1, "nr_isomers:": 9}

$$$$
_i4
     RDKit          3D

 46 48  0  0  0  0  0  0  0  0999 V2000
   -3.4226    2.0900   -1.3072 N   0  0  0  0  0  0  0  0  0  0  0  0
   -3.6385    0.9482   -0.5419 C   0  0  0  0  0  0  0  0  0  0  0  0
   -2.5079    0.3138   -0.1947 C   0  0  0  0  0  0  0  0  0  0  0  0
   -2.0848   -0.8463    0.5792 C   0  0  0  0  0  0  0  0  0  0  0  0
   -2.7763   -1.7574    1.1790 N   0  0  0  0  0  0  0  0  0  0  0  0
   -4.1769   -1.7456    1.1332 C   0  0  0  0  0  0  0  0  0  0  0  0
   -4.8716   -1.1690    2.2042 C   0  0  0  0  0  0  0  0  0  0  0  0
   -6.2678   -1.1478    2.2253 C   0  0  0  0  0  0  0  0  0  0  0  0
   -6.9882   -1.7191    1.1786 C   0  0  0  0  0  0  0  0  0  0  0  0
   -6.3137   -2.3184    0.1146 C   0  0  0  0  0  0  0  0  0  0  0  0
   -4.9149   -2.3386    0.0949 C   0  0  0  0  0  0  0  0  0  0  0  0
   -4.0595   -3.1743   -1.3806 Br  0  0  0  0  0  0  0  0  0  0  0  0
   -0.7255   -0.9737    0.6885 N   0  0  0  0  0  0  0  0  0  0  0  0
    0.1161   -0.1770    0.0998 C   0  0  0  0  0  0  0  0  0  0  0  0
    1.4379   -0.4476    0.3037 N   0  0  0  0  0  0  0  0  0  0  0  0
    2.4784    0.5426    0.1409 C   0  0  0  0  0  0  0  0  0  0  0  0
    3.8448   -0.1063    0.3313 C   0  0  0  0  0  0  0  0  0  0  0  0
    4.9661    0.9031    0.1092 C   0  0  0  0  0  0  0  0  0  0  0  0
    6.2402    0.3488    0.4339 O   0  0  0  0  0  0  0  0  0  0  0  0
    6.7764   -0.4818   -0.5936 C   0  0  0  0  0  0  0  0  0  0  0  0
    8.1531   -0.9459   -0.1595 C   0  0  0  0  0  0  0  0  0  0  0  0
   -0.2186    0.8925   -0.6864 N   0  0  0  0  0  0  0  0  0  0  0  0
   -1.4720    1.1329   -0.8519 C   0  0  0  0  0  0  0  0  0  0  0  0
   -2.0691    2.1441   -1.6060 N   0  0  0  0  0  0  0  0  0  0  0  0
   -1.4311    3.4363   -1.7638 C   0  0  0  0  0  0  0  0  0  0  0  0
   -4.0606    2.1662   -2.1032 H   0  0  0  0  0  0  0  0  0  0  0  0
   -4.6572    0.6809   -0.3038 H   0  0  0  0  0  0  0  0  0  0  0  0
   -4.3126   -0.7392    3.0323 H   0  0  0  0  0  0  0  0  0  0  0  0
   -6.7899   -0.6959    3.0652 H   0  0  0  0  0  0  0  0  0  0  0  0
   -8.0754   -1.7108    1.1979 H   0  0  0  0  0  0  0  0  0  0  0  0
   -6.8845   -2.7753   -0.6899 H   0  0  0  0  0  0  0  0  0  0  0  0
    1.5636   -1.1183    1.0536 H   0  0  0  0  0  0  0  0  0  0  0  0
    2.3393    1.3460    0.8735 H   0  0  0  0  0  0  0  0  0  0  0  0
    2.4233    0.9851   -0.8606 H   0  0  0  0  0  0  0  0  0  0  0  0
    3.9289   -0.5345    1.3382 H   0  0  0  0  0  0  0  0  0  0  0  0
    3.9539   -0.9514   -0.3586 H   0  0  0  0  0  0  0  0  0  0  0  0
    4.8206    1.7597    0.7766 H   0  0  0  0  0  0  0  0  0  0  0  0
    4.9665    1.2885   -0.9172 H   0  0  0  0  0  0  0  0  0  0  0  0
    6.1317   -1.3511   -0.7542 H   0  0  0  0  0  0  0  0  0  0  0  0
    6.8551    0.0860   -1.5271 H   0  0  0  0  0  0  0  0  0  0  0  0
    8.0932   -1.5026    0.7816 H   0  0  0  0  0  0  0  0  0  0  0  0
    8.8108   -0.0887    0.0186 H   0  0  0  0  0  0  0  0  0  0  0  0
    8.6068   -1.5868   -0.9206 H   0  0  0  0  0  0  0  0  0  0  0  0
   -1.3641    3.9573   -0.8030 H   0  0  0  0  0  0  0  0  0  0  0  0
   -0.4216    3.3208   -2.1711 H   0  0  0  0  0  0  0  0  0  0  0  0
   -2.0019    4.0606   -2.4590 H   0  0  0  0  0  0  0  0  0  0  0  0
  1  2  1  0
  2  3  2  0
  3  4  1  0
  4  5  2  3
  5  6  1  0
  6  7  2  0
  7  8  1  0
  8  9  2  0
  9 10  1  0
 10 11  2  0
 11 12  1  0
  4 13  1  0
 13 14  2  0
 14 15  1  0
 15 16  1  0
 16 17  1  0
 17 18  1  0
 18 19  1  0
 19 20  1  0
 20 21  1  0
 14 22  1  0
 22 23  2  0
 23 24  1  0
 24 25  1  0
 24  1  1  0
 23  3  1  0
 11  6  1  0
  1 26  1  0
  2 27  1  0
  7 28  1  0
  8 29  1  0
  9 30  1  0
 10 31  1  0
 15 32  1  0
 16 33  1  0
 16 34  1  0
 17 35  1  0
 17 36  1  0
 18 37  1  0
 18 38  1  0
 20 39  1  0
 20 40  1  0
 21 41  1  0
 21 42  1  0
 21 43  1  0
 25 44  1  0
 25 45  1  0
 25 46  1  0
M  END
>  <ScrubInfo>  (5) 
{"isomerGroup": 0, "isomerId": 4, "confId": 0, "nr_conformers:": 1, "nr_isomers:": 9}

$$$$
_i5
     RDKit          3D

 46 48  0  0  0  0  0  0  0  0999 V2000
   -0.0410    0.4105   -1.0089 N   0  0  0  0  0  0  0  0  0  0  0  0
   -0.0047    1.1158    0.1674 C   0  0  0  0  0  0  0  0  0  0  0  0
    1.1721    1.7576    0.4311 N   0  0  0  0  0  0  0  0  0  0  0  0
    2.4535    1.0583    0.3960 C   0  0  0  0  0  0  0  0  0  0  0  0
    3.5718    2.0282    0.7751 C   0  0  0  0  0  0  0  0  0  0  0  0
    4.9504    1.4004    0.6075 C   0  0  0  0  0  0  0  0  0  0  0  0
    5.0354    0.2384    1.4270 O   0  0  0  0  0  0  0  0  0  0  0  0
    6.3263   -0.3690    1.4224 C   0  0  0  0  0  0  0  0  0  0  0  0
    6.5451   -1.2036    0.1732 C   0  0  0  0  0  0  0  0  0  0  0  0
   -0.9914    1.2327    1.0097 N   0  0  0  0  0  0  0  0  0  0  0  0
   -2.1944    0.5822    0.7616 C   0  0  0  0  0  0  0  0  0  0  0  0
   -3.0918    0.6799    1.6905 N   0  0  0  0  0  0  0  0  0  0  0  0
   -4.3419    0.0578    1.5998 C   0  0  0  0  0  0  0  0  0  0  0  0
   -5.4300    0.8140    1.1454 C   0  0  0  0  0  0  0  0  0  0  0  0
   -6.7067    0.2543    1.0618 C   0  0  0  0  0  0  0  0  0  0  0  0
   -6.9136   -1.0679    1.4494 C   0  0  0  0  0  0  0  0  0  0  0  0
   -5.8468   -1.8282    1.9296 C   0  0  0  0  0  0  0  0  0  0  0  0
   -4.5686   -1.2661    2.0132 C   0  0  0  0  0  0  0  0  0  0  0  0
   -3.1623   -2.3508    2.6869 Br  0  0  0  0  0  0  0  0  0  0  0  0
   -2.3035   -0.1207   -0.5069 C   0  0  0  0  0  0  0  0  0  0  0  0
   -3.2857   -0.8194   -1.2323 C   0  0  0  0  0  0  0  0  0  0  0  0
   -2.8402   -1.2687   -2.4170 N   0  0  0  0  0  0  0  0  0  0  0  0
   -1.5525   -0.8582   -2.4511 N   0  0  0  0  0  0  0  0  0  0  0  0
   -0.7443   -1.1797   -3.5993 C   0  0  0  0  0  0  0  0  0  0  0  0
   -1.2085   -0.1700   -1.3326 C   0  0  0  0  0  0  0  0  0  0  0  0
    0.7098    0.5730   -1.6646 H   0  0  0  0  0  0  0  0  0  0  0  0
    1.0545    2.2422    1.3211 H   0  0  0  0  0  0  0  0  0  0  0  0
    2.6391    0.6640   -0.6091 H   0  0  0  0  0  0  0  0  0  0  0  0
    2.4257    0.2124    1.0923 H   0  0  0  0  0  0  0  0  0  0  0  0
    3.5109    2.9350    0.1614 H   0  0  0  0  0  0  0  0  0  0  0  0
    3.4346    2.3348    1.8198 H   0  0  0  0  0  0  0  0  0  0  0  0
    5.7164    2.1233    0.9104 H   0  0  0  0  0  0  0  0  0  0  0  0
    5.1125    1.1341   -0.4420 H   0  0  0  0  0  0  0  0  0  0  0  0
    6.3706   -1.0251    2.2979 H   0  0  0  0  0  0  0  0  0  0  0  0
    7.1105    0.3871    1.5405 H   0  0  0  0  0  0  0  0  0  0  0  0
    5.7225   -1.9125    0.0338 H   0  0  0  0  0  0  0  0  0  0  0  0
    6.5849   -0.5767   -0.7224 H   0  0  0  0  0  0  0  0  0  0  0  0
    7.4845   -1.7599    0.2415 H   0  0  0  0  0  0  0  0  0  0  0  0
   -5.2757    1.8514    0.8578 H   0  0  0  0  0  0  0  0  0  0  0  0
   -7.5388    0.8544    0.7019 H   0  0  0  0  0  0  0  0  0  0  0  0
   -7.9078   -1.5039    1.3883 H   0  0  0  0  0  0  0  0  0  0  0  0
   -6.0206   -2.8548    2.2417 H   0  0  0  0  0  0  0  0  0  0  0  0
   -4.3148   -1.0245   -0.9725 H   0  0  0  0  0  0  0  0  0  0  0  0
   -1.1008   -0.5866   -4.4451 H   0  0  0  0  0  0  0  0  0  0  0  0
   -0.8474   -2.2472   -3.8105 H   0  0  0  0  0  0  0  0  0  0  0  0
    0.3029   -0.9479   -3.3938 H   0  0  0  0  0  0  0  0  0  0  0  0
  1  2  1  0
  2  3  1  0
  3  4  1  0
  4  5  1  0
  5  6  1  0
  6  7  1  0
  7  8  1  0
  8  9  1  0
  2 10  2  0
 10 11  1  0
 11 12  2  3
 12 13  1  0
 13 14  2  0
 14 15  1  0
 15 16  2  0
 16 17  1  0
 17 18  2  0
 18 19  1  0
 11 20  1  0
 20 21  1  0
 21 22  2  0
 22 23  1  0
 23 24  1  0
 23 25  1  0
 25  1  1  0
 18 13  1  0
 25 20  2  0
  1 26  1  0
  3 27  1  0
  4 28  1  0
  4 29  1  0
  5 30  1  0
  5 31  1  0
  6 32  1  0
  6 33  1  0
  8 34  1  0
  8 35  1  0
  9 36  1  0
  9 37  1  0
  9 38  1  0
 14 39  1  0
 15 40  1  0
 16 41  1  0
 17 42  1  0
 21 43  1  0
 24 44  1  0
 24 45  1  0
 24 46  1  0
M  END
>  <ScrubInfo>  (6) 
{"isomerGroup": 0, "isomerId": 5, "confId": 0, "nr_conformers:": 1, "nr_isomers:": 9}

$$$$
_i6
     RDKit          3D

 46 48  0  0  0  0  0  0  0  0999 V2000
   -2.6147   -4.3424    0.1712 N   0  0  0  0  0  0  0  0  0  0  0  0
   -3.2775   -3.1258    0.0503 C   0  0  0  0  0  0  0  0  0  0  0  0
   -2.4436   -2.0765    0.0304 C   0  0  0  0  0  0  0  0  0  0  0  0
   -2.5212   -0.6176   -0.0982 C   0  0  0  0  0  0  0  0  0  0  0  0
   -3.7620   -0.0209   -0.2026 N   0  0  0  0  0  0  0  0  0  0  0  0
   -4.1264    1.3362   -0.3496 C   0  0  0  0  0  0  0  0  0  0  0  0
   -3.2029    2.3853   -0.4279 C   0  0  0  0  0  0  0  0  0  0  0  0
   -3.6193    3.7153   -0.5701 C   0  0  0  0  0  0  0  0  0  0  0  0
   -4.9733    4.0270   -0.6361 C   0  0  0  0  0  0  0  0  0  0  0  0
   -5.9168    3.0080   -0.5601 C   0  0  0  0  0  0  0  0  0  0  0  0
   -5.4956    1.6812   -0.4183 C   0  0  0  0  0  0  0  0  0  0  0  0
   -6.8445    0.3375   -0.3201 Br  0  0  0  0  0  0  0  0  0  0  0  0
   -1.3926    0.0289   -0.1056 N   0  0  0  0  0  0  0  0  0  0  0  0
   -0.2001   -0.6494   -0.0087 C   0  0  0  0  0  0  0  0  0  0  0  0
    0.8346    0.1093   -0.1061 N   0  0  0  0  0  0  0  0  0  0  0  0
    2.1487   -0.5204   -0.0117 C   0  0  0  0  0  0  0  0  0  0  0  0
    3.2100    0.5632   -0.1825 C   0  0  0  0  0  0  0  0  0  0  0  0
    4.6143   -0.0144   -0.0379 C   0  0  0  0  0  0  0  0  0  0  0  0
    5.6271    0.9446   -0.3445 O   0  0  0  0  0  0  0  0  0  0  0  0
    5.8215    1.9137    0.6824 C   0  0  0  0  0  0  0  0  0  0  0  0
    7.0027    2.7831    0.2970 C   0  0  0  0  0  0  0  0  0  0  0  0
   -0.0343   -2.0028    0.1797 N   0  0  0  0  0  0  0  0  0  0  0  0
   -1.1152   -2.7004    0.2111 C   0  0  0  0  0  0  0  0  0  0  0  0
   -1.2680   -4.0754    0.3928 N   0  0  0  0  0  0  0  0  0  0  0  0
   -0.2716   -5.0078   -0.1000 C   0  0  0  0  0  0  0  0  0  0  0  0
   -3.0576   -4.9900    0.8277 H   0  0  0  0  0  0  0  0  0  0  0  0
   -4.3557   -3.1272   -0.0140 H   0  0  0  0  0  0  0  0  0  0  0  0
   -4.5727   -0.6288   -0.1864 H   0  0  0  0  0  0  0  0  0  0  0  0
   -2.1328    2.2032   -0.3831 H   0  0  0  0  0  0  0  0  0  0  0  0
   -2.8736    4.5052   -0.6289 H   0  0  0  0  0  0  0  0  0  0  0  0
   -5.2899    5.0609   -0.7466 H   0  0  0  0  0  0  0  0  0  0  0  0
   -6.9739    3.2546   -0.6118 H   0  0  0  0  0  0  0  0  0  0  0  0
    2.2759   -1.2757   -0.7970 H   0  0  0  0  0  0  0  0  0  0  0  0
    2.2756   -0.9993    0.9669 H   0  0  0  0  0  0  0  0  0  0  0  0
    3.1074    1.0470   -1.1620 H   0  0  0  0  0  0  0  0  0  0  0  0
    3.0475    1.3557    0.5573 H   0  0  0  0  0  0  0  0  0  0  0  0
    4.7776   -0.4265    0.9650 H   0  0  0  0  0  0  0  0  0  0  0  0
    4.7430   -0.8379   -0.7490 H   0  0  0  0  0  0  0  0  0  0  0  0
    6.0263    1.4136    1.6352 H   0  0  0  0  0  0  0  0  0  0  0  0
    4.9297    2.5387    0.7870 H   0  0  0  0  0  0  0  0  0  0  0  0
    6.8194    3.2797   -0.6617 H   0  0  0  0  0  0  0  0  0  0  0  0
    7.1915    3.5448    1.0587 H   0  0  0  0  0  0  0  0  0  0  0  0
    7.9050    2.1751    0.1737 H   0  0  0  0  0  0  0  0  0  0  0  0
    0.7174   -4.7617    0.2997 H   0  0  0  0  0  0  0  0  0  0  0  0
   -0.5155   -6.0273    0.2157 H   0  0  0  0  0  0  0  0  0  0  0  0
   -0.2239   -4.9839   -1.1937 H   0  0  0  0  0  0  0  0  0  0  0  0
  1  2  1  0
  2  3  2  0
  3  4  1  0
  4  5  1  0
  5  6  1  0
  6  7  2  0
  7  8  1  0
  8  9  2  0
  9 10  1  0
 10 11  2  0
 11 12  1  0
  4 13  2  0
 13 14  1  0
 14 15  2  3
 15 16  1  0
 16 17  1  0
 17 18  1  0
 18 19  1  0
 19 20  1  0
 20 21  1  0
 14 22  1  0
 22 23  2  0
 23 24  1  0
 24 25  1  0
 24  1  1  0
 23  3  1  0
 11  6  1  0
  1 26  1  0
  2 27  1  0
  5 28  1  0
  7 29  1  0
  8 30  1  0
  9 31  1  0
 10 32  1  0
 16 33  1  0
 16 34  1  0
 17 35  1  0
 17 36  1  0
 18 37  1  0
 18 38  1  0
 20 39  1  0
 20 40  1  0
 21 41  1  0
 21 42  1  0
 21 43  1  0
 25 44  1  0
 25 45  1  0
 25 46  1  0
M  END
>  <ScrubInfo>  (7) 
{"isomerGroup": 0, "isomerId": 6, "confId": 0, "nr_conformers:": 1, "nr_isomers:": 9}

$$$$
_i7
     RDKit          3D

 46 48  0  0  0  0  0  0  0  0999 V2000
    1.6626   -3.9709    0.3928 N   0  0  0  0  0  0  0  0  0  0  0  0
    2.6505   -2.9927    0.4464 C   0  0  0  0  0  0  0  0  0  0  0  0
    2.1846   -1.7663    0.1828 C   0  0  0  0  0  0  0  0  0  0  0  0
    2.6958   -0.3947    0.1235 C   0  0  0  0  0  0  0  0  0  0  0  0
    3.9596   -0.1778    0.3374 N   0  0  0  0  0  0  0  0  0  0  0  0
    4.4395    1.1417    0.2647 C   0  0  0  0  0  0  0  0  0  0  0  0
    4.5082    1.8937    1.4437 C   0  0  0  0  0  0  0  0  0  0  0  0
    4.9774    3.2089    1.4272 C   0  0  0  0  0  0  0  0  0  0  0  0
    5.3944    3.7843    0.2287 C   0  0  0  0  0  0  0  0  0  0  0  0
    5.3491    3.0438   -0.9527 C   0  0  0  0  0  0  0  0  0  0  0  0
    4.8793    1.7268   -0.9343 C   0  0  0  0  0  0  0  0  0  0  0  0
    4.8459    0.7686   -2.5740 Br  0  0  0  0  0  0  0  0  0  0  0  0
    1.7067    0.5141   -0.1582 N   0  0  0  0  0  0  0  0  0  0  0  0
    0.3810    0.2406   -0.3704 C   0  0  0  0  0  0  0  0  0  0  0  0
   -0.4179    1.2368   -0.5734 N   0  0  0  0  0  0  0  0  0  0  0  0
   -1.8386    0.9586   -0.8127 C   0  0  0  0  0  0  0  0  0  0  0  0
   -2.5952    0.9669    0.5147 C   0  0  0  0  0  0  0  0  0  0  0  0
   -4.1026    0.8637    0.3126 C   0  0  0  0  0  0  0  0  0  0  0  0
   -4.4219   -0.4006   -0.2653 O   0  0  0  0  0  0  0  0  0  0  0  0
   -5.8170   -0.5797   -0.4957 C   0  0  0  0  0  0  0  0  0  0  0  0
   -6.2514    0.0816   -1.7915 C   0  0  0  0  0  0  0  0  0  0  0  0
   -0.1034   -1.0503   -0.3629 N   0  0  0  0  0  0  0  0  0  0  0  0
    0.7394   -2.0039   -0.1195 C   0  0  0  0  0  0  0  0  0  0  0  0
    0.4918   -3.3779   -0.0764 N   0  0  0  0  0  0  0  0  0  0  0  0
   -0.7909   -3.8890    0.3680 C   0  0  0  0  0  0  0  0  0  0  0  0
    1.9620   -4.8171   -0.0970 H   0  0  0  0  0  0  0  0  0  0  0  0
    3.6685   -3.2704    0.6807 H   0  0  0  0  0  0  0  0  0  0  0  0
    4.1950    1.4453    2.3836 H   0  0  0  0  0  0  0  0  0  0  0  0
    5.0229    3.7801    2.3513 H   0  0  0  0  0  0  0  0  0  0  0  0
    5.7633    4.8072    0.2153 H   0  0  0  0  0  0  0  0  0  0  0  0
    5.6857    3.4984   -1.8811 H   0  0  0  0  0  0  0  0  0  0  0  0
    1.9365    1.4945   -0.2043 H   0  0  0  0  0  0  0  0  0  0  0  0
   -2.2227    1.7600   -1.4551 H   0  0  0  0  0  0  0  0  0  0  0  0
   -2.0046    0.0290   -1.3697 H   0  0  0  0  0  0  0  0  0  0  0  0
   -2.2503    0.1297    1.1333 H   0  0  0  0  0  0  0  0  0  0  0  0
   -2.3684    1.8895    1.0623 H   0  0  0  0  0  0  0  0  0  0  0  0
   -4.4504    1.6781   -0.3312 H   0  0  0  0  0  0  0  0  0  0  0  0
   -4.6022    0.9488    1.2844 H   0  0  0  0  0  0  0  0  0  0  0  0
   -6.4030   -0.2153    0.3555 H   0  0  0  0  0  0  0  0  0  0  0  0
   -5.9903   -1.6580   -0.5746 H   0  0  0  0  0  0  0  0  0  0  0  0
   -6.1546    1.1698   -1.7358 H   0  0  0  0  0  0  0  0  0  0  0  0
   -7.2951   -0.1577   -2.0151 H   0  0  0  0  0  0  0  0  0  0  0  0
   -5.6248   -0.2541   -2.6242 H   0  0  0  0  0  0  0  0  0  0  0  0
   -0.9589   -3.6524    1.4238 H   0  0  0  0  0  0  0  0  0  0  0  0
   -0.8309   -4.9760    0.2444 H   0  0  0  0  0  0  0  0  0  0  0  0
   -1.6047   -3.4556   -0.2224 H   0  0  0  0  0  0  0  0  0  0  0  0
  1  2  1  0
  2  3  2  0
  3  4  1  0
  4  5  2  3
  5  6  1  0
  6  7  2  0
  7  8  1  0
  8  9  2  0
  9 10  1  0
 10 11  2  0
 11 12  1  0
  4 13  1  0
 13 14  1  0
 14 15  2  3
 15 16  1  0
 16 17  1  0
 17 18  1  0
 18 19  1  0
 19 20  1  0
 20 21  1  0
 14 22  1  0
 22 23  2  0
 23 24  1  0
 24 25  1  0
 24  1  1  0
 23  3  1  0
 11  6  1  0
  1 26  1  0
  2 27  1  0
  7 28  1  0
  8 29  1  0
  9 30  1  0
 10 31  1  0
 13 32  1  0
 16 33  1  0
 16 34  1  0
 17 35  1  0
 17 36  1  0
 18 37  1  0
 18 38  1  0
 20 39  1  0
 20 40  1  0
 21 41  1  0
 21 42  1  0
 21 43  1  0
 25 44  1  0
 25 45  1  0
 25 46  1  0
M  END
>  <ScrubInfo>  (8) 
{"isomerGroup": 0, "isomerId": 7, "confId": 0, "nr_conformers:": 1, "nr_isomers:": 9}

$$$$
_i8
     RDKit          3D

 46 48  0  0  0  0  0  0  0  0999 V2000
   -0.0623   -1.7383    0.4522 N   0  0  0  0  0  0  0  0  0  0  0  0
   -0.2184   -0.3597    0.4504 C   0  0  0  0  0  0  0  0  0  0  0  0
    0.6962    0.5491    0.4521 N   0  0  0  0  0  0  0  0  0  0  0  0
    2.1091    0.1764    0.4766 C   0  0  0  0  0  0  0  0  0  0  0  0
    2.6311    0.0715   -0.9545 C   0  0  0  0  0  0  0  0  0  0  0  0
    4.0784   -0.4103   -1.0100 C   0  0  0  0  0  0  0  0  0  0  0  0
    4.9522    0.3498   -0.1800 O   0  0  0  0  0  0  0  0  0  0  0  0
    5.2904    1.6215   -0.7302 C   0  0  0  0  0  0  0  0  0  0  0  0
    6.2746    2.2965    0.2050 C   0  0  0  0  0  0  0  0  0  0  0  0
   -1.5381    0.0490    0.4357 N   0  0  0  0  0  0  0  0  0  0  0  0
   -2.7135   -0.6755    0.4168 C   0  0  0  0  0  0  0  0  0  0  0  0
   -3.9497   -0.3006    0.3985 N   0  0  0  0  0  0  0  0  0  0  0  0
   -4.2224    1.0781    0.3831 C   0  0  0  0  0  0  0  0  0  0  0  0
   -4.4736    1.7212    1.6012 C   0  0  0  0  0  0  0  0  0  0  0  0
   -4.7517    3.0889    1.6445 C   0  0  0  0  0  0  0  0  0  0  0  0
   -4.7923    3.8289    0.4647 C   0  0  0  0  0  0  0  0  0  0  0  0
   -4.5612    3.2013   -0.7596 C   0  0  0  0  0  0  0  0  0  0  0  0
   -4.2830    1.8314   -0.8013 C   0  0  0  0  0  0  0  0  0  0  0  0
   -3.9808    1.0351   -2.4990 Br  0  0  0  0  0  0  0  0  0  0  0  0
   -2.4399   -2.0925    0.4205 C   0  0  0  0  0  0  0  0  0  0  0  0
   -3.2241   -3.2549    0.4021 C   0  0  0  0  0  0  0  0  0  0  0  0
   -2.4790   -4.3710    0.4130 N   0  0  0  0  0  0  0  0  0  0  0  0
   -1.2046   -3.9107    0.4395 N   0  0  0  0  0  0  0  0  0  0  0  0
   -0.1221   -4.8617    0.4553 C   0  0  0  0  0  0  0  0  0  0  0  0
   -1.1451   -2.5498    0.4396 C   0  0  0  0  0  0  0  0  0  0  0  0
    0.8811   -2.0983    0.4484 H   0  0  0  0  0  0  0  0  0  0  0  0
    2.2912   -0.7455    1.0395 H   0  0  0  0  0  0  0  0  0  0  0  0
    2.6506    0.9641    1.0129 H   0  0  0  0  0  0  0  0  0  0  0  0
    2.0077   -0.6169   -1.5377 H   0  0  0  0  0  0  0  0  0  0  0  0
    2.5415    1.0522   -1.4363 H   0  0  0  0  0  0  0  0  0  0  0  0
    4.1222   -1.4439   -0.6486 H   0  0  0  0  0  0  0  0  0  0  0  0
    4.4470   -0.4194   -2.0424 H   0  0  0  0  0  0  0  0  0  0  0  0
    5.7473    1.4900   -1.7170 H   0  0  0  0  0  0  0  0  0  0  0  0
    4.3947    2.2425   -0.8274 H   0  0  0  0  0  0  0  0  0  0  0  0
    7.1738    1.6835    0.3265 H   0  0  0  0  0  0  0  0  0  0  0  0
    5.8365    2.4207    1.2009 H   0  0  0  0  0  0  0  0  0  0  0  0
    6.5658    3.2787   -0.1776 H   0  0  0  0  0  0  0  0  0  0  0  0
   -1.6330    1.0536    0.4295 H   0  0  0  0  0  0  0  0  0  0  0  0
   -4.4556    1.1459    2.5240 H   0  0  0  0  0  0  0  0  0  0  0  0
   -4.9436    3.5731    2.5990 H   0  0  0  0  0  0  0  0  0  0  0  0
   -5.0131    4.8932    0.4971 H   0  0  0  0  0  0  0  0  0  0  0  0
   -4.6053    3.7854   -1.6755 H   0  0  0  0  0  0  0  0  0  0  0  0
   -4.3033   -3.3370    0.3798 H   0  0  0  0  0  0  0  0  0  0  0  0
   -0.3316   -5.6166    1.2177 H   0  0  0  0  0  0  0  0  0  0  0  0
   -0.0595   -5.3238   -0.5330 H   0  0  0  0  0  0  0  0  0  0  0  0
    0.8155   -4.3551    0.6929 H   0  0  0  0  0  0  0  0  0  0  0  0
  1  2  1  0
  2  3  2  3
  3  4  1  0
  4  5  1  0
  5  6  1  0
  6  7  1  0
  7  8  1  0
  8  9  1  0
  2 10  1  0
 10 11  1  0
 11 12  2  3
 12 13  1  0
 13 14  2  0
 14 15  1  0
 15 16  2  0
 16 17  1  0
 17 18  2  0
 18 19  1  0
 11 20  1  0
 20 21  1  0
 21 22  2  0
 22 23  1  0
 23 24  1  0
 23 25  1  0
 25  1  1  0
 18 13  1  0
 25 20  2  0
  1 26  1  0
  4 27  1  0
  4 28  1  0
  5 29  1  0
  5 30  1  0
  6 31  1  0
  6 32  1  0
  8 33  1  0
  8 34  1  0
  9 35  1  0
  9 36  1  0
  9 37  1  0
 10 38  1  0
 14 39  1  0
 15 40  1  0
 16 41  1  0
 17 42  1  0
 21 43  1  0
 24 44  1  0
 24 45  1  0
 24 46  1  0
M  END
>  <ScrubInfo>  (9) 
{"isomerGroup": 0, "isomerId": 8, "confId": 0, "nr_conformers:": 1, "nr_isomers:": 9}

$$$$
