REMARK SMILES CCOCCCNc1nc(Nc2ccccc2Br)c2cnn(C)c2n1
REMARK SMILES IDX 6 1 5 2 4 3 3 4 2 5 1 6 7 7 8 9 9 10 25 11 10 12 24 13 19 14
REMARK SMILES IDX 22 15 20 16 21 17 23 18 11 19 12 21 13 22 17 23 14 24 16 25
REMARK SMILES IDX 15 26 18 27
REMARK H PARENT 7 8 11 20
ROOT
ATOM      1  C   UNL     1       2.425   0.799   1.364  1.00  0.00     0.118 C 
ENDROOT
BRANCH   1   2
ATOM      2  C   UNL     1       3.902   0.480   1.152  1.00  0.00     0.050 C 
BRANCH   2   3
ATOM      3  C   UNL     1       4.421   1.016  -0.180  1.00  0.00     0.162 C 
BRANCH   3   4
ATOM      4  O   UNL     1       5.834   0.820  -0.285  1.00  0.00    -0.382 OA
BRANCH   4   5
ATOM      5  C   UNL     1       6.182  -0.470  -0.782  1.00  0.00     0.156 C 
ATOM      6  C   UNL     1       7.693  -0.561  -0.853  1.00  0.00     0.035 C 
ENDBRANCH   4   5
ENDBRANCH   3   4
ENDBRANCH   2   3
ENDBRANCH   1   2
BRANCH   1   7
ATOM      7  N   UNL     1       1.613   0.031   0.434  1.00  0.00    -0.354 N 
ATOM      8  H   UNL     1       1.729  -0.976   0.492  1.00  0.00     0.163 HD
BRANCH   7   9
ATOM      9  C   UNL     1       0.243   0.241   0.555  1.00  0.00     0.226 A 
ATOM     10  N   UNL     1      -0.507  -0.856   0.351  1.00  0.00    -0.195 NA
ATOM     11  N   UNL     1      -0.222   1.461   0.850  1.00  0.00    -0.193 NA
ATOM     12  C   UNL     1      -1.862  -0.788   0.427  1.00  0.00     0.147 A 
ATOM     13  C   UNL     1      -1.560   1.506   0.918  1.00  0.00     0.165 A 
ATOM     14  C   UNL     1      -2.434   0.453   0.725  1.00  0.00     0.082 A 
ATOM     15  N   UNL     1      -2.336   2.601   1.186  1.00  0.00    -0.250 N 
ATOM     16  C   UNL     1      -3.709   1.028   0.905  1.00  0.00     0.149 A 
ATOM     17  N   UNL     1      -3.661   2.335   1.193  1.00  0.00    -0.179 NA
ATOM     18  C   UNL     1      -1.881   3.943   1.448  1.00  0.00     0.176 C 
BRANCH  12  19
ATOM     19  N   UNL     1      -2.548  -2.000   0.191  1.00  0.00    -0.339 N 
ATOM     20  H   UNL     1      -1.873  -2.551  -0.341  1.00  0.00     0.168 HD
BRANCH  19  21
ATOM     21  C   UNL     1      -3.836  -2.098  -0.382  1.00  0.00     0.054 A 
ATOM     22  C   UNL     1      -4.940  -2.233   0.472  1.00  0.00     0.027 A 
ATOM     23  C   UNL     1      -4.064  -2.015  -1.766  1.00  0.00     0.041 A 
ATOM     24  C   UNL     1      -6.238  -2.291  -0.040  1.00  0.00     0.002 A 
ATOM     25  C   UNL     1      -5.363  -2.071  -2.279  1.00  0.00     0.018 A 
ATOM     26  C   UNL     1      -6.449  -2.208  -1.414  1.00  0.00     0.001 A 
ATOM     27  Br  UNL     1      -2.627  -1.841  -2.997  1.00  0.00    -0.049 Br
ENDBRANCH  19  21
ENDBRANCH  12  19
ENDBRANCH   7   9
ENDBRANCH   1   7
TORSDOF 8
