REMARK SMILES CCc1ccc(Nc2nc(NCC[NH+](C)C)nc3c2cnn3C)cc1
REMARK SMILES IDX 10 1 9 2 17 3 8 4 18 5 19 6 22 7 20 8 21 9 23 10 11 11 12 13
REMARK SMILES IDX 13 14 14 15 15 16 16 17 7 19 6 21 5 22 24 23 4 24 25 25 3 26
REMARK SMILES IDX 2 27 1 28
REMARK H PARENT 11 12 14 18 7 20
ROOT
ATOM      1  C   UNL     1      -1.773  -0.122  -1.084  1.00  0.00     0.226 A 
ATOM      2  N   UNL     1      -0.576   0.317  -1.491  1.00  0.00    -0.195 NA
ATOM      3  N   UNL     1      -2.010  -1.122  -0.222  1.00  0.00    -0.193 NA
ATOM      4  C   UNL     1       0.559  -0.267  -1.022  1.00  0.00     0.147 A 
ATOM      5  C   UNL     1      -0.875  -1.714   0.192  1.00  0.00     0.165 A 
ATOM      6  C   UNL     1       0.414  -1.356  -0.158  1.00  0.00     0.082 A 
ATOM      7  N   UNL     1      -0.748  -2.792   1.028  1.00  0.00    -0.250 N 
ATOM      8  C   UNL     1       1.233  -2.296   0.501  1.00  0.00     0.149 A 
ATOM      9  N   UNL     1       0.531  -3.163   1.239  1.00  0.00    -0.179 NA
ATOM     10  C   UNL     1      -1.806  -3.542   1.657  1.00  0.00     0.176 C 
ENDROOT
BRANCH   1  11
ATOM     11  N   UNL     1      -2.858   0.595  -1.604  1.00  0.00    -0.348 N 
ATOM     12  H   UNL     1      -2.418   1.114  -2.370  1.00  0.00     0.163 HD
BRANCH  11  13
ATOM     13  C   UNL     1      -3.958  -0.268  -2.061  1.00  0.00     0.177 C 
BRANCH  13  14
ATOM     14  C   UNL     1      -4.915  -0.595  -0.892  1.00  0.00     0.283 C 
BRANCH  14  15
ATOM     15  N   UNL     1      -4.951   0.589   0.067  1.00  0.00    -0.338 N 
ATOM     16  C   UNL     1      -5.889   1.674  -0.354  1.00  0.00     0.332 C 
ATOM     17  C   UNL     1      -5.131   0.183   1.493  1.00  0.00     0.332 C 
ATOM     18  H   UNL     1      -3.991   0.975  -0.020  1.00  0.00     0.347 HD
ENDBRANCH  14  15
ENDBRANCH  13  14
ENDBRANCH  11  13
ENDBRANCH   1  11
BRANCH   4  19
ATOM     19  N   UNL     1       1.775   0.228  -1.504  1.00  0.00    -0.339 N 
ATOM     20  H   UNL     1       1.596   0.959  -2.187  1.00  0.00     0.168 HD
BRANCH  19  21
ATOM     21  C   UNL     1       2.986   0.455  -0.820  1.00  0.00     0.040 A 
ATOM     22  C   UNL     1       4.157   0.601  -1.574  1.00  0.00     0.026 A 
ATOM     23  C   UNL     1       3.077   0.558   0.571  1.00  0.00     0.026 A 
ATOM     24  C   UNL     1       5.390   0.825  -0.955  1.00  0.00     0.006 A 
ATOM     25  C   UNL     1       4.309   0.783   1.195  1.00  0.00     0.006 A 
ATOM     26  C   UNL     1       5.478   0.910   0.438  1.00  0.00    -0.048 A 
BRANCH  26  27
ATOM     27  C   UNL     1       6.803   1.168   1.108  1.00  0.00     0.032 C 
ATOM     28  C   UNL     1       7.074   2.655   1.275  1.00  0.00     0.009 C 
ENDBRANCH  26  27
ENDBRANCH  19  21
ENDBRANCH   4  19
TORSDOF 7
