_i0
     RDKit          3D

 51 53  0  0  0  0  0  0  0  0999 V2000
   -4.9155   -0.5949   -0.8920 C   0  0  0  0  0  0  0  0  0  0  0  0
   -4.9513    0.5887    0.0668 N   0  0  0  0  0  4  0  0  0  0  0  0
   -5.8893    1.6741   -0.3537 C   0  0  0  0  0  0  0  0  0  0  0  0
   -5.1312    0.1832    1.4929 C   0  0  0  0  0  0  0  0  0  0  0  0
   -3.9579   -0.2683   -2.0605 C   0  0  0  0  0  0  0  0  0  0  0  0
   -2.8578    0.5950   -1.6043 N   0  0  0  0  0  0  0  0  0  0  0  0
   -1.7733   -0.1220   -1.0837 C   0  0  0  0  0  0  0  0  0  0  0  0
   -0.5757    0.3169   -1.4909 N   0  0  0  0  0  0  0  0  0  0  0  0
   -2.0105   -1.1216   -0.2224 N   0  0  0  0  0  0  0  0  0  0  0  0
    0.5591   -0.2666   -1.0221 C   0  0  0  0  0  0  0  0  0  0  0  0
   -0.8752   -1.7142    0.1915 C   0  0  0  0  0  0  0  0  0  0  0  0
    1.7753    0.2276   -1.5045 N   0  0  0  0  0  0  0  0  0  0  0  0
    0.4145   -1.3558   -0.1581 C   0  0  0  0  0  0  0  0  0  0  0  0
   -0.7482   -2.7922    1.0276 N   0  0  0  0  0  0  0  0  0  0  0  0
    2.9857    0.4548   -0.8204 C   0  0  0  0  0  0  0  0  0  0  0  0
    1.2329   -2.2965    0.5012 C   0  0  0  0  0  0  0  0  0  0  0  0
    0.5306   -3.1630    1.2392 N   0  0  0  0  0  0  0  0  0  0  0  0
   -1.8057   -3.5416    1.6575 C   0  0  0  0  0  0  0  0  0  0  0  0
    4.1572    0.6010   -1.5743 C   0  0  0  0  0  0  0  0  0  0  0  0
    3.0767    0.5585    0.5713 C   0  0  0  0  0  0  0  0  0  0  0  0
    5.3903    0.8253   -0.9551 C   0  0  0  0  0  0  0  0  0  0  0  0
    4.3087    0.7835    1.1951 C   0  0  0  0  0  0  0  0  0  0  0  0
    5.4776    0.9105    0.4376 C   0  0  0  0  0  0  0  0  0  0  0  0
    6.8029    1.1676    1.1084 C   0  0  0  0  0  0  0  0  0  0  0  0
    7.0736    2.6550    1.2749 C   0  0  0  0  0  0  0  0  0  0  0  0
   -4.5501   -1.4608   -0.3309 H   0  0  0  0  0  0  0  0  0  0  0  0
   -5.9355   -0.8045   -1.2303 H   0  0  0  0  0  0  0  0  0  0  0  0
   -3.9908    0.9754   -0.0196 H   0  0  0  0  0  0  0  0  0  0  0  0
   -5.7498    2.5242    0.3193 H   0  0  0  0  0  0  0  0  0  0  0  0
   -5.6449    1.9691   -1.3769 H   0  0  0  0  0  0  0  0  0  0  0  0
   -6.9119    1.2925   -0.2923 H   0  0  0  0  0  0  0  0  0  0  0  0
   -6.1105   -0.2909    1.5977 H   0  0  0  0  0  0  0  0  0  0  0  0
   -5.0617    1.0793    2.1152 H   0  0  0  0  0  0  0  0  0  0  0  0
   -4.3293   -0.5112    1.7576 H   0  0  0  0  0  0  0  0  0  0  0  0
   -4.5202    0.2936   -2.8158 H   0  0  0  0  0  0  0  0  0  0  0  0
   -3.6050   -1.1827   -2.5533 H   0  0  0  0  0  0  0  0  0  0  0  0
   -2.4177    1.1142   -2.3700 H   0  0  0  0  0  0  0  0  0  0  0  0
    1.5962    0.9592   -2.1868 H   0  0  0  0  0  0  0  0  0  0  0  0
    2.3126   -2.3847    0.4744 H   0  0  0  0  0  0  0  0  0  0  0  0
   -1.7664   -4.5695    1.2882 H   0  0  0  0  0  0  0  0  0  0  0  0
   -2.7732   -3.0964    1.4141 H   0  0  0  0  0  0  0  0  0  0  0  0
   -1.6496   -3.5166    2.7390 H   0  0  0  0  0  0  0  0  0  0  0  0
    4.1219    0.5256   -2.6588 H   0  0  0  0  0  0  0  0  0  0  0  0
    2.1923    0.4920    1.1977 H   0  0  0  0  0  0  0  0  0  0  0  0
    6.2827    0.9299   -1.5688 H   0  0  0  0  0  0  0  0  0  0  0  0
    4.3489    0.8646    2.2795 H   0  0  0  0  0  0  0  0  0  0  0  0
    7.6081    0.7074    0.5228 H   0  0  0  0  0  0  0  0  0  0  0  0
    6.8216    0.6753    2.0884 H   0  0  0  0  0  0  0  0  0  0  0  0
    6.3021    3.1331    1.8880 H   0  0  0  0  0  0  0  0  0  0  0  0
    7.0966    3.1655    0.3061 H   0  0  0  0  0  0  0  0  0  0  0  0
    8.0404    2.8113    1.7637 H   0  0  0  0  0  0  0  0  0  0  0  0
  1  2  1  0
  2  3  1  0
  2  4  1  0
  5  1  1  0
  6  5  1  0
  7  6  1  0
  8  7  2  0
  7  9  1  0
 10  8  1  0
  9 11  2  0
 12 10  1  0
 13 10  2  0
 11 13  1  0
 14 11  1  0
 15 12  1  0
 13 16  1  0
 17 14  1  0
 14 18  1  0
 19 15  2  0
 15 20  1  0
 16 17  2  0
 21 19  1  0
 20 22  2  0
 23 21  2  0
 22 23  1  0
 24 23  1  0
 25 24  1  0
  1 26  1  0
  1 27  1  0
  2 28  1  0
  3 29  1  0
  3 30  1  0
  3 31  1  0
  4 32  1  0
  4 33  1  0
  4 34  1  0
  5 35  1  0
  5 36  1  0
  6 37  1  0
 12 38  1  0
 16 39  1  0
 18 40  1  0
 18 41  1  0
 18 42  1  0
 19 43  1  0
 20 44  1  0
 21 45  1  0
 22 46  1  0
 24 47  1  0
 24 48  1  0
 25 49  1  0
 25 50  1  0
 25 51  1  0
M  CHG  1   2   1
M  END
>  <ScrubInfo>  (1) 
{"isomerGroup": 0, "isomerId": 0, "confId": 0, "nr_conformers:": 1, "nr_isomers:": 9}

$$$$
_i1
     RDKit          3D

 51 53  0  0  0  0  0  0  0  0999 V2000
   -0.8518   -0.5416    0.1435 N   0  0  0  0  0  0  0  0  0  0  0  0
    0.3209   -0.5941   -0.5945 C   0  0  0  0  0  0  0  0  0  0  0  0
    1.3632   -1.4105   -0.2062 N   0  0  0  0  0  0  0  0  0  0  0  0
    2.7133   -1.0397   -0.0108 C   0  0  0  0  0  0  0  0  0  0  0  0
    3.1649    0.2848   -0.0323 C   0  0  0  0  0  0  0  0  0  0  0  0
    4.5234    0.5842    0.1197 C   0  0  0  0  0  0  0  0  0  0  0  0
    5.4642   -0.4375    0.2812 C   0  0  0  0  0  0  0  0  0  0  0  0
    6.9261   -0.1137    0.4574 C   0  0  0  0  0  0  0  0  0  0  0  0
    7.2903    0.0767    1.9218 C   0  0  0  0  0  0  0  0  0  0  0  0
    5.0218   -1.7632    0.2988 C   0  0  0  0  0  0  0  0  0  0  0  0
    3.6635   -2.0584    0.1476 C   0  0  0  0  0  0  0  0  0  0  0  0
    0.3288    0.1331   -1.7185 C   0  0  0  0  0  0  0  0  0  0  0  0
    1.2223    0.3638   -2.8603 C   0  0  0  0  0  0  0  0  0  0  0  0
    0.7111    1.1815   -3.7463 N   0  0  0  0  0  0  0  0  0  0  0  0
   -0.5323    1.5735   -3.2261 N   0  0  0  0  0  0  0  0  0  0  0  0
   -1.4669    2.2434   -4.0973 C   0  0  0  0  0  0  0  0  0  0  0  0
   -0.8627    0.9454   -2.0379 C   0  0  0  0  0  0  0  0  0  0  0  0
   -1.9392    1.0020   -1.3289 N   0  0  0  0  0  0  0  0  0  0  0  0
   -1.9290    0.2530   -0.1764 C   0  0  0  0  0  0  0  0  0  0  0  0
   -3.0090    0.4021    0.5016 N   0  0  0  0  0  0  0  0  0  0  0  0
   -3.2210   -0.3095    1.7477 C   0  0  0  0  0  0  0  0  0  0  0  0
   -4.4936    0.2278    2.4302 C   0  0  0  0  0  0  0  0  0  0  0  0
   -5.7588    0.1425    1.5887 N   0  0  0  0  0  4  0  0  0  0  0  0
   -6.1269   -1.2490    1.1778 C   0  0  0  0  0  0  0  0  0  0  0  0
   -5.7791    1.0919    0.4147 C   0  0  0  0  0  0  0  0  0  0  0  0
   -0.8184   -0.9960    1.0402 H   0  0  0  0  0  0  0  0  0  0  0  0
    1.1021   -2.1823    0.3988 H   0  0  0  0  0  0  0  0  0  0  0  0
    2.4741    1.1158   -0.1418 H   0  0  0  0  0  0  0  0  0  0  0  0
    4.8427    1.6247    0.1105 H   0  0  0  0  0  0  0  0  0  0  0  0
    7.1736    0.7934   -0.1073 H   0  0  0  0  0  0  0  0  0  0  0  0
    7.5364   -0.9159    0.0248 H   0  0  0  0  0  0  0  0  0  0  0  0
    6.7203    0.8979    2.3695 H   0  0  0  0  0  0  0  0  0  0  0  0
    7.0868   -0.8291    2.5029 H   0  0  0  0  0  0  0  0  0  0  0  0
    8.3552    0.3102    2.0196 H   0  0  0  0  0  0  0  0  0  0  0  0
    5.7338   -2.5769    0.4220 H   0  0  0  0  0  0  0  0  0  0  0  0
    3.3582   -3.1022    0.1407 H   0  0  0  0  0  0  0  0  0  0  0  0
    2.1960   -0.1372   -2.9354 H   0  0  0  0  0  0  0  0  0  0  0  0
   -2.0300    1.5123   -4.6855 H   0  0  0  0  0  0  0  0  0  0  0  0
   -0.9434    2.9140   -4.7865 H   0  0  0  0  0  0  0  0  0  0  0  0
   -2.1753    2.8457   -3.5196 H   0  0  0  0  0  0  0  0  0  0  0  0
   -2.3803   -0.1561    2.4344 H   0  0  0  0  0  0  0  0  0  0  0  0
   -3.3174   -1.3852    1.5648 H   0  0  0  0  0  0  0  0  0  0  0  0
   -4.6957   -0.3352    3.3481 H   0  0  0  0  0  0  0  0  0  0  0  0
   -4.3747    1.2831    2.7011 H   0  0  0  0  0  0  0  0  0  0  0  0
   -6.5079    0.4732    2.2077 H   0  0  0  0  0  0  0  0  0  0  0  0
   -5.3990   -1.6134    0.4488 H   0  0  0  0  0  0  0  0  0  0  0  0
   -7.1273   -1.2161    0.7376 H   0  0  0  0  0  0  0  0  0  0  0  0
   -6.1355   -1.8772    2.0722 H   0  0  0  0  0  0  0  0  0  0  0  0
   -5.3503    2.0474    0.7267 H   0  0  0  0  0  0  0  0  0  0  0  0
   -5.2400    0.6518   -0.4263 H   0  0  0  0  0  0  0  0  0  0  0  0
   -6.8277    1.2355    0.1372 H   0  0  0  0  0  0  0  0  0  0  0  0
  1  2  1  0
  2  3  1  0
  3  4  1  0
  4  5  2  0
  5  6  1  0
  6  7  2  0
  7  8  1  0
  8  9  1  0
  7 10  1  0
 10 11  2  0
  2 12  2  0
 12 13  1  0
 13 14  2  0
 14 15  1  0
 15 16  1  0
 15 17  1  0
 17 18  2  0
 18 19  1  0
 19 20  2  3
 20 21  1  0
 21 22  1  0
 22 23  1  0
 23 24  1  0
 23 25  1  0
 19  1  1  0
 11  4  1  0
 17 12  1  0
  1 26  1  0
  3 27  1  0
  5 28  1  0
  6 29  1  0
  8 30  1  0
  8 31  1  0
  9 32  1  0
  9 33  1  0
  9 34  1  0
 10 35  1  0
 11 36  1  0
 13 37  1  0
 16 38  1  0
 16 39  1  0
 16 40  1  0
 21 41  1  0
 21 42  1  0
 22 43  1  0
 22 44  1  0
 23 45  1  0
 24 46  1  0
 24 47  1  0
 24 48  1  0
 25 49  1  0
 25 50  1  0
 25 51  1  0
M  CHG  1  23   1
M  END
>  <ScrubInfo>  (2) 
{"isomerGroup": 0, "isomerId": 1, "confId": 0, "nr_conformers:": 1, "nr_isomers:": 9}

$$$$
_i2
     RDKit          3D

 51 53  0  0  0  0  0  0  0  0999 V2000
   -0.8544   -0.4846   -0.2857 N   0  0  0  0  0  0  0  0  0  0  0  0
   -1.7574    0.0840   -1.1435 C   0  0  0  0  0  0  0  0  0  0  0  0
   -3.0764   -0.2107   -0.9219 N   0  0  0  0  0  0  0  0  0  0  0  0
   -3.6889    0.1033    0.3654 C   0  0  0  0  0  0  0  0  0  0  0  0
   -5.1481   -0.3919    0.4034 C   0  0  0  0  0  0  0  0  0  0  0  0
   -5.7840   -0.2478    1.7779 N   0  0  0  0  0  4  0  0  0  0  0  0
   -7.0849   -1.0102    1.8519 C   0  0  0  0  0  0  0  0  0  0  0  0
   -5.9784    1.1830    2.2069 C   0  0  0  0  0  0  0  0  0  0  0  0
   -1.4445    0.8821   -2.1293 N   0  0  0  0  0  0  0  0  0  0  0  0
   -0.0961    1.0875   -2.1900 C   0  0  0  0  0  0  0  0  0  0  0  0
    0.8957    0.5582   -1.3747 C   0  0  0  0  0  0  0  0  0  0  0  0
    2.0888    1.1105   -1.8722 C   0  0  0  0  0  0  0  0  0  0  0  0
    1.8837    1.9249   -2.9145 N   0  0  0  0  0  0  0  0  0  0  0  0
    0.5469    1.8821   -3.0987 N   0  0  0  0  0  0  0  0  0  0  0  0
   -0.0384    2.6433   -4.1738 C   0  0  0  0  0  0  0  0  0  0  0  0
    0.5158   -0.3510   -0.3123 C   0  0  0  0  0  0  0  0  0  0  0  0
    1.2645   -0.9980    0.5269 N   0  0  0  0  0  0  0  0  0  0  0  0
    2.6570   -0.8898    0.5029 C   0  0  0  0  0  0  0  0  0  0  0  0
    3.4193   -1.7602   -0.2789 C   0  0  0  0  0  0  0  0  0  0  0  0
    4.8133   -1.6685   -0.2856 C   0  0  0  0  0  0  0  0  0  0  0  0
    5.4642   -0.7104    0.5017 C   0  0  0  0  0  0  0  0  0  0  0  0
    6.9695   -0.6204    0.5075 C   0  0  0  0  0  0  0  0  0  0  0  0
    7.5859   -1.5186    1.5690 C   0  0  0  0  0  0  0  0  0  0  0  0
    4.6985    0.1391    1.3103 C   0  0  0  0  0  0  0  0  0  0  0  0
    3.3046    0.0444    1.3140 C   0  0  0  0  0  0  0  0  0  0  0  0
   -1.1629   -1.2422    0.2998 H   0  0  0  0  0  0  0  0  0  0  0  0
   -3.5841    0.2258   -1.6950 H   0  0  0  0  0  0  0  0  0  0  0  0
   -3.1288   -0.3747    1.1770 H   0  0  0  0  0  0  0  0  0  0  0  0
   -3.6505    1.1865    0.5227 H   0  0  0  0  0  0  0  0  0  0  0  0
   -5.7760    0.1520   -0.3117 H   0  0  0  0  0  0  0  0  0  0  0  0
   -5.1784   -1.4589    0.1533 H   0  0  0  0  0  0  0  0  0  0  0  0
   -5.1585   -0.6915    2.4651 H   0  0  0  0  0  0  0  0  0  0  0  0
   -7.4684   -0.9287    2.8724 H   0  0  0  0  0  0  0  0  0  0  0  0
   -7.7839   -0.5756    1.1323 H   0  0  0  0  0  0  0  0  0  0  0  0
   -6.8779   -2.0576    1.6176 H   0  0  0  0  0  0  0  0  0  0  0  0
   -6.4611    1.1812    3.1880 H   0  0  0  0  0  0  0  0  0  0  0  0
   -6.6023    1.6879    1.4648 H   0  0  0  0  0  0  0  0  0  0  0  0
   -4.9973    1.6552    2.2872 H   0  0  0  0  0  0  0  0  0  0  0  0
    3.1067    0.9695   -1.5344 H   0  0  0  0  0  0  0  0  0  0  0  0
   -1.1124    2.4525   -4.2276 H   0  0  0  0  0  0  0  0  0  0  0  0
    0.4368    2.3394   -5.1101 H   0  0  0  0  0  0  0  0  0  0  0  0
    0.1416    3.7038   -3.9805 H   0  0  0  0  0  0  0  0  0  0  0  0
    2.9277   -2.5133   -0.8883 H   0  0  0  0  0  0  0  0  0  0  0  0
    5.3887   -2.3526   -0.9059 H   0  0  0  0  0  0  0  0  0  0  0  0
    7.3588   -0.8932   -0.4809 H   0  0  0  0  0  0  0  0  0  0  0  0
    7.2758    0.4190    0.6776 H   0  0  0  0  0  0  0  0  0  0  0  0
    7.2412   -1.2432    2.5715 H   0  0  0  0  0  0  0  0  0  0  0  0
    7.3250   -2.5690    1.4010 H   0  0  0  0  0  0  0  0  0  0  0  0
    8.6769   -1.4329    1.5501 H   0  0  0  0  0  0  0  0  0  0  0  0
    5.1842    0.8767    1.9456 H   0  0  0  0  0  0  0  0  0  0  0  0
    2.7230    0.7035    1.9516 H   0  0  0  0  0  0  0  0  0  0  0  0
  1  2  1  0
  2  3  1  0
  3  4  1  0
  4  5  1  0
  5  6  1  0
  6  7  1  0
  6  8  1  0
  2  9  2  0
  9 10  1  0
 10 11  2  0
 11 12  1  0
 12 13  2  0
 13 14  1  0
 14 15  1  0
 11 16  1  0
 16 17  2  3
 17 18  1  0
 18 19  2  0
 19 20  1  0
 20 21  2  0
 21 22  1  0
 22 23  1  0
 21 24  1  0
 24 25  2  0
 16  1  1  0
 25 18  1  0
 14 10  1  0
  1 26  1  0
  3 27  1  0
  4 28  1  0
  4 29  1  0
  5 30  1  0
  5 31  1  0
  6 32  1  0
  7 33  1  0
  7 34  1  0
  7 35  1  0
  8 36  1  0
  8 37  1  0
  8 38  1  0
 12 39  1  0
 15 40  1  0
 15 41  1  0
 15 42  1  0
 19 43  1  0
 20 44  1  0
 22 45  1  0
 22 46  1  0
 23 47  1  0
 23 48  1  0
 23 49  1  0
 24 50  1  0
 25 51  1  0
M  CHG  1   6   1
M  END
>  <ScrubInfo>  (3) 
{"isomerGroup": 0, "isomerId": 2, "confId": 0, "nr_conformers:": 1, "nr_isomers:": 9}

$$$$
_i3
     RDKit          3D

 51 53  0  0  0  0  0  0  0  0999 V2000
   -1.5883    3.0024    0.8805 N   0  0  0  0  0  0  0  0  0  0  0  0
   -2.1212    1.9129    0.2298 C   0  0  0  0  0  0  0  0  0  0  0  0
   -3.3702    1.6294    0.4152 N   0  0  0  0  0  0  0  0  0  0  0  0
   -3.9340    0.4828   -0.2962 C   0  0  0  0  0  0  0  0  0  0  0  0
   -3.6371   -0.8170    0.4634 C   0  0  0  0  0  0  0  0  0  0  0  0
   -4.0164   -2.0442   -0.3487 N   0  0  0  0  0  4  0  0  0  0  0  0
   -5.4976   -2.1866   -0.5560 C   0  0  0  0  0  0  0  0  0  0  0  0
   -3.4249   -3.2907    0.2504 C   0  0  0  0  0  0  0  0  0  0  0  0
   -1.3574    1.0963   -0.5969 N   0  0  0  0  0  0  0  0  0  0  0  0
   -0.0860    1.3667   -0.7413 C   0  0  0  0  0  0  0  0  0  0  0  0
    0.7532    0.6563   -1.5581 N   0  0  0  0  0  0  0  0  0  0  0  0
    1.7661   -0.2215   -1.0860 C   0  0  0  0  0  0  0  0  0  0  0  0
    2.5339   -0.9129   -2.0348 C   0  0  0  0  0  0  0  0  0  0  0  0
    3.5710   -1.7640   -1.6422 C   0  0  0  0  0  0  0  0  0  0  0  0
    3.8706   -1.9364   -0.2878 C   0  0  0  0  0  0  0  0  0  0  0  0
    5.0090   -2.8287    0.1384 C   0  0  0  0  0  0  0  0  0  0  0  0
    6.3238   -2.0684    0.2213 C   0  0  0  0  0  0  0  0  0  0  0  0
    3.1257   -1.2307    0.6625 C   0  0  0  0  0  0  0  0  0  0  0  0
    2.0878   -0.3795    0.2671 C   0  0  0  0  0  0  0  0  0  0  0  0
    0.5088    2.5113   -0.0918 C   0  0  0  0  0  0  0  0  0  0  0  0
    1.7631    3.1370   -0.0390 C   0  0  0  0  0  0  0  0  0  0  0  0
    1.7535    4.2210    0.7517 N   0  0  0  0  0  0  0  0  0  0  0  0
    0.4737    4.3002    1.1895 N   0  0  0  0  0  0  0  0  0  0  0  0
    0.0971    5.3839    2.0617 C   0  0  0  0  0  0  0  0  0  0  0  0
   -0.2894    3.2868    0.7021 C   0  0  0  0  0  0  0  0  0  0  0  0
   -2.2378    3.5511    1.4304 H   0  0  0  0  0  0  0  0  0  0  0  0
   -3.5885    0.4313   -1.3362 H   0  0  0  0  0  0  0  0  0  0  0  0
   -5.0172    0.6369   -0.3515 H   0  0  0  0  0  0  0  0  0  0  0  0
   -2.5671   -0.9050    0.6793 H   0  0  0  0  0  0  0  0  0  0  0  0
   -4.1837   -0.8622    1.4124 H   0  0  0  0  0  0  0  0  0  0  0  0
   -3.5813   -1.9297   -1.2737 H   0  0  0  0  0  0  0  0  0  0  0  0
   -5.6741   -3.1007   -1.1295 H   0  0  0  0  0  0  0  0  0  0  0  0
   -5.9843   -2.2403    0.4214 H   0  0  0  0  0  0  0  0  0  0  0  0
   -5.8531   -1.3277   -1.1289 H   0  0  0  0  0  0  0  0  0  0  0  0
   -2.3396   -3.1664    0.2946 H   0  0  0  0  0  0  0  0  0  0  0  0
   -3.8461   -3.4313    1.2494 H   0  0  0  0  0  0  0  0  0  0  0  0
   -3.6726   -4.1322   -0.4021 H   0  0  0  0  0  0  0  0  0  0  0  0
    0.2384    0.1694   -2.2851 H   0  0  0  0  0  0  0  0  0  0  0  0
    2.3462   -0.7808   -3.0983 H   0  0  0  0  0  0  0  0  0  0  0  0
    4.1556   -2.2786   -2.4025 H   0  0  0  0  0  0  0  0  0  0  0  0
    5.1070   -3.6632   -0.5666 H   0  0  0  0  0  0  0  0  0  0  0  0
    4.7792   -3.2794    1.1116 H   0  0  0  0  0  0  0  0  0  0  0  0
    6.5956   -1.6378   -0.7484 H   0  0  0  0  0  0  0  0  0  0  0  0
    6.2648   -1.2504    0.9472 H   0  0  0  0  0  0  0  0  0  0  0  0
    7.1303   -2.7401    0.5321 H   0  0  0  0  0  0  0  0  0  0  0  0
    3.3590   -1.3281    1.7213 H   0  0  0  0  0  0  0  0  0  0  0  0
    1.5453    0.1491    1.0459 H   0  0  0  0  0  0  0  0  0  0  0  0
    2.6852    2.8571   -0.5334 H   0  0  0  0  0  0  0  0  0  0  0  0
   -0.9555    5.2905    2.3367 H   0  0  0  0  0  0  0  0  0  0  0  0
    0.2603    6.3252    1.5309 H   0  0  0  0  0  0  0  0  0  0  0  0
    0.7198    5.3367    2.9586 H   0  0  0  0  0  0  0  0  0  0  0  0
  1  2  1  0
  2  3  2  3
  3  4  1  0
  4  5  1  0
  5  6  1  0
  6  7  1  0
  6  8  1  0
  2  9  1  0
  9 10  2  0
 10 11  1  0
 11 12  1  0
 12 13  2  0
 13 14  1  0
 14 15  2  0
 15 16  1  0
 16 17  1  0
 15 18  1  0
 18 19  2  0
 10 20  1  0
 20 21  1  0
 21 22  2  0
 22 23  1  0
 23 24  1  0
 23 25  1  0
 25  1  1  0
 19 12  1  0
 25 20  2  0
  1 26  1  0
  4 27  1  0
  4 28  1  0
  5 29  1  0
  5 30  1  0
  6 31  1  0
  7 32  1  0
  7 33  1  0
  7 34  1  0
  8 35  1  0
  8 36  1  0
  8 37  1  0
 11 38  1  0
 13 39  1  0
 14 40  1  0
 16 41  1  0
 16 42  1  0
 17 43  1  0
 17 44  1  0
 17 45  1  0
 18 46  1  0
 19 47  1  0
 21 48  1  0
 24 49  1  0
 24 50  1  0
 24 51  1  0
M  CHG  1   6   1
M  END
>  <ScrubInfo>  (4) 
{"isomerGroup": 0, "isomerId": 3, "confId": 0, "nr_conformers:": 1, "nr_isomers:": 9}

$$$$
_i4
     RDKit          3D

 51 53  0  0  0  0  0  0  0  0999 V2000
   -1.5016   -1.7738   -0.1011 N   0  0  0  0  0  0  0  0  0  0  0  0
   -1.5812   -0.7009   -0.9478 C   0  0  0  0  0  0  0  0  0  0  0  0
   -2.8201   -0.4717   -1.4818 N   0  0  0  0  0  0  0  0  0  0  0  0
   -3.8092    0.1688   -0.6099 C   0  0  0  0  0  0  0  0  0  0  0  0
   -5.0841    0.5150   -1.4019 C   0  0  0  0  0  0  0  0  0  0  0  0
   -6.1072    1.3190   -0.6194 N   0  0  0  0  0  4  0  0  0  0  0  0
   -5.6532    2.7124   -0.2741 C   0  0  0  0  0  0  0  0  0  0  0  0
   -6.6782    0.5945    0.5668 C   0  0  0  0  0  0  0  0  0  0  0  0
   -0.6154    0.1072   -1.2649 N   0  0  0  0  0  0  0  0  0  0  0  0
    0.6510   -0.0895   -0.7199 C   0  0  0  0  0  0  0  0  0  0  0  0
    1.5356    0.8013   -1.0314 N   0  0  0  0  0  0  0  0  0  0  0  0
    2.8484    0.7423   -0.5636 C   0  0  0  0  0  0  0  0  0  0  0  0
    3.8388    0.1208   -1.3272 C   0  0  0  0  0  0  0  0  0  0  0  0
    5.1596    0.0776   -0.8741 C   0  0  0  0  0  0  0  0  0  0  0  0
    5.5096    0.6693    0.3463 C   0  0  0  0  0  0  0  0  0  0  0  0
    6.9382    0.6403    0.8277 C   0  0  0  0  0  0  0  0  0  0  0  0
    7.7292    1.8386    0.3258 C   0  0  0  0  0  0  0  0  0  0  0  0
    4.5212    1.3231    1.0930 C   0  0  0  0  0  0  0  0  0  0  0  0
    3.2015    1.3641    0.6360 C   0  0  0  0  0  0  0  0  0  0  0  0
    0.8136   -1.2574    0.1306 C   0  0  0  0  0  0  0  0  0  0  0  0
    1.8540   -1.8984    0.8271 C   0  0  0  0  0  0  0  0  0  0  0  0
    1.4439   -3.0040    1.4682 N   0  0  0  0  0  0  0  0  0  0  0  0
    0.1298   -3.0843    1.1723 N   0  0  0  0  0  0  0  0  0  0  0  0
   -0.6348   -4.1877    1.6958 C   0  0  0  0  0  0  0  0  0  0  0  0
   -0.2797   -2.0485    0.3935 C   0  0  0  0  0  0  0  0  0  0  0  0
   -2.2452   -2.4580   -0.1465 H   0  0  0  0  0  0  0  0  0  0  0  0
   -2.6266    0.1504   -2.2722 H   0  0  0  0  0  0  0  0  0  0  0  0
   -4.0562   -0.5073    0.2159 H   0  0  0  0  0  0  0  0  0  0  0  0
   -3.3711    1.0772   -0.1824 H   0  0  0  0  0  0  0  0  0  0  0  0
   -5.5906   -0.3971   -1.7386 H   0  0  0  0  0  0  0  0  0  0  0  0
   -4.8441    1.1055   -2.2939 H   0  0  0  0  0  0  0  0  0  0  0  0
   -6.8959    1.4458   -1.2696 H   0  0  0  0  0  0  0  0  0  0  0  0
   -4.8782    2.6534    0.4934 H   0  0  0  0  0  0  0  0  0  0  0  0
   -6.5211    3.2636    0.0978 H   0  0  0  0  0  0  0  0  0  0  0  0
   -5.2747    3.1835   -1.1847 H   0  0  0  0  0  0  0  0  0  0  0  0
   -7.0202   -0.3884    0.2330 H   0  0  0  0  0  0  0  0  0  0  0  0
   -7.5243    1.1772    0.9407 H   0  0  0  0  0  0  0  0  0  0  0  0
   -5.9038    0.5043    1.3324 H   0  0  0  0  0  0  0  0  0  0  0  0
    3.5813   -0.3293   -2.2821 H   0  0  0  0  0  0  0  0  0  0  0  0
    5.9151   -0.4133   -1.4838 H   0  0  0  0  0  0  0  0  0  0  0  0
    6.9571    0.6162    1.9241 H   0  0  0  0  0  0  0  0  0  0  0  0
    7.4201   -0.2875    0.4959 H   0  0  0  0  0  0  0  0  0  0  0  0
    8.7602    1.7909    0.6902 H   0  0  0  0  0  0  0  0  0  0  0  0
    7.7571    1.8661   -0.7688 H   0  0  0  0  0  0  0  0  0  0  0  0
    7.2893    2.7792    0.6742 H   0  0  0  0  0  0  0  0  0  0  0  0
    4.7754    1.8118    2.0310 H   0  0  0  0  0  0  0  0  0  0  0  0
    2.4465    1.8864    1.2164 H   0  0  0  0  0  0  0  0  0  0  0  0
    2.8991   -1.6287    0.9042 H   0  0  0  0  0  0  0  0  0  0  0  0
   -0.4979   -4.2217    2.7797 H   0  0  0  0  0  0  0  0  0  0  0  0
   -1.6929   -4.0501    1.4638 H   0  0  0  0  0  0  0  0  0  0  0  0
   -0.2682   -5.1081    1.2345 H   0  0  0  0  0  0  0  0  0  0  0  0
  1  2  1  0
  2  3  1  0
  3  4  1  0
  4  5  1  0
  5  6  1  0
  6  7  1  0
  6  8  1  0
  2  9  2  0
  9 10  1  0
 10 11  2  3
 11 12  1  0
 12 13  2  0
 13 14  1  0
 14 15  2  0
 15 16  1  0
 16 17  1  0
 15 18  1  0
 18 19  2  0
 10 20  1  0
 20 21  1  0
 21 22  2  0
 22 23  1  0
 23 24  1  0
 23 25  1  0
 25  1  1  0
 19 12  1  0
 25 20  2  0
  1 26  1  0
  3 27  1  0
  4 28  1  0
  4 29  1  0
  5 30  1  0
  5 31  1  0
  6 32  1  0
  7 33  1  0
  7 34  1  0
  7 35  1  0
  8 36  1  0
  8 37  1  0
  8 38  1  0
 13 39  1  0
 14 40  1  0
 16 41  1  0
 16 42  1  0
 17 43  1  0
 17 44  1  0
 17 45  1  0
 18 46  1  0
 19 47  1  0
 21 48  1  0
 24 49  1  0
 24 50  1  0
 24 51  1  0
M  CHG  1   6   1
M  END
>  <ScrubInfo>  (5) 
{"isomerGroup": 0, "isomerId": 4, "confId": 0, "nr_conformers:": 1, "nr_isomers:": 9}

$$$$
_i5
     RDKit          3D

 51 53  0  0  0  0  0  0  0  0999 V2000
   -1.5059   -0.7381   -4.3200 N   0  0  0  0  0  0  0  0  0  0  0  0
   -0.2164   -0.7243   -3.8080 C   0  0  0  0  0  0  0  0  0  0  0  0
   -0.1861   -0.4292   -2.5036 C   0  0  0  0  0  0  0  0  0  0  0  0
    0.8235   -0.2475   -1.4879 C   0  0  0  0  0  0  0  0  0  0  0  0
    2.0848   -0.4161   -1.7194 N   0  0  0  0  0  0  0  0  0  0  0  0
    2.9943   -0.2164   -0.6709 C   0  0  0  0  0  0  0  0  0  0  0  0
    3.5109    1.0548   -0.4103 C   0  0  0  0  0  0  0  0  0  0  0  0
    4.4380    1.2471    0.6174 C   0  0  0  0  0  0  0  0  0  0  0  0
    4.8683    0.1647    1.3953 C   0  0  0  0  0  0  0  0  0  0  0  0
    5.8915    0.3647    2.4844 C   0  0  0  0  0  0  0  0  0  0  0  0
    7.3118    0.2119    1.9621 C   0  0  0  0  0  0  0  0  0  0  0  0
    4.3673   -1.1134    1.1166 C   0  0  0  0  0  0  0  0  0  0  0  0
    3.4399   -1.3003    0.0881 C   0  0  0  0  0  0  0  0  0  0  0  0
    0.3207    0.1146   -0.2660 N   0  0  0  0  0  0  0  0  0  0  0  0
   -0.9502    0.2163   -0.0387 C   0  0  0  0  0  0  0  0  0  0  0  0
   -1.3033    0.5916    1.2301 N   0  0  0  0  0  0  0  0  0  0  0  0
   -1.9707   -0.3681    2.1177 C   0  0  0  0  0  0  0  0  0  0  0  0
   -3.3743   -0.7823    1.6356 C   0  0  0  0  0  0  0  0  0  0  0  0
   -4.0985    0.3566    0.9447 N   0  0  0  0  0  4  0  0  0  0  0  0
   -4.4179    1.5185    1.8314 C   0  0  0  0  0  0  0  0  0  0  0  0
   -5.2923   -0.1178    0.1802 C   0  0  0  0  0  0  0  0  0  0  0  0
   -1.9672    0.0139   -0.9411 N   0  0  0  0  0  0  0  0  0  0  0  0
   -1.6075   -0.2993   -2.1445 C   0  0  0  0  0  0  0  0  0  0  0  0
   -2.4028   -0.5641   -3.2657 N   0  0  0  0  0  0  0  0  0  0  0  0
   -3.5925    0.2228   -3.5431 C   0  0  0  0  0  0  0  0  0  0  0  0
   -1.6849   -1.5110   -4.9676 H   0  0  0  0  0  0  0  0  0  0  0  0
    0.6246   -0.9386   -4.4543 H   0  0  0  0  0  0  0  0  0  0  0  0
    3.1953    1.8982   -1.0173 H   0  0  0  0  0  0  0  0  0  0  0  0
    4.8325    2.2447    0.7970 H   0  0  0  0  0  0  0  0  0  0  0  0
    5.7143   -0.3550    3.2930 H   0  0  0  0  0  0  0  0  0  0  0  0
    5.7653    1.3587    2.9305 H   0  0  0  0  0  0  0  0  0  0  0  0
    8.0314    0.3620    2.7731 H   0  0  0  0  0  0  0  0  0  0  0  0
    7.4760   -0.7868    1.5434 H   0  0  0  0  0  0  0  0  0  0  0  0
    7.5275    0.9447    1.1771 H   0  0  0  0  0  0  0  0  0  0  0  0
    4.7074   -1.9736    1.6886 H   0  0  0  0  0  0  0  0  0  0  0  0
    3.0706   -2.2977   -0.1311 H   0  0  0  0  0  0  0  0  0  0  0  0
   -0.4264    0.8776    1.6755 H   0  0  0  0  0  0  0  0  0  0  0  0
   -1.3457   -1.2584    2.2531 H   0  0  0  0  0  0  0  0  0  0  0  0
   -2.0629    0.1025    3.1034 H   0  0  0  0  0  0  0  0  0  0  0  0
   -3.2817   -1.5891    0.8996 H   0  0  0  0  0  0  0  0  0  0  0  0
   -3.9999   -1.1339    2.4630 H   0  0  0  0  0  0  0  0  0  0  0  0
   -3.4005    0.6825    0.2446 H   0  0  0  0  0  0  0  0  0  0  0  0
   -3.4941    1.9013    2.2694 H   0  0  0  0  0  0  0  0  0  0  0  0
   -4.8789    2.2976    1.2182 H   0  0  0  0  0  0  0  0  0  0  0  0
   -5.1061    1.1803    2.6106 H   0  0  0  0  0  0  0  0  0  0  0  0
   -5.6923    0.7265   -0.3875 H   0  0  0  0  0  0  0  0  0  0  0  0
   -6.0321   -0.4969    0.8903 H   0  0  0  0  0  0  0  0  0  0  0  0
   -4.9735   -0.9062   -0.5067 H   0  0  0  0  0  0  0  0  0  0  0  0
   -3.3323    1.2687   -3.7374 H   0  0  0  0  0  0  0  0  0  0  0  0
   -4.1173   -0.1753   -4.4176 H   0  0  0  0  0  0  0  0  0  0  0  0
   -4.2823    0.1870   -2.6952 H   0  0  0  0  0  0  0  0  0  0  0  0
  1  2  1  0
  2  3  2  0
  3  4  1  0
  4  5  2  3
  5  6  1  0
  6  7  2  0
  7  8  1  0
  8  9  2  0
  9 10  1  0
 10 11  1  0
  9 12  1  0
 12 13  2  0
  4 14  1  0
 14 15  2  0
 15 16  1  0
 16 17  1  0
 17 18  1  0
 18 19  1  0
 19 20  1  0
 19 21  1  0
 15 22  1  0
 22 23  2  0
 23 24  1  0
 24 25  1  0
 24  1  1  0
 23  3  1  0
 13  6  1  0
  1 26  1  0
  2 27  1  0
  7 28  1  0
  8 29  1  0
 10 30  1  0
 10 31  1  0
 11 32  1  0
 11 33  1  0
 11 34  1  0
 12 35  1  0
 13 36  1  0
 16 37  1  0
 17 38  1  0
 17 39  1  0
 18 40  1  0
 18 41  1  0
 19 42  1  0
 20 43  1  0
 20 44  1  0
 20 45  1  0
 21 46  1  0
 21 47  1  0
 21 48  1  0
 25 49  1  0
 25 50  1  0
 25 51  1  0
M  CHG  1  19   1
M  END
>  <ScrubInfo>  (6) 
{"isomerGroup": 0, "isomerId": 5, "confId": 0, "nr_conformers:": 1, "nr_isomers:": 9}

$$$$
_i6
     RDKit          3D

 51 53  0  0  0  0  0  0  0  0999 V2000
    1.0470   -0.8330   -5.2248 N   0  0  0  0  0  0  0  0  0  0  0  0
    0.0363   -1.0350   -4.2941 C   0  0  0  0  0  0  0  0  0  0  0  0
    0.3030   -0.4668   -3.1100 C   0  0  0  0  0  0  0  0  0  0  0  0
   -0.3307   -0.3164   -1.7962 C   0  0  0  0  0  0  0  0  0  0  0  0
   -1.5247   -0.9584   -1.5360 N   0  0  0  0  0  0  0  0  0  0  0  0
   -2.4120   -0.7687   -0.4600 C   0  0  0  0  0  0  0  0  0  0  0  0
   -3.2689   -1.8208   -0.1038 C   0  0  0  0  0  0  0  0  0  0  0  0
   -4.1412   -1.7099    0.9841 C   0  0  0  0  0  0  0  0  0  0  0  0
   -4.1781   -0.5385    1.7453 C   0  0  0  0  0  0  0  0  0  0  0  0
   -5.1133   -0.4167    2.9215 C   0  0  0  0  0  0  0  0  0  0  0  0
   -4.4626   -0.8913    4.2118 C   0  0  0  0  0  0  0  0  0  0  0  0
   -3.3181    0.5101    1.4066 C   0  0  0  0  0  0  0  0  0  0  0  0
   -2.4440    0.3908    0.3200 C   0  0  0  0  0  0  0  0  0  0  0  0
    0.3066    0.4006   -0.9086 N   0  0  0  0  0  0  0  0  0  0  0  0
    1.4992    0.9918   -1.2455 C   0  0  0  0  0  0  0  0  0  0  0  0
    2.0801    1.7615   -0.3895 N   0  0  0  0  0  0  0  0  0  0  0  0
    1.3888    2.0420    0.8788 C   0  0  0  0  0  0  0  0  0  0  0  0
    1.7635    0.9555    1.8936 C   0  0  0  0  0  0  0  0  0  0  0  0
    3.2468    0.6474    1.7282 N   0  0  0  0  0  4  0  0  0  0  0  0
    4.1368    1.6019    2.4577 C   0  0  0  0  0  0  0  0  0  0  0  0
    3.5799   -0.7819    1.9946 C   0  0  0  0  0  0  0  0  0  0  0  0
    2.2240    0.8067   -2.3902 N   0  0  0  0  0  0  0  0  0  0  0  0
    1.6526    0.1096   -3.3107 C   0  0  0  0  0  0  0  0  0  0  0  0
    2.1194   -0.2299   -4.5795 N   0  0  0  0  0  0  0  0  0  0  0  0
    2.9707    0.6752   -5.3324 C   0  0  0  0  0  0  0  0  0  0  0  0
    1.2572   -1.6440   -5.8129 H   0  0  0  0  0  0  0  0  0  0  0  0
   -0.8340   -1.6033   -4.5890 H   0  0  0  0  0  0  0  0  0  0  0  0
   -1.8760   -1.6087   -2.2292 H   0  0  0  0  0  0  0  0  0  0  0  0
   -3.2643   -2.7517   -0.6662 H   0  0  0  0  0  0  0  0  0  0  0  0
   -4.7931   -2.5455    1.2316 H   0  0  0  0  0  0  0  0  0  0  0  0
   -6.0244   -0.9967    2.7305 H   0  0  0  0  0  0  0  0  0  0  0  0
   -5.4351    0.6262    3.0301 H   0  0  0  0  0  0  0  0  0  0  0  0
   -5.1627   -0.7921    5.0473 H   0  0  0  0  0  0  0  0  0  0  0  0
   -3.5690   -0.3029    4.4460 H   0  0  0  0  0  0  0  0  0  0  0  0
   -4.1636   -1.9428    4.1425 H   0  0  0  0  0  0  0  0  0  0  0  0
   -3.3325    1.4353    1.9788 H   0  0  0  0  0  0  0  0  0  0  0  0
   -1.8208    1.2434    0.0697 H   0  0  0  0  0  0  0  0  0  0  0  0
    0.3031    2.1426    0.7797 H   0  0  0  0  0  0  0  0  0  0  0  0
    1.7419    3.0157    1.2371 H   0  0  0  0  0  0  0  0  0  0  0  0
    1.2148    0.0326    1.6788 H   0  0  0  0  0  0  0  0  0  0  0  0
    1.5776    1.2534    2.9301 H   0  0  0  0  0  0  0  0  0  0  0  0
    3.4041    0.8225    0.7156 H   0  0  0  0  0  0  0  0  0  0  0  0
    3.8911    2.6194    2.1455 H   0  0  0  0  0  0  0  0  0  0  0  0
    5.1719    1.3745    2.1891 H   0  0  0  0  0  0  0  0  0  0  0  0
    3.9774    1.4742    3.5317 H   0  0  0  0  0  0  0  0  0  0  0  0
    2.9785   -1.4051    1.3272 H   0  0  0  0  0  0  0  0  0  0  0  0
    4.6413   -0.9326    1.7804 H   0  0  0  0  0  0  0  0  0  0  0  0
    3.3576   -1.0013    3.0422 H   0  0  0  0  0  0  0  0  0  0  0  0
    2.4324    1.5943   -5.5864 H   0  0  0  0  0  0  0  0  0  0  0  0
    3.3053    0.1992   -6.2598 H   0  0  0  0  0  0  0  0  0  0  0  0
    3.8603    0.9384   -4.7513 H   0  0  0  0  0  0  0  0  0  0  0  0
  1  2  1  0
  2  3  2  0
  3  4  1  0
  4  5  1  0
  5  6  1  0
  6  7  2  0
  7  8  1  0
  8  9  2  0
  9 10  1  0
 10 11  1  0
  9 12  1  0
 12 13  2  0
  4 14  2  0
 14 15  1  0
 15 16  2  3
 16 17  1  0
 17 18  1  0
 18 19  1  0
 19 20  1  0
 19 21  1  0
 15 22  1  0
 22 23  2  0
 23 24  1  0
 24 25  1  0
 24  1  1  0
 23  3  1  0
 13  6  1  0
  1 26  1  0
  2 27  1  0
  5 28  1  0
  7 29  1  0
  8 30  1  0
 10 31  1  0
 10 32  1  0
 11 33  1  0
 11 34  1  0
 11 35  1  0
 12 36  1  0
 13 37  1  0
 17 38  1  0
 17 39  1  0
 18 40  1  0
 18 41  1  0
 19 42  1  0
 20 43  1  0
 20 44  1  0
 20 45  1  0
 21 46  1  0
 21 47  1  0
 21 48  1  0
 25 49  1  0
 25 50  1  0
 25 51  1  0
M  CHG  1  19   1
M  END
>  <ScrubInfo>  (7) 
{"isomerGroup": 0, "isomerId": 6, "confId": 0, "nr_conformers:": 1, "nr_isomers:": 9}

$$$$
_i7
     RDKit          3D

 51 53  0  0  0  0  0  0  0  0999 V2000
   -1.2063    1.4683   -5.1221 N   0  0  0  0  0  0  0  0  0  0  0  0
    0.0130    1.4670   -4.4561 C   0  0  0  0  0  0  0  0  0  0  0  0
   -0.0748    0.9632   -3.2198 C   0  0  0  0  0  0  0  0  0  0  0  0
    0.8032    0.7420   -2.0714 C   0  0  0  0  0  0  0  0  0  0  0  0
    2.0631    1.0463   -2.1545 N   0  0  0  0  0  0  0  0  0  0  0  0
    2.8847    0.8273   -1.0419 C   0  0  0  0  0  0  0  0  0  0  0  0
    3.0731    1.8372   -0.0968 C   0  0  0  0  0  0  0  0  0  0  0  0
    3.8711    1.6133    1.0275 C   0  0  0  0  0  0  0  0  0  0  0  0
    4.5044    0.3774    1.2119 C   0  0  0  0  0  0  0  0  0  0  0  0
    5.3698    0.1345    2.4231 C   0  0  0  0  0  0  0  0  0  0  0  0
    4.5661   -0.4280    3.5854 C   0  0  0  0  0  0  0  0  0  0  0  0
    4.3230   -0.6296    0.2551 C   0  0  0  0  0  0  0  0  0  0  0  0
    3.5244   -0.4012   -0.8679 C   0  0  0  0  0  0  0  0  0  0  0  0
    0.1352    0.2140   -0.9895 N   0  0  0  0  0  0  0  0  0  0  0  0
   -1.1995   -0.1018   -0.9374 C   0  0  0  0  0  0  0  0  0  0  0  0
   -1.8407   -0.5799    0.0711 N   0  0  0  0  0  0  0  0  0  0  0  0
   -1.1452   -0.8446    1.3319 C   0  0  0  0  0  0  0  0  0  0  0  0
   -2.1338   -1.6151    2.2288 C   0  0  0  0  0  0  0  0  0  0  0  0
   -3.5387   -1.1193    1.9287 N   0  0  0  0  0  4  0  0  0  0  0  0
   -3.8923    0.1496    2.6340 C   0  0  0  0  0  0  0  0  0  0  0  0
   -4.5842   -2.1749    2.0663 C   0  0  0  0  0  0  0  0  0  0  0  0
   -2.0298    0.0737   -2.0233 N   0  0  0  0  0  0  0  0  0  0  0  0
   -1.5098    0.5550   -3.1110 C   0  0  0  0  0  0  0  0  0  0  0  0
   -2.1353    0.7911   -4.3370 N   0  0  0  0  0  0  0  0  0  0  0  0
   -3.5317    1.1727   -4.4189 C   0  0  0  0  0  0  0  0  0  0  0  0
   -1.1381    1.1825   -6.1027 H   0  0  0  0  0  0  0  0  0  0  0  0
    0.8953    1.8505   -4.9502 H   0  0  0  0  0  0  0  0  0  0  0  0
    2.6077    2.8083   -0.2448 H   0  0  0  0  0  0  0  0  0  0  0  0
    4.0134    2.4166    1.7478 H   0  0  0  0  0  0  0  0  0  0  0  0
    5.8534    1.0714    2.7253 H   0  0  0  0  0  0  0  0  0  0  0  0
    6.1816   -0.5562    2.1645 H   0  0  0  0  0  0  0  0  0  0  0  0
    5.2167   -0.5946    4.4498 H   0  0  0  0  0  0  0  0  0  0  0  0
    3.7697    0.2605    3.8878 H   0  0  0  0  0  0  0  0  0  0  0  0
    4.1012   -1.3839    3.3213 H   0  0  0  0  0  0  0  0  0  0  0  0
    4.8205   -1.5909    0.3677 H   0  0  0  0  0  0  0  0  0  0  0  0
    3.4115   -1.1797   -1.6180 H   0  0  0  0  0  0  0  0  0  0  0  0
    0.6974    0.0574   -0.1694 H   0  0  0  0  0  0  0  0  0  0  0  0
   -0.2394   -1.4446    1.1927 H   0  0  0  0  0  0  0  0  0  0  0  0
   -0.8732    0.1017    1.8126 H   0  0  0  0  0  0  0  0  0  0  0  0
   -2.1067   -2.6778    1.9637 H   0  0  0  0  0  0  0  0  0  0  0  0
   -1.9303   -1.5003    3.2978 H   0  0  0  0  0  0  0  0  0  0  0  0
   -3.4693   -0.8816    0.9149 H   0  0  0  0  0  0  0  0  0  0  0  0
   -3.1251    0.8968    2.4173 H   0  0  0  0  0  0  0  0  0  0  0  0
   -4.8585    0.4926    2.2545 H   0  0  0  0  0  0  0  0  0  0  0  0
   -3.9454   -0.0531    3.7069 H   0  0  0  0  0  0  0  0  0  0  0  0
   -5.5416   -1.7532    1.7488 H   0  0  0  0  0  0  0  0  0  0  0  0
   -4.3169   -3.0112    1.4149 H   0  0  0  0  0  0  0  0  0  0  0  0
   -4.6233   -2.4900    3.1123 H   0  0  0  0  0  0  0  0  0  0  0  0
   -3.6922    2.1581   -3.9692 H   0  0  0  0  0  0  0  0  0  0  0  0
   -3.8566    1.2095   -5.4638 H   0  0  0  0  0  0  0  0  0  0  0  0
   -4.1612    0.4436   -3.8988 H   0  0  0  0  0  0  0  0  0  0  0  0
  1  2  1  0
  2  3  2  0
  3  4  1  0
  4  5  2  3
  5  6  1  0
  6  7  2  0
  7  8  1  0
  8  9  2  0
  9 10  1  0
 10 11  1  0
  9 12  1  0
 12 13  2  0
  4 14  1  0
 14 15  1  0
 15 16  2  3
 16 17  1  0
 17 18  1  0
 18 19  1  0
 19 20  1  0
 19 21  1  0
 15 22  1  0
 22 23  2  0
 23 24  1  0
 24 25  1  0
 24  1  1  0
 23  3  1  0
 13  6  1  0
  1 26  1  0
  2 27  1  0
  7 28  1  0
  8 29  1  0
 10 30  1  0
 10 31  1  0
 11 32  1  0
 11 33  1  0
 11 34  1  0
 12 35  1  0
 13 36  1  0
 14 37  1  0
 17 38  1  0
 17 39  1  0
 18 40  1  0
 18 41  1  0
 19 42  1  0
 20 43  1  0
 20 44  1  0
 20 45  1  0
 21 46  1  0
 21 47  1  0
 21 48  1  0
 25 49  1  0
 25 50  1  0
 25 51  1  0
M  CHG  1  19   1
M  END
>  <ScrubInfo>  (8) 
{"isomerGroup": 0, "isomerId": 7, "confId": 0, "nr_conformers:": 1, "nr_isomers:": 9}

$$$$
_i8
     RDKit          3D

 51 53  0  0  0  0  0  0  0  0999 V2000
   -1.2875   -0.6812   -0.6411 N   0  0  0  0  0  0  0  0  0  0  0  0
   -1.7192    0.1504    0.3794 C   0  0  0  0  0  0  0  0  0  0  0  0
   -2.9318    0.3741    0.7626 N   0  0  0  0  0  0  0  0  0  0  0  0
   -4.0400   -0.2903    0.0904 C   0  0  0  0  0  0  0  0  0  0  0  0
   -5.3364    0.1819    0.7706 C   0  0  0  0  0  0  0  0  0  0  0  0
   -6.5992   -0.4188    0.1887 N   0  0  0  0  0  4  0  0  0  0  0  0
   -6.8754   -0.0016   -1.2262 C   0  0  0  0  0  0  0  0  0  0  0  0
   -6.7179   -1.9009    0.3925 C   0  0  0  0  0  0  0  0  0  0  0  0
   -0.6924    0.7928    1.0332 N   0  0  0  0  0  0  0  0  0  0  0  0
    0.6748    0.7575    0.8601 C   0  0  0  0  0  0  0  0  0  0  0  0
    1.4563    1.4663    1.6161 N   0  0  0  0  0  0  0  0  0  0  0  0
    2.8444    1.4550    1.4678 C   0  0  0  0  0  0  0  0  0  0  0  0
    3.6243    0.5589    2.2019 C   0  0  0  0  0  0  0  0  0  0  0  0
    5.0151    0.5593    2.0707 C   0  0  0  0  0  0  0  0  0  0  0  0
    5.6460    1.4739    1.2179 C   0  0  0  0  0  0  0  0  0  0  0  0
    7.1455    1.4634    1.0602 C   0  0  0  0  0  0  0  0  0  0  0  0
    7.5877    0.5362   -0.0616 C   0  0  0  0  0  0  0  0  0  0  0  0
    4.8627    2.3867    0.5001 C   0  0  0  0  0  0  0  0  0  0  0  0
    3.4721    2.3830    0.6342 C   0  0  0  0  0  0  0  0  0  0  0  0
    1.0333   -0.1382   -0.2246 C   0  0  0  0  0  0  0  0  0  0  0  0
    2.2151   -0.5810   -0.8466 C   0  0  0  0  0  0  0  0  0  0  0  0
    1.9815   -1.4497   -1.8406 N   0  0  0  0  0  0  0  0  0  0  0  0
    0.6390   -1.5635   -1.8670 N   0  0  0  0  0  0  0  0  0  0  0  0
    0.0382   -2.4415   -2.8394 C   0  0  0  0  0  0  0  0  0  0  0  0
    0.0362   -0.8010   -0.9115 C   0  0  0  0  0  0  0  0  0  0  0  0
   -1.9798   -1.1928   -1.1670 H   0  0  0  0  0  0  0  0  0  0  0  0
   -4.0529   -0.0223   -0.9714 H   0  0  0  0  0  0  0  0  0  0  0  0
   -3.9406   -1.3769    0.1827 H   0  0  0  0  0  0  0  0  0  0  0  0
   -5.3314   -0.0715    1.8375 H   0  0  0  0  0  0  0  0  0  0  0  0
   -5.4427    1.2706    0.6939 H   0  0  0  0  0  0  0  0  0  0  0  0
   -7.3572   -0.0045    0.7486 H   0  0  0  0  0  0  0  0  0  0  0  0
   -6.8024    1.0875   -1.2829 H   0  0  0  0  0  0  0  0  0  0  0  0
   -6.1487   -0.4815   -1.8859 H   0  0  0  0  0  0  0  0  0  0  0  0
   -7.8907   -0.3202   -1.4774 H   0  0  0  0  0  0  0  0  0  0  0  0
   -5.9891   -2.4062   -0.2456 H   0  0  0  0  0  0  0  0  0  0  0  0
   -7.7351   -2.1961    0.1213 H   0  0  0  0  0  0  0  0  0  0  0  0
   -6.5366   -2.1174    1.4483 H   0  0  0  0  0  0  0  0  0  0  0  0
   -0.9789    1.4067    1.7826 H   0  0  0  0  0  0  0  0  0  0  0  0
    3.1475   -0.1446    2.8784 H   0  0  0  0  0  0  0  0  0  0  0  0
    5.6038   -0.1549    2.6424 H   0  0  0  0  0  0  0  0  0  0  0  0
    7.6138    1.1549    2.0028 H   0  0  0  0  0  0  0  0  0  0  0  0
    7.5031    2.4813    0.8628 H   0  0  0  0  0  0  0  0  0  0  0  0
    7.2739   -0.4957    0.1290 H   0  0  0  0  0  0  0  0  0  0  0  0
    8.6783    0.5476   -0.1542 H   0  0  0  0  0  0  0  0  0  0  0  0
    7.1622    0.8443   -1.0227 H   0  0  0  0  0  0  0  0  0  0  0  0
    5.3315    3.1099   -0.1637 H   0  0  0  0  0  0  0  0  0  0  0  0
    2.8764    3.1062    0.0846 H   0  0  0  0  0  0  0  0  0  0  0  0
    3.2440   -0.3230   -0.6330 H   0  0  0  0  0  0  0  0  0  0  0  0
    0.1121   -3.4652   -2.4649 H   0  0  0  0  0  0  0  0  0  0  0  0
    0.5755   -2.3415   -3.7863 H   0  0  0  0  0  0  0  0  0  0  0  0
   -1.0083   -2.1664   -2.9870 H   0  0  0  0  0  0  0  0  0  0  0  0
  1  2  1  0
  2  3  2  3
  3  4  1  0
  4  5  1  0
  5  6  1  0
  6  7  1  0
  6  8  1  0
  2  9  1  0
  9 10  1  0
 10 11  2  3
 11 12  1  0
 12 13  2  0
 13 14  1  0
 14 15  2  0
 15 16  1  0
 16 17  1  0
 15 18  1  0
 18 19  2  0
 10 20  1  0
 20 21  1  0
 21 22  2  0
 22 23  1  0
 23 24  1  0
 23 25  1  0
 25  1  1  0
 19 12  1  0
 25 20  2  0
  1 26  1  0
  4 27  1  0
  4 28  1  0
  5 29  1  0
  5 30  1  0
  6 31  1  0
  7 32  1  0
  7 33  1  0
  7 34  1  0
  8 35  1  0
  8 36  1  0
  8 37  1  0
  9 38  1  0
 13 39  1  0
 14 40  1  0
 16 41  1  0
 16 42  1  0
 17 43  1  0
 17 44  1  0
 17 45  1  0
 18 46  1  0
 19 47  1  0
 21 48  1  0
 24 49  1  0
 24 50  1  0
 24 51  1  0
M  CHG  1   6   1
M  END
>  <ScrubInfo>  (9) 
{"isomerGroup": 0, "isomerId": 8, "confId": 0, "nr_conformers:": 1, "nr_isomers:": 9}

$$$$
