_i0
     RDKit          3D

 52 54  0  0  0  0  0  0  0  0999 V2000
    6.9219    2.6844    2.3741 C   0  0  0  0  0  0  0  0  0  0  0  0
    6.1713    3.1031    1.1192 C   0  0  0  0  0  0  0  0  0  0  0  0
    5.2837    2.0008    0.6032 C   0  0  0  0  0  0  0  0  0  0  0  0
    3.9640    1.8818    1.0475 C   0  0  0  0  0  0  0  0  0  0  0  0
    3.1426    0.8481    0.5797 C   0  0  0  0  0  0  0  0  0  0  0  0
    3.6163   -0.1003   -0.3299 C   0  0  0  0  0  0  0  0  0  0  0  0
    2.8350   -1.1434   -0.8571 N   0  0  0  0  0  0  0  0  0  0  0  0
    1.4653   -1.4344   -0.7707 C   0  0  0  0  0  0  0  0  0  0  0  0
    0.5778   -0.5677   -0.2138 N   0  0  0  0  0  0  0  0  0  0  0  0
   -0.7335   -0.8589   -0.1578 C   0  0  0  0  0  0  0  0  0  0  0  0
   -1.5127    0.1235    0.4469 N   0  0  0  0  0  0  0  0  0  0  0  0
   -2.8146    0.3135   -0.1761 C   0  0  0  0  0  0  0  0  0  0  0  0
   -3.5741    1.4517    0.5189 C   0  0  0  0  0  0  0  0  0  0  0  0
   -4.8262    1.7085   -0.1213 O   0  0  0  0  0  0  0  0  0  0  0  0
   -5.9006    0.8864    0.3443 C   0  0  0  0  0  0  0  0  0  0  0  0
   -6.9201    0.7961   -0.7849 C   0  0  0  0  0  0  0  0  0  0  0  0
   -6.5335    1.5131    1.5825 C   0  0  0  0  0  0  0  0  0  0  0  0
   -1.3072   -1.9750   -0.6245 N   0  0  0  0  0  0  0  0  0  0  0  0
   -0.4231   -2.8195   -1.1732 C   0  0  0  0  0  0  0  0  0  0  0  0
    0.9399   -2.6274   -1.2844 C   0  0  0  0  0  0  0  0  0  0  0  0
    1.4037   -3.7920   -1.9320 C   0  0  0  0  0  0  0  0  0  0  0  0
    0.4241   -4.6578   -2.2149 N   0  0  0  0  0  0  0  0  0  0  0  0
   -0.6808   -4.0398   -1.7354 N   0  0  0  0  0  0  0  0  0  0  0  0
   -1.9634   -4.6863   -1.8539 C   0  0  0  0  0  0  0  0  0  0  0  0
    4.9434    0.0303   -0.7708 C   0  0  0  0  0  0  0  0  0  0  0  0
    5.7695    1.0611   -0.3089 C   0  0  0  0  0  0  0  0  0  0  0  0
    7.5576    3.5032    2.7257 H   0  0  0  0  0  0  0  0  0  0  0  0
    6.2303    2.4210    3.1816 H   0  0  0  0  0  0  0  0  0  0  0  0
    7.5616    1.8160    2.1834 H   0  0  0  0  0  0  0  0  0  0  0  0
    6.8860    3.3964    0.3406 H   0  0  0  0  0  0  0  0  0  0  0  0
    5.5683    3.9951    1.3284 H   0  0  0  0  0  0  0  0  0  0  0  0
    3.5588    2.5919    1.7649 H   0  0  0  0  0  0  0  0  0  0  0  0
    2.1284    0.7953    0.9620 H   0  0  0  0  0  0  0  0  0  0  0  0
    3.3702   -1.8430   -1.3512 H   0  0  0  0  0  0  0  0  0  0  0  0
   -0.9186    0.9482    0.4529 H   0  0  0  0  0  0  0  0  0  0  0  0
   -2.7071    0.5552   -1.2416 H   0  0  0  0  0  0  0  0  0  0  0  0
   -3.4142   -0.6025   -0.1156 H   0  0  0  0  0  0  0  0  0  0  0  0
   -2.9857    2.3733    0.4433 H   0  0  0  0  0  0  0  0  0  0  0  0
   -3.7064    1.2473    1.5875 H   0  0  0  0  0  0  0  0  0  0  0  0
   -5.5439   -0.1237    0.5755 H   0  0  0  0  0  0  0  0  0  0  0  0
   -7.2825    1.7902   -1.0697 H   0  0  0  0  0  0  0  0  0  0  0  0
   -6.4591    0.3618   -1.6788 H   0  0  0  0  0  0  0  0  0  0  0  0
   -7.7768    0.1779   -0.5000 H   0  0  0  0  0  0  0  0  0  0  0  0
   -5.8169    1.5656    2.4081 H   0  0  0  0  0  0  0  0  0  0  0  0
   -6.8538    2.5412    1.3801 H   0  0  0  0  0  0  0  0  0  0  0  0
   -7.3998    0.9354    1.9195 H   0  0  0  0  0  0  0  0  0  0  0  0
    2.4167   -4.0499   -2.2113 H   0  0  0  0  0  0  0  0  0  0  0  0
   -2.1692   -4.8494   -2.9148 H   0  0  0  0  0  0  0  0  0  0  0  0
   -1.9177   -5.6403   -1.3224 H   0  0  0  0  0  0  0  0  0  0  0  0
   -2.7425   -4.0570   -1.4182 H   0  0  0  0  0  0  0  0  0  0  0  0
    5.3541   -0.6737   -1.4902 H   0  0  0  0  0  0  0  0  0  0  0  0
    6.7932    1.1244   -0.6702 H   0  0  0  0  0  0  0  0  0  0  0  0
  1  2  1  0
  2  3  1  0
  3  4  2  0
  4  5  1  0
  5  6  2  0
  6  7  1  0
  7  8  1  0
  8  9  2  0
  9 10  1  0
 10 11  1  0
 11 12  1  0
 12 13  1  0
 13 14  1  0
 14 15  1  0
 15 16  1  0
 15 17  1  0
 10 18  2  0
 18 19  1  0
 19 20  2  0
 20 21  1  0
 21 22  2  0
 22 23  1  0
 23 24  1  0
  6 25  1  0
 25 26  2  0
 26  3  1  0
 20  8  1  0
 23 19  1  0
  1 27  1  0
  1 28  1  0
  1 29  1  0
  2 30  1  0
  2 31  1  0
  4 32  1  0
  5 33  1  0
  7 34  1  0
 11 35  1  0
 12 36  1  0
 12 37  1  0
 13 38  1  0
 13 39  1  0
 15 40  1  0
 16 41  1  0
 16 42  1  0
 16 43  1  0
 17 44  1  0
 17 45  1  0
 17 46  1  0
 21 47  1  0
 24 48  1  0
 24 49  1  0
 24 50  1  0
 25 51  1  0
 26 52  1  0
M  END
>  <ScrubInfo>  (1) 
{"isomerGroup": 0, "isomerId": 0, "confId": 0, "nr_conformers:": 1, "nr_isomers:": 9}

$$$$
_i1
     RDKit          3D

 52 54  0  0  0  0  0  0  0  0999 V2000
   -0.6807    0.7742   -1.4836 N   0  0  0  0  0  0  0  0  0  0  0  0
   -1.4238    1.9042   -1.2592 C   0  0  0  0  0  0  0  0  0  0  0  0
   -2.6248    1.9793   -1.9049 N   0  0  0  0  0  0  0  0  0  0  0  0
   -3.5889    0.8840   -1.9171 C   0  0  0  0  0  0  0  0  0  0  0  0
   -4.0918    0.5435   -0.5103 C   0  0  0  0  0  0  0  0  0  0  0  0
   -5.0879   -0.4747   -0.6143 O   0  0  0  0  0  0  0  0  0  0  0  0
   -5.6493   -0.8536    0.6467 C   0  0  0  0  0  0  0  0  0  0  0  0
   -6.9850   -1.5281    0.3545 C   0  0  0  0  0  0  0  0  0  0  0  0
   -4.7223   -1.8154    1.3833 C   0  0  0  0  0  0  0  0  0  0  0  0
   -1.0510    2.8857   -0.4778 N   0  0  0  0  0  0  0  0  0  0  0  0
    0.1610    2.6341    0.0945 C   0  0  0  0  0  0  0  0  0  0  0  0
    0.9829    1.5286   -0.0719 C   0  0  0  0  0  0  0  0  0  0  0  0
    2.0880    1.7899    0.7574 C   0  0  0  0  0  0  0  0  0  0  0  0
    1.9883    2.9601    1.4015 N   0  0  0  0  0  0  0  0  0  0  0  0
    0.8076    3.4590    0.9714 N   0  0  0  0  0  0  0  0  0  0  0  0
    0.3643    4.7406    1.4588 C   0  0  0  0  0  0  0  0  0  0  0  0
    0.5591    0.4713   -0.9700 C   0  0  0  0  0  0  0  0  0  0  0  0
    1.1852   -0.6157   -1.3039 N   0  0  0  0  0  0  0  0  0  0  0  0
    2.4482   -0.9264   -0.7976 C   0  0  0  0  0  0  0  0  0  0  0  0
    2.5727   -1.7205    0.3441 C   0  0  0  0  0  0  0  0  0  0  0  0
    3.8354   -2.0550    0.8397 C   0  0  0  0  0  0  0  0  0  0  0  0
    4.9929   -1.6078    0.1897 C   0  0  0  0  0  0  0  0  0  0  0  0
    6.3564   -1.9804    0.7136 C   0  0  0  0  0  0  0  0  0  0  0  0
    6.8531   -3.2890    0.1184 C   0  0  0  0  0  0  0  0  0  0  0  0
    4.8648   -0.8393   -0.9744 C   0  0  0  0  0  0  0  0  0  0  0  0
    3.6001   -0.5074   -1.4666 C   0  0  0  0  0  0  0  0  0  0  0  0
   -0.9847    0.1519   -2.2143 H   0  0  0  0  0  0  0  0  0  0  0  0
   -3.0718    2.8643   -1.6725 H   0  0  0  0  0  0  0  0  0  0  0  0
   -3.1657   -0.0079   -2.3933 H   0  0  0  0  0  0  0  0  0  0  0  0
   -4.4395    1.1738   -2.5454 H   0  0  0  0  0  0  0  0  0  0  0  0
   -3.2602    0.1945    0.1100 H   0  0  0  0  0  0  0  0  0  0  0  0
   -4.5263    1.4352   -0.0432 H   0  0  0  0  0  0  0  0  0  0  0  0
   -5.8348    0.0380    1.2577 H   0  0  0  0  0  0  0  0  0  0  0  0
   -7.6461   -0.8438   -0.1885 H   0  0  0  0  0  0  0  0  0  0  0  0
   -7.4863   -1.8368    1.2769 H   0  0  0  0  0  0  0  0  0  0  0  0
   -6.8504   -2.4081   -0.2844 H   0  0  0  0  0  0  0  0  0  0  0  0
   -4.4560   -2.6665    0.7470 H   0  0  0  0  0  0  0  0  0  0  0  0
   -3.7849   -1.3251    1.6630 H   0  0  0  0  0  0  0  0  0  0  0  0
   -5.1894   -2.1923    2.2986 H   0  0  0  0  0  0  0  0  0  0  0  0
    2.9702    1.1903    0.9347 H   0  0  0  0  0  0  0  0  0  0  0  0
   -0.5575    5.0375    0.9539 H   0  0  0  0  0  0  0  0  0  0  0  0
    0.1888    4.6558    2.5342 H   0  0  0  0  0  0  0  0  0  0  0  0
    1.1470    5.4764    1.2566 H   0  0  0  0  0  0  0  0  0  0  0  0
    1.6809   -2.0797    0.8500 H   0  0  0  0  0  0  0  0  0  0  0  0
    3.9091   -2.6709    1.7331 H   0  0  0  0  0  0  0  0  0  0  0  0
    6.3221   -2.0597    1.8070 H   0  0  0  0  0  0  0  0  0  0  0  0
    7.0692   -1.1772    0.4903 H   0  0  0  0  0  0  0  0  0  0  0  0
    6.1770   -4.1166    0.3582 H   0  0  0  0  0  0  0  0  0  0  0  0
    6.9318   -3.2249   -0.9722 H   0  0  0  0  0  0  0  0  0  0  0  0
    7.8431   -3.5338    0.5160 H   0  0  0  0  0  0  0  0  0  0  0  0
    5.7486   -0.4977   -1.5086 H   0  0  0  0  0  0  0  0  0  0  0  0
    3.5114    0.0820   -2.3750 H   0  0  0  0  0  0  0  0  0  0  0  0
  1  2  1  0
  2  3  1  0
  3  4  1  0
  4  5  1  0
  5  6  1  0
  6  7  1  0
  7  8  1  0
  7  9  1  0
  2 10  2  0
 10 11  1  0
 11 12  2  0
 12 13  1  0
 13 14  2  0
 14 15  1  0
 15 16  1  0
 12 17  1  0
 17 18  2  3
 18 19  1  0
 19 20  2  0
 20 21  1  0
 21 22  2  0
 22 23  1  0
 23 24  1  0
 22 25  1  0
 25 26  2  0
 17  1  1  0
 26 19  1  0
 15 11  1  0
  1 27  1  0
  3 28  1  0
  4 29  1  0
  4 30  1  0
  5 31  1  0
  5 32  1  0
  7 33  1  0
  8 34  1  0
  8 35  1  0
  8 36  1  0
  9 37  1  0
  9 38  1  0
  9 39  1  0
 13 40  1  0
 16 41  1  0
 16 42  1  0
 16 43  1  0
 20 44  1  0
 21 45  1  0
 23 46  1  0
 23 47  1  0
 24 48  1  0
 24 49  1  0
 24 50  1  0
 25 51  1  0
 26 52  1  0
M  END
>  <ScrubInfo>  (2) 
{"isomerGroup": 0, "isomerId": 1, "confId": 0, "nr_conformers:": 1, "nr_isomers:": 9}

$$$$
_i2
     RDKit          3D

 52 54  0  0  0  0  0  0  0  0999 V2000
    0.2450    0.6320    0.0042 N   0  0  0  0  0  0  0  0  0  0  0  0
    1.0949    1.4764   -0.6850 C   0  0  0  0  0  0  0  0  0  0  0  0
    2.2761    1.0453   -1.2600 N   0  0  0  0  0  0  0  0  0  0  0  0
    3.1299    0.0012   -0.8524 C   0  0  0  0  0  0  0  0  0  0  0  0
    3.0889   -0.5829    0.4180 C   0  0  0  0  0  0  0  0  0  0  0  0
    3.9308   -1.6508    0.7496 C   0  0  0  0  0  0  0  0  0  0  0  0
    4.8256   -2.1706   -0.1905 C   0  0  0  0  0  0  0  0  0  0  0  0
    5.7418   -3.3110    0.1712 C   0  0  0  0  0  0  0  0  0  0  0  0
    7.0609   -2.8167    0.7449 C   0  0  0  0  0  0  0  0  0  0  0  0
    4.8722   -1.5952   -1.4634 C   0  0  0  0  0  0  0  0  0  0  0  0
    4.0299   -0.5271   -1.7890 C   0  0  0  0  0  0  0  0  0  0  0  0
    0.6518    2.7340   -0.8070 C   0  0  0  0  0  0  0  0  0  0  0  0
    1.0903    3.9884   -1.4277 C   0  0  0  0  0  0  0  0  0  0  0  0
    0.2501    4.9751   -1.2454 N   0  0  0  0  0  0  0  0  0  0  0  0
   -0.7777    4.4472   -0.4460 N   0  0  0  0  0  0  0  0  0  0  0  0
   -2.0169    5.1781   -0.3340 C   0  0  0  0  0  0  0  0  0  0  0  0
   -0.6439    3.0920   -0.1864 C   0  0  0  0  0  0  0  0  0  0  0  0
   -1.4344    2.2796    0.4291 N   0  0  0  0  0  0  0  0  0  0  0  0
   -0.9880    0.9773    0.4917 C   0  0  0  0  0  0  0  0  0  0  0  0
   -1.7299    0.0532    1.0030 N   0  0  0  0  0  0  0  0  0  0  0  0
   -3.0581    0.4226    1.5082 C   0  0  0  0  0  0  0  0  0  0  0  0
   -4.0969    0.4805    0.3784 C   0  0  0  0  0  0  0  0  0  0  0  0
   -4.2649   -0.7727   -0.2934 O   0  0  0  0  0  0  0  0  0  0  0  0
   -5.0778   -1.7199    0.4001 C   0  0  0  0  0  0  0  0  0  0  0  0
   -6.5469   -1.4858    0.0631 C   0  0  0  0  0  0  0  0  0  0  0  0
   -4.6431   -3.1066   -0.0594 C   0  0  0  0  0  0  0  0  0  0  0  0
    0.4377   -0.3583   -0.0494 H   0  0  0  0  0  0  0  0  0  0  0  0
    2.7226    1.6898   -1.9033 H   0  0  0  0  0  0  0  0  0  0  0  0
    2.4292   -0.1963    1.1902 H   0  0  0  0  0  0  0  0  0  0  0  0
    3.8827   -2.0702    1.7524 H   0  0  0  0  0  0  0  0  0  0  0  0
    5.9313   -3.9276   -0.7159 H   0  0  0  0  0  0  0  0  0  0  0  0
    5.2452   -3.9676    0.8960 H   0  0  0  0  0  0  0  0  0  0  0  0
    7.7049   -3.6648    0.9980 H   0  0  0  0  0  0  0  0  0  0  0  0
    7.5958   -2.1871    0.0258 H   0  0  0  0  0  0  0  0  0  0  0  0
    6.9026   -2.2274    1.6545 H   0  0  0  0  0  0  0  0  0  0  0  0
    5.5596   -1.9782   -2.2143 H   0  0  0  0  0  0  0  0  0  0  0  0
    4.0753   -0.1183   -2.7955 H   0  0  0  0  0  0  0  0  0  0  0  0
    2.0281    4.0450   -1.9946 H   0  0  0  0  0  0  0  0  0  0  0  0
   -2.5490    4.9057    0.5831 H   0  0  0  0  0  0  0  0  0  0  0  0
   -1.8294    6.2563   -0.3029 H   0  0  0  0  0  0  0  0  0  0  0  0
   -2.6646    4.9634   -1.1897 H   0  0  0  0  0  0  0  0  0  0  0  0
   -3.3417   -0.3376    2.2428 H   0  0  0  0  0  0  0  0  0  0  0  0
   -3.0369    1.3728    2.0554 H   0  0  0  0  0  0  0  0  0  0  0  0
   -5.0579    0.8312    0.7694 H   0  0  0  0  0  0  0  0  0  0  0  0
   -3.7819    1.2002   -0.3838 H   0  0  0  0  0  0  0  0  0  0  0  0
   -4.9295   -1.6493    1.4827 H   0  0  0  0  0  0  0  0  0  0  0  0
   -7.1852   -2.2442    0.5270 H   0  0  0  0  0  0  0  0  0  0  0  0
   -6.8787   -0.5026    0.4110 H   0  0  0  0  0  0  0  0  0  0  0  0
   -6.7078   -1.5059   -1.0205 H   0  0  0  0  0  0  0  0  0  0  0  0
   -4.7514   -3.2147   -1.1444 H   0  0  0  0  0  0  0  0  0  0  0  0
   -5.2269   -3.8908    0.4320 H   0  0  0  0  0  0  0  0  0  0  0  0
   -3.5835   -3.2670    0.1681 H   0  0  0  0  0  0  0  0  0  0  0  0
  1  2  1  0
  2  3  1  0
  3  4  1  0
  4  5  2  0
  5  6  1  0
  6  7  2  0
  7  8  1  0
  8  9  1  0
  7 10  1  0
 10 11  2  0
  2 12  2  0
 12 13  1  0
 13 14  2  0
 14 15  1  0
 15 16  1  0
 15 17  1  0
 17 18  2  0
 18 19  1  0
 19 20  2  3
 20 21  1  0
 21 22  1  0
 22 23  1  0
 23 24  1  0
 24 25  1  0
 24 26  1  0
 19  1  1  0
 11  4  1  0
 17 12  1  0
  1 27  1  0
  3 28  1  0
  5 29  1  0
  6 30  1  0
  8 31  1  0
  8 32  1  0
  9 33  1  0
  9 34  1  0
  9 35  1  0
 10 36  1  0
 11 37  1  0
 13 38  1  0
 16 39  1  0
 16 40  1  0
 16 41  1  0
 21 42  1  0
 21 43  1  0
 22 44  1  0
 22 45  1  0
 24 46  1  0
 25 47  1  0
 25 48  1  0
 25 49  1  0
 26 50  1  0
 26 51  1  0
 26 52  1  0
M  END
>  <ScrubInfo>  (3) 
{"isomerGroup": 0, "isomerId": 2, "confId": 0, "nr_conformers:": 1, "nr_isomers:": 9}

$$$$
_i3
     RDKit          3D

 52 54  0  0  0  0  0  0  0  0999 V2000
   -1.6697    0.1517    0.2638 N   0  0  0  0  0  0  0  0  0  0  0  0
   -1.3419    0.6058    1.5300 C   0  0  0  0  0  0  0  0  0  0  0  0
   -2.0946    0.5914    2.5708 N   0  0  0  0  0  0  0  0  0  0  0  0
   -3.4304   -0.0037    2.5491 C   0  0  0  0  0  0  0  0  0  0  0  0
   -4.4004    0.7260    1.6144 C   0  0  0  0  0  0  0  0  0  0  0  0
   -4.4111    0.0793    0.3255 O   0  0  0  0  0  0  0  0  0  0  0  0
   -5.4037   -0.9539    0.2263 C   0  0  0  0  0  0  0  0  0  0  0  0
   -4.9245   -1.9493   -0.8226 C   0  0  0  0  0  0  0  0  0  0  0  0
   -6.7401   -0.3473   -0.1891 C   0  0  0  0  0  0  0  0  0  0  0  0
   -0.0904    1.1488    1.7949 N   0  0  0  0  0  0  0  0  0  0  0  0
    0.7913    1.2418    0.8402 C   0  0  0  0  0  0  0  0  0  0  0  0
    2.0375    1.7831    1.0301 N   0  0  0  0  0  0  0  0  0  0  0  0
    3.2526    1.0886    0.7950 C   0  0  0  0  0  0  0  0  0  0  0  0
    3.3308   -0.3032    0.6723 C   0  0  0  0  0  0  0  0  0  0  0  0
    4.5629   -0.9339    0.4721 C   0  0  0  0  0  0  0  0  0  0  0  0
    5.7441   -0.1864    0.4096 C   0  0  0  0  0  0  0  0  0  0  0  0
    7.0686   -0.8657    0.1738 C   0  0  0  0  0  0  0  0  0  0  0  0
    7.3860   -0.9858   -1.3089 C   0  0  0  0  0  0  0  0  0  0  0  0
    5.6716    1.2038    0.5461 C   0  0  0  0  0  0  0  0  0  0  0  0
    4.4391    1.8315    0.7462 C   0  0  0  0  0  0  0  0  0  0  0  0
    0.4623    0.8431   -0.5073 C   0  0  0  0  0  0  0  0  0  0  0  0
    1.0606    0.8588   -1.7764 C   0  0  0  0  0  0  0  0  0  0  0  0
    0.2497    0.3676   -2.7286 N   0  0  0  0  0  0  0  0  0  0  0  0
   -0.8856    0.0566   -2.0557 N   0  0  0  0  0  0  0  0  0  0  0  0
   -2.0213   -0.4753   -2.7635 C   0  0  0  0  0  0  0  0  0  0  0  0
   -0.7774    0.3143   -0.7272 C   0  0  0  0  0  0  0  0  0  0  0  0
   -2.6462   -0.0864    0.1023 H   0  0  0  0  0  0  0  0  0  0  0  0
   -3.8186    0.0744    3.5708 H   0  0  0  0  0  0  0  0  0  0  0  0
   -3.3587   -1.0720    2.3148 H   0  0  0  0  0  0  0  0  0  0  0  0
   -5.4087    0.7399    2.0419 H   0  0  0  0  0  0  0  0  0  0  0  0
   -4.0912    1.7651    1.4603 H   0  0  0  0  0  0  0  0  0  0  0  0
   -5.5058   -1.4789    1.1837 H   0  0  0  0  0  0  0  0  0  0  0  0
   -3.9432   -2.3506   -0.5472 H   0  0  0  0  0  0  0  0  0  0  0  0
   -5.6251   -2.7832   -0.9281 H   0  0  0  0  0  0  0  0  0  0  0  0
   -4.8072   -1.4670   -1.7988 H   0  0  0  0  0  0  0  0  0  0  0  0
   -7.1053    0.3583    0.5635 H   0  0  0  0  0  0  0  0  0  0  0  0
   -6.6392    0.2168   -1.1231 H   0  0  0  0  0  0  0  0  0  0  0  0
   -7.5002   -1.1224   -0.3276 H   0  0  0  0  0  0  0  0  0  0  0  0
    2.0836    2.1640    1.9738 H   0  0  0  0  0  0  0  0  0  0  0  0
    2.4398   -0.9228    0.7390 H   0  0  0  0  0  0  0  0  0  0  0  0
    4.5923   -2.0167    0.3692 H   0  0  0  0  0  0  0  0  0  0  0  0
    7.0593   -1.8618    0.6329 H   0  0  0  0  0  0  0  0  0  0  0  0
    7.8654   -0.3066    0.6793 H   0  0  0  0  0  0  0  0  0  0  0  0
    8.3516   -1.4817   -1.4502 H   0  0  0  0  0  0  0  0  0  0  0  0
    7.4374   -0.0008   -1.7852 H   0  0  0  0  0  0  0  0  0  0  0  0
    6.6235   -1.5725   -1.8323 H   0  0  0  0  0  0  0  0  0  0  0  0
    6.5742    1.8088    0.4962 H   0  0  0  0  0  0  0  0  0  0  0  0
    4.4083    2.9140    0.8478 H   0  0  0  0  0  0  0  0  0  0  0  0
    2.0466    1.2069   -2.0563 H   0  0  0  0  0  0  0  0  0  0  0  0
   -2.1437   -1.5221   -2.4759 H   0  0  0  0  0  0  0  0  0  0  0  0
   -1.8498   -0.4004   -3.8403 H   0  0  0  0  0  0  0  0  0  0  0  0
   -2.9051    0.1067   -2.4915 H   0  0  0  0  0  0  0  0  0  0  0  0
  1  2  1  0
  2  3  2  3
  3  4  1  0
  4  5  1  0
  5  6  1  0
  6  7  1  0
  7  8  1  0
  7  9  1  0
  2 10  1  0
 10 11  2  0
 11 12  1  0
 12 13  1  0
 13 14  2  0
 14 15  1  0
 15 16  2  0
 16 17  1  0
 17 18  1  0
 16 19  1  0
 19 20  2  0
 11 21  1  0
 21 22  1  0
 22 23  2  0
 23 24  1  0
 24 25  1  0
 24 26  1  0
 26  1  1  0
 20 13  1  0
 26 21  2  0
  1 27  1  0
  4 28  1  0
  4 29  1  0
  5 30  1  0
  5 31  1  0
  7 32  1  0
  8 33  1  0
  8 34  1  0
  8 35  1  0
  9 36  1  0
  9 37  1  0
  9 38  1  0
 12 39  1  0
 14 40  1  0
 15 41  1  0
 17 42  1  0
 17 43  1  0
 18 44  1  0
 18 45  1  0
 18 46  1  0
 19 47  1  0
 20 48  1  0
 22 49  1  0
 25 50  1  0
 25 51  1  0
 25 52  1  0
M  END
>  <ScrubInfo>  (4) 
{"isomerGroup": 0, "isomerId": 3, "confId": 0, "nr_conformers:": 1, "nr_isomers:": 9}

$$$$
_i4
     RDKit          3D

 52 54  0  0  0  0  0  0  0  0999 V2000
    0.9140   -2.2840    0.2264 N   0  0  0  0  0  0  0  0  0  0  0  0
    1.5113   -1.1352    0.6811 C   0  0  0  0  0  0  0  0  0  0  0  0
    2.8488   -1.2532    0.9262 N   0  0  0  0  0  0  0  0  0  0  0  0
    3.7671   -1.6247   -0.1512 C   0  0  0  0  0  0  0  0  0  0  0  0
    5.2110   -1.3116    0.2647 C   0  0  0  0  0  0  0  0  0  0  0  0
    5.3477    0.0508    0.6841 O   0  0  0  0  0  0  0  0  0  0  0  0
    5.4863    0.9957   -0.3807 C   0  0  0  0  0  0  0  0  0  0  0  0
    4.9761    2.3346    0.1382 C   0  0  0  0  0  0  0  0  0  0  0  0
    6.9519    1.1040   -0.7874 C   0  0  0  0  0  0  0  0  0  0  0  0
    0.9107   -0.0005    0.8924 N   0  0  0  0  0  0  0  0  0  0  0  0
   -0.4517    0.1189    0.6408 C   0  0  0  0  0  0  0  0  0  0  0  0
   -0.9581    1.2982    0.8153 N   0  0  0  0  0  0  0  0  0  0  0  0
   -2.3074    1.5726    0.5980 C   0  0  0  0  0  0  0  0  0  0  0  0
   -3.2167    1.5092    1.6559 C   0  0  0  0  0  0  0  0  0  0  0  0
   -4.5668    1.8018    1.4479 C   0  0  0  0  0  0  0  0  0  0  0  0
   -5.0213    2.1850    0.1793 C   0  0  0  0  0  0  0  0  0  0  0  0
   -6.4808    2.4814   -0.0524 C   0  0  0  0  0  0  0  0  0  0  0  0
   -7.2516    1.2347   -0.4589 C   0  0  0  0  0  0  0  0  0  0  0  0
   -4.1026    2.2713   -0.8748 C   0  0  0  0  0  0  0  0  0  0  0  0
   -2.7533    1.9779   -0.6618 C   0  0  0  0  0  0  0  0  0  0  0  0
   -1.1414   -1.0889    0.2131 C   0  0  0  0  0  0  0  0  0  0  0  0
   -2.4566   -1.4880   -0.0889 C   0  0  0  0  0  0  0  0  0  0  0  0
   -2.5443   -2.7852   -0.4271 N   0  0  0  0  0  0  0  0  0  0  0  0
   -1.2697   -3.2263   -0.3383 N   0  0  0  0  0  0  0  0  0  0  0  0
   -0.9845   -4.6066   -0.6355 C   0  0  0  0  0  0  0  0  0  0  0  0
   -0.4143   -2.2389    0.0309 C   0  0  0  0  0  0  0  0  0  0  0  0
    1.4443   -3.1385    0.3263 H   0  0  0  0  0  0  0  0  0  0  0  0
    3.1742   -0.3698    1.3318 H   0  0  0  0  0  0  0  0  0  0  0  0
    3.6735   -2.6922   -0.3768 H   0  0  0  0  0  0  0  0  0  0  0  0
    3.5071   -1.0616   -1.0540 H   0  0  0  0  0  0  0  0  0  0  0  0
    5.9120   -1.5488   -0.5421 H   0  0  0  0  0  0  0  0  0  0  0  0
    5.4787   -1.9316    1.1274 H   0  0  0  0  0  0  0  0  0  0  0  0
    4.8799    0.7019   -1.2443 H   0  0  0  0  0  0  0  0  0  0  0  0
    3.9280    2.2480    0.4451 H   0  0  0  0  0  0  0  0  0  0  0  0
    5.0515    3.1135   -0.6267 H   0  0  0  0  0  0  0  0  0  0  0  0
    5.5374    2.6546    1.0231 H   0  0  0  0  0  0  0  0  0  0  0  0
    7.3220    0.1524   -1.1816 H   0  0  0  0  0  0  0  0  0  0  0  0
    7.0937    1.8698   -1.5564 H   0  0  0  0  0  0  0  0  0  0  0  0
    7.5802    1.3517    0.0754 H   0  0  0  0  0  0  0  0  0  0  0  0
   -2.8687    1.2287    2.6464 H   0  0  0  0  0  0  0  0  0  0  0  0
   -5.2591    1.7334    2.2838 H   0  0  0  0  0  0  0  0  0  0  0  0
   -6.9198    2.9087    0.8574 H   0  0  0  0  0  0  0  0  0  0  0  0
   -6.5829    3.2500   -0.8281 H   0  0  0  0  0  0  0  0  0  0  0  0
   -6.8557    0.8077   -1.3866 H   0  0  0  0  0  0  0  0  0  0  0  0
   -7.1960    0.4629    0.3163 H   0  0  0  0  0  0  0  0  0  0  0  0
   -8.3065    1.4779   -0.6205 H   0  0  0  0  0  0  0  0  0  0  0  0
   -4.4297    2.5724   -1.8672 H   0  0  0  0  0  0  0  0  0  0  0  0
   -2.0442    2.0636   -1.4805 H   0  0  0  0  0  0  0  0  0  0  0  0
   -3.3691   -0.9075   -0.0775 H   0  0  0  0  0  0  0  0  0  0  0  0
   -1.4360   -5.2250    0.1442 H   0  0  0  0  0  0  0  0  0  0  0  0
    0.0953   -4.7670   -0.6611 H   0  0  0  0  0  0  0  0  0  0  0  0
   -1.4138   -4.8481   -1.6114 H   0  0  0  0  0  0  0  0  0  0  0  0
  1  2  1  0
  2  3  1  0
  3  4  1  0
  4  5  1  0
  5  6  1  0
  6  7  1  0
  7  8  1  0
  7  9  1  0
  2 10  2  0
 10 11  1  0
 11 12  2  3
 12 13  1  0
 13 14  2  0
 14 15  1  0
 15 16  2  0
 16 17  1  0
 17 18  1  0
 16 19  1  0
 19 20  2  0
 11 21  1  0
 21 22  1  0
 22 23  2  0
 23 24  1  0
 24 25  1  0
 24 26  1  0
 26  1  1  0
 20 13  1  0
 26 21  2  0
  1 27  1  0
  3 28  1  0
  4 29  1  0
  4 30  1  0
  5 31  1  0
  5 32  1  0
  7 33  1  0
  8 34  1  0
  8 35  1  0
  8 36  1  0
  9 37  1  0
  9 38  1  0
  9 39  1  0
 14 40  1  0
 15 41  1  0
 17 42  1  0
 17 43  1  0
 18 44  1  0
 18 45  1  0
 18 46  1  0
 19 47  1  0
 20 48  1  0
 22 49  1  0
 25 50  1  0
 25 51  1  0
 25 52  1  0
M  END
>  <ScrubInfo>  (5) 
{"isomerGroup": 0, "isomerId": 4, "confId": 0, "nr_conformers:": 1, "nr_isomers:": 9}

$$$$
_i5
     RDKit          3D

 52 54  0  0  0  0  0  0  0  0999 V2000
   -0.9951   -4.9279   -1.7607 N   0  0  0  0  0  0  0  0  0  0  0  0
    0.1429   -4.2402   -1.3497 C   0  0  0  0  0  0  0  0  0  0  0  0
   -0.0098   -2.9105   -1.3937 C   0  0  0  0  0  0  0  0  0  0  0  0
    0.7646   -1.7389   -1.0585 C   0  0  0  0  0  0  0  0  0  0  0  0
    1.9740   -1.8139   -0.5968 N   0  0  0  0  0  0  0  0  0  0  0  0
    2.6386   -0.6210   -0.2760 C   0  0  0  0  0  0  0  0  0  0  0  0
    2.6816   -0.1811    1.0485 C   0  0  0  0  0  0  0  0  0  0  0  0
    3.3592    0.9937    1.3860 C   0  0  0  0  0  0  0  0  0  0  0  0
    4.0107    1.7439    0.3986 C   0  0  0  0  0  0  0  0  0  0  0  0
    4.7581    3.0012    0.7614 C   0  0  0  0  0  0  0  0  0  0  0  0
    6.2088    2.7144    1.1173 C   0  0  0  0  0  0  0  0  0  0  0  0
    3.9855    1.2894   -0.9262 C   0  0  0  0  0  0  0  0  0  0  0  0
    3.3074    0.1133   -1.2577 C   0  0  0  0  0  0  0  0  0  0  0  0
    0.1050   -0.5559   -1.2504 N   0  0  0  0  0  0  0  0  0  0  0  0
   -1.1126   -0.4928   -1.7007 C   0  0  0  0  0  0  0  0  0  0  0  0
   -1.7242    0.7182   -1.8574 N   0  0  0  0  0  0  0  0  0  0  0  0
   -1.2697    1.9108   -1.1559 C   0  0  0  0  0  0  0  0  0  0  0  0
   -1.5846    1.8234    0.3400 C   0  0  0  0  0  0  0  0  0  0  0  0
   -3.0073    1.7632    0.5129 O   0  0  0  0  0  0  0  0  0  0  0  0
   -3.3962    1.4987    1.8634 C   0  0  0  0  0  0  0  0  0  0  0  0
   -3.3698   -0.0027    2.1334 C   0  0  0  0  0  0  0  0  0  0  0  0
   -4.8096    2.0420    2.0377 C   0  0  0  0  0  0  0  0  0  0  0  0
   -1.8895   -1.5689   -2.0463 N   0  0  0  0  0  0  0  0  0  0  0  0
   -1.3652   -2.7391   -1.9298 C   0  0  0  0  0  0  0  0  0  0  0  0
   -1.9089   -3.9883   -2.2351 N   0  0  0  0  0  0  0  0  0  0  0  0
   -3.3277   -4.2424   -2.0792 C   0  0  0  0  0  0  0  0  0  0  0  0
   -0.7870   -5.7071   -2.3896 H   0  0  0  0  0  0  0  0  0  0  0  0
    1.0200   -4.7899   -1.0381 H   0  0  0  0  0  0  0  0  0  0  0  0
    2.1834   -0.7607    1.8199 H   0  0  0  0  0  0  0  0  0  0  0  0
    3.3794    1.3144    2.4245 H   0  0  0  0  0  0  0  0  0  0  0  0
    4.7146    3.7102   -0.0744 H   0  0  0  0  0  0  0  0  0  0  0  0
    4.2604    3.4958    1.6044 H   0  0  0  0  0  0  0  0  0  0  0  0
    6.2811    2.0362    1.9743 H   0  0  0  0  0  0  0  0  0  0  0  0
    6.7258    3.6439    1.3759 H   0  0  0  0  0  0  0  0  0  0  0  0
    6.7401    2.2528    0.2781 H   0  0  0  0  0  0  0  0  0  0  0  0
    4.4955    1.8447   -1.7096 H   0  0  0  0  0  0  0  0  0  0  0  0
    3.2927   -0.2320   -2.2873 H   0  0  0  0  0  0  0  0  0  0  0  0
   -2.7341    0.6225   -1.8701 H   0  0  0  0  0  0  0  0  0  0  0  0
   -0.1969    2.0675   -1.3135 H   0  0  0  0  0  0  0  0  0  0  0  0
   -1.7936    2.7704   -1.5885 H   0  0  0  0  0  0  0  0  0  0  0  0
   -1.2093    2.7205    0.8448 H   0  0  0  0  0  0  0  0  0  0  0  0
   -1.1056    0.9460    0.7850 H   0  0  0  0  0  0  0  0  0  0  0  0
   -2.7299    2.0234    2.5589 H   0  0  0  0  0  0  0  0  0  0  0  0
   -2.3542   -0.4023    2.0544 H   0  0  0  0  0  0  0  0  0  0  0  0
   -3.7457   -0.2311    3.1356 H   0  0  0  0  0  0  0  0  0  0  0  0
   -3.9766   -0.5426    1.3980 H   0  0  0  0  0  0  0  0  0  0  0  0
   -5.1760    1.8809    3.0561 H   0  0  0  0  0  0  0  0  0  0  0  0
   -4.8328    3.1164    1.8252 H   0  0  0  0  0  0  0  0  0  0  0  0
   -5.5036    1.5678    1.3347 H   0  0  0  0  0  0  0  0  0  0  0  0
   -3.6207   -4.1808   -1.0259 H   0  0  0  0  0  0  0  0  0  0  0  0
   -3.9143   -3.5150   -2.6493 H   0  0  0  0  0  0  0  0  0  0  0  0
   -3.5790   -5.2405   -2.4525 H   0  0  0  0  0  0  0  0  0  0  0  0
  1  2  1  0
  2  3  2  0
  3  4  1  0
  4  5  2  3
  5  6  1  0
  6  7  2  0
  7  8  1  0
  8  9  2  0
  9 10  1  0
 10 11  1  0
  9 12  1  0
 12 13  2  0
  4 14  1  0
 14 15  2  0
 15 16  1  0
 16 17  1  0
 17 18  1  0
 18 19  1  0
 19 20  1  0
 20 21  1  0
 20 22  1  0
 15 23  1  0
 23 24  2  0
 24 25  1  0
 25 26  1  0
 25  1  1  0
 24  3  1  0
 13  6  1  0
  1 27  1  0
  2 28  1  0
  7 29  1  0
  8 30  1  0
 10 31  1  0
 10 32  1  0
 11 33  1  0
 11 34  1  0
 11 35  1  0
 12 36  1  0
 13 37  1  0
 16 38  1  0
 17 39  1  0
 17 40  1  0
 18 41  1  0
 18 42  1  0
 20 43  1  0
 21 44  1  0
 21 45  1  0
 21 46  1  0
 22 47  1  0
 22 48  1  0
 22 49  1  0
 26 50  1  0
 26 51  1  0
 26 52  1  0
M  END
>  <ScrubInfo>  (6) 
{"isomerGroup": 0, "isomerId": 5, "confId": 0, "nr_conformers:": 1, "nr_isomers:": 9}

$$$$
_i6
     RDKit          3D

 52 54  0  0  0  0  0  0  0  0999 V2000
    0.8132   -5.3838   -0.8507 N   0  0  0  0  0  0  0  0  0  0  0  0
   -0.1559   -4.4929   -0.4014 C   0  0  0  0  0  0  0  0  0  0  0  0
    0.0643   -3.2334   -0.8045 C   0  0  0  0  0  0  0  0  0  0  0  0
   -0.5501   -1.9101   -0.6567 C   0  0  0  0  0  0  0  0  0  0  0  0
   -1.7125   -1.7868    0.0824 N   0  0  0  0  0  0  0  0  0  0  0  0
   -2.5563   -0.6719    0.2479 C   0  0  0  0  0  0  0  0  0  0  0  0
   -3.4608   -0.6726    1.3226 C   0  0  0  0  0  0  0  0  0  0  0  0
   -4.3048    0.4164    1.5677 C   0  0  0  0  0  0  0  0  0  0  0  0
   -4.2654    1.5413    0.7406 C   0  0  0  0  0  0  0  0  0  0  0  0
   -5.1568    2.7259    1.0087 C   0  0  0  0  0  0  0  0  0  0  0  0
   -4.4946    3.7339    1.9355 C   0  0  0  0  0  0  0  0  0  0  0  0
   -3.3601    1.5583   -0.3237 C   0  0  0  0  0  0  0  0  0  0  0  0
   -2.5175    0.4655   -0.5623 C   0  0  0  0  0  0  0  0  0  0  0  0
    0.0615   -0.9087   -1.2230 N   0  0  0  0  0  0  0  0  0  0  0  0
    1.2457   -1.1150   -1.8994 C   0  0  0  0  0  0  0  0  0  0  0  0
    1.9056   -0.1071   -2.3455 N   0  0  0  0  0  0  0  0  0  0  0  0
    1.3752    1.2452   -2.1348 C   0  0  0  0  0  0  0  0  0  0  0  0
    1.6485    1.7531   -0.7155 C   0  0  0  0  0  0  0  0  0  0  0  0
    3.0320    2.0944   -0.5775 O   0  0  0  0  0  0  0  0  0  0  0  0
    3.3964    2.4495    0.7569 C   0  0  0  0  0  0  0  0  0  0  0  0
    3.6907    1.1971    1.5768 C   0  0  0  0  0  0  0  0  0  0  0  0
    4.6413    3.3244    0.6645 C   0  0  0  0  0  0  0  0  0  0  0  0
    1.8385   -2.3257   -2.1630 N   0  0  0  0  0  0  0  0  0  0  0  0
    1.2745   -3.3575   -1.6439 C   0  0  0  0  0  0  0  0  0  0  0  0
    1.6439   -4.6996   -1.7314 N   0  0  0  0  0  0  0  0  0  0  0  0
    3.0404   -5.0794   -1.8356 C   0  0  0  0  0  0  0  0  0  0  0  0
    0.4327   -6.2687   -1.1950 H   0  0  0  0  0  0  0  0  0  0  0  0
   -0.9684   -4.8730    0.1996 H   0  0  0  0  0  0  0  0  0  0  0  0
   -2.0300   -2.6055    0.5832 H   0  0  0  0  0  0  0  0  0  0  0  0
   -3.5135   -1.5236    1.9971 H   0  0  0  0  0  0  0  0  0  0  0  0
   -4.9881    0.3807    2.4132 H   0  0  0  0  0  0  0  0  0  0  0  0
   -6.1023    2.3845    1.4476 H   0  0  0  0  0  0  0  0  0  0  0  0
   -5.4205    3.2110    0.0610 H   0  0  0  0  0  0  0  0  0  0  0  0
   -3.5649    4.1198    1.5037 H   0  0  0  0  0  0  0  0  0  0  0  0
   -5.1638    4.5817    2.1126 H   0  0  0  0  0  0  0  0  0  0  0  0
   -4.2533    3.2839    2.9045 H   0  0  0  0  0  0  0  0  0  0  0  0
   -3.2996    2.4230   -0.9812 H   0  0  0  0  0  0  0  0  0  0  0  0
   -1.8467    0.5221   -1.4139 H   0  0  0  0  0  0  0  0  0  0  0  0
    0.3036    1.2883   -2.3606 H   0  0  0  0  0  0  0  0  0  0  0  0
    1.8693    1.9050   -2.8574 H   0  0  0  0  0  0  0  0  0  0  0  0
    1.0591    2.6614   -0.5459 H   0  0  0  0  0  0  0  0  0  0  0  0
    1.3619    1.0100    0.0336 H   0  0  0  0  0  0  0  0  0  0  0  0
    2.5937    3.0314    1.2263 H   0  0  0  0  0  0  0  0  0  0  0  0
    4.0535    1.4551    2.5767 H   0  0  0  0  0  0  0  0  0  0  0  0
    4.4415    0.5726    1.0801 H   0  0  0  0  0  0  0  0  0  0  0  0
    2.7953    0.5788    1.6918 H   0  0  0  0  0  0  0  0  0  0  0  0
    5.4611    2.7922    0.1692 H   0  0  0  0  0  0  0  0  0  0  0  0
    4.4359    4.2156    0.0614 H   0  0  0  0  0  0  0  0  0  0  0  0
    4.9779    3.6449    1.6551 H   0  0  0  0  0  0  0  0  0  0  0  0
    3.1302   -6.1601   -1.9863 H   0  0  0  0  0  0  0  0  0  0  0  0
    3.5126   -4.5827   -2.6891 H   0  0  0  0  0  0  0  0  0  0  0  0
    3.5859   -4.8086   -0.9256 H   0  0  0  0  0  0  0  0  0  0  0  0
  1  2  1  0
  2  3  2  0
  3  4  1  0
  4  5  1  0
  5  6  1  0
  6  7  2  0
  7  8  1  0
  8  9  2  0
  9 10  1  0
 10 11  1  0
  9 12  1  0
 12 13  2  0
  4 14  2  0
 14 15  1  0
 15 16  2  3
 16 17  1  0
 17 18  1  0
 18 19  1  0
 19 20  1  0
 20 21  1  0
 20 22  1  0
 15 23  1  0
 23 24  2  0
 24 25  1  0
 25 26  1  0
 25  1  1  0
 24  3  1  0
 13  6  1  0
  1 27  1  0
  2 28  1  0
  5 29  1  0
  7 30  1  0
  8 31  1  0
 10 32  1  0
 10 33  1  0
 11 34  1  0
 11 35  1  0
 11 36  1  0
 12 37  1  0
 13 38  1  0
 17 39  1  0
 17 40  1  0
 18 41  1  0
 18 42  1  0
 20 43  1  0
 21 44  1  0
 21 45  1  0
 21 46  1  0
 22 47  1  0
 22 48  1  0
 22 49  1  0
 26 50  1  0
 26 51  1  0
 26 52  1  0
M  END
>  <ScrubInfo>  (7) 
{"isomerGroup": 0, "isomerId": 6, "confId": 0, "nr_conformers:": 1, "nr_isomers:": 9}

$$$$
_i7
     RDKit          3D

 52 54  0  0  0  0  0  0  0  0999 V2000
   -1.3175   -0.7232    0.5620 N   0  0  0  0  0  0  0  0  0  0  0  0
   -1.2803    0.2013    1.5934 C   0  0  0  0  0  0  0  0  0  0  0  0
   -2.2626    0.6407    2.3060 N   0  0  0  0  0  0  0  0  0  0  0  0
   -3.6072    0.1208    2.0603 C   0  0  0  0  0  0  0  0  0  0  0  0
   -4.3053    0.9141    0.9556 C   0  0  0  0  0  0  0  0  0  0  0  0
   -5.4389    0.1692    0.5062 O   0  0  0  0  0  0  0  0  0  0  0  0
   -6.2077    0.8541   -0.4875 C   0  0  0  0  0  0  0  0  0  0  0  0
   -6.9935   -0.2052   -1.2520 C   0  0  0  0  0  0  0  0  0  0  0  0
   -7.1604    1.8499    0.1659 C   0  0  0  0  0  0  0  0  0  0  0  0
   -0.0159    0.6893    1.8405 N   0  0  0  0  0  0  0  0  0  0  0  0
    1.2037    0.4267    1.2543 C   0  0  0  0  0  0  0  0  0  0  0  0
    2.2856    1.0178    1.6644 N   0  0  0  0  0  0  0  0  0  0  0  0
    3.5329    0.7689    1.0906 C   0  0  0  0  0  0  0  0  0  0  0  0
    4.3593   -0.2317    1.6060 C   0  0  0  0  0  0  0  0  0  0  0  0
    5.6175   -0.4686    1.0467 C   0  0  0  0  0  0  0  0  0  0  0  0
    6.0747    0.3104   -0.0241 C   0  0  0  0  0  0  0  0  0  0  0  0
    7.4228    0.0428   -0.6431 C   0  0  0  0  0  0  0  0  0  0  0  0
    7.3321   -0.9670   -1.7770 C   0  0  0  0  0  0  0  0  0  0  0  0
    5.2526    1.3284   -0.5243 C   0  0  0  0  0  0  0  0  0  0  0  0
    3.9952    1.5616    0.0381 C   0  0  0  0  0  0  0  0  0  0  0  0
    1.0627   -0.5482    0.1851 C   0  0  0  0  0  0  0  0  0  0  0  0
    1.8979   -1.1867   -0.7511 C   0  0  0  0  0  0  0  0  0  0  0  0
    1.2324   -2.0329   -1.5523 N   0  0  0  0  0  0  0  0  0  0  0  0
   -0.0441   -1.9479   -1.1210 N   0  0  0  0  0  0  0  0  0  0  0  0
   -1.0625   -2.7382   -1.7661 C   0  0  0  0  0  0  0  0  0  0  0  0
   -0.1846   -1.0655   -0.0941 C   0  0  0  0  0  0  0  0  0  0  0  0
   -2.2181   -1.1156    0.3206 H   0  0  0  0  0  0  0  0  0  0  0  0
   -4.1904    0.2122    2.9847 H   0  0  0  0  0  0  0  0  0  0  0  0
   -3.6059   -0.9542    1.8432 H   0  0  0  0  0  0  0  0  0  0  0  0
   -4.6067    1.8935    1.3412 H   0  0  0  0  0  0  0  0  0  0  0  0
   -3.6305    1.0703    0.1063 H   0  0  0  0  0  0  0  0  0  0  0  0
   -5.5417    1.3699   -1.1901 H   0  0  0  0  0  0  0  0  0  0  0  0
   -6.3103   -0.9304   -1.7077 H   0  0  0  0  0  0  0  0  0  0  0  0
   -7.6492   -0.7704   -0.5804 H   0  0  0  0  0  0  0  0  0  0  0  0
   -7.6025    0.2433   -2.0429 H   0  0  0  0  0  0  0  0  0  0  0  0
   -6.6111    2.6490    0.6727 H   0  0  0  0  0  0  0  0  0  0  0  0
   -7.8192    2.3124   -0.5759 H   0  0  0  0  0  0  0  0  0  0  0  0
   -7.7768    1.3594    0.9273 H   0  0  0  0  0  0  0  0  0  0  0  0
    0.0252    1.3605    2.5939 H   0  0  0  0  0  0  0  0  0  0  0  0
    4.0189   -0.8320    2.4451 H   0  0  0  0  0  0  0  0  0  0  0  0
    6.2389   -1.2623    1.4549 H   0  0  0  0  0  0  0  0  0  0  0  0
    8.1156   -0.3228    0.1246 H   0  0  0  0  0  0  0  0  0  0  0  0
    7.8509    0.9814   -1.0157 H   0  0  0  0  0  0  0  0  0  0  0  0
    6.9407   -1.9271   -1.4237 H   0  0  0  0  0  0  0  0  0  0  0  0
    8.3229   -1.1424   -2.2077 H   0  0  0  0  0  0  0  0  0  0  0  0
    6.6733   -0.6095   -2.5757 H   0  0  0  0  0  0  0  0  0  0  0  0
    5.5871    1.9490   -1.3525 H   0  0  0  0  0  0  0  0  0  0  0  0
    3.3703    2.3623   -0.3474 H   0  0  0  0  0  0  0  0  0  0  0  0
    2.9638   -1.0833   -0.9022 H   0  0  0  0  0  0  0  0  0  0  0  0
   -0.6096   -3.6478   -2.1694 H   0  0  0  0  0  0  0  0  0  0  0  0
   -1.4969   -2.1408   -2.5711 H   0  0  0  0  0  0  0  0  0  0  0  0
   -1.8275   -3.0088   -1.0346 H   0  0  0  0  0  0  0  0  0  0  0  0
  1  2  1  0
  2  3  2  3
  3  4  1  0
  4  5  1  0
  5  6  1  0
  6  7  1  0
  7  8  1  0
  7  9  1  0
  2 10  1  0
 10 11  1  0
 11 12  2  3
 12 13  1  0
 13 14  2  0
 14 15  1  0
 15 16  2  0
 16 17  1  0
 17 18  1  0
 16 19  1  0
 19 20  2  0
 11 21  1  0
 21 22  1  0
 22 23  2  0
 23 24  1  0
 24 25  1  0
 24 26  1  0
 26  1  1  0
 20 13  1  0
 26 21  2  0
  1 27  1  0
  4 28  1  0
  4 29  1  0
  5 30  1  0
  5 31  1  0
  7 32  1  0
  8 33  1  0
  8 34  1  0
  8 35  1  0
  9 36  1  0
  9 37  1  0
  9 38  1  0
 10 39  1  0
 14 40  1  0
 15 41  1  0
 17 42  1  0
 17 43  1  0
 18 44  1  0
 18 45  1  0
 18 46  1  0
 19 47  1  0
 20 48  1  0
 22 49  1  0
 25 50  1  0
 25 51  1  0
 25 52  1  0
M  END
>  <ScrubInfo>  (8) 
{"isomerGroup": 0, "isomerId": 7, "confId": 0, "nr_conformers:": 1, "nr_isomers:": 9}

$$$$
_i8
     RDKit          3D

 52 54  0  0  0  0  0  0  0  0999 V2000
   -0.2413   -5.6786   -0.5327 N   0  0  0  0  0  0  0  0  0  0  0  0
    0.8157   -4.7836   -0.6591 C   0  0  0  0  0  0  0  0  0  0  0  0
    0.4694   -3.5248   -0.3653 C   0  0  0  0  0  0  0  0  0  0  0  0
    1.1087   -2.2124   -0.2768 C   0  0  0  0  0  0  0  0  0  0  0  0
    2.3667   -2.0914   -0.5841 N   0  0  0  0  0  0  0  0  0  0  0  0
    2.9575   -0.8250   -0.4903 C   0  0  0  0  0  0  0  0  0  0  0  0
    3.6060   -0.4378    0.6833 C   0  0  0  0  0  0  0  0  0  0  0  0
    4.1769    0.8326    0.7901 C   0  0  0  0  0  0  0  0  0  0  0  0
    4.1097    1.7318   -0.2820 C   0  0  0  0  0  0  0  0  0  0  0  0
    4.7438    3.0956   -0.1772 C   0  0  0  0  0  0  0  0  0  0  0  0
    6.1958    3.0811   -0.6297 C   0  0  0  0  0  0  0  0  0  0  0  0
    3.4795    1.3309   -1.4671 C   0  0  0  0  0  0  0  0  0  0  0  0
    2.9109    0.0592   -1.5695 C   0  0  0  0  0  0  0  0  0  0  0  0
    0.2432   -1.2331    0.1490 N   0  0  0  0  0  0  0  0  0  0  0  0
   -1.0876   -1.3937    0.4607 C   0  0  0  0  0  0  0  0  0  0  0  0
   -1.8862   -0.4790    0.8820 N   0  0  0  0  0  0  0  0  0  0  0  0
   -1.4009    0.8896    1.0609 C   0  0  0  0  0  0  0  0  0  0  0  0
   -2.5974    1.8265    1.2517 C   0  0  0  0  0  0  0  0  0  0  0  0
   -3.1295    2.1779   -0.0301 O   0  0  0  0  0  0  0  0  0  0  0  0
   -4.3667    2.8885    0.0491 C   0  0  0  0  0  0  0  0  0  0  0  0
   -5.5303    1.9106    0.1775 C   0  0  0  0  0  0  0  0  0  0  0  0
   -4.4997    3.7023   -1.2330 C   0  0  0  0  0  0  0  0  0  0  0  0
   -1.7036   -2.6253    0.3422 N   0  0  0  0  0  0  0  0  0  0  0  0
   -0.9894   -3.6274   -0.0615 C   0  0  0  0  0  0  0  0  0  0  0  0
   -1.3989   -4.9463   -0.2755 N   0  0  0  0  0  0  0  0  0  0  0  0
   -2.4496   -5.5395    0.5287 C   0  0  0  0  0  0  0  0  0  0  0  0
   -0.2975   -6.3468   -1.3046 H   0  0  0  0  0  0  0  0  0  0  0  0
    1.7880   -5.1412   -0.9674 H   0  0  0  0  0  0  0  0  0  0  0  0
    3.6696   -1.1321    1.5169 H   0  0  0  0  0  0  0  0  0  0  0  0
    4.6817    1.1124    1.7121 H   0  0  0  0  0  0  0  0  0  0  0  0
    4.1747    3.8139   -0.7798 H   0  0  0  0  0  0  0  0  0  0  0  0
    4.6816    3.4523    0.8582 H   0  0  0  0  0  0  0  0  0  0  0  0
    6.2834    2.7629   -1.6742 H   0  0  0  0  0  0  0  0  0  0  0  0
    6.7955    2.3975   -0.0192 H   0  0  0  0  0  0  0  0  0  0  0  0
    6.6293    4.0824   -0.5428 H   0  0  0  0  0  0  0  0  0  0  0  0
    3.4341    2.0031   -2.3212 H   0  0  0  0  0  0  0  0  0  0  0  0
    2.4309   -0.2459   -2.4957 H   0  0  0  0  0  0  0  0  0  0  0  0
    0.6251   -0.3073    0.2442 H   0  0  0  0  0  0  0  0  0  0  0  0
   -0.7729    0.9266    1.9579 H   0  0  0  0  0  0  0  0  0  0  0  0
   -0.8201    1.2243    0.1939 H   0  0  0  0  0  0  0  0  0  0  0  0
   -2.2589    2.7491    1.7364 H   0  0  0  0  0  0  0  0  0  0  0  0
   -3.3600    1.3553    1.8805 H   0  0  0  0  0  0  0  0  0  0  0  0
   -4.3528    3.5781    0.9020 H   0  0  0  0  0  0  0  0  0  0  0  0
   -5.4713    1.3451    1.1123 H   0  0  0  0  0  0  0  0  0  0  0  0
   -6.4911    2.4345    0.1591 H   0  0  0  0  0  0  0  0  0  0  0  0
   -5.5145    1.1758   -0.6350 H   0  0  0  0  0  0  0  0  0  0  0  0
   -5.4268    4.2836   -1.2420 H   0  0  0  0  0  0  0  0  0  0  0  0
   -3.6551    4.3924   -1.3347 H   0  0  0  0  0  0  0  0  0  0  0  0
   -4.4827    3.0530   -2.1155 H   0  0  0  0  0  0  0  0  0  0  0  0
   -2.1370   -5.6258    1.5745 H   0  0  0  0  0  0  0  0  0  0  0  0
   -3.3598   -4.9330    0.4832 H   0  0  0  0  0  0  0  0  0  0  0  0
   -2.6958   -6.5391    0.1559 H   0  0  0  0  0  0  0  0  0  0  0  0
  1  2  1  0
  2  3  2  0
  3  4  1  0
  4  5  2  3
  5  6  1  0
  6  7  2  0
  7  8  1  0
  8  9  2  0
  9 10  1  0
 10 11  1  0
  9 12  1  0
 12 13  2  0
  4 14  1  0
 14 15  1  0
 15 16  2  3
 16 17  1  0
 17 18  1  0
 18 19  1  0
 19 20  1  0
 20 21  1  0
 20 22  1  0
 15 23  1  0
 23 24  2  0
 24 25  1  0
 25 26  1  0
 25  1  1  0
 24  3  1  0
 13  6  1  0
  1 27  1  0
  2 28  1  0
  7 29  1  0
  8 30  1  0
 10 31  1  0
 10 32  1  0
 11 33  1  0
 11 34  1  0
 11 35  1  0
 12 36  1  0
 13 37  1  0
 14 38  1  0
 17 39  1  0
 17 40  1  0
 18 41  1  0
 18 42  1  0
 20 43  1  0
 21 44  1  0
 21 45  1  0
 21 46  1  0
 22 47  1  0
 22 48  1  0
 22 49  1  0
 26 50  1  0
 26 51  1  0
 26 52  1  0
M  END
>  <ScrubInfo>  (9) 
{"isomerGroup": 0, "isomerId": 8, "confId": 0, "nr_conformers:": 1, "nr_isomers:": 9}

$$$$
