REMARK SMILES CCc1ccc(Nc2nc(NCCOC(C)C)nc3c2cnn3C)cc1
REMARK SMILES IDX 11 1 10 3 8 4 9 5 20 6 19 7 21 8 18 9 23 10 22 11 24 12 7 13
REMARK SMILES IDX 6 15 3 16 4 17 26 18 5 19 25 20 2 21 1 22 12 23 13 24 14 25
REMARK SMILES IDX 15 26 16 27 17 28
REMARK H PARENT 11 2 7 14
ROOT
ATOM      1  N   UNL     1      -1.513   0.123   0.447  1.00  0.00    -0.352 N 
ATOM      2  H   UNL     1      -0.919   0.948   0.453  1.00  0.00     0.163 HD
ENDROOT
BRANCH   1   3
ATOM      3  C   UNL     1      -0.734  -0.859  -0.158  1.00  0.00     0.226 A 
ATOM      4  C   UNL     1       1.465  -1.434  -0.771  1.00  0.00     0.147 A 
ATOM      5  N   UNL     1       0.578  -0.568  -0.214  1.00  0.00    -0.195 NA
ATOM      6  C   UNL     1       0.940  -2.627  -1.284  1.00  0.00     0.082 A 
ATOM      7  C   UNL     1      -0.423  -2.820  -1.173  1.00  0.00     0.165 A 
ATOM      8  C   UNL     1       1.404  -3.792  -1.932  1.00  0.00     0.149 A 
ATOM      9  N   UNL     1      -1.307  -1.975  -0.625  1.00  0.00    -0.193 NA
ATOM     10  N   UNL     1      -0.681  -4.040  -1.735  1.00  0.00    -0.250 N 
ATOM     11  N   UNL     1       0.424  -4.658  -2.215  1.00  0.00    -0.179 NA
ATOM     12  C   UNL     1      -1.963  -4.686  -1.854  1.00  0.00     0.176 C 
BRANCH   4  13
ATOM     13  N   UNL     1       2.835  -1.143  -0.857  1.00  0.00    -0.339 N 
ATOM     14  H   UNL     1       3.370  -1.843  -1.351  1.00  0.00     0.168 HD
BRANCH  13  15
ATOM     15  C   UNL     1       3.616  -0.100  -0.330  1.00  0.00     0.040 A 
ATOM     16  C   UNL     1       5.284   2.001   0.603  1.00  0.00    -0.048 A 
ATOM     17  C   UNL     1       3.964   1.882   1.048  1.00  0.00     0.006 A 
ATOM     18  C   UNL     1       5.769   1.061  -0.309  1.00  0.00     0.006 A 
ATOM     19  C   UNL     1       3.143   0.848   0.580  1.00  0.00     0.026 A 
ATOM     20  C   UNL     1       4.943   0.030  -0.771  1.00  0.00     0.026 A 
BRANCH  16  21
ATOM     21  C   UNL     1       6.171   3.103   1.119  1.00  0.00     0.032 C 
ATOM     22  C   UNL     1       6.922   2.684   2.374  1.00  0.00     0.009 C 
ENDBRANCH  16  21
ENDBRANCH  13  15
ENDBRANCH   4  13
ENDBRANCH   1   3
BRANCH   1  23
ATOM     23  C   UNL     1      -2.815   0.314  -0.176  1.00  0.00     0.144 C 
BRANCH  23  24
ATOM     24  C   UNL     1      -3.574   1.452   0.519  1.00  0.00     0.181 C 
BRANCH  24  25
ATOM     25  O   UNL     1      -4.826   1.708  -0.121  1.00  0.00    -0.377 OA
BRANCH  25  26
ATOM     26  C   UNL     1      -5.901   0.886   0.344  1.00  0.00     0.112 C 
ATOM     27  C   UNL     1      -6.920   0.796  -0.785  1.00  0.00     0.038 C 
ATOM     28  C   UNL     1      -6.534   1.513   1.583  1.00  0.00     0.038 C 
ENDBRANCH  25  26
ENDBRANCH  24  25
ENDBRANCH  23  24
ENDBRANCH   1  23
TORSDOF 8
