_i0
     RDKit          3D

 52 53  0  0  0  0  0  0  0  0999 V2000
   -4.5048   -0.9250    2.0199 C   0  0  0  0  0  0  0  0  0  0  0  0
   -4.4969   -0.4604    0.5792 N   0  0  0  0  0  4  0  0  0  0  0  0
   -5.4600   -1.2126   -0.2804 C   0  0  0  0  0  0  0  0  0  0  0  0
   -4.6300    1.0243    0.4184 C   0  0  0  0  0  0  0  0  0  0  0  0
   -3.1272   -0.7614    2.7012 C   0  0  0  0  0  0  0  0  0  0  0  0
   -2.1158   -1.6533    2.1206 N   0  0  0  0  0  0  0  0  0  0  0  0
   -1.2830   -1.0239    1.1952 C   0  0  0  0  0  0  0  0  0  0  0  0
    0.0052   -1.0130    1.4697 N   0  0  0  0  0  0  0  0  0  0  0  0
   -1.8400   -0.4892    0.1185 N   0  0  0  0  0  0  0  0  0  0  0  0
    0.7723   -0.3562    0.6050 C   0  0  0  0  0  0  0  0  0  0  0  0
   -1.0054    0.1355   -0.7088 C   0  0  0  0  0  0  0  0  0  0  0  0
    2.1336   -0.3608    0.8985 N   0  0  0  0  0  0  0  0  0  0  0  0
    0.2928    0.2451   -0.4771 N   0  0  0  0  0  0  0  0  0  0  0  0
   -1.5874    0.7337   -1.8396 N   0  0  0  0  0  0  0  0  0  0  0  0
    3.2454    0.3293    0.3807 C   0  0  0  0  0  0  0  0  0  0  0  0
   -2.0701   -0.3040   -2.7521 C   0  0  0  0  0  0  0  0  0  0  0  0
   -0.6948    1.7019   -2.4855 C   0  0  0  0  0  0  0  0  0  0  0  0
    3.0988    1.4113   -0.4989 C   0  0  0  0  0  0  0  0  0  0  0  0
    4.5619   -0.1094    0.6967 C   0  0  0  0  0  0  0  0  0  0  0  0
    4.2035    2.0813   -1.0212 C   0  0  0  0  0  0  0  0  0  0  0  0
    4.7613   -1.3042    1.6017 C   0  0  0  0  0  0  0  0  0  0  0  0
    5.6841    0.5929    0.1881 C   0  0  0  0  0  0  0  0  0  0  0  0
    5.4863    1.6783   -0.6755 C   0  0  0  0  0  0  0  0  0  0  0  0
    7.0993    0.2005    0.5235 C   0  0  0  0  0  0  0  0  0  0  0  0
   -4.7833   -1.9851    2.0193 H   0  0  0  0  0  0  0  0  0  0  0  0
   -5.2810   -0.3583    2.5451 H   0  0  0  0  0  0  0  0  0  0  0  0
   -3.5458   -0.6861    0.2201 H   0  0  0  0  0  0  0  0  0  0  0  0
   -5.2091   -2.2753   -0.2271 H   0  0  0  0  0  0  0  0  0  0  0  0
   -6.4724   -1.0291    0.0889 H   0  0  0  0  0  0  0  0  0  0  0  0
   -5.3500   -0.8608   -1.3097 H   0  0  0  0  0  0  0  0  0  0  0  0
   -5.6221    1.3228    0.7675 H   0  0  0  0  0  0  0  0  0  0  0  0
   -3.8491    1.5114    1.0066 H   0  0  0  0  0  0  0  0  0  0  0  0
   -4.5019    1.2659   -0.6401 H   0  0  0  0  0  0  0  0  0  0  0  0
   -3.2496   -1.0479    3.7529 H   0  0  0  0  0  0  0  0  0  0  0  0
   -2.8026    0.2865    2.7067 H   0  0  0  0  0  0  0  0  0  0  0  0
   -1.4558   -1.9770    2.8322 H   0  0  0  0  0  0  0  0  0  0  0  0
    2.2996   -0.8943    1.7386 H   0  0  0  0  0  0  0  0  0  0  0  0
   -1.2537   -0.9451   -3.1065 H   0  0  0  0  0  0  0  0  0  0  0  0
   -2.8342   -0.9324   -2.2806 H   0  0  0  0  0  0  0  0  0  0  0  0
   -2.5405    0.1586   -3.6271 H   0  0  0  0  0  0  0  0  0  0  0  0
   -1.2274    2.2030   -3.3018 H   0  0  0  0  0  0  0  0  0  0  0  0
    0.1957    1.2244   -2.9119 H   0  0  0  0  0  0  0  0  0  0  0  0
   -0.3868    2.4850   -1.7827 H   0  0  0  0  0  0  0  0  0  0  0  0
    2.1163    1.7756   -0.7780 H   0  0  0  0  0  0  0  0  0  0  0  0
    4.0617    2.9241   -1.6924 H   0  0  0  0  0  0  0  0  0  0  0  0
    5.7718   -1.7168    1.5454 H   0  0  0  0  0  0  0  0  0  0  0  0
    4.0926   -2.1229    1.3148 H   0  0  0  0  0  0  0  0  0  0  0  0
    4.5646   -1.0203    2.6404 H   0  0  0  0  0  0  0  0  0  0  0  0
    6.3367    2.2187   -1.0870 H   0  0  0  0  0  0  0  0  0  0  0  0
    7.3428   -0.7640    0.0669 H   0  0  0  0  0  0  0  0  0  0  0  0
    7.2342    0.1426    1.6084 H   0  0  0  0  0  0  0  0  0  0  0  0
    7.8204    0.9363    0.1511 H   0  0  0  0  0  0  0  0  0  0  0  0
  1  2  1  0
  2  3  1  0
  2  4  1  0
  5  1  1  0
  6  5  1  0
  7  6  1  0
  8  7  2  0
  7  9  1  0
 10  8  1  0
  9 11  2  0
 12 10  1  0
 13 10  2  0
 11 14  1  0
 11 13  1  0
 15 12  1  0
 14 16  1  0
 14 17  1  0
 18 15  2  0
 15 19  1  0
 20 18  1  0
 19 21  1  0
 19 22  2  0
 23 20  2  0
 24 22  1  0
 22 23  1  0
  1 25  1  0
  1 26  1  0
  2 27  1  0
  3 28  1  0
  3 29  1  0
  3 30  1  0
  4 31  1  0
  4 32  1  0
  4 33  1  0
  5 34  1  0
  5 35  1  0
  6 36  1  0
 12 37  1  0
 16 38  1  0
 16 39  1  0
 16 40  1  0
 17 41  1  0
 17 42  1  0
 17 43  1  0
 18 44  1  0
 20 45  1  0
 21 46  1  0
 21 47  1  0
 21 48  1  0
 23 49  1  0
 24 50  1  0
 24 51  1  0
 24 52  1  0
M  CHG  1   2   1
M  END
>  <ScrubInfo>  (1) 
{"isomerGroup": 0, "isomerId": 0, "confId": 0, "nr_conformers:": 1, "nr_isomers:": 9}

$$$$
_i1
     RDKit          3D

 52 53  0  0  0  0  0  0  0  0999 V2000
   -0.1760    0.4368    0.0935 N   0  0  0  0  0  0  0  0  0  0  0  0
   -1.1582    1.0232   -0.6241 C   0  0  0  0  0  0  0  0  0  0  0  0
   -2.4413    0.6660   -0.3168 N   0  0  0  0  0  0  0  0  0  0  0  0
   -2.8897   -0.6665   -0.1200 C   0  0  0  0  0  0  0  0  0  0  0  0
   -2.2906   -1.7346   -0.8073 C   0  0  0  0  0  0  0  0  0  0  0  0
   -2.7690   -3.0338   -0.6644 C   0  0  0  0  0  0  0  0  0  0  0  0
   -3.8725   -3.2799    0.1455 C   0  0  0  0  0  0  0  0  0  0  0  0
   -4.5188   -2.2308    0.8161 C   0  0  0  0  0  0  0  0  0  0  0  0
   -5.7297   -2.5495    1.6539 C   0  0  0  0  0  0  0  0  0  0  0  0
   -4.0177   -0.9123    0.6983 C   0  0  0  0  0  0  0  0  0  0  0  0
   -4.7141    0.2305    1.3993 C   0  0  0  0  0  0  0  0  0  0  0  0
   -0.8873    1.9217   -1.5148 N   0  0  0  0  0  0  0  0  0  0  0  0
    0.4408    2.2313   -1.7305 C   0  0  0  0  0  0  0  0  0  0  0  0
    0.7248    3.1720   -2.7067 N   0  0  0  0  0  0  0  0  0  0  0  0
    2.0918    3.3580   -3.1693 C   0  0  0  0  0  0  0  0  0  0  0  0
   -0.3179    3.6181   -3.6210 C   0  0  0  0  0  0  0  0  0  0  0  0
    1.4167    1.6799   -1.0590 N   0  0  0  0  0  0  0  0  0  0  0  0
    1.1177    0.7736   -0.0905 C   0  0  0  0  0  0  0  0  0  0  0  0
    2.1554    0.3456    0.5369 N   0  0  0  0  0  0  0  0  0  0  0  0
    1.9980   -0.6360    1.6117 C   0  0  0  0  0  0  0  0  0  0  0  0
    3.3557   -0.7154    2.3365 C   0  0  0  0  0  0  0  0  0  0  0  0
    4.4565   -0.4842    1.3145 N   0  0  0  0  0  4  0  0  0  0  0  0
    5.6453    0.2258    1.8688 C   0  0  0  0  0  0  0  0  0  0  0  0
    4.8142   -1.7035    0.5293 C   0  0  0  0  0  0  0  0  0  0  0  0
   -0.4547   -0.1860    0.8308 H   0  0  0  0  0  0  0  0  0  0  0  0
   -3.1105    1.1674   -0.8993 H   0  0  0  0  0  0  0  0  0  0  0  0
   -1.4624   -1.5620   -1.4908 H   0  0  0  0  0  0  0  0  0  0  0  0
   -2.3016   -3.8522   -1.2063 H   0  0  0  0  0  0  0  0  0  0  0  0
   -4.2452   -4.2994    0.2323 H   0  0  0  0  0  0  0  0  0  0  0  0
   -6.5655   -1.8950    1.3866 H   0  0  0  0  0  0  0  0  0  0  0  0
   -5.4947   -2.4317    2.7163 H   0  0  0  0  0  0  0  0  0  0  0  0
   -6.0665   -3.5800    1.4975 H   0  0  0  0  0  0  0  0  0  0  0  0
   -5.1145   -0.0790    2.3695 H   0  0  0  0  0  0  0  0  0  0  0  0
   -5.5330    0.6036    0.7765 H   0  0  0  0  0  0  0  0  0  0  0  0
   -4.0284    1.0567    1.6122 H   0  0  0  0  0  0  0  0  0  0  0  0
    2.7843    3.4652   -2.3274 H   0  0  0  0  0  0  0  0  0  0  0  0
    2.4070    2.5049   -3.7790 H   0  0  0  0  0  0  0  0  0  0  0  0
    2.1902    4.2661   -3.7738 H   0  0  0  0  0  0  0  0  0  0  0  0
   -1.2118    3.9383   -3.0751 H   0  0  0  0  0  0  0  0  0  0  0  0
    0.0106    4.4772   -4.2157 H   0  0  0  0  0  0  0  0  0  0  0  0
   -0.5920    2.8119   -4.3094 H   0  0  0  0  0  0  0  0  0  0  0  0
    1.7497   -1.6147    1.1861 H   0  0  0  0  0  0  0  0  0  0  0  0
    1.2199   -0.3547    2.3294 H   0  0  0  0  0  0  0  0  0  0  0  0
    3.4218    0.0983    3.0671 H   0  0  0  0  0  0  0  0  0  0  0  0
    3.5243   -1.6723    2.8399 H   0  0  0  0  0  0  0  0  0  0  0  0
    3.9899    0.1674    0.6454 H   0  0  0  0  0  0  0  0  0  0  0  0
    5.3100    1.1709    2.3041 H   0  0  0  0  0  0  0  0  0  0  0  0
    6.3397    0.4250    1.0483 H   0  0  0  0  0  0  0  0  0  0  0  0
    6.1081   -0.4120    2.6263 H   0  0  0  0  0  0  0  0  0  0  0  0
    5.2808   -2.4261    1.2040 H   0  0  0  0  0  0  0  0  0  0  0  0
    5.5069   -1.4077   -0.2631 H   0  0  0  0  0  0  0  0  0  0  0  0
    3.9038   -2.1161    0.0877 H   0  0  0  0  0  0  0  0  0  0  0  0
  1  2  1  0
  2  3  1  0
  3  4  1  0
  4  5  2  0
  5  6  1  0
  6  7  2  0
  7  8  1  0
  8  9  1  0
  8 10  2  0
 10 11  1  0
  2 12  2  0
 12 13  1  0
 13 14  1  0
 14 15  1  0
 14 16  1  0
 13 17  2  0
 17 18  1  0
 18 19  2  3
 19 20  1  0
 20 21  1  0
 21 22  1  0
 22 23  1  0
 22 24  1  0
 18  1  1  0
 10  4  1  0
  1 25  1  0
  3 26  1  0
  5 27  1  0
  6 28  1  0
  7 29  1  0
  9 30  1  0
  9 31  1  0
  9 32  1  0
 11 33  1  0
 11 34  1  0
 11 35  1  0
 15 36  1  0
 15 37  1  0
 15 38  1  0
 16 39  1  0
 16 40  1  0
 16 41  1  0
 20 42  1  0
 20 43  1  0
 21 44  1  0
 21 45  1  0
 22 46  1  0
 23 47  1  0
 23 48  1  0
 23 49  1  0
 24 50  1  0
 24 51  1  0
 24 52  1  0
M  CHG  1  22   1
M  END
>  <ScrubInfo>  (2) 
{"isomerGroup": 0, "isomerId": 1, "confId": 0, "nr_conformers:": 1, "nr_isomers:": 9}

$$$$
_i2
     RDKit          3D

 52 53  0  0  0  0  0  0  0  0999 V2000
   -0.1148   -0.3161    1.0912 N   0  0  0  0  0  0  0  0  0  0  0  0
   -1.2667   -0.8421    0.6578 C   0  0  0  0  0  0  0  0  0  0  0  0
   -2.4056   -0.1589    0.9562 N   0  0  0  0  0  0  0  0  0  0  0  0
   -2.7021    1.0815    0.2217 C   0  0  0  0  0  0  0  0  0  0  0  0
   -3.2315    0.8248   -1.2140 C   0  0  0  0  0  0  0  0  0  0  0  0
   -2.3091   -0.0226   -2.0710 N   0  0  0  0  0  4  0  0  0  0  0  0
   -1.0273    0.6593   -2.4606 C   0  0  0  0  0  0  0  0  0  0  0  0
   -3.0057   -0.5913   -3.2729 C   0  0  0  0  0  0  0  0  0  0  0  0
   -1.3100   -1.8558   -0.1466 N   0  0  0  0  0  0  0  0  0  0  0  0
   -0.0919   -2.4246   -0.4898 C   0  0  0  0  0  0  0  0  0  0  0  0
   -0.1306   -3.5283   -1.3286 N   0  0  0  0  0  0  0  0  0  0  0  0
   -1.3103   -4.3885   -1.3274 C   0  0  0  0  0  0  0  0  0  0  0  0
    1.1234   -4.2393   -1.5983 C   0  0  0  0  0  0  0  0  0  0  0  0
    1.0493   -1.9266   -0.1135 N   0  0  0  0  0  0  0  0  0  0  0  0
    1.0763   -0.8596    0.7373 C   0  0  0  0  0  0  0  0  0  0  0  0
    2.2564   -0.4761    1.1041 N   0  0  0  0  0  0  0  0  0  0  0  0
    2.3714    0.6143    1.9811 C   0  0  0  0  0  0  0  0  0  0  0  0
    2.3027    0.3794    3.3589 C   0  0  0  0  0  0  0  0  0  0  0  0
    2.3635    1.4372    4.2598 C   0  0  0  0  0  0  0  0  0  0  0  0
    2.4966    2.7404    3.7881 C   0  0  0  0  0  0  0  0  0  0  0  0
    2.5890    3.0032    2.4112 C   0  0  0  0  0  0  0  0  0  0  0  0
    2.7692    4.4283    1.9607 C   0  0  0  0  0  0  0  0  0  0  0  0
    2.5569    1.9268    1.4961 C   0  0  0  0  0  0  0  0  0  0  0  0
    2.6874    2.1466    0.0108 C   0  0  0  0  0  0  0  0  0  0  0  0
   -0.1214    0.3671    1.8338 H   0  0  0  0  0  0  0  0  0  0  0  0
   -3.2058   -0.7909    0.9135 H   0  0  0  0  0  0  0  0  0  0  0  0
   -1.8198    1.7311    0.1975 H   0  0  0  0  0  0  0  0  0  0  0  0
   -3.4739    1.6246    0.7789 H   0  0  0  0  0  0  0  0  0  0  0  0
   -4.1800    0.2801   -1.1474 H   0  0  0  0  0  0  0  0  0  0  0  0
   -3.4017    1.7675   -1.7446 H   0  0  0  0  0  0  0  0  0  0  0  0
   -2.0314   -0.8500   -1.5042 H   0  0  0  0  0  0  0  0  0  0  0  0
   -0.5173    0.9974   -1.5565 H   0  0  0  0  0  0  0  0  0  0  0  0
   -1.2677    1.5062   -3.1088 H   0  0  0  0  0  0  0  0  0  0  0  0
   -0.4007   -0.0693   -2.9803 H   0  0  0  0  0  0  0  0  0  0  0  0
   -3.3298    0.2349   -3.9104 H   0  0  0  0  0  0  0  0  0  0  0  0
   -2.3034   -1.2414   -3.8019 H   0  0  0  0  0  0  0  0  0  0  0  0
   -3.8608   -1.1775   -2.9263 H   0  0  0  0  0  0  0  0  0  0  0  0
   -2.2166   -3.8138   -1.5447 H   0  0  0  0  0  0  0  0  0  0  0  0
   -1.4259   -4.8807   -0.3560 H   0  0  0  0  0  0  0  0  0  0  0  0
   -1.2366   -5.1622   -2.0990 H   0  0  0  0  0  0  0  0  0  0  0  0
    1.4440   -4.8031   -0.7169 H   0  0  0  0  0  0  0  0  0  0  0  0
    1.9184   -3.5447   -1.8887 H   0  0  0  0  0  0  0  0  0  0  0  0
    1.0000   -4.9394   -2.4316 H   0  0  0  0  0  0  0  0  0  0  0  0
    2.2111   -0.6394    3.7283 H   0  0  0  0  0  0  0  0  0  0  0  0
    2.3190    1.2469    5.3296 H   0  0  0  0  0  0  0  0  0  0  0  0
    2.5497    3.5546    4.5091 H   0  0  0  0  0  0  0  0  0  0  0  0
    2.0352    4.6805    1.1885 H   0  0  0  0  0  0  0  0  0  0  0  0
    2.6222    5.1342    2.7855 H   0  0  0  0  0  0  0  0  0  0  0  0
    3.7819    4.5748    1.5704 H   0  0  0  0  0  0  0  0  0  0  0  0
    3.1501    3.1071   -0.2309 H   0  0  0  0  0  0  0  0  0  0  0  0
    1.6990    2.1136   -0.4582 H   0  0  0  0  0  0  0  0  0  0  0  0
    3.3260    1.3799   -0.4408 H   0  0  0  0  0  0  0  0  0  0  0  0
  1  2  1  0
  2  3  1  0
  3  4  1  0
  4  5  1  0
  5  6  1  0
  6  7  1  0
  6  8  1  0
  2  9  2  0
  9 10  1  0
 10 11  1  0
 11 12  1  0
 11 13  1  0
 10 14  2  0
 14 15  1  0
 15 16  2  3
 16 17  1  0
 17 18  2  0
 18 19  1  0
 19 20  2  0
 20 21  1  0
 21 22  1  0
 21 23  2  0
 23 24  1  0
 15  1  1  0
 23 17  1  0
  1 25  1  0
  3 26  1  0
  4 27  1  0
  4 28  1  0
  5 29  1  0
  5 30  1  0
  6 31  1  0
  7 32  1  0
  7 33  1  0
  7 34  1  0
  8 35  1  0
  8 36  1  0
  8 37  1  0
 12 38  1  0
 12 39  1  0
 12 40  1  0
 13 41  1  0
 13 42  1  0
 13 43  1  0
 18 44  1  0
 19 45  1  0
 20 46  1  0
 22 47  1  0
 22 48  1  0
 22 49  1  0
 24 50  1  0
 24 51  1  0
 24 52  1  0
M  CHG  1   6   1
M  END
>  <ScrubInfo>  (3) 
{"isomerGroup": 0, "isomerId": 2, "confId": 0, "nr_conformers:": 1, "nr_isomers:": 9}

$$$$
_i3
     RDKit          3D

 52 53  0  0  0  0  0  0  0  0999 V2000
    1.5168   -1.8233    0.1077 N   0  0  0  0  0  0  0  0  0  0  0  0
    0.2716   -2.3437    0.0673 C   0  0  0  0  0  0  0  0  0  0  0  0
    0.1843   -3.7218    0.0044 N   0  0  0  0  0  0  0  0  0  0  0  0
    1.0374   -4.4794   -0.9128 C   0  0  0  0  0  0  0  0  0  0  0  0
   -1.1523   -4.3137    0.1561 C   0  0  0  0  0  0  0  0  0  0  0  0
   -0.7571   -1.5574    0.1228 N   0  0  0  0  0  0  0  0  0  0  0  0
   -0.5458   -0.2001    0.1842 C   0  0  0  0  0  0  0  0  0  0  0  0
   -1.5931    0.6811    0.1430 N   0  0  0  0  0  0  0  0  0  0  0  0
   -2.9636    0.4953    0.4227 C   0  0  0  0  0  0  0  0  0  0  0  0
   -3.4397   -0.6463    1.0824 C   0  0  0  0  0  0  0  0  0  0  0  0
   -4.7969   -0.8221    1.3456 C   0  0  0  0  0  0  0  0  0  0  0  0
   -5.7115    0.1452    0.9505 C   0  0  0  0  0  0  0  0  0  0  0  0
   -5.2845    1.2967    0.2762 C   0  0  0  0  0  0  0  0  0  0  0  0
   -6.3223    2.3091   -0.1319 C   0  0  0  0  0  0  0  0  0  0  0  0
   -3.9086    1.4605   -0.0246 C   0  0  0  0  0  0  0  0  0  0  0  0
   -3.4426    2.6805   -0.7859 C   0  0  0  0  0  0  0  0  0  0  0  0
    0.6465    0.3397    0.2451 N   0  0  0  0  0  0  0  0  0  0  0  0
    1.7190   -0.4997    0.2777 C   0  0  0  0  0  0  0  0  0  0  0  0
    2.9127   -0.0308    0.4739 N   0  0  0  0  0  0  0  0  0  0  0  0
    2.9973    1.4211    0.6876 C   0  0  0  0  0  0  0  0  0  0  0  0
    4.4540    1.8395    0.9290 C   0  0  0  0  0  0  0  0  0  0  0  0
    5.3654    1.6876   -0.2802 N   0  0  0  0  0  4  0  0  0  0  0  0
    4.9907    2.5667   -1.4354 C   0  0  0  0  0  0  0  0  0  0  0  0
    5.5791    0.2628   -0.7060 C   0  0  0  0  0  0  0  0  0  0  0  0
    2.2768   -2.4298    0.3587 H   0  0  0  0  0  0  0  0  0  0  0  0
    0.9335   -5.5571   -0.7462 H   0  0  0  0  0  0  0  0  0  0  0  0
    2.0958   -4.2406   -0.7709 H   0  0  0  0  0  0  0  0  0  0  0  0
    0.7664   -4.2620   -1.9514 H   0  0  0  0  0  0  0  0  0  0  0  0
   -1.6648   -3.8978    1.0304 H   0  0  0  0  0  0  0  0  0  0  0  0
   -1.7607   -4.1288   -0.7357 H   0  0  0  0  0  0  0  0  0  0  0  0
   -1.0833   -5.3956    0.3128 H   0  0  0  0  0  0  0  0  0  0  0  0
   -1.3015    1.6462    0.1489 H   0  0  0  0  0  0  0  0  0  0  0  0
   -2.7572   -1.4134    1.4350 H   0  0  0  0  0  0  0  0  0  0  0  0
   -5.1374   -1.7120    1.8683 H   0  0  0  0  0  0  0  0  0  0  0  0
   -6.7661   -0.0061    1.1727 H   0  0  0  0  0  0  0  0  0  0  0  0
   -7.2925    2.0995    0.3316 H   0  0  0  0  0  0  0  0  0  0  0  0
   -6.4597    2.2928   -1.2176 H   0  0  0  0  0  0  0  0  0  0  0  0
   -6.0269    3.3133    0.1888 H   0  0  0  0  0  0  0  0  0  0  0  0
   -4.2352    3.1166   -1.4001 H   0  0  0  0  0  0  0  0  0  0  0  0
   -2.6390    2.4263   -1.4851 H   0  0  0  0  0  0  0  0  0  0  0  0
   -3.0845    3.4409   -0.0851 H   0  0  0  0  0  0  0  0  0  0  0  0
    2.5853    1.9729   -0.1646 H   0  0  0  0  0  0  0  0  0  0  0  0
    2.4257    1.6960    1.5832 H   0  0  0  0  0  0  0  0  0  0  0  0
    4.5025    2.8962    1.2146 H   0  0  0  0  0  0  0  0  0  0  0  0
    4.9067    1.2496    1.7340 H   0  0  0  0  0  0  0  0  0  0  0  0
    6.2826    2.0157    0.0450 H   0  0  0  0  0  0  0  0  0  0  0  0
    5.8067    2.5297   -2.1623 H   0  0  0  0  0  0  0  0  0  0  0  0
    4.0645    2.1980   -1.8825 H   0  0  0  0  0  0  0  0  0  0  0  0
    4.8710    3.5877   -1.0641 H   0  0  0  0  0  0  0  0  0  0  0  0
    4.7094   -0.0846   -1.2676 H   0  0  0  0  0  0  0  0  0  0  0  0
    6.4640    0.2438   -1.3489 H   0  0  0  0  0  0  0  0  0  0  0  0
    5.7611   -0.3449    0.1839 H   0  0  0  0  0  0  0  0  0  0  0  0
  1  2  1  0
  2  3  1  0
  3  4  1  0
  3  5  1  0
  2  6  2  0
  6  7  1  0
  7  8  1  0
  8  9  1  0
  9 10  2  0
 10 11  1  0
 11 12  2  0
 12 13  1  0
 13 14  1  0
 13 15  2  0
 15 16  1  0
  7 17  2  0
 17 18  1  0
 18 19  2  3
 19 20  1  0
 20 21  1  0
 21 22  1  0
 22 23  1  0
 22 24  1  0
 18  1  1  0
 15  9  1  0
  1 25  1  0
  4 26  1  0
  4 27  1  0
  4 28  1  0
  5 29  1  0
  5 30  1  0
  5 31  1  0
  8 32  1  0
 10 33  1  0
 11 34  1  0
 12 35  1  0
 14 36  1  0
 14 37  1  0
 14 38  1  0
 16 39  1  0
 16 40  1  0
 16 41  1  0
 20 42  1  0
 20 43  1  0
 21 44  1  0
 21 45  1  0
 22 46  1  0
 23 47  1  0
 23 48  1  0
 23 49  1  0
 24 50  1  0
 24 51  1  0
 24 52  1  0
M  CHG  1  22   1
M  END
>  <ScrubInfo>  (4) 
{"isomerGroup": 0, "isomerId": 3, "confId": 0, "nr_conformers:": 1, "nr_isomers:": 9}

$$$$
_i4
     RDKit          3D

 52 53  0  0  0  0  0  0  0  0999 V2000
    0.8119    1.3191   -0.1377 N   0  0  0  0  0  0  0  0  0  0  0  0
    0.3504    2.3210   -0.9204 C   0  0  0  0  0  0  0  0  0  0  0  0
    1.2646    3.2718   -1.3339 N   0  0  0  0  0  0  0  0  0  0  0  0
    2.4623    3.5960   -0.5611 C   0  0  0  0  0  0  0  0  0  0  0  0
    0.7883    4.3679   -2.1819 C   0  0  0  0  0  0  0  0  0  0  0  0
   -0.9055    2.3429   -1.2636 N   0  0  0  0  0  0  0  0  0  0  0  0
   -1.7107    1.3494   -0.7841 C   0  0  0  0  0  0  0  0  0  0  0  0
   -3.0290    1.4294   -1.1438 N   0  0  0  0  0  0  0  0  0  0  0  0
   -3.8897    0.2604   -1.1152 C   0  0  0  0  0  0  0  0  0  0  0  0
   -4.2924   -0.1145    0.3316 C   0  0  0  0  0  0  0  0  0  0  0  0
   -4.2537   -1.6058    0.6356 N   0  0  0  0  0  4  0  0  0  0  0  0
   -2.8482   -2.1477    0.7457 C   0  0  0  0  0  0  0  0  0  0  0  0
   -5.1295   -2.4417   -0.2431 C   0  0  0  0  0  0  0  0  0  0  0  0
   -1.3116    0.3613   -0.0436 N   0  0  0  0  0  0  0  0  0  0  0  0
    0.0135    0.3035    0.2737 C   0  0  0  0  0  0  0  0  0  0  0  0
    0.3376   -0.7621    0.9363 N   0  0  0  0  0  0  0  0  0  0  0  0
    1.6814   -0.9267    1.3107 C   0  0  0  0  0  0  0  0  0  0  0  0
    2.0898   -0.4360    2.5559 C   0  0  0  0  0  0  0  0  0  0  0  0
    3.4173   -0.5397    2.9577 C   0  0  0  0  0  0  0  0  0  0  0  0
    4.3501   -1.1354    2.1133 C   0  0  0  0  0  0  0  0  0  0  0  0
    3.9667   -1.6453    0.8626 C   0  0  0  0  0  0  0  0  0  0  0  0
    5.0137   -2.2918   -0.0055 C   0  0  0  0  0  0  0  0  0  0  0  0
    2.6111   -1.5717    0.4670 C   0  0  0  0  0  0  0  0  0  0  0  0
    2.1676   -2.1219   -0.8650 C   0  0  0  0  0  0  0  0  0  0  0  0
    1.8021    1.2012   -0.0154 H   0  0  0  0  0  0  0  0  0  0  0  0
    3.1354    2.7348   -0.5048 H   0  0  0  0  0  0  0  0  0  0  0  0
    3.0345    4.4107   -1.0180 H   0  0  0  0  0  0  0  0  0  0  0  0
    2.1894    3.9032    0.4539 H   0  0  0  0  0  0  0  0  0  0  0  0
    1.6237    4.8812   -2.6702 H   0  0  0  0  0  0  0  0  0  0  0  0
    0.1395    3.9948   -2.9819 H   0  0  0  0  0  0  0  0  0  0  0  0
    0.2318    5.0978   -1.5848 H   0  0  0  0  0  0  0  0  0  0  0  0
   -3.1485    2.0603   -1.9315 H   0  0  0  0  0  0  0  0  0  0  0  0
   -4.8009    0.4880   -1.6805 H   0  0  0  0  0  0  0  0  0  0  0  0
   -3.3972   -0.5645   -1.6406 H   0  0  0  0  0  0  0  0  0  0  0  0
   -5.3271    0.1987    0.5159 H   0  0  0  0  0  0  0  0  0  0  0  0
   -3.6758    0.3724    1.0948 H   0  0  0  0  0  0  0  0  0  0  0  0
   -4.6333   -1.6880    1.5871 H   0  0  0  0  0  0  0  0  0  0  0  0
   -2.3231   -1.5658    1.5054 H   0  0  0  0  0  0  0  0  0  0  0  0
   -2.9209   -3.1877    1.0763 H   0  0  0  0  0  0  0  0  0  0  0  0
   -2.3674   -2.0958   -0.2327 H   0  0  0  0  0  0  0  0  0  0  0  0
   -6.1306   -2.0031   -0.2422 H   0  0  0  0  0  0  0  0  0  0  0  0
   -4.7109   -2.4615   -1.2520 H   0  0  0  0  0  0  0  0  0  0  0  0
   -5.1657   -3.4501    0.1777 H   0  0  0  0  0  0  0  0  0  0  0  0
    1.3641    0.0320    3.2160 H   0  0  0  0  0  0  0  0  0  0  0  0
    3.7262   -0.1592    3.9282 H   0  0  0  0  0  0  0  0  0  0  0  0
    5.3858   -1.2080    2.4424 H   0  0  0  0  0  0  0  0  0  0  0  0
    6.0236   -2.0912    0.3682 H   0  0  0  0  0  0  0  0  0  0  0  0
    4.9659   -1.8970   -1.0254 H   0  0  0  0  0  0  0  0  0  0  0  0
    4.8701   -3.3766   -0.0243 H   0  0  0  0  0  0  0  0  0  0  0  0
    2.7047   -3.0423   -1.1141 H   0  0  0  0  0  0  0  0  0  0  0  0
    1.1054   -2.3865   -0.8631 H   0  0  0  0  0  0  0  0  0  0  0  0
    2.3432   -1.3803   -1.6505 H   0  0  0  0  0  0  0  0  0  0  0  0
  1  2  1  0
  2  3  1  0
  3  4  1  0
  3  5  1  0
  2  6  2  0
  6  7  1  0
  7  8  1  0
  8  9  1  0
  9 10  1  0
 10 11  1  0
 11 12  1  0
 11 13  1  0
  7 14  2  0
 14 15  1  0
 15 16  2  3
 16 17  1  0
 17 18  2  0
 18 19  1  0
 19 20  2  0
 20 21  1  0
 21 22  1  0
 21 23  2  0
 23 24  1  0
 15  1  1  0
 23 17  1  0
  1 25  1  0
  4 26  1  0
  4 27  1  0
  4 28  1  0
  5 29  1  0
  5 30  1  0
  5 31  1  0
  8 32  1  0
  9 33  1  0
  9 34  1  0
 10 35  1  0
 10 36  1  0
 11 37  1  0
 12 38  1  0
 12 39  1  0
 12 40  1  0
 13 41  1  0
 13 42  1  0
 13 43  1  0
 18 44  1  0
 19 45  1  0
 20 46  1  0
 22 47  1  0
 22 48  1  0
 22 49  1  0
 24 50  1  0
 24 51  1  0
 24 52  1  0
M  CHG  1  11   1
M  END
>  <ScrubInfo>  (5) 
{"isomerGroup": 0, "isomerId": 4, "confId": 0, "nr_conformers:": 1, "nr_isomers:": 9}

$$$$
_i5
     RDKit          3D

 52 53  0  0  0  0  0  0  0  0999 V2000
    1.4224    0.3544   -2.3705 N   0  0  0  0  0  0  0  0  0  0  0  0
    2.0577   -0.0959   -1.2643 C   0  0  0  0  0  0  0  0  0  0  0  0
    3.3941   -0.3368   -1.4030 N   0  0  0  0  0  0  0  0  0  0  0  0
    4.2886   -0.5488   -0.2561 C   0  0  0  0  0  0  0  0  0  0  0  0
    4.0276   -1.8690    0.5151 C   0  0  0  0  0  0  0  0  0  0  0  0
    2.8268   -1.8026    1.4331 N   0  0  0  0  0  4  0  0  0  0  0  0
    2.1694   -3.1288    1.6520 C   0  0  0  0  0  0  0  0  0  0  0  0
    3.0469   -1.0628    2.7132 C   0  0  0  0  0  0  0  0  0  0  0  0
    1.4289   -0.3048   -0.1546 N   0  0  0  0  0  0  0  0  0  0  0  0
    0.0698   -0.0788   -0.2038 C   0  0  0  0  0  0  0  0  0  0  0  0
   -0.5133   -0.4061    0.9061 N   0  0  0  0  0  0  0  0  0  0  0  0
   -1.9075   -0.2497    1.0094 C   0  0  0  0  0  0  0  0  0  0  0  0
   -2.7433   -1.2466    0.4876 C   0  0  0  0  0  0  0  0  0  0  0  0
   -4.1276   -1.1448    0.5913 C   0  0  0  0  0  0  0  0  0  0  0  0
   -4.6926   -0.0448    1.2297 C   0  0  0  0  0  0  0  0  0  0  0  0
   -3.8820    0.9644    1.7716 C   0  0  0  0  0  0  0  0  0  0  0  0
   -4.5400    2.1291    2.4638 C   0  0  0  0  0  0  0  0  0  0  0  0
   -2.4732    0.8542    1.6812 C   0  0  0  0  0  0  0  0  0  0  0  0
   -1.5953    1.9235    2.2794 C   0  0  0  0  0  0  0  0  0  0  0  0
   -0.6222    0.3846   -1.2911 N   0  0  0  0  0  0  0  0  0  0  0  0
    0.0773    0.5823   -2.3668 C   0  0  0  0  0  0  0  0  0  0  0  0
   -0.4710    0.9957   -3.5655 N   0  0  0  0  0  0  0  0  0  0  0  0
    0.2086    1.9826   -4.4060 C   0  0  0  0  0  0  0  0  0  0  0  0
   -1.9362    1.1002   -3.6309 C   0  0  0  0  0  0  0  0  0  0  0  0
    1.8201    0.1397   -3.2712 H   0  0  0  0  0  0  0  0  0  0  0  0
    3.8339    0.2234   -2.1306 H   0  0  0  0  0  0  0  0  0  0  0  0
    4.2550    0.3214    0.4076 H   0  0  0  0  0  0  0  0  0  0  0  0
    5.3082   -0.6013   -0.6551 H   0  0  0  0  0  0  0  0  0  0  0  0
    4.8861   -2.1322    1.1413 H   0  0  0  0  0  0  0  0  0  0  0  0
    3.8521   -2.6810   -0.2000 H   0  0  0  0  0  0  0  0  0  0  0  0
    2.1111   -1.2419    0.9196 H   0  0  0  0  0  0  0  0  0  0  0  0
    1.2645   -2.9726    2.2459 H   0  0  0  0  0  0  0  0  0  0  0  0
    2.8737   -3.7822    2.1738 H   0  0  0  0  0  0  0  0  0  0  0  0
    1.9004   -3.5418    0.6766 H   0  0  0  0  0  0  0  0  0  0  0  0
    3.7576   -1.6279    3.3224 H   0  0  0  0  0  0  0  0  0  0  0  0
    3.4375   -0.0695    2.4844 H   0  0  0  0  0  0  0  0  0  0  0  0
    2.0850   -0.9697    3.2248 H   0  0  0  0  0  0  0  0  0  0  0  0
   -2.3074   -2.1061   -0.0132 H   0  0  0  0  0  0  0  0  0  0  0  0
   -4.7651   -1.9206    0.1758 H   0  0  0  0  0  0  0  0  0  0  0  0
   -5.7767    0.0226    1.3028 H   0  0  0  0  0  0  0  0  0  0  0  0
   -4.3296    2.0981    3.5374 H   0  0  0  0  0  0  0  0  0  0  0  0
   -5.6280    2.1114    2.3363 H   0  0  0  0  0  0  0  0  0  0  0  0
   -4.1812    3.0742    2.0449 H   0  0  0  0  0  0  0  0  0  0  0  0
   -1.8851    2.1132    3.3185 H   0  0  0  0  0  0  0  0  0  0  0  0
   -1.6843    2.8494    1.7021 H   0  0  0  0  0  0  0  0  0  0  0  0
   -0.5381    1.6430    2.3025 H   0  0  0  0  0  0  0  0  0  0  0  0
    0.2756    2.9438   -3.8868 H   0  0  0  0  0  0  0  0  0  0  0  0
    1.2184    1.6553   -4.6710 H   0  0  0  0  0  0  0  0  0  0  0  0
   -0.3285    2.1343   -5.3480 H   0  0  0  0  0  0  0  0  0  0  0  0
   -2.2738    1.1820   -4.6694 H   0  0  0  0  0  0  0  0  0  0  0  0
   -2.2847    1.9792   -3.0783 H   0  0  0  0  0  0  0  0  0  0  0  0
   -2.4106    0.2051   -3.2139 H   0  0  0  0  0  0  0  0  0  0  0  0
  1  2  1  0
  2  3  1  0
  3  4  1  0
  4  5  1  0
  5  6  1  0
  6  7  1  0
  6  8  1  0
  2  9  2  0
  9 10  1  0
 10 11  2  3
 11 12  1  0
 12 13  2  0
 13 14  1  0
 14 15  2  0
 15 16  1  0
 16 17  1  0
 16 18  2  0
 18 19  1  0
 10 20  1  0
 20 21  2  0
 21 22  1  0
 22 23  1  0
 22 24  1  0
 21  1  1  0
 18 12  1  0
  1 25  1  0
  3 26  1  0
  4 27  1  0
  4 28  1  0
  5 29  1  0
  5 30  1  0
  6 31  1  0
  7 32  1  0
  7 33  1  0
  7 34  1  0
  8 35  1  0
  8 36  1  0
  8 37  1  0
 13 38  1  0
 14 39  1  0
 15 40  1  0
 17 41  1  0
 17 42  1  0
 17 43  1  0
 19 44  1  0
 19 45  1  0
 19 46  1  0
 23 47  1  0
 23 48  1  0
 23 49  1  0
 24 50  1  0
 24 51  1  0
 24 52  1  0
M  CHG  1   6   1
M  END
>  <ScrubInfo>  (6) 
{"isomerGroup": 0, "isomerId": 5, "confId": 0, "nr_conformers:": 1, "nr_isomers:": 9}

$$$$
_i6
     RDKit          3D

 52 53  0  0  0  0  0  0  0  0999 V2000
   -0.7282    1.2038   -0.1486 N   0  0  0  0  0  0  0  0  0  0  0  0
   -0.5644   -0.0989   -0.4925 C   0  0  0  0  0  0  0  0  0  0  0  0
   -1.6929   -0.8047   -0.8011 N   0  0  0  0  0  0  0  0  0  0  0  0
   -2.9199   -0.7781   -0.0888 C   0  0  0  0  0  0  0  0  0  0  0  0
   -2.9610   -0.4392    1.2734 C   0  0  0  0  0  0  0  0  0  0  0  0
   -4.1615   -0.4519    1.9781 C   0  0  0  0  0  0  0  0  0  0  0  0
   -5.3370   -0.8273    1.3376 C   0  0  0  0  0  0  0  0  0  0  0  0
   -5.3294   -1.1990   -0.0147 C   0  0  0  0  0  0  0  0  0  0  0  0
   -6.6293   -1.6141   -0.6531 C   0  0  0  0  0  0  0  0  0  0  0  0
   -4.1172   -1.1549   -0.7449 C   0  0  0  0  0  0  0  0  0  0  0  0
   -4.0970   -1.5514   -2.2026 C   0  0  0  0  0  0  0  0  0  0  0  0
    0.6182   -0.6258   -0.5831 N   0  0  0  0  0  0  0  0  0  0  0  0
    1.6431    0.2307   -0.2709 C   0  0  0  0  0  0  0  0  0  0  0  0
    2.8111   -0.3132   -0.3530 N   0  0  0  0  0  0  0  0  0  0  0  0
    3.9628    0.5439   -0.0297 C   0  0  0  0  0  0  0  0  0  0  0  0
    5.2254   -0.2784   -0.3280 C   0  0  0  0  0  0  0  0  0  0  0  0
    4.9413   -1.7314    0.0176 N   0  0  0  0  0  4  0  0  0  0  0  0
    5.0617   -2.0333    1.4757 C   0  0  0  0  0  0  0  0  0  0  0  0
    5.6735   -2.7009   -0.8457 C   0  0  0  0  0  0  0  0  0  0  0  0
    1.5289    1.5441    0.1118 N   0  0  0  0  0  0  0  0  0  0  0  0
    0.3153    2.0162    0.1534 C   0  0  0  0  0  0  0  0  0  0  0  0
    0.0284    3.3177    0.5175 N   0  0  0  0  0  0  0  0  0  0  0  0
   -1.2527    3.9651    0.2513 C   0  0  0  0  0  0  0  0  0  0  0  0
    1.1361    4.2427    0.7613 C   0  0  0  0  0  0  0  0  0  0  0  0
   -1.6694    1.5593   -0.1474 H   0  0  0  0  0  0  0  0  0  0  0  0
   -1.4824   -1.7563   -1.0923 H   0  0  0  0  0  0  0  0  0  0  0  0
   -2.0527   -0.1871    1.8154 H   0  0  0  0  0  0  0  0  0  0  0  0
   -4.1793   -0.1882    3.0328 H   0  0  0  0  0  0  0  0  0  0  0  0
   -6.2649   -0.8430    1.9071 H   0  0  0  0  0  0  0  0  0  0  0  0
   -6.5119   -2.5651   -1.1825 H   0  0  0  0  0  0  0  0  0  0  0  0
   -7.4155   -1.7599    0.0956 H   0  0  0  0  0  0  0  0  0  0  0  0
   -6.9695   -0.8432   -1.3515 H   0  0  0  0  0  0  0  0  0  0  0  0
   -3.9742   -2.6353   -2.2903 H   0  0  0  0  0  0  0  0  0  0  0  0
   -5.0182   -1.2531   -2.7124 H   0  0  0  0  0  0  0  0  0  0  0  0
   -3.2855   -1.0591   -2.7479 H   0  0  0  0  0  0  0  0  0  0  0  0
    3.9476    0.8121    1.0332 H   0  0  0  0  0  0  0  0  0  0  0  0
    3.9832    1.4608   -0.6299 H   0  0  0  0  0  0  0  0  0  0  0  0
    5.4355   -0.2416   -1.4027 H   0  0  0  0  0  0  0  0  0  0  0  0
    6.1059    0.0586    0.2276 H   0  0  0  0  0  0  0  0  0  0  0  0
    3.9275   -1.8047   -0.2147 H   0  0  0  0  0  0  0  0  0  0  0  0
    4.4285   -1.3389    2.0329 H   0  0  0  0  0  0  0  0  0  0  0  0
    6.1096   -1.9239    1.7673 H   0  0  0  0  0  0  0  0  0  0  0  0
    4.7176   -3.0578    1.6407 H   0  0  0  0  0  0  0  0  0  0  0  0
    6.7457   -2.5830   -0.6682 H   0  0  0  0  0  0  0  0  0  0  0  0
    5.3432   -3.7100   -0.5856 H   0  0  0  0  0  0  0  0  0  0  0  0
    5.4241   -2.4904   -1.8891 H   0  0  0  0  0  0  0  0  0  0  0  0
   -1.4639    3.9647   -0.8231 H   0  0  0  0  0  0  0  0  0  0  0  0
   -2.0623    3.4472    0.7759 H   0  0  0  0  0  0  0  0  0  0  0  0
   -1.2684    5.0048    0.5955 H   0  0  0  0  0  0  0  0  0  0  0  0
    1.9258    3.7691    1.3547 H   0  0  0  0  0  0  0  0  0  0  0  0
    0.8060    5.1210    1.3265 H   0  0  0  0  0  0  0  0  0  0  0  0
    1.5626    4.5810   -0.1887 H   0  0  0  0  0  0  0  0  0  0  0  0
  1  2  1  0
  2  3  1  0
  3  4  1  0
  4  5  2  0
  5  6  1  0
  6  7  2  0
  7  8  1  0
  8  9  1  0
  8 10  2  0
 10 11  1  0
  2 12  2  0
 12 13  1  0
 13 14  2  3
 14 15  1  0
 15 16  1  0
 16 17  1  0
 17 18  1  0
 17 19  1  0
 13 20  1  0
 20 21  2  0
 21 22  1  0
 22 23  1  0
 22 24  1  0
 21  1  1  0
 10  4  1  0
  1 25  1  0
  3 26  1  0
  5 27  1  0
  6 28  1  0
  7 29  1  0
  9 30  1  0
  9 31  1  0
  9 32  1  0
 11 33  1  0
 11 34  1  0
 11 35  1  0
 15 36  1  0
 15 37  1  0
 16 38  1  0
 16 39  1  0
 17 40  1  0
 18 41  1  0
 18 42  1  0
 18 43  1  0
 19 44  1  0
 19 45  1  0
 19 46  1  0
 23 47  1  0
 23 48  1  0
 23 49  1  0
 24 50  1  0
 24 51  1  0
 24 52  1  0
M  CHG  1  17   1
M  END
>  <ScrubInfo>  (7) 
{"isomerGroup": 0, "isomerId": 6, "confId": 0, "nr_conformers:": 1, "nr_isomers:": 9}

$$$$
_i7
     RDKit          3D

 52 53  0  0  0  0  0  0  0  0999 V2000
    0.9891   -0.0879    0.2261 N   0  0  0  0  0  0  0  0  0  0  0  0
   -0.0653    0.6449   -0.2510 C   0  0  0  0  0  0  0  0  0  0  0  0
    0.1852    1.9831   -0.4937 N   0  0  0  0  0  0  0  0  0  0  0  0
    1.3120    2.7157    0.0764 C   0  0  0  0  0  0  0  0  0  0  0  0
   -0.8218    2.8079   -1.1505 C   0  0  0  0  0  0  0  0  0  0  0  0
   -1.2416    0.1101   -0.4691 N   0  0  0  0  0  0  0  0  0  0  0  0
   -1.3396   -1.2394   -0.1995 C   0  0  0  0  0  0  0  0  0  0  0  0
   -2.4624   -1.8513   -0.3966 N   0  0  0  0  0  0  0  0  0  0  0  0
   -3.5740   -1.0871   -0.9592 C   0  0  0  0  0  0  0  0  0  0  0  0
   -4.3142   -0.3282    0.1483 C   0  0  0  0  0  0  0  0  0  0  0  0
   -5.3708    0.6064   -0.4186 N   0  0  0  0  0  4  0  0  0  0  0  0
   -5.8531    1.5705    0.6289 C   0  0  0  0  0  0  0  0  0  0  0  0
   -6.5177   -0.1159   -1.0670 C   0  0  0  0  0  0  0  0  0  0  0  0
   -0.2742   -1.9280    0.2892 N   0  0  0  0  0  0  0  0  0  0  0  0
    0.9692   -1.4267    0.5192 C   0  0  0  0  0  0  0  0  0  0  0  0
    1.9336   -2.1821    0.9433 N   0  0  0  0  0  0  0  0  0  0  0  0
    3.1926   -1.5944    1.1544 C   0  0  0  0  0  0  0  0  0  0  0  0
    3.4862   -1.0913    2.4264 C   0  0  0  0  0  0  0  0  0  0  0  0
    4.6999   -0.4593    2.6764 C   0  0  0  0  0  0  0  0  0  0  0  0
    5.6318   -0.3233    1.6511 C   0  0  0  0  0  0  0  0  0  0  0  0
    5.3688   -0.8288    0.3678 C   0  0  0  0  0  0  0  0  0  0  0  0
    6.4204   -0.6756   -0.6989 C   0  0  0  0  0  0  0  0  0  0  0  0
    4.1500   -1.5025    0.1217 C   0  0  0  0  0  0  0  0  0  0  0  0
    3.8474   -2.0757   -1.2398 C   0  0  0  0  0  0  0  0  0  0  0  0
    1.8941    0.3506    0.2788 H   0  0  0  0  0  0  0  0  0  0  0  0
    2.2405    2.4367   -0.4320 H   0  0  0  0  0  0  0  0  0  0  0  0
    1.1921    3.8000   -0.0241 H   0  0  0  0  0  0  0  0  0  0  0  0
    1.4112    2.5005    1.1457 H   0  0  0  0  0  0  0  0  0  0  0  0
   -0.3722    3.6879   -1.6231 H   0  0  0  0  0  0  0  0  0  0  0  0
   -1.3346    2.2538   -1.9444 H   0  0  0  0  0  0  0  0  0  0  0  0
   -1.5657    3.1465   -0.4222 H   0  0  0  0  0  0  0  0  0  0  0  0
   -3.2502   -0.4138   -1.7627 H   0  0  0  0  0  0  0  0  0  0  0  0
   -4.2522   -1.8063   -1.4312 H   0  0  0  0  0  0  0  0  0  0  0  0
   -4.8135   -1.0140    0.8424 H   0  0  0  0  0  0  0  0  0  0  0  0
   -3.6206    0.2962    0.7212 H   0  0  0  0  0  0  0  0  0  0  0  0
   -4.9039    1.1665   -1.1441 H   0  0  0  0  0  0  0  0  0  0  0  0
   -6.5604    2.2585    0.1582 H   0  0  0  0  0  0  0  0  0  0  0  0
   -4.9905    2.1289    1.0024 H   0  0  0  0  0  0  0  0  0  0  0  0
   -6.3323    1.0034    1.4314 H   0  0  0  0  0  0  0  0  0  0  0  0
   -6.9771   -0.7780   -0.3285 H   0  0  0  0  0  0  0  0  0  0  0  0
   -7.2344    0.6313   -1.4187 H   0  0  0  0  0  0  0  0  0  0  0  0
   -6.1370   -0.6785   -1.9218 H   0  0  0  0  0  0  0  0  0  0  0  0
   -0.3972   -2.9173    0.4426 H   0  0  0  0  0  0  0  0  0  0  0  0
    2.7604   -1.2006    3.2281 H   0  0  0  0  0  0  0  0  0  0  0  0
    4.9236   -0.0801    3.6703 H   0  0  0  0  0  0  0  0  0  0  0  0
    6.5790    0.1699    1.8637 H   0  0  0  0  0  0  0  0  0  0  0  0
    5.9791   -0.2869   -1.6223 H   0  0  0  0  0  0  0  0  0  0  0  0
    6.8986   -1.6397   -0.8978 H   0  0  0  0  0  0  0  0  0  0  0  0
    7.1992    0.0319   -0.3944 H   0  0  0  0  0  0  0  0  0  0  0  0
    4.7459   -2.4938   -1.7042 H   0  0  0  0  0  0  0  0  0  0  0  0
    3.1285   -2.8993   -1.1846 H   0  0  0  0  0  0  0  0  0  0  0  0
    3.4383   -1.2954   -1.8889 H   0  0  0  0  0  0  0  0  0  0  0  0
  1  2  1  0
  2  3  1  0
  3  4  1  0
  3  5  1  0
  2  6  2  0
  6  7  1  0
  7  8  2  3
  8  9  1  0
  9 10  1  0
 10 11  1  0
 11 12  1  0
 11 13  1  0
  7 14  1  0
 14 15  1  0
 15 16  2  3
 16 17  1  0
 17 18  2  0
 18 19  1  0
 19 20  2  0
 20 21  1  0
 21 22  1  0
 21 23  2  0
 23 24  1  0
 15  1  1  0
 23 17  1  0
  1 25  1  0
  4 26  1  0
  4 27  1  0
  4 28  1  0
  5 29  1  0
  5 30  1  0
  5 31  1  0
  9 32  1  0
  9 33  1  0
 10 34  1  0
 10 35  1  0
 11 36  1  0
 12 37  1  0
 12 38  1  0
 12 39  1  0
 13 40  1  0
 13 41  1  0
 13 42  1  0
 14 43  1  0
 18 44  1  0
 19 45  1  0
 20 46  1  0
 22 47  1  0
 22 48  1  0
 22 49  1  0
 24 50  1  0
 24 51  1  0
 24 52  1  0
M  CHG  1  11   1
M  END
>  <ScrubInfo>  (8) 
{"isomerGroup": 0, "isomerId": 7, "confId": 0, "nr_conformers:": 1, "nr_isomers:": 9}

$$$$
_i8
     RDKit          3D

 52 53  0  0  0  0  0  0  0  0999 V2000
    1.0094    1.2996   -0.3667 N   0  0  0  0  0  0  0  0  0  0  0  0
   -0.3234    1.5691   -0.5383 C   0  0  0  0  0  0  0  0  0  0  0  0
   -0.5864    2.6974   -1.2958 N   0  0  0  0  0  0  0  0  0  0  0  0
   -0.0647    2.7728   -2.6634 C   0  0  0  0  0  0  0  0  0  0  0  0
   -1.9467    3.2514   -1.1922 C   0  0  0  0  0  0  0  0  0  0  0  0
   -1.2575    0.8419    0.0007 N   0  0  0  0  0  0  0  0  0  0  0  0
   -0.8283   -0.2365    0.7354 C   0  0  0  0  0  0  0  0  0  0  0  0
   -1.6653   -1.0575    1.3015 N   0  0  0  0  0  0  0  0  0  0  0  0
   -3.0457   -0.8240    1.1556 C   0  0  0  0  0  0  0  0  0  0  0  0
   -3.6951   -0.0449    2.1205 C   0  0  0  0  0  0  0  0  0  0  0  0
   -5.0614    0.2042    2.0332 C   0  0  0  0  0  0  0  0  0  0  0  0
   -5.7939   -0.3263    0.9751 C   0  0  0  0  0  0  0  0  0  0  0  0
   -5.1723   -1.1180   -0.0037 C   0  0  0  0  0  0  0  0  0  0  0  0
   -6.0101   -1.6705   -1.1254 C   0  0  0  0  0  0  0  0  0  0  0  0
   -3.7894   -1.3990    0.1022 C   0  0  0  0  0  0  0  0  0  0  0  0
   -3.0955   -2.2481   -0.9309 C   0  0  0  0  0  0  0  0  0  0  0  0
    0.5095   -0.4749    0.8937 N   0  0  0  0  0  0  0  0  0  0  0  0
    1.5254    0.2843    0.3906 C   0  0  0  0  0  0  0  0  0  0  0  0
    2.8041    0.1541    0.5482 N   0  0  0  0  0  0  0  0  0  0  0  0
    3.2457   -0.9580    1.4117 C   0  0  0  0  0  0  0  0  0  0  0  0
    4.7666   -0.8329    1.6027 C   0  0  0  0  0  0  0  0  0  0  0  0
    5.3876   -0.3977    0.2874 N   0  0  0  0  0  4  0  0  0  0  0  0
    5.5636   -1.5179   -0.6896 C   0  0  0  0  0  0  0  0  0  0  0  0
    6.6342    0.4068    0.4692 C   0  0  0  0  0  0  0  0  0  0  0  0
    1.6472    2.0187   -0.6657 H   0  0  0  0  0  0  0  0  0  0  0  0
   -0.2144    3.7745   -3.0806 H   0  0  0  0  0  0  0  0  0  0  0  0
    1.0104    2.5710   -2.6961 H   0  0  0  0  0  0  0  0  0  0  0  0
   -0.5733    2.0473   -3.3073 H   0  0  0  0  0  0  0  0  0  0  0  0
   -2.2390    3.3645   -0.1423 H   0  0  0  0  0  0  0  0  0  0  0  0
   -2.6717    2.6036   -1.6970 H   0  0  0  0  0  0  0  0  0  0  0  0
   -1.9916    4.2466   -1.6474 H   0  0  0  0  0  0  0  0  0  0  0  0
   -3.1241    0.3738    2.9438 H   0  0  0  0  0  0  0  0  0  0  0  0
   -5.5536    0.8126    2.7867 H   0  0  0  0  0  0  0  0  0  0  0  0
   -6.8606   -0.1183    0.9181 H   0  0  0  0  0  0  0  0  0  0  0  0
   -6.1442   -2.7494   -0.9998 H   0  0  0  0  0  0  0  0  0  0  0  0
   -7.0028   -1.2082   -1.1498 H   0  0  0  0  0  0  0  0  0  0  0  0
   -5.5395   -1.4689   -2.0931 H   0  0  0  0  0  0  0  0  0  0  0  0
   -3.7421   -3.0590   -1.2804 H   0  0  0  0  0  0  0  0  0  0  0  0
   -2.8038   -1.6297   -1.7855 H   0  0  0  0  0  0  0  0  0  0  0  0
   -2.2011   -2.7330   -0.5272 H   0  0  0  0  0  0  0  0  0  0  0  0
    0.6869   -1.2755    1.4765 H   0  0  0  0  0  0  0  0  0  0  0  0
    3.0130   -1.9158    0.9325 H   0  0  0  0  0  0  0  0  0  0  0  0
    2.7606   -0.9277    2.3941 H   0  0  0  0  0  0  0  0  0  0  0  0
    5.2383   -1.7640    1.9314 H   0  0  0  0  0  0  0  0  0  0  0  0
    4.9739   -0.0410    2.3310 H   0  0  0  0  0  0  0  0  0  0  0  0
    4.6582    0.2301   -0.1022 H   0  0  0  0  0  0  0  0  0  0  0  0
    5.9143   -1.0931   -1.6339 H   0  0  0  0  0  0  0  0  0  0  0  0
    4.5979   -2.0049   -0.8427 H   0  0  0  0  0  0  0  0  0  0  0  0
    6.2954   -2.2214   -0.2838 H   0  0  0  0  0  0  0  0  0  0  0  0
    6.3964    1.2728    1.0925 H   0  0  0  0  0  0  0  0  0  0  0  0
    6.9708    0.7435   -0.5148 H   0  0  0  0  0  0  0  0  0  0  0  0
    7.3885   -0.2246    0.9462 H   0  0  0  0  0  0  0  0  0  0  0  0
  1  2  1  0
  2  3  1  0
  3  4  1  0
  3  5  1  0
  2  6  2  0
  6  7  1  0
  7  8  2  3
  8  9  1  0
  9 10  2  0
 10 11  1  0
 11 12  2  0
 12 13  1  0
 13 14  1  0
 13 15  2  0
 15 16  1  0
  7 17  1  0
 17 18  1  0
 18 19  2  3
 19 20  1  0
 20 21  1  0
 21 22  1  0
 22 23  1  0
 22 24  1  0
 18  1  1  0
 15  9  1  0
  1 25  1  0
  4 26  1  0
  4 27  1  0
  4 28  1  0
  5 29  1  0
  5 30  1  0
  5 31  1  0
 10 32  1  0
 11 33  1  0
 12 34  1  0
 14 35  1  0
 14 36  1  0
 14 37  1  0
 16 38  1  0
 16 39  1  0
 16 40  1  0
 17 41  1  0
 20 42  1  0
 20 43  1  0
 21 44  1  0
 21 45  1  0
 22 46  1  0
 23 47  1  0
 23 48  1  0
 23 49  1  0
 24 50  1  0
 24 51  1  0
 24 52  1  0
M  CHG  1  22   1
M  END
>  <ScrubInfo>  (9) 
{"isomerGroup": 0, "isomerId": 8, "confId": 0, "nr_conformers:": 1, "nr_isomers:": 9}

$$$$
