REMARK SMILES Cc1cccc(Nc2nc(NCC[NH+](C)C)nc(N(C)C)n2)c1C
REMARK SMILES IDX 11 1 12 3 13 4 14 5 15 6 16 7 10 9 9 10 17 11 8 12 18 13
REMARK SMILES IDX 22 14 7 15 6 17 5 18 23 19 4 20 2 21 3 22 24 23 1 24 19 25
REMARK SMILES IDX 20 26 21 27
REMARK H PARENT 11 2 14 8 7 16
ROOT
ATOM      1  N   UNL     1      -2.116  -1.653   2.121  1.00  0.00    -0.348 N 
ATOM      2  H   UNL     1      -1.456  -1.977   2.832  1.00  0.00     0.163 HD
ENDROOT
BRANCH   1   3
ATOM      3  C   UNL     1      -3.127  -0.761   2.701  1.00  0.00     0.177 C 
BRANCH   3   4
ATOM      4  C   UNL     1      -4.505  -0.925   2.020  1.00  0.00     0.283 C 
BRANCH   4   5
ATOM      5  N   UNL     1      -4.497  -0.460   0.579  1.00  0.00    -0.338 N 
ATOM      6  C   UNL     1      -5.460  -1.213  -0.280  1.00  0.00     0.332 C 
ATOM      7  C   UNL     1      -4.630   1.024   0.418  1.00  0.00     0.332 C 
ATOM      8  H   UNL     1      -3.546  -0.686   0.220  1.00  0.00     0.347 HD
ENDBRANCH   4   5
ENDBRANCH   3   4
ENDBRANCH   1   3
BRANCH   1   9
ATOM      9  C   UNL     1      -1.283  -1.024   1.195  1.00  0.00     0.229 A 
ATOM     10  N   UNL     1       0.005  -1.013   1.470  1.00  0.00    -0.177 NA
ATOM     11  N   UNL     1      -1.840  -0.489   0.118  1.00  0.00    -0.177 NA
ATOM     12  C   UNL     1       0.772  -0.356   0.605  1.00  0.00     0.233 A 
ATOM     13  C   UNL     1      -1.005   0.136  -0.709  1.00  0.00     0.231 A 
ATOM     14  N   UNL     1       0.293   0.245  -0.477  1.00  0.00    -0.176 NA
BRANCH  12  15
ATOM     15  N   UNL     1       2.134  -0.361   0.898  1.00  0.00    -0.324 N 
ATOM     16  H   UNL     1       2.300  -0.894   1.739  1.00  0.00     0.170 HD
BRANCH  15  17
ATOM     17  C   UNL     1       3.245   0.329   0.381  1.00  0.00     0.044 A 
ATOM     18  C   UNL     1       3.099   1.411  -0.499  1.00  0.00     0.026 A 
ATOM     19  C   UNL     1       4.562  -0.109   0.697  1.00  0.00    -0.025 A 
ATOM     20  C   UNL     1       4.204   2.081  -1.021  1.00  0.00     0.002 A 
ATOM     21  C   UNL     1       5.684   0.593   0.188  1.00  0.00    -0.046 A 
ATOM     22  C   UNL     1       5.486   1.678  -0.675  1.00  0.00     0.004 A 
ATOM     23  C   UNL     1       4.761  -1.304   1.602  1.00  0.00     0.047 C 
ATOM     24  C   UNL     1       7.099   0.201   0.523  1.00  0.00     0.044 C 
ENDBRANCH  15  17
ENDBRANCH  12  15
BRANCH  13  25
ATOM     25  N   UNL     1      -1.587   0.734  -1.840  1.00  0.00    -0.347 N 
ATOM     26  C   UNL     1      -2.070  -0.304  -2.752  1.00  0.00     0.146 C 
ATOM     27  C   UNL     1      -0.695   1.702  -2.486  1.00  0.00     0.146 C 
ENDBRANCH  13  25
ENDBRANCH   1   9
TORSDOF 7
