REMARK SMILES Cc1ccc(Nc2nc(NCc3cccnc3)nc(N(C)C)n2)cc1
REMARK SMILES IDX 7 1 8 2 9 3 18 4 19 5 23 6 6 7 5 9 2 10 3 11 25 12 4 13
REMARK SMILES IDX 24 14 1 15 10 16 11 18 12 19 13 20 17 21 14 22 16 23 15 24
REMARK SMILES IDX 20 25 21 26 22 27
REMARK H PARENT 6 8 10 17
ROOT
ATOM      1  C   UNL     1       0.948   1.129  -1.018  1.00  0.00     0.233 A 
ATOM      2  N   UNL     1       0.253   0.313  -0.241  1.00  0.00    -0.177 NA
ATOM      3  C   UNL     1      -0.963   0.716   0.077  1.00  0.00     0.229 A 
ATOM      4  N   UNL     1      -1.504   1.853  -0.331  1.00  0.00    -0.177 NA
ATOM      5  C   UNL     1      -0.751   2.629  -1.103  1.00  0.00     0.231 A 
ATOM      6  N   UNL     1       0.480   2.287  -1.472  1.00  0.00    -0.176 NA
ENDROOT
BRANCH   1   7
ATOM      7  N   UNL     1       2.238   0.816  -1.444  1.00  0.00    -0.324 N 
ATOM      8  H   UNL     1       2.574   1.551  -2.048  1.00  0.00     0.170 HD
BRANCH   7   9
ATOM      9  C   UNL     1       3.134  -0.219  -1.154  1.00  0.00     0.041 A 
ATOM     10  C   UNL     1       5.013  -2.301  -0.710  1.00  0.00    -0.051 A 
ATOM     11  C   UNL     1       5.271  -1.302  -1.651  1.00  0.00     0.005 A 
ATOM     12  C   UNL     1       3.821  -2.245   0.016  1.00  0.00     0.005 A 
ATOM     13  C   UNL     1       4.339  -0.282  -1.873  1.00  0.00     0.026 A 
ATOM     14  C   UNL     1       2.892  -1.222  -0.212  1.00  0.00     0.026 A 
ATOM     15  C   UNL     1       6.021  -3.377  -0.441  1.00  0.00     0.044 C 
ENDBRANCH   7   9
ENDBRANCH   1   7
BRANCH   3  16
ATOM     16  N   UNL     1      -1.686  -0.148   0.893  1.00  0.00    -0.350 N 
ATOM     17  H   UNL     1      -1.214  -1.045   0.845  1.00  0.00     0.164 HD
BRANCH  16  18
ATOM     18  C   UNL     1      -3.102  -0.187   0.594  1.00  0.00     0.153 C 
BRANCH  18  19
ATOM     19  C   UNL     1      -3.747  -1.283   1.397  1.00  0.00    -0.010 A 
ATOM     20  C   UNL     1      -4.040  -2.531   0.840  1.00  0.00     0.009 A 
ATOM     21  C   UNL     1      -4.048  -1.095   2.743  1.00  0.00     0.116 A 
ATOM     22  C   UNL     1      -4.628  -3.516   1.628  1.00  0.00     0.020 A 
ATOM     23  N   UNL     1      -4.625  -2.033   3.530  1.00  0.00    -0.264 NA
ATOM     24  C   UNL     1      -4.901  -3.221   2.954  1.00  0.00     0.111 A 
ENDBRANCH  18  19
ENDBRANCH  16  18
ENDBRANCH   3  16
BRANCH   5  25
ATOM     25  N   UNL     1      -1.287   3.832  -1.575  1.00  0.00    -0.347 N 
ATOM     26  C   UNL     1      -0.299   4.806  -2.011  1.00  0.00     0.146 C 
ATOM     27  C   UNL     1      -2.401   4.343  -0.789  1.00  0.00     0.146 C 
ENDBRANCH   5  25
TORSDOF 6
