_i0
     RDKit          3D

 46 48  0  0  0  0  0  0  0  0999 V2000
    6.0212   -3.3773   -0.4412 C   0  0  0  0  0  0  0  0  0  0  0  0
    5.0131   -2.3009   -0.7101 C   0  0  0  0  0  0  0  0  0  0  0  0
    5.2708   -1.3023   -1.6507 C   0  0  0  0  0  0  0  0  0  0  0  0
    4.3387   -0.2822   -1.8726 C   0  0  0  0  0  0  0  0  0  0  0  0
    3.1340   -0.2190   -1.1544 C   0  0  0  0  0  0  0  0  0  0  0  0
    2.2378    0.8155   -1.4442 N   0  0  0  0  0  0  0  0  0  0  0  0
    0.9478    1.1293   -1.0182 C   0  0  0  0  0  0  0  0  0  0  0  0
    0.2530    0.3128   -0.2409 N   0  0  0  0  0  0  0  0  0  0  0  0
   -0.9631    0.7156    0.0769 C   0  0  0  0  0  0  0  0  0  0  0  0
   -1.6856   -0.1480    0.8930 N   0  0  0  0  0  0  0  0  0  0  0  0
   -3.1019   -0.1868    0.5941 C   0  0  0  0  0  0  0  0  0  0  0  0
   -3.7466   -1.2827    1.3973 C   0  0  0  0  0  0  0  0  0  0  0  0
   -4.0396   -2.5311    0.8404 C   0  0  0  0  0  0  0  0  0  0  0  0
   -4.6282   -3.5164    1.6282 C   0  0  0  0  0  0  0  0  0  0  0  0
   -4.9013   -3.2215    2.9536 C   0  0  0  0  0  0  0  0  0  0  0  0
   -4.6251   -2.0327    3.5298 N   0  0  0  0  0  0  0  0  0  0  0  0
   -4.0481   -1.0953    2.7428 C   0  0  0  0  0  0  0  0  0  0  0  0
   -1.5036    1.8531   -0.3313 N   0  0  0  0  0  0  0  0  0  0  0  0
   -0.7506    2.6286   -1.1025 C   0  0  0  0  0  0  0  0  0  0  0  0
   -1.2873    3.8318   -1.5747 N   0  0  0  0  0  0  0  0  0  0  0  0
   -0.2986    4.8062   -2.0111 C   0  0  0  0  0  0  0  0  0  0  0  0
   -2.4008    4.3435   -0.7889 C   0  0  0  0  0  0  0  0  0  0  0  0
    0.4798    2.2871   -1.4718 N   0  0  0  0  0  0  0  0  0  0  0  0
    2.8924   -1.2217   -0.2119 C   0  0  0  0  0  0  0  0  0  0  0  0
    3.8214   -2.2453    0.0164 C   0  0  0  0  0  0  0  0  0  0  0  0
    5.5293   -4.3031   -0.1248 H   0  0  0  0  0  0  0  0  0  0  0  0
    6.5966   -3.6080   -1.3440 H   0  0  0  0  0  0  0  0  0  0  0  0
    6.7109   -3.0562    0.3454 H   0  0  0  0  0  0  0  0  0  0  0  0
    6.1963   -1.3098   -2.2215 H   0  0  0  0  0  0  0  0  0  0  0  0
    4.5680    0.4712   -2.6224 H   0  0  0  0  0  0  0  0  0  0  0  0
    2.5744    1.5513   -2.0477 H   0  0  0  0  0  0  0  0  0  0  0  0
   -1.2141   -1.0452    0.8446 H   0  0  0  0  0  0  0  0  0  0  0  0
   -3.2765   -0.3704   -0.4746 H   0  0  0  0  0  0  0  0  0  0  0  0
   -3.5875    0.7658    0.8434 H   0  0  0  0  0  0  0  0  0  0  0  0
   -3.8131   -2.7411   -0.2019 H   0  0  0  0  0  0  0  0  0  0  0  0
   -4.8677   -4.4915    1.2192 H   0  0  0  0  0  0  0  0  0  0  0  0
   -5.3609   -3.9568    3.6077 H   0  0  0  0  0  0  0  0  0  0  0  0
   -3.8225   -0.1562    3.2427 H   0  0  0  0  0  0  0  0  0  0  0  0
    0.3155    4.4192   -2.8323 H   0  0  0  0  0  0  0  0  0  0  0  0
   -0.7944    5.7051   -2.3949 H   0  0  0  0  0  0  0  0  0  0  0  0
    0.3539    5.1120   -1.1850 H   0  0  0  0  0  0  0  0  0  0  0  0
   -2.0948    4.5700    0.2392 H   0  0  0  0  0  0  0  0  0  0  0  0
   -3.2400    3.6385   -0.7694 H   0  0  0  0  0  0  0  0  0  0  0  0
   -2.7864    5.2681   -1.2334 H   0  0  0  0  0  0  0  0  0  0  0  0
    1.9828   -1.2247    0.3802 H   0  0  0  0  0  0  0  0  0  0  0  0
    3.6005   -2.9983    0.7696 H   0  0  0  0  0  0  0  0  0  0  0  0
  1  2  1  0
  2  3  2  0
  3  4  1  0
  4  5  2  0
  5  6  1  0
  6  7  1  0
  7  8  2  0
  8  9  1  0
  9 10  1  0
 10 11  1  0
 11 12  1  0
 12 13  2  0
 13 14  1  0
 14 15  2  0
 15 16  1  0
 16 17  2  0
  9 18  2  0
 18 19  1  0
 19 20  1  0
 20 21  1  0
 20 22  1  0
 19 23  2  0
  5 24  1  0
 24 25  2  0
 25  2  1  0
 23  7  1  0
 17 12  1  0
  1 26  1  0
  1 27  1  0
  1 28  1  0
  3 29  1  0
  4 30  1  0
  6 31  1  0
 10 32  1  0
 11 33  1  0
 11 34  1  0
 13 35  1  0
 14 36  1  0
 15 37  1  0
 17 38  1  0
 21 39  1  0
 21 40  1  0
 21 41  1  0
 22 42  1  0
 22 43  1  0
 22 44  1  0
 24 45  1  0
 25 46  1  0
M  END
>  <ScrubInfo>  (1) 
{"isomerGroup": 0, "isomerId": 0, "confId": 0, "nr_conformers:": 1, "nr_isomers:": 9}

$$$$
_i1
     RDKit          3D

 46 48  0  0  0  0  0  0  0  0999 V2000
   -0.4553    1.2434   -1.2880 N   0  0  0  0  0  0  0  0  0  0  0  0
   -1.0492    0.1077   -1.6954 C   0  0  0  0  0  0  0  0  0  0  0  0
   -2.0353    0.2896   -2.6232 N   0  0  0  0  0  0  0  0  0  0  0  0
   -2.9093   -0.7961   -3.0341 C   0  0  0  0  0  0  0  0  0  0  0  0
   -4.1801   -0.7833   -2.2324 C   0  0  0  0  0  0  0  0  0  0  0  0
   -4.2112   -1.2093   -0.9007 C   0  0  0  0  0  0  0  0  0  0  0  0
   -5.4057   -1.1676   -0.1881 C   0  0  0  0  0  0  0  0  0  0  0  0
   -6.5371   -0.6980   -0.8329 C   0  0  0  0  0  0  0  0  0  0  0  0
   -6.5488   -0.2768   -2.1159 N   0  0  0  0  0  0  0  0  0  0  0  0
   -5.3741   -0.3295   -2.7837 C   0  0  0  0  0  0  0  0  0  0  0  0
   -0.6744   -1.0403   -1.2316 N   0  0  0  0  0  0  0  0  0  0  0  0
    0.3321   -1.0529   -0.2844 C   0  0  0  0  0  0  0  0  0  0  0  0
    0.6911   -2.2819    0.2506 N   0  0  0  0  0  0  0  0  0  0  0  0
    0.2664   -3.5096   -0.4028 C   0  0  0  0  0  0  0  0  0  0  0  0
    1.8992   -2.3788    1.0598 C   0  0  0  0  0  0  0  0  0  0  0  0
    0.9432    0.0250    0.1217 N   0  0  0  0  0  0  0  0  0  0  0  0
    0.5770    1.2223   -0.4164 C   0  0  0  0  0  0  0  0  0  0  0  0
    1.1972    2.3285   -0.1221 N   0  0  0  0  0  0  0  0  0  0  0  0
    2.2699    2.2798    0.7808 C   0  0  0  0  0  0  0  0  0  0  0  0
    3.5791    2.1504    0.3129 C   0  0  0  0  0  0  0  0  0  0  0  0
    4.6545    2.1350    1.2056 C   0  0  0  0  0  0  0  0  0  0  0  0
    4.4326    2.2500    2.5830 C   0  0  0  0  0  0  0  0  0  0  0  0
    5.5869    2.2680    3.5401 C   0  0  0  0  0  0  0  0  0  0  0  0
    3.1222    2.4094    3.0490 C   0  0  0  0  0  0  0  0  0  0  0  0
    2.0502    2.4245    2.1522 C   0  0  0  0  0  0  0  0  0  0  0  0
   -0.6140    2.1195   -1.7521 H   0  0  0  0  0  0  0  0  0  0  0  0
   -2.5165    1.1791   -2.5696 H   0  0  0  0  0  0  0  0  0  0  0  0
   -2.4232   -1.7762   -2.9574 H   0  0  0  0  0  0  0  0  0  0  0  0
   -3.1404   -0.6631   -4.0976 H   0  0  0  0  0  0  0  0  0  0  0  0
   -3.3059   -1.5694   -0.4154 H   0  0  0  0  0  0  0  0  0  0  0  0
   -5.4504   -1.4914    0.8457 H   0  0  0  0  0  0  0  0  0  0  0  0
   -7.4926   -0.6454   -0.3190 H   0  0  0  0  0  0  0  0  0  0  0  0
   -5.4279    0.0196   -3.8117 H   0  0  0  0  0  0  0  0  0  0  0  0
    0.4901   -4.3873    0.2131 H   0  0  0  0  0  0  0  0  0  0  0  0
    0.7768   -3.6284   -1.3642 H   0  0  0  0  0  0  0  0  0  0  0  0
   -0.8157   -3.5143   -0.5729 H   0  0  0  0  0  0  0  0  0  0  0  0
    1.9642   -3.3503    1.5617 H   0  0  0  0  0  0  0  0  0  0  0  0
    2.7897   -2.2564    0.4344 H   0  0  0  0  0  0  0  0  0  0  0  0
    1.9113   -1.6175    1.8473 H   0  0  0  0  0  0  0  0  0  0  0  0
    3.7586    2.0598   -0.7541 H   0  0  0  0  0  0  0  0  0  0  0  0
    5.6645    2.0342    0.8162 H   0  0  0  0  0  0  0  0  0  0  0  0
    6.4148    1.6571    3.1650 H   0  0  0  0  0  0  0  0  0  0  0  0
    5.9400    3.2941    3.6815 H   0  0  0  0  0  0  0  0  0  0  0  0
    5.2948    1.8567    4.5121 H   0  0  0  0  0  0  0  0  0  0  0  0
    2.9246    2.5239    4.1119 H   0  0  0  0  0  0  0  0  0  0  0  0
    1.0362    2.5462    2.5210 H   0  0  0  0  0  0  0  0  0  0  0  0
  1  2  1  0
  2  3  1  0
  3  4  1  0
  4  5  1  0
  5  6  2  0
  6  7  1  0
  7  8  2  0
  8  9  1  0
  9 10  2  0
  2 11  2  0
 11 12  1  0
 12 13  1  0
 13 14  1  0
 13 15  1  0
 12 16  2  0
 16 17  1  0
 17 18  2  3
 18 19  1  0
 19 20  2  0
 20 21  1  0
 21 22  2  0
 22 23  1  0
 22 24  1  0
 24 25  2  0
 17  1  1  0
 25 19  1  0
 10  5  1  0
  1 26  1  0
  3 27  1  0
  4 28  1  0
  4 29  1  0
  6 30  1  0
  7 31  1  0
  8 32  1  0
 10 33  1  0
 14 34  1  0
 14 35  1  0
 14 36  1  0
 15 37  1  0
 15 38  1  0
 15 39  1  0
 20 40  1  0
 21 41  1  0
 23 42  1  0
 23 43  1  0
 23 44  1  0
 24 45  1  0
 25 46  1  0
M  END
>  <ScrubInfo>  (2) 
{"isomerGroup": 0, "isomerId": 1, "confId": 0, "nr_conformers:": 1, "nr_isomers:": 9}

$$$$
_i2
     RDKit          3D

 46 48  0  0  0  0  0  0  0  0999 V2000
   -0.0585    0.4220   -0.7531 N   0  0  0  0  0  0  0  0  0  0  0  0
   -1.0326    1.2987   -1.0716 C   0  0  0  0  0  0  0  0  0  0  0  0
   -2.2674    0.7866   -1.3528 N   0  0  0  0  0  0  0  0  0  0  0  0
   -2.9548   -0.2119   -0.6285 C   0  0  0  0  0  0  0  0  0  0  0  0
   -2.6066   -0.5993    0.6707 C   0  0  0  0  0  0  0  0  0  0  0  0
   -3.3152   -1.6076    1.3327 C   0  0  0  0  0  0  0  0  0  0  0  0
   -4.3960   -2.2412    0.7124 C   0  0  0  0  0  0  0  0  0  0  0  0
   -5.1346   -3.3449    1.4099 C   0  0  0  0  0  0  0  0  0  0  0  0
   -4.7449   -1.8640   -0.5873 C   0  0  0  0  0  0  0  0  0  0  0  0
   -4.0361   -0.8545   -1.2453 C   0  0  0  0  0  0  0  0  0  0  0  0
   -0.7863    2.5665   -1.1719 N   0  0  0  0  0  0  0  0  0  0  0  0
    0.5018    2.9850   -0.8973 C   0  0  0  0  0  0  0  0  0  0  0  0
    0.7594    4.3460   -0.9722 N   0  0  0  0  0  0  0  0  0  0  0  0
   -0.3396    5.2962   -1.0265 C   0  0  0  0  0  0  0  0  0  0  0  0
    2.0226    4.8632   -0.4635 C   0  0  0  0  0  0  0  0  0  0  0  0
    1.4644    2.1654   -0.5775 N   0  0  0  0  0  0  0  0  0  0  0  0
    1.2093    0.8288   -0.5141 C   0  0  0  0  0  0  0  0  0  0  0  0
    2.2329    0.1070   -0.2279 N   0  0  0  0  0  0  0  0  0  0  0  0
    2.0656   -1.3392   -0.1300 C   0  0  0  0  0  0  0  0  0  0  0  0
    3.3346   -2.0597    0.2451 C   0  0  0  0  0  0  0  0  0  0  0  0
    4.6050   -1.5142    0.0428 C   0  0  0  0  0  0  0  0  0  0  0  0
    5.7384   -2.2496    0.3782 C   0  0  0  0  0  0  0  0  0  0  0  0
    5.5652   -3.5209    0.8983 C   0  0  0  0  0  0  0  0  0  0  0  0
    4.3588   -4.0931    1.0973 N   0  0  0  0  0  0  0  0  0  0  0  0
    3.2774   -3.3507    0.7647 C   0  0  0  0  0  0  0  0  0  0  0  0
   -0.2669   -0.5579   -0.8201 H   0  0  0  0  0  0  0  0  0  0  0  0
   -2.9091    1.5066   -1.6741 H   0  0  0  0  0  0  0  0  0  0  0  0
   -1.7997   -0.1047    1.2063 H   0  0  0  0  0  0  0  0  0  0  0  0
   -3.0224   -1.8863    2.3432 H   0  0  0  0  0  0  0  0  0  0  0  0
   -5.1365   -3.1895    2.4939 H   0  0  0  0  0  0  0  0  0  0  0  0
   -4.6624   -4.3075    1.1910 H   0  0  0  0  0  0  0  0  0  0  0  0
   -6.1800   -3.3813    1.0857 H   0  0  0  0  0  0  0  0  0  0  0  0
   -5.5714   -2.3531   -1.0985 H   0  0  0  0  0  0  0  0  0  0  0  0
   -4.3264   -0.5843   -2.2584 H   0  0  0  0  0  0  0  0  0  0  0  0
   -1.0487    5.0373   -1.8199 H   0  0  0  0  0  0  0  0  0  0  0  0
   -0.8717    5.3209   -0.0697 H   0  0  0  0  0  0  0  0  0  0  0  0
    0.0174    6.3087   -1.2441 H   0  0  0  0  0  0  0  0  0  0  0  0
    2.1708    5.9088   -0.7542 H   0  0  0  0  0  0  0  0  0  0  0  0
    2.8724    4.3023   -0.8674 H   0  0  0  0  0  0  0  0  0  0  0  0
    2.0468    4.8056    0.6298 H   0  0  0  0  0  0  0  0  0  0  0  0
    1.7302   -1.7436   -1.0934 H   0  0  0  0  0  0  0  0  0  0  0  0
    1.3059   -1.5659    0.6292 H   0  0  0  0  0  0  0  0  0  0  0  0
    4.7138   -0.5137   -0.3706 H   0  0  0  0  0  0  0  0  0  0  0  0
    6.7308   -1.8381    0.2356 H   0  0  0  0  0  0  0  0  0  0  0  0
    6.4191   -4.1320    1.1753 H   0  0  0  0  0  0  0  0  0  0  0  0
    2.3254   -3.8468    0.9345 H   0  0  0  0  0  0  0  0  0  0  0  0
  1  2  1  0
  2  3  1  0
  3  4  1  0
  4  5  2  0
  5  6  1  0
  6  7  2  0
  7  8  1  0
  7  9  1  0
  9 10  2  0
  2 11  2  0
 11 12  1  0
 12 13  1  0
 13 14  1  0
 13 15  1  0
 12 16  2  0
 16 17  1  0
 17 18  2  3
 18 19  1  0
 19 20  1  0
 20 21  2  0
 21 22  1  0
 22 23  2  0
 23 24  1  0
 24 25  2  0
 17  1  1  0
 25 20  1  0
 10  4  1  0
  1 26  1  0
  3 27  1  0
  5 28  1  0
  6 29  1  0
  8 30  1  0
  8 31  1  0
  8 32  1  0
  9 33  1  0
 10 34  1  0
 14 35  1  0
 14 36  1  0
 14 37  1  0
 15 38  1  0
 15 39  1  0
 15 40  1  0
 19 41  1  0
 19 42  1  0
 21 43  1  0
 22 44  1  0
 23 45  1  0
 25 46  1  0
M  END
>  <ScrubInfo>  (3) 
{"isomerGroup": 0, "isomerId": 2, "confId": 0, "nr_conformers:": 1, "nr_isomers:": 9}

$$$$
_i3
     RDKit          3D

 46 48  0  0  0  0  0  0  0  0999 V2000
   -1.2546    1.6970   -0.4850 N   0  0  0  0  0  0  0  0  0  0  0  0
    0.0504    2.0277   -0.4188 C   0  0  0  0  0  0  0  0  0  0  0  0
    0.3772    3.3507   -0.6588 N   0  0  0  0  0  0  0  0  0  0  0  0
    1.7820    3.7400   -0.5132 C   0  0  0  0  0  0  0  0  0  0  0  0
   -0.3594    4.1505   -1.6349 C   0  0  0  0  0  0  0  0  0  0  0  0
    0.9289    1.1173   -0.1255 N   0  0  0  0  0  0  0  0  0  0  0  0
    0.4912   -0.1700    0.0879 C   0  0  0  0  0  0  0  0  0  0  0  0
    1.3607   -1.1904    0.3660 N   0  0  0  0  0  0  0  0  0  0  0  0
    2.7604   -1.2686    0.3384 C   0  0  0  0  0  0  0  0  0  0  0  0
    3.6022   -0.2499   -0.1140 C   0  0  0  0  0  0  0  0  0  0  0  0
    4.9965   -0.3875   -0.0831 C   0  0  0  0  0  0  0  0  0  0  0  0
    5.5875   -1.5470    0.4234 C   0  0  0  0  0  0  0  0  0  0  0  0
    7.0781   -1.7060    0.4262 C   0  0  0  0  0  0  0  0  0  0  0  0
    4.7607   -2.5758    0.8761 C   0  0  0  0  0  0  0  0  0  0  0  0
    3.3691   -2.4313    0.8411 C   0  0  0  0  0  0  0  0  0  0  0  0
   -0.7711   -0.5176    0.0638 N   0  0  0  0  0  0  0  0  0  0  0  0
   -1.6903    0.4547   -0.1924 C   0  0  0  0  0  0  0  0  0  0  0  0
   -2.9573    0.2098   -0.1468 N   0  0  0  0  0  0  0  0  0  0  0  0
   -3.3468   -1.1591    0.1862 C   0  0  0  0  0  0  0  0  0  0  0  0
   -4.8449   -1.2985    0.1867 C   0  0  0  0  0  0  0  0  0  0  0  0
   -5.5601   -1.4855   -0.9990 C   0  0  0  0  0  0  0  0  0  0  0  0
   -6.9465   -1.5987   -0.9583 C   0  0  0  0  0  0  0  0  0  0  0  0
   -7.5754   -1.5137    0.2729 C   0  0  0  0  0  0  0  0  0  0  0  0
   -6.9230   -1.3214    1.4391 N   0  0  0  0  0  0  0  0  0  0  0  0
   -5.5757   -1.2087    1.3666 C   0  0  0  0  0  0  0  0  0  0  0  0
   -1.9644    2.4068   -0.4860 H   0  0  0  0  0  0  0  0  0  0  0  0
    2.2038    3.3489    0.4192 H   0  0  0  0  0  0  0  0  0  0  0  0
    2.3736    3.3656   -1.3554 H   0  0  0  0  0  0  0  0  0  0  0  0
    1.8851    4.8297   -0.4729 H   0  0  0  0  0  0  0  0  0  0  0  0
    0.0218    5.1765   -1.6820 H   0  0  0  0  0  0  0  0  0  0  0  0
   -0.2721    3.7085   -2.6330 H   0  0  0  0  0  0  0  0  0  0  0  0
   -1.4188    4.2248   -1.3714 H   0  0  0  0  0  0  0  0  0  0  0  0
    0.8840   -2.0639    0.5346 H   0  0  0  0  0  0  0  0  0  0  0  0
    3.1979    0.6715   -0.5191 H   0  0  0  0  0  0  0  0  0  0  0  0
    5.6140    0.4252   -0.4587 H   0  0  0  0  0  0  0  0  0  0  0  0
    7.4088   -2.1520   -0.5168 H   0  0  0  0  0  0  0  0  0  0  0  0
    7.4012   -2.3468    1.2534 H   0  0  0  0  0  0  0  0  0  0  0  0
    7.5740   -0.7379    0.5532 H   0  0  0  0  0  0  0  0  0  0  0  0
    5.1898   -3.4963    1.2649 H   0  0  0  0  0  0  0  0  0  0  0  0
    2.7583   -3.2484    1.2184 H   0  0  0  0  0  0  0  0  0  0  0  0
   -2.9356   -1.8719   -0.5410 H   0  0  0  0  0  0  0  0  0  0  0  0
   -2.9628   -1.4435    1.1748 H   0  0  0  0  0  0  0  0  0  0  0  0
   -5.0382   -1.5360   -1.9509 H   0  0  0  0  0  0  0  0  0  0  0  0
   -7.5220   -1.7453   -1.8648 H   0  0  0  0  0  0  0  0  0  0  0  0
   -8.6550   -1.5966    0.3559 H   0  0  0  0  0  0  0  0  0  0  0  0
   -5.0831   -1.0371    2.3200 H   0  0  0  0  0  0  0  0  0  0  0  0
  1  2  1  0
  2  3  1  0
  3  4  1  0
  3  5  1  0
  2  6  2  0
  6  7  1  0
  7  8  1  0
  8  9  1  0
  9 10  2  0
 10 11  1  0
 11 12  2  0
 12 13  1  0
 12 14  1  0
 14 15  2  0
  7 16  2  0
 16 17  1  0
 17 18  2  3
 18 19  1  0
 19 20  1  0
 20 21  2  0
 21 22  1  0
 22 23  2  0
 23 24  1  0
 24 25  2  0
 17  1  1  0
 25 20  1  0
 15  9  1  0
  1 26  1  0
  4 27  1  0
  4 28  1  0
  4 29  1  0
  5 30  1  0
  5 31  1  0
  5 32  1  0
  8 33  1  0
 10 34  1  0
 11 35  1  0
 13 36  1  0
 13 37  1  0
 13 38  1  0
 14 39  1  0
 15 40  1  0
 19 41  1  0
 19 42  1  0
 21 43  1  0
 22 44  1  0
 23 45  1  0
 25 46  1  0
M  END
>  <ScrubInfo>  (4) 
{"isomerGroup": 0, "isomerId": 3, "confId": 0, "nr_conformers:": 1, "nr_isomers:": 9}

$$$$
_i4
     RDKit          3D

 46 48  0  0  0  0  0  0  0  0999 V2000
   -0.8480    2.9142    0.0395 N   0  0  0  0  0  0  0  0  0  0  0  0
    0.2850    3.0988    0.7492 C   0  0  0  0  0  0  0  0  0  0  0  0
    0.5684    4.3911    1.1568 N   0  0  0  0  0  0  0  0  0  0  0  0
    1.7634    4.5985    1.9777 C   0  0  0  0  0  0  0  0  0  0  0  0
    0.2007    5.5462    0.3416 C   0  0  0  0  0  0  0  0  0  0  0  0
    1.0469    2.0811    1.0240 N   0  0  0  0  0  0  0  0  0  0  0  0
    0.6551    0.8492    0.5612 C   0  0  0  0  0  0  0  0  0  0  0  0
    1.5128   -0.1700    0.8544 N   0  0  0  0  0  0  0  0  0  0  0  0
    1.4824   -1.4183    0.1328 C   0  0  0  0  0  0  0  0  0  0  0  0
    2.5347   -2.3419    0.6766 C   0  0  0  0  0  0  0  0  0  0  0  0
    3.7954   -2.4539    0.0827 C   0  0  0  0  0  0  0  0  0  0  0  0
    4.7430   -3.3123    0.6329 C   0  0  0  0  0  0  0  0  0  0  0  0
    4.3996   -4.0285    1.7674 C   0  0  0  0  0  0  0  0  0  0  0  0
    3.1979   -3.9396    2.3756 N   0  0  0  0  0  0  0  0  0  0  0  0
    2.2965   -3.0964    1.8212 C   0  0  0  0  0  0  0  0  0  0  0  0
   -0.4313    0.6255   -0.1138 N   0  0  0  0  0  0  0  0  0  0  0  0
   -1.2521    1.6867   -0.3570 C   0  0  0  0  0  0  0  0  0  0  0  0
   -2.4046    1.5426   -0.9451 N   0  0  0  0  0  0  0  0  0  0  0  0
   -2.8033    0.2572   -1.3415 C   0  0  0  0  0  0  0  0  0  0  0  0
   -3.4642   -0.5908   -0.4499 C   0  0  0  0  0  0  0  0  0  0  0  0
   -3.8861   -1.8597   -0.8565 C   0  0  0  0  0  0  0  0  0  0  0  0
   -3.6534   -2.2971   -2.1658 C   0  0  0  0  0  0  0  0  0  0  0  0
   -4.1353   -3.6448   -2.6135 C   0  0  0  0  0  0  0  0  0  0  0  0
   -3.0188   -1.4345   -3.0676 C   0  0  0  0  0  0  0  0  0  0  0  0
   -2.5980   -0.1668   -2.6558 C   0  0  0  0  0  0  0  0  0  0  0  0
   -1.5547    3.6251    0.0013 H   0  0  0  0  0  0  0  0  0  0  0  0
    1.8165    3.8634    2.7882 H   0  0  0  0  0  0  0  0  0  0  0  0
    2.6680    4.5192    1.3656 H   0  0  0  0  0  0  0  0  0  0  0  0
    1.7489    5.5867    2.4500 H   0  0  0  0  0  0  0  0  0  0  0  0
    0.4969    6.4864    0.8197 H   0  0  0  0  0  0  0  0  0  0  0  0
    0.6898    5.4934   -0.6366 H   0  0  0  0  0  0  0  0  0  0  0  0
   -0.8823    5.6004    0.1949 H   0  0  0  0  0  0  0  0  0  0  0  0
    2.4226    0.1606    1.1476 H   0  0  0  0  0  0  0  0  0  0  0  0
    1.6587   -1.2439   -0.9358 H   0  0  0  0  0  0  0  0  0  0  0  0
    0.4992   -1.8971    0.2202 H   0  0  0  0  0  0  0  0  0  0  0  0
    4.0423   -1.8783   -0.8059 H   0  0  0  0  0  0  0  0  0  0  0  0
    5.7259   -3.4203    0.1885 H   0  0  0  0  0  0  0  0  0  0  0  0
    5.1040   -4.7118    2.2330 H   0  0  0  0  0  0  0  0  0  0  0  0
    1.3444   -3.0388    2.3437 H   0  0  0  0  0  0  0  0  0  0  0  0
   -3.6456   -0.2598    0.5683 H   0  0  0  0  0  0  0  0  0  0  0  0
   -4.3973   -2.5013   -0.1431 H   0  0  0  0  0  0  0  0  0  0  0  0
   -4.1212   -4.3598   -1.7842 H   0  0  0  0  0  0  0  0  0  0  0  0
   -3.4902   -4.0485   -3.4008 H   0  0  0  0  0  0  0  0  0  0  0  0
   -5.1571   -3.5682   -2.9977 H   0  0  0  0  0  0  0  0  0  0  0  0
   -2.8487   -1.7410   -4.0967 H   0  0  0  0  0  0  0  0  0  0  0  0
   -2.1064    0.4970   -3.3606 H   0  0  0  0  0  0  0  0  0  0  0  0
  1  2  1  0
  2  3  1  0
  3  4  1  0
  3  5  1  0
  2  6  2  0
  6  7  1  0
  7  8  1  0
  8  9  1  0
  9 10  1  0
 10 11  2  0
 11 12  1  0
 12 13  2  0
 13 14  1  0
 14 15  2  0
  7 16  2  0
 16 17  1  0
 17 18  2  3
 18 19  1  0
 19 20  2  0
 20 21  1  0
 21 22  2  0
 22 23  1  0
 22 24  1  0
 24 25  2  0
 17  1  1  0
 25 19  1  0
 15 10  1  0
  1 26  1  0
  4 27  1  0
  4 28  1  0
  4 29  1  0
  5 30  1  0
  5 31  1  0
  5 32  1  0
  8 33  1  0
  9 34  1  0
  9 35  1  0
 11 36  1  0
 12 37  1  0
 13 38  1  0
 15 39  1  0
 20 40  1  0
 21 41  1  0
 23 42  1  0
 23 43  1  0
 23 44  1  0
 24 45  1  0
 25 46  1  0
M  END
>  <ScrubInfo>  (5) 
{"isomerGroup": 0, "isomerId": 4, "confId": 0, "nr_conformers:": 1, "nr_isomers:": 9}

$$$$
_i5
     RDKit          3D

 46 48  0  0  0  0  0  0  0  0999 V2000
    1.0503    1.8996    0.0903 N   0  0  0  0  0  0  0  0  0  0  0  0
    0.5728    0.6801   -0.2527 C   0  0  0  0  0  0  0  0  0  0  0  0
    1.4925   -0.2769   -0.5657 N   0  0  0  0  0  0  0  0  0  0  0  0
    2.6119   -0.5690    0.3157 C   0  0  0  0  0  0  0  0  0  0  0  0
    3.4696   -1.6592   -0.2631 C   0  0  0  0  0  0  0  0  0  0  0  0
    3.9235   -1.6254   -1.5864 C   0  0  0  0  0  0  0  0  0  0  0  0
    4.7426   -2.6439   -2.0652 C   0  0  0  0  0  0  0  0  0  0  0  0
    5.0943   -3.6639   -1.1982 C   0  0  0  0  0  0  0  0  0  0  0  0
    4.6896   -3.7260    0.0881 N   0  0  0  0  0  0  0  0  0  0  0  0
    3.8904   -2.7265    0.5248 C   0  0  0  0  0  0  0  0  0  0  0  0
   -0.6918    0.4216   -0.2988 N   0  0  0  0  0  0  0  0  0  0  0  0
   -1.5114    1.4857    0.0263 C   0  0  0  0  0  0  0  0  0  0  0  0
   -2.7968    1.3275    0.0982 N   0  0  0  0  0  0  0  0  0  0  0  0
   -3.3486    0.0653   -0.1558 C   0  0  0  0  0  0  0  0  0  0  0  0
   -3.6095   -0.8141    0.8972 C   0  0  0  0  0  0  0  0  0  0  0  0
   -4.1916   -2.0614    0.6544 C   0  0  0  0  0  0  0  0  0  0  0  0
   -4.5235   -2.4454   -0.6504 C   0  0  0  0  0  0  0  0  0  0  0  0
   -5.1807   -3.7682   -0.9095 C   0  0  0  0  0  0  0  0  0  0  0  0
   -4.2917   -1.5504   -1.7017 C   0  0  0  0  0  0  0  0  0  0  0  0
   -3.7097   -0.3042   -1.4533 C   0  0  0  0  0  0  0  0  0  0  0  0
   -1.0812    2.7678    0.2933 N   0  0  0  0  0  0  0  0  0  0  0  0
    0.2039    2.9396    0.3206 C   0  0  0  0  0  0  0  0  0  0  0  0
    0.8109    4.1627    0.5547 N   0  0  0  0  0  0  0  0  0  0  0  0
    1.9634    4.2510    1.4512 C   0  0  0  0  0  0  0  0  0  0  0  0
   -0.0701    5.3345    0.6328 C   0  0  0  0  0  0  0  0  0  0  0  0
    1.9417    2.1494   -0.3055 H   0  0  0  0  0  0  0  0  0  0  0  0
    0.9938   -1.1334   -0.8078 H   0  0  0  0  0  0  0  0  0  0  0  0
    3.2371    0.3198    0.4609 H   0  0  0  0  0  0  0  0  0  0  0  0
    2.2245   -0.8677    1.2971 H   0  0  0  0  0  0  0  0  0  0  0  0
    3.6355   -0.8116   -2.2484 H   0  0  0  0  0  0  0  0  0  0  0  0
    5.0977   -2.6417   -3.0897 H   0  0  0  0  0  0  0  0  0  0  0  0
    5.7306   -4.4818   -1.5240 H   0  0  0  0  0  0  0  0  0  0  0  0
    3.5905   -2.8179    1.5659 H   0  0  0  0  0  0  0  0  0  0  0  0
   -3.3591   -0.5191    1.9118 H   0  0  0  0  0  0  0  0  0  0  0  0
   -4.3870   -2.7265    1.4917 H   0  0  0  0  0  0  0  0  0  0  0  0
   -4.9218   -4.1445   -1.9048 H   0  0  0  0  0  0  0  0  0  0  0  0
   -6.2680   -3.6656   -0.8415 H   0  0  0  0  0  0  0  0  0  0  0  0
   -4.8494   -4.5177   -0.1832 H   0  0  0  0  0  0  0  0  0  0  0  0
   -4.5648   -1.8131   -2.7206 H   0  0  0  0  0  0  0  0  0  0  0  0
   -3.5353    0.3875   -2.2723 H   0  0  0  0  0  0  0  0  0  0  0  0
    2.7599    3.5615    1.1547 H   0  0  0  0  0  0  0  0  0  0  0  0
    1.6651    4.0195    2.4792 H   0  0  0  0  0  0  0  0  0  0  0  0
    2.3965    5.2571    1.4351 H   0  0  0  0  0  0  0  0  0  0  0  0
    0.5128    6.2612    0.5979 H   0  0  0  0  0  0  0  0  0  0  0  0
   -0.6487    5.3227    1.5628 H   0  0  0  0  0  0  0  0  0  0  0  0
   -0.7605    5.3609   -0.2174 H   0  0  0  0  0  0  0  0  0  0  0  0
  1  2  1  0
  2  3  1  0
  3  4  1  0
  4  5  1  0
  5  6  2  0
  6  7  1  0
  7  8  2  0
  8  9  1  0
  9 10  2  0
  2 11  2  0
 11 12  1  0
 12 13  2  3
 13 14  1  0
 14 15  2  0
 15 16  1  0
 16 17  2  0
 17 18  1  0
 17 19  1  0
 19 20  2  0
 12 21  1  0
 21 22  2  0
 22 23  1  0
 23 24  1  0
 23 25  1  0
 22  1  1  0
 10  5  1  0
 20 14  1  0
  1 26  1  0
  3 27  1  0
  4 28  1  0
  4 29  1  0
  6 30  1  0
  7 31  1  0
  8 32  1  0
 10 33  1  0
 15 34  1  0
 16 35  1  0
 18 36  1  0
 18 37  1  0
 18 38  1  0
 19 39  1  0
 20 40  1  0
 24 41  1  0
 24 42  1  0
 24 43  1  0
 25 44  1  0
 25 45  1  0
 25 46  1  0
M  END
>  <ScrubInfo>  (6) 
{"isomerGroup": 0, "isomerId": 5, "confId": 0, "nr_conformers:": 1, "nr_isomers:": 9}

$$$$
_i6
     RDKit          3D

 46 48  0  0  0  0  0  0  0  0999 V2000
    0.7133    1.3371   -0.0925 N   0  0  0  0  0  0  0  0  0  0  0  0
    0.3778    0.2774   -0.8700 C   0  0  0  0  0  0  0  0  0  0  0  0
    1.3163   -0.1578   -1.7651 N   0  0  0  0  0  0  0  0  0  0  0  0
    2.6725   -0.4251   -1.4652 C   0  0  0  0  0  0  0  0  0  0  0  0
    3.1344   -0.6744   -0.1674 C   0  0  0  0  0  0  0  0  0  0  0  0
    4.4848   -0.9498    0.0701 C   0  0  0  0  0  0  0  0  0  0  0  0
    5.4002   -0.9812   -0.9865 C   0  0  0  0  0  0  0  0  0  0  0  0
    6.8415   -1.3125   -0.7354 C   0  0  0  0  0  0  0  0  0  0  0  0
    4.9380   -0.7654   -2.2880 C   0  0  0  0  0  0  0  0  0  0  0  0
    3.5875   -0.4918   -2.5230 C   0  0  0  0  0  0  0  0  0  0  0  0
   -0.8036   -0.2546   -0.8150 N   0  0  0  0  0  0  0  0  0  0  0  0
   -1.6389    0.2991    0.1343 C   0  0  0  0  0  0  0  0  0  0  0  0
   -2.8394   -0.1439    0.2703 N   0  0  0  0  0  0  0  0  0  0  0  0
   -3.2494   -1.2325   -0.6151 C   0  0  0  0  0  0  0  0  0  0  0  0
   -4.6690   -1.6835   -0.3730 C   0  0  0  0  0  0  0  0  0  0  0  0
   -5.3289   -1.4934    0.8439 C   0  0  0  0  0  0  0  0  0  0  0  0
   -6.6261   -1.9694    1.0121 C   0  0  0  0  0  0  0  0  0  0  0  0
   -7.2224   -2.6360   -0.0449 C   0  0  0  0  0  0  0  0  0  0  0  0
   -6.6183   -2.8559   -1.2318 N   0  0  0  0  0  0  0  0  0  0  0  0
   -5.3589   -2.3769   -1.3643 C   0  0  0  0  0  0  0  0  0  0  0  0
   -1.3110    1.3185    0.9977 N   0  0  0  0  0  0  0  0  0  0  0  0
   -0.1292    1.8334    0.8466 C   0  0  0  0  0  0  0  0  0  0  0  0
    0.3615    2.8689    1.6240 N   0  0  0  0  0  0  0  0  0  0  0  0
    1.0949    3.9741    1.0059 C   0  0  0  0  0  0  0  0  0  0  0  0
   -0.4669    3.2937    2.7593 C   0  0  0  0  0  0  0  0  0  0  0  0
    1.6757    1.6280   -0.0865 H   0  0  0  0  0  0  0  0  0  0  0  0
    0.9424   -0.9032   -2.3484 H   0  0  0  0  0  0  0  0  0  0  0  0
    2.4495   -0.6889    0.6776 H   0  0  0  0  0  0  0  0  0  0  0  0
    4.8142   -1.1508    1.0877 H   0  0  0  0  0  0  0  0  0  0  0  0
    7.1565   -0.9608    0.2527 H   0  0  0  0  0  0  0  0  0  0  0  0
    6.9918   -2.3950   -0.7905 H   0  0  0  0  0  0  0  0  0  0  0  0
    7.4881   -0.8269   -1.4739 H   0  0  0  0  0  0  0  0  0  0  0  0
    5.6256   -0.8098   -3.1300 H   0  0  0  0  0  0  0  0  0  0  0  0
    3.2546   -0.3189   -3.5442 H   0  0  0  0  0  0  0  0  0  0  0  0
   -3.1729   -0.9032   -1.6597 H   0  0  0  0  0  0  0  0  0  0  0  0
   -2.6031   -2.1077   -0.4692 H   0  0  0  0  0  0  0  0  0  0  0  0
   -4.8349   -0.9693    1.6590 H   0  0  0  0  0  0  0  0  0  0  0  0
   -7.1556   -1.8228    1.9461 H   0  0  0  0  0  0  0  0  0  0  0  0
   -8.2329   -3.0246    0.0390 H   0  0  0  0  0  0  0  0  0  0  0  0
   -4.9015   -2.5765   -2.3299 H   0  0  0  0  0  0  0  0  0  0  0  0
    1.4691    4.6716    1.7633 H   0  0  0  0  0  0  0  0  0  0  0  0
    1.9685    3.6192    0.4511 H   0  0  0  0  0  0  0  0  0  0  0  0
    0.4439    4.5272    0.3207 H   0  0  0  0  0  0  0  0  0  0  0  0
    0.1010    3.9449    3.4325 H   0  0  0  0  0  0  0  0  0  0  0  0
   -1.3506    3.8391    2.4110 H   0  0  0  0  0  0  0  0  0  0  0  0
   -0.7902    2.4304    3.3514 H   0  0  0  0  0  0  0  0  0  0  0  0
  1  2  1  0
  2  3  1  0
  3  4  1  0
  4  5  2  0
  5  6  1  0
  6  7  2  0
  7  8  1  0
  7  9  1  0
  9 10  2  0
  2 11  2  0
 11 12  1  0
 12 13  2  3
 13 14  1  0
 14 15  1  0
 15 16  2  0
 16 17  1  0
 17 18  2  0
 18 19  1  0
 19 20  2  0
 12 21  1  0
 21 22  2  0
 22 23  1  0
 23 24  1  0
 23 25  1  0
 22  1  1  0
 10  4  1  0
 20 15  1  0
  1 26  1  0
  3 27  1  0
  5 28  1  0
  6 29  1  0
  8 30  1  0
  8 31  1  0
  8 32  1  0
  9 33  1  0
 10 34  1  0
 14 35  1  0
 14 36  1  0
 16 37  1  0
 17 38  1  0
 18 39  1  0
 20 40  1  0
 24 41  1  0
 24 42  1  0
 24 43  1  0
 25 44  1  0
 25 45  1  0
 25 46  1  0
M  END
>  <ScrubInfo>  (7) 
{"isomerGroup": 0, "isomerId": 6, "confId": 0, "nr_conformers:": 1, "nr_isomers:": 9}

$$$$
_i7
     RDKit          3D

 46 48  0  0  0  0  0  0  0  0999 V2000
   -0.9936    1.3980    0.3429 N   0  0  0  0  0  0  0  0  0  0  0  0
    0.3615    1.5771    0.2892 C   0  0  0  0  0  0  0  0  0  0  0  0
    0.7973    2.8807    0.4726 N   0  0  0  0  0  0  0  0  0  0  0  0
    2.2137    3.1493    0.1927 C   0  0  0  0  0  0  0  0  0  0  0  0
    0.2776    3.6751    1.5871 C   0  0  0  0  0  0  0  0  0  0  0  0
    1.1820    0.5907    0.0575 N   0  0  0  0  0  0  0  0  0  0  0  0
    0.6028   -0.6482   -0.1011 C   0  0  0  0  0  0  0  0  0  0  0  0
    1.3260   -1.7095   -0.3228 N   0  0  0  0  0  0  0  0  0  0  0  0
    2.7202   -1.5750   -0.3996 C   0  0  0  0  0  0  0  0  0  0  0  0
    3.3411   -1.3218   -1.6245 C   0  0  0  0  0  0  0  0  0  0  0  0
    4.7328   -1.2237   -1.7090 C   0  0  0  0  0  0  0  0  0  0  0  0
    5.5240   -1.3798   -0.5647 C   0  0  0  0  0  0  0  0  0  0  0  0
    7.0190   -1.3098   -0.6590 C   0  0  0  0  0  0  0  0  0  0  0  0
    4.9026   -1.6634    0.6573 C   0  0  0  0  0  0  0  0  0  0  0  0
    3.5105   -1.7604    0.7366 C   0  0  0  0  0  0  0  0  0  0  0  0
   -0.7554   -0.7899   -0.0305 N   0  0  0  0  0  0  0  0  0  0  0  0
   -1.6555    0.2162    0.1654 C   0  0  0  0  0  0  0  0  0  0  0  0
   -2.9424    0.1842    0.1911 N   0  0  0  0  0  0  0  0  0  0  0  0
   -3.5930   -1.1120   -0.0041 C   0  0  0  0  0  0  0  0  0  0  0  0
   -5.0935   -0.9964    0.0022 C   0  0  0  0  0  0  0  0  0  0  0  0
   -5.7586    0.0115   -0.7021 C   0  0  0  0  0  0  0  0  0  0  0  0
   -7.1497    0.0561   -0.7020 C   0  0  0  0  0  0  0  0  0  0  0  0
   -7.8362   -0.9215   -0.0021 C   0  0  0  0  0  0  0  0  0  0  0  0
   -7.2346   -1.9190    0.6799 N   0  0  0  0  0  0  0  0  0  0  0  0
   -5.8814   -1.9328    0.6647 C   0  0  0  0  0  0  0  0  0  0  0  0
   -1.5830    2.2133    0.3695 H   0  0  0  0  0  0  0  0  0  0  0  0
    2.5045    2.7357   -0.7794 H   0  0  0  0  0  0  0  0  0  0  0  0
    2.8521    2.7165    0.9704 H   0  0  0  0  0  0  0  0  0  0  0  0
    2.4021    4.2275    0.1482 H   0  0  0  0  0  0  0  0  0  0  0  0
    0.6537    4.7031    1.5450 H   0  0  0  0  0  0  0  0  0  0  0  0
    0.5826    3.2355    2.5427 H   0  0  0  0  0  0  0  0  0  0  0  0
   -0.8141    3.7411    1.5649 H   0  0  0  0  0  0  0  0  0  0  0  0
    2.7340   -1.1987   -2.5163 H   0  0  0  0  0  0  0  0  0  0  0  0
    5.1921   -1.0266   -2.6744 H   0  0  0  0  0  0  0  0  0  0  0  0
    7.4526   -0.9425    0.2771 H   0  0  0  0  0  0  0  0  0  0  0  0
    7.3284   -0.6209   -1.4520 H   0  0  0  0  0  0  0  0  0  0  0  0
    7.4274   -2.3022   -0.8729 H   0  0  0  0  0  0  0  0  0  0  0  0
    5.4959   -1.8131    1.5560 H   0  0  0  0  0  0  0  0  0  0  0  0
    3.0357   -1.9805    1.6879 H   0  0  0  0  0  0  0  0  0  0  0  0
   -1.0699   -1.7327   -0.1837 H   0  0  0  0  0  0  0  0  0  0  0  0
   -3.2801   -1.7963    0.7947 H   0  0  0  0  0  0  0  0  0  0  0  0
   -3.2973   -1.5510   -0.9654 H   0  0  0  0  0  0  0  0  0  0  0  0
   -5.1924    0.7643   -1.2451 H   0  0  0  0  0  0  0  0  0  0  0  0
   -7.6836    0.8339   -1.2355 H   0  0  0  0  0  0  0  0  0  0  0  0
   -8.9218   -0.9294    0.0282 H   0  0  0  0  0  0  0  0  0  0  0  0
   -5.4363   -2.7525    1.2224 H   0  0  0  0  0  0  0  0  0  0  0  0
  1  2  1  0
  2  3  1  0
  3  4  1  0
  3  5  1  0
  2  6  2  0
  6  7  1  0
  7  8  2  3
  8  9  1  0
  9 10  2  0
 10 11  1  0
 11 12  2  0
 12 13  1  0
 12 14  1  0
 14 15  2  0
  7 16  1  0
 16 17  1  0
 17 18  2  3
 18 19  1  0
 19 20  1  0
 20 21  2  0
 21 22  1  0
 22 23  2  0
 23 24  1  0
 24 25  2  0
 17  1  1  0
 25 20  1  0
 15  9  1  0
  1 26  1  0
  4 27  1  0
  4 28  1  0
  4 29  1  0
  5 30  1  0
  5 31  1  0
  5 32  1  0
 10 33  1  0
 11 34  1  0
 13 35  1  0
 13 36  1  0
 13 37  1  0
 14 38  1  0
 15 39  1  0
 16 40  1  0
 19 41  1  0
 19 42  1  0
 21 43  1  0
 22 44  1  0
 23 45  1  0
 25 46  1  0
M  END
>  <ScrubInfo>  (8) 
{"isomerGroup": 0, "isomerId": 7, "confId": 0, "nr_conformers:": 1, "nr_isomers:": 9}

$$$$
_i8
     RDKit          3D

 46 48  0  0  0  0  0  0  0  0999 V2000
    0.8979   -2.8472   -0.4502 N   0  0  0  0  0  0  0  0  0  0  0  0
   -0.4197   -3.1714   -0.6120 C   0  0  0  0  0  0  0  0  0  0  0  0
   -0.6728   -4.5188   -0.8205 N   0  0  0  0  0  0  0  0  0  0  0  0
    0.0845   -5.2518   -1.8368 C   0  0  0  0  0  0  0  0  0  0  0  0
   -2.0740   -4.9489   -0.7354 C   0  0  0  0  0  0  0  0  0  0  0  0
   -1.3667   -2.2779   -0.5485 N   0  0  0  0  0  0  0  0  0  0  0  0
   -0.9709   -0.9760   -0.3358 C   0  0  0  0  0  0  0  0  0  0  0  0
   -1.9522   -0.1451   -0.3060 N   0  0  0  0  0  0  0  0  0  0  0  0
   -1.6774    1.2716   -0.0922 C   0  0  0  0  0  0  0  0  0  0  0  0
   -2.9156    2.1304   -0.1072 C   0  0  0  0  0  0  0  0  0  0  0  0
   -4.1357    1.7013   -0.6356 C   0  0  0  0  0  0  0  0  0  0  0  0
   -5.2304    2.5613   -0.6436 C   0  0  0  0  0  0  0  0  0  0  0  0
   -5.0671    3.8360   -0.1285 C   0  0  0  0  0  0  0  0  0  0  0  0
   -3.9050    4.2972    0.3804 N   0  0  0  0  0  0  0  0  0  0  0  0
   -2.8616    3.4354    0.3771 C   0  0  0  0  0  0  0  0  0  0  0  0
    0.3611   -0.6898   -0.1816 N   0  0  0  0  0  0  0  0  0  0  0  0
    1.3841   -1.5982   -0.1969 C   0  0  0  0  0  0  0  0  0  0  0  0
    2.6519   -1.3990   -0.0003 N   0  0  0  0  0  0  0  0  0  0  0  0
    3.0830   -0.0922    0.2631 C   0  0  0  0  0  0  0  0  0  0  0  0
    3.4536    0.7530   -0.7842 C   0  0  0  0  0  0  0  0  0  0  0  0
    3.8570    2.0652   -0.5255 C   0  0  0  0  0  0  0  0  0  0  0  0
    3.9147    2.5414    0.7898 C   0  0  0  0  0  0  0  0  0  0  0  0
    4.3204    3.9590    1.0678 C   0  0  0  0  0  0  0  0  0  0  0  0
    3.5465    1.6905    1.8388 C   0  0  0  0  0  0  0  0  0  0  0  0
    3.1437    0.3790    1.5758 C   0  0  0  0  0  0  0  0  0  0  0  0
    1.5632   -3.5950   -0.3429 H   0  0  0  0  0  0  0  0  0  0  0  0
   -0.1521   -4.8711   -2.8361 H   0  0  0  0  0  0  0  0  0  0  0  0
    1.1638   -5.1693   -1.6785 H   0  0  0  0  0  0  0  0  0  0  0  0
   -0.1558   -6.3203   -1.8086 H   0  0  0  0  0  0  0  0  0  0  0  0
   -2.6405   -4.6029   -1.6067 H   0  0  0  0  0  0  0  0  0  0  0  0
   -2.5457   -4.5619    0.1745 H   0  0  0  0  0  0  0  0  0  0  0  0
   -2.1412   -6.0412   -0.6886 H   0  0  0  0  0  0  0  0  0  0  0  0
   -1.0092    1.6463   -0.8778 H   0  0  0  0  0  0  0  0  0  0  0  0
   -1.1861    1.4016    0.8806 H   0  0  0  0  0  0  0  0  0  0  0  0
   -4.2379    0.6951   -1.0369 H   0  0  0  0  0  0  0  0  0  0  0  0
   -6.1859    2.2417   -1.0428 H   0  0  0  0  0  0  0  0  0  0  0  0
   -5.8922    4.5418   -0.1127 H   0  0  0  0  0  0  0  0  0  0  0  0
   -1.9433    3.8434    0.7913 H   0  0  0  0  0  0  0  0  0  0  0  0
    0.6161    0.2648    0.0013 H   0  0  0  0  0  0  0  0  0  0  0  0
    3.4265    0.3868   -1.8071 H   0  0  0  0  0  0  0  0  0  0  0  0
    4.1345    2.7096   -1.3569 H   0  0  0  0  0  0  0  0  0  0  0  0
    4.8080    4.0413    2.0448 H   0  0  0  0  0  0  0  0  0  0  0  0
    5.0344    4.3152    0.3178 H   0  0  0  0  0  0  0  0  0  0  0  0
    3.4400    4.6088    1.0555 H   0  0  0  0  0  0  0  0  0  0  0  0
    3.5797    2.0398    2.8686 H   0  0  0  0  0  0  0  0  0  0  0  0
    2.8743   -0.2795    2.3975 H   0  0  0  0  0  0  0  0  0  0  0  0
  1  2  1  0
  2  3  1  0
  3  4  1  0
  3  5  1  0
  2  6  2  0
  6  7  1  0
  7  8  2  3
  8  9  1  0
  9 10  1  0
 10 11  2  0
 11 12  1  0
 12 13  2  0
 13 14  1  0
 14 15  2  0
  7 16  1  0
 16 17  1  0
 17 18  2  3
 18 19  1  0
 19 20  2  0
 20 21  1  0
 21 22  2  0
 22 23  1  0
 22 24  1  0
 24 25  2  0
 17  1  1  0
 25 19  1  0
 15 10  1  0
  1 26  1  0
  4 27  1  0
  4 28  1  0
  4 29  1  0
  5 30  1  0
  5 31  1  0
  5 32  1  0
  9 33  1  0
  9 34  1  0
 11 35  1  0
 12 36  1  0
 13 37  1  0
 15 38  1  0
 16 39  1  0
 20 40  1  0
 21 41  1  0
 23 42  1  0
 23 43  1  0
 23 44  1  0
 24 45  1  0
 25 46  1  0
M  END
>  <ScrubInfo>  (9) 
{"isomerGroup": 0, "isomerId": 8, "confId": 0, "nr_conformers:": 1, "nr_isomers:": 9}

$$$$
