REMARK SMILES COc1ccc(Nc2nc(NCc3cccnc3)nc3[nH]ncc23)cc1
REMARK SMILES IDX 8 1 9 2 10 3 19 4 20 5 21 6 22 7 23 8 24 9 7 11 6 13 3 14
REMARK SMILES IDX 4 15 26 16 5 17 25 18 2 19 1 20 11 21 12 23 13 24 14 25
REMARK SMILES IDX 18 26 15 27 17 28 16 29
REMARK H PARENT 21 10 7 12 11 22
ROOT
ATOM      1  C   UNL     1      -0.926  -2.096  -0.177  1.00  0.00     0.147 A 
ATOM      2  N   UNL     1       0.003  -1.104  -0.250  1.00  0.00    -0.195 NA
ATOM      3  C   UNL     1       1.283  -1.371  -0.567  1.00  0.00     0.226 A 
ATOM      4  N   UNL     1       1.788  -2.586  -0.824  1.00  0.00    -0.193 NA
ATOM      5  C   UNL     1       0.861  -3.548  -0.747  1.00  0.00     0.162 A 
ATOM      6  N   UNL     1       1.054  -4.881  -0.963  1.00  0.00    -0.261 N 
ATOM      7  N   UNL     1      -0.064  -5.622  -0.805  1.00  0.00    -0.181 NA
ATOM      8  C   UNL     1      -0.990  -4.708  -0.489  1.00  0.00     0.149 A 
ATOM      9  C   UNL     1      -0.474  -3.396  -0.437  1.00  0.00     0.082 A 
ATOM     10  H   UNL     1       1.921  -5.339  -1.217  1.00  0.00     0.192 HD
ENDROOT
BRANCH   1  11
ATOM     11  N   UNL     1      -2.261  -1.841   0.168  1.00  0.00    -0.339 N 
ATOM     12  H   UNL     1      -2.830  -2.674   0.239  1.00  0.00     0.168 HD
BRANCH  11  13
ATOM     13  C   UNL     1      -2.976  -0.648   0.371  1.00  0.00     0.040 A 
ATOM     14  C   UNL     1      -4.501   1.688   0.886  1.00  0.00     0.119 A 
ATOM     15  C   UNL     1      -3.214   1.784   0.365  1.00  0.00     0.048 A 
ATOM     16  C   UNL     1      -5.025   0.425   1.155  1.00  0.00     0.048 A 
ATOM     17  C   UNL     1      -2.462   0.625   0.116  1.00  0.00     0.030 A 
ATOM     18  C   UNL     1      -4.272  -0.727   0.904  1.00  0.00     0.030 A 
BRANCH  14  19
ATOM     19  O   UNL     1      -5.337   2.731   1.175  1.00  0.00    -0.497 OA
ATOM     20  C   UNL     1      -4.839   4.039   0.922  1.00  0.00     0.278 C 
ENDBRANCH  14  19
ENDBRANCH  11  13
ENDBRANCH   1  11
BRANCH   3  21
ATOM     21  N   UNL     1       2.110  -0.256  -0.614  1.00  0.00    -0.350 N 
ATOM     22  H   UNL     1       1.607   0.478  -0.125  1.00  0.00     0.164 HD
BRANCH  21  23
ATOM     23  C   UNL     1       3.453  -0.496  -0.127  1.00  0.00     0.153 C 
BRANCH  23  24
ATOM     24  C   UNL     1       4.215   0.802  -0.080  1.00  0.00    -0.010 A 
ATOM     25  C   UNL     1       4.381   1.598  -1.219  1.00  0.00     0.009 A 
ATOM     26  C   UNL     1       4.810   1.244   1.097  1.00  0.00     0.116 A 
ATOM     27  C   UNL     1       5.109   2.781  -1.137  1.00  0.00     0.020 A 
ATOM     28  N   UNL     1       5.523   2.388   1.206  1.00  0.00    -0.264 NA
ATOM     29  C   UNL     1       5.655   3.131   0.086  1.00  0.00     0.111 A 
ENDBRANCH  23  24
ENDBRANCH  21  23
ENDBRANCH   3  21
TORSDOF 6
