_i0
     RDKit          3D

 43 46  0  0  0  0  0  0  0  0999 V2000
   -4.8388    4.0386    0.9225 C   0  0  0  0  0  0  0  0  0  0  0  0
   -5.3365    2.7305    1.1747 O   0  0  0  0  0  0  0  0  0  0  0  0
   -4.5013    1.6879    0.8862 C   0  0  0  0  0  0  0  0  0  0  0  0
   -3.2144    1.7839    0.3648 C   0  0  0  0  0  0  0  0  0  0  0  0
   -2.4621    0.6255    0.1156 C   0  0  0  0  0  0  0  0  0  0  0  0
   -2.9760   -0.6485    0.3713 C   0  0  0  0  0  0  0  0  0  0  0  0
   -2.2612   -1.8414    0.1683 N   0  0  0  0  0  0  0  0  0  0  0  0
   -0.9256   -2.0957   -0.1766 C   0  0  0  0  0  0  0  0  0  0  0  0
    0.0033   -1.1040   -0.2502 N   0  0  0  0  0  0  0  0  0  0  0  0
    1.2831   -1.3712   -0.5672 C   0  0  0  0  0  0  0  0  0  0  0  0
    2.1097   -0.2555   -0.6139 N   0  0  0  0  0  0  0  0  0  0  0  0
    3.4534   -0.4961   -0.1269 C   0  0  0  0  0  0  0  0  0  0  0  0
    4.2154    0.8016   -0.0799 C   0  0  0  0  0  0  0  0  0  0  0  0
    4.3815    1.5976   -1.2186 C   0  0  0  0  0  0  0  0  0  0  0  0
    5.1087    2.7811   -1.1369 C   0  0  0  0  0  0  0  0  0  0  0  0
    5.6547    3.1306    0.0863 C   0  0  0  0  0  0  0  0  0  0  0  0
    5.5234    2.3882    1.2065 N   0  0  0  0  0  0  0  0  0  0  0  0
    4.8102    1.2438    1.0974 C   0  0  0  0  0  0  0  0  0  0  0  0
    1.7876   -2.5861   -0.8237 N   0  0  0  0  0  0  0  0  0  0  0  0
    0.8610   -3.5478   -0.7471 C   0  0  0  0  0  0  0  0  0  0  0  0
    1.0543   -4.8809   -0.9626 N   0  0  0  0  0  0  0  0  0  0  0  0
   -0.0635   -5.6215   -0.8049 N   0  0  0  0  0  0  0  0  0  0  0  0
   -0.9902   -4.7085   -0.4895 C   0  0  0  0  0  0  0  0  0  0  0  0
   -0.4741   -3.3958   -0.4374 C   0  0  0  0  0  0  0  0  0  0  0  0
   -4.2717   -0.7270    0.9040 C   0  0  0  0  0  0  0  0  0  0  0  0
   -5.0251    0.4252    1.1549 C   0  0  0  0  0  0  0  0  0  0  0  0
   -5.6180    4.7529    1.2055 H   0  0  0  0  0  0  0  0  0  0  0  0
   -3.9554    4.2499    1.5342 H   0  0  0  0  0  0  0  0  0  0  0  0
   -4.6269    4.1819   -0.1423 H   0  0  0  0  0  0  0  0  0  0  0  0
   -2.7573    2.7408    0.1368 H   0  0  0  0  0  0  0  0  0  0  0  0
   -1.4675    0.7509   -0.3003 H   0  0  0  0  0  0  0  0  0  0  0  0
   -2.8297   -2.6736    0.2389 H   0  0  0  0  0  0  0  0  0  0  0  0
    1.6071    0.4784   -0.1249 H   0  0  0  0  0  0  0  0  0  0  0  0
    3.4225   -0.9444    0.8749 H   0  0  0  0  0  0  0  0  0  0  0  0
    3.9984   -1.1847   -0.7854 H   0  0  0  0  0  0  0  0  0  0  0  0
    3.9394    1.2963   -2.1660 H   0  0  0  0  0  0  0  0  0  0  0  0
    5.2454    3.4143   -2.0062 H   0  0  0  0  0  0  0  0  0  0  0  0
    6.2304    4.0445    0.2015 H   0  0  0  0  0  0  0  0  0  0  0  0
    4.7309    0.6764    2.0213 H   0  0  0  0  0  0  0  0  0  0  0  0
    1.9208   -5.3394   -1.2169 H   0  0  0  0  0  0  0  0  0  0  0  0
   -2.0042   -5.0421   -0.3114 H   0  0  0  0  0  0  0  0  0  0  0  0
   -4.7149   -1.6914    1.1381 H   0  0  0  0  0  0  0  0  0  0  0  0
   -6.0271    0.3345    1.5667 H   0  0  0  0  0  0  0  0  0  0  0  0
  1  2  1  0
  2  3  1  0
  3  4  2  0
  4  5  1  0
  5  6  2  0
  6  7  1  0
  7  8  1  0
  8  9  2  0
  9 10  1  0
 10 11  1  0
 11 12  1  0
 12 13  1  0
 13 14  2  0
 14 15  1  0
 15 16  2  0
 16 17  1  0
 17 18  2  0
 10 19  2  0
 19 20  1  0
 20 21  1  0
 21 22  1  0
 22 23  2  0
 23 24  1  0
  6 25  1  0
 25 26  2  0
 26  3  1  0
 24  8  1  0
 18 13  1  0
 24 20  2  0
  1 27  1  0
  1 28  1  0
  1 29  1  0
  4 30  1  0
  5 31  1  0
  7 32  1  0
 11 33  1  0
 12 34  1  0
 12 35  1  0
 14 36  1  0
 15 37  1  0
 16 38  1  0
 18 39  1  0
 21 40  1  0
 23 41  1  0
 25 42  1  0
 26 43  1  0
M  END
>  <ScrubInfo>  (1) 
{"isomerGroup": 0, "isomerId": 0, "confId": 0, "nr_conformers:": 1, "nr_isomers:": 16}

$$$$
_i1
     RDKit          3D

 43 46  0  0  0  0  0  0  0  0999 V2000
    0.7379   -1.2605   -0.1018 N   0  0  0  0  0  0  0  0  0  0  0  0
    1.7980   -0.7909   -0.8432 C   0  0  0  0  0  0  0  0  0  0  0  0
    2.8936   -1.6095   -0.7842 N   0  0  0  0  0  0  0  0  0  0  0  0
    4.1677   -1.2209   -1.3643 C   0  0  0  0  0  0  0  0  0  0  0  0
    5.0327   -0.5551   -0.3328 C   0  0  0  0  0  0  0  0  0  0  0  0
    5.9575   -1.2762    0.4295 C   0  0  0  0  0  0  0  0  0  0  0  0
    6.7281   -0.6181    1.3840 C   0  0  0  0  0  0  0  0  0  0  0  0
    6.5448    0.7443    1.5498 C   0  0  0  0  0  0  0  0  0  0  0  0
    5.6573    1.4721    0.8403 N   0  0  0  0  0  0  0  0  0  0  0  0
    4.9191    0.8083   -0.0789 C   0  0  0  0  0  0  0  0  0  0  0  0
    1.7565    0.3132   -1.5454 N   0  0  0  0  0  0  0  0  0  0  0  0
    0.5535    0.9348   -1.4266 C   0  0  0  0  0  0  0  0  0  0  0  0
    0.2341    2.1153   -2.0258 N   0  0  0  0  0  0  0  0  0  0  0  0
   -1.0205    2.5294   -1.7560 N   0  0  0  0  0  0  0  0  0  0  0  0
   -1.4988    1.5702   -0.9508 C   0  0  0  0  0  0  0  0  0  0  0  0
   -0.5651    0.5455   -0.7109 C   0  0  0  0  0  0  0  0  0  0  0  0
   -0.5113   -0.6965    0.0331 C   0  0  0  0  0  0  0  0  0  0  0  0
   -1.4429   -1.2698    0.7322 N   0  0  0  0  0  0  0  0  0  0  0  0
   -2.7140   -0.7104    0.8676 C   0  0  0  0  0  0  0  0  0  0  0  0
   -3.7288   -1.0348   -0.0357 C   0  0  0  0  0  0  0  0  0  0  0  0
   -5.0138   -0.4997    0.1122 C   0  0  0  0  0  0  0  0  0  0  0  0
   -5.2970    0.3537    1.1790 C   0  0  0  0  0  0  0  0  0  0  0  0
   -6.5024    0.9441    1.4393 O   0  0  0  0  0  0  0  0  0  0  0  0
   -7.5521    0.6985    0.5120 C   0  0  0  0  0  0  0  0  0  0  0  0
   -4.2884    0.6564    2.0974 C   0  0  0  0  0  0  0  0  0  0  0  0
   -3.0062    0.1220    1.9482 C   0  0  0  0  0  0  0  0  0  0  0  0
    0.8152   -2.1732    0.3147 H   0  0  0  0  0  0  0  0  0  0  0  0
    3.0054   -2.1161    0.0851 H   0  0  0  0  0  0  0  0  0  0  0  0
    4.6701   -2.1251   -1.7286 H   0  0  0  0  0  0  0  0  0  0  0  0
    4.0482   -0.5785   -2.2451 H   0  0  0  0  0  0  0  0  0  0  0  0
    6.0865   -2.3455    0.2824 H   0  0  0  0  0  0  0  0  0  0  0  0
    7.4556   -1.1532    1.9840 H   0  0  0  0  0  0  0  0  0  0  0  0
    7.1227    1.3034    2.2802 H   0  0  0  0  0  0  0  0  0  0  0  0
    4.2060    1.4255   -0.6214 H   0  0  0  0  0  0  0  0  0  0  0  0
    0.8239    2.6803   -2.6243 H   0  0  0  0  0  0  0  0  0  0  0  0
   -2.5104    1.6769   -0.5839 H   0  0  0  0  0  0  0  0  0  0  0  0
   -3.5172   -1.7080   -0.8622 H   0  0  0  0  0  0  0  0  0  0  0  0
   -5.7668   -0.7743   -0.6186 H   0  0  0  0  0  0  0  0  0  0  0  0
   -7.8173   -0.3636    0.4893 H   0  0  0  0  0  0  0  0  0  0  0  0
   -8.4325    1.2541    0.8490 H   0  0  0  0  0  0  0  0  0  0  0  0
   -7.2907    1.0629   -0.4871 H   0  0  0  0  0  0  0  0  0  0  0  0
   -4.5035    1.3115    2.9380 H   0  0  0  0  0  0  0  0  0  0  0  0
   -2.2345    0.3575    2.6755 H   0  0  0  0  0  0  0  0  0  0  0  0
  1  2  1  0
  2  3  1  0
  3  4  1  0
  4  5  1  0
  5  6  2  0
  6  7  1  0
  7  8  2  0
  8  9  1  0
  9 10  2  0
  2 11  2  0
 11 12  1  0
 12 13  1  0
 13 14  1  0
 14 15  2  0
 15 16  1  0
 16 17  1  0
 17 18  2  3
 18 19  1  0
 19 20  2  0
 20 21  1  0
 21 22  2  0
 22 23  1  0
 23 24  1  0
 22 25  1  0
 25 26  2  0
 17  1  1  0
 26 19  1  0
 10  5  1  0
 16 12  2  0
  1 27  1  0
  3 28  1  0
  4 29  1  0
  4 30  1  0
  6 31  1  0
  7 32  1  0
  8 33  1  0
 10 34  1  0
 13 35  1  0
 15 36  1  0
 20 37  1  0
 21 38  1  0
 24 39  1  0
 24 40  1  0
 24 41  1  0
 25 42  1  0
 26 43  1  0
M  END
>  <ScrubInfo>  (2) 
{"isomerGroup": 0, "isomerId": 1, "confId": 0, "nr_conformers:": 1, "nr_isomers:": 16}

$$$$
_i2
     RDKit          3D

 43 46  0  0  0  0  0  0  0  0999 V2000
   -0.7749    0.5027   -0.6711 N   0  0  0  0  0  0  0  0  0  0  0  0
    0.2988   -0.1938   -0.1537 C   0  0  0  0  0  0  0  0  0  0  0  0
    1.3722   -0.5412   -0.9512 N   0  0  0  0  0  0  0  0  0  0  0  0
    2.7392   -0.2945   -0.6923 C   0  0  0  0  0  0  0  0  0  0  0  0
    3.1985    0.5228    0.3446 C   0  0  0  0  0  0  0  0  0  0  0  0
    4.5697    0.6929    0.5660 C   0  0  0  0  0  0  0  0  0  0  0  0
    5.5098    0.0460   -0.2364 C   0  0  0  0  0  0  0  0  0  0  0  0
    6.8125    0.2985    0.0900 O   0  0  0  0  0  0  0  0  0  0  0  0
    7.8094   -0.3472   -0.6920 C   0  0  0  0  0  0  0  0  0  0  0  0
    5.0650   -0.7756   -1.2688 C   0  0  0  0  0  0  0  0  0  0  0  0
    3.6919   -0.9436   -1.4906 C   0  0  0  0  0  0  0  0  0  0  0  0
    0.1730   -0.5562    1.1293 C   0  0  0  0  0  0  0  0  0  0  0  0
    0.9180   -1.3280    2.1327 C   0  0  0  0  0  0  0  0  0  0  0  0
    0.3030   -1.3852    3.2895 N   0  0  0  0  0  0  0  0  0  0  0  0
   -0.8692   -0.6510    3.1203 N   0  0  0  0  0  0  0  0  0  0  0  0
   -1.0470   -0.1447    1.8535 C   0  0  0  0  0  0  0  0  0  0  0  0
   -2.0318    0.5272    1.3659 N   0  0  0  0  0  0  0  0  0  0  0  0
   -1.8906    0.8711    0.0387 C   0  0  0  0  0  0  0  0  0  0  0  0
   -2.8047    1.5495   -0.5708 N   0  0  0  0  0  0  0  0  0  0  0  0
   -3.9981    1.9341    0.1829 C   0  0  0  0  0  0  0  0  0  0  0  0
   -5.1029    0.9215    0.0643 C   0  0  0  0  0  0  0  0  0  0  0  0
   -5.8226    0.7624   -1.1226 C   0  0  0  0  0  0  0  0  0  0  0  0
   -6.8335   -0.1912   -1.1942 C   0  0  0  0  0  0  0  0  0  0  0  0
   -7.0885   -0.9617   -0.0717 C   0  0  0  0  0  0  0  0  0  0  0  0
   -6.4100   -0.8467    1.0898 N   0  0  0  0  0  0  0  0  0  0  0  0
   -5.4293    0.0860    1.1269 C   0  0  0  0  0  0  0  0  0  0  0  0
   -0.7340    0.8296   -1.6234 H   0  0  0  0  0  0  0  0  0  0  0  0
    1.1738   -0.4726   -1.9454 H   0  0  0  0  0  0  0  0  0  0  0  0
    2.5086    1.0659    0.9841 H   0  0  0  0  0  0  0  0  0  0  0  0
    4.9067    1.3403    1.3726 H   0  0  0  0  0  0  0  0  0  0  0  0
    7.7369   -1.4362   -0.6032 H   0  0  0  0  0  0  0  0  0  0  0  0
    8.7868   -0.0458   -0.3030 H   0  0  0  0  0  0  0  0  0  0  0  0
    7.7557   -0.0310   -1.7390 H   0  0  0  0  0  0  0  0  0  0  0  0
    5.7550   -1.3052   -1.9170 H   0  0  0  0  0  0  0  0  0  0  0  0
    3.3707   -1.6054   -2.2921 H   0  0  0  0  0  0  0  0  0  0  0  0
    1.8789   -1.8006    1.8923 H   0  0  0  0  0  0  0  0  0  0  0  0
   -1.5938   -0.6148    3.8296 H   0  0  0  0  0  0  0  0  0  0  0  0
   -4.3616    2.8834   -0.2316 H   0  0  0  0  0  0  0  0  0  0  0  0
   -3.7867    2.1683    1.2342 H   0  0  0  0  0  0  0  0  0  0  0  0
   -5.5904    1.3767   -1.9886 H   0  0  0  0  0  0  0  0  0  0  0  0
   -7.4058   -0.3316   -2.1037 H   0  0  0  0  0  0  0  0  0  0  0  0
   -7.8677   -1.7181   -0.0784 H   0  0  0  0  0  0  0  0  0  0  0  0
   -4.8911    0.1428    2.0695 H   0  0  0  0  0  0  0  0  0  0  0  0
  1  2  1  0
  2  3  1  0
  3  4  1  0
  4  5  2  0
  5  6  1  0
  6  7  2  0
  7  8  1  0
  8  9  1  0
  7 10  1  0
 10 11  2  0
  2 12  2  0
 12 13  1  0
 13 14  2  0
 14 15  1  0
 15 16  1  0
 16 17  2  0
 17 18  1  0
 18 19  2  3
 19 20  1  0
 20 21  1  0
 21 22  2  0
 22 23  1  0
 23 24  2  0
 24 25  1  0
 25 26  2  0
 18  1  1  0
 26 21  1  0
 11  4  1  0
 16 12  1  0
  1 27  1  0
  3 28  1  0
  5 29  1  0
  6 30  1  0
  9 31  1  0
  9 32  1  0
  9 33  1  0
 10 34  1  0
 11 35  1  0
 13 36  1  0
 15 37  1  0
 20 38  1  0
 20 39  1  0
 22 40  1  0
 23 41  1  0
 24 42  1  0
 26 43  1  0
M  END
>  <ScrubInfo>  (3) 
{"isomerGroup": 0, "isomerId": 2, "confId": 0, "nr_conformers:": 1, "nr_isomers:": 16}

$$$$
_i3
     RDKit          3D

 43 46  0  0  0  0  0  0  0  0999 V2000
   -1.4295   -2.0066    0.6633 N   0  0  0  0  0  0  0  0  0  0  0  0
   -1.6859   -0.6421    0.6655 C   0  0  0  0  0  0  0  0  0  0  0  0
   -2.8316   -0.0779    0.5227 N   0  0  0  0  0  0  0  0  0  0  0  0
   -4.0193   -0.9008    0.3323 C   0  0  0  0  0  0  0  0  0  0  0  0
   -5.2751   -0.0913    0.1375 C   0  0  0  0  0  0  0  0  0  0  0  0
   -5.2632    1.2206   -0.3436 C   0  0  0  0  0  0  0  0  0  0  0  0
   -6.4624    1.8999   -0.5396 C   0  0  0  0  0  0  0  0  0  0  0  0
   -7.6450    1.2372   -0.2585 C   0  0  0  0  0  0  0  0  0  0  0  0
   -7.7045   -0.0336    0.1930 N   0  0  0  0  0  0  0  0  0  0  0  0
   -6.5216   -0.6640    0.3780 C   0  0  0  0  0  0  0  0  0  0  0  0
   -0.6600    0.2795    0.8321 N   0  0  0  0  0  0  0  0  0  0  0  0
    0.5687   -0.1310    0.9714 C   0  0  0  0  0  0  0  0  0  0  0  0
    1.6227    0.7256    1.1638 N   0  0  0  0  0  0  0  0  0  0  0  0
    2.7447    0.8116    0.2999 C   0  0  0  0  0  0  0  0  0  0  0  0
    3.8817    1.4905    0.7575 C   0  0  0  0  0  0  0  0  0  0  0  0
    5.0114    1.6405   -0.0563 C   0  0  0  0  0  0  0  0  0  0  0  0
    5.0134    1.1246   -1.3505 C   0  0  0  0  0  0  0  0  0  0  0  0
    6.0422    1.1999   -2.2471 O   0  0  0  0  0  0  0  0  0  0  0  0
    7.2316    1.8450   -1.8094 C   0  0  0  0  0  0  0  0  0  0  0  0
    3.8754    0.4670   -1.8204 C   0  0  0  0  0  0  0  0  0  0  0  0
    2.7471    0.3166   -1.0077 C   0  0  0  0  0  0  0  0  0  0  0  0
    0.8722   -1.5418    1.0017 C   0  0  0  0  0  0  0  0  0  0  0  0
    1.9916   -2.3692    1.1796 C   0  0  0  0  0  0  0  0  0  0  0  0
    1.6750   -3.6737    1.1174 N   0  0  0  0  0  0  0  0  0  0  0  0
    0.3391   -3.6726    0.9084 N   0  0  0  0  0  0  0  0  0  0  0  0
   -0.1636   -2.4156    0.8402 C   0  0  0  0  0  0  0  0  0  0  0  0
   -2.2092   -2.6375    0.5554 H   0  0  0  0  0  0  0  0  0  0  0  0
   -3.9006   -1.5378   -0.5532 H   0  0  0  0  0  0  0  0  0  0  0  0
   -4.1566   -1.5435    1.2112 H   0  0  0  0  0  0  0  0  0  0  0  0
   -4.3200    1.7180   -0.5596 H   0  0  0  0  0  0  0  0  0  0  0  0
   -6.4708    2.9209   -0.9029 H   0  0  0  0  0  0  0  0  0  0  0  0
   -8.6052    1.7259   -0.3950 H   0  0  0  0  0  0  0  0  0  0  0  0
   -6.6118   -1.6852    0.7386 H   0  0  0  0  0  0  0  0  0  0  0  0
    1.2544    1.6691    1.2769 H   0  0  0  0  0  0  0  0  0  0  0  0
    3.9011    1.8987    1.7659 H   0  0  0  0  0  0  0  0  0  0  0  0
    5.8682    2.1654    0.3526 H   0  0  0  0  0  0  0  0  0  0  0  0
    7.9525    1.8108   -2.6320 H   0  0  0  0  0  0  0  0  0  0  0  0
    7.6745    1.3206   -0.9562 H   0  0  0  0  0  0  0  0  0  0  0  0
    7.0451    2.8979   -1.5736 H   0  0  0  0  0  0  0  0  0  0  0  0
    3.8634    0.0711   -2.8334 H   0  0  0  0  0  0  0  0  0  0  0  0
    1.8754   -0.1819   -1.4236 H   0  0  0  0  0  0  0  0  0  0  0  0
    3.0230   -2.0876    1.3504 H   0  0  0  0  0  0  0  0  0  0  0  0
   -0.1386   -4.5635    0.8314 H   0  0  0  0  0  0  0  0  0  0  0  0
  1  2  1  0
  2  3  2  3
  3  4  1  0
  4  5  1  0
  5  6  2  0
  6  7  1  0
  7  8  2  0
  8  9  1  0
  9 10  2  0
  2 11  1  0
 11 12  2  0
 12 13  1  0
 13 14  1  0
 14 15  2  0
 15 16  1  0
 16 17  2  0
 17 18  1  0
 18 19  1  0
 17 20  1  0
 20 21  2  0
 12 22  1  0
 22 23  1  0
 23 24  2  0
 24 25  1  0
 25 26  1  0
 26  1  1  0
 10  5  1  0
 21 14  1  0
 26 22  2  0
  1 27  1  0
  4 28  1  0
  4 29  1  0
  6 30  1  0
  7 31  1  0
  8 32  1  0
 10 33  1  0
 13 34  1  0
 15 35  1  0
 16 36  1  0
 19 37  1  0
 19 38  1  0
 19 39  1  0
 20 40  1  0
 21 41  1  0
 23 42  1  0
 25 43  1  0
M  END
>  <ScrubInfo>  (4) 
{"isomerGroup": 0, "isomerId": 3, "confId": 0, "nr_conformers:": 1, "nr_isomers:": 16}

$$$$
_i4
     RDKit          3D

 43 46  0  0  0  0  0  0  0  0999 V2000
    1.6237   -2.0574   -1.0593 N   0  0  0  0  0  0  0  0  0  0  0  0
    1.7717   -0.7676   -0.6407 C   0  0  0  0  0  0  0  0  0  0  0  0
    3.0545   -0.4547   -0.2960 N   0  0  0  0  0  0  0  0  0  0  0  0
    3.3658    0.8324    0.3033 C   0  0  0  0  0  0  0  0  0  0  0  0
    4.8497    0.9475    0.5083 C   0  0  0  0  0  0  0  0  0  0  0  0
    5.7352    0.9991   -0.5736 C   0  0  0  0  0  0  0  0  0  0  0  0
    7.1038    1.1010   -0.3431 C   0  0  0  0  0  0  0  0  0  0  0  0
    7.5452    1.1469    0.9683 C   0  0  0  0  0  0  0  0  0  0  0  0
    6.7227    1.0982    2.0382 N   0  0  0  0  0  0  0  0  0  0  0  0
    5.3980    1.0030    1.7853 C   0  0  0  0  0  0  0  0  0  0  0  0
    0.7815    0.0853   -0.5893 N   0  0  0  0  0  0  0  0  0  0  0  0
   -0.4963   -0.3424   -0.9674 C   0  0  0  0  0  0  0  0  0  0  0  0
   -1.5257    0.5926   -0.9093 N   0  0  0  0  0  0  0  0  0  0  0  0
   -2.7500    0.4084   -0.2216 C   0  0  0  0  0  0  0  0  0  0  0  0
   -3.8255    1.2417   -0.5536 C   0  0  0  0  0  0  0  0  0  0  0  0
   -5.0522    1.1428    0.1146 C   0  0  0  0  0  0  0  0  0  0  0  0
   -5.2141    0.2171    1.1431 C   0  0  0  0  0  0  0  0  0  0  0  0
   -6.3503    0.0164    1.8759 O   0  0  0  0  0  0  0  0  0  0  0  0
   -7.4861    0.7984    1.5287 C   0  0  0  0  0  0  0  0  0  0  0  0
   -4.1374   -0.5965    1.4992 C   0  0  0  0  0  0  0  0  0  0  0  0
   -2.9126   -0.4973    0.8311 C   0  0  0  0  0  0  0  0  0  0  0  0
   -0.7067   -1.5890   -1.4262 C   0  0  0  0  0  0  0  0  0  0  0  0
   -1.7884   -2.3873   -1.9505 C   0  0  0  0  0  0  0  0  0  0  0  0
   -1.3758   -3.5829   -2.2679 N   0  0  0  0  0  0  0  0  0  0  0  0
    0.0530   -3.6612   -1.9706 N   0  0  0  0  0  0  0  0  0  0  0  0
    0.4178   -2.5078   -1.4850 C   0  0  0  0  0  0  0  0  0  0  0  0
    2.4258   -2.6414   -1.2312 H   0  0  0  0  0  0  0  0  0  0  0  0
    3.5922   -1.2142    0.1053 H   0  0  0  0  0  0  0  0  0  0  0  0
    3.0332    1.6530   -0.3440 H   0  0  0  0  0  0  0  0  0  0  0  0
    2.8382    0.9333    1.2594 H   0  0  0  0  0  0  0  0  0  0  0  0
    5.3597    0.9591   -1.5938 H   0  0  0  0  0  0  0  0  0  0  0  0
    7.8086    1.1440   -1.1659 H   0  0  0  0  0  0  0  0  0  0  0  0
    8.6034    1.2265    1.2007 H   0  0  0  0  0  0  0  0  0  0  0  0
    4.7732    0.9695    2.6745 H   0  0  0  0  0  0  0  0  0  0  0  0
   -1.1103    1.4749   -0.6080 H   0  0  0  0  0  0  0  0  0  0  0  0
   -3.7170    1.9701   -1.3544 H   0  0  0  0  0  0  0  0  0  0  0  0
   -5.8547    1.8044   -0.1932 H   0  0  0  0  0  0  0  0  0  0  0  0
   -7.2940    1.8646    1.6879 H   0  0  0  0  0  0  0  0  0  0  0  0
   -8.3079    0.5061    2.1895 H   0  0  0  0  0  0  0  0  0  0  0  0
   -7.8013    0.6024    0.4985 H   0  0  0  0  0  0  0  0  0  0  0  0
   -4.2495   -1.3116    2.3109 H   0  0  0  0  0  0  0  0  0  0  0  0
   -2.0926   -1.1294    1.1603 H   0  0  0  0  0  0  0  0  0  0  0  0
   -2.8081   -1.9982   -2.0567 H   0  0  0  0  0  0  0  0  0  0  0  0
  1  2  1  0
  2  3  1  0
  3  4  1  0
  4  5  1  0
  5  6  2  0
  6  7  1  0
  7  8  2  0
  8  9  1  0
  9 10  2  0
  2 11  2  0
 11 12  1  0
 12 13  1  0
 13 14  1  0
 14 15  2  0
 15 16  1  0
 16 17  2  0
 17 18  1  0
 18 19  1  0
 17 20  1  0
 20 21  2  0
 12 22  2  0
 22 23  1  0
 23 24  2  0
 24 25  1  0
 25 26  2  0
 26  1  1  0
 10  5  1  0
 21 14  1  0
 26 22  1  0
  1 27  1  0
  3 28  1  0
  4 29  1  0
  4 30  1  0
  6 31  1  0
  7 32  1  0
  8 33  1  0
 10 34  1  0
 13 35  1  0
 15 36  1  0
 16 37  1  0
 19 38  1  0
 19 39  1  0
 19 40  1  0
 20 41  1  0
 21 42  1  0
 23 43  1  0
M  END
>  <ScrubInfo>  (5) 
{"isomerGroup": 0, "isomerId": 4, "confId": 0, "nr_conformers:": 1, "nr_isomers:": 16}

$$$$
_i5
     RDKit          3D

 43 46  0  0  0  0  0  0  0  0999 V2000
    0.7652    0.5504    0.3393 N   0  0  0  0  0  0  0  0  0  0  0  0
    1.8499    0.6979   -0.4847 C   0  0  0  0  0  0  0  0  0  0  0  0
    2.9808    0.1455    0.0431 N   0  0  0  0  0  0  0  0  0  0  0  0
    4.2147    0.1324   -0.7273 C   0  0  0  0  0  0  0  0  0  0  0  0
    5.3024   -0.5007    0.0925 C   0  0  0  0  0  0  0  0  0  0  0  0
    5.7053   -1.8238   -0.1119 C   0  0  0  0  0  0  0  0  0  0  0  0
    6.7042   -2.3716    0.6880 C   0  0  0  0  0  0  0  0  0  0  0  0
    7.2635   -1.5782    1.6758 C   0  0  0  0  0  0  0  0  0  0  0  0
    6.8932   -0.3016    1.9108 N   0  0  0  0  0  0  0  0  0  0  0  0
    5.9254    0.2079    1.1152 C   0  0  0  0  0  0  0  0  0  0  0  0
    1.8181    1.2994   -1.6340 N   0  0  0  0  0  0  0  0  0  0  0  0
    0.6051    1.8062   -2.0034 C   0  0  0  0  0  0  0  0  0  0  0  0
    0.3368    2.4563   -3.1022 N   0  0  0  0  0  0  0  0  0  0  0  0
   -1.0802    2.8311   -3.0485 N   0  0  0  0  0  0  0  0  0  0  0  0
   -1.5677    2.3841   -1.9251 C   0  0  0  0  0  0  0  0  0  0  0  0
   -0.5688    1.6761   -1.1542 C   0  0  0  0  0  0  0  0  0  0  0  0
   -0.4903    1.0396    0.0217 C   0  0  0  0  0  0  0  0  0  0  0  0
   -1.5449    0.9234    0.9081 N   0  0  0  0  0  0  0  0  0  0  0  0
   -2.8144    0.3601    0.6415 C   0  0  0  0  0  0  0  0  0  0  0  0
   -3.1249   -0.3378   -0.5294 C   0  0  0  0  0  0  0  0  0  0  0  0
   -4.4139   -0.8398   -0.7406 C   0  0  0  0  0  0  0  0  0  0  0  0
   -5.4204   -0.6491    0.2063 C   0  0  0  0  0  0  0  0  0  0  0  0
   -6.6303   -1.1899   -0.1267 O   0  0  0  0  0  0  0  0  0  0  0  0
   -7.6994   -0.9908    0.7897 C   0  0  0  0  0  0  0  0  0  0  0  0
   -5.1254    0.0499    1.3737 C   0  0  0  0  0  0  0  0  0  0  0  0
   -3.8340    0.5503    1.5853 C   0  0  0  0  0  0  0  0  0  0  0  0
    0.9121    0.2343    1.2848 H   0  0  0  0  0  0  0  0  0  0  0  0
    2.8309   -0.7220    0.5442 H   0  0  0  0  0  0  0  0  0  0  0  0
    4.0730   -0.4279   -1.6596 H   0  0  0  0  0  0  0  0  0  0  0  0
    4.5121    1.1521   -1.0014 H   0  0  0  0  0  0  0  0  0  0  0  0
    5.2517   -2.4286   -0.8934 H   0  0  0  0  0  0  0  0  0  0  0  0
    7.0405   -3.3924    0.5441 H   0  0  0  0  0  0  0  0  0  0  0  0
    8.0472   -1.9597    2.3241 H   0  0  0  0  0  0  0  0  0  0  0  0
    5.6506    1.2372    1.3344 H   0  0  0  0  0  0  0  0  0  0  0  0
   -2.5984    2.5077   -1.5715 H   0  0  0  0  0  0  0  0  0  0  0  0
   -1.2560    0.7096    1.8580 H   0  0  0  0  0  0  0  0  0  0  0  0
   -2.3738   -0.5300   -1.2904 H   0  0  0  0  0  0  0  0  0  0  0  0
   -4.6334   -1.3862   -1.6553 H   0  0  0  0  0  0  0  0  0  0  0  0
   -7.9189    0.0746    0.9154 H   0  0  0  0  0  0  0  0  0  0  0  0
   -7.4871   -1.4675    1.7523 H   0  0  0  0  0  0  0  0  0  0  0  0
   -8.5913   -1.4675    0.3716 H   0  0  0  0  0  0  0  0  0  0  0  0
   -5.8740    0.2299    2.1379 H   0  0  0  0  0  0  0  0  0  0  0  0
   -3.6352    1.1095    2.4971 H   0  0  0  0  0  0  0  0  0  0  0  0
  1  2  1  0
  2  3  1  0
  3  4  1  0
  4  5  1  0
  5  6  2  0
  6  7  1  0
  7  8  2  0
  8  9  1  0
  9 10  2  0
  2 11  2  0
 11 12  1  0
 12 13  2  0
 13 14  1  0
 14 15  2  0
 15 16  1  0
 16 17  2  0
 17 18  1  0
 18 19  1  0
 19 20  2  0
 20 21  1  0
 21 22  2  0
 22 23  1  0
 23 24  1  0
 22 25  1  0
 25 26  2  0
 17  1  1  0
 26 19  1  0
 10  5  1  0
 16 12  1  0
  1 27  1  0
  3 28  1  0
  4 29  1  0
  4 30  1  0
  6 31  1  0
  7 32  1  0
  8 33  1  0
 10 34  1  0
 15 35  1  0
 18 36  1  0
 20 37  1  0
 21 38  1  0
 24 39  1  0
 24 40  1  0
 24 41  1  0
 25 42  1  0
 26 43  1  0
M  END
>  <ScrubInfo>  (6) 
{"isomerGroup": 0, "isomerId": 5, "confId": 0, "nr_conformers:": 1, "nr_isomers:": 16}

$$$$
_i6
     RDKit          3D

 43 46  0  0  0  0  0  0  0  0999 V2000
    1.9605   -1.1297   -0.0992 N   0  0  0  0  0  0  0  0  0  0  0  0
    0.9791   -0.1648   -0.1131 C   0  0  0  0  0  0  0  0  0  0  0  0
    1.4080    1.1168   -0.3185 N   0  0  0  0  0  0  0  0  0  0  0  0
    2.3752    1.7452    0.5746 C   0  0  0  0  0  0  0  0  0  0  0  0
    3.7864    1.4078    0.1859 C   0  0  0  0  0  0  0  0  0  0  0  0
    4.2883    1.6969   -1.0876 C   0  0  0  0  0  0  0  0  0  0  0  0
    5.5966    1.3505   -1.4110 C   0  0  0  0  0  0  0  0  0  0  0  0
    6.3638    0.7199   -0.4470 C   0  0  0  0  0  0  0  0  0  0  0  0
    5.9139    0.4210    0.7907 N   0  0  0  0  0  0  0  0  0  0  0  0
    4.6447    0.7818    1.0839 C   0  0  0  0  0  0  0  0  0  0  0  0
   -0.3002   -0.3790    0.0402 N   0  0  0  0  0  0  0  0  0  0  0  0
   -0.7501   -1.6783    0.2505 C   0  0  0  0  0  0  0  0  0  0  0  0
   -1.9890   -2.0010    0.4428 N   0  0  0  0  0  0  0  0  0  0  0  0
   -2.9454   -0.9778    0.4434 C   0  0  0  0  0  0  0  0  0  0  0  0
   -3.5938   -0.6148   -0.7391 C   0  0  0  0  0  0  0  0  0  0  0  0
   -4.5718    0.3869   -0.7405 C   0  0  0  0  0  0  0  0  0  0  0  0
   -4.9177    1.0274    0.4498 C   0  0  0  0  0  0  0  0  0  0  0  0
   -5.8499    2.0186    0.5891 O   0  0  0  0  0  0  0  0  0  0  0  0
   -6.5552    2.4046   -0.5837 C   0  0  0  0  0  0  0  0  0  0  0  0
   -4.2808    0.6537    1.6359 C   0  0  0  0  0  0  0  0  0  0  0  0
   -3.3057   -0.3472    1.6347 C   0  0  0  0  0  0  0  0  0  0  0  0
    0.2423   -2.7223    0.2496 C   0  0  0  0  0  0  0  0  0  0  0  0
    0.2508   -4.1173    0.3838 C   0  0  0  0  0  0  0  0  0  0  0  0
    1.4900   -4.6309    0.2853 N   0  0  0  0  0  0  0  0  0  0  0  0
    2.2743   -3.5447    0.0864 N   0  0  0  0  0  0  0  0  0  0  0  0
    1.5550   -2.3967    0.0684 C   0  0  0  0  0  0  0  0  0  0  0  0
    2.8809   -0.8747   -0.4377 H   0  0  0  0  0  0  0  0  0  0  0  0
    0.5730    1.6992   -0.3695 H   0  0  0  0  0  0  0  0  0  0  0  0
    2.2576    2.8342    0.5181 H   0  0  0  0  0  0  0  0  0  0  0  0
    2.1657    1.4631    1.6137 H   0  0  0  0  0  0  0  0  0  0  0  0
    3.6587    2.1836   -1.8296 H   0  0  0  0  0  0  0  0  0  0  0  0
    6.0067    1.5663   -2.3914 H   0  0  0  0  0  0  0  0  0  0  0  0
    7.3910    0.4295   -0.6498 H   0  0  0  0  0  0  0  0  0  0  0  0
    4.3264    0.5285    2.0926 H   0  0  0  0  0  0  0  0  0  0  0  0
   -3.3317   -1.1162   -1.6666 H   0  0  0  0  0  0  0  0  0  0  0  0
   -5.0409    0.6369   -1.6855 H   0  0  0  0  0  0  0  0  0  0  0  0
   -7.2672    3.1868   -0.3032 H   0  0  0  0  0  0  0  0  0  0  0  0
   -5.8756    2.8261   -1.3317 H   0  0  0  0  0  0  0  0  0  0  0  0
   -7.1269    1.5663   -0.9955 H   0  0  0  0  0  0  0  0  0  0  0  0
   -4.5490    1.1410    2.5695 H   0  0  0  0  0  0  0  0  0  0  0  0
   -2.8242   -0.6363    2.5640 H   0  0  0  0  0  0  0  0  0  0  0  0
   -0.5881   -4.7828    0.5440 H   0  0  0  0  0  0  0  0  0  0  0  0
    3.2743   -3.6782   -0.0149 H   0  0  0  0  0  0  0  0  0  0  0  0
  1  2  1  0
  2  3  1  0
  3  4  1  0
  4  5  1  0
  5  6  2  0
  6  7  1  0
  7  8  2  0
  8  9  1  0
  9 10  2  0
  2 11  2  0
 11 12  1  0
 12 13  2  3
 13 14  1  0
 14 15  2  0
 15 16  1  0
 16 17  2  0
 17 18  1  0
 18 19  1  0
 17 20  1  0
 20 21  2  0
 12 22  1  0
 22 23  1  0
 23 24  2  0
 24 25  1  0
 25 26  1  0
 26  1  1  0
 10  5  1  0
 21 14  1  0
 26 22  2  0
  1 27  1  0
  3 28  1  0
  4 29  1  0
  4 30  1  0
  6 31  1  0
  7 32  1  0
  8 33  1  0
 10 34  1  0
 15 35  1  0
 16 36  1  0
 19 37  1  0
 19 38  1  0
 19 39  1  0
 20 40  1  0
 21 41  1  0
 23 42  1  0
 25 43  1  0
M  END
>  <ScrubInfo>  (7) 
{"isomerGroup": 0, "isomerId": 6, "confId": 0, "nr_conformers:": 1, "nr_isomers:": 16}

$$$$
_i7
     RDKit          3D

 43 46  0  0  0  0  0  0  0  0999 V2000
    1.4873   -0.8833    3.2205 N   0  0  0  0  0  0  0  0  0  0  0  0
    1.8526   -0.6140    1.9046 C   0  0  0  0  0  0  0  0  0  0  0  0
    0.8044   -0.4294    1.0868 C   0  0  0  0  0  0  0  0  0  0  0  0
    0.5216   -0.0933   -0.3029 C   0  0  0  0  0  0  0  0  0  0  0  0
    1.3165    0.0696   -1.3074 N   0  0  0  0  0  0  0  0  0  0  0  0
    2.6946   -0.0909   -1.1566 C   0  0  0  0  0  0  0  0  0  0  0  0
    3.5074    1.0164   -0.9052 C   0  0  0  0  0  0  0  0  0  0  0  0
    4.8921    0.8685   -0.7637 C   0  0  0  0  0  0  0  0  0  0  0  0
    5.4761   -0.3925   -0.8886 C   0  0  0  0  0  0  0  0  0  0  0  0
    6.8079   -0.6777   -0.7677 O   0  0  0  0  0  0  0  0  0  0  0  0
    7.6859    0.4244   -0.5749 C   0  0  0  0  0  0  0  0  0  0  0  0
    4.6653   -1.4968   -1.1639 C   0  0  0  0  0  0  0  0  0  0  0  0
    3.2839   -1.3466   -1.3076 C   0  0  0  0  0  0  0  0  0  0  0  0
   -0.8116    0.0826   -0.5682 N   0  0  0  0  0  0  0  0  0  0  0  0
   -1.7476   -0.0885    0.3177 C   0  0  0  0  0  0  0  0  0  0  0  0
   -3.0238    0.1226   -0.1090 N   0  0  0  0  0  0  0  0  0  0  0  0
   -4.1074    0.4265    0.7931 C   0  0  0  0  0  0  0  0  0  0  0  0
   -5.3957    0.5612    0.0301 C   0  0  0  0  0  0  0  0  0  0  0  0
   -5.9063   -0.4898   -0.7396 C   0  0  0  0  0  0  0  0  0  0  0  0
   -7.1093   -0.3290   -1.4203 C   0  0  0  0  0  0  0  0  0  0  0  0
   -7.7700    0.8822   -1.3047 C   0  0  0  0  0  0  0  0  0  0  0  0
   -7.3147    1.9179   -0.5677 N   0  0  0  0  0  0  0  0  0  0  0  0
   -6.1419    1.7341    0.0808 C   0  0  0  0  0  0  0  0  0  0  0  0
   -1.5489   -0.4559    1.6228 N   0  0  0  0  0  0  0  0  0  0  0  0
   -0.3339   -0.6489    1.9940 C   0  0  0  0  0  0  0  0  0  0  0  0
    0.1154   -1.0367    3.2487 N   0  0  0  0  0  0  0  0  0  0  0  0
    2.0417   -1.6305    3.6484 H   0  0  0  0  0  0  0  0  0  0  0  0
    2.9051   -0.5759    1.6631 H   0  0  0  0  0  0  0  0  0  0  0  0
    3.0568    2.0023   -0.8233 H   0  0  0  0  0  0  0  0  0  0  0  0
    5.4807    1.7572   -0.5635 H   0  0  0  0  0  0  0  0  0  0  0  0
    8.7075    0.0345   -0.5336 H   0  0  0  0  0  0  0  0  0  0  0  0
    7.4830    0.9273    0.3763 H   0  0  0  0  0  0  0  0  0  0  0  0
    7.6308    1.1262   -1.4137 H   0  0  0  0  0  0  0  0  0  0  0  0
    5.1140   -2.4804   -1.2795 H   0  0  0  0  0  0  0  0  0  0  0  0
    2.6657   -2.2086   -1.5424 H   0  0  0  0  0  0  0  0  0  0  0  0
   -3.0508    0.5868   -1.0095 H   0  0  0  0  0  0  0  0  0  0  0  0
   -4.2294   -0.3664    1.5409 H   0  0  0  0  0  0  0  0  0  0  0  0
   -3.8851    1.3551    1.3323 H   0  0  0  0  0  0  0  0  0  0  0  0
   -5.3645   -1.4306   -0.8121 H   0  0  0  0  0  0  0  0  0  0  0  0
   -7.5202   -1.1286   -2.0262 H   0  0  0  0  0  0  0  0  0  0  0  0
   -8.7117    1.0570   -1.8170 H   0  0  0  0  0  0  0  0  0  0  0  0
   -5.8120    2.5921    0.6610 H   0  0  0  0  0  0  0  0  0  0  0  0
   -0.4116   -0.6500    4.0295 H   0  0  0  0  0  0  0  0  0  0  0  0
  1  2  1  0
  2  3  2  0
  3  4  1  0
  4  5  2  3
  5  6  1  0
  6  7  2  0
  7  8  1  0
  8  9  2  0
  9 10  1  0
 10 11  1  0
  9 12  1  0
 12 13  2  0
  4 14  1  0
 14 15  2  0
 15 16  1  0
 16 17  1  0
 17 18  1  0
 18 19  2  0
 19 20  1  0
 20 21  2  0
 21 22  1  0
 22 23  2  0
 15 24  1  0
 24 25  2  0
 25 26  1  0
 26  1  1  0
 25  3  1  0
 13  6  1  0
 23 18  1  0
  1 27  1  0
  2 28  1  0
  7 29  1  0
  8 30  1  0
 11 31  1  0
 11 32  1  0
 11 33  1  0
 12 34  1  0
 13 35  1  0
 16 36  1  0
 17 37  1  0
 17 38  1  0
 19 39  1  0
 20 40  1  0
 21 41  1  0
 23 42  1  0
 26 43  1  0
M  END
>  <ScrubInfo>  (8) 
{"isomerGroup": 0, "isomerId": 7, "confId": 0, "nr_conformers:": 1, "nr_isomers:": 16}

$$$$
_i8
     RDKit          3D

 43 46  0  0  0  0  0  0  0  0999 V2000
    1.2059   -3.4986    1.6665 N   0  0  0  0  0  0  0  0  0  0  0  0
    1.6715   -2.2125    1.6685 C   0  0  0  0  0  0  0  0  0  0  0  0
    0.5833   -1.4484    1.3376 C   0  0  0  0  0  0  0  0  0  0  0  0
    0.4811   -0.0660    1.2125 C   0  0  0  0  0  0  0  0  0  0  0  0
    1.4826    0.8987    1.3692 N   0  0  0  0  0  0  0  0  0  0  0  0
    2.7699    0.9181    0.7948 C   0  0  0  0  0  0  0  0  0  0  0  0
    3.7279    1.7813    1.3373 C   0  0  0  0  0  0  0  0  0  0  0  0
    5.0135    1.8565    0.7936 C   0  0  0  0  0  0  0  0  0  0  0  0
    5.3643    1.0811   -0.3117 C   0  0  0  0  0  0  0  0  0  0  0  0
    6.6497    1.2492   -0.7450 O   0  0  0  0  0  0  0  0  0  0  0  0
    7.0484    0.4971   -1.8841 C   0  0  0  0  0  0  0  0  0  0  0  0
    4.4128    0.2304   -0.8707 C   0  0  0  0  0  0  0  0  0  0  0  0
    3.1248    0.1544   -0.3226 C   0  0  0  0  0  0  0  0  0  0  0  0
   -0.7958    0.3409    0.9558 N   0  0  0  0  0  0  0  0  0  0  0  0
   -1.8124   -0.5673    0.8147 C   0  0  0  0  0  0  0  0  0  0  0  0
   -3.0440    0.0251    0.5527 N   0  0  0  0  0  0  0  0  0  0  0  0
   -3.9209   -0.7605   -0.2941 C   0  0  0  0  0  0  0  0  0  0  0  0
   -5.1448    0.0463   -0.6381 C   0  0  0  0  0  0  0  0  0  0  0  0
   -5.9939    0.5499    0.3533 C   0  0  0  0  0  0  0  0  0  0  0  0
   -7.1227    1.2798   -0.0064 C   0  0  0  0  0  0  0  0  0  0  0  0
   -7.3701    1.4808   -1.3538 C   0  0  0  0  0  0  0  0  0  0  0  0
   -6.5794    1.0080   -2.3410 N   0  0  0  0  0  0  0  0  0  0  0  0
   -5.4899    0.3015   -1.9613 C   0  0  0  0  0  0  0  0  0  0  0  0
   -1.7417   -1.9166    0.8974 N   0  0  0  0  0  0  0  0  0  0  0  0
   -0.4966   -2.3458    1.1848 C   0  0  0  0  0  0  0  0  0  0  0  0
   -0.1022   -3.6108    1.3600 N   0  0  0  0  0  0  0  0  0  0  0  0
    1.7228   -4.3489    1.8684 H   0  0  0  0  0  0  0  0  0  0  0  0
    2.6990   -1.9761    1.9063 H   0  0  0  0  0  0  0  0  0  0  0  0
    1.0401    1.8115    1.2842 H   0  0  0  0  0  0  0  0  0  0  0  0
    3.4828    2.3944    2.2014 H   0  0  0  0  0  0  0  0  0  0  0  0
    5.7462    2.5268    1.2364 H   0  0  0  0  0  0  0  0  0  0  0  0
    7.0003   -0.5783   -1.6833 H   0  0  0  0  0  0  0  0  0  0  0  0
    6.4505    0.7631   -2.7620 H   0  0  0  0  0  0  0  0  0  0  0  0
    8.0907    0.7485   -2.1026 H   0  0  0  0  0  0  0  0  0  0  0  0
    4.6328   -0.3836   -1.7375 H   0  0  0  0  0  0  0  0  0  0  0  0
    2.4001   -0.4998   -0.8000 H   0  0  0  0  0  0  0  0  0  0  0  0
   -2.8513    0.9647    0.2234 H   0  0  0  0  0  0  0  0  0  0  0  0
   -4.2493   -1.6763    0.2138 H   0  0  0  0  0  0  0  0  0  0  0  0
   -3.4011   -1.0554   -1.2151 H   0  0  0  0  0  0  0  0  0  0  0  0
   -5.7718    0.3756    1.4040 H   0  0  0  0  0  0  0  0  0  0  0  0
   -7.7918    1.6812    0.7460 H   0  0  0  0  0  0  0  0  0  0  0  0
   -8.2379    2.0438   -1.6851 H   0  0  0  0  0  0  0  0  0  0  0  0
   -4.8835   -0.0638   -2.7862 H   0  0  0  0  0  0  0  0  0  0  0  0
  1  2  1  0
  2  3  2  0
  3  4  1  0
  4  5  1  0
  5  6  1  0
  6  7  2  0
  7  8  1  0
  8  9  2  0
  9 10  1  0
 10 11  1  0
  9 12  1  0
 12 13  2  0
  4 14  2  0
 14 15  1  0
 15 16  1  0
 16 17  1  0
 17 18  1  0
 18 19  2  0
 19 20  1  0
 20 21  2  0
 21 22  1  0
 22 23  2  0
 15 24  2  0
 24 25  1  0
 25 26  2  0
 26  1  1  0
 25  3  1  0
 13  6  1  0
 23 18  1  0
  1 27  1  0
  2 28  1  0
  5 29  1  0
  7 30  1  0
  8 31  1  0
 11 32  1  0
 11 33  1  0
 11 34  1  0
 12 35  1  0
 13 36  1  0
 16 37  1  0
 17 38  1  0
 17 39  1  0
 19 40  1  0
 20 41  1  0
 21 42  1  0
 23 43  1  0
M  END
>  <ScrubInfo>  (9) 
{"isomerGroup": 0, "isomerId": 8, "confId": 0, "nr_conformers:": 1, "nr_isomers:": 16}

$$$$
_i9
     RDKit          3D

 43 46  0  0  0  0  0  0  0  0999 V2000
    0.3093   -5.4469    1.8271 N   0  0  0  0  0  0  0  0  0  0  0  0
    1.0784   -4.4621    1.2146 C   0  0  0  0  0  0  0  0  0  0  0  0
    0.4348   -3.2910    1.1052 C   0  0  0  0  0  0  0  0  0  0  0  0
    0.6639   -1.9465    0.5662 C   0  0  0  0  0  0  0  0  0  0  0  0
    1.8900   -1.6460    0.0021 N   0  0  0  0  0  0  0  0  0  0  0  0
    2.4038   -0.4037   -0.4153 C   0  0  0  0  0  0  0  0  0  0  0  0
    3.5285   -0.3947   -1.2575 C   0  0  0  0  0  0  0  0  0  0  0  0
    4.0767    0.8020   -1.7409 C   0  0  0  0  0  0  0  0  0  0  0  0
    3.5036    2.0217   -1.3948 C   0  0  0  0  0  0  0  0  0  0  0  0
    3.9322    3.2571   -1.7903 O   0  0  0  0  0  0  0  0  0  0  0  0
    5.0561    3.3016   -2.6599 C   0  0  0  0  0  0  0  0  0  0  0  0
    2.3829    2.0268   -0.5663 C   0  0  0  0  0  0  0  0  0  0  0  0
    1.8370    0.8292   -0.0873 C   0  0  0  0  0  0  0  0  0  0  0  0
   -0.3316   -1.1078    0.6345 N   0  0  0  0  0  0  0  0  0  0  0  0
   -1.5358   -1.5028    1.1784 C   0  0  0  0  0  0  0  0  0  0  0  0
   -2.5421   -0.7033    1.1416 N   0  0  0  0  0  0  0  0  0  0  0  0
   -2.3376    0.5981    0.5057 C   0  0  0  0  0  0  0  0  0  0  0  0
   -3.5870    1.4437    0.4857 C   0  0  0  0  0  0  0  0  0  0  0  0
   -4.6249    1.2854    1.4076 C   0  0  0  0  0  0  0  0  0  0  0  0
   -5.7327    2.1267    1.3572 C   0  0  0  0  0  0  0  0  0  0  0  0
   -5.7622    3.1148    0.3876 C   0  0  0  0  0  0  0  0  0  0  0  0
   -4.7764    3.3143   -0.5126 N   0  0  0  0  0  0  0  0  0  0  0  0
   -3.7148    2.4770   -0.4393 C   0  0  0  0  0  0  0  0  0  0  0  0
   -1.8066   -2.7055    1.7870 N   0  0  0  0  0  0  0  0  0  0  0  0
   -0.8547   -3.5663    1.7686 C   0  0  0  0  0  0  0  0  0  0  0  0
   -0.8476   -4.8494    2.2953 N   0  0  0  0  0  0  0  0  0  0  0  0
    0.8273   -6.0216    2.4979 H   0  0  0  0  0  0  0  0  0  0  0  0
    2.0798   -4.7106    0.8956 H   0  0  0  0  0  0  0  0  0  0  0  0
    2.5463   -2.4072   -0.1080 H   0  0  0  0  0  0  0  0  0  0  0  0
    3.9943   -1.3293   -1.5612 H   0  0  0  0  0  0  0  0  0  0  0  0
    4.9458    0.7416   -2.3871 H   0  0  0  0  0  0  0  0  0  0  0  0
    5.2613    4.3520   -2.8879 H   0  0  0  0  0  0  0  0  0  0  0  0
    5.9459    2.8859   -2.1757 H   0  0  0  0  0  0  0  0  0  0  0  0
    4.8448    2.7906   -3.6051 H   0  0  0  0  0  0  0  0  0  0  0  0
    1.9236    2.9722   -0.2866 H   0  0  0  0  0  0  0  0  0  0  0  0
    0.9722    0.8958    0.5650 H   0  0  0  0  0  0  0  0  0  0  0  0
   -1.5706    1.1681    1.0453 H   0  0  0  0  0  0  0  0  0  0  0  0
   -2.0105    0.4534   -0.5324 H   0  0  0  0  0  0  0  0  0  0  0  0
   -4.5736    0.5032    2.1616 H   0  0  0  0  0  0  0  0  0  0  0  0
   -6.5505    2.0124    2.0588 H   0  0  0  0  0  0  0  0  0  0  0  0
   -6.6052    3.7946    0.3087 H   0  0  0  0  0  0  0  0  0  0  0  0
   -2.9379    2.6702   -1.1746 H   0  0  0  0  0  0  0  0  0  0  0  0
   -1.7361   -5.3438    2.2212 H   0  0  0  0  0  0  0  0  0  0  0  0
  1  2  1  0
  2  3  2  0
  3  4  1  0
  4  5  1  0
  5  6  1  0
  6  7  2  0
  7  8  1  0
  8  9  2  0
  9 10  1  0
 10 11  1  0
  9 12  1  0
 12 13  2  0
  4 14  2  0
 14 15  1  0
 15 16  2  3
 16 17  1  0
 17 18  1  0
 18 19  2  0
 19 20  1  0
 20 21  2  0
 21 22  1  0
 22 23  2  0
 15 24  1  0
 24 25  2  0
 25 26  1  0
 26  1  1  0
 25  3  1  0
 13  6  1  0
 23 18  1  0
  1 27  1  0
  2 28  1  0
  5 29  1  0
  7 30  1  0
  8 31  1  0
 11 32  1  0
 11 33  1  0
 11 34  1  0
 12 35  1  0
 13 36  1  0
 17 37  1  0
 17 38  1  0
 19 39  1  0
 20 40  1  0
 21 41  1  0
 23 42  1  0
 26 43  1  0
M  END
>  <ScrubInfo>  (10) 
{"isomerGroup": 0, "isomerId": 9, "confId": 0, "nr_conformers:": 1, "nr_isomers:": 16}

$$$$
_i10
     RDKit          3D

 43 46  0  0  0  0  0  0  0  0999 V2000
    1.6169   -1.9493   -0.2993 N   0  0  0  0  0  0  0  0  0  0  0  0
    1.9727   -0.6374   -0.0541 C   0  0  0  0  0  0  0  0  0  0  0  0
    3.2262   -0.3342   -0.0831 N   0  0  0  0  0  0  0  0  0  0  0  0
    3.6118    1.0512    0.1825 C   0  0  0  0  0  0  0  0  0  0  0  0
    5.0979    1.2578    0.0642 C   0  0  0  0  0  0  0  0  0  0  0  0
    5.8397    0.7051   -0.9839 C   0  0  0  0  0  0  0  0  0  0  0  0
    7.2052    0.9581   -1.0765 C   0  0  0  0  0  0  0  0  0  0  0  0
    7.7874    1.7706   -0.1186 C   0  0  0  0  0  0  0  0  0  0  0  0
    7.1064    2.3354    0.9010 N   0  0  0  0  0  0  0  0  0  0  0  0
    5.7817    2.0666    0.9670 C   0  0  0  0  0  0  0  0  0  0  0  0
    0.8879    0.1844    0.1955 N   0  0  0  0  0  0  0  0  0  0  0  0
   -0.4678   -0.0863    0.2390 C   0  0  0  0  0  0  0  0  0  0  0  0
   -1.3212    0.8601    0.4920 N   0  0  0  0  0  0  0  0  0  0  0  0
   -2.6957    0.6259    0.5441 C   0  0  0  0  0  0  0  0  0  0  0  0
   -3.4815    0.7795   -0.6004 C   0  0  0  0  0  0  0  0  0  0  0  0
   -4.8654    0.5753   -0.5486 C   0  0  0  0  0  0  0  0  0  0  0  0
   -5.4763    0.2312    0.6575 C   0  0  0  0  0  0  0  0  0  0  0  0
   -6.8107    0.0021    0.8474 O   0  0  0  0  0  0  0  0  0  0  0  0
   -7.6502    0.1045   -0.2959 C   0  0  0  0  0  0  0  0  0  0  0  0
   -4.6931    0.1037    1.8076 C   0  0  0  0  0  0  0  0  0  0  0  0
   -3.3121    0.3080    1.7545 C   0  0  0  0  0  0  0  0  0  0  0  0
   -0.7332   -1.4891   -0.0267 C   0  0  0  0  0  0  0  0  0  0  0  0
   -1.8494   -2.3431   -0.1141 C   0  0  0  0  0  0  0  0  0  0  0  0
   -1.5144   -3.6116   -0.4010 N   0  0  0  0  0  0  0  0  0  0  0  0
   -0.1700   -3.5745   -0.4929 N   0  0  0  0  0  0  0  0  0  0  0  0
    0.3255   -2.3302   -0.2788 C   0  0  0  0  0  0  0  0  0  0  0  0
    2.3985   -2.5714   -0.4745 H   0  0  0  0  0  0  0  0  0  0  0  0
    3.1253    1.7299   -0.5293 H   0  0  0  0  0  0  0  0  0  0  0  0
    3.2895    1.3268    1.1946 H   0  0  0  0  0  0  0  0  0  0  0  0
    5.3545    0.0732   -1.7237 H   0  0  0  0  0  0  0  0  0  0  0  0
    7.7992    0.5322   -1.8769 H   0  0  0  0  0  0  0  0  0  0  0  0
    8.8491    1.9972   -0.1477 H   0  0  0  0  0  0  0  0  0  0  0  0
    5.2702    2.5420    1.7997 H   0  0  0  0  0  0  0  0  0  0  0  0
    1.0801    1.1560    0.3810 H   0  0  0  0  0  0  0  0  0  0  0  0
   -3.0132    1.0603   -1.5400 H   0  0  0  0  0  0  0  0  0  0  0  0
   -5.4330    0.6990   -1.4646 H   0  0  0  0  0  0  0  0  0  0  0  0
   -8.6742   -0.1163    0.0204 H   0  0  0  0  0  0  0  0  0  0  0  0
   -7.3712   -0.6305   -1.0581 H   0  0  0  0  0  0  0  0  0  0  0  0
   -7.6394    1.1209   -0.7031 H   0  0  0  0  0  0  0  0  0  0  0  0
   -5.1630   -0.1519    2.7542 H   0  0  0  0  0  0  0  0  0  0  0  0
   -2.7176    0.2182    2.6592 H   0  0  0  0  0  0  0  0  0  0  0  0
   -2.8990   -2.1159    0.0152 H   0  0  0  0  0  0  0  0  0  0  0  0
    0.3261   -4.4331   -0.7031 H   0  0  0  0  0  0  0  0  0  0  0  0
  1  2  1  0
  2  3  2  3
  3  4  1  0
  4  5  1  0
  5  6  2  0
  6  7  1  0
  7  8  2  0
  8  9  1  0
  9 10  2  0
  2 11  1  0
 11 12  1  0
 12 13  2  3
 13 14  1  0
 14 15  2  0
 15 16  1  0
 16 17  2  0
 17 18  1  0
 18 19  1  0
 17 20  1  0
 20 21  2  0
 12 22  1  0
 22 23  1  0
 23 24  2  0
 24 25  1  0
 25 26  1  0
 26  1  1  0
 10  5  1  0
 21 14  1  0
 26 22  2  0
  1 27  1  0
  4 28  1  0
  4 29  1  0
  6 30  1  0
  7 31  1  0
  8 32  1  0
 10 33  1  0
 11 34  1  0
 15 35  1  0
 16 36  1  0
 19 37  1  0
 19 38  1  0
 19 39  1  0
 20 40  1  0
 21 41  1  0
 23 42  1  0
 25 43  1  0
M  END
>  <ScrubInfo>  (11) 
{"isomerGroup": 0, "isomerId": 10, "confId": 0, "nr_conformers:": 1, "nr_isomers:": 16}

$$$$
_i11
     RDKit          3D

 43 46  0  0  0  0  0  0  0  0999 V2000
    0.9640   -1.5529    2.6243 N   0  0  0  0  0  0  0  0  0  0  0  0
    1.5125   -1.0156    1.4896 C   0  0  0  0  0  0  0  0  0  0  0  0
    0.4884   -0.9301    0.5726 C   0  0  0  0  0  0  0  0  0  0  0  0
    0.3759   -0.4705   -0.7902 C   0  0  0  0  0  0  0  0  0  0  0  0
    1.2926   -0.0141   -1.5878 N   0  0  0  0  0  0  0  0  0  0  0  0
    2.6272    0.1015   -1.1975 C   0  0  0  0  0  0  0  0  0  0  0  0
    3.1072    1.3077   -0.6819 C   0  0  0  0  0  0  0  0  0  0  0  0
    4.4526    1.4452   -0.3206 C   0  0  0  0  0  0  0  0  0  0  0  0
    5.3339    0.3767   -0.4889 C   0  0  0  0  0  0  0  0  0  0  0  0
    6.6645    0.3741   -0.1747 O   0  0  0  0  0  0  0  0  0  0  0  0
    7.2100    1.5891    0.3238 C   0  0  0  0  0  0  0  0  0  0  0  0
    4.8588   -0.8221   -1.0271 C   0  0  0  0  0  0  0  0  0  0  0  0
    3.5161   -0.9568   -1.3892 C   0  0  0  0  0  0  0  0  0  0  0  0
   -0.9295   -0.5892   -1.1868 N   0  0  0  0  0  0  0  0  0  0  0  0
   -1.9849   -1.0970   -0.4724 C   0  0  0  0  0  0  0  0  0  0  0  0
   -3.1496   -1.0884   -1.1988 N   0  0  0  0  0  0  0  0  0  0  0  0
   -4.4246   -1.4523   -0.5976 C   0  0  0  0  0  0  0  0  0  0  0  0
   -5.1301   -0.2308   -0.0802 C   0  0  0  0  0  0  0  0  0  0  0  0
   -4.8080    0.3302    1.1592 C   0  0  0  0  0  0  0  0  0  0  0  0
   -5.4693    1.4748    1.5935 C   0  0  0  0  0  0  0  0  0  0  0  0
   -6.4334    2.0275    0.7679 C   0  0  0  0  0  0  0  0  0  0  0  0
   -6.7699    1.5200   -0.4378 N   0  0  0  0  0  0  0  0  0  0  0  0
   -6.1137    0.4051   -0.8312 C   0  0  0  0  0  0  0  0  0  0  0  0
   -1.9130   -1.5543    0.7449 N   0  0  0  0  0  0  0  0  0  0  0  0
   -0.6240   -1.4436    1.2740 C   0  0  0  0  0  0  0  0  0  0  0  0
   -0.3497   -1.8159    2.5195 N   0  0  0  0  0  0  0  0  0  0  0  0
    1.4260   -1.7634    3.5028 H   0  0  0  0  0  0  0  0  0  0  0  0
    2.5603   -0.7582    1.4585 H   0  0  0  0  0  0  0  0  0  0  0  0
    2.4270    2.1465   -0.5608 H   0  0  0  0  0  0  0  0  0  0  0  0
    4.7762    2.3987    0.0825 H   0  0  0  0  0  0  0  0  0  0  0  0
    6.7498    1.8651    1.2784 H   0  0  0  0  0  0  0  0  0  0  0  0
    8.2772    1.4275    0.5034 H   0  0  0  0  0  0  0  0  0  0  0  0
    7.1142    2.3962   -0.4101 H   0  0  0  0  0  0  0  0  0  0  0  0
    5.5410   -1.6558   -1.1734 H   0  0  0  0  0  0  0  0  0  0  0  0
    3.1625   -1.8892   -1.8197 H   0  0  0  0  0  0  0  0  0  0  0  0
   -1.0747   -0.3839   -2.1619 H   0  0  0  0  0  0  0  0  0  0  0  0
   -3.2410   -0.3204   -1.8522 H   0  0  0  0  0  0  0  0  0  0  0  0
   -4.3142   -2.1992    0.1977 H   0  0  0  0  0  0  0  0  0  0  0  0
   -5.0405   -1.9330   -1.3671 H   0  0  0  0  0  0  0  0  0  0  0  0
   -4.0415   -0.1219    1.7870 H   0  0  0  0  0  0  0  0  0  0  0  0
   -5.2352    1.9234    2.5524 H   0  0  0  0  0  0  0  0  0  0  0  0
   -6.9767    2.9206    1.0629 H   0  0  0  0  0  0  0  0  0  0  0  0
   -6.4146    0.0285   -1.8055 H   0  0  0  0  0  0  0  0  0  0  0  0
  1  2  1  0
  2  3  2  0
  3  4  1  0
  4  5  2  3
  5  6  1  0
  6  7  2  0
  7  8  1  0
  8  9  2  0
  9 10  1  0
 10 11  1  0
  9 12  1  0
 12 13  2  0
  4 14  1  0
 14 15  1  0
 15 16  1  0
 16 17  1  0
 17 18  1  0
 18 19  2  0
 19 20  1  0
 20 21  2  0
 21 22  1  0
 22 23  2  0
 15 24  2  0
 24 25  1  0
 25 26  2  0
 26  1  1  0
 25  3  1  0
 13  6  1  0
 23 18  1  0
  1 27  1  0
  2 28  1  0
  7 29  1  0
  8 30  1  0
 11 31  1  0
 11 32  1  0
 11 33  1  0
 12 34  1  0
 13 35  1  0
 14 36  1  0
 16 37  1  0
 17 38  1  0
 17 39  1  0
 19 40  1  0
 20 41  1  0
 21 42  1  0
 23 43  1  0
M  END
>  <ScrubInfo>  (12) 
{"isomerGroup": 0, "isomerId": 11, "confId": 0, "nr_conformers:": 1, "nr_isomers:": 16}

$$$$
_i12
     RDKit          3D

 43 46  0  0  0  0  0  0  0  0999 V2000
    1.3846   -0.1306    3.2202 N   0  0  0  0  0  0  0  0  0  0  0  0
    1.7811   -0.2721    1.8945 C   0  0  0  0  0  0  0  0  0  0  0  0
    0.7778   -0.1196    1.0180 C   0  0  0  0  0  0  0  0  0  0  0  0
    0.5051   -0.1859   -0.4314 C   0  0  0  0  0  0  0  0  0  0  0  0
    1.3318   -0.3805   -1.4157 N   0  0  0  0  0  0  0  0  0  0  0  0
    2.6971   -0.5555   -1.1775 C   0  0  0  0  0  0  0  0  0  0  0  0
    3.5583    0.5440   -1.1716 C   0  0  0  0  0  0  0  0  0  0  0  0
    4.9302    0.3749   -0.9514 C   0  0  0  0  0  0  0  0  0  0  0  0
    5.4529   -0.9027   -0.7494 C   0  0  0  0  0  0  0  0  0  0  0  0
    6.7655   -1.2077   -0.5189 O   0  0  0  0  0  0  0  0  0  0  0  0
    7.6934   -0.1308   -0.5616 C   0  0  0  0  0  0  0  0  0  0  0  0
    4.5939   -2.0045   -0.7774 C   0  0  0  0  0  0  0  0  0  0  0  0
    3.2253   -1.8342   -1.0003 C   0  0  0  0  0  0  0  0  0  0  0  0
   -0.8237   -0.0134   -0.7131 N   0  0  0  0  0  0  0  0  0  0  0  0
   -1.8406    0.2142    0.1714 C   0  0  0  0  0  0  0  0  0  0  0  0
   -3.0435    0.3257   -0.2879 N   0  0  0  0  0  0  0  0  0  0  0  0
   -4.1040    0.5804    0.6922 C   0  0  0  0  0  0  0  0  0  0  0  0
   -5.4611    0.6812    0.0433 C   0  0  0  0  0  0  0  0  0  0  0  0
   -5.8530   -0.1653   -0.9976 C   0  0  0  0  0  0  0  0  0  0  0  0
   -7.1332   -0.0592   -1.5335 C   0  0  0  0  0  0  0  0  0  0  0  0
   -7.9909    0.8874   -0.9992 C   0  0  0  0  0  0  0  0  0  0  0  0
   -7.6599    1.7135    0.0156 N   0  0  0  0  0  0  0  0  0  0  0  0
   -6.4065    1.5888    0.5121 C   0  0  0  0  0  0  0  0  0  0  0  0
   -1.6050    0.3306    1.5267 N   0  0  0  0  0  0  0  0  0  0  0  0
   -0.3792    0.1994    1.9227 C   0  0  0  0  0  0  0  0  0  0  0  0
    0.0719    0.2963    3.2327 N   0  0  0  0  0  0  0  0  0  0  0  0
    2.0485    0.3994    3.7914 H   0  0  0  0  0  0  0  0  0  0  0  0
    2.8196   -0.4913    1.6923 H   0  0  0  0  0  0  0  0  0  0  0  0
    3.1577    1.5395   -1.3442 H   0  0  0  0  0  0  0  0  0  0  0  0
    5.5586    1.2590   -0.9510 H   0  0  0  0  0  0  0  0  0  0  0  0
    7.6949    0.3517   -1.5447 H   0  0  0  0  0  0  0  0  0  0  0  0
    8.6925   -0.5435   -0.3917 H   0  0  0  0  0  0  0  0  0  0  0  0
    7.4925    0.5934    0.2347 H   0  0  0  0  0  0  0  0  0  0  0  0
    4.9950   -3.0051   -0.6346 H   0  0  0  0  0  0  0  0  0  0  0  0
    2.5706   -2.7004   -1.0368 H   0  0  0  0  0  0  0  0  0  0  0  0
   -1.0933   -0.0597   -1.6846 H   0  0  0  0  0  0  0  0  0  0  0  0
   -4.1536   -0.2312    1.4295 H   0  0  0  0  0  0  0  0  0  0  0  0
   -3.8960    1.5207    1.2189 H   0  0  0  0  0  0  0  0  0  0  0  0
   -5.1591   -0.9026   -1.3932 H   0  0  0  0  0  0  0  0  0  0  0  0
   -7.4525   -0.7005   -2.3466 H   0  0  0  0  0  0  0  0  0  0  0  0
   -8.9992    1.0083   -1.3840 H   0  0  0  0  0  0  0  0  0  0  0  0
   -6.1784    2.2664    1.3307 H   0  0  0  0  0  0  0  0  0  0  0  0
   -0.5663   -0.0784    3.9327 H   0  0  0  0  0  0  0  0  0  0  0  0
  1  2  1  0
  2  3  2  0
  3  4  1  0
  4  5  2  3
  5  6  1  0
  6  7  2  0
  7  8  1  0
  8  9  2  0
  9 10  1  0
 10 11  1  0
  9 12  1  0
 12 13  2  0
  4 14  1  0
 14 15  1  0
 15 16  2  3
 16 17  1  0
 17 18  1  0
 18 19  2  0
 19 20  1  0
 20 21  2  0
 21 22  1  0
 22 23  2  0
 15 24  1  0
 24 25  2  0
 25 26  1  0
 26  1  1  0
 25  3  1  0
 13  6  1  0
 23 18  1  0
  1 27  1  0
  2 28  1  0
  7 29  1  0
  8 30  1  0
 11 31  1  0
 11 32  1  0
 11 33  1  0
 12 34  1  0
 13 35  1  0
 14 36  1  0
 17 37  1  0
 17 38  1  0
 19 39  1  0
 20 40  1  0
 21 41  1  0
 23 42  1  0
 26 43  1  0
M  END
>  <ScrubInfo>  (13) 
{"isomerGroup": 0, "isomerId": 12, "confId": 0, "nr_conformers:": 1, "nr_isomers:": 16}

$$$$
_i13
     RDKit          3D

 43 46  0  0  0  0  0  0  0  0999 V2000
    2.2773    0.1979   -1.7035 N   0  0  0  0  0  0  0  0  0  0  0  0
    1.6484   -0.4766   -2.7071 C   0  0  0  0  0  0  0  0  0  0  0  0
    2.1507   -1.1306   -3.7206 N   0  0  0  0  0  0  0  0  0  0  0  0
    1.0440   -1.6650   -4.5072 N   0  0  0  0  0  0  0  0  0  0  0  0
   -0.0669   -1.3108   -3.9295 C   0  0  0  0  0  0  0  0  0  0  0  0
    0.1873   -0.5297   -2.7429 C   0  0  0  0  0  0  0  0  0  0  0  0
   -0.4947    0.0810   -1.7589 C   0  0  0  0  0  0  0  0  0  0  0  0
   -1.8801    0.0923   -1.7389 N   0  0  0  0  0  0  0  0  0  0  0  0
   -2.7416    0.0955   -0.6233 C   0  0  0  0  0  0  0  0  0  0  0  0
   -4.0725    0.4960   -0.8108 C   0  0  0  0  0  0  0  0  0  0  0  0
   -4.9726    0.5650    0.2611 C   0  0  0  0  0  0  0  0  0  0  0  0
   -4.5526    0.2377    1.5475 C   0  0  0  0  0  0  0  0  0  0  0  0
   -5.3202    0.2600    2.6777 O   0  0  0  0  0  0  0  0  0  0  0  0
   -6.6760    0.6619    2.5276 C   0  0  0  0  0  0  0  0  0  0  0  0
   -3.2295   -0.1561    1.7463 C   0  0  0  0  0  0  0  0  0  0  0  0
   -2.3317   -0.2221    0.6747 C   0  0  0  0  0  0  0  0  0  0  0  0
    0.2549    0.7519   -0.7894 N   0  0  0  0  0  0  0  0  0  0  0  0
    1.6274    0.8694   -0.6960 C   0  0  0  0  0  0  0  0  0  0  0  0
    2.1231    1.5606    0.2719 N   0  0  0  0  0  0  0  0  0  0  0  0
    3.5753    1.7287    0.3627 C   0  0  0  0  0  0  0  0  0  0  0  0
    4.3225    0.5145    0.8433 C   0  0  0  0  0  0  0  0  0  0  0  0
    3.7692   -0.3976    1.7463 C   0  0  0  0  0  0  0  0  0  0  0  0
    4.5158   -1.4930    2.1703 C   0  0  0  0  0  0  0  0  0  0  0  0
    5.8045   -1.6349    1.6853 C   0  0  0  0  0  0  0  0  0  0  0  0
    6.3828   -0.7662    0.8290 N   0  0  0  0  0  0  0  0  0  0  0  0
    5.6349    0.2897    0.4379 C   0  0  0  0  0  0  0  0  0  0  0  0
    3.2852    0.1619   -1.7107 H   0  0  0  0  0  0  0  0  0  0  0  0
   -1.0823   -1.5538   -4.2638 H   0  0  0  0  0  0  0  0  0  0  0  0
   -2.3382   -0.2486   -2.5785 H   0  0  0  0  0  0  0  0  0  0  0  0
   -4.4232    0.7765   -1.8016 H   0  0  0  0  0  0  0  0  0  0  0  0
   -5.9888    0.8834    0.0542 H   0  0  0  0  0  0  0  0  0  0  0  0
   -7.2219   -0.0272    1.8747 H   0  0  0  0  0  0  0  0  0  0  0  0
   -6.7443    1.6917    2.1616 H   0  0  0  0  0  0  0  0  0  0  0  0
   -7.1462    0.6277    3.5151 H   0  0  0  0  0  0  0  0  0  0  0  0
   -2.8916   -0.4194    2.7460 H   0  0  0  0  0  0  0  0  0  0  0  0
   -1.3199   -0.5621    0.8777 H   0  0  0  0  0  0  0  0  0  0  0  0
   -0.2828    1.2955   -0.1252 H   0  0  0  0  0  0  0  0  0  0  0  0
    3.7735    2.5435    1.0696 H   0  0  0  0  0  0  0  0  0  0  0  0
    3.9705    2.0668   -0.6041 H   0  0  0  0  0  0  0  0  0  0  0  0
    2.7575   -0.2573    2.1200 H   0  0  0  0  0  0  0  0  0  0  0  0
    4.1027   -2.2157    2.8646 H   0  0  0  0  0  0  0  0  0  0  0  0
    6.4263   -2.4734    1.9851 H   0  0  0  0  0  0  0  0  0  0  0  0
    6.1438    0.9726   -0.2380 H   0  0  0  0  0  0  0  0  0  0  0  0
  1  2  1  0
  2  3  2  0
  3  4  1  0
  4  5  2  0
  5  6  1  0
  6  7  2  0
  7  8  1  0
  8  9  1  0
  9 10  2  0
 10 11  1  0
 11 12  2  0
 12 13  1  0
 13 14  1  0
 12 15  1  0
 15 16  2  0
  7 17  1  0
 17 18  1  0
 18 19  2  3
 19 20  1  0
 20 21  1  0
 21 22  2  0
 22 23  1  0
 23 24  2  0
 24 25  1  0
 25 26  2  0
 18  1  1  0
 26 21  1  0
  6  2  1  0
 16  9  1  0
  1 27  1  0
  5 28  1  0
  8 29  1  0
 10 30  1  0
 11 31  1  0
 14 32  1  0
 14 33  1  0
 14 34  1  0
 15 35  1  0
 16 36  1  0
 17 37  1  0
 20 38  1  0
 20 39  1  0
 22 40  1  0
 23 41  1  0
 24 42  1  0
 26 43  1  0
M  END
>  <ScrubInfo>  (14) 
{"isomerGroup": 0, "isomerId": 13, "confId": 0, "nr_conformers:": 1, "nr_isomers:": 16}

$$$$
_i14
     RDKit          3D

 43 46  0  0  0  0  0  0  0  0999 V2000
    1.3352    3.8087    0.3265 N   0  0  0  0  0  0  0  0  0  0  0  0
    1.8027    2.7364   -0.3803 C   0  0  0  0  0  0  0  0  0  0  0  0
    0.7457    1.8613   -0.4532 C   0  0  0  0  0  0  0  0  0  0  0  0
    0.5436    0.5694   -1.0480 C   0  0  0  0  0  0  0  0  0  0  0  0
    1.6120    0.0058   -1.6985 N   0  0  0  0  0  0  0  0  0  0  0  0
    2.8194   -0.3684   -1.0523 C   0  0  0  0  0  0  0  0  0  0  0  0
    3.9391   -0.6392   -1.8466 C   0  0  0  0  0  0  0  0  0  0  0  0
    5.1429   -1.0475   -1.2658 C   0  0  0  0  0  0  0  0  0  0  0  0
    5.2465   -1.2115    0.1161 C   0  0  0  0  0  0  0  0  0  0  0  0
    6.4771   -1.6141    0.5541 O   0  0  0  0  0  0  0  0  0  0  0  0
    6.6234   -1.8300    1.9522 C   0  0  0  0  0  0  0  0  0  0  0  0
    4.1299   -0.9664    0.9133 C   0  0  0  0  0  0  0  0  0  0  0  0
    2.9233   -0.5548    0.3314 C   0  0  0  0  0  0  0  0  0  0  0  0
   -0.6322    0.0275   -0.9985 N   0  0  0  0  0  0  0  0  0  0  0  0
   -1.6569    0.6785   -0.3346 C   0  0  0  0  0  0  0  0  0  0  0  0
   -2.7495   -0.0016   -0.3809 N   0  0  0  0  0  0  0  0  0  0  0  0
   -3.9458    0.5175    0.2692 C   0  0  0  0  0  0  0  0  0  0  0  0
   -5.1261   -0.4111    0.1515 C   0  0  0  0  0  0  0  0  0  0  0  0
   -6.4345    0.0826    0.1849 C   0  0  0  0  0  0  0  0  0  0  0  0
   -7.5109   -0.7984    0.1236 C   0  0  0  0  0  0  0  0  0  0  0  0
   -7.2448   -2.1546    0.0443 C   0  0  0  0  0  0  0  0  0  0  0  0
   -6.0004   -2.6742    0.0251 N   0  0  0  0  0  0  0  0  0  0  0  0
   -4.9722   -1.7925    0.0775 C   0  0  0  0  0  0  0  0  0  0  0  0
   -1.4955    1.8943    0.2901 N   0  0  0  0  0  0  0  0  0  0  0  0
   -0.3053    2.4988    0.2153 C   0  0  0  0  0  0  0  0  0  0  0  0
    0.0461    3.6858    0.7052 N   0  0  0  0  0  0  0  0  0  0  0  0
    1.8342    4.6550    0.5827 H   0  0  0  0  0  0  0  0  0  0  0  0
    2.8156    2.6969   -0.7549 H   0  0  0  0  0  0  0  0  0  0  0  0
    1.2824   -0.8119   -2.2100 H   0  0  0  0  0  0  0  0  0  0  0  0
    3.8862   -0.5207   -2.9263 H   0  0  0  0  0  0  0  0  0  0  0  0
    6.0062   -1.2428   -1.8974 H   0  0  0  0  0  0  0  0  0  0  0  0
    6.4638   -0.9032    2.5131 H   0  0  0  0  0  0  0  0  0  0  0  0
    5.9554   -2.6243    2.3013 H   0  0  0  0  0  0  0  0  0  0  0  0
    7.6520   -2.1561    2.1342 H   0  0  0  0  0  0  0  0  0  0  0  0
    4.1568   -1.0920    1.9907 H   0  0  0  0  0  0  0  0  0  0  0  0
    2.0660   -0.3961    0.9814 H   0  0  0  0  0  0  0  0  0  0  0  0
   -4.2154    1.4790   -0.1858 H   0  0  0  0  0  0  0  0  0  0  0  0
   -3.7606    0.6773    1.3389 H   0  0  0  0  0  0  0  0  0  0  0  0
   -6.6213    1.1508    0.2561 H   0  0  0  0  0  0  0  0  0  0  0  0
   -8.5324   -0.4364    0.1400 H   0  0  0  0  0  0  0  0  0  0  0  0
   -8.0498   -2.8816   -0.0052 H   0  0  0  0  0  0  0  0  0  0  0  0
   -3.9837   -2.2461    0.0582 H   0  0  0  0  0  0  0  0  0  0  0  0
   -2.2684    2.3502    0.7430 H   0  0  0  0  0  0  0  0  0  0  0  0
  1  2  1  0
  2  3  2  0
  3  4  1  0
  4  5  1  0
  5  6  1  0
  6  7  2  0
  7  8  1  0
  8  9  2  0
  9 10  1  0
 10 11  1  0
  9 12  1  0
 12 13  2  0
  4 14  2  0
 14 15  1  0
 15 16  2  3
 16 17  1  0
 17 18  1  0
 18 19  2  0
 19 20  1  0
 20 21  2  0
 21 22  1  0
 22 23  2  0
 15 24  1  0
 24 25  1  0
 25 26  2  0
 26  1  1  0
 25  3  1  0
 13  6  1  0
 23 18  1  0
  1 27  1  0
  2 28  1  0
  5 29  1  0
  7 30  1  0
  8 31  1  0
 11 32  1  0
 11 33  1  0
 11 34  1  0
 12 35  1  0
 13 36  1  0
 17 37  1  0
 17 38  1  0
 19 39  1  0
 20 40  1  0
 21 41  1  0
 23 42  1  0
 24 43  1  0
M  END
>  <ScrubInfo>  (15) 
{"isomerGroup": 0, "isomerId": 14, "confId": 0, "nr_conformers:": 1, "nr_isomers:": 16}

$$$$
_i15
     RDKit          3D

 43 46  0  0  0  0  0  0  0  0999 V2000
    1.4074   -2.0853    2.5914 N   0  0  0  0  0  0  0  0  0  0  0  0
    1.8683   -1.4625    1.4655 C   0  0  0  0  0  0  0  0  0  0  0  0
    0.7591   -0.9345    0.8421 C   0  0  0  0  0  0  0  0  0  0  0  0
    0.5268   -0.1925   -0.3789 C   0  0  0  0  0  0  0  0  0  0  0  0
    1.3962    0.2730   -1.2177 N   0  0  0  0  0  0  0  0  0  0  0  0
    2.7701    0.1234   -1.0414 C   0  0  0  0  0  0  0  0  0  0  0  0
    3.5014    1.0810   -0.3344 C   0  0  0  0  0  0  0  0  0  0  0  0
    4.8872    0.9534   -0.1830 C   0  0  0  0  0  0  0  0  0  0  0  0
    5.5557   -0.1290   -0.7560 C   0  0  0  0  0  0  0  0  0  0  0  0
    6.8984   -0.3764   -0.6806 O   0  0  0  0  0  0  0  0  0  0  0  0
    7.6960    0.6028   -0.0268 C   0  0  0  0  0  0  0  0  0  0  0  0
    4.8280   -1.0730   -1.4854 C   0  0  0  0  0  0  0  0  0  0  0  0
    3.4453   -0.9422   -1.6376 C   0  0  0  0  0  0  0  0  0  0  0  0
   -0.7991    0.0430   -0.6817 N   0  0  0  0  0  0  0  0  0  0  0  0
   -1.7232   -0.3112    0.1600 C   0  0  0  0  0  0  0  0  0  0  0  0
   -3.0234   -0.0561   -0.1789 N   0  0  0  0  0  0  0  0  0  0  0  0
   -3.9157    0.6602    0.7208 C   0  0  0  0  0  0  0  0  0  0  0  0
   -5.2646    0.8461    0.0836 C   0  0  0  0  0  0  0  0  0  0  0  0
   -5.9768   -0.2239   -0.4695 C   0  0  0  0  0  0  0  0  0  0  0  0
   -7.2353   -0.0070   -1.0230 C   0  0  0  0  0  0  0  0  0  0  0  0
   -7.7496    1.2778   -0.9969 C   0  0  0  0  0  0  0  0  0  0  0  0
   -7.1006    2.3339   -0.4624 N   0  0  0  0  0  0  0  0  0  0  0  0
   -5.8782    2.0949    0.0645 C   0  0  0  0  0  0  0  0  0  0  0  0
   -1.5574   -0.9252    1.3670 N   0  0  0  0  0  0  0  0  0  0  0  0
   -0.3100   -1.2921    1.6854 C   0  0  0  0  0  0  0  0  0  0  0  0
    0.0742   -2.0000    2.7455 N   0  0  0  0  0  0  0  0  0  0  0  0
    1.9434   -2.5894    3.2910 H   0  0  0  0  0  0  0  0  0  0  0  0
    2.9207   -1.4714    1.2249 H   0  0  0  0  0  0  0  0  0  0  0  0
    2.9861    1.9345    0.0982 H   0  0  0  0  0  0  0  0  0  0  0  0
    5.4096    1.7187    0.3805 H   0  0  0  0  0  0  0  0  0  0  0  0
    8.7390    0.2765   -0.0836 H   0  0  0  0  0  0  0  0  0  0  0  0
    7.4300    0.6839    1.0322 H   0  0  0  0  0  0  0  0  0  0  0  0
    7.6228    1.5732   -0.5291 H   0  0  0  0  0  0  0  0  0  0  0  0
    5.3425   -1.9110   -1.9490 H   0  0  0  0  0  0  0  0  0  0  0  0
    2.8918   -1.6708   -2.2233 H   0  0  0  0  0  0  0  0  0  0  0  0
   -3.0283    0.3789   -1.1013 H   0  0  0  0  0  0  0  0  0  0  0  0
   -4.0521    0.1107    1.6592 H   0  0  0  0  0  0  0  0  0  0  0  0
   -3.4715    1.6323    0.9663 H   0  0  0  0  0  0  0  0  0  0  0  0
   -5.5510   -1.2250   -0.4756 H   0  0  0  0  0  0  0  0  0  0  0  0
   -7.8005   -0.8206   -1.4636 H   0  0  0  0  0  0  0  0  0  0  0  0
   -8.7270    1.4985   -1.4166 H   0  0  0  0  0  0  0  0  0  0  0  0
   -5.3937    2.9729    0.4846 H   0  0  0  0  0  0  0  0  0  0  0  0
   -2.3420   -1.3708    1.8157 H   0  0  0  0  0  0  0  0  0  0  0  0
  1  2  1  0
  2  3  2  0
  3  4  1  0
  4  5  2  3
  5  6  1  0
  6  7  2  0
  7  8  1  0
  8  9  2  0
  9 10  1  0
 10 11  1  0
  9 12  1  0
 12 13  2  0
  4 14  1  0
 14 15  2  0
 15 16  1  0
 16 17  1  0
 17 18  1  0
 18 19  2  0
 19 20  1  0
 20 21  2  0
 21 22  1  0
 22 23  2  0
 15 24  1  0
 24 25  1  0
 25 26  2  0
 26  1  1  0
 25  3  1  0
 13  6  1  0
 23 18  1  0
  1 27  1  0
  2 28  1  0
  7 29  1  0
  8 30  1  0
 11 31  1  0
 11 32  1  0
 11 33  1  0
 12 34  1  0
 13 35  1  0
 16 36  1  0
 17 37  1  0
 17 38  1  0
 19 39  1  0
 20 40  1  0
 21 41  1  0
 23 42  1  0
 24 43  1  0
M  END
>  <ScrubInfo>  (16) 
{"isomerGroup": 0, "isomerId": 15, "confId": 0, "nr_conformers:": 1, "nr_isomers:": 16}

$$$$
