REMARK SMILES CCCCNc1nc(Nc2ccc3nc[nH]c3c2)c2cnn(C)c2n1
REMARK SMILES IDX 5 1 4 3 3 4 2 5 1 6 6 7 7 8 25 9 8 10 24 11 19 12 22 13
REMARK SMILES IDX 20 14 21 15 23 16 9 17 10 19 11 20 18 21 12 22 17 23 13 24
REMARK SMILES IDX 16 25 14 26 15 27
REMARK H PARENT 5 2 9 18 16 28
ROOT
ATOM      1  N   UNL     1       2.056  -0.203   0.297  1.00  0.00    -0.354 N 
ATOM      2  H   UNL     1       1.524  -1.062   0.403  1.00  0.00     0.163 HD
ENDROOT
BRANCH   1   3
ATOM      3  C   UNL     1       3.329  -0.343  -0.386  1.00  0.00     0.116 C 
BRANCH   3   4
ATOM      4  C   UNL     1       4.171  -1.431   0.287  1.00  0.00     0.021 C 
BRANCH   4   5
ATOM      5  C   UNL     1       4.620  -1.038   1.697  1.00  0.00    -0.002 C 
ATOM      6  C   UNL     1       5.494  -2.116   2.321  1.00  0.00     0.004 C 
ENDBRANCH   4   5
ENDBRANCH   3   4
ENDBRANCH   1   3
BRANCH   1   7
ATOM      7  C   UNL     1       1.176   0.697  -0.295  1.00  0.00     0.226 A 
ATOM      8  N   UNL     1      -0.117   0.332  -0.232  1.00  0.00    -0.195 NA
ATOM      9  N   UNL     1       1.645   1.813  -0.868  1.00  0.00    -0.193 NA
ATOM     10  C   UNL     1      -1.094   1.117  -0.758  1.00  0.00     0.147 A 
ATOM     11  C   UNL     1       0.673   2.577  -1.384  1.00  0.00     0.165 A 
ATOM     12  C   UNL     1      -0.681   2.306  -1.373  1.00  0.00     0.082 A 
ATOM     13  N   UNL     1       0.815   3.777  -2.025  1.00  0.00    -0.250 N 
ATOM     14  C   UNL     1      -1.261   3.406  -2.040  1.00  0.00     0.149 A 
ATOM     15  N   UNL     1      -0.358   4.306  -2.447  1.00  0.00    -0.179 NA
ATOM     16  C   UNL     1       2.044   4.486  -2.276  1.00  0.00     0.176 C 
BRANCH  10  17
ATOM     17  N   UNL     1      -2.446   0.745  -0.720  1.00  0.00    -0.339 N 
ATOM     18  H   UNL     1      -3.058   1.386  -1.206  1.00  0.00     0.168 HD
BRANCH  17  19
ATOM     19  C   UNL     1      -3.122  -0.306  -0.068  1.00  0.00     0.042 A 
ATOM     20  C   UNL     1      -2.517  -1.139   0.883  1.00  0.00     0.028 A 
ATOM     21  C   UNL     1      -4.461  -0.554  -0.438  1.00  0.00     0.054 A 
ATOM     22  C   UNL     1      -3.207  -2.201   1.493  1.00  0.00     0.033 A 
ATOM     23  C   UNL     1      -5.130  -1.617   0.180  1.00  0.00     0.067 A 
ATOM     24  C   UNL     1      -4.536  -2.438   1.130  1.00  0.00     0.088 A 
ATOM     25  N   UNL     1      -6.402  -2.114   0.053  1.00  0.00    -0.345 N 
ATOM     26  N   UNL     1      -5.416  -3.397   1.569  1.00  0.00    -0.237 NA
ATOM     27  C   UNL     1      -6.526  -3.175   0.904  1.00  0.00     0.197 A 
ATOM     28  H   UNL     1      -7.121  -1.759  -0.560  1.00  0.00     0.168 HD
ENDBRANCH  17  19
ENDBRANCH  10  17
ENDBRANCH   1   7
TORSDOF 6
