_i0
     RDKit          3D

 45 48  0  0  0  0  0  0  0  0999 V2000
    5.4937   -2.1157    2.3209 C   0  0  0  0  0  0  0  0  0  0  0  0
    4.6199   -1.0385    1.6973 C   0  0  0  0  0  0  0  0  0  0  0  0
    4.1708   -1.4305    0.2874 C   0  0  0  0  0  0  0  0  0  0  0  0
    3.3291   -0.3433   -0.3863 C   0  0  0  0  0  0  0  0  0  0  0  0
    2.0557   -0.2031    0.2969 N   0  0  0  0  0  0  0  0  0  0  0  0
    1.1763    0.6966   -0.2954 C   0  0  0  0  0  0  0  0  0  0  0  0
   -0.1167    0.3323   -0.2321 N   0  0  0  0  0  0  0  0  0  0  0  0
   -1.0936    1.1174   -0.7580 C   0  0  0  0  0  0  0  0  0  0  0  0
   -2.4463    0.7454   -0.7200 N   0  0  0  0  0  0  0  0  0  0  0  0
   -3.1220   -0.3057   -0.0678 C   0  0  0  0  0  0  0  0  0  0  0  0
   -2.5170   -1.1392    0.8830 C   0  0  0  0  0  0  0  0  0  0  0  0
   -3.2066   -2.2015    1.4933 C   0  0  0  0  0  0  0  0  0  0  0  0
   -4.5361   -2.4379    1.1298 C   0  0  0  0  0  0  0  0  0  0  0  0
   -5.4161   -3.3965    1.5689 N   0  0  0  0  0  0  0  0  0  0  0  0
   -6.5264   -3.1753    0.9039 C   0  0  0  0  0  0  0  0  0  0  0  0
   -6.4019   -2.1135    0.0528 N   0  0  0  0  0  0  0  0  0  0  0  0
   -5.1298   -1.6167    0.1799 C   0  0  0  0  0  0  0  0  0  0  0  0
   -4.4612   -0.5538   -0.4375 C   0  0  0  0  0  0  0  0  0  0  0  0
   -0.6807    2.3063   -1.3733 C   0  0  0  0  0  0  0  0  0  0  0  0
   -1.2606    3.4062   -2.0401 C   0  0  0  0  0  0  0  0  0  0  0  0
   -0.3582    4.3057   -2.4470 N   0  0  0  0  0  0  0  0  0  0  0  0
    0.8149    3.7770   -2.0254 N   0  0  0  0  0  0  0  0  0  0  0  0
    2.0443    4.4860   -2.2764 C   0  0  0  0  0  0  0  0  0  0  0  0
    0.6734    2.5770   -1.3841 C   0  0  0  0  0  0  0  0  0  0  0  0
    1.6453    1.8128   -0.8677 N   0  0  0  0  0  0  0  0  0  0  0  0
    5.8043   -1.8165    3.3268 H   0  0  0  0  0  0  0  0  0  0  0  0
    6.3952   -2.2845    1.7233 H   0  0  0  0  0  0  0  0  0  0  0  0
    4.9512   -3.0632    2.4005 H   0  0  0  0  0  0  0  0  0  0  0  0
    3.7487   -0.8719    2.3409 H   0  0  0  0  0  0  0  0  0  0  0  0
    5.1813   -0.0977    1.6606 H   0  0  0  0  0  0  0  0  0  0  0  0
    5.0568   -1.6172   -0.3318 H   0  0  0  0  0  0  0  0  0  0  0  0
    3.6044   -2.3692    0.3281 H   0  0  0  0  0  0  0  0  0  0  0  0
    3.8876    0.6009   -0.3777 H   0  0  0  0  0  0  0  0  0  0  0  0
    3.1643   -0.6306   -1.4325 H   0  0  0  0  0  0  0  0  0  0  0  0
    1.5244   -1.0619    0.4033 H   0  0  0  0  0  0  0  0  0  0  0  0
   -3.0576    1.3856   -1.2058 H   0  0  0  0  0  0  0  0  0  0  0  0
   -1.4897   -0.9719    1.1929 H   0  0  0  0  0  0  0  0  0  0  0  0
   -2.7222   -2.8289    2.2329 H   0  0  0  0  0  0  0  0  0  0  0  0
   -7.4424   -3.7437    0.9941 H   0  0  0  0  0  0  0  0  0  0  0  0
   -7.1214   -1.7590   -0.5599 H   0  0  0  0  0  0  0  0  0  0  0  0
   -4.9615    0.0533   -1.1837 H   0  0  0  0  0  0  0  0  0  0  0  0
   -2.3055    3.5937   -2.2486 H   0  0  0  0  0  0  0  0  0  0  0  0
    2.8893    3.9291   -1.8655 H   0  0  0  0  0  0  0  0  0  0  0  0
    1.9795    5.4665   -1.7979 H   0  0  0  0  0  0  0  0  0  0  0  0
    2.1631    4.5954   -3.3574 H   0  0  0  0  0  0  0  0  0  0  0  0
  1  2  1  0
  2  3  1  0
  3  4  1  0
  4  5  1  0
  5  6  1  0
  6  7  2  0
  7  8  1  0
  8  9  1  0
  9 10  1  0
 10 11  2  0
 11 12  1  0
 12 13  2  0
 13 14  1  0
 14 15  2  0
 15 16  1  0
 16 17  1  0
 17 18  2  0
  8 19  2  0
 19 20  1  0
 20 21  2  0
 21 22  1  0
 22 23  1  0
 22 24  1  0
 24 25  2  0
 25  6  1  0
 18 10  1  0
 24 19  1  0
 17 13  1  0
  1 26  1  0
  1 27  1  0
  1 28  1  0
  2 29  1  0
  2 30  1  0
  3 31  1  0
  3 32  1  0
  4 33  1  0
  4 34  1  0
  5 35  1  0
  9 36  1  0
 11 37  1  0
 12 38  1  0
 15 39  1  0
 16 40  1  0
 18 41  1  0
 20 42  1  0
 23 43  1  0
 23 44  1  0
 23 45  1  0
M  END
>  <ScrubInfo>  (1) 
{"isomerGroup": 0, "isomerId": 0, "confId": 0, "nr_conformers:": 1, "nr_isomers:": 16}

$$$$
_i1
     RDKit          3D

 45 48  0  0  0  0  0  0  0  0999 V2000
   -0.2636    0.5436   -1.0243 N   0  0  0  0  0  0  0  0  0  0  0  0
    0.9376   -0.1219   -0.8903 C   0  0  0  0  0  0  0  0  0  0  0  0
    2.1256    0.4702   -1.2764 N   0  0  0  0  0  0  0  0  0  0  0  0
    3.2891    0.6307   -0.4818 C   0  0  0  0  0  0  0  0  0  0  0  0
    3.3087    0.4012    0.9030 C   0  0  0  0  0  0  0  0  0  0  0  0
    4.4850    0.5425    1.6568 C   0  0  0  0  0  0  0  0  0  0  0  0
    5.6642    0.9168    1.0020 C   0  0  0  0  0  0  0  0  0  0  0  0
    6.9256    1.1170    1.5042 N   0  0  0  0  0  0  0  0  0  0  0  0
    7.6606    1.4497    0.4682 C   0  0  0  0  0  0  0  0  0  0  0  0
    6.9268    1.4748   -0.6843 N   0  0  0  0  0  0  0  0  0  0  0  0
    5.6345    1.1389   -0.3693 C   0  0  0  0  0  0  0  0  0  0  0  0
    4.4758    1.0078   -1.1405 C   0  0  0  0  0  0  0  0  0  0  0  0
    0.8436   -1.3745   -0.4256 C   0  0  0  0  0  0  0  0  0  0  0  0
    1.7406   -2.4966   -0.1268 C   0  0  0  0  0  0  0  0  0  0  0  0
    1.1105   -3.5428    0.3473 N   0  0  0  0  0  0  0  0  0  0  0  0
   -0.2501   -3.1954    0.3391 N   0  0  0  0  0  0  0  0  0  0  0  0
   -1.1874   -4.0166    1.0650 C   0  0  0  0  0  0  0  0  0  0  0  0
   -0.4951   -1.8960   -0.0730 C   0  0  0  0  0  0  0  0  0  0  0  0
   -1.6018   -1.2372   -0.1472 N   0  0  0  0  0  0  0  0  0  0  0  0
   -1.4793    0.0486   -0.6252 C   0  0  0  0  0  0  0  0  0  0  0  0
   -2.5109    0.8237   -0.7044 N   0  0  0  0  0  0  0  0  0  0  0  0
   -3.7923    0.2644   -0.2704 C   0  0  0  0  0  0  0  0  0  0  0  0
   -4.8635    1.3399   -0.4499 C   0  0  0  0  0  0  0  0  0  0  0  0
   -6.2393    0.8357   -0.0175 C   0  0  0  0  0  0  0  0  0  0  0  0
   -7.3057    1.9045   -0.1955 C   0  0  0  0  0  0  0  0  0  0  0  0
   -0.2580    1.5185   -1.2796 H   0  0  0  0  0  0  0  0  0  0  0  0
    1.9873    1.2834   -1.8704 H   0  0  0  0  0  0  0  0  0  0  0  0
    2.4015    0.1315    1.4379 H   0  0  0  0  0  0  0  0  0  0  0  0
    4.4891    0.3703    2.7276 H   0  0  0  0  0  0  0  0  0  0  0  0
    8.7175    1.6806    0.4895 H   0  0  0  0  0  0  0  0  0  0  0  0
    7.2771    1.7005   -1.6038 H   0  0  0  0  0  0  0  0  0  0  0  0
    4.4953    1.1733   -2.2126 H   0  0  0  0  0  0  0  0  0  0  0  0
    2.8239   -2.4188   -0.2841 H   0  0  0  0  0  0  0  0  0  0  0  0
   -1.2153   -3.7216    2.1185 H   0  0  0  0  0  0  0  0  0  0  0  0
   -2.1954   -3.9198    0.6492 H   0  0  0  0  0  0  0  0  0  0  0  0
   -0.9035   -5.0725    1.0084 H   0  0  0  0  0  0  0  0  0  0  0  0
   -4.0558   -0.6125   -0.8744 H   0  0  0  0  0  0  0  0  0  0  0  0
   -3.7481   -0.0289    0.7856 H   0  0  0  0  0  0  0  0  0  0  0  0
   -4.8960    1.6534   -1.5010 H   0  0  0  0  0  0  0  0  0  0  0  0
   -4.5928    2.2284    0.1344 H   0  0  0  0  0  0  0  0  0  0  0  0
   -6.2099    0.5289    1.0345 H   0  0  0  0  0  0  0  0  0  0  0  0
   -6.5140   -0.0477   -0.6056 H   0  0  0  0  0  0  0  0  0  0  0  0
   -8.2817    1.5225    0.1198 H   0  0  0  0  0  0  0  0  0  0  0  0
   -7.3832    2.2107   -1.2437 H   0  0  0  0  0  0  0  0  0  0  0  0
   -7.0773    2.7905    0.4056 H   0  0  0  0  0  0  0  0  0  0  0  0
  1  2  1  0
  2  3  1  0
  3  4  1  0
  4  5  2  0
  5  6  1  0
  6  7  2  0
  7  8  1  0
  8  9  2  0
  9 10  1  0
 10 11  1  0
 11 12  2  0
  2 13  2  0
 13 14  1  0
 14 15  2  0
 15 16  1  0
 16 17  1  0
 16 18  1  0
 18 19  2  0
 19 20  1  0
 20 21  2  3
 21 22  1  0
 22 23  1  0
 23 24  1  0
 24 25  1  0
 20  1  1  0
 12  4  1  0
 18 13  1  0
 11  7  1  0
  1 26  1  0
  3 27  1  0
  5 28  1  0
  6 29  1  0
  9 30  1  0
 10 31  1  0
 12 32  1  0
 14 33  1  0
 17 34  1  0
 17 35  1  0
 17 36  1  0
 22 37  1  0
 22 38  1  0
 23 39  1  0
 23 40  1  0
 24 41  1  0
 24 42  1  0
 25 43  1  0
 25 44  1  0
 25 45  1  0
M  END
>  <ScrubInfo>  (2) 
{"isomerGroup": 0, "isomerId": 1, "confId": 0, "nr_conformers:": 1, "nr_isomers:": 16}

$$$$
_i2
     RDKit          3D

 45 48  0  0  0  0  0  0  0  0999 V2000
    0.4087   -0.4905   -0.9675 N   0  0  0  0  0  0  0  0  0  0  0  0
    1.4280   -0.1243   -0.1212 C   0  0  0  0  0  0  0  0  0  0  0  0
    2.6513   -0.5784   -0.5398 N   0  0  0  0  0  0  0  0  0  0  0  0
    3.8620   -0.1958    0.1750 C   0  0  0  0  0  0  0  0  0  0  0  0
    5.0570   -0.9577   -0.3967 C   0  0  0  0  0  0  0  0  0  0  0  0
    6.3491   -0.5960    0.3342 C   0  0  0  0  0  0  0  0  0  0  0  0
    7.5403   -1.3518   -0.2328 C   0  0  0  0  0  0  0  0  0  0  0  0
    1.2483    0.5721    0.9709 N   0  0  0  0  0  0  0  0  0  0  0  0
   -0.0611    0.9047    1.1497 C   0  0  0  0  0  0  0  0  0  0  0  0
   -1.1514    0.5801    0.3566 C   0  0  0  0  0  0  0  0  0  0  0  0
   -2.2423    1.1930    0.9980 C   0  0  0  0  0  0  0  0  0  0  0  0
   -1.8887    1.8441    2.1138 N   0  0  0  0  0  0  0  0  0  0  0  0
   -0.5519    1.6527    2.1824 N   0  0  0  0  0  0  0  0  0  0  0  0
    0.1886    2.2300    3.2756 C   0  0  0  0  0  0  0  0  0  0  0  0
   -0.9351   -0.2302   -0.8256 C   0  0  0  0  0  0  0  0  0  0  0  0
   -1.8079   -0.6964   -1.6665 N   0  0  0  0  0  0  0  0  0  0  0  0
   -3.1760   -0.4553   -1.5246 C   0  0  0  0  0  0  0  0  0  0  0  0
   -3.7660    0.6118   -2.2126 C   0  0  0  0  0  0  0  0  0  0  0  0
   -5.1420    0.8659   -2.1196 C   0  0  0  0  0  0  0  0  0  0  0  0
   -5.9285    0.0168   -1.3291 C   0  0  0  0  0  0  0  0  0  0  0  0
   -7.2771    0.0501   -1.0747 N   0  0  0  0  0  0  0  0  0  0  0  0
   -7.5035   -0.9694   -0.2783 C   0  0  0  0  0  0  0  0  0  0  0  0
   -6.3582   -1.6644   -0.0086 N   0  0  0  0  0  0  0  0  0  0  0  0
   -5.3263   -1.0503   -0.6708 C   0  0  0  0  0  0  0  0  0  0  0  0
   -3.9592   -1.3266   -0.7525 C   0  0  0  0  0  0  0  0  0  0  0  0
    0.6205   -1.1485   -1.6989 H   0  0  0  0  0  0  0  0  0  0  0  0
    2.7718   -0.5663   -1.5457 H   0  0  0  0  0  0  0  0  0  0  0  0
    4.0223    0.8839    0.0747 H   0  0  0  0  0  0  0  0  0  0  0  0
    3.7566   -0.4286    1.2412 H   0  0  0  0  0  0  0  0  0  0  0  0
    5.1618   -0.7326   -1.4657 H   0  0  0  0  0  0  0  0  0  0  0  0
    4.8765   -2.0373   -0.3191 H   0  0  0  0  0  0  0  0  0  0  0  0
    6.2511   -0.8280    1.4011 H   0  0  0  0  0  0  0  0  0  0  0  0
    6.5345    0.4813    0.2519 H   0  0  0  0  0  0  0  0  0  0  0  0
    8.4536   -1.0780    0.3047 H   0  0  0  0  0  0  0  0  0  0  0  0
    7.6860   -1.1167   -1.2919 H   0  0  0  0  0  0  0  0  0  0  0  0
    7.4006   -2.4333   -0.1365 H   0  0  0  0  0  0  0  0  0  0  0  0
   -3.2864    1.2056    0.7172 H   0  0  0  0  0  0  0  0  0  0  0  0
    0.1084    3.3178    3.2070 H   0  0  0  0  0  0  0  0  0  0  0  0
   -0.2465    1.8736    4.2129 H   0  0  0  0  0  0  0  0  0  0  0  0
    1.2375    1.9310    3.2203 H   0  0  0  0  0  0  0  0  0  0  0  0
   -3.1473    1.2573   -2.8310 H   0  0  0  0  0  0  0  0  0  0  0  0
   -5.5971    1.6967   -2.6468 H   0  0  0  0  0  0  0  0  0  0  0  0
   -8.4642   -1.2521    0.1309 H   0  0  0  0  0  0  0  0  0  0  0  0
   -6.2852   -2.4825    0.5785 H   0  0  0  0  0  0  0  0  0  0  0  0
   -3.5126   -2.1713   -0.2403 H   0  0  0  0  0  0  0  0  0  0  0  0
  1  2  1  0
  2  3  1  0
  3  4  1  0
  4  5  1  0
  5  6  1  0
  6  7  1  0
  2  8  2  0
  8  9  1  0
  9 10  2  0
 10 11  1  0
 11 12  2  0
 12 13  1  0
 13 14  1  0
 10 15  1  0
 15 16  2  3
 16 17  1  0
 17 18  2  0
 18 19  1  0
 19 20  2  0
 20 21  1  0
 21 22  2  0
 22 23  1  0
 23 24  1  0
 24 25  2  0
 15  1  1  0
 25 17  1  0
 13  9  1  0
 24 20  1  0
  1 26  1  0
  3 27  1  0
  4 28  1  0
  4 29  1  0
  5 30  1  0
  5 31  1  0
  6 32  1  0
  6 33  1  0
  7 34  1  0
  7 35  1  0
  7 36  1  0
 11 37  1  0
 14 38  1  0
 14 39  1  0
 14 40  1  0
 18 41  1  0
 19 42  1  0
 22 43  1  0
 23 44  1  0
 25 45  1  0
M  END
>  <ScrubInfo>  (3) 
{"isomerGroup": 0, "isomerId": 2, "confId": 0, "nr_conformers:": 1, "nr_isomers:": 16}

$$$$
_i3
     RDKit          3D

 45 48  0  0  0  0  0  0  0  0999 V2000
   -6.7878    1.4476   -0.0616 N   0  0  0  0  0  0  0  0  0  0  0  0
   -6.9663    2.3344    0.9626 C   0  0  0  0  0  0  0  0  0  0  0  0
   -5.8281    2.6462    1.5387 N   0  0  0  0  0  0  0  0  0  0  0  0
   -4.8722    1.9291    0.8602 C   0  0  0  0  0  0  0  0  0  0  0  0
   -3.4837    1.8769    1.0508 C   0  0  0  0  0  0  0  0  0  0  0  0
   -2.7021    1.0476    0.2276 C   0  0  0  0  0  0  0  0  0  0  0  0
   -1.3044    1.0379    0.4362 N   0  0  0  0  0  0  0  0  0  0  0  0
   -0.3667    0.0865    0.0086 C   0  0  0  0  0  0  0  0  0  0  0  0
    0.7976    0.5571   -0.5023 N   0  0  0  0  0  0  0  0  0  0  0  0
    1.7478   -0.2985   -0.9265 C   0  0  0  0  0  0  0  0  0  0  0  0
    2.9236    0.1969   -1.4664 N   0  0  0  0  0  0  0  0  0  0  0  0
    3.4131    1.4649   -0.9559 C   0  0  0  0  0  0  0  0  0  0  0  0
    3.9300    1.3755    0.4842 C   0  0  0  0  0  0  0  0  0  0  0  0
    5.0704    0.3785    0.7142 C   0  0  0  0  0  0  0  0  0  0  0  0
    6.3159    0.6757   -0.1058 C   0  0  0  0  0  0  0  0  0  0  0  0
    1.6744   -1.6352   -0.8780 N   0  0  0  0  0  0  0  0  0  0  0  0
    0.5280   -2.0748   -0.3379 C   0  0  0  0  0  0  0  0  0  0  0  0
   -0.5145   -1.2968    0.1241 C   0  0  0  0  0  0  0  0  0  0  0  0
   -1.4536   -2.2250    0.6189 C   0  0  0  0  0  0  0  0  0  0  0  0
   -1.0633   -3.4956    0.4588 N   0  0  0  0  0  0  0  0  0  0  0  0
    0.1511   -3.3728   -0.1263 N   0  0  0  0  0  0  0  0  0  0  0  0
    0.9047   -4.5579   -0.4490 C   0  0  0  0  0  0  0  0  0  0  0  0
   -3.3235    0.3141   -0.7954 C   0  0  0  0  0  0  0  0  0  0  0  0
   -4.7102    0.3503   -1.0041 C   0  0  0  0  0  0  0  0  0  0  0  0
   -5.4478    1.1692   -0.1510 C   0  0  0  0  0  0  0  0  0  0  0  0
   -7.5148    1.0658   -0.6487 H   0  0  0  0  0  0  0  0  0  0  0  0
   -7.9409    2.7141    1.2389 H   0  0  0  0  0  0  0  0  0  0  0  0
   -3.0350    2.4659    1.8432 H   0  0  0  0  0  0  0  0  0  0  0  0
   -0.9050    1.9562    0.2515 H   0  0  0  0  0  0  0  0  0  0  0  0
    3.5911   -0.5646   -1.4878 H   0  0  0  0  0  0  0  0  0  0  0  0
    2.6390    2.2395   -1.0241 H   0  0  0  0  0  0  0  0  0  0  0  0
    4.2203    1.8057   -1.6138 H   0  0  0  0  0  0  0  0  0  0  0  0
    4.2681    2.3737    0.7898 H   0  0  0  0  0  0  0  0  0  0  0  0
    3.1051    1.1140    1.1581 H   0  0  0  0  0  0  0  0  0  0  0  0
    4.7321   -0.6428    0.5073 H   0  0  0  0  0  0  0  0  0  0  0  0
    5.3396    0.4050    1.7772 H   0  0  0  0  0  0  0  0  0  0  0  0
    6.1341    0.5365   -1.1755 H   0  0  0  0  0  0  0  0  0  0  0  0
    6.6591    1.7020    0.0580 H   0  0  0  0  0  0  0  0  0  0  0  0
    7.1256   -0.0023    0.1826 H   0  0  0  0  0  0  0  0  0  0  0  0
   -2.4086   -2.0248    1.0882 H   0  0  0  0  0  0  0  0  0  0  0  0
    1.1153   -5.0944    0.4796 H   0  0  0  0  0  0  0  0  0  0  0  0
    0.3029   -5.1766   -1.1197 H   0  0  0  0  0  0  0  0  0  0  0  0
    1.8413   -4.2846   -0.9401 H   0  0  0  0  0  0  0  0  0  0  0  0
   -2.7277   -0.2949   -1.4726 H   0  0  0  0  0  0  0  0  0  0  0  0
   -5.1736   -0.2255   -1.7976 H   0  0  0  0  0  0  0  0  0  0  0  0
  1  2  1  0
  2  3  2  0
  3  4  1  0
  4  5  2  0
  5  6  1  0
  6  7  1  0
  7  8  1  0
  8  9  2  0
  9 10  1  0
 10 11  1  0
 11 12  1  0
 12 13  1  0
 13 14  1  0
 14 15  1  0
 10 16  2  0
 16 17  1  0
 17 18  2  0
 18 19  1  0
 19 20  2  0
 20 21  1  0
 21 22  1  0
  6 23  2  0
 23 24  1  0
 24 25  2  0
 25  1  1  0
 25  4  1  0
 18  8  1  0
 21 17  1  0
  1 26  1  0
  2 27  1  0
  5 28  1  0
  7 29  1  0
 11 30  1  0
 12 31  1  0
 12 32  1  0
 13 33  1  0
 13 34  1  0
 14 35  1  0
 14 36  1  0
 15 37  1  0
 15 38  1  0
 15 39  1  0
 19 40  1  0
 22 41  1  0
 22 42  1  0
 22 43  1  0
 23 44  1  0
 24 45  1  0
M  END
>  <ScrubInfo>  (4) 
{"isomerGroup": 0, "isomerId": 3, "confId": 0, "nr_conformers:": 1, "nr_isomers:": 16}

$$$$
_i4
     RDKit          3D

 45 48  0  0  0  0  0  0  0  0999 V2000
   -1.5993    2.2188   -0.9240 N   0  0  0  0  0  0  0  0  0  0  0  0
   -1.9405    0.9319   -0.5663 C   0  0  0  0  0  0  0  0  0  0  0  0
   -3.1489    0.5401   -0.8043 N   0  0  0  0  0  0  0  0  0  0  0  0
   -3.5329   -0.8261   -0.4451 C   0  0  0  0  0  0  0  0  0  0  0  0
   -4.1041   -0.8431    0.9724 C   0  0  0  0  0  0  0  0  0  0  0  0
   -4.4622   -2.2462    1.4649 C   0  0  0  0  0  0  0  0  0  0  0  0
   -5.5908   -2.8957    0.6793 C   0  0  0  0  0  0  0  0  0  0  0  0
   -1.0299    0.0768    0.0381 N   0  0  0  0  0  0  0  0  0  0  0  0
    0.1851    0.4977    0.2591 C   0  0  0  0  0  0  0  0  0  0  0  0
    1.1380   -0.2777    0.8713 N   0  0  0  0  0  0  0  0  0  0  0  0
    2.3768   -0.6349    0.2677 C   0  0  0  0  0  0  0  0  0  0  0  0
    2.5849   -0.5840   -1.1198 C   0  0  0  0  0  0  0  0  0  0  0  0
    3.8026   -0.9835   -1.6922 C   0  0  0  0  0  0  0  0  0  0  0  0
    4.8193   -1.4561   -0.8531 C   0  0  0  0  0  0  0  0  0  0  0  0
    6.0804   -1.9014   -1.1617 N   0  0  0  0  0  0  0  0  0  0  0  0
    6.6217   -2.2298   -0.0113 C   0  0  0  0  0  0  0  0  0  0  0  0
    5.7620   -2.0190    1.0298 N   0  0  0  0  0  0  0  0  0  0  0  0
    4.5913   -1.5211    0.5164 C   0  0  0  0  0  0  0  0  0  0  0  0
    3.3877   -1.1330    1.1112 C   0  0  0  0  0  0  0  0  0  0  0  0
    0.5744    1.8497   -0.0734 C   0  0  0  0  0  0  0  0  0  0  0  0
    1.7070    2.6686    0.0494 C   0  0  0  0  0  0  0  0  0  0  0  0
    1.5003    3.9015   -0.4418 N   0  0  0  0  0  0  0  0  0  0  0  0
    0.2164    3.8666   -0.8782 N   0  0  0  0  0  0  0  0  0  0  0  0
   -0.3555    5.0466   -1.4743 C   0  0  0  0  0  0  0  0  0  0  0  0
   -0.3589    2.6560   -0.6633 C   0  0  0  0  0  0  0  0  0  0  0  0
   -2.3492    2.7547   -1.3397 H   0  0  0  0  0  0  0  0  0  0  0  0
   -2.7105   -1.5431   -0.5528 H   0  0  0  0  0  0  0  0  0  0  0  0
   -4.3005   -1.1446   -1.1589 H   0  0  0  0  0  0  0  0  0  0  0  0
   -3.3718   -0.4127    1.6668 H   0  0  0  0  0  0  0  0  0  0  0  0
   -4.9885   -0.1956    1.0209 H   0  0  0  0  0  0  0  0  0  0  0  0
   -3.5760   -2.8906    1.4308 H   0  0  0  0  0  0  0  0  0  0  0  0
   -4.7641   -2.1785    2.5169 H   0  0  0  0  0  0  0  0  0  0  0  0
   -5.2962   -3.0956   -0.3551 H   0  0  0  0  0  0  0  0  0  0  0  0
   -5.8640   -3.8523    1.1362 H   0  0  0  0  0  0  0  0  0  0  0  0
   -6.4806   -2.2585    0.6698 H   0  0  0  0  0  0  0  0  0  0  0  0
    0.6982   -1.1417    1.1838 H   0  0  0  0  0  0  0  0  0  0  0  0
    1.7997   -0.2402   -1.7899 H   0  0  0  0  0  0  0  0  0  0  0  0
    3.9605   -0.9360   -2.7641 H   0  0  0  0  0  0  0  0  0  0  0  0
    7.6205   -2.6212    0.1299 H   0  0  0  0  0  0  0  0  0  0  0  0
    5.9577   -2.1965    2.0041 H   0  0  0  0  0  0  0  0  0  0  0  0
    3.2432   -1.1951    2.1849 H   0  0  0  0  0  0  0  0  0  0  0  0
    2.6744    2.4300    0.4721 H   0  0  0  0  0  0  0  0  0  0  0  0
   -0.3695    5.8393   -0.7222 H   0  0  0  0  0  0  0  0  0  0  0  0
    0.2642    5.3382   -2.3261 H   0  0  0  0  0  0  0  0  0  0  0  0
   -1.3725    4.8375   -1.8127 H   0  0  0  0  0  0  0  0  0  0  0  0
  1  2  1  0
  2  3  2  3
  3  4  1  0
  4  5  1  0
  5  6  1  0
  6  7  1  0
  2  8  1  0
  8  9  2  0
  9 10  1  0
 10 11  1  0
 11 12  2  0
 12 13  1  0
 13 14  2  0
 14 15  1  0
 15 16  2  0
 16 17  1  0
 17 18  1  0
 18 19  2  0
  9 20  1  0
 20 21  1  0
 21 22  2  0
 22 23  1  0
 23 24  1  0
 23 25  1  0
 25  1  1  0
 19 11  1  0
 25 20  2  0
 18 14  1  0
  1 26  1  0
  4 27  1  0
  4 28  1  0
  5 29  1  0
  5 30  1  0
  6 31  1  0
  6 32  1  0
  7 33  1  0
  7 34  1  0
  7 35  1  0
 10 36  1  0
 12 37  1  0
 13 38  1  0
 16 39  1  0
 17 40  1  0
 19 41  1  0
 21 42  1  0
 24 43  1  0
 24 44  1  0
 24 45  1  0
M  END
>  <ScrubInfo>  (5) 
{"isomerGroup": 0, "isomerId": 4, "confId": 0, "nr_conformers:": 1, "nr_isomers:": 16}

$$$$
_i5
     RDKit          3D

 45 48  0  0  0  0  0  0  0  0999 V2000
    1.4533   -3.0301   -0.1892 N   0  0  0  0  0  0  0  0  0  0  0  0
    1.9224   -1.7250   -0.0763 C   0  0  0  0  0  0  0  0  0  0  0  0
    0.9449   -0.8066   -0.0261 C   0  0  0  0  0  0  0  0  0  0  0  0
    0.7914    0.6410    0.0513 C   0  0  0  0  0  0  0  0  0  0  0  0
    1.6751    1.5768    0.1636 N   0  0  0  0  0  0  0  0  0  0  0  0
    3.0341    1.2664    0.2472 C   0  0  0  0  0  0  0  0  0  0  0  0
    3.6178    1.0086    1.4938 C   0  0  0  0  0  0  0  0  0  0  0  0
    4.9798    0.6954    1.6088 C   0  0  0  0  0  0  0  0  0  0  0  0
    5.7602    0.6633    0.4448 C   0  0  0  0  0  0  0  0  0  0  0  0
    7.0943    0.3802    0.2869 N   0  0  0  0  0  0  0  0  0  0  0  0
    7.3252    0.5110   -0.9994 C   0  0  0  0  0  0  0  0  0  0  0  0
    6.1948    0.8601   -1.6833 N   0  0  0  0  0  0  0  0  0  0  0  0
    5.1677    0.9540   -0.7796 C   0  0  0  0  0  0  0  0  0  0  0  0
    3.8137    1.2676   -0.9187 C   0  0  0  0  0  0  0  0  0  0  0  0
   -0.5093    1.0653   -0.0164 N   0  0  0  0  0  0  0  0  0  0  0  0
   -1.5225    0.2537   -0.0889 C   0  0  0  0  0  0  0  0  0  0  0  0
   -2.7533    0.8393   -0.1435 N   0  0  0  0  0  0  0  0  0  0  0  0
   -3.9198    0.1755   -0.6802 C   0  0  0  0  0  0  0  0  0  0  0  0
   -5.1644    1.0466   -0.5047 C   0  0  0  0  0  0  0  0  0  0  0  0
   -5.5623    1.2142    0.9638 C   0  0  0  0  0  0  0  0  0  0  0  0
   -6.8292    2.0437    1.1042 C   0  0  0  0  0  0  0  0  0  0  0  0
   -1.4454   -1.1126   -0.1170 N   0  0  0  0  0  0  0  0  0  0  0  0
   -0.2722   -1.6388   -0.0683 C   0  0  0  0  0  0  0  0  0  0  0  0
    0.0727   -2.9910   -0.0633 N   0  0  0  0  0  0  0  0  0  0  0  0
   -0.7308   -3.9723   -0.7652 C   0  0  0  0  0  0  0  0  0  0  0  0
    1.9430   -3.6865    0.4240 H   0  0  0  0  0  0  0  0  0  0  0  0
    2.9907   -1.5700   -0.0379 H   0  0  0  0  0  0  0  0  0  0  0  0
    3.0031    1.0534    2.3898 H   0  0  0  0  0  0  0  0  0  0  0  0
    5.4294    0.4898    2.5737 H   0  0  0  0  0  0  0  0  0  0  0  0
    8.2796    0.3700   -1.4891 H   0  0  0  0  0  0  0  0  0  0  0  0
    6.1285    1.0231   -2.6775 H   0  0  0  0  0  0  0  0  0  0  0  0
    3.3721    1.5042   -1.8803 H   0  0  0  0  0  0  0  0  0  0  0  0
   -2.6806    1.8350   -0.3168 H   0  0  0  0  0  0  0  0  0  0  0  0
   -4.0770   -0.7915   -0.1885 H   0  0  0  0  0  0  0  0  0  0  0  0
   -3.7659   -0.0146   -1.7486 H   0  0  0  0  0  0  0  0  0  0  0  0
   -5.9944    0.5806   -1.0500 H   0  0  0  0  0  0  0  0  0  0  0  0
   -4.9975    2.0323   -0.9567 H   0  0  0  0  0  0  0  0  0  0  0  0
   -5.7248    0.2306    1.4196 H   0  0  0  0  0  0  0  0  0  0  0  0
   -4.7554    1.7017    1.5226 H   0  0  0  0  0  0  0  0  0  0  0  0
   -7.0967    2.1511    2.1601 H   0  0  0  0  0  0  0  0  0  0  0  0
   -6.6905    3.0454    0.6852 H   0  0  0  0  0  0  0  0  0  0  0  0
   -7.6691    1.5679    0.5879 H   0  0  0  0  0  0  0  0  0  0  0  0
   -1.7716   -3.9308   -0.4284 H   0  0  0  0  0  0  0  0  0  0  0  0
   -0.3565   -4.9823   -0.5686 H   0  0  0  0  0  0  0  0  0  0  0  0
   -0.7046   -3.7958   -1.8456 H   0  0  0  0  0  0  0  0  0  0  0  0
  1  2  1  0
  2  3  2  0
  3  4  1  0
  4  5  2  3
  5  6  1  0
  6  7  2  0
  7  8  1  0
  8  9  2  0
  9 10  1  0
 10 11  2  0
 11 12  1  0
 12 13  1  0
 13 14  2  0
  4 15  1  0
 15 16  2  0
 16 17  1  0
 17 18  1  0
 18 19  1  0
 19 20  1  0
 20 21  1  0
 16 22  1  0
 22 23  2  0
 23 24  1  0
 24 25  1  0
 24  1  1  0
 23  3  1  0
 14  6  1  0
 13  9  1  0
  1 26  1  0
  2 27  1  0
  7 28  1  0
  8 29  1  0
 11 30  1  0
 12 31  1  0
 14 32  1  0
 17 33  1  0
 18 34  1  0
 18 35  1  0
 19 36  1  0
 19 37  1  0
 20 38  1  0
 20 39  1  0
 21 40  1  0
 21 41  1  0
 21 42  1  0
 25 43  1  0
 25 44  1  0
 25 45  1  0
M  END
>  <ScrubInfo>  (6) 
{"isomerGroup": 0, "isomerId": 5, "confId": 0, "nr_conformers:": 1, "nr_isomers:": 16}

$$$$
_i6
     RDKit          3D

 45 48  0  0  0  0  0  0  0  0999 V2000
   -1.4319    0.7577   -0.2452 N   0  0  0  0  0  0  0  0  0  0  0  0
   -1.5200   -0.6000   -0.0704 C   0  0  0  0  0  0  0  0  0  0  0  0
   -2.7907   -1.0886    0.0347 N   0  0  0  0  0  0  0  0  0  0  0  0
   -3.7189   -0.5823    1.0374 C   0  0  0  0  0  0  0  0  0  0  0  0
   -5.0866   -1.2493    0.8840 C   0  0  0  0  0  0  0  0  0  0  0  0
   -5.7823   -0.9899   -0.4564 C   0  0  0  0  0  0  0  0  0  0  0  0
   -6.0796    0.4791   -0.7142 C   0  0  0  0  0  0  0  0  0  0  0  0
   -0.5138   -1.4247   -0.0228 N   0  0  0  0  0  0  0  0  0  0  0  0
    0.7845   -0.9403   -0.1385 C   0  0  0  0  0  0  0  0  0  0  0  0
    1.7279   -1.8195   -0.0183 N   0  0  0  0  0  0  0  0  0  0  0  0
    3.0794   -1.4878   -0.1062 C   0  0  0  0  0  0  0  0  0  0  0  0
    3.7412   -1.5921   -1.3359 C   0  0  0  0  0  0  0  0  0  0  0  0
    5.1060   -1.2929   -1.4561 C   0  0  0  0  0  0  0  0  0  0  0  0
    5.8095   -0.9008   -0.3090 C   0  0  0  0  0  0  0  0  0  0  0  0
    7.1303   -0.5562   -0.1608 N   0  0  0  0  0  0  0  0  0  0  0  0
    7.2752   -0.2851    1.1160 C   0  0  0  0  0  0  0  0  0  0  0  0
    6.1035   -0.4394    1.8019 N   0  0  0  0  0  0  0  0  0  0  0  0
    5.1396   -0.8294    0.9081 C   0  0  0  0  0  0  0  0  0  0  0  0
    3.7819   -1.1246    1.0526 C   0  0  0  0  0  0  0  0  0  0  0  0
    0.9268    0.4875   -0.3774 C   0  0  0  0  0  0  0  0  0  0  0  0
    1.9644    1.4077   -0.6155 C   0  0  0  0  0  0  0  0  0  0  0  0
    1.5186    2.6624   -0.7924 N   0  0  0  0  0  0  0  0  0  0  0  0
    0.1769    2.5458   -0.6783 N   0  0  0  0  0  0  0  0  0  0  0  0
   -0.6429    3.7213   -0.8239 C   0  0  0  0  0  0  0  0  0  0  0  0
   -0.2017    1.2677   -0.4216 C   0  0  0  0  0  0  0  0  0  0  0  0
   -2.2849    1.2409   -0.4918 H   0  0  0  0  0  0  0  0  0  0  0  0
   -2.7208   -2.1043    0.0969 H   0  0  0  0  0  0  0  0  0  0  0  0
   -3.8208    0.5054    0.9689 H   0  0  0  0  0  0  0  0  0  0  0  0
   -3.3232   -0.8063    2.0351 H   0  0  0  0  0  0  0  0  0  0  0  0
   -4.9755   -2.3338    1.0098 H   0  0  0  0  0  0  0  0  0  0  0  0
   -5.7376   -0.9057    1.6972 H   0  0  0  0  0  0  0  0  0  0  0  0
   -5.1804   -1.3891   -1.2806 H   0  0  0  0  0  0  0  0  0  0  0  0
   -6.7290   -1.5436   -0.4653 H   0  0  0  0  0  0  0  0  0  0  0  0
   -6.6511    0.9157    0.1109 H   0  0  0  0  0  0  0  0  0  0  0  0
   -5.1601    1.0574   -0.8444 H   0  0  0  0  0  0  0  0  0  0  0  0
   -6.6700    0.5873   -1.6297 H   0  0  0  0  0  0  0  0  0  0  0  0
    3.1866   -1.9130   -2.2145 H   0  0  0  0  0  0  0  0  0  0  0  0
    5.6154   -1.3673   -2.4102 H   0  0  0  0  0  0  0  0  0  0  0  0
    8.1937    0.0230    1.5976 H   0  0  0  0  0  0  0  0  0  0  0  0
    5.9712   -0.2913    2.7917 H   0  0  0  0  0  0  0  0  0  0  0  0
    3.2820   -1.0789    2.0136 H   0  0  0  0  0  0  0  0  0  0  0  0
    3.0310    1.2395   -0.6771 H   0  0  0  0  0  0  0  0  0  0  0  0
   -0.5830    4.0538   -1.8632 H   0  0  0  0  0  0  0  0  0  0  0  0
   -0.2629    4.4956   -0.1523 H   0  0  0  0  0  0  0  0  0  0  0  0
   -1.6779    3.4884   -0.5654 H   0  0  0  0  0  0  0  0  0  0  0  0
  1  2  1  0
  2  3  1  0
  3  4  1  0
  4  5  1  0
  5  6  1  0
  6  7  1  0
  2  8  2  0
  8  9  1  0
  9 10  2  3
 10 11  1  0
 11 12  2  0
 12 13  1  0
 13 14  2  0
 14 15  1  0
 15 16  2  0
 16 17  1  0
 17 18  1  0
 18 19  2  0
  9 20  1  0
 20 21  1  0
 21 22  2  0
 22 23  1  0
 23 24  1  0
 23 25  1  0
 25  1  1  0
 19 11  1  0
 25 20  2  0
 18 14  1  0
  1 26  1  0
  3 27  1  0
  4 28  1  0
  4 29  1  0
  5 30  1  0
  5 31  1  0
  6 32  1  0
  6 33  1  0
  7 34  1  0
  7 35  1  0
  7 36  1  0
 12 37  1  0
 13 38  1  0
 16 39  1  0
 17 40  1  0
 19 41  1  0
 21 42  1  0
 24 43  1  0
 24 44  1  0
 24 45  1  0
M  END
>  <ScrubInfo>  (7) 
{"isomerGroup": 0, "isomerId": 6, "confId": 0, "nr_conformers:": 1, "nr_isomers:": 16}

$$$$
_i7
     RDKit          3D

 45 48  0  0  0  0  0  0  0  0999 V2000
    0.1721    5.1336   -0.0080 N   0  0  0  0  0  0  0  0  0  0  0  0
   -0.8030    4.1666    0.2119 C   0  0  0  0  0  0  0  0  0  0  0  0
   -0.3168    2.9175    0.1831 C   0  0  0  0  0  0  0  0  0  0  0  0
   -0.8121    1.5434    0.3184 C   0  0  0  0  0  0  0  0  0  0  0  0
   -2.1556    1.3365    0.5750 N   0  0  0  0  0  0  0  0  0  0  0  0
   -2.8452    0.1449    0.8883 C   0  0  0  0  0  0  0  0  0  0  0  0
   -4.2543    0.1712    0.8459 C   0  0  0  0  0  0  0  0  0  0  0  0
   -5.0354   -0.9641    1.1181 C   0  0  0  0  0  0  0  0  0  0  0  0
   -4.3848   -2.1608    1.4344 C   0  0  0  0  0  0  0  0  0  0  0  0
   -4.9039   -3.3950    1.7377 N   0  0  0  0  0  0  0  0  0  0  0  0
   -3.8600   -4.1639    1.9489 C   0  0  0  0  0  0  0  0  0  0  0  0
   -2.6879   -3.4779    1.7967 N   0  0  0  0  0  0  0  0  0  0  0  0
   -2.9974   -2.1834    1.4660 C   0  0  0  0  0  0  0  0  0  0  0  0
   -2.2014   -1.0631    1.1984 C   0  0  0  0  0  0  0  0  0  0  0  0
    0.0590    0.5861    0.1694 N   0  0  0  0  0  0  0  0  0  0  0  0
    1.3744    0.8861   -0.1157 C   0  0  0  0  0  0  0  0  0  0  0  0
    2.2036   -0.0670   -0.3579 N   0  0  0  0  0  0  0  0  0  0  0  0
    1.6972   -1.4354   -0.3322 C   0  0  0  0  0  0  0  0  0  0  0  0
    2.8267   -2.3924   -0.7174 C   0  0  0  0  0  0  0  0  0  0  0  0
    3.2497   -2.2397   -2.1803 C   0  0  0  0  0  0  0  0  0  0  0  0
    4.3427   -3.2309   -2.5483 C   0  0  0  0  0  0  0  0  0  0  0  0
    1.9381    2.1371   -0.1733 N   0  0  0  0  0  0  0  0  0  0  0  0
    1.1320    3.1274   -0.0239 C   0  0  0  0  0  0  0  0  0  0  0  0
    1.4069    4.4949   -0.0340 N   0  0  0  0  0  0  0  0  0  0  0  0
    2.4702    5.0333   -0.8614 C   0  0  0  0  0  0  0  0  0  0  0  0
    0.1011    5.9418    0.6151 H   0  0  0  0  0  0  0  0  0  0  0  0
   -1.8195    4.4877    0.3840 H   0  0  0  0  0  0  0  0  0  0  0  0
   -2.7542    2.1515    0.5685 H   0  0  0  0  0  0  0  0  0  0  0  0
   -4.7775    1.0900    0.5895 H   0  0  0  0  0  0  0  0  0  0  0  0
   -6.1182   -0.9262    1.0817 H   0  0  0  0  0  0  0  0  0  0  0  0
   -3.8883   -5.2130    2.2114 H   0  0  0  0  0  0  0  0  0  0  0  0
   -1.7580   -3.8560    1.9052 H   0  0  0  0  0  0  0  0  0  0  0  0
   -1.1233   -1.1438    1.2522 H   0  0  0  0  0  0  0  0  0  0  0  0
    1.3601   -1.6927    0.6792 H   0  0  0  0  0  0  0  0  0  0  0  0
    0.8580   -1.5662   -1.0262 H   0  0  0  0  0  0  0  0  0  0  0  0
    2.4862   -3.4210   -0.5469 H   0  0  0  0  0  0  0  0  0  0  0  0
    3.6921   -2.2262   -0.0641 H   0  0  0  0  0  0  0  0  0  0  0  0
    2.3855   -2.3988   -2.8357 H   0  0  0  0  0  0  0  0  0  0  0  0
    3.6148   -1.2233   -2.3657 H   0  0  0  0  0  0  0  0  0  0  0  0
    5.2340   -3.0787   -1.9312 H   0  0  0  0  0  0  0  0  0  0  0  0
    4.0007   -4.2616   -2.4103 H   0  0  0  0  0  0  0  0  0  0  0  0
    4.6301   -3.1061   -3.5970 H   0  0  0  0  0  0  0  0  0  0  0  0
    3.4208    4.5386   -0.6378 H   0  0  0  0  0  0  0  0  0  0  0  0
    2.5970    6.1035   -0.6686 H   0  0  0  0  0  0  0  0  0  0  0  0
    2.2438    4.8955   -1.9238 H   0  0  0  0  0  0  0  0  0  0  0  0
  1  2  1  0
  2  3  2  0
  3  4  1  0
  4  5  1  0
  5  6  1  0
  6  7  2  0
  7  8  1  0
  8  9  2  0
  9 10  1  0
 10 11  2  0
 11 12  1  0
 12 13  1  0
 13 14  2  0
  4 15  2  0
 15 16  1  0
 16 17  2  3
 17 18  1  0
 18 19  1  0
 19 20  1  0
 20 21  1  0
 16 22  1  0
 22 23  2  0
 23 24  1  0
 24 25  1  0
 24  1  1  0
 23  3  1  0
 14  6  1  0
 13  9  1  0
  1 26  1  0
  2 27  1  0
  5 28  1  0
  7 29  1  0
  8 30  1  0
 11 31  1  0
 12 32  1  0
 14 33  1  0
 18 34  1  0
 18 35  1  0
 19 36  1  0
 19 37  1  0
 20 38  1  0
 20 39  1  0
 21 40  1  0
 21 41  1  0
 21 42  1  0
 25 43  1  0
 25 44  1  0
 25 45  1  0
M  END
>  <ScrubInfo>  (8) 
{"isomerGroup": 0, "isomerId": 7, "confId": 0, "nr_conformers:": 1, "nr_isomers:": 16}

$$$$
_i8
     RDKit          3D

 45 48  0  0  0  0  0  0  0  0999 V2000
   -6.5946    1.6366   -0.4344 N   0  0  0  0  0  0  0  0  0  0  0  0
   -6.8536    2.4374    0.6424 C   0  0  0  0  0  0  0  0  0  0  0  0
   -5.7889    2.5994    1.3943 N   0  0  0  0  0  0  0  0  0  0  0  0
   -4.7996    1.8726    0.7787 C   0  0  0  0  0  0  0  0  0  0  0  0
   -3.4592    1.6873    1.1488 C   0  0  0  0  0  0  0  0  0  0  0  0
   -2.6183    0.8928    0.3474 C   0  0  0  0  0  0  0  0  0  0  0  0
   -1.2840    0.6992    0.7849 N   0  0  0  0  0  0  0  0  0  0  0  0
   -0.3561   -0.1800    0.2612 C   0  0  0  0  0  0  0  0  0  0  0  0
    0.8872    0.2625   -0.1519 N   0  0  0  0  0  0  0  0  0  0  0  0
    1.8802   -0.5486   -0.6590 C   0  0  0  0  0  0  0  0  0  0  0  0
    3.0363   -0.1768   -1.0744 N   0  0  0  0  0  0  0  0  0  0  0  0
    3.4354    1.2226   -1.0680 C   0  0  0  0  0  0  0  0  0  0  0  0
    4.0069    1.6259    0.2915 C   0  0  0  0  0  0  0  0  0  0  0  0
    5.2209    0.8106    0.7479 C   0  0  0  0  0  0  0  0  0  0  0  0
    6.4232    0.9410   -0.1739 C   0  0  0  0  0  0  0  0  0  0  0  0
    1.6837   -1.9089   -0.7589 N   0  0  0  0  0  0  0  0  0  0  0  0
    0.5341   -2.3379   -0.3667 C   0  0  0  0  0  0  0  0  0  0  0  0
   -0.5489   -1.5021    0.1858 C   0  0  0  0  0  0  0  0  0  0  0  0
   -1.5849   -2.4738    0.5519 C   0  0  0  0  0  0  0  0  0  0  0  0
   -1.2494   -3.7086    0.2716 N   0  0  0  0  0  0  0  0  0  0  0  0
    0.0157   -3.6230   -0.3359 N   0  0  0  0  0  0  0  0  0  0  0  0
    0.8134   -4.8197   -0.4569 C   0  0  0  0  0  0  0  0  0  0  0  0
   -3.1492    0.2852   -0.8024 C   0  0  0  0  0  0  0  0  0  0  0  0
   -4.4871    0.4552   -1.1910 C   0  0  0  0  0  0  0  0  0  0  0  0
   -5.2778    1.2576   -0.3713 C   0  0  0  0  0  0  0  0  0  0  0  0
   -7.2573    1.3698   -1.1478 H   0  0  0  0  0  0  0  0  0  0  0  0
   -7.8291    2.8688    0.8239 H   0  0  0  0  0  0  0  0  0  0  0  0
   -3.0998    2.1546    2.0589 H   0  0  0  0  0  0  0  0  0  0  0  0
   -0.8825    1.5700    1.1208 H   0  0  0  0  0  0  0  0  0  0  0  0
    1.0463    1.2544   -0.1270 H   0  0  0  0  0  0  0  0  0  0  0  0
    2.6069    1.8859   -1.3421 H   0  0  0  0  0  0  0  0  0  0  0  0
    4.1873    1.3701   -1.8509 H   0  0  0  0  0  0  0  0  0  0  0  0
    4.2815    2.6872    0.2551 H   0  0  0  0  0  0  0  0  0  0  0  0
    3.2268    1.5333    1.0568 H   0  0  0  0  0  0  0  0  0  0  0  0
    4.9522   -0.2470    0.8493 H   0  0  0  0  0  0  0  0  0  0  0  0
    5.5106    1.1556    1.7479 H   0  0  0  0  0  0  0  0  0  0  0  0
    6.6957    1.9911   -0.3189 H   0  0  0  0  0  0  0  0  0  0  0  0
    6.2280    0.4944   -1.1532 H   0  0  0  0  0  0  0  0  0  0  0  0
    7.2857    0.4240    0.2589 H   0  0  0  0  0  0  0  0  0  0  0  0
   -2.5195   -2.1571    1.0323 H   0  0  0  0  0  0  0  0  0  0  0  0
    1.3470   -5.0183    0.4778 H   0  0  0  0  0  0  0  0  0  0  0  0
    0.1818   -5.6843   -0.6858 H   0  0  0  0  0  0  0  0  0  0  0  0
    1.5469   -4.7201   -1.2633 H   0  0  0  0  0  0  0  0  0  0  0  0
   -2.5183   -0.3225   -1.4479 H   0  0  0  0  0  0  0  0  0  0  0  0
   -4.8754   -0.0161   -2.0875 H   0  0  0  0  0  0  0  0  0  0  0  0
  1  2  1  0
  2  3  2  0
  3  4  1  0
  4  5  2  0
  5  6  1  0
  6  7  1  0
  7  8  1  0
  8  9  1  0
  9 10  1  0
 10 11  2  3
 11 12  1  0
 12 13  1  0
 13 14  1  0
 14 15  1  0
 10 16  1  0
 16 17  2  0
 17 18  1  0
 18 19  1  0
 19 20  2  0
 20 21  1  0
 21 22  1  0
  6 23  2  0
 23 24  1  0
 24 25  2  0
 25  1  1  0
 25  4  1  0
 18  8  2  0
 21 17  1  0
  1 26  1  0
  2 27  1  0
  5 28  1  0
  7 29  1  0
  9 30  1  0
 12 31  1  0
 12 32  1  0
 13 33  1  0
 13 34  1  0
 14 35  1  0
 14 36  1  0
 15 37  1  0
 15 38  1  0
 15 39  1  0
 19 40  1  0
 22 41  1  0
 22 42  1  0
 22 43  1  0
 23 44  1  0
 24 45  1  0
M  END
>  <ScrubInfo>  (9) 
{"isomerGroup": 0, "isomerId": 8, "confId": 0, "nr_conformers:": 1, "nr_isomers:": 16}

$$$$
_i9
     RDKit          3D

 45 48  0  0  0  0  0  0  0  0999 V2000
    1.3783   -2.8532   -1.0344 N   0  0  0  0  0  0  0  0  0  0  0  0
    1.8605   -1.7019   -0.4217 C   0  0  0  0  0  0  0  0  0  0  0  0
    0.8941   -0.8779    0.0081 C   0  0  0  0  0  0  0  0  0  0  0  0
    0.7302    0.4361    0.6621 C   0  0  0  0  0  0  0  0  0  0  0  0
    1.6394    1.2573    1.0991 N   0  0  0  0  0  0  0  0  0  0  0  0
    2.9972    0.9436    0.9911 C   0  0  0  0  0  0  0  0  0  0  0  0
    3.6339    0.2362    2.0182 C   0  0  0  0  0  0  0  0  0  0  0  0
    4.9959   -0.0887    1.9417 C   0  0  0  0  0  0  0  0  0  0  0  0
    5.7213    0.3261    0.8163 C   0  0  0  0  0  0  0  0  0  0  0  0
    7.0429    0.1316    0.5007 N   0  0  0  0  0  0  0  0  0  0  0  0
    7.2157    0.7373   -0.6519 C   0  0  0  0  0  0  0  0  0  0  0  0
    6.0592    1.3112   -1.0999 N   0  0  0  0  0  0  0  0  0  0  0  0
    5.0765    1.0536   -0.1786 C   0  0  0  0  0  0  0  0  0  0  0  0
    3.7216    1.3891   -0.1242 C   0  0  0  0  0  0  0  0  0  0  0  0
   -0.5860    0.7859    0.7926 N   0  0  0  0  0  0  0  0  0  0  0  0
   -1.6804    0.0669    0.4045 C   0  0  0  0  0  0  0  0  0  0  0  0
   -2.8514    0.5831    0.5895 N   0  0  0  0  0  0  0  0  0  0  0  0
   -4.0059   -0.2109    0.1665 C   0  0  0  0  0  0  0  0  0  0  0  0
   -5.2843    0.5796    0.4502 C   0  0  0  0  0  0  0  0  0  0  0  0
   -5.4119    1.8232   -0.4327 C   0  0  0  0  0  0  0  0  0  0  0  0
   -6.7105    2.5663   -0.1604 C   0  0  0  0  0  0  0  0  0  0  0  0
   -1.5571   -1.1817   -0.1674 N   0  0  0  0  0  0  0  0  0  0  0  0
   -0.3570   -1.6407   -0.3426 C   0  0  0  0  0  0  0  0  0  0  0  0
    0.0001   -2.8795   -0.8802 N   0  0  0  0  0  0  0  0  0  0  0  0
   -0.8138   -3.5182   -1.8965 C   0  0  0  0  0  0  0  0  0  0  0  0
    1.8802   -3.6997   -0.7549 H   0  0  0  0  0  0  0  0  0  0  0  0
    2.9307   -1.5761   -0.3480 H   0  0  0  0  0  0  0  0  0  0  0  0
    3.0625   -0.0676    2.8920 H   0  0  0  0  0  0  0  0  0  0  0  0
    5.4872   -0.6421    2.7341 H   0  0  0  0  0  0  0  0  0  0  0  0
    8.1444    0.7955   -1.2038 H   0  0  0  0  0  0  0  0  0  0  0  0
    5.9493    1.8340   -1.9567 H   0  0  0  0  0  0  0  0  0  0  0  0
    3.2398    1.9666   -0.9052 H   0  0  0  0  0  0  0  0  0  0  0  0
   -0.7836    1.6794    1.2172 H   0  0  0  0  0  0  0  0  0  0  0  0
   -4.0479   -1.1483    0.7344 H   0  0  0  0  0  0  0  0  0  0  0  0
   -3.9539   -0.4488   -0.9029 H   0  0  0  0  0  0  0  0  0  0  0  0
   -5.3112    0.8734    1.5068 H   0  0  0  0  0  0  0  0  0  0  0  0
   -6.1463   -0.0757    0.2751 H   0  0  0  0  0  0  0  0  0  0  0  0
   -4.5703    2.5024   -0.2556 H   0  0  0  0  0  0  0  0  0  0  0  0
   -5.3787    1.5339   -1.4895 H   0  0  0  0  0  0  0  0  0  0  0  0
   -6.7827    3.4505   -0.8014 H   0  0  0  0  0  0  0  0  0  0  0  0
   -7.5773    1.9289   -0.3624 H   0  0  0  0  0  0  0  0  0  0  0  0
   -6.7620    2.8970    0.8819 H   0  0  0  0  0  0  0  0  0  0  0  0
   -1.8456   -3.6326   -1.5493 H   0  0  0  0  0  0  0  0  0  0  0  0
   -0.4258   -4.5166   -2.1234 H   0  0  0  0  0  0  0  0  0  0  0  0
   -0.8173   -2.9285   -2.8191 H   0  0  0  0  0  0  0  0  0  0  0  0
  1  2  1  0
  2  3  2  0
  3  4  1  0
  4  5  2  3
  5  6  1  0
  6  7  2  0
  7  8  1  0
  8  9  2  0
  9 10  1  0
 10 11  2  0
 11 12  1  0
 12 13  1  0
 13 14  2  0
  4 15  1  0
 15 16  1  0
 16 17  2  3
 17 18  1  0
 18 19  1  0
 19 20  1  0
 20 21  1  0
 16 22  1  0
 22 23  2  0
 23 24  1  0
 24 25  1  0
 24  1  1  0
 23  3  1  0
 14  6  1  0
 13  9  1  0
  1 26  1  0
  2 27  1  0
  7 28  1  0
  8 29  1  0
 11 30  1  0
 12 31  1  0
 14 32  1  0
 15 33  1  0
 18 34  1  0
 18 35  1  0
 19 36  1  0
 19 37  1  0
 20 38  1  0
 20 39  1  0
 21 40  1  0
 21 41  1  0
 21 42  1  0
 25 43  1  0
 25 44  1  0
 25 45  1  0
M  END
>  <ScrubInfo>  (10) 
{"isomerGroup": 0, "isomerId": 9, "confId": 0, "nr_conformers:": 1, "nr_isomers:": 16}

$$$$
_i10
     RDKit          3D

 45 48  0  0  0  0  0  0  0  0999 V2000
   -1.2871    2.2145   -0.7663 N   0  0  0  0  0  0  0  0  0  0  0  0
   -1.9314    1.0050   -0.6031 C   0  0  0  0  0  0  0  0  0  0  0  0
   -3.2207    1.0043   -0.5831 N   0  0  0  0  0  0  0  0  0  0  0  0
   -3.9493   -0.2533   -0.4334 C   0  0  0  0  0  0  0  0  0  0  0  0
   -4.1446   -0.5655    1.0494 C   0  0  0  0  0  0  0  0  0  0  0  0
   -4.8279   -1.9107    1.3004 C   0  0  0  0  0  0  0  0  0  0  0  0
   -6.2598   -1.9687    0.7915 C   0  0  0  0  0  0  0  0  0  0  0  0
   -1.0625   -0.0611   -0.4733 N   0  0  0  0  0  0  0  0  0  0  0  0
    0.3178   -0.1153   -0.4765 C   0  0  0  0  0  0  0  0  0  0  0  0
    0.9334   -1.2489   -0.3169 N   0  0  0  0  0  0  0  0  0  0  0  0
    2.3261   -1.3462   -0.3104 C   0  0  0  0  0  0  0  0  0  0  0  0
    3.0083   -1.6248   -1.5009 C   0  0  0  0  0  0  0  0  0  0  0  0
    4.4039   -1.7600   -1.5253 C   0  0  0  0  0  0  0  0  0  0  0  0
    5.1114   -1.6260   -0.3228 C   0  0  0  0  0  0  0  0  0  0  0  0
    6.4602   -1.7100   -0.0813 N   0  0  0  0  0  0  0  0  0  0  0  0
    6.5925   -1.5154    1.2107 C   0  0  0  0  0  0  0  0  0  0  0  0
    5.3853   -1.3105    1.8174 N   0  0  0  0  0  0  0  0  0  0  0  0
    4.4125   -1.3723    0.8527 C   0  0  0  0  0  0  0  0  0  0  0  0
    3.0228   -1.2372    0.9025 C   0  0  0  0  0  0  0  0  0  0  0  0
    0.8967    1.2038   -0.6657 C   0  0  0  0  0  0  0  0  0  0  0  0
    2.1823    1.7688   -0.7615 C   0  0  0  0  0  0  0  0  0  0  0  0
    2.1556    3.0998   -0.9295 N   0  0  0  0  0  0  0  0  0  0  0  0
    0.8375    3.3945   -0.9628 N   0  0  0  0  0  0  0  0  0  0  0  0
    0.4267    4.7645   -1.1399 C   0  0  0  0  0  0  0  0  0  0  0  0
    0.0597    2.2905   -0.7997 C   0  0  0  0  0  0  0  0  0  0  0  0
   -1.9114    3.0068   -0.8629 H   0  0  0  0  0  0  0  0  0  0  0  0
   -3.4588   -1.0818   -0.9568 H   0  0  0  0  0  0  0  0  0  0  0  0
   -4.9228   -0.1262   -0.9192 H   0  0  0  0  0  0  0  0  0  0  0  0
   -3.1700   -0.5776    1.5527 H   0  0  0  0  0  0  0  0  0  0  0  0
   -4.7224    0.2386    1.5220 H   0  0  0  0  0  0  0  0  0  0  0  0
   -4.2442   -2.7166    0.8406 H   0  0  0  0  0  0  0  0  0  0  0  0
   -4.8342   -2.1008    2.3804 H   0  0  0  0  0  0  0  0  0  0  0  0
   -6.8594   -1.1546    1.2107 H   0  0  0  0  0  0  0  0  0  0  0  0
   -6.3007   -1.9032   -0.2997 H   0  0  0  0  0  0  0  0  0  0  0  0
   -6.7238   -2.9163    1.0836 H   0  0  0  0  0  0  0  0  0  0  0  0
   -1.4765   -0.9679   -0.3298 H   0  0  0  0  0  0  0  0  0  0  0  0
    2.4477   -1.7387   -2.4254 H   0  0  0  0  0  0  0  0  0  0  0  0
    4.9325   -1.9684   -2.4487 H   0  0  0  0  0  0  0  0  0  0  0  0
    7.5255   -1.5122    1.7583 H   0  0  0  0  0  0  0  0  0  0  0  0
    5.2375   -1.1408    2.8015 H   0  0  0  0  0  0  0  0  0  0  0  0
    2.4968   -1.0525    1.8323 H   0  0  0  0  0  0  0  0  0  0  0  0
    3.1496    1.2874   -0.7155 H   0  0  0  0  0  0  0  0  0  0  0  0
    0.4514    5.2555   -0.1642 H   0  0  0  0  0  0  0  0  0  0  0  0
    1.1168    5.2553   -1.8312 H   0  0  0  0  0  0  0  0  0  0  0  0
   -0.5830    4.7942   -1.5553 H   0  0  0  0  0  0  0  0  0  0  0  0
  1  2  1  0
  2  3  2  3
  3  4  1  0
  4  5  1  0
  5  6  1  0
  6  7  1  0
  2  8  1  0
  8  9  1  0
  9 10  2  3
 10 11  1  0
 11 12  2  0
 12 13  1  0
 13 14  2  0
 14 15  1  0
 15 16  2  0
 16 17  1  0
 17 18  1  0
 18 19  2  0
  9 20  1  0
 20 21  1  0
 21 22  2  0
 22 23  1  0
 23 24  1  0
 23 25  1  0
 25  1  1  0
 19 11  1  0
 25 20  2  0
 18 14  1  0
  1 26  1  0
  4 27  1  0
  4 28  1  0
  5 29  1  0
  5 30  1  0
  6 31  1  0
  6 32  1  0
  7 33  1  0
  7 34  1  0
  7 35  1  0
  8 36  1  0
 12 37  1  0
 13 38  1  0
 16 39  1  0
 17 40  1  0
 19 41  1  0
 21 42  1  0
 24 43  1  0
 24 44  1  0
 24 45  1  0
M  END
>  <ScrubInfo>  (11) 
{"isomerGroup": 0, "isomerId": 10, "confId": 0, "nr_conformers:": 1, "nr_isomers:": 16}

$$$$
_i11
     RDKit          3D

 45 48  0  0  0  0  0  0  0  0999 V2000
   -6.6293    0.9770    0.6126 N   0  0  0  0  0  0  0  0  0  0  0  0
   -6.4462    1.6601    1.7816 C   0  0  0  0  0  0  0  0  0  0  0  0
   -5.1964    2.0319    1.9360 N   0  0  0  0  0  0  0  0  0  0  0  0
   -4.5406    1.5679    0.8211 C   0  0  0  0  0  0  0  0  0  0  0  0
   -3.1895    1.6765    0.4649 C   0  0  0  0  0  0  0  0  0  0  0  0
   -2.7578    1.0938   -0.7339 C   0  0  0  0  0  0  0  0  0  0  0  0
   -1.4208    1.2129   -1.1220 N   0  0  0  0  0  0  0  0  0  0  0  0
   -0.5386    0.3021   -0.8422 C   0  0  0  0  0  0  0  0  0  0  0  0
    0.7718    0.4248   -1.2418 N   0  0  0  0  0  0  0  0  0  0  0  0
    1.7858   -0.4826   -1.0730 C   0  0  0  0  0  0  0  0  0  0  0  0
    3.0062   -0.1432   -1.5834 N   0  0  0  0  0  0  0  0  0  0  0  0
    3.6112    1.1739   -1.4640 C   0  0  0  0  0  0  0  0  0  0  0  0
    3.8922    1.5542   -0.0086 C   0  0  0  0  0  0  0  0  0  0  0  0
    4.8413    0.6153    0.7429 C   0  0  0  0  0  0  0  0  0  0  0  0
    6.2269    0.5256    0.1232 C   0  0  0  0  0  0  0  0  0  0  0  0
    1.6425   -1.6363   -0.4699 N   0  0  0  0  0  0  0  0  0  0  0  0
    0.3707   -1.8053   -0.0087 C   0  0  0  0  0  0  0  0  0  0  0  0
   -0.7135   -0.9482   -0.1288 C   0  0  0  0  0  0  0  0  0  0  0  0
   -1.7561   -1.6118    0.5419 C   0  0  0  0  0  0  0  0  0  0  0  0
   -1.3824   -2.7989    1.0371 N   0  0  0  0  0  0  0  0  0  0  0  0
   -0.0789   -2.8907    0.6891 N   0  0  0  0  0  0  0  0  0  0  0  0
    0.6728   -4.0589    1.0722 C   0  0  0  0  0  0  0  0  0  0  0  0
   -3.6754    0.4547   -1.5786 C   0  0  0  0  0  0  0  0  0  0  0  0
   -5.0296    0.3345   -1.2417 C   0  0  0  0  0  0  0  0  0  0  0  0
   -5.4188    0.9026   -0.0286 C   0  0  0  0  0  0  0  0  0  0  0  0
   -7.5025    0.5947    0.2801 H   0  0  0  0  0  0  0  0  0  0  0  0
   -7.2546    1.8540    2.4738 H   0  0  0  0  0  0  0  0  0  0  0  0
   -2.4969    2.1996    1.1135 H   0  0  0  0  0  0  0  0  0  0  0  0
    0.9432    1.2127   -1.8427 H   0  0  0  0  0  0  0  0  0  0  0  0
    3.6699   -0.8885   -1.3836 H   0  0  0  0  0  0  0  0  0  0  0  0
    2.9634    1.9307   -1.9198 H   0  0  0  0  0  0  0  0  0  0  0  0
    4.5388    1.1862   -2.0461 H   0  0  0  0  0  0  0  0  0  0  0  0
    4.3106    2.5683    0.0092 H   0  0  0  0  0  0  0  0  0  0  0  0
    2.9467    1.6022    0.5457 H   0  0  0  0  0  0  0  0  0  0  0  0
    4.4081   -0.3885    0.8143 H   0  0  0  0  0  0  0  0  0  0  0  0
    4.9435    0.9820    1.7715 H   0  0  0  0  0  0  0  0  0  0  0  0
    6.1963    0.0460   -0.8595 H   0  0  0  0  0  0  0  0  0  0  0  0
    6.6730    1.5189    0.0116 H   0  0  0  0  0  0  0  0  0  0  0  0
    6.8857   -0.0716    0.7618 H   0  0  0  0  0  0  0  0  0  0  0  0
   -2.7784   -1.2987    0.7019 H   0  0  0  0  0  0  0  0  0  0  0  0
    0.7040   -4.1036    2.1638 H   0  0  0  0  0  0  0  0  0  0  0  0
    0.1685   -4.9407    0.6685 H   0  0  0  0  0  0  0  0  0  0  0  0
    1.6882   -4.0016    0.6744 H   0  0  0  0  0  0  0  0  0  0  0  0
   -3.3245    0.0370   -2.5201 H   0  0  0  0  0  0  0  0  0  0  0  0
   -5.7304   -0.1708   -1.8968 H   0  0  0  0  0  0  0  0  0  0  0  0
  1  2  1  0
  2  3  2  0
  3  4  1  0
  4  5  2  0
  5  6  1  0
  6  7  1  0
  7  8  2  3
  8  9  1  0
  9 10  1  0
 10 11  1  0
 11 12  1  0
 12 13  1  0
 13 14  1  0
 14 15  1  0
 10 16  2  0
 16 17  1  0
 17 18  2  0
 18 19  1  0
 19 20  2  0
 20 21  1  0
 21 22  1  0
  6 23  2  0
 23 24  1  0
 24 25  2  0
 25  1  1  0
 25  4  1  0
 18  8  1  0
 21 17  1  0
  1 26  1  0
  2 27  1  0
  5 28  1  0
  9 29  1  0
 11 30  1  0
 12 31  1  0
 12 32  1  0
 13 33  1  0
 13 34  1  0
 14 35  1  0
 14 36  1  0
 15 37  1  0
 15 38  1  0
 15 39  1  0
 19 40  1  0
 22 41  1  0
 22 42  1  0
 22 43  1  0
 23 44  1  0
 24 45  1  0
M  END
>  <ScrubInfo>  (12) 
{"isomerGroup": 0, "isomerId": 11, "confId": 0, "nr_conformers:": 1, "nr_isomers:": 16}

$$$$
_i12
     RDKit          3D

 45 48  0  0  0  0  0  0  0  0999 V2000
   -1.5411    1.5422   -0.0978 N   0  0  0  0  0  0  0  0  0  0  0  0
   -1.5463    0.3399   -0.7886 C   0  0  0  0  0  0  0  0  0  0  0  0
   -2.5758   -0.3922   -1.0298 N   0  0  0  0  0  0  0  0  0  0  0  0
   -3.8840    0.0288   -0.5501 C   0  0  0  0  0  0  0  0  0  0  0  0
   -4.9251   -1.0185   -0.9473 C   0  0  0  0  0  0  0  0  0  0  0  0
   -4.7293   -2.3468   -0.2125 C   0  0  0  0  0  0  0  0  0  0  0  0
   -5.8020   -3.3551   -0.5934 C   0  0  0  0  0  0  0  0  0  0  0  0
   -0.3749   -0.1969   -1.3042 N   0  0  0  0  0  0  0  0  0  0  0  0
    0.7555    0.4245   -1.1235 C   0  0  0  0  0  0  0  0  0  0  0  0
    1.9460   -0.0425   -1.6221 N   0  0  0  0  0  0  0  0  0  0  0  0
    3.0726   -0.3608   -0.8124 C   0  0  0  0  0  0  0  0  0  0  0  0
    4.3151   -0.5098   -1.4525 C   0  0  0  0  0  0  0  0  0  0  0  0
    5.4785   -0.8586   -0.7536 C   0  0  0  0  0  0  0  0  0  0  0  0
    5.3381   -1.0708    0.6168 C   0  0  0  0  0  0  0  0  0  0  0  0
    6.2330   -1.4174    1.5972 N   0  0  0  0  0  0  0  0  0  0  0  0
    5.5517   -1.5034    2.7783 C   0  0  0  0  0  0  0  0  0  0  0  0
    4.2761   -1.2340    2.6232 N   0  0  0  0  0  0  0  0  0  0  0  0
    4.1248   -0.9580    1.2858 C   0  0  0  0  0  0  0  0  0  0  0  0
    2.9710   -0.6079    0.5672 C   0  0  0  0  0  0  0  0  0  0  0  0
    0.7981    1.6948   -0.4388 C   0  0  0  0  0  0  0  0  0  0  0  0
    1.7527    2.6689   -0.1105 C   0  0  0  0  0  0  0  0  0  0  0  0
    1.2145    3.7070    0.5499 N   0  0  0  0  0  0  0  0  0  0  0  0
   -0.0988    3.3846    0.6459 N   0  0  0  0  0  0  0  0  0  0  0  0
   -0.9945    4.2924    1.3157 C   0  0  0  0  0  0  0  0  0  0  0  0
   -0.3758    2.1949    0.0514 C   0  0  0  0  0  0  0  0  0  0  0  0
   -2.4260    1.8864    0.2410 H   0  0  0  0  0  0  0  0  0  0  0  0
   -4.1631    0.9849   -1.0086 H   0  0  0  0  0  0  0  0  0  0  0  0
   -3.8846    0.1511    0.5395 H   0  0  0  0  0  0  0  0  0  0  0  0
   -5.9225   -0.6242   -0.7178 H   0  0  0  0  0  0  0  0  0  0  0  0
   -4.8859   -1.1874   -2.0305 H   0  0  0  0  0  0  0  0  0  0  0  0
   -3.7456   -2.7690   -0.4472 H   0  0  0  0  0  0  0  0  0  0  0  0
   -4.7612   -2.1807    0.8706 H   0  0  0  0  0  0  0  0  0  0  0  0
   -5.6448   -4.2964   -0.0575 H   0  0  0  0  0  0  0  0  0  0  0  0
   -6.7993   -2.9822   -0.3392 H   0  0  0  0  0  0  0  0  0  0  0  0
   -5.7773   -3.5672   -1.6671 H   0  0  0  0  0  0  0  0  0  0  0  0
    1.7473   -0.8623   -2.1945 H   0  0  0  0  0  0  0  0  0  0  0  0
    4.3875   -0.3352   -2.5253 H   0  0  0  0  0  0  0  0  0  0  0  0
    6.4321   -0.9574   -1.2601 H   0  0  0  0  0  0  0  0  0  0  0  0
    7.2205   -1.5831    1.4696 H   0  0  0  0  0  0  0  0  0  0  0  0
    6.0349   -1.7651    3.7103 H   0  0  0  0  0  0  0  0  0  0  0  0
    2.0286   -0.5468    1.0994 H   0  0  0  0  0  0  0  0  0  0  0  0
    2.8144    2.6760   -0.3207 H   0  0  0  0  0  0  0  0  0  0  0  0
   -1.0348    5.2212    0.7414 H   0  0  0  0  0  0  0  0  0  0  0  0
   -1.9914    3.8516    1.3813 H   0  0  0  0  0  0  0  0  0  0  0  0
   -0.6088    4.4805    2.3210 H   0  0  0  0  0  0  0  0  0  0  0  0
  1  2  1  0
  2  3  2  3
  3  4  1  0
  4  5  1  0
  5  6  1  0
  6  7  1  0
  2  8  1  0
  8  9  2  0
  9 10  1  0
 10 11  1  0
 11 12  2  0
 12 13  1  0
 13 14  2  0
 14 15  1  0
 15 16  1  0
 16 17  2  0
 17 18  1  0
 18 19  2  0
  9 20  1  0
 20 21  1  0
 21 22  2  0
 22 23  1  0
 23 24  1  0
 23 25  1  0
 25  1  1  0
 19 11  1  0
 25 20  2  0
 18 14  1  0
  1 26  1  0
  4 27  1  0
  4 28  1  0
  5 29  1  0
  5 30  1  0
  6 31  1  0
  6 32  1  0
  7 33  1  0
  7 34  1  0
  7 35  1  0
 10 36  1  0
 12 37  1  0
 13 38  1  0
 15 39  1  0
 16 40  1  0
 19 41  1  0
 21 42  1  0
 24 43  1  0
 24 44  1  0
 24 45  1  0
M  END
>  <ScrubInfo>  (13) 
{"isomerGroup": 0, "isomerId": 12, "confId": 0, "nr_conformers:": 1, "nr_isomers:": 16}

$$$$
_i13
     RDKit          3D

 45 48  0  0  0  0  0  0  0  0999 V2000
   -1.5173    0.6593   -0.1588 N   0  0  0  0  0  0  0  0  0  0  0  0
   -1.5106   -0.6993    0.0296 C   0  0  0  0  0  0  0  0  0  0  0  0
   -2.7434   -1.2687    0.1747 N   0  0  0  0  0  0  0  0  0  0  0  0
   -3.6643   -0.8215    1.2123 C   0  0  0  0  0  0  0  0  0  0  0  0
   -4.9916   -1.5744    1.1085 C   0  0  0  0  0  0  0  0  0  0  0  0
   -5.7515   -1.3608   -0.2048 C   0  0  0  0  0  0  0  0  0  0  0  0
   -6.1511    0.0862   -0.4490 C   0  0  0  0  0  0  0  0  0  0  0  0
   -0.4516   -1.4559    0.0544 N   0  0  0  0  0  0  0  0  0  0  0  0
    0.8087   -0.8872   -0.0949 C   0  0  0  0  0  0  0  0  0  0  0  0
    1.8106   -1.7028   -0.0008 N   0  0  0  0  0  0  0  0  0  0  0  0
    3.1357   -1.2823   -0.1209 C   0  0  0  0  0  0  0  0  0  0  0  0
    3.7753   -1.3567   -1.3654 C   0  0  0  0  0  0  0  0  0  0  0  0
    5.1114   -0.9722   -1.5338 C   0  0  0  0  0  0  0  0  0  0  0  0
    5.7765   -0.5276   -0.3910 C   0  0  0  0  0  0  0  0  0  0  0  0
    7.0572   -0.0841   -0.1793 N   0  0  0  0  0  0  0  0  0  0  0  0
    7.1844    0.2211    1.1462 C   0  0  0  0  0  0  0  0  0  0  0  0
    6.0695    0.0019    1.8041 N   0  0  0  0  0  0  0  0  0  0  0  0
    5.1813   -0.4660    0.8653 C   0  0  0  0  0  0  0  0  0  0  0  0
    3.8438   -0.8583    1.0119 C   0  0  0  0  0  0  0  0  0  0  0  0
    0.8501    0.5452   -0.3457 C   0  0  0  0  0  0  0  0  0  0  0  0
    1.8182    1.5308   -0.6121 C   0  0  0  0  0  0  0  0  0  0  0  0
    1.2850    2.7488   -0.8039 N   0  0  0  0  0  0  0  0  0  0  0  0
   -0.0419    2.5464   -0.6440 N   0  0  0  0  0  0  0  0  0  0  0  0
   -0.9413    3.6645   -0.7703 C   0  0  0  0  0  0  0  0  0  0  0  0
   -0.3286    1.2482   -0.3695 C   0  0  0  0  0  0  0  0  0  0  0  0
   -2.4080    1.0860   -0.3733 H   0  0  0  0  0  0  0  0  0  0  0  0
   -2.6029   -2.2770    0.2402 H   0  0  0  0  0  0  0  0  0  0  0  0
   -3.8375    0.2575    1.1490 H   0  0  0  0  0  0  0  0  0  0  0  0
   -3.2185   -1.0191    2.1944 H   0  0  0  0  0  0  0  0  0  0  0  0
   -4.8070   -2.6495    1.2284 H   0  0  0  0  0  0  0  0  0  0  0  0
   -5.6326   -1.2723    1.9458 H   0  0  0  0  0  0  0  0  0  0  0  0
   -5.1563   -1.7214   -1.0513 H   0  0  0  0  0  0  0  0  0  0  0  0
   -6.6607   -1.9736   -0.1796 H   0  0  0  0  0  0  0  0  0  0  0  0
   -6.7182    0.4860    0.3974 H   0  0  0  0  0  0  0  0  0  0  0  0
   -5.2758    0.7218   -0.6123 H   0  0  0  0  0  0  0  0  0  0  0  0
   -6.7807    0.1559   -1.3419 H   0  0  0  0  0  0  0  0  0  0  0  0
    3.2159   -1.7262   -2.2228 H   0  0  0  0  0  0  0  0  0  0  0  0
    5.5957   -1.0283   -2.5022 H   0  0  0  0  0  0  0  0  0  0  0  0
    7.7800   -0.0001   -0.8789 H   0  0  0  0  0  0  0  0  0  0  0  0
    8.1066    0.5953    1.5704 H   0  0  0  0  0  0  0  0  0  0  0  0
    3.3713   -0.8296    1.9868 H   0  0  0  0  0  0  0  0  0  0  0  0
    2.8926    1.4347   -0.6875 H   0  0  0  0  0  0  0  0  0  0  0  0
   -0.5824    4.4739   -0.1292 H   0  0  0  0  0  0  0  0  0  0  0  0
   -1.9464    3.3710   -0.4605 H   0  0  0  0  0  0  0  0  0  0  0  0
   -0.9494    3.9805   -1.8164 H   0  0  0  0  0  0  0  0  0  0  0  0
  1  2  1  0
  2  3  1  0
  3  4  1  0
  4  5  1  0
  5  6  1  0
  6  7  1  0
  2  8  2  0
  8  9  1  0
  9 10  2  3
 10 11  1  0
 11 12  2  0
 12 13  1  0
 13 14  2  0
 14 15  1  0
 15 16  1  0
 16 17  2  0
 17 18  1  0
 18 19  2  0
  9 20  1  0
 20 21  1  0
 21 22  2  0
 22 23  1  0
 23 24  1  0
 23 25  1  0
 25  1  1  0
 19 11  1  0
 25 20  2  0
 18 14  1  0
  1 26  1  0
  3 27  1  0
  4 28  1  0
  4 29  1  0
  5 30  1  0
  5 31  1  0
  6 32  1  0
  6 33  1  0
  7 34  1  0
  7 35  1  0
  7 36  1  0
 12 37  1  0
 13 38  1  0
 15 39  1  0
 16 40  1  0
 19 41  1  0
 21 42  1  0
 24 43  1  0
 24 44  1  0
 24 45  1  0
M  END
>  <ScrubInfo>  (14) 
{"isomerGroup": 0, "isomerId": 13, "confId": 0, "nr_conformers:": 1, "nr_isomers:": 16}

$$$$
_i14
     RDKit          3D

 45 48  0  0  0  0  0  0  0  0999 V2000
    1.5277    2.9731   -0.0719 N   0  0  0  0  0  0  0  0  0  0  0  0
    1.9515    1.6484   -0.0468 C   0  0  0  0  0  0  0  0  0  0  0  0
    0.9426    0.7634   -0.0459 C   0  0  0  0  0  0  0  0  0  0  0  0
    0.7377   -0.6797   -0.0602 C   0  0  0  0  0  0  0  0  0  0  0  0
    1.5864   -1.6523   -0.0127 N   0  0  0  0  0  0  0  0  0  0  0  0
    2.9584   -1.4023    0.0765 C   0  0  0  0  0  0  0  0  0  0  0  0
    3.5729   -1.3632    1.3350 C   0  0  0  0  0  0  0  0  0  0  0  0
    4.9475   -1.1384    1.4803 C   0  0  0  0  0  0  0  0  0  0  0  0
    5.6743   -0.9663    0.3021 C   0  0  0  0  0  0  0  0  0  0  0  0
    7.0059   -0.7414    0.0607 N   0  0  0  0  0  0  0  0  0  0  0  0
    7.1805   -0.6544   -1.2915 C   0  0  0  0  0  0  0  0  0  0  0  0
    6.0487   -0.8117   -1.9381 N   0  0  0  0  0  0  0  0  0  0  0  0
    5.1006   -1.0173   -0.9647 C   0  0  0  0  0  0  0  0  0  0  0  0
    3.7243   -1.2517   -1.0874 C   0  0  0  0  0  0  0  0  0  0  0  0
   -0.5782   -1.0523   -0.1389 N   0  0  0  0  0  0  0  0  0  0  0  0
   -1.5620   -0.2025   -0.1508 C   0  0  0  0  0  0  0  0  0  0  0  0
   -2.8134   -0.7399   -0.2331 N   0  0  0  0  0  0  0  0  0  0  0  0
   -3.9521   -0.0045   -0.7358 C   0  0  0  0  0  0  0  0  0  0  0  0
   -5.2285   -0.8379   -0.6139 C   0  0  0  0  0  0  0  0  0  0  0  0
   -5.6402   -1.0731    0.8415 C   0  0  0  0  0  0  0  0  0  0  0  0
   -6.9372   -1.8621    0.9307 C   0  0  0  0  0  0  0  0  0  0  0  0
   -1.4364    1.1591   -0.0903 N   0  0  0  0  0  0  0  0  0  0  0  0
   -0.2444    1.6391   -0.0220 C   0  0  0  0  0  0  0  0  0  0  0  0
    0.1478    2.9761    0.0654 N   0  0  0  0  0  0  0  0  0  0  0  0
   -0.6225    4.0218   -0.5796 C   0  0  0  0  0  0  0  0  0  0  0  0
    2.0479    3.5770    0.5683 H   0  0  0  0  0  0  0  0  0  0  0  0
    3.0137    1.4535   -0.0330 H   0  0  0  0  0  0  0  0  0  0  0  0
    2.9624   -1.5219    2.2222 H   0  0  0  0  0  0  0  0  0  0  0  0
    5.4136   -1.1137    2.4588 H   0  0  0  0  0  0  0  0  0  0  0  0
    7.7312   -0.6611    0.7582 H   0  0  0  0  0  0  0  0  0  0  0  0
    8.1482   -0.4787   -1.7425 H   0  0  0  0  0  0  0  0  0  0  0  0
    3.2660   -1.3124   -2.0677 H   0  0  0  0  0  0  0  0  0  0  0  0
   -2.7719   -1.7229   -0.4763 H   0  0  0  0  0  0  0  0  0  0  0  0
   -4.0766    0.9384   -0.1909 H   0  0  0  0  0  0  0  0  0  0  0  0
   -3.7856    0.2395   -1.7914 H   0  0  0  0  0  0  0  0  0  0  0  0
   -6.0380   -0.3120   -1.1349 H   0  0  0  0  0  0  0  0  0  0  0  0
   -5.0951   -1.8021   -1.1201 H   0  0  0  0  0  0  0  0  0  0  0  0
   -5.7693   -0.1113    1.3514 H   0  0  0  0  0  0  0  0  0  0  0  0
   -4.8546   -1.6204    1.3747 H   0  0  0  0  0  0  0  0  0  0  0  0
   -7.7564   -1.3277    0.4392 H   0  0  0  0  0  0  0  0  0  0  0  0
   -7.2141   -2.0188    1.9779 H   0  0  0  0  0  0  0  0  0  0  0  0
   -6.8328   -2.8431    0.4563 H   0  0  0  0  0  0  0  0  0  0  0  0
   -1.6634    3.9980   -0.2417 H   0  0  0  0  0  0  0  0  0  0  0  0
   -0.2128    5.0058   -0.3295 H   0  0  0  0  0  0  0  0  0  0  0  0
   -0.6044    3.9038   -1.6682 H   0  0  0  0  0  0  0  0  0  0  0  0
  1  2  1  0
  2  3  2  0
  3  4  1  0
  4  5  2  3
  5  6  1  0
  6  7  2  0
  7  8  1  0
  8  9  2  0
  9 10  1  0
 10 11  1  0
 11 12  2  0
 12 13  1  0
 13 14  2  0
  4 15  1  0
 15 16  2  0
 16 17  1  0
 17 18  1  0
 18 19  1  0
 19 20  1  0
 20 21  1  0
 16 22  1  0
 22 23  2  0
 23 24  1  0
 24 25  1  0
 24  1  1  0
 23  3  1  0
 14  6  1  0
 13  9  1  0
  1 26  1  0
  2 27  1  0
  7 28  1  0
  8 29  1  0
 10 30  1  0
 11 31  1  0
 14 32  1  0
 17 33  1  0
 18 34  1  0
 18 35  1  0
 19 36  1  0
 19 37  1  0
 20 38  1  0
 20 39  1  0
 21 40  1  0
 21 41  1  0
 21 42  1  0
 25 43  1  0
 25 44  1  0
 25 45  1  0
M  END
>  <ScrubInfo>  (15) 
{"isomerGroup": 0, "isomerId": 14, "confId": 0, "nr_conformers:": 1, "nr_isomers:": 16}

$$$$
_i15
     RDKit          3D

 45 48  0  0  0  0  0  0  0  0999 V2000
    0.1842    5.1112   -0.7504 N   0  0  0  0  0  0  0  0  0  0  0  0
   -0.7896    4.1777   -0.4114 C   0  0  0  0  0  0  0  0  0  0  0  0
   -0.2877    2.9541   -0.1917 C   0  0  0  0  0  0  0  0  0  0  0  0
   -0.7747    1.6129    0.1485 C   0  0  0  0  0  0  0  0  0  0  0  0
   -2.1247    1.4310    0.3911 N   0  0  0  0  0  0  0  0  0  0  0  0
   -2.8551    0.2383    0.5852 C   0  0  0  0  0  0  0  0  0  0  0  0
   -4.1622    0.3443    1.1044 C   0  0  0  0  0  0  0  0  0  0  0  0
   -4.9706   -0.7723    1.3667 C   0  0  0  0  0  0  0  0  0  0  0  0
   -4.4117   -2.0172    1.0919 C   0  0  0  0  0  0  0  0  0  0  0  0
   -4.8879   -3.2971    1.2197 N   0  0  0  0  0  0  0  0  0  0  0  0
   -3.9111   -4.1543    0.7986 C   0  0  0  0  0  0  0  0  0  0  0  0
   -2.8361   -3.5095    0.4092 N   0  0  0  0  0  0  0  0  0  0  0  0
   -3.1270   -2.1777    0.5881 C   0  0  0  0  0  0  0  0  0  0  0  0
   -2.3382   -1.0420    0.3380 C   0  0  0  0  0  0  0  0  0  0  0  0
    0.1144    0.6644    0.2184 N   0  0  0  0  0  0  0  0  0  0  0  0
    1.4424    0.9379   -0.0331 C   0  0  0  0  0  0  0  0  0  0  0  0
    2.3014   -0.0196   -0.0309 N   0  0  0  0  0  0  0  0  0  0  0  0
    1.8135   -1.3697    0.2393 C   0  0  0  0  0  0  0  0  0  0  0  0
    2.9978   -2.3380    0.2343 C   0  0  0  0  0  0  0  0  0  0  0  0
    3.6204   -2.4948   -1.1550 C   0  0  0  0  0  0  0  0  0  0  0  0
    4.7663   -3.4944   -1.1399 C   0  0  0  0  0  0  0  0  0  0  0  0
    1.9916    2.1702   -0.2943 N   0  0  0  0  0  0  0  0  0  0  0  0
    1.1669    3.1538   -0.3619 C   0  0  0  0  0  0  0  0  0  0  0  0
    1.4260    4.5034   -0.6023 N   0  0  0  0  0  0  0  0  0  0  0  0
    2.5235    4.9063   -1.4615 C   0  0  0  0  0  0  0  0  0  0  0  0
    0.0719    6.0146   -0.2845 H   0  0  0  0  0  0  0  0  0  0  0  0
   -1.8186    4.5005   -0.3596 H   0  0  0  0  0  0  0  0  0  0  0  0
   -2.7053    2.2582    0.3911 H   0  0  0  0  0  0  0  0  0  0  0  0
   -4.5772    1.3262    1.3259 H   0  0  0  0  0  0  0  0  0  0  0  0
   -5.9723   -0.6632    1.7668 H   0  0  0  0  0  0  0  0  0  0  0  0
   -5.7989   -3.5617    1.5643 H   0  0  0  0  0  0  0  0  0  0  0  0
   -4.0395   -5.2285    0.7991 H   0  0  0  0  0  0  0  0  0  0  0  0
   -1.3459   -1.1987   -0.0632 H   0  0  0  0  0  0  0  0  0  0  0  0
    1.3390   -1.4143    1.2272 H   0  0  0  0  0  0  0  0  0  0  0  0
    1.0844   -1.6839   -0.5170 H   0  0  0  0  0  0  0  0  0  0  0  0
    2.6496   -3.3172    0.5847 H   0  0  0  0  0  0  0  0  0  0  0  0
    3.7606   -1.9935    0.9435 H   0  0  0  0  0  0  0  0  0  0  0  0
    2.8589   -2.8324   -1.8676 H   0  0  0  0  0  0  0  0  0  0  0  0
    3.9956   -1.5297   -1.5139 H   0  0  0  0  0  0  0  0  0  0  0  0
    4.4208   -4.4828   -0.8206 H   0  0  0  0  0  0  0  0  0  0  0  0
    5.1967   -3.5925   -2.1414 H   0  0  0  0  0  0  0  0  0  0  0  0
    5.5601   -3.1708   -0.4591 H   0  0  0  0  0  0  0  0  0  0  0  0
    3.4672    4.4790   -1.1077 H   0  0  0  0  0  0  0  0  0  0  0  0
    2.6284    5.9960   -1.4586 H   0  0  0  0  0  0  0  0  0  0  0  0
    2.3526    4.5760   -2.4914 H   0  0  0  0  0  0  0  0  0  0  0  0
  1  2  1  0
  2  3  2  0
  3  4  1  0
  4  5  1  0
  5  6  1  0
  6  7  2  0
  7  8  1  0
  8  9  2  0
  9 10  1  0
 10 11  1  0
 11 12  2  0
 12 13  1  0
 13 14  2  0
  4 15  2  0
 15 16  1  0
 16 17  2  3
 17 18  1  0
 18 19  1  0
 19 20  1  0
 20 21  1  0
 16 22  1  0
 22 23  2  0
 23 24  1  0
 24 25  1  0
 24  1  1  0
 23  3  1  0
 14  6  1  0
 13  9  1  0
  1 26  1  0
  2 27  1  0
  5 28  1  0
  7 29  1  0
  8 30  1  0
 10 31  1  0
 11 32  1  0
 14 33  1  0
 18 34  1  0
 18 35  1  0
 19 36  1  0
 19 37  1  0
 20 38  1  0
 20 39  1  0
 21 40  1  0
 21 41  1  0
 21 42  1  0
 25 43  1  0
 25 44  1  0
 25 45  1  0
M  END
>  <ScrubInfo>  (16) 
{"isomerGroup": 0, "isomerId": 15, "confId": 0, "nr_conformers:": 1, "nr_isomers:": 16}

$$$$
