_i0
     RDKit          3D

 47 49  0  0  0  0  0  0  0  0999 V2000
   -7.1308    1.2182   -1.3737 C   0  0  0  0  0  0  0  0  0  0  0  0
   -5.7228    0.7048   -1.1138 C   0  0  0  0  0  0  0  0  0  0  0  0
   -4.8417    1.7875   -0.4853 C   0  0  0  0  0  0  0  0  0  0  0  0
   -3.3939    1.3335   -0.2773 C   0  0  0  0  0  0  0  0  0  0  0  0
   -3.3175    0.3608    0.7989 N   0  0  0  0  0  0  0  0  0  0  0  0
   -2.0456   -0.1553    1.0252 C   0  0  0  0  0  0  0  0  0  0  0  0
   -0.9663    0.6341    0.8582 N   0  0  0  0  0  0  0  0  0  0  0  0
    0.2793    0.1412    1.0685 C   0  0  0  0  0  0  0  0  0  0  0  0
    1.3493    1.0309    0.8936 N   0  0  0  0  0  0  0  0  0  0  0  0
    2.5747    0.8177    0.2336 C   0  0  0  0  0  0  0  0  0  0  0  0
    3.6186    1.7243    0.4630 C   0  0  0  0  0  0  0  0  0  0  0  0
    4.8602    1.5779   -0.1678 C   0  0  0  0  0  0  0  0  0  0  0  0
    5.0740    0.5181   -1.0532 C   0  0  0  0  0  0  0  0  0  0  0  0
    6.3755    0.3137   -1.7563 C   0  0  0  0  0  0  0  0  0  0  0  0
    7.5220    1.2428   -1.4543 C   0  0  0  0  0  0  0  0  0  0  0  0
    6.4958   -0.6009   -2.5689 O   0  0  0  0  0  0  0  0  0  0  0  0
    4.0317   -0.3830   -1.2996 C   0  0  0  0  0  0  0  0  0  0  0  0
    2.7937   -0.2314   -0.6641 C   0  0  0  0  0  0  0  0  0  0  0  0
    0.3919   -1.1816    1.4999 C   0  0  0  0  0  0  0  0  0  0  0  0
    1.3988   -2.0864    1.8943 C   0  0  0  0  0  0  0  0  0  0  0  0
    0.9159   -3.2894    2.2272 N   0  0  0  0  0  0  0  0  0  0  0  0
   -0.4195   -3.1412    2.0650 N   0  0  0  0  0  0  0  0  0  0  0  0
   -1.2955   -4.2479    2.3560 C   0  0  0  0  0  0  0  0  0  0  0  0
   -0.7829   -1.8938    1.6357 C   0  0  0  0  0  0  0  0  0  0  0  0
   -2.0235   -1.4407    1.4004 N   0  0  0  0  0  0  0  0  0  0  0  0
   -7.1175    2.0706   -2.0604 H   0  0  0  0  0  0  0  0  0  0  0  0
   -7.7444    0.4307   -1.8223 H   0  0  0  0  0  0  0  0  0  0  0  0
   -7.6111    1.5342   -0.4421 H   0  0  0  0  0  0  0  0  0  0  0  0
   -5.2828    0.3701   -2.0603 H   0  0  0  0  0  0  0  0  0  0  0  0
   -5.7827   -0.1691   -0.4563 H   0  0  0  0  0  0  0  0  0  0  0  0
   -4.8356    2.6643   -1.1448 H   0  0  0  0  0  0  0  0  0  0  0  0
   -5.2741    2.1082    0.4706 H   0  0  0  0  0  0  0  0  0  0  0  0
   -2.8001    2.2203   -0.0229 H   0  0  0  0  0  0  0  0  0  0  0  0
   -2.9974    0.9169   -1.2118 H   0  0  0  0  0  0  0  0  0  0  0  0
   -3.9235   -0.4469    0.7068 H   0  0  0  0  0  0  0  0  0  0  0  0
    0.9484    1.9344    0.6501 H   0  0  0  0  0  0  0  0  0  0  0  0
    3.4721    2.5515    1.1553 H   0  0  0  0  0  0  0  0  0  0  0  0
    5.6362    2.3050    0.0517 H   0  0  0  0  0  0  0  0  0  0  0  0
    7.2758    2.2607   -1.7672 H   0  0  0  0  0  0  0  0  0  0  0  0
    8.4046    0.9178   -2.0141 H   0  0  0  0  0  0  0  0  0  0  0  0
    7.7682    1.2095   -0.3899 H   0  0  0  0  0  0  0  0  0  0  0  0
    4.1735   -1.2096   -1.9944 H   0  0  0  0  0  0  0  0  0  0  0  0
    2.0036   -0.9380   -0.9047 H   0  0  0  0  0  0  0  0  0  0  0  0
    2.4666   -1.9172    1.9513 H   0  0  0  0  0  0  0  0  0  0  0  0
   -1.1907   -4.4994    3.4144 H   0  0  0  0  0  0  0  0  0  0  0  0
   -2.3304   -3.9735    2.1403 H   0  0  0  0  0  0  0  0  0  0  0  0
   -1.0000   -5.0944    1.7310 H   0  0  0  0  0  0  0  0  0  0  0  0
  1  2  1  0
  2  3  1  0
  3  4  1  0
  4  5  1  0
  5  6  1  0
  6  7  2  0
  7  8  1  0
  8  9  1  0
  9 10  1  0
 10 11  2  0
 11 12  1  0
 12 13  2  0
 13 14  1  0
 14 15  1  0
 14 16  2  0
 13 17  1  0
 17 18  2  0
  8 19  2  0
 19 20  1  0
 20 21  2  0
 21 22  1  0
 22 23  1  0
 22 24  1  0
 24 25  2  0
 25  6  1  0
 18 10  1  0
 24 19  1  0
  1 26  1  0
  1 27  1  0
  1 28  1  0
  2 29  1  0
  2 30  1  0
  3 31  1  0
  3 32  1  0
  4 33  1  0
  4 34  1  0
  5 35  1  0
  9 36  1  0
 11 37  1  0
 12 38  1  0
 15 39  1  0
 15 40  1  0
 15 41  1  0
 17 42  1  0
 18 43  1  0
 20 44  1  0
 23 45  1  0
 23 46  1  0
 23 47  1  0
M  END
>  <ScrubInfo>  (1) 
{"isomerGroup": 0, "isomerId": 0, "confId": 0, "nr_conformers:": 1, "nr_isomers:": 16}

$$$$
_i1
     RDKit          3D

 47 49  0  0  0  0  0  0  0  0999 V2000
    0.5175   -0.7112    0.2885 N   0  0  0  0  0  0  0  0  0  0  0  0
   -0.2984   -1.8179    0.4549 C   0  0  0  0  0  0  0  0  0  0  0  0
   -1.6276   -1.8228    0.0697 N   0  0  0  0  0  0  0  0  0  0  0  0
   -2.5441   -0.7533    0.0623 C   0  0  0  0  0  0  0  0  0  0  0  0
   -2.3468    0.4402    0.7648 C   0  0  0  0  0  0  0  0  0  0  0  0
   -3.2708    1.4884    0.6775 C   0  0  0  0  0  0  0  0  0  0  0  0
   -4.4115    1.3678   -0.1238 C   0  0  0  0  0  0  0  0  0  0  0  0
   -5.3648    2.5154   -0.1859 C   0  0  0  0  0  0  0  0  0  0  0  0
   -6.6163    2.3816   -1.0133 C   0  0  0  0  0  0  0  0  0  0  0  0
   -5.1182    3.5489    0.4322 O   0  0  0  0  0  0  0  0  0  0  0  0
   -4.6166    0.1836   -0.8360 C   0  0  0  0  0  0  0  0  0  0  0  0
   -3.6883   -0.8618   -0.7422 C   0  0  0  0  0  0  0  0  0  0  0  0
    0.3118   -2.9002    0.9527 C   0  0  0  0  0  0  0  0  0  0  0  0
   -0.0264   -4.2879    1.2883 C   0  0  0  0  0  0  0  0  0  0  0  0
    0.9868   -4.9650    1.7646 N   0  0  0  0  0  0  0  0  0  0  0  0
    2.0500   -4.0493    1.8220 N   0  0  0  0  0  0  0  0  0  0  0  0
    3.3923   -4.5421    2.0178 C   0  0  0  0  0  0  0  0  0  0  0  0
    1.7453   -2.8020    1.3007 C   0  0  0  0  0  0  0  0  0  0  0  0
    2.4912   -1.7678    1.1206 N   0  0  0  0  0  0  0  0  0  0  0  0
    1.8660   -0.6739    0.5639 C   0  0  0  0  0  0  0  0  0  0  0  0
    2.6616    0.3120    0.3473 N   0  0  0  0  0  0  0  0  0  0  0  0
    2.1311    1.5384   -0.2331 C   0  0  0  0  0  0  0  0  0  0  0  0
    3.2554    2.5688   -0.3436 C   0  0  0  0  0  0  0  0  0  0  0  0
    4.3202    2.1664   -1.3666 C   0  0  0  0  0  0  0  0  0  0  0  0
    5.4027    3.2276   -1.4875 C   0  0  0  0  0  0  0  0  0  0  0  0
    0.1128    0.0458   -0.2392 H   0  0  0  0  0  0  0  0  0  0  0  0
   -2.0818   -2.7309    0.0592 H   0  0  0  0  0  0  0  0  0  0  0  0
   -1.4931    0.5677    1.4262 H   0  0  0  0  0  0  0  0  0  0  0  0
   -3.0949    2.3998    1.2477 H   0  0  0  0  0  0  0  0  0  0  0  0
   -7.2222    1.5461   -0.6530 H   0  0  0  0  0  0  0  0  0  0  0  0
   -6.3604    2.2530   -2.0680 H   0  0  0  0  0  0  0  0  0  0  0  0
   -7.2106    3.2956   -0.9161 H   0  0  0  0  0  0  0  0  0  0  0  0
   -5.4824    0.0462   -1.4770 H   0  0  0  0  0  0  0  0  0  0  0  0
   -3.8617   -1.7657   -1.3232 H   0  0  0  0  0  0  0  0  0  0  0  0
   -1.0366   -4.6829    1.1231 H   0  0  0  0  0  0  0  0  0  0  0  0
    4.0316   -3.7699    2.4574 H   0  0  0  0  0  0  0  0  0  0  0  0
    3.3943   -5.4021    2.6953 H   0  0  0  0  0  0  0  0  0  0  0  0
    3.8268   -4.8528    1.0626 H   0  0  0  0  0  0  0  0  0  0  0  0
    1.7063    1.3507   -1.2264 H   0  0  0  0  0  0  0  0  0  0  0  0
    1.3448    1.9522    0.4097 H   0  0  0  0  0  0  0  0  0  0  0  0
    3.7233    2.7129    0.6381 H   0  0  0  0  0  0  0  0  0  0  0  0
    2.8195    3.5312   -0.6380 H   0  0  0  0  0  0  0  0  0  0  0  0
    3.8549    2.0149   -2.3475 H   0  0  0  0  0  0  0  0  0  0  0  0
    4.7846    1.2168   -1.0775 H   0  0  0  0  0  0  0  0  0  0  0  0
    6.1529    2.9216   -2.2234 H   0  0  0  0  0  0  0  0  0  0  0  0
    4.9802    4.1842   -1.8111 H   0  0  0  0  0  0  0  0  0  0  0  0
    5.9095    3.3818   -0.5295 H   0  0  0  0  0  0  0  0  0  0  0  0
  1  2  1  0
  2  3  1  0
  3  4  1  0
  4  5  2  0
  5  6  1  0
  6  7  2  0
  7  8  1  0
  8  9  1  0
  8 10  2  0
  7 11  1  0
 11 12  2  0
  2 13  2  0
 13 14  1  0
 14 15  2  0
 15 16  1  0
 16 17  1  0
 16 18  1  0
 18 19  2  0
 19 20  1  0
 20 21  2  3
 21 22  1  0
 22 23  1  0
 23 24  1  0
 24 25  1  0
 20  1  1  0
 12  4  1  0
 18 13  1  0
  1 26  1  0
  3 27  1  0
  5 28  1  0
  6 29  1  0
  9 30  1  0
  9 31  1  0
  9 32  1  0
 11 33  1  0
 12 34  1  0
 14 35  1  0
 17 36  1  0
 17 37  1  0
 17 38  1  0
 22 39  1  0
 22 40  1  0
 23 41  1  0
 23 42  1  0
 24 43  1  0
 24 44  1  0
 25 45  1  0
 25 46  1  0
 25 47  1  0
M  END
>  <ScrubInfo>  (2) 
{"isomerGroup": 0, "isomerId": 1, "confId": 0, "nr_conformers:": 1, "nr_isomers:": 16}

$$$$
_i2
     RDKit          3D

 47 49  0  0  0  0  0  0  0  0999 V2000
    1.3913    0.0276   -0.2539 N   0  0  0  0  0  0  0  0  0  0  0  0
    2.1925   -0.5355   -1.2144 C   0  0  0  0  0  0  0  0  0  0  0  0
    3.4993   -0.1439   -1.2334 N   0  0  0  0  0  0  0  0  0  0  0  0
    4.3132    0.0987   -0.0560 C   0  0  0  0  0  0  0  0  0  0  0  0
    4.5944    1.5937    0.0765 C   0  0  0  0  0  0  0  0  0  0  0  0
    5.4600    1.8904    1.3003 C   0  0  0  0  0  0  0  0  0  0  0  0
    5.7437    3.3779    1.4348 C   0  0  0  0  0  0  0  0  0  0  0  0
    1.7687   -1.3971   -2.1054 N   0  0  0  0  0  0  0  0  0  0  0  0
    0.4449   -1.6786   -1.9413 C   0  0  0  0  0  0  0  0  0  0  0  0
   -0.4388   -1.1622   -1.0050 C   0  0  0  0  0  0  0  0  0  0  0  0
   -1.6556   -1.8086   -1.2832 C   0  0  0  0  0  0  0  0  0  0  0  0
   -1.5687   -2.6582   -2.3145 N   0  0  0  0  0  0  0  0  0  0  0  0
   -0.2756   -2.5591   -2.6984 N   0  0  0  0  0  0  0  0  0  0  0  0
    0.1950   -3.3535   -3.8050 C   0  0  0  0  0  0  0  0  0  0  0  0
    0.0463   -0.1798   -0.0556 C   0  0  0  0  0  0  0  0  0  0  0  0
   -0.6125    0.4631    0.8604 N   0  0  0  0  0  0  0  0  0  0  0  0
   -1.9794    0.2754    1.0626 C   0  0  0  0  0  0  0  0  0  0  0  0
   -2.4308   -0.6382    2.0163 C   0  0  0  0  0  0  0  0  0  0  0  0
   -3.7999   -0.7988    2.2485 C   0  0  0  0  0  0  0  0  0  0  0  0
   -4.7346   -0.0337    1.5374 C   0  0  0  0  0  0  0  0  0  0  0  0
   -6.1865   -0.2396    1.8211 C   0  0  0  0  0  0  0  0  0  0  0  0
   -7.2031    0.5329    1.0221 C   0  0  0  0  0  0  0  0  0  0  0  0
   -6.5333   -1.0289    2.6975 O   0  0  0  0  0  0  0  0  0  0  0  0
   -4.2816    0.8996    0.5975 C   0  0  0  0  0  0  0  0  0  0  0  0
   -2.9094    1.0561    0.3709 C   0  0  0  0  0  0  0  0  0  0  0  0
    1.7772    0.7729    0.2999 H   0  0  0  0  0  0  0  0  0  0  0  0
    4.0012   -0.6406   -1.9660 H   0  0  0  0  0  0  0  0  0  0  0  0
    5.2586   -0.4455   -0.1649 H   0  0  0  0  0  0  0  0  0  0  0  0
    3.8298   -0.2889    0.8484 H   0  0  0  0  0  0  0  0  0  0  0  0
    3.6502    2.1471    0.1503 H   0  0  0  0  0  0  0  0  0  0  0  0
    5.0980    1.9546   -0.8293 H   0  0  0  0  0  0  0  0  0  0  0  0
    6.4100    1.3485    1.2249 H   0  0  0  0  0  0  0  0  0  0  0  0
    4.9557    1.5372    2.2073 H   0  0  0  0  0  0  0  0  0  0  0  0
    6.3641    3.5673    2.3164 H   0  0  0  0  0  0  0  0  0  0  0  0
    4.8145    3.9461    1.5449 H   0  0  0  0  0  0  0  0  0  0  0  0
    6.2764    3.7567    0.5567 H   0  0  0  0  0  0  0  0  0  0  0  0
   -2.6129   -1.7123   -0.7911 H   0  0  0  0  0  0  0  0  0  0  0  0
    0.1120   -4.4078   -3.5293 H   0  0  0  0  0  0  0  0  0  0  0  0
   -0.4295   -3.1363   -4.6754 H   0  0  0  0  0  0  0  0  0  0  0  0
    1.2355   -3.1091   -4.0291 H   0  0  0  0  0  0  0  0  0  0  0  0
   -1.7144   -1.2275    2.5827 H   0  0  0  0  0  0  0  0  0  0  0  0
   -4.1322   -1.5214    2.9920 H   0  0  0  0  0  0  0  0  0  0  0  0
   -7.1070    1.6031    1.2223 H   0  0  0  0  0  0  0  0  0  0  0  0
   -8.2083    0.2187    1.3204 H   0  0  0  0  0  0  0  0  0  0  0  0
   -7.0883    0.3225   -0.0444 H   0  0  0  0  0  0  0  0  0  0  0  0
   -4.9688    1.5232    0.0336 H   0  0  0  0  0  0  0  0  0  0  0  0
   -2.5609    1.7919   -0.3499 H   0  0  0  0  0  0  0  0  0  0  0  0
  1  2  1  0
  2  3  1  0
  3  4  1  0
  4  5  1  0
  5  6  1  0
  6  7  1  0
  2  8  2  0
  8  9  1  0
  9 10  2  0
 10 11  1  0
 11 12  2  0
 12 13  1  0
 13 14  1  0
 10 15  1  0
 15 16  2  3
 16 17  1  0
 17 18  2  0
 18 19  1  0
 19 20  2  0
 20 21  1  0
 21 22  1  0
 21 23  2  0
 20 24  1  0
 24 25  2  0
 15  1  1  0
 25 17  1  0
 13  9  1  0
  1 26  1  0
  3 27  1  0
  4 28  1  0
  4 29  1  0
  5 30  1  0
  5 31  1  0
  6 32  1  0
  6 33  1  0
  7 34  1  0
  7 35  1  0
  7 36  1  0
 11 37  1  0
 14 38  1  0
 14 39  1  0
 14 40  1  0
 18 41  1  0
 19 42  1  0
 22 43  1  0
 22 44  1  0
 22 45  1  0
 24 46  1  0
 25 47  1  0
M  END
>  <ScrubInfo>  (3) 
{"isomerGroup": 0, "isomerId": 2, "confId": 0, "nr_conformers:": 1, "nr_isomers:": 16}

$$$$
_i3
     RDKit          3D

 47 49  0  0  0  0  0  0  0  0999 V2000
   -2.0846    1.6701   -0.5806 N   0  0  0  0  0  0  0  0  0  0  0  0
   -2.1716    0.3048   -0.4124 C   0  0  0  0  0  0  0  0  0  0  0  0
   -3.2468   -0.2887   -0.8175 N   0  0  0  0  0  0  0  0  0  0  0  0
   -3.3220   -1.7369   -0.6281 C   0  0  0  0  0  0  0  0  0  0  0  0
   -4.6739   -2.2381   -1.1402 C   0  0  0  0  0  0  0  0  0  0  0  0
   -5.8915   -1.6674   -0.4060 C   0  0  0  0  0  0  0  0  0  0  0  0
   -5.9379   -2.0304    1.0700 C   0  0  0  0  0  0  0  0  0  0  0  0
   -1.1465   -0.4274    0.1715 N   0  0  0  0  0  0  0  0  0  0  0  0
   -0.0663    0.1940    0.5578 C   0  0  0  0  0  0  0  0  0  0  0  0
    0.9852   -0.4503    1.1603 N   0  0  0  0  0  0  0  0  0  0  0  0
    2.3023   -0.4834    0.6330 C   0  0  0  0  0  0  0  0  0  0  0  0
    2.6086   -0.1536   -0.6917 C   0  0  0  0  0  0  0  0  0  0  0  0
    3.9245   -0.2367   -1.1606 C   0  0  0  0  0  0  0  0  0  0  0  0
    4.9571   -0.6617   -0.3160 C   0  0  0  0  0  0  0  0  0  0  0  0
    6.3441   -0.7332   -0.8651 C   0  0  0  0  0  0  0  0  0  0  0  0
    7.4730   -1.1251    0.0518 C   0  0  0  0  0  0  0  0  0  0  0  0
    6.5475   -0.4766   -2.0500 O   0  0  0  0  0  0  0  0  0  0  0  0
    4.6557   -1.0111    1.0036 C   0  0  0  0  0  0  0  0  0  0  0  0
    3.3373   -0.9276    1.4678 C   0  0  0  0  0  0  0  0  0  0  0  0
    0.0502    1.6296    0.4315 C   0  0  0  0  0  0  0  0  0  0  0  0
    0.9703    2.6338    0.7676 C   0  0  0  0  0  0  0  0  0  0  0  0
    0.5458    3.8557    0.4069 N   0  0  0  0  0  0  0  0  0  0  0  0
   -0.6663    3.6256   -0.1573 N   0  0  0  0  0  0  0  0  0  0  0  0
   -1.4296    4.7381   -0.6619 C   0  0  0  0  0  0  0  0  0  0  0  0
   -0.9869    2.3064   -0.1477 C   0  0  0  0  0  0  0  0  0  0  0  0
   -2.8984    2.0967   -1.0031 H   0  0  0  0  0  0  0  0  0  0  0  0
   -3.1967   -2.0095    0.4258 H   0  0  0  0  0  0  0  0  0  0  0  0
   -2.5332   -2.2337   -1.2066 H   0  0  0  0  0  0  0  0  0  0  0  0
   -4.6935   -3.3326   -1.0705 H   0  0  0  0  0  0  0  0  0  0  0  0
   -4.7672   -1.9890   -2.2048 H   0  0  0  0  0  0  0  0  0  0  0  0
   -6.7969   -2.0555   -0.8883 H   0  0  0  0  0  0  0  0  0  0  0  0
   -5.9241   -0.5773   -0.5138 H   0  0  0  0  0  0  0  0  0  0  0  0
   -5.1226   -1.5574    1.6250 H   0  0  0  0  0  0  0  0  0  0  0  0
   -6.8796   -1.6881    1.5111 H   0  0  0  0  0  0  0  0  0  0  0  0
   -5.8720   -3.1138    1.2111 H   0  0  0  0  0  0  0  0  0  0  0  0
    0.7101   -1.4123    1.3512 H   0  0  0  0  0  0  0  0  0  0  0  0
    1.8346    0.1626   -1.3876 H   0  0  0  0  0  0  0  0  0  0  0  0
    4.1367    0.0302   -2.1951 H   0  0  0  0  0  0  0  0  0  0  0  0
    7.5340   -0.4345    0.8969 H   0  0  0  0  0  0  0  0  0  0  0  0
    8.4181   -1.0683   -0.4975 H   0  0  0  0  0  0  0  0  0  0  0  0
    7.3400   -2.1539    0.3962 H   0  0  0  0  0  0  0  0  0  0  0  0
    5.4222   -1.3530    1.6928 H   0  0  0  0  0  0  0  0  0  0  0  0
    3.1226   -1.2001    2.4996 H   0  0  0  0  0  0  0  0  0  0  0  0
    1.9307    2.5381    1.2573 H   0  0  0  0  0  0  0  0  0  0  0  0
   -2.3510    4.3784   -1.1246 H   0  0  0  0  0  0  0  0  0  0  0  0
   -0.8243    5.2635   -1.4050 H   0  0  0  0  0  0  0  0  0  0  0  0
   -1.6673    5.3995    0.1750 H   0  0  0  0  0  0  0  0  0  0  0  0
  1  2  1  0
  2  3  2  3
  3  4  1  0
  4  5  1  0
  5  6  1  0
  6  7  1  0
  2  8  1  0
  8  9  2  0
  9 10  1  0
 10 11  1  0
 11 12  2  0
 12 13  1  0
 13 14  2  0
 14 15  1  0
 15 16  1  0
 15 17  2  0
 14 18  1  0
 18 19  2  0
  9 20  1  0
 20 21  1  0
 21 22  2  0
 22 23  1  0
 23 24  1  0
 23 25  1  0
 25  1  1  0
 19 11  1  0
 25 20  2  0
  1 26  1  0
  4 27  1  0
  4 28  1  0
  5 29  1  0
  5 30  1  0
  6 31  1  0
  6 32  1  0
  7 33  1  0
  7 34  1  0
  7 35  1  0
 10 36  1  0
 12 37  1  0
 13 38  1  0
 16 39  1  0
 16 40  1  0
 16 41  1  0
 18 42  1  0
 19 43  1  0
 21 44  1  0
 24 45  1  0
 24 46  1  0
 24 47  1  0
M  END
>  <ScrubInfo>  (4) 
{"isomerGroup": 0, "isomerId": 3, "confId": 0, "nr_conformers:": 1, "nr_isomers:": 16}

$$$$
_i4
     RDKit          3D

 47 49  0  0  0  0  0  0  0  0999 V2000
   -7.4062    1.8318   -1.0087 O   0  0  0  0  0  0  0  0  0  0  0  0
   -6.7253    1.2783    0.0531 C   0  0  0  0  0  0  0  0  0  0  0  0
   -7.2662    1.2883    1.2741 C   0  0  0  0  0  0  0  0  0  0  0  0
   -5.4148    0.6802   -0.2353 C   0  0  0  0  0  0  0  0  0  0  0  0
   -4.2647    1.1012    0.4401 C   0  0  0  0  0  0  0  0  0  0  0  0
   -3.0185    0.5338    0.1477 C   0  0  0  0  0  0  0  0  0  0  0  0
   -2.8954   -0.4684   -0.8202 C   0  0  0  0  0  0  0  0  0  0  0  0
   -1.6711   -1.0773   -1.1556 N   0  0  0  0  0  0  0  0  0  0  0  0
   -0.4566   -1.0690   -0.4562 C   0  0  0  0  0  0  0  0  0  0  0  0
    0.6704   -0.8761   -1.1875 N   0  0  0  0  0  0  0  0  0  0  0  0
    1.8755   -0.8726   -0.5866 C   0  0  0  0  0  0  0  0  0  0  0  0
    2.9462   -0.6563   -1.4471 N   0  0  0  0  0  0  0  0  0  0  0  0
    4.0420    0.1073   -0.8749 C   0  0  0  0  0  0  0  0  0  0  0  0
    5.1007    0.3470   -1.9542 C   0  0  0  0  0  0  0  0  0  0  0  0
    6.3607    1.0358   -1.4269 C   0  0  0  0  0  0  0  0  0  0  0  0
    6.1157    2.4531   -0.9327 C   0  0  0  0  0  0  0  0  0  0  0  0
    2.0979   -1.0517    0.7227 N   0  0  0  0  0  0  0  0  0  0  0  0
    0.9729   -1.2787    1.4161 C   0  0  0  0  0  0  0  0  0  0  0  0
   -0.3119   -1.3072    0.9120 C   0  0  0  0  0  0  0  0  0  0  0  0
   -1.1188   -1.6164    2.0265 C   0  0  0  0  0  0  0  0  0  0  0  0
   -0.4166   -1.7408    3.1593 N   0  0  0  0  0  0  0  0  0  0  0  0
    0.8589   -1.5382    2.7544 N   0  0  0  0  0  0  0  0  0  0  0  0
    1.9296   -1.6232    3.7152 C   0  0  0  0  0  0  0  0  0  0  0  0
   -4.0492   -0.8771   -1.5019 C   0  0  0  0  0  0  0  0  0  0  0  0
   -5.2961   -0.3125   -1.2133 C   0  0  0  0  0  0  0  0  0  0  0  0
   -6.7968    1.8669   -1.7665 H   0  0  0  0  0  0  0  0  0  0  0  0
   -8.2412    1.7359    1.4359 H   0  0  0  0  0  0  0  0  0  0  0  0
   -6.7674    0.8476    2.1302 H   0  0  0  0  0  0  0  0  0  0  0  0
   -4.3257    1.8847    1.1928 H   0  0  0  0  0  0  0  0  0  0  0  0
   -2.1471    0.9104    0.6767 H   0  0  0  0  0  0  0  0  0  0  0  0
   -1.4592   -0.9731   -2.1449 H   0  0  0  0  0  0  0  0  0  0  0  0
    2.5434   -0.2725   -2.2954 H   0  0  0  0  0  0  0  0  0  0  0  0
    3.6721    1.0670   -0.4952 H   0  0  0  0  0  0  0  0  0  0  0  0
    4.4995   -0.4420   -0.0429 H   0  0  0  0  0  0  0  0  0  0  0  0
    4.6701    0.9393   -2.7716 H   0  0  0  0  0  0  0  0  0  0  0  0
    5.3919   -0.6163   -2.3928 H   0  0  0  0  0  0  0  0  0  0  0  0
    7.1008    1.0718   -2.2352 H   0  0  0  0  0  0  0  0  0  0  0  0
    6.8022    0.4394   -0.6200 H   0  0  0  0  0  0  0  0  0  0  0  0
    5.4749    2.4637   -0.0462 H   0  0  0  0  0  0  0  0  0  0  0  0
    7.0653    2.9249   -0.6601 H   0  0  0  0  0  0  0  0  0  0  0  0
    5.6445    3.0642   -1.7089 H   0  0  0  0  0  0  0  0  0  0  0  0
   -2.1923   -1.7540    2.0582 H   0  0  0  0  0  0  0  0  0  0  0  0
    1.9499   -2.6391    4.1175 H   0  0  0  0  0  0  0  0  0  0  0  0
    1.7355   -0.9004    4.5118 H   0  0  0  0  0  0  0  0  0  0  0  0
    2.8836   -1.3950    3.2346 H   0  0  0  0  0  0  0  0  0  0  0  0
   -3.9864   -1.6605   -2.2542 H   0  0  0  0  0  0  0  0  0  0  0  0
   -6.1767   -0.6690   -1.7440 H   0  0  0  0  0  0  0  0  0  0  0  0
  1  2  1  0
  2  3  2  0
  2  4  1  0
  4  5  2  0
  5  6  1  0
  6  7  2  0
  7  8  1  0
  8  9  1  0
  9 10  2  0
 10 11  1  0
 11 12  1  0
 12 13  1  0
 13 14  1  0
 14 15  1  0
 15 16  1  0
 11 17  2  0
 17 18  1  0
 18 19  2  0
 19 20  1  0
 20 21  2  0
 21 22  1  0
 22 23  1  0
  7 24  1  0
 24 25  2  0
 25  4  1  0
 19  9  1  0
 22 18  1  0
  1 26  1  0
  3 27  1  0
  3 28  1  0
  5 29  1  0
  6 30  1  0
  8 31  1  0
 12 32  1  0
 13 33  1  0
 13 34  1  0
 14 35  1  0
 14 36  1  0
 15 37  1  0
 15 38  1  0
 16 39  1  0
 16 40  1  0
 16 41  1  0
 20 42  1  0
 23 43  1  0
 23 44  1  0
 23 45  1  0
 24 46  1  0
 25 47  1  0
M  END
>  <ScrubInfo>  (5) 
{"isomerGroup": 0, "isomerId": 4, "confId": 0, "nr_conformers:": 1, "nr_isomers:": 16}

$$$$
_i5
     RDKit          3D

 47 49  0  0  0  0  0  0  0  0999 V2000
    1.0780   -4.9205   -0.7492 N   0  0  0  0  0  0  0  0  0  0  0  0
   -0.0293   -4.1129   -0.9891 C   0  0  0  0  0  0  0  0  0  0  0  0
    0.0950   -2.8903   -0.4571 C   0  0  0  0  0  0  0  0  0  0  0  0
   -0.6971   -1.6869   -0.3583 C   0  0  0  0  0  0  0  0  0  0  0  0
   -1.8553   -1.5720   -0.9307 N   0  0  0  0  0  0  0  0  0  0  0  0
   -2.5540   -0.3669   -0.7857 C   0  0  0  0  0  0  0  0  0  0  0  0
   -2.3780    0.6688   -1.7052 C   0  0  0  0  0  0  0  0  0  0  0  0
   -3.0942    1.8620   -1.5734 C   0  0  0  0  0  0  0  0  0  0  0  0
   -4.0073    2.0272   -0.5233 C   0  0  0  0  0  0  0  0  0  0  0  0
   -4.7476    3.3202   -0.4204 C   0  0  0  0  0  0  0  0  0  0  0  0
   -5.7617    3.4943    0.6798 C   0  0  0  0  0  0  0  0  0  0  0  0
   -4.5235    4.2227   -1.2249 O   0  0  0  0  0  0  0  0  0  0  0  0
   -4.1979    0.9832    0.3896 C   0  0  0  0  0  0  0  0  0  0  0  0
   -3.4765   -0.2079    0.2514 C   0  0  0  0  0  0  0  0  0  0  0  0
   -0.1233   -0.6918    0.3877 N   0  0  0  0  0  0  0  0  0  0  0  0
    1.0596   -0.8114    0.9201 C   0  0  0  0  0  0  0  0  0  0  0  0
    1.4970    0.2629    1.6380 N   0  0  0  0  0  0  0  0  0  0  0  0
    2.8904    0.5453    1.9032 C   0  0  0  0  0  0  0  0  0  0  0  0
    3.6201    1.0440    0.6546 C   0  0  0  0  0  0  0  0  0  0  0  0
    3.1008    2.3972    0.1622 C   0  0  0  0  0  0  0  0  0  0  0  0
    3.8959    2.8936   -1.0355 C   0  0  0  0  0  0  0  0  0  0  0  0
    1.8797   -1.9054    0.8072 N   0  0  0  0  0  0  0  0  0  0  0  0
    1.4359   -2.9115    0.1384 C   0  0  0  0  0  0  0  0  0  0  0  0
    2.0534   -4.1326   -0.1401 N   0  0  0  0  0  0  0  0  0  0  0  0
    2.9542   -4.7446    0.8176 C   0  0  0  0  0  0  0  0  0  0  0  0
    1.3768   -5.4491   -1.5721 H   0  0  0  0  0  0  0  0  0  0  0  0
   -0.8633   -4.4994   -1.5581 H   0  0  0  0  0  0  0  0  0  0  0  0
   -1.6753    0.5465   -2.5246 H   0  0  0  0  0  0  0  0  0  0  0  0
   -2.9357    2.6597   -2.2965 H   0  0  0  0  0  0  0  0  0  0  0  0
   -5.2740    3.4389    1.6563 H   0  0  0  0  0  0  0  0  0  0  0  0
   -6.5499    2.7420    0.5925 H   0  0  0  0  0  0  0  0  0  0  0  0
   -6.2261    4.4812    0.5873 H   0  0  0  0  0  0  0  0  0  0  0  0
   -4.8966    1.0648    1.2161 H   0  0  0  0  0  0  0  0  0  0  0  0
   -3.6266   -1.0192    0.9588 H   0  0  0  0  0  0  0  0  0  0  0  0
    0.8965    1.0692    1.5144 H   0  0  0  0  0  0  0  0  0  0  0  0
    3.3915   -0.3483    2.2928 H   0  0  0  0  0  0  0  0  0  0  0  0
    2.9508    1.3020    2.6936 H   0  0  0  0  0  0  0  0  0  0  0  0
    4.6867    1.1365    0.8938 H   0  0  0  0  0  0  0  0  0  0  0  0
    3.5394    0.3053   -0.1520 H   0  0  0  0  0  0  0  0  0  0  0  0
    2.0459    2.3188   -0.1233 H   0  0  0  0  0  0  0  0  0  0  0  0
    3.1662    3.1368    0.9685 H   0  0  0  0  0  0  0  0  0  0  0  0
    3.8263    2.1899   -1.8711 H   0  0  0  0  0  0  0  0  0  0  0  0
    3.5094    3.8605   -1.3724 H   0  0  0  0  0  0  0  0  0  0  0  0
    4.9527    3.0208   -0.7798 H   0  0  0  0  0  0  0  0  0  0  0  0
    2.4200   -5.0228    1.7321 H   0  0  0  0  0  0  0  0  0  0  0  0
    3.4077   -5.6454    0.3916 H   0  0  0  0  0  0  0  0  0  0  0  0
    3.7633   -4.0554    1.0801 H   0  0  0  0  0  0  0  0  0  0  0  0
  1  2  1  0
  2  3  2  0
  3  4  1  0
  4  5  2  3
  5  6  1  0
  6  7  2  0
  7  8  1  0
  8  9  2  0
  9 10  1  0
 10 11  1  0
 10 12  2  0
  9 13  1  0
 13 14  2  0
  4 15  1  0
 15 16  2  0
 16 17  1  0
 17 18  1  0
 18 19  1  0
 19 20  1  0
 20 21  1  0
 16 22  1  0
 22 23  2  0
 23 24  1  0
 24 25  1  0
 24  1  1  0
 23  3  1  0
 14  6  1  0
  1 26  1  0
  2 27  1  0
  7 28  1  0
  8 29  1  0
 11 30  1  0
 11 31  1  0
 11 32  1  0
 13 33  1  0
 14 34  1  0
 17 35  1  0
 18 36  1  0
 18 37  1  0
 19 38  1  0
 19 39  1  0
 20 40  1  0
 20 41  1  0
 21 42  1  0
 21 43  1  0
 21 44  1  0
 25 45  1  0
 25 46  1  0
 25 47  1  0
M  END
>  <ScrubInfo>  (6) 
{"isomerGroup": 0, "isomerId": 5, "confId": 0, "nr_conformers:": 1, "nr_isomers:": 16}

$$$$
_i6
     RDKit          3D

 47 49  0  0  0  0  0  0  0  0999 V2000
   -1.6953   -1.6190    0.2416 N   0  0  0  0  0  0  0  0  0  0  0  0
   -1.9791   -0.3317   -0.1517 C   0  0  0  0  0  0  0  0  0  0  0  0
   -3.3291   -0.1047   -0.1958 N   0  0  0  0  0  0  0  0  0  0  0  0
   -3.8393    1.1779   -0.6674 C   0  0  0  0  0  0  0  0  0  0  0  0
   -5.3567    1.2478   -0.4905 C   0  0  0  0  0  0  0  0  0  0  0  0
   -5.7761    1.2721    0.9813 C   0  0  0  0  0  0  0  0  0  0  0  0
   -7.2853    1.3908    1.1263 C   0  0  0  0  0  0  0  0  0  0  0  0
   -1.0915    0.5740   -0.4425 N   0  0  0  0  0  0  0  0  0  0  0  0
    0.2627    0.2738   -0.3802 C   0  0  0  0  0  0  0  0  0  0  0  0
    1.0701    1.2225   -0.7352 N   0  0  0  0  0  0  0  0  0  0  0  0
    2.4547    1.0750   -0.7325 C   0  0  0  0  0  0  0  0  0  0  0  0
    3.2011    1.4784    0.3777 C   0  0  0  0  0  0  0  0  0  0  0  0
    4.5965    1.3730    0.3766 C   0  0  0  0  0  0  0  0  0  0  0  0
    5.2605    0.8752   -0.7509 C   0  0  0  0  0  0  0  0  0  0  0  0
    6.7472    0.7428   -0.8070 C   0  0  0  0  0  0  0  0  0  0  0  0
    7.5643    1.1825    0.3796 C   0  0  0  0  0  0  0  0  0  0  0  0
    7.2840    0.2783   -1.8107 O   0  0  0  0  0  0  0  0  0  0  0  0
    4.5129    0.4931   -1.8734 C   0  0  0  0  0  0  0  0  0  0  0  0
    3.1193    0.6025   -1.8656 C   0  0  0  0  0  0  0  0  0  0  0  0
    0.6109   -1.0605    0.0789 C   0  0  0  0  0  0  0  0  0  0  0  0
    1.7764   -1.7968    0.3574 C   0  0  0  0  0  0  0  0  0  0  0  0
    1.5169   -3.0370    0.8018 N   0  0  0  0  0  0  0  0  0  0  0  0
    0.1666   -3.1023    0.8006 N   0  0  0  0  0  0  0  0  0  0  0  0
   -0.4756   -4.3215    1.2209 C   0  0  0  0  0  0  0  0  0  0  0  0
   -0.3976   -1.9436    0.3727 C   0  0  0  0  0  0  0  0  0  0  0  0
   -2.4480   -2.1511    0.6562 H   0  0  0  0  0  0  0  0  0  0  0  0
   -3.8542   -0.8871   -0.5667 H   0  0  0  0  0  0  0  0  0  0  0  0
   -3.3662    2.0027   -0.1216 H   0  0  0  0  0  0  0  0  0  0  0  0
   -3.5974    1.2930   -1.7303 H   0  0  0  0  0  0  0  0  0  0  0  0
   -5.8313    0.3971   -0.9953 H   0  0  0  0  0  0  0  0  0  0  0  0
   -5.7224    2.1572   -0.9828 H   0  0  0  0  0  0  0  0  0  0  0  0
   -5.2990    2.1179    1.4900 H   0  0  0  0  0  0  0  0  0  0  0  0
   -5.4420    0.3589    1.4866 H   0  0  0  0  0  0  0  0  0  0  0  0
   -7.6528    2.3126    0.6641 H   0  0  0  0  0  0  0  0  0  0  0  0
   -7.7924    0.5433    0.6543 H   0  0  0  0  0  0  0  0  0  0  0  0
   -7.5642    1.4072    2.1846 H   0  0  0  0  0  0  0  0  0  0  0  0
    2.6878    1.8827    1.2472 H   0  0  0  0  0  0  0  0  0  0  0  0
    5.1351    1.6930    1.2634 H   0  0  0  0  0  0  0  0  0  0  0  0
    7.4070    2.2463    0.5755 H   0  0  0  0  0  0  0  0  0  0  0  0
    8.6261    1.0330    0.1597 H   0  0  0  0  0  0  0  0  0  0  0  0
    7.3118    0.5814    1.2568 H   0  0  0  0  0  0  0  0  0  0  0  0
    5.0117    0.1163   -2.7648 H   0  0  0  0  0  0  0  0  0  0  0  0
    2.5495    0.3226   -2.7480 H   0  0  0  0  0  0  0  0  0  0  0  0
    2.8125   -1.5011    0.2704 H   0  0  0  0  0  0  0  0  0  0  0  0
   -1.5454   -4.2714    1.0077 H   0  0  0  0  0  0  0  0  0  0  0  0
   -0.0318   -5.1559    0.6717 H   0  0  0  0  0  0  0  0  0  0  0  0
   -0.3130   -4.4409    2.2949 H   0  0  0  0  0  0  0  0  0  0  0  0
  1  2  1  0
  2  3  1  0
  3  4  1  0
  4  5  1  0
  5  6  1  0
  6  7  1  0
  2  8  2  0
  8  9  1  0
  9 10  2  3
 10 11  1  0
 11 12  2  0
 12 13  1  0
 13 14  2  0
 14 15  1  0
 15 16  1  0
 15 17  2  0
 14 18  1  0
 18 19  2  0
  9 20  1  0
 20 21  1  0
 21 22  2  0
 22 23  1  0
 23 24  1  0
 23 25  1  0
 25  1  1  0
 19 11  1  0
 25 20  2  0
  1 26  1  0
  3 27  1  0
  4 28  1  0
  4 29  1  0
  5 30  1  0
  5 31  1  0
  6 32  1  0
  6 33  1  0
  7 34  1  0
  7 35  1  0
  7 36  1  0
 12 37  1  0
 13 38  1  0
 16 39  1  0
 16 40  1  0
 16 41  1  0
 18 42  1  0
 19 43  1  0
 21 44  1  0
 24 45  1  0
 24 46  1  0
 24 47  1  0
M  END
>  <ScrubInfo>  (7) 
{"isomerGroup": 0, "isomerId": 6, "confId": 0, "nr_conformers:": 1, "nr_isomers:": 16}

$$$$
_i7
     RDKit          3D

 47 49  0  0  0  0  0  0  0  0999 V2000
   -0.4899   -5.5815    0.3956 N   0  0  0  0  0  0  0  0  0  0  0  0
    0.4516   -4.5716    0.5629 C   0  0  0  0  0  0  0  0  0  0  0  0
   -0.0652   -3.3440    0.4089 C   0  0  0  0  0  0  0  0  0  0  0  0
    0.3930   -1.9501    0.4270 C   0  0  0  0  0  0  0  0  0  0  0  0
    1.7189   -1.6857    0.7225 N   0  0  0  0  0  0  0  0  0  0  0  0
    2.4257   -0.4681    0.7201 C   0  0  0  0  0  0  0  0  0  0  0  0
    1.9092    0.7447    0.2548 C   0  0  0  0  0  0  0  0  0  0  0  0
    2.6581    1.9304    0.3036 C   0  0  0  0  0  0  0  0  0  0  0  0
    3.9508    1.9258    0.8298 C   0  0  0  0  0  0  0  0  0  0  0  0
    4.7901    3.1579    0.9058 C   0  0  0  0  0  0  0  0  0  0  0  0
    4.2140    4.4645    0.4267 C   0  0  0  0  0  0  0  0  0  0  0  0
    5.9334    3.0918    1.3536 O   0  0  0  0  0  0  0  0  0  0  0  0
    4.4817    0.7234    1.3042 C   0  0  0  0  0  0  0  0  0  0  0  0
    3.7264   -0.4541    1.2514 C   0  0  0  0  0  0  0  0  0  0  0  0
   -0.4968   -1.0347    0.1681 N   0  0  0  0  0  0  0  0  0  0  0  0
   -1.7983   -1.3942   -0.1150 C   0  0  0  0  0  0  0  0  0  0  0  0
   -2.6522   -0.4867   -0.4343 N   0  0  0  0  0  0  0  0  0  0  0  0
   -2.1936    0.8978   -0.4778 C   0  0  0  0  0  0  0  0  0  0  0  0
   -3.3872    1.7838   -0.8338 C   0  0  0  0  0  0  0  0  0  0  0  0
   -2.9872    3.2567   -0.9026 C   0  0  0  0  0  0  0  0  0  0  0  0
   -4.1727    4.1400   -1.2568 C   0  0  0  0  0  0  0  0  0  0  0  0
   -2.3237   -2.6629   -0.0944 N   0  0  0  0  0  0  0  0  0  0  0  0
   -1.4991   -3.6127    0.1703 C   0  0  0  0  0  0  0  0  0  0  0  0
   -1.7383   -4.9832    0.2701 N   0  0  0  0  0  0  0  0  0  0  0  0
   -2.7567   -5.6219   -0.5422 C   0  0  0  0  0  0  0  0  0  0  0  0
   -0.4215   -6.3312    1.0882 H   0  0  0  0  0  0  0  0  0  0  0  0
    1.4705   -4.8486    0.7887 H   0  0  0  0  0  0  0  0  0  0  0  0
    2.2979   -2.4807    0.9586 H   0  0  0  0  0  0  0  0  0  0  0  0
    0.9129    0.8016   -0.1721 H   0  0  0  0  0  0  0  0  0  0  0  0
    2.1992    2.8375   -0.0791 H   0  0  0  0  0  0  0  0  0  0  0  0
    3.9894    4.4099   -0.6416 H   0  0  0  0  0  0  0  0  0  0  0  0
    4.9510    5.2593    0.5792 H   0  0  0  0  0  0  0  0  0  0  0  0
    3.3200    4.7188    1.0020 H   0  0  0  0  0  0  0  0  0  0  0  0
    5.4865    0.6946    1.7226 H   0  0  0  0  0  0  0  0  0  0  0  0
    4.1749   -1.3652    1.6410 H   0  0  0  0  0  0  0  0  0  0  0  0
   -1.7938    1.2073    0.4956 H   0  0  0  0  0  0  0  0  0  0  0  0
   -1.4143    1.0213   -1.2395 H   0  0  0  0  0  0  0  0  0  0  0  0
   -4.1802    1.6483   -0.0876 H   0  0  0  0  0  0  0  0  0  0  0  0
   -3.8052    1.4667   -1.7975 H   0  0  0  0  0  0  0  0  0  0  0  0
   -2.1996    3.3941   -1.6527 H   0  0  0  0  0  0  0  0  0  0  0  0
   -2.5759    3.5765    0.0619 H   0  0  0  0  0  0  0  0  0  0  0  0
   -4.5878    3.8670   -2.2323 H   0  0  0  0  0  0  0  0  0  0  0  0
   -3.8640    5.1892   -1.3006 H   0  0  0  0  0  0  0  0  0  0  0  0
   -4.9663    4.0504   -0.5081 H   0  0  0  0  0  0  0  0  0  0  0  0
   -2.8631   -6.6744   -0.2604 H   0  0  0  0  0  0  0  0  0  0  0  0
   -2.4955   -5.5708   -1.6044 H   0  0  0  0  0  0  0  0  0  0  0  0
   -3.7271   -5.1370   -0.3956 H   0  0  0  0  0  0  0  0  0  0  0  0
  1  2  1  0
  2  3  2  0
  3  4  1  0
  4  5  1  0
  5  6  1  0
  6  7  2  0
  7  8  1  0
  8  9  2  0
  9 10  1  0
 10 11  1  0
 10 12  2  0
  9 13  1  0
 13 14  2  0
  4 15  2  0
 15 16  1  0
 16 17  2  3
 17 18  1  0
 18 19  1  0
 19 20  1  0
 20 21  1  0
 16 22  1  0
 22 23  2  0
 23 24  1  0
 24 25  1  0
 24  1  1  0
 23  3  1  0
 14  6  1  0
  1 26  1  0
  2 27  1  0
  5 28  1  0
  7 29  1  0
  8 30  1  0
 11 31  1  0
 11 32  1  0
 11 33  1  0
 13 34  1  0
 14 35  1  0
 18 36  1  0
 18 37  1  0
 19 38  1  0
 19 39  1  0
 20 40  1  0
 20 41  1  0
 21 42  1  0
 21 43  1  0
 21 44  1  0
 25 45  1  0
 25 46  1  0
 25 47  1  0
M  END
>  <ScrubInfo>  (8) 
{"isomerGroup": 0, "isomerId": 7, "confId": 0, "nr_conformers:": 1, "nr_isomers:": 16}

$$$$
_i8
     RDKit          3D

 47 49  0  0  0  0  0  0  0  0999 V2000
   -7.8469    0.7503   -0.5685 O   0  0  0  0  0  0  0  0  0  0  0  0
   -6.9455    0.4435    0.4268 C   0  0  0  0  0  0  0  0  0  0  0  0
   -7.3326    0.4472    1.7049 C   0  0  0  0  0  0  0  0  0  0  0  0
   -5.5791    0.1052    0.0064 C   0  0  0  0  0  0  0  0  0  0  0  0
   -4.4758    0.8061    0.5029 C   0  0  0  0  0  0  0  0  0  0  0  0
   -3.1784    0.4820    0.0869 C   0  0  0  0  0  0  0  0  0  0  0  0
   -2.9549   -0.5435   -0.8390 C   0  0  0  0  0  0  0  0  0  0  0  0
   -1.6699   -0.9476   -1.2666 N   0  0  0  0  0  0  0  0  0  0  0  0
   -0.4549   -0.5458   -0.7453 C   0  0  0  0  0  0  0  0  0  0  0  0
    0.5401   -0.0528   -1.5639 N   0  0  0  0  0  0  0  0  0  0  0  0
    1.7810    0.3477   -1.1379 C   0  0  0  0  0  0  0  0  0  0  0  0
    2.6029    0.8220   -2.0144 N   0  0  0  0  0  0  0  0  0  0  0  0
    3.9257    1.2631   -1.5642 C   0  0  0  0  0  0  0  0  0  0  0  0
    4.9069    0.0926   -1.6241 C   0  0  0  0  0  0  0  0  0  0  0  0
    6.3444    0.4893   -1.2846 C   0  0  0  0  0  0  0  0  0  0  0  0
    6.5263    0.9170    0.1637 C   0  0  0  0  0  0  0  0  0  0  0  0
    2.1434    0.2444    0.1861 N   0  0  0  0  0  0  0  0  0  0  0  0
    1.2317   -0.2310    0.9648 C   0  0  0  0  0  0  0  0  0  0  0  0
   -0.1157   -0.6716    0.5442 C   0  0  0  0  0  0  0  0  0  0  0  0
   -0.7071   -1.1979    1.7793 C   0  0  0  0  0  0  0  0  0  0  0  0
    0.0941   -1.1020    2.8114 N   0  0  0  0  0  0  0  0  0  0  0  0
    1.2516   -0.4660    2.3303 N   0  0  0  0  0  0  0  0  0  0  0  0
    2.4532   -0.5136    3.1283 C   0  0  0  0  0  0  0  0  0  0  0  0
   -4.0658   -1.2442   -1.3299 C   0  0  0  0  0  0  0  0  0  0  0  0
   -5.3633   -0.9229   -0.9167 C   0  0  0  0  0  0  0  0  0  0  0  0
   -7.3500    0.8568   -1.3982 H   0  0  0  0  0  0  0  0  0  0  0  0
   -6.6566    0.1949    2.5144 H   0  0  0  0  0  0  0  0  0  0  0  0
   -8.3561    0.6968    1.9648 H   0  0  0  0  0  0  0  0  0  0  0  0
   -4.6163    1.6194    1.2124 H   0  0  0  0  0  0  0  0  0  0  0  0
   -2.3554    1.0700    0.4846 H   0  0  0  0  0  0  0  0  0  0  0  0
   -1.6480   -1.0880   -2.2728 H   0  0  0  0  0  0  0  0  0  0  0  0
    0.3430    0.1063   -2.5391 H   0  0  0  0  0  0  0  0  0  0  0  0
    3.8953    1.7241   -0.5710 H   0  0  0  0  0  0  0  0  0  0  0  0
    4.2609    2.0523   -2.2475 H   0  0  0  0  0  0  0  0  0  0  0  0
    4.8933   -0.3310   -2.6365 H   0  0  0  0  0  0  0  0  0  0  0  0
    4.5796   -0.7106   -0.9527 H   0  0  0  0  0  0  0  0  0  0  0  0
    6.6778    1.2949   -1.9490 H   0  0  0  0  0  0  0  0  0  0  0  0
    6.9965   -0.3709   -1.4773 H   0  0  0  0  0  0  0  0  0  0  0  0
    6.1697    0.1426    0.8502 H   0  0  0  0  0  0  0  0  0  0  0  0
    7.5865    1.0928    0.3727 H   0  0  0  0  0  0  0  0  0  0  0  0
    5.9888    1.8449    0.3793 H   0  0  0  0  0  0  0  0  0  0  0  0
   -1.7106   -1.6419    1.7872 H   0  0  0  0  0  0  0  0  0  0  0  0
    2.9789   -1.4603    2.9697 H   0  0  0  0  0  0  0  0  0  0  0  0
    2.2148   -0.4233    4.1931 H   0  0  0  0  0  0  0  0  0  0  0  0
    3.1280    0.3078    2.8669 H   0  0  0  0  0  0  0  0  0  0  0  0
   -3.9283   -2.0664   -2.0288 H   0  0  0  0  0  0  0  0  0  0  0  0
   -6.2028   -1.4977   -1.3034 H   0  0  0  0  0  0  0  0  0  0  0  0
  1  2  1  0
  2  3  2  0
  2  4  1  0
  4  5  2  0
  5  6  1  0
  6  7  2  0
  7  8  1  0
  8  9  1  0
  9 10  1  0
 10 11  1  0
 11 12  2  3
 12 13  1  0
 13 14  1  0
 14 15  1  0
 15 16  1  0
 11 17  1  0
 17 18  2  0
 18 19  1  0
 19 20  1  0
 20 21  2  0
 21 22  1  0
 22 23  1  0
  7 24  1  0
 24 25  2  0
 25  4  1  0
 19  9  2  0
 22 18  1  0
  1 26  1  0
  3 27  1  0
  3 28  1  0
  5 29  1  0
  6 30  1  0
  8 31  1  0
 10 32  1  0
 13 33  1  0
 13 34  1  0
 14 35  1  0
 14 36  1  0
 15 37  1  0
 15 38  1  0
 16 39  1  0
 16 40  1  0
 16 41  1  0
 20 42  1  0
 23 43  1  0
 23 44  1  0
 23 45  1  0
 24 46  1  0
 25 47  1  0
M  END
>  <ScrubInfo>  (9) 
{"isomerGroup": 0, "isomerId": 8, "confId": 0, "nr_conformers:": 1, "nr_isomers:": 16}

$$$$
_i9
     RDKit          3D

 47 49  0  0  0  0  0  0  0  0999 V2000
    1.1055   -4.5297   -0.5636 N   0  0  0  0  0  0  0  0  0  0  0  0
   -0.1132   -3.8796   -0.7231 C   0  0  0  0  0  0  0  0  0  0  0  0
   -0.0828   -2.6081   -0.3072 C   0  0  0  0  0  0  0  0  0  0  0  0
   -0.9883   -1.4579   -0.2529 C   0  0  0  0  0  0  0  0  0  0  0  0
   -2.2157   -1.5931   -0.6591 N   0  0  0  0  0  0  0  0  0  0  0  0
   -3.0686   -0.4856   -0.6044 C   0  0  0  0  0  0  0  0  0  0  0  0
   -3.1599    0.3904   -1.6867 C   0  0  0  0  0  0  0  0  0  0  0  0
   -4.0181    1.4924   -1.6328 C   0  0  0  0  0  0  0  0  0  0  0  0
   -4.8059    1.7232   -0.4966 C   0  0  0  0  0  0  0  0  0  0  0  0
   -5.7099    2.9122   -0.4869 C   0  0  0  0  0  0  0  0  0  0  0  0
   -6.5989    3.1441    0.7067 C   0  0  0  0  0  0  0  0  0  0  0  0
   -5.7164    3.6836   -1.4440 O   0  0  0  0  0  0  0  0  0  0  0  0
   -4.7249    0.8365    0.5835 C   0  0  0  0  0  0  0  0  0  0  0  0
   -3.8624   -0.2640    0.5231 C   0  0  0  0  0  0  0  0  0  0  0  0
   -0.3714   -0.3386    0.2452 N   0  0  0  0  0  0  0  0  0  0  0  0
    0.9279   -0.2394    0.6677 C   0  0  0  0  0  0  0  0  0  0  0  0
    1.3439    0.9151    1.0731 N   0  0  0  0  0  0  0  0  0  0  0  0
    2.7252    1.0424    1.5408 C   0  0  0  0  0  0  0  0  0  0  0  0
    3.6366    1.4050    0.3696 C   0  0  0  0  0  0  0  0  0  0  0  0
    5.0820    1.5942    0.8271 C   0  0  0  0  0  0  0  0  0  0  0  0
    5.9917    1.9554   -0.3362 C   0  0  0  0  0  0  0  0  0  0  0  0
    1.7788   -1.3262    0.6647 N   0  0  0  0  0  0  0  0  0  0  0  0
    1.3084   -2.4497    0.2204 C   0  0  0  0  0  0  0  0  0  0  0  0
    1.9637   -3.6811    0.1331 N   0  0  0  0  0  0  0  0  0  0  0  0
    3.3884   -3.7491   -0.1308 C   0  0  0  0  0  0  0  0  0  0  0  0
    1.0129   -5.4788   -0.1945 H   0  0  0  0  0  0  0  0  0  0  0  0
   -0.9536   -4.4109   -1.1473 H   0  0  0  0  0  0  0  0  0  0  0  0
   -2.5645    0.2124   -2.5787 H   0  0  0  0  0  0  0  0  0  0  0  0
   -4.0738    2.1657   -2.4868 H   0  0  0  0  0  0  0  0  0  0  0  0
   -5.9943    3.3214    1.5998 H   0  0  0  0  0  0  0  0  0  0  0  0
   -7.2704    2.2939    0.8511 H   0  0  0  0  0  0  0  0  0  0  0  0
   -7.2132    4.0326    0.5296 H   0  0  0  0  0  0  0  0  0  0  0  0
   -5.3218    0.9718    1.4805 H   0  0  0  0  0  0  0  0  0  0  0  0
   -3.8109   -0.9583    1.3586 H   0  0  0  0  0  0  0  0  0  0  0  0
   -0.8888    0.5255    0.2974 H   0  0  0  0  0  0  0  0  0  0  0  0
    3.0825    0.1471    2.0637 H   0  0  0  0  0  0  0  0  0  0  0  0
    2.7501    1.8484    2.2839 H   0  0  0  0  0  0  0  0  0  0  0  0
    3.5928    0.6205   -0.3955 H   0  0  0  0  0  0  0  0  0  0  0  0
    3.2738    2.3254   -0.1050 H   0  0  0  0  0  0  0  0  0  0  0  0
    5.1330    2.3864    1.5831 H   0  0  0  0  0  0  0  0  0  0  0  0
    5.4472    0.6733    1.2964 H   0  0  0  0  0  0  0  0  0  0  0  0
    5.9888    1.1673   -1.0959 H   0  0  0  0  0  0  0  0  0  0  0  0
    5.6722    2.8898   -0.8086 H   0  0  0  0  0  0  0  0  0  0  0  0
    7.0206    2.0861    0.0136 H   0  0  0  0  0  0  0  0  0  0  0  0
    3.7375   -4.7851   -0.0720 H   0  0  0  0  0  0  0  0  0  0  0  0
    3.6181   -3.3604   -1.1284 H   0  0  0  0  0  0  0  0  0  0  0  0
    3.9461   -3.1664    0.6095 H   0  0  0  0  0  0  0  0  0  0  0  0
  1  2  1  0
  2  3  2  0
  3  4  1  0
  4  5  2  3
  5  6  1  0
  6  7  2  0
  7  8  1  0
  8  9  2  0
  9 10  1  0
 10 11  1  0
 10 12  2  0
  9 13  1  0
 13 14  2  0
  4 15  1  0
 15 16  1  0
 16 17  2  3
 17 18  1  0
 18 19  1  0
 19 20  1  0
 20 21  1  0
 16 22  1  0
 22 23  2  0
 23 24  1  0
 24 25  1  0
 24  1  1  0
 23  3  1  0
 14  6  1  0
  1 26  1  0
  2 27  1  0
  7 28  1  0
  8 29  1  0
 11 30  1  0
 11 31  1  0
 11 32  1  0
 13 33  1  0
 14 34  1  0
 15 35  1  0
 18 36  1  0
 18 37  1  0
 19 38  1  0
 19 39  1  0
 20 40  1  0
 20 41  1  0
 21 42  1  0
 21 43  1  0
 21 44  1  0
 25 45  1  0
 25 46  1  0
 25 47  1  0
M  END
>  <ScrubInfo>  (10) 
{"isomerGroup": 0, "isomerId": 9, "confId": 0, "nr_conformers:": 1, "nr_isomers:": 16}

$$$$
_i10
     RDKit          3D

 47 49  0  0  0  0  0  0  0  0999 V2000
   -2.0285    1.2129   -0.7863 N   0  0  0  0  0  0  0  0  0  0  0  0
   -2.2404   -0.1485   -0.7169 C   0  0  0  0  0  0  0  0  0  0  0  0
   -3.4478   -0.5849   -0.8439 N   0  0  0  0  0  0  0  0  0  0  0  0
   -3.6769   -2.0243   -0.7647 C   0  0  0  0  0  0  0  0  0  0  0  0
   -5.1732   -2.3109   -0.9017 C   0  0  0  0  0  0  0  0  0  0  0  0
   -5.9822   -2.0980    0.3823 C   0  0  0  0  0  0  0  0  0  0  0  0
   -6.0526   -0.6531    0.8487 C   0  0  0  0  0  0  0  0  0  0  0  0
   -1.0815   -0.8724   -0.5129 N   0  0  0  0  0  0  0  0  0  0  0  0
    0.2307   -0.4652   -0.3699 C   0  0  0  0  0  0  0  0  0  0  0  0
    1.1757   -1.3362   -0.1753 N   0  0  0  0  0  0  0  0  0  0  0  0
    2.5119   -0.9682   -0.0229 C   0  0  0  0  0  0  0  0  0  0  0  0
    3.3621   -0.9256   -1.1291 C   0  0  0  0  0  0  0  0  0  0  0  0
    4.7114   -0.5962   -0.9710 C   0  0  0  0  0  0  0  0  0  0  0  0
    5.2302   -0.3213    0.3018 C   0  0  0  0  0  0  0  0  0  0  0  0
    6.6785    0.0241    0.4207 C   0  0  0  0  0  0  0  0  0  0  0  0
    7.2439    0.3426    1.7800 C   0  0  0  0  0  0  0  0  0  0  0  0
    7.3876    0.0444   -0.5833 O   0  0  0  0  0  0  0  0  0  0  0  0
    4.3833   -0.3871    1.4145 C   0  0  0  0  0  0  0  0  0  0  0  0
    3.0334   -0.7177    1.2491 C   0  0  0  0  0  0  0  0  0  0  0  0
    0.3469    0.9801   -0.4650 C   0  0  0  0  0  0  0  0  0  0  0  0
    1.3716    1.9432   -0.4169 C   0  0  0  0  0  0  0  0  0  0  0  0
    0.9176    3.1968   -0.5644 N   0  0  0  0  0  0  0  0  0  0  0  0
   -0.4166    3.0412   -0.7124 N   0  0  0  0  0  0  0  0  0  0  0  0
   -1.2439    4.2046   -0.9103 C   0  0  0  0  0  0  0  0  0  0  0  0
   -0.7898    1.7337   -0.6637 C   0  0  0  0  0  0  0  0  0  0  0  0
   -2.8699    1.7563   -0.9407 H   0  0  0  0  0  0  0  0  0  0  0  0
   -3.3027   -2.4374    0.1793 H   0  0  0  0  0  0  0  0  0  0  0  0
   -3.1553   -2.5206   -1.5921 H   0  0  0  0  0  0  0  0  0  0  0  0
   -5.2891   -3.3639   -1.1881 H   0  0  0  0  0  0  0  0  0  0  0  0
   -5.6031   -1.7137   -1.7152 H   0  0  0  0  0  0  0  0  0  0  0  0
   -5.5729   -2.7197    1.1872 H   0  0  0  0  0  0  0  0  0  0  0  0
   -7.0049   -2.4518    0.2030 H   0  0  0  0  0  0  0  0  0  0  0  0
   -5.0827   -0.3013    1.2114 H   0  0  0  0  0  0  0  0  0  0  0  0
   -6.7626   -0.5618    1.6772 H   0  0  0  0  0  0  0  0  0  0  0  0
   -6.3874    0.0071    0.0426 H   0  0  0  0  0  0  0  0  0  0  0  0
   -1.1794   -1.8736   -0.4568 H   0  0  0  0  0  0  0  0  0  0  0  0
    2.9741   -1.1514   -2.1191 H   0  0  0  0  0  0  0  0  0  0  0  0
    5.3567   -0.5619   -1.8473 H   0  0  0  0  0  0  0  0  0  0  0  0
    8.3039    0.5960    1.6776 H   0  0  0  0  0  0  0  0  0  0  0  0
    6.7312    1.2060    2.2117 H   0  0  0  0  0  0  0  0  0  0  0  0
    7.1649   -0.5279    2.4362 H   0  0  0  0  0  0  0  0  0  0  0  0
    4.7445   -0.1947    2.4203 H   0  0  0  0  0  0  0  0  0  0  0  0
    2.3822   -0.7827    2.1174 H   0  0  0  0  0  0  0  0  0  0  0  0
    2.4357    1.8076   -0.2834 H   0  0  0  0  0  0  0  0  0  0  0  0
   -2.2681    3.9837   -0.6017 H   0  0  0  0  0  0  0  0  0  0  0  0
   -1.2139    4.4665   -1.9706 H   0  0  0  0  0  0  0  0  0  0  0  0
   -0.8523    5.0254   -0.3036 H   0  0  0  0  0  0  0  0  0  0  0  0
  1  2  1  0
  2  3  2  3
  3  4  1  0
  4  5  1  0
  5  6  1  0
  6  7  1  0
  2  8  1  0
  8  9  1  0
  9 10  2  3
 10 11  1  0
 11 12  2  0
 12 13  1  0
 13 14  2  0
 14 15  1  0
 15 16  1  0
 15 17  2  0
 14 18  1  0
 18 19  2  0
  9 20  1  0
 20 21  1  0
 21 22  2  0
 22 23  1  0
 23 24  1  0
 23 25  1  0
 25  1  1  0
 19 11  1  0
 25 20  2  0
  1 26  1  0
  4 27  1  0
  4 28  1  0
  5 29  1  0
  5 30  1  0
  6 31  1  0
  6 32  1  0
  7 33  1  0
  7 34  1  0
  7 35  1  0
  8 36  1  0
 12 37  1  0
 13 38  1  0
 16 39  1  0
 16 40  1  0
 16 41  1  0
 18 42  1  0
 19 43  1  0
 21 44  1  0
 24 45  1  0
 24 46  1  0
 24 47  1  0
M  END
>  <ScrubInfo>  (11) 
{"isomerGroup": 0, "isomerId": 10, "confId": 0, "nr_conformers:": 1, "nr_isomers:": 16}

$$$$
_i11
     RDKit          3D

 47 49  0  0  0  0  0  0  0  0999 V2000
   -7.2400    0.0709    0.0326 O   0  0  0  0  0  0  0  0  0  0  0  0
   -6.7334    1.1744    0.6855 C   0  0  0  0  0  0  0  0  0  0  0  0
   -7.5088    1.9473    1.4570 C   0  0  0  0  0  0  0  0  0  0  0  0
   -5.3018    1.4386    0.4393 C   0  0  0  0  0  0  0  0  0  0  0  0
   -4.4628    1.9636    1.4337 C   0  0  0  0  0  0  0  0  0  0  0  0
   -3.1057    2.1926    1.1791 C   0  0  0  0  0  0  0  0  0  0  0  0
   -2.5560    1.8794   -0.0647 C   0  0  0  0  0  0  0  0  0  0  0  0
   -1.2096    2.1375   -0.3245 N   0  0  0  0  0  0  0  0  0  0  0  0
   -0.2877    1.2439   -0.1310 C   0  0  0  0  0  0  0  0  0  0  0  0
    1.0356    1.5097   -0.4002 N   0  0  0  0  0  0  0  0  0  0  0  0
    2.1039    0.6518   -0.2903 C   0  0  0  0  0  0  0  0  0  0  0  0
    3.2870    1.2327   -0.6677 N   0  0  0  0  0  0  0  0  0  0  0  0
    4.5535    0.5199   -0.5513 C   0  0  0  0  0  0  0  0  0  0  0  0
    4.7353   -0.4440   -1.7245 C   0  0  0  0  0  0  0  0  0  0  0  0
    6.1029   -1.1294   -1.7357 C   0  0  0  0  0  0  0  0  0  0  0  0
    6.3140   -2.0740   -0.5624 C   0  0  0  0  0  0  0  0  0  0  0  0
    1.9993   -0.5842    0.1229 N   0  0  0  0  0  0  0  0  0  0  0  0
    0.7137   -0.9067    0.4381 C   0  0  0  0  0  0  0  0  0  0  0  0
   -0.4216   -0.1148    0.3557 C   0  0  0  0  0  0  0  0  0  0  0  0
   -1.4599   -0.9488    0.8077 C   0  0  0  0  0  0  0  0  0  0  0  0
   -1.0307   -2.1693    1.1554 N   0  0  0  0  0  0  0  0  0  0  0  0
    0.2981   -2.1191    0.9110 N   0  0  0  0  0  0  0  0  0  0  0  0
    1.1078   -3.2837    1.1654 C   0  0  0  0  0  0  0  0  0  0  0  0
   -3.3840    1.3700   -1.0651 C   0  0  0  0  0  0  0  0  0  0  0  0
   -4.7404    1.1402   -0.8115 C   0  0  0  0  0  0  0  0  0  0  0  0
   -8.1745   -0.0290    0.2771 H   0  0  0  0  0  0  0  0  0  0  0  0
   -8.5602    1.7318    1.6091 H   0  0  0  0  0  0  0  0  0  0  0  0
   -7.1245    2.8356    1.9480 H   0  0  0  0  0  0  0  0  0  0  0  0
   -4.8503    2.1912    2.4234 H   0  0  0  0  0  0  0  0  0  0  0  0
   -2.4734    2.6098    1.9579 H   0  0  0  0  0  0  0  0  0  0  0  0
    1.1870    2.3913   -0.8612 H   0  0  0  0  0  0  0  0  0  0  0  0
    3.3685    2.2089   -0.4100 H   0  0  0  0  0  0  0  0  0  0  0  0
    5.3636    1.2583   -0.5654 H   0  0  0  0  0  0  0  0  0  0  0  0
    4.6108    0.0038    0.4130 H   0  0  0  0  0  0  0  0  0  0  0  0
    4.6191    0.1115   -2.6641 H   0  0  0  0  0  0  0  0  0  0  0  0
    3.9466   -1.2057   -1.7208 H   0  0  0  0  0  0  0  0  0  0  0  0
    6.8993   -0.3764   -1.7470 H   0  0  0  0  0  0  0  0  0  0  0  0
    6.1962   -1.7032   -2.6655 H   0  0  0  0  0  0  0  0  0  0  0  0
    5.5137   -2.8189   -0.5084 H   0  0  0  0  0  0  0  0  0  0  0  0
    7.2644   -2.6055   -0.6747 H   0  0  0  0  0  0  0  0  0  0  0  0
    6.3480   -1.5329    0.3876 H   0  0  0  0  0  0  0  0  0  0  0  0
   -2.5160   -0.7386    0.9071 H   0  0  0  0  0  0  0  0  0  0  0  0
    0.6722   -4.1312    0.6298 H   0  0  0  0  0  0  0  0  0  0  0  0
    1.1075   -3.4719    2.2420 H   0  0  0  0  0  0  0  0  0  0  0  0
    2.1292   -3.1161    0.8170 H   0  0  0  0  0  0  0  0  0  0  0  0
   -2.9736    1.1449   -2.0454 H   0  0  0  0  0  0  0  0  0  0  0  0
   -5.3624    0.7293   -1.6041 H   0  0  0  0  0  0  0  0  0  0  0  0
  1  2  1  0
  2  3  2  0
  2  4  1  0
  4  5  2  0
  5  6  1  0
  6  7  2  0
  7  8  1  0
  8  9  2  3
  9 10  1  0
 10 11  1  0
 11 12  1  0
 12 13  1  0
 13 14  1  0
 14 15  1  0
 15 16  1  0
 11 17  2  0
 17 18  1  0
 18 19  2  0
 19 20  1  0
 20 21  2  0
 21 22  1  0
 22 23  1  0
  7 24  1  0
 24 25  2  0
 25  4  1  0
 19  9  1  0
 22 18  1  0
  1 26  1  0
  3 27  1  0
  3 28  1  0
  5 29  1  0
  6 30  1  0
 10 31  1  0
 12 32  1  0
 13 33  1  0
 13 34  1  0
 14 35  1  0
 14 36  1  0
 15 37  1  0
 15 38  1  0
 16 39  1  0
 16 40  1  0
 16 41  1  0
 20 42  1  0
 23 43  1  0
 23 44  1  0
 23 45  1  0
 24 46  1  0
 25 47  1  0
M  END
>  <ScrubInfo>  (12) 
{"isomerGroup": 0, "isomerId": 11, "confId": 0, "nr_conformers:": 1, "nr_isomers:": 16}

$$$$
_i12
     RDKit          3D

 47 49  0  0  0  0  0  0  0  0999 V2000
   -7.5851   -1.7770    0.4323 O   0  0  0  0  0  0  0  0  0  0  0  0
   -6.7968   -0.6888    0.7354 C   0  0  0  0  0  0  0  0  0  0  0  0
   -7.2675    0.2809    1.5237 C   0  0  0  0  0  0  0  0  0  0  0  0
   -5.4535   -0.6537    0.1420 C   0  0  0  0  0  0  0  0  0  0  0  0
   -4.3128   -0.5482    0.9449 C   0  0  0  0  0  0  0  0  0  0  0  0
   -3.0365   -0.5282    0.3707 C   0  0  0  0  0  0  0  0  0  0  0  0
   -2.8767   -0.5997   -1.0182 C   0  0  0  0  0  0  0  0  0  0  0  0
   -1.6100   -0.6091   -1.6577 N   0  0  0  0  0  0  0  0  0  0  0  0
   -0.4366   -0.2462   -1.0468 C   0  0  0  0  0  0  0  0  0  0  0  0
    0.5732   -1.0589   -0.9209 N   0  0  0  0  0  0  0  0  0  0  0  0
    1.7409   -0.6211   -0.3106 C   0  0  0  0  0  0  0  0  0  0  0  0
    2.6384   -1.5385   -0.2520 N   0  0  0  0  0  0  0  0  0  0  0  0
    3.9310   -1.2965    0.3742 C   0  0  0  0  0  0  0  0  0  0  0  0
    4.9079   -0.7284   -0.6542 C   0  0  0  0  0  0  0  0  0  0  0  0
    6.2685   -0.3617   -0.0594 C   0  0  0  0  0  0  0  0  0  0  0  0
    7.0459   -1.5600    0.4627 C   0  0  0  0  0  0  0  0  0  0  0  0
    1.8593    0.6788    0.1569 N   0  0  0  0  0  0  0  0  0  0  0  0
    0.8264    1.5219   -0.0115 C   0  0  0  0  0  0  0  0  0  0  0  0
   -0.3392    1.1244   -0.6042 C   0  0  0  0  0  0  0  0  0  0  0  0
   -1.1331    2.2808   -0.6169 C   0  0  0  0  0  0  0  0  0  0  0  0
   -0.5128    3.3296   -0.0527 N   0  0  0  0  0  0  0  0  0  0  0  0
    0.6965    2.8355    0.3102 N   0  0  0  0  0  0  0  0  0  0  0  0
    1.6463    3.7098    0.9494 C   0  0  0  0  0  0  0  0  0  0  0  0
   -4.0208   -0.7262   -1.8171 C   0  0  0  0  0  0  0  0  0  0  0  0
   -5.2968   -0.7480   -1.2451 C   0  0  0  0  0  0  0  0  0  0  0  0
   -7.0235   -2.4369   -0.0105 H   0  0  0  0  0  0  0  0  0  0  0  0
   -8.2702    0.2140    1.9328 H   0  0  0  0  0  0  0  0  0  0  0  0
   -6.6820    1.1598    1.7702 H   0  0  0  0  0  0  0  0  0  0  0  0
   -4.4068   -0.4929    2.0276 H   0  0  0  0  0  0  0  0  0  0  0  0
   -2.1757   -0.4681    1.0325 H   0  0  0  0  0  0  0  0  0  0  0  0
   -1.4846   -1.5315   -2.0723 H   0  0  0  0  0  0  0  0  0  0  0  0
    4.3004   -2.2588    0.7452 H   0  0  0  0  0  0  0  0  0  0  0  0
    3.8527   -0.6483    1.2543 H   0  0  0  0  0  0  0  0  0  0  0  0
    5.0417   -1.4480   -1.4716 H   0  0  0  0  0  0  0  0  0  0  0  0
    4.4791    0.1733   -1.1086 H   0  0  0  0  0  0  0  0  0  0  0  0
    6.8663    0.1294   -0.8365 H   0  0  0  0  0  0  0  0  0  0  0  0
    6.1377    0.3682    0.7480 H   0  0  0  0  0  0  0  0  0  0  0  0
    7.1645   -2.3209   -0.3151 H   0  0  0  0  0  0  0  0  0  0  0  0
    6.5478   -2.0177    1.3225 H   0  0  0  0  0  0  0  0  0  0  0  0
    8.0441   -1.2479    0.7863 H   0  0  0  0  0  0  0  0  0  0  0  0
    2.7495    0.9543    0.5412 H   0  0  0  0  0  0  0  0  0  0  0  0
   -2.1337    2.4125   -1.0086 H   0  0  0  0  0  0  0  0  0  0  0  0
    2.5353    3.1460    1.2395 H   0  0  0  0  0  0  0  0  0  0  0  0
    1.1769    4.1400    1.8378 H   0  0  0  0  0  0  0  0  0  0  0  0
    1.9190    4.4967    0.2417 H   0  0  0  0  0  0  0  0  0  0  0  0
   -3.9259   -0.7889   -2.8992 H   0  0  0  0  0  0  0  0  0  0  0  0
   -6.1689   -0.8211   -1.8921 H   0  0  0  0  0  0  0  0  0  0  0  0
  1  2  1  0
  2  3  2  0
  2  4  1  0
  4  5  2  0
  5  6  1  0
  6  7  2  0
  7  8  1  0
  8  9  1  0
  9 10  2  0
 10 11  1  0
 11 12  2  3
 12 13  1  0
 13 14  1  0
 14 15  1  0
 15 16  1  0
 11 17  1  0
 17 18  1  0
 18 19  2  0
 19 20  1  0
 20 21  2  0
 21 22  1  0
 22 23  1  0
  7 24  1  0
 24 25  2  0
 25  4  1  0
 19  9  1  0
 22 18  1  0
  1 26  1  0
  3 27  1  0
  3 28  1  0
  5 29  1  0
  6 30  1  0
  8 31  1  0
 13 32  1  0
 13 33  1  0
 14 34  1  0
 14 35  1  0
 15 36  1  0
 15 37  1  0
 16 38  1  0
 16 39  1  0
 16 40  1  0
 17 41  1  0
 20 42  1  0
 23 43  1  0
 23 44  1  0
 23 45  1  0
 24 46  1  0
 25 47  1  0
M  END
>  <ScrubInfo>  (13) 
{"isomerGroup": 0, "isomerId": 12, "confId": 0, "nr_conformers:": 1, "nr_isomers:": 16}

$$$$
_i13
     RDKit          3D

 47 49  0  0  0  0  0  0  0  0999 V2000
   -1.7090   -1.6003    0.1836 N   0  0  0  0  0  0  0  0  0  0  0  0
   -1.9830   -0.2908   -0.1359 C   0  0  0  0  0  0  0  0  0  0  0  0
   -3.3313   -0.0667   -0.2267 N   0  0  0  0  0  0  0  0  0  0  0  0
   -3.8276    1.2435   -0.6324 C   0  0  0  0  0  0  0  0  0  0  0  0
   -5.3519    1.2956   -0.5222 C   0  0  0  0  0  0  0  0  0  0  0  0
   -5.8393    1.2171    0.9266 C   0  0  0  0  0  0  0  0  0  0  0  0
   -7.3544    1.3202    1.0088 C   0  0  0  0  0  0  0  0  0  0  0  0
   -1.0896    0.6355   -0.3261 N   0  0  0  0  0  0  0  0  0  0  0  0
    0.2631    0.3374   -0.2209 C   0  0  0  0  0  0  0  0  0  0  0  0
    1.0782    1.3093   -0.4834 N   0  0  0  0  0  0  0  0  0  0  0  0
    2.4627    1.1626   -0.4268 C   0  0  0  0  0  0  0  0  0  0  0  0
    3.1576    1.4796    0.7406 C   0  0  0  0  0  0  0  0  0  0  0  0
    4.5502    1.3581    0.7902 C   0  0  0  0  0  0  0  0  0  0  0  0
    5.2784    0.9429   -0.3349 C   0  0  0  0  0  0  0  0  0  0  0  0
    6.7463    0.8118   -0.2539 C   0  0  0  0  0  0  0  0  0  0  0  0
    7.5733    1.1109   -1.2639 C   0  0  0  0  0  0  0  0  0  0  0  0
    7.2238    0.3794    0.9650 O   0  0  0  0  0  0  0  0  0  0  0  0
    4.5716    0.6432   -1.5093 C   0  0  0  0  0  0  0  0  0  0  0  0
    3.1782    0.7642   -1.5571 C   0  0  0  0  0  0  0  0  0  0  0  0
    0.5988   -1.0224    0.1688 C   0  0  0  0  0  0  0  0  0  0  0  0
    1.7552   -1.7703    0.4581 C   0  0  0  0  0  0  0  0  0  0  0  0
    1.4827   -3.0403    0.8006 N   0  0  0  0  0  0  0  0  0  0  0  0
    0.1348   -3.1085    0.7342 N   0  0  0  0  0  0  0  0  0  0  0  0
   -0.5185   -4.3538    1.0462 C   0  0  0  0  0  0  0  0  0  0  0  0
   -0.4163   -1.9269    0.3551 C   0  0  0  0  0  0  0  0  0  0  0  0
   -2.4750   -2.1577    0.5358 H   0  0  0  0  0  0  0  0  0  0  0  0
   -3.8322   -0.8240   -0.6749 H   0  0  0  0  0  0  0  0  0  0  0  0
   -3.3859    2.0305   -0.0098 H   0  0  0  0  0  0  0  0  0  0  0  0
   -3.5375    1.4325   -1.6725 H   0  0  0  0  0  0  0  0  0  0  0  0
   -5.7006    2.2356   -0.9674 H   0  0  0  0  0  0  0  0  0  0  0  0
   -5.7969    0.4801   -1.1058 H   0  0  0  0  0  0  0  0  0  0  0  0
   -5.3920    2.0275    1.5138 H   0  0  0  0  0  0  0  0  0  0  0  0
   -5.5228    0.2724    1.3831 H   0  0  0  0  0  0  0  0  0  0  0  0
   -7.7062    2.2703    0.5943 H   0  0  0  0  0  0  0  0  0  0  0  0
   -7.6821    1.2626    2.0515 H   0  0  0  0  0  0  0  0  0  0  0  0
   -7.8334    0.5054    0.4566 H   0  0  0  0  0  0  0  0  0  0  0  0
    2.6128    1.8215    1.6163 H   0  0  0  0  0  0  0  0  0  0  0  0
    5.0678    1.5999    1.7161 H   0  0  0  0  0  0  0  0  0  0  0  0
    8.6490    1.0151   -1.1706 H   0  0  0  0  0  0  0  0  0  0  0  0
    7.2041    1.4830   -2.2143 H   0  0  0  0  0  0  0  0  0  0  0  0
    8.1911    0.3150    0.9100 H   0  0  0  0  0  0  0  0  0  0  0  0
    5.0937    0.3037   -2.4000 H   0  0  0  0  0  0  0  0  0  0  0  0
    2.6469    0.5432   -2.4788 H   0  0  0  0  0  0  0  0  0  0  0  0
    2.7923   -1.4631    0.4465 H   0  0  0  0  0  0  0  0  0  0  0  0
   -1.5780   -4.2933    0.7890 H   0  0  0  0  0  0  0  0  0  0  0  0
   -0.0460   -5.1501    0.4652 H   0  0  0  0  0  0  0  0  0  0  0  0
   -0.4032   -4.5417    2.1165 H   0  0  0  0  0  0  0  0  0  0  0  0
  1  2  1  0
  2  3  1  0
  3  4  1  0
  4  5  1  0
  5  6  1  0
  6  7  1  0
  2  8  2  0
  8  9  1  0
  9 10  2  3
 10 11  1  0
 11 12  2  0
 12 13  1  0
 13 14  2  0
 14 15  1  0
 15 16  2  0
 15 17  1  0
 14 18  1  0
 18 19  2  0
  9 20  1  0
 20 21  1  0
 21 22  2  0
 22 23  1  0
 23 24  1  0
 23 25  1  0
 25  1  1  0
 19 11  1  0
 25 20  2  0
  1 26  1  0
  3 27  1  0
  4 28  1  0
  4 29  1  0
  5 30  1  0
  5 31  1  0
  6 32  1  0
  6 33  1  0
  7 34  1  0
  7 35  1  0
  7 36  1  0
 12 37  1  0
 13 38  1  0
 16 39  1  0
 16 40  1  0
 17 41  1  0
 18 42  1  0
 19 43  1  0
 21 44  1  0
 24 45  1  0
 24 46  1  0
 24 47  1  0
M  END
>  <ScrubInfo>  (14) 
{"isomerGroup": 0, "isomerId": 13, "confId": 0, "nr_conformers:": 1, "nr_isomers:": 16}

$$$$
_i14
     RDKit          3D

 47 49  0  0  0  0  0  0  0  0999 V2000
    1.0473   -4.7257   -0.8491 N   0  0  0  0  0  0  0  0  0  0  0  0
   -0.1134   -3.9879   -1.0598 C   0  0  0  0  0  0  0  0  0  0  0  0
   -0.0585   -2.7668   -0.5129 C   0  0  0  0  0  0  0  0  0  0  0  0
   -0.9251   -1.6188   -0.3837 C   0  0  0  0  0  0  0  0  0  0  0  0
   -2.0985   -1.5753   -0.9342 N   0  0  0  0  0  0  0  0  0  0  0  0
   -2.8785   -0.4250   -0.7575 C   0  0  0  0  0  0  0  0  0  0  0  0
   -2.8017    0.6289   -1.6708 C   0  0  0  0  0  0  0  0  0  0  0  0
   -3.6004    1.7656   -1.5121 C   0  0  0  0  0  0  0  0  0  0  0  0
   -4.4979    1.8564   -0.4408 C   0  0  0  0  0  0  0  0  0  0  0  0
   -5.3274    3.0540   -0.2479 C   0  0  0  0  0  0  0  0  0  0  0  0
   -6.1594    3.5209   -1.1824 C   0  0  0  0  0  0  0  0  0  0  0  0
   -5.2271    3.6917    0.9694 O   0  0  0  0  0  0  0  0  0  0  0  0
   -4.5854    0.7908    0.4647 C   0  0  0  0  0  0  0  0  0  0  0  0
   -3.7850   -0.3437    0.3016 C   0  0  0  0  0  0  0  0  0  0  0  0
   -0.4027   -0.5972    0.3648 N   0  0  0  0  0  0  0  0  0  0  0  0
    0.7936   -0.6485    0.8781 C   0  0  0  0  0  0  0  0  0  0  0  0
    1.1744    0.4415    1.6051 N   0  0  0  0  0  0  0  0  0  0  0  0
    2.5516    0.7973    1.8655 C   0  0  0  0  0  0  0  0  0  0  0  0
    3.1903    1.4220    0.6256 C   0  0  0  0  0  0  0  0  0  0  0  0
    4.6345    1.8416    0.8964 C   0  0  0  0  0  0  0  0  0  0  0  0
    5.2741    2.4634   -0.3348 C   0  0  0  0  0  0  0  0  0  0  0  0
    1.6800   -1.6862    0.7370 N   0  0  0  0  0  0  0  0  0  0  0  0
    1.2905   -2.7098    0.0609 C   0  0  0  0  0  0  0  0  0  0  0  0
    1.9805   -3.8849   -0.2446 N   0  0  0  0  0  0  0  0  0  0  0  0
    2.9326   -4.4508    0.6917 C   0  0  0  0  0  0  0  0  0  0  0  0
    1.3650   -5.2238   -1.6838 H   0  0  0  0  0  0  0  0  0  0  0  0
   -0.9311   -4.4199   -1.6197 H   0  0  0  0  0  0  0  0  0  0  0  0
   -2.1112    0.5639   -2.5066 H   0  0  0  0  0  0  0  0  0  0  0  0
   -3.5109    2.5798   -2.2272 H   0  0  0  0  0  0  0  0  0  0  0  0
   -6.2760    3.0348   -2.1447 H   0  0  0  0  0  0  0  0  0  0  0  0
   -6.7567    4.4056   -0.9893 H   0  0  0  0  0  0  0  0  0  0  0  0
   -4.4839    3.2889    1.4521 H   0  0  0  0  0  0  0  0  0  0  0  0
   -5.2891    0.8283    1.2933 H   0  0  0  0  0  0  0  0  0  0  0  0
   -3.8656   -1.1703    1.0017 H   0  0  0  0  0  0  0  0  0  0  0  0
    0.5306    1.2149    1.4908 H   0  0  0  0  0  0  0  0  0  0  0  0
    3.1237   -0.0752    2.2015 H   0  0  0  0  0  0  0  0  0  0  0  0
    2.5690    1.5190    2.6901 H   0  0  0  0  0  0  0  0  0  0  0  0
    3.1657    0.7093   -0.2080 H   0  0  0  0  0  0  0  0  0  0  0  0
    2.6044    2.2944    0.3096 H   0  0  0  0  0  0  0  0  0  0  0  0
    4.6645    2.5637    1.7206 H   0  0  0  0  0  0  0  0  0  0  0  0
    5.2233    0.9704    1.2062 H   0  0  0  0  0  0  0  0  0  0  0  0
    4.7269    3.3567   -0.6524 H   0  0  0  0  0  0  0  0  0  0  0  0
    6.3063    2.7561   -0.1188 H   0  0  0  0  0  0  0  0  0  0  0  0
    5.2894    1.7548   -1.1691 H   0  0  0  0  0  0  0  0  0  0  0  0
    2.4310   -4.7742    1.6098 H   0  0  0  0  0  0  0  0  0  0  0  0
    3.4358   -5.3154    0.2468 H   0  0  0  0  0  0  0  0  0  0  0  0
    3.7003   -3.7150    0.9522 H   0  0  0  0  0  0  0  0  0  0  0  0
  1  2  1  0
  2  3  2  0
  3  4  1  0
  4  5  2  3
  5  6  1  0
  6  7  2  0
  7  8  1  0
  8  9  2  0
  9 10  1  0
 10 11  2  0
 10 12  1  0
  9 13  1  0
 13 14  2  0
  4 15  1  0
 15 16  2  0
 16 17  1  0
 17 18  1  0
 18 19  1  0
 19 20  1  0
 20 21  1  0
 16 22  1  0
 22 23  2  0
 23 24  1  0
 24 25  1  0
 24  1  1  0
 23  3  1  0
 14  6  1  0
  1 26  1  0
  2 27  1  0
  7 28  1  0
  8 29  1  0
 11 30  1  0
 11 31  1  0
 12 32  1  0
 13 33  1  0
 14 34  1  0
 17 35  1  0
 18 36  1  0
 18 37  1  0
 19 38  1  0
 19 39  1  0
 20 40  1  0
 20 41  1  0
 21 42  1  0
 21 43  1  0
 21 44  1  0
 25 45  1  0
 25 46  1  0
 25 47  1  0
M  END
>  <ScrubInfo>  (15) 
{"isomerGroup": 0, "isomerId": 14, "confId": 0, "nr_conformers:": 1, "nr_isomers:": 16}

$$$$
_i15
     RDKit          3D

 47 49  0  0  0  0  0  0  0  0999 V2000
   -0.4499   -5.5347   -0.1610 N   0  0  0  0  0  0  0  0  0  0  0  0
    0.4739   -4.5303    0.1081 C   0  0  0  0  0  0  0  0  0  0  0  0
   -0.0334   -3.2986   -0.0435 C   0  0  0  0  0  0  0  0  0  0  0  0
    0.4027   -1.9061    0.1039 C   0  0  0  0  0  0  0  0  0  0  0  0
    1.7050   -1.6460    0.4916 N   0  0  0  0  0  0  0  0  0  0  0  0
    2.3987   -0.4221    0.5484 C   0  0  0  0  0  0  0  0  0  0  0  0
    1.9370    0.7691   -0.0186 C   0  0  0  0  0  0  0  0  0  0  0  0
    2.6627    1.9624    0.0999 C   0  0  0  0  0  0  0  0  0  0  0  0
    3.8700    1.9949    0.8014 C   0  0  0  0  0  0  0  0  0  0  0  0
    4.6313    3.2419    0.9487 C   0  0  0  0  0  0  0  0  0  0  0  0
    5.0620    3.9576   -0.0933 C   0  0  0  0  0  0  0  0  0  0  0  0
    4.9082    3.6542    2.2334 O   0  0  0  0  0  0  0  0  0  0  0  0
    4.3375    0.8145    1.3846 C   0  0  0  0  0  0  0  0  0  0  0  0
    3.6098   -0.3751    1.2593 C   0  0  0  0  0  0  0  0  0  0  0  0
   -0.4871   -0.9826   -0.1240 N   0  0  0  0  0  0  0  0  0  0  0  0
   -1.7737   -1.3324   -0.4757 C   0  0  0  0  0  0  0  0  0  0  0  0
   -2.6646   -0.4148   -0.6156 N   0  0  0  0  0  0  0  0  0  0  0  0
   -2.2570    0.9682   -0.3859 C   0  0  0  0  0  0  0  0  0  0  0  0
   -3.4841    1.8617   -0.5652 C   0  0  0  0  0  0  0  0  0  0  0  0
   -3.1393    3.3336   -0.3440 C   0  0  0  0  0  0  0  0  0  0  0  0
   -4.3584    4.2243   -0.5222 C   0  0  0  0  0  0  0  0  0  0  0  0
   -2.2453   -2.6014   -0.7086 N   0  0  0  0  0  0  0  0  0  0  0  0
   -1.4110   -3.5595   -0.5123 C   0  0  0  0  0  0  0  0  0  0  0  0
   -1.5964   -4.9332   -0.6680 N   0  0  0  0  0  0  0  0  0  0  0  0
   -2.8900   -5.5419   -0.4213 C   0  0  0  0  0  0  0  0  0  0  0  0
   -0.0709   -6.3074   -0.7139 H   0  0  0  0  0  0  0  0  0  0  0  0
    1.4745   -4.8134    0.3987 H   0  0  0  0  0  0  0  0  0  0  0  0
    2.2753   -2.4410    0.7459 H   0  0  0  0  0  0  0  0  0  0  0  0
    1.0102    0.7994   -0.5833 H   0  0  0  0  0  0  0  0  0  0  0  0
    2.2660    2.8669   -0.3567 H   0  0  0  0  0  0  0  0  0  0  0  0
    5.6269    4.8700    0.0666 H   0  0  0  0  0  0  0  0  0  0  0  0
    4.8745    3.6552   -1.1177 H   0  0  0  0  0  0  0  0  0  0  0  0
    4.3607    3.1228    2.8379 H   0  0  0  0  0  0  0  0  0  0  0  0
    5.2783    0.8093    1.9316 H   0  0  0  0  0  0  0  0  0  0  0  0
    4.0053   -1.2702    1.7336 H   0  0  0  0  0  0  0  0  0  0  0  0
   -1.8644    1.0960    0.6304 H   0  0  0  0  0  0  0  0  0  0  0  0
   -1.4862    1.2671   -1.1064 H   0  0  0  0  0  0  0  0  0  0  0  0
   -4.2681    1.5538    0.1381 H   0  0  0  0  0  0  0  0  0  0  0  0
   -3.8946    1.7235   -1.5734 H   0  0  0  0  0  0  0  0  0  0  0  0
   -2.3608    3.6440   -1.0507 H   0  0  0  0  0  0  0  0  0  0  0  0
   -2.7358    3.4741    0.6655 H   0  0  0  0  0  0  0  0  0  0  0  0
   -4.7676    4.1317   -1.5334 H   0  0  0  0  0  0  0  0  0  0  0  0
   -4.0890    5.2725   -0.3595 H   0  0  0  0  0  0  0  0  0  0  0  0
   -5.1447    3.9607    0.1924 H   0  0  0  0  0  0  0  0  0  0  0  0
   -3.6637   -5.0640   -1.0307 H   0  0  0  0  0  0  0  0  0  0  0  0
   -2.8666   -6.6044   -0.6841 H   0  0  0  0  0  0  0  0  0  0  0  0
   -3.1678   -5.4505    0.6340 H   0  0  0  0  0  0  0  0  0  0  0  0
  1  2  1  0
  2  3  2  0
  3  4  1  0
  4  5  1  0
  5  6  1  0
  6  7  2  0
  7  8  1  0
  8  9  2  0
  9 10  1  0
 10 11  2  0
 10 12  1  0
  9 13  1  0
 13 14  2  0
  4 15  2  0
 15 16  1  0
 16 17  2  3
 17 18  1  0
 18 19  1  0
 19 20  1  0
 20 21  1  0
 16 22  1  0
 22 23  2  0
 23 24  1  0
 24 25  1  0
 24  1  1  0
 23  3  1  0
 14  6  1  0
  1 26  1  0
  2 27  1  0
  5 28  1  0
  7 29  1  0
  8 30  1  0
 11 31  1  0
 11 32  1  0
 12 33  1  0
 13 34  1  0
 14 35  1  0
 18 36  1  0
 18 37  1  0
 19 38  1  0
 19 39  1  0
 20 40  1  0
 20 41  1  0
 21 42  1  0
 21 43  1  0
 21 44  1  0
 25 45  1  0
 25 46  1  0
 25 47  1  0
M  END
>  <ScrubInfo>  (16) 
{"isomerGroup": 0, "isomerId": 15, "confId": 0, "nr_conformers:": 1, "nr_isomers:": 16}

$$$$
