REMARK SMILES CCCCNc1nc(Nc2ccc(C(C)=O)cc2)c2cnn(C)c2n1
REMARK SMILES IDX 6 1 7 2 8 3 19 4 20 5 21 6 22 7 23 8 24 9 25 10 5 11 4 13
REMARK SMILES IDX 3 14 2 15 1 16 9 17 10 19 11 20 18 21 12 22 17 23 13 24
REMARK SMILES IDX 14 25 15 26 16 27
REMARK H PARENT 5 12 9 18
ROOT
ATOM      1  C   UNL     1      -2.046  -0.155   1.025  1.00  0.00     0.226 A 
ATOM      2  N   UNL     1      -0.966   0.634   0.858  1.00  0.00    -0.195 NA
ATOM      3  C   UNL     1       0.279   0.141   1.069  1.00  0.00     0.147 A 
ATOM      4  C   UNL     1       0.392  -1.182   1.500  1.00  0.00     0.082 A 
ATOM      5  C   UNL     1       1.399  -2.086   1.894  1.00  0.00     0.149 A 
ATOM      6  N   UNL     1       0.916  -3.289   2.227  1.00  0.00    -0.179 NA
ATOM      7  N   UNL     1      -0.419  -3.141   2.065  1.00  0.00    -0.250 N 
ATOM      8  C   UNL     1      -1.296  -4.248   2.356  1.00  0.00     0.176 C 
ATOM      9  C   UNL     1      -0.783  -1.894   1.636  1.00  0.00     0.165 A 
ATOM     10  N   UNL     1      -2.023  -1.441   1.400  1.00  0.00    -0.193 NA
ENDROOT
BRANCH   1  11
ATOM     11  N   UNL     1      -3.317   0.361   0.799  1.00  0.00    -0.354 N 
ATOM     12  H   UNL     1      -3.924  -0.447   0.707  1.00  0.00     0.163 HD
BRANCH  11  13
ATOM     13  C   UNL     1      -3.394   1.333  -0.277  1.00  0.00     0.116 C 
BRANCH  13  14
ATOM     14  C   UNL     1      -4.842   1.788  -0.485  1.00  0.00     0.021 C 
BRANCH  14  15
ATOM     15  C   UNL     1      -5.723   0.705  -1.114  1.00  0.00    -0.002 C 
ATOM     16  C   UNL     1      -7.131   1.218  -1.374  1.00  0.00     0.004 C 
ENDBRANCH  14  15
ENDBRANCH  13  14
ENDBRANCH  11  13
ENDBRANCH   1  11
BRANCH   3  17
ATOM     17  N   UNL     1       1.349   1.031   0.894  1.00  0.00    -0.339 N 
ATOM     18  H   UNL     1       0.948   1.934   0.650  1.00  0.00     0.168 HD
BRANCH  17  19
ATOM     19  C   UNL     1       2.575   0.818   0.234  1.00  0.00     0.040 A 
ATOM     20  C   UNL     1       3.619   1.724   0.463  1.00  0.00     0.027 A 
ATOM     21  C   UNL     1       2.794  -0.231  -0.664  1.00  0.00     0.027 A 
ATOM     22  C   UNL     1       4.860   1.578  -0.168  1.00  0.00     0.014 A 
ATOM     23  C   UNL     1       4.032  -0.383  -1.300  1.00  0.00     0.014 A 
ATOM     24  C   UNL     1       5.074   0.518  -1.053  1.00  0.00     0.017 A 
BRANCH  24  25
ATOM     25  C   UNL     1       6.375   0.314  -1.756  1.00  0.00     0.159 C 
ATOM     26  C   UNL     1       7.522   1.243  -1.454  1.00  0.00     0.093 C 
ATOM     27  O   UNL     1       6.496  -0.601  -2.569  1.00  0.00    -0.295 OA
ENDBRANCH  24  25
ENDBRANCH  17  19
ENDBRANCH   3  17
TORSDOF 7
