REMARK SMILES Cn1ncc2c(Nc3ccc(Cl)cc3)nc(NCCC[NH+](C)C)nc21
REMARK SMILES IDX 18 1 19 2 20 3 21 4 22 5 23 6 17 8 16 10 15 11 24 12 6 13
REMARK SMILES IDX 25 14 5 15 2 16 4 17 3 18 1 19 7 20 8 22 9 23 14 24 10 25
REMARK SMILES IDX 13 26 11 27 12 28
REMARK H PARENT 21 7 17 9 7 21
ROOT
ATOM      1  C   UNL     1      -1.324  -0.114   0.562  1.00  0.00     0.122 C 
ENDROOT
BRANCH   1   2
ATOM      2  C   UNL     1      -2.838   0.071   0.431  1.00  0.00     0.083 C 
BRANCH   2   3
ATOM      3  C   UNL     1      -3.219   1.522   0.694  1.00  0.00     0.263 C 
BRANCH   3   4
ATOM      4  N   UNL     1      -4.700   1.789   0.511  1.00  0.00    -0.340 N 
ATOM      5  C   UNL     1      -5.583   1.062   1.486  1.00  0.00     0.332 C 
ATOM      6  C   UNL     1      -5.178   1.636  -0.909  1.00  0.00     0.332 C 
ATOM      7  H   UNL     1      -4.818   2.788   0.727  1.00  0.00     0.347 HD
ENDBRANCH   3   4
ENDBRANCH   2   3
ENDBRANCH   1   2
BRANCH   1   8
ATOM      8  N   UNL     1      -0.983  -1.462   0.168  1.00  0.00    -0.354 N 
ATOM      9  H   UNL     1      -1.382  -2.228   0.703  1.00  0.00     0.163 HD
BRANCH   8  10
ATOM     10  C   UNL     1       0.380  -1.737   0.097  1.00  0.00     0.226 A 
ATOM     11  N   UNL     1       1.245  -0.742  -0.173  1.00  0.00    -0.195 NA
ATOM     12  N   UNL     1       0.701  -3.016   0.313  1.00  0.00    -0.193 NA
ATOM     13  C   UNL     1       2.579  -0.991  -0.290  1.00  0.00     0.147 A 
ATOM     14  C   UNL     1       2.016  -3.249   0.188  1.00  0.00     0.165 A 
ATOM     15  C   UNL     1       2.992  -2.316  -0.108  1.00  0.00     0.082 A 
ATOM     16  N   UNL     1       2.666  -4.447   0.318  1.00  0.00    -0.250 N 
ATOM     17  C   UNL     1       4.191  -3.058  -0.126  1.00  0.00     0.149 A 
ATOM     18  N   UNL     1       4.003  -4.356   0.134  1.00  0.00    -0.179 NA
ATOM     19  C   UNL     1       2.079  -5.729   0.614  1.00  0.00     0.176 C 
BRANCH  13  20
ATOM     20  N   UNL     1       3.491   0.024  -0.616  1.00  0.00    -0.339 N 
ATOM     21  H   UNL     1       4.421  -0.311  -0.829  1.00  0.00     0.168 HD
BRANCH  20  22
ATOM     22  C   UNL     1       3.357   1.421  -0.666  1.00  0.00     0.040 A 
ATOM     23  C   UNL     1       4.310   2.165  -1.383  1.00  0.00     0.027 A 
ATOM     24  C   UNL     1       2.291   2.115  -0.083  1.00  0.00     0.027 A 
ATOM     25  C   UNL     1       4.208   3.555  -1.500  1.00  0.00     0.022 A 
ATOM     26  C   UNL     1       2.185   3.506  -0.191  1.00  0.00     0.022 A 
ATOM     27  C   UNL     1       3.143   4.220  -0.901  1.00  0.00     0.041 A 
ATOM     28  Cl  UNL     1       3.006   5.928  -1.041  1.00  0.00    -0.084 Cl
ENDBRANCH  20  22
ENDBRANCH  13  20
ENDBRANCH   8  10
ENDBRANCH   1   8
TORSDOF 7
