_i0
     RDKit          3D

 48 50  0  0  0  0  0  0  0  0999 V2000
   -5.5828    1.0624    1.4864 C   0  0  0  0  0  0  0  0  0  0  0  0
   -4.6998    1.7888    0.5107 N   0  0  0  0  0  4  0  0  0  0  0  0
   -5.1776    1.6357   -0.9087 C   0  0  0  0  0  0  0  0  0  0  0  0
   -3.2190    1.5223    0.6937 C   0  0  0  0  0  0  0  0  0  0  0  0
   -2.8383    0.0707    0.4306 C   0  0  0  0  0  0  0  0  0  0  0  0
   -1.3242   -0.1136    0.5617 C   0  0  0  0  0  0  0  0  0  0  0  0
   -0.9834   -1.4623    0.1678 N   0  0  0  0  0  0  0  0  0  0  0  0
    0.3802   -1.7371    0.0970 C   0  0  0  0  0  0  0  0  0  0  0  0
    1.2451   -0.7422   -0.1730 N   0  0  0  0  0  0  0  0  0  0  0  0
    0.7008   -3.0164    0.3128 N   0  0  0  0  0  0  0  0  0  0  0  0
    2.5787   -0.9906   -0.2903 C   0  0  0  0  0  0  0  0  0  0  0  0
    2.0162   -3.2489    0.1880 C   0  0  0  0  0  0  0  0  0  0  0  0
    3.4906    0.0240   -0.6161 N   0  0  0  0  0  0  0  0  0  0  0  0
    2.9916   -2.3162   -0.1085 C   0  0  0  0  0  0  0  0  0  0  0  0
    2.6664   -4.4467    0.3179 N   0  0  0  0  0  0  0  0  0  0  0  0
    3.3570    1.4211   -0.6661 C   0  0  0  0  0  0  0  0  0  0  0  0
    4.1911   -3.0581   -0.1262 C   0  0  0  0  0  0  0  0  0  0  0  0
    4.0029   -4.3557    0.1335 N   0  0  0  0  0  0  0  0  0  0  0  0
    2.0791   -5.7294    0.6144 C   0  0  0  0  0  0  0  0  0  0  0  0
    4.3098    2.1646   -1.3826 C   0  0  0  0  0  0  0  0  0  0  0  0
    2.2907    2.1145   -0.0826 C   0  0  0  0  0  0  0  0  0  0  0  0
    4.2079    3.5552   -1.4996 C   0  0  0  0  0  0  0  0  0  0  0  0
    2.1846    3.5056   -0.1907 C   0  0  0  0  0  0  0  0  0  0  0  0
    3.1435    4.2199   -0.9014 C   0  0  0  0  0  0  0  0  0  0  0  0
    3.0055    5.9279   -1.0411 Cl  0  0  0  0  0  0  0  0  0  0  0  0
   -6.5902    1.4785    1.4000 H   0  0  0  0  0  0  0  0  0  0  0  0
   -5.1935    1.2354    2.4929 H   0  0  0  0  0  0  0  0  0  0  0  0
   -5.5852   -0.0021    1.2403 H   0  0  0  0  0  0  0  0  0  0  0  0
   -4.8178    2.7882    0.7272 H   0  0  0  0  0  0  0  0  0  0  0  0
   -4.5030    2.1981   -1.5590 H   0  0  0  0  0  0  0  0  0  0  0  0
   -6.1862    2.0539   -0.9676 H   0  0  0  0  0  0  0  0  0  0  0  0
   -5.1877    0.5749   -1.1693 H   0  0  0  0  0  0  0  0  0  0  0  0
   -2.9736    1.8169    1.7203 H   0  0  0  0  0  0  0  0  0  0  0  0
   -2.6965    2.2038    0.0128 H   0  0  0  0  0  0  0  0  0  0  0  0
   -3.1483   -0.2305   -0.5766 H   0  0  0  0  0  0  0  0  0  0  0  0
   -3.3457   -0.5992    1.1343 H   0  0  0  0  0  0  0  0  0  0  0  0
   -0.8338    0.6203   -0.0897 H   0  0  0  0  0  0  0  0  0  0  0  0
   -1.0100    0.0783    1.5949 H   0  0  0  0  0  0  0  0  0  0  0  0
   -1.3822   -2.2277    0.7033 H   0  0  0  0  0  0  0  0  0  0  0  0
    4.4211   -0.3112   -0.8293 H   0  0  0  0  0  0  0  0  0  0  0  0
    5.1989   -2.7109   -0.3141 H   0  0  0  0  0  0  0  0  0  0  0  0
    0.9986   -5.6266    0.7367 H   0  0  0  0  0  0  0  0  0  0  0  0
    2.5227   -6.1048    1.5400 H   0  0  0  0  0  0  0  0  0  0  0  0
    2.2955   -6.4065   -0.2158 H   0  0  0  0  0  0  0  0  0  0  0  0
    5.1442    1.6649   -1.8700 H   0  0  0  0  0  0  0  0  0  0  0  0
    1.5400    1.5825    0.4916 H   0  0  0  0  0  0  0  0  0  0  0  0
    4.9589    4.1062   -2.0599 H   0  0  0  0  0  0  0  0  0  0  0  0
    1.3574    4.0226    0.2854 H   0  0  0  0  0  0  0  0  0  0  0  0
  1  2  1  0
  2  3  1  0
  2  4  1  0
  4  5  1  0
  5  6  1  0
  6  7  1  0
  7  8  1  0
  8  9  2  0
 10  8  1  0
  9 11  1  0
 12 10  2  0
 11 13  1  0
 11 14  2  0
 15 12  1  0
 12 14  1  0
 13 16  1  0
 14 17  1  0
 18 15  1  0
 15 19  1  0
 16 20  2  0
 21 16  1  0
 17 18  2  0
 20 22  1  0
 23 21  2  0
 22 24  2  0
 24 23  1  0
 24 25  1  0
  1 26  1  0
  1 27  1  0
  1 28  1  0
  2 29  1  0
  3 30  1  0
  3 31  1  0
  3 32  1  0
  4 33  1  0
  4 34  1  0
  5 35  1  0
  5 36  1  0
  6 37  1  0
  6 38  1  0
  7 39  1  0
 13 40  1  0
 17 41  1  0
 19 42  1  0
 19 43  1  0
 19 44  1  0
 20 45  1  0
 21 46  1  0
 22 47  1  0
 23 48  1  0
M  CHG  1   2   1
M  END
>  <ScrubInfo>  (1) 
{"isomerGroup": 0, "isomerId": 0, "confId": 0, "nr_conformers:": 1, "nr_isomers:": 9}

$$$$
_i1
     RDKit          3D

 48 50  0  0  0  0  0  0  0  0999 V2000
    1.0169    0.4482   -0.6211 N   0  0  0  0  0  0  0  0  0  0  0  0
    2.1146    1.0928   -1.1709 C   0  0  0  0  0  0  0  0  0  0  0  0
    2.7970    0.5773   -2.2573 N   0  0  0  0  0  0  0  0  0  0  0  0
    3.0270   -0.7750   -2.5818 C   0  0  0  0  0  0  0  0  0  0  0  0
    3.3370   -1.0981   -3.9119 C   0  0  0  0  0  0  0  0  0  0  0  0
    3.5287   -2.4262   -4.3062 C   0  0  0  0  0  0  0  0  0  0  0  0
    3.4095   -3.4478   -3.3698 C   0  0  0  0  0  0  0  0  0  0  0  0
    3.6386   -5.0827   -3.8485 Cl  0  0  0  0  0  0  0  0  0  0  0  0
    3.1032   -3.1506   -2.0451 C   0  0  0  0  0  0  0  0  0  0  0  0
    2.9083   -1.8208   -1.6562 C   0  0  0  0  0  0  0  0  0  0  0  0
    2.4162    2.2735   -0.6178 C   0  0  0  0  0  0  0  0  0  0  0  0
    3.3955    3.3503   -0.8051 C   0  0  0  0  0  0  0  0  0  0  0  0
    3.2428    4.3339    0.0437 N   0  0  0  0  0  0  0  0  0  0  0  0
    2.1830    3.9478    0.8785 N   0  0  0  0  0  0  0  0  0  0  0  0
    1.5827    4.9350    1.7429 C   0  0  0  0  0  0  0  0  0  0  0  0
    1.5941    2.7478    0.5176 C   0  0  0  0  0  0  0  0  0  0  0  0
    0.5654    2.1403    1.0037 N   0  0  0  0  0  0  0  0  0  0  0  0
    0.2438    0.9472    0.3995 C   0  0  0  0  0  0  0  0  0  0  0  0
   -0.8179    0.4140    0.8920 N   0  0  0  0  0  0  0  0  0  0  0  0
   -1.3014   -0.8531    0.3764 C   0  0  0  0  0  0  0  0  0  0  0  0
   -2.3873   -1.3489    1.3338 C   0  0  0  0  0  0  0  0  0  0  0  0
   -3.5226   -0.3335    1.4519 C   0  0  0  0  0  0  0  0  0  0  0  0
   -4.5669   -0.7335    2.4781 N   0  0  0  0  0  4  0  0  0  0  0  0
   -5.2924   -2.0058    2.1612 C   0  0  0  0  0  0  0  0  0  0  0  0
   -4.0572   -0.6951    3.8924 C   0  0  0  0  0  0  0  0  0  0  0  0
    0.7005   -0.3547   -1.1417 H   0  0  0  0  0  0  0  0  0  0  0  0
    3.4644    1.2016   -2.7037 H   0  0  0  0  0  0  0  0  0  0  0  0
    3.4200   -0.3148   -4.6628 H   0  0  0  0  0  0  0  0  0  0  0  0
    3.7671   -2.6532   -5.3424 H   0  0  0  0  0  0  0  0  0  0  0  0
    3.0264   -3.9461   -1.3083 H   0  0  0  0  0  0  0  0  0  0  0  0
    2.7083   -1.6180   -0.6073 H   0  0  0  0  0  0  0  0  0  0  0  0
    4.1506    3.3022   -1.5999 H   0  0  0  0  0  0  0  0  0  0  0  0
    0.8285    5.5103    1.1971 H   0  0  0  0  0  0  0  0  0  0  0  0
    1.1025    4.4592    2.6039 H   0  0  0  0  0  0  0  0  0  0  0  0
    2.3391    5.6287    2.1242 H   0  0  0  0  0  0  0  0  0  0  0  0
   -1.7192   -0.7260   -0.6288 H   0  0  0  0  0  0  0  0  0  0  0  0
   -0.5027   -1.6028    0.3341 H   0  0  0  0  0  0  0  0  0  0  0  0
   -2.7669   -2.3084    0.9660 H   0  0  0  0  0  0  0  0  0  0  0  0
   -1.9326   -1.5315    2.3137 H   0  0  0  0  0  0  0  0  0  0  0  0
   -3.1712    0.6579    1.7564 H   0  0  0  0  0  0  0  0  0  0  0  0
   -4.0508   -0.2239    0.4979 H   0  0  0  0  0  0  0  0  0  0  0  0
   -5.2720    0.0136    2.4267 H   0  0  0  0  0  0  0  0  0  0  0  0
   -4.6112   -2.8489    2.2991 H   0  0  0  0  0  0  0  0  0  0  0  0
   -5.6475   -1.9492    1.1290 H   0  0  0  0  0  0  0  0  0  0  0  0
   -6.1431   -2.0855    2.8434 H   0  0  0  0  0  0  0  0  0  0  0  0
   -3.3726   -1.5318    4.0488 H   0  0  0  0  0  0  0  0  0  0  0  0
   -3.5564    0.2632    4.0522 H   0  0  0  0  0  0  0  0  0  0  0  0
   -4.9198   -0.7787    4.5590 H   0  0  0  0  0  0  0  0  0  0  0  0
  1  2  1  0
  2  3  1  0
  3  4  1  0
  4  5  2  0
  5  6  1  0
  6  7  2  0
  7  8  1  0
  7  9  1  0
  9 10  2  0
  2 11  2  0
 11 12  1  0
 12 13  2  0
 13 14  1  0
 14 15  1  0
 14 16  1  0
 16 17  2  0
 17 18  1  0
 18 19  2  3
 19 20  1  0
 20 21  1  0
 21 22  1  0
 22 23  1  0
 23 24  1  0
 23 25  1  0
 18  1  1  0
 10  4  1  0
 16 11  1  0
  1 26  1  0
  3 27  1  0
  5 28  1  0
  6 29  1  0
  9 30  1  0
 10 31  1  0
 12 32  1  0
 15 33  1  0
 15 34  1  0
 15 35  1  0
 20 36  1  0
 20 37  1  0
 21 38  1  0
 21 39  1  0
 22 40  1  0
 22 41  1  0
 23 42  1  0
 24 43  1  0
 24 44  1  0
 24 45  1  0
 25 46  1  0
 25 47  1  0
 25 48  1  0
M  CHG  1  23   1
M  END
>  <ScrubInfo>  (2) 
{"isomerGroup": 0, "isomerId": 1, "confId": 0, "nr_conformers:": 1, "nr_isomers:": 9}

$$$$
_i2
     RDKit          3D

 48 50  0  0  0  0  0  0  0  0999 V2000
    0.5487   -0.5984    1.1433 N   0  0  0  0  0  0  0  0  0  0  0  0
   -0.1170   -1.5070    0.3631 C   0  0  0  0  0  0  0  0  0  0  0  0
   -1.3860   -1.8280    0.7605 N   0  0  0  0  0  0  0  0  0  0  0  0
   -2.3994   -0.8178    1.0187 C   0  0  0  0  0  0  0  0  0  0  0  0
   -2.7676   -0.0744   -0.2668 C   0  0  0  0  0  0  0  0  0  0  0  0
   -3.8175    1.0152   -0.0631 C   0  0  0  0  0  0  0  0  0  0  0  0
   -5.2025    0.4720    0.2321 N   0  0  0  0  0  4  0  0  0  0  0  0
   -5.8271   -0.2529   -0.9353 C   0  0  0  0  0  0  0  0  0  0  0  0
   -6.1183    1.5763    0.7114 C   0  0  0  0  0  0  0  0  0  0  0  0
    0.3689   -2.0467   -0.7236 N   0  0  0  0  0  0  0  0  0  0  0  0
    1.6266   -1.5868   -0.9857 C   0  0  0  0  0  0  0  0  0  0  0  0
    2.3829   -0.6774   -0.2583 C   0  0  0  0  0  0  0  0  0  0  0  0
    3.5771   -0.5538   -0.9891 C   0  0  0  0  0  0  0  0  0  0  0  0
    3.5887   -1.3145   -2.0901 N   0  0  0  0  0  0  0  0  0  0  0  0
    2.4000   -1.9538   -2.0521 N   0  0  0  0  0  0  0  0  0  0  0  0
    2.0776   -2.9014   -3.0894 C   0  0  0  0  0  0  0  0  0  0  0  0
    1.8282   -0.1240    0.9607 C   0  0  0  0  0  0  0  0  0  0  0  0
    2.3716    0.6866    1.8160 N   0  0  0  0  0  0  0  0  0  0  0  0
    3.6768    1.1570    1.6647 C   0  0  0  0  0  0  0  0  0  0  0  0
    3.9136    2.3859    1.0412 C   0  0  0  0  0  0  0  0  0  0  0  0
    5.2158    2.8787    0.9220 C   0  0  0  0  0  0  0  0  0  0  0  0
    6.2817    2.1472    1.4431 C   0  0  0  0  0  0  0  0  0  0  0  0
    7.8844    2.7528    1.2981 Cl  0  0  0  0  0  0  0  0  0  0  0  0
    6.0554    0.9320    2.0865 C   0  0  0  0  0  0  0  0  0  0  0  0
    4.7517    0.4430    2.2038 C   0  0  0  0  0  0  0  0  0  0  0  0
    0.1895   -0.4275    2.0685 H   0  0  0  0  0  0  0  0  0  0  0  0
   -1.7239   -2.5728    0.1510 H   0  0  0  0  0  0  0  0  0  0  0  0
   -2.0560   -0.1148    1.7857 H   0  0  0  0  0  0  0  0  0  0  0  0
   -3.2807   -1.3240    1.4259 H   0  0  0  0  0  0  0  0  0  0  0  0
   -1.8654    0.4129   -0.6593 H   0  0  0  0  0  0  0  0  0  0  0  0
   -3.0765   -0.7851   -1.0408 H   0  0  0  0  0  0  0  0  0  0  0  0
   -3.9059    1.6394   -0.9595 H   0  0  0  0  0  0  0  0  0  0  0  0
   -3.5346    1.6555    0.7801 H   0  0  0  0  0  0  0  0  0  0  0  0
   -5.1486   -0.1980    1.0091 H   0  0  0  0  0  0  0  0  0  0  0  0
   -6.8367   -0.5567   -0.6455 H   0  0  0  0  0  0  0  0  0  0  0  0
   -5.8540    0.4237   -1.7934 H   0  0  0  0  0  0  0  0  0  0  0  0
   -5.2321   -1.1428   -1.1485 H   0  0  0  0  0  0  0  0  0  0  0  0
   -7.0842    1.1306    0.9635 H   0  0  0  0  0  0  0  0  0  0  0  0
   -5.6724    2.0208    1.6051 H   0  0  0  0  0  0  0  0  0  0  0  0
   -6.2208    2.3149   -0.0881 H   0  0  0  0  0  0  0  0  0  0  0  0
    4.4492    0.0529   -0.7879 H   0  0  0  0  0  0  0  0  0  0  0  0
    2.8810   -3.6406   -3.1443 H   0  0  0  0  0  0  0  0  0  0  0  0
    1.1340   -3.4015   -2.8607 H   0  0  0  0  0  0  0  0  0  0  0  0
    1.9925   -2.3587   -4.0342 H   0  0  0  0  0  0  0  0  0  0  0  0
    3.0816    2.9630    0.6479 H   0  0  0  0  0  0  0  0  0  0  0  0
    5.3909    3.8316    0.4297 H   0  0  0  0  0  0  0  0  0  0  0  0
    6.8845    0.3653    2.5024 H   0  0  0  0  0  0  0  0  0  0  0  0
    4.5743   -0.4979    2.7181 H   0  0  0  0  0  0  0  0  0  0  0  0
  1  2  1  0
  2  3  1  0
  3  4  1  0
  4  5  1  0
  5  6  1  0
  6  7  1  0
  7  8  1  0
  7  9  1  0
  2 10  2  0
 10 11  1  0
 11 12  2  0
 12 13  1  0
 13 14  2  0
 14 15  1  0
 15 16  1  0
 12 17  1  0
 17 18  2  3
 18 19  1  0
 19 20  2  0
 20 21  1  0
 21 22  2  0
 22 23  1  0
 22 24  1  0
 24 25  2  0
 17  1  1  0
 25 19  1  0
 15 11  1  0
  1 26  1  0
  3 27  1  0
  4 28  1  0
  4 29  1  0
  5 30  1  0
  5 31  1  0
  6 32  1  0
  6 33  1  0
  7 34  1  0
  8 35  1  0
  8 36  1  0
  8 37  1  0
  9 38  1  0
  9 39  1  0
  9 40  1  0
 13 41  1  0
 16 42  1  0
 16 43  1  0
 16 44  1  0
 20 45  1  0
 21 46  1  0
 24 47  1  0
 25 48  1  0
M  CHG  1   7   1
M  END
>  <ScrubInfo>  (3) 
{"isomerGroup": 0, "isomerId": 2, "confId": 0, "nr_conformers:": 1, "nr_isomers:": 9}

$$$$
_i3
     RDKit          3D

 48 50  0  0  0  0  0  0  0  0999 V2000
    0.5732    1.9923    0.7604 N   0  0  0  0  0  0  0  0  0  0  0  0
   -0.3073    1.2080    0.0393 C   0  0  0  0  0  0  0  0  0  0  0  0
   -1.5862    1.3421   -0.0337 N   0  0  0  0  0  0  0  0  0  0  0  0
   -2.2480    2.4123    0.7024 C   0  0  0  0  0  0  0  0  0  0  0  0
   -3.7119    2.4660    0.2493 C   0  0  0  0  0  0  0  0  0  0  0  0
   -4.4425    1.1254    0.3767 C   0  0  0  0  0  0  0  0  0  0  0  0
   -3.8333    0.0781   -0.5265 N   0  0  0  0  0  4  0  0  0  0  0  0
   -4.2346    0.1993   -1.9627 C   0  0  0  0  0  0  0  0  0  0  0  0
   -4.0003   -1.3134   -0.0063 C   0  0  0  0  0  0  0  0  0  0  0  0
    0.1202    0.1234   -0.7123 N   0  0  0  0  0  0  0  0  0  0  0  0
    1.3915   -0.1752   -0.7369 C   0  0  0  0  0  0  0  0  0  0  0  0
    1.9091   -1.2074   -1.4746 N   0  0  0  0  0  0  0  0  0  0  0  0
    2.5516   -2.3507   -0.9307 C   0  0  0  0  0  0  0  0  0  0  0  0
    3.1240   -3.2711   -1.8239 C   0  0  0  0  0  0  0  0  0  0  0  0
    3.7874   -4.4099   -1.3573 C   0  0  0  0  0  0  0  0  0  0  0  0
    3.8888   -4.6369    0.0114 C   0  0  0  0  0  0  0  0  0  0  0  0
    4.6997   -6.0373    0.5906 Cl  0  0  0  0  0  0  0  0  0  0  0  0
    3.3347   -3.7335    0.9138 C   0  0  0  0  0  0  0  0  0  0  0  0
    2.6708   -2.5944    0.4444 C   0  0  0  0  0  0  0  0  0  0  0  0
    2.3520    0.6417   -0.0332 C   0  0  0  0  0  0  0  0  0  0  0  0
    3.7449    0.7000    0.1227 C   0  0  0  0  0  0  0  0  0  0  0  0
    4.1212    1.7118    0.9185 N   0  0  0  0  0  0  0  0  0  0  0  0
    2.9594    2.3185    1.2556 N   0  0  0  0  0  0  0  0  0  0  0  0
    3.0019    3.4806    2.1070 C   0  0  0  0  0  0  0  0  0  0  0  0
    1.8847    1.7001    0.6962 C   0  0  0  0  0  0  0  0  0  0  0  0
    0.2129    2.7865    1.2693 H   0  0  0  0  0  0  0  0  0  0  0  0
   -2.2038    2.2132    1.7792 H   0  0  0  0  0  0  0  0  0  0  0  0
   -1.7841    3.3850    0.5032 H   0  0  0  0  0  0  0  0  0  0  0  0
   -4.2365    3.2113    0.8590 H   0  0  0  0  0  0  0  0  0  0  0  0
   -3.7596    2.8235   -0.7856 H   0  0  0  0  0  0  0  0  0  0  0  0
   -5.5017    1.2144    0.1128 H   0  0  0  0  0  0  0  0  0  0  0  0
   -4.3668    0.7612    1.4075 H   0  0  0  0  0  0  0  0  0  0  0  0
   -2.8053    0.2736   -0.5005 H   0  0  0  0  0  0  0  0  0  0  0  0
   -5.3100    0.0187   -2.0399 H   0  0  0  0  0  0  0  0  0  0  0  0
   -3.9808    1.2004   -2.3170 H   0  0  0  0  0  0  0  0  0  0  0  0
   -3.6741   -0.5432   -2.5374 H   0  0  0  0  0  0  0  0  0  0  0  0
   -3.4639   -1.9958   -0.6712 H   0  0  0  0  0  0  0  0  0  0  0  0
   -5.0675   -1.5490    0.0188 H   0  0  0  0  0  0  0  0  0  0  0  0
   -3.5648   -1.3598    0.9954 H   0  0  0  0  0  0  0  0  0  0  0  0
    1.2389   -1.5284   -2.1683 H   0  0  0  0  0  0  0  0  0  0  0  0
    3.0720   -3.1011   -2.8976 H   0  0  0  0  0  0  0  0  0  0  0  0
    4.2273   -5.1082   -2.0651 H   0  0  0  0  0  0  0  0  0  0  0  0
    3.4177   -3.9071    1.9840 H   0  0  0  0  0  0  0  0  0  0  0  0
    2.2452   -1.9168    1.1796 H   0  0  0  0  0  0  0  0  0  0  0  0
    4.5061    0.0561   -0.3002 H   0  0  0  0  0  0  0  0  0  0  0  0
    3.5132    3.2108    3.0346 H   0  0  0  0  0  0  0  0  0  0  0  0
    3.5478    4.2698    1.5841 H   0  0  0  0  0  0  0  0  0  0  0  0
    1.9866    3.8152    2.3295 H   0  0  0  0  0  0  0  0  0  0  0  0
  1  2  1  0
  2  3  2  3
  3  4  1  0
  4  5  1  0
  5  6  1  0
  6  7  1  0
  7  8  1  0
  7  9  1  0
  2 10  1  0
 10 11  2  0
 11 12  1  0
 12 13  1  0
 13 14  2  0
 14 15  1  0
 15 16  2  0
 16 17  1  0
 16 18  1  0
 18 19  2  0
 11 20  1  0
 20 21  1  0
 21 22  2  0
 22 23  1  0
 23 24  1  0
 23 25  1  0
 25  1  1  0
 19 13  1  0
 25 20  2  0
  1 26  1  0
  4 27  1  0
  4 28  1  0
  5 29  1  0
  5 30  1  0
  6 31  1  0
  6 32  1  0
  7 33  1  0
  8 34  1  0
  8 35  1  0
  8 36  1  0
  9 37  1  0
  9 38  1  0
  9 39  1  0
 12 40  1  0
 14 41  1  0
 15 42  1  0
 18 43  1  0
 19 44  1  0
 21 45  1  0
 24 46  1  0
 24 47  1  0
 24 48  1  0
M  CHG  1   7   1
M  END
>  <ScrubInfo>  (4) 
{"isomerGroup": 0, "isomerId": 3, "confId": 0, "nr_conformers:": 1, "nr_isomers:": 9}

$$$$
_i4
     RDKit          3D

 48 50  0  0  0  0  0  0  0  0999 V2000
    0.4799    1.6241   -1.1132 N   0  0  0  0  0  0  0  0  0  0  0  0
   -0.0696    0.3709   -1.1560 C   0  0  0  0  0  0  0  0  0  0  0  0
   -1.3682    0.3301   -1.5842 N   0  0  0  0  0  0  0  0  0  0  0  0
   -2.3970    0.7139   -0.6217 C   0  0  0  0  0  0  0  0  0  0  0  0
   -3.7766    0.3350   -1.1557 C   0  0  0  0  0  0  0  0  0  0  0  0
   -4.8977    0.5550   -0.1421 C   0  0  0  0  0  0  0  0  0  0  0  0
   -4.8569   -0.4170    1.0235 N   0  0  0  0  0  4  0  0  0  0  0  0
   -5.8193    0.0070    2.1094 C   0  0  0  0  0  0  0  0  0  0  0  0
   -5.1109   -1.8521    0.6303 C   0  0  0  0  0  0  0  0  0  0  0  0
    0.5146   -0.7396   -0.8177 N   0  0  0  0  0  0  0  0  0  0  0  0
    1.8305   -0.7102   -0.3645 C   0  0  0  0  0  0  0  0  0  0  0  0
    2.3096   -1.8463    0.0286 N   0  0  0  0  0  0  0  0  0  0  0  0
    3.6103   -1.9856    0.5094 C   0  0  0  0  0  0  0  0  0  0  0  0
    4.6430   -2.3558   -0.3579 C   0  0  0  0  0  0  0  0  0  0  0  0
    5.9424   -2.5337    0.1242 C   0  0  0  0  0  0  0  0  0  0  0  0
    6.2050   -2.3578    1.4814 C   0  0  0  0  0  0  0  0  0  0  0  0
    7.8027   -2.5759    2.0786 Cl  0  0  0  0  0  0  0  0  0  0  0  0
    5.1790   -2.0130    2.3598 C   0  0  0  0  0  0  0  0  0  0  0  0
    3.8811   -1.8364    1.8734 C   0  0  0  0  0  0  0  0  0  0  0  0
    2.4918    0.5843   -0.3770 C   0  0  0  0  0  0  0  0  0  0  0  0
    3.7702    1.1017   -0.1024 C   0  0  0  0  0  0  0  0  0  0  0  0
    3.8465    2.4270   -0.2985 N   0  0  0  0  0  0  0  0  0  0  0  0
    2.6094    2.7663   -0.7199 N   0  0  0  0  0  0  0  0  0  0  0  0
    2.3381    4.1425   -1.0498 C   0  0  0  0  0  0  0  0  0  0  0  0
    1.7757    1.6940   -0.7579 C   0  0  0  0  0  0  0  0  0  0  0  0
   -0.0014    2.3537   -1.6237 H   0  0  0  0  0  0  0  0  0  0  0  0
   -1.5162   -0.6432   -1.8583 H   0  0  0  0  0  0  0  0  0  0  0  0
   -2.3504    1.7933   -0.4374 H   0  0  0  0  0  0  0  0  0  0  0  0
   -2.2046    0.2036    0.3284 H   0  0  0  0  0  0  0  0  0  0  0  0
   -3.9847    0.9561   -2.0369 H   0  0  0  0  0  0  0  0  0  0  0  0
   -3.7801   -0.6981   -1.5197 H   0  0  0  0  0  0  0  0  0  0  0  0
   -4.8318    1.5649    0.2782 H   0  0  0  0  0  0  0  0  0  0  0  0
   -5.8774    0.4373   -0.6187 H   0  0  0  0  0  0  0  0  0  0  0  0
   -3.9253   -0.3917    1.4579 H   0  0  0  0  0  0  0  0  0  0  0  0
   -5.5494    1.0185    2.4240 H   0  0  0  0  0  0  0  0  0  0  0  0
   -5.7085   -0.6830    2.9501 H   0  0  0  0  0  0  0  0  0  0  0  0
   -6.8346   -0.0229    1.7052 H   0  0  0  0  0  0  0  0  0  0  0  0
   -4.2903   -2.1865   -0.0071 H   0  0  0  0  0  0  0  0  0  0  0  0
   -5.1266   -2.4569    1.5412 H   0  0  0  0  0  0  0  0  0  0  0  0
   -6.0699   -1.9066    0.1087 H   0  0  0  0  0  0  0  0  0  0  0  0
    4.4326   -2.5106   -1.4132 H   0  0  0  0  0  0  0  0  0  0  0  0
    6.7383   -2.8159   -0.5601 H   0  0  0  0  0  0  0  0  0  0  0  0
    5.3808   -1.8888    3.4204 H   0  0  0  0  0  0  0  0  0  0  0  0
    3.0773   -1.5859    2.5599 H   0  0  0  0  0  0  0  0  0  0  0  0
    4.6643    0.5903    0.2278 H   0  0  0  0  0  0  0  0  0  0  0  0
    1.2754    4.2705   -1.2661 H   0  0  0  0  0  0  0  0  0  0  0  0
    2.6169    4.7654   -0.1961 H   0  0  0  0  0  0  0  0  0  0  0  0
    2.9322    4.4079   -1.9278 H   0  0  0  0  0  0  0  0  0  0  0  0
  1  2  1  0
  2  3  1  0
  3  4  1  0
  4  5  1  0
  5  6  1  0
  6  7  1  0
  7  8  1  0
  7  9  1  0
  2 10  2  0
 10 11  1  0
 11 12  2  3
 12 13  1  0
 13 14  2  0
 14 15  1  0
 15 16  2  0
 16 17  1  0
 16 18  1  0
 18 19  2  0
 11 20  1  0
 20 21  1  0
 21 22  2  0
 22 23  1  0
 23 24  1  0
 23 25  1  0
 25  1  1  0
 19 13  1  0
 25 20  2  0
  1 26  1  0
  3 27  1  0
  4 28  1  0
  4 29  1  0
  5 30  1  0
  5 31  1  0
  6 32  1  0
  6 33  1  0
  7 34  1  0
  8 35  1  0
  8 36  1  0
  8 37  1  0
  9 38  1  0
  9 39  1  0
  9 40  1  0
 14 41  1  0
 15 42  1  0
 18 43  1  0
 19 44  1  0
 21 45  1  0
 24 46  1  0
 24 47  1  0
 24 48  1  0
M  CHG  1   7   1
M  END
>  <ScrubInfo>  (5) 
{"isomerGroup": 0, "isomerId": 4, "confId": 0, "nr_conformers:": 1, "nr_isomers:": 9}

$$$$
_i5
     RDKit          3D

 48 50  0  0  0  0  0  0  0  0999 V2000
    4.1588   -2.1003   -1.1644 N   0  0  0  0  0  0  0  0  0  0  0  0
    3.8773   -0.8053   -0.7444 C   0  0  0  0  0  0  0  0  0  0  0  0
    2.6153   -0.6467   -0.3165 C   0  0  0  0  0  0  0  0  0  0  0  0
    1.7413    0.4097    0.1768 C   0  0  0  0  0  0  0  0  0  0  0  0
    1.9660    1.6592    0.4101 N   0  0  0  0  0  0  0  0  0  0  0  0
    3.2342    2.2049    0.2067 C   0  0  0  0  0  0  0  0  0  0  0  0
    3.5609    2.7924   -1.0194 C   0  0  0  0  0  0  0  0  0  0  0  0
    4.8223    3.3596   -1.2177 C   0  0  0  0  0  0  0  0  0  0  0  0
    5.7529    3.3531   -0.1801 C   0  0  0  0  0  0  0  0  0  0  0  0
    7.3076    4.0463   -0.4230 Cl  0  0  0  0  0  0  0  0  0  0  0  0
    5.4303    2.7918    1.0542 C   0  0  0  0  0  0  0  0  0  0  0  0
    4.1678    2.2254    1.2477 C   0  0  0  0  0  0  0  0  0  0  0  0
    0.4579   -0.0023    0.4220 N   0  0  0  0  0  0  0  0  0  0  0  0
    0.0587   -1.2253    0.2581 C   0  0  0  0  0  0  0  0  0  0  0  0
   -1.2388   -1.5576    0.5298 N   0  0  0  0  0  0  0  0  0  0  0  0
   -2.2494   -0.5564    0.7630 C   0  0  0  0  0  0  0  0  0  0  0  0
   -3.5838   -1.2129    1.1080 C   0  0  0  0  0  0  0  0  0  0  0  0
   -4.6450   -0.1815    1.4879 C   0  0  0  0  0  0  0  0  0  0  0  0
   -5.6168    0.0926    0.3535 N   0  0  0  0  0  4  0  0  0  0  0  0
   -5.0030    0.7722   -0.8409 C   0  0  0  0  0  0  0  0  0  0  0  0
   -6.8133    0.8698    0.8490 C   0  0  0  0  0  0  0  0  0  0  0  0
    0.8270   -2.2634   -0.1840 N   0  0  0  0  0  0  0  0  0  0  0  0
    2.0650   -2.0124   -0.4387 C   0  0  0  0  0  0  0  0  0  0  0  0
    3.0620   -2.8909   -0.8613 N   0  0  0  0  0  0  0  0  0  0  0  0
    2.7636   -4.0363   -1.6983 C   0  0  0  0  0  0  0  0  0  0  0  0
    5.0708   -2.4439   -0.8511 H   0  0  0  0  0  0  0  0  0  0  0  0
    4.6656   -0.0690   -0.8013 H   0  0  0  0  0  0  0  0  0  0  0  0
    2.8272    2.8116   -1.8208 H   0  0  0  0  0  0  0  0  0  0  0  0
    5.0676    3.8102   -2.1757 H   0  0  0  0  0  0  0  0  0  0  0  0
    6.1491    2.8003    1.8693 H   0  0  0  0  0  0  0  0  0  0  0  0
    3.9064    1.8041    2.2150 H   0  0  0  0  0  0  0  0  0  0  0  0
   -1.4970   -2.4580    0.1456 H   0  0  0  0  0  0  0  0  0  0  0  0
   -2.3506    0.0743   -0.1254 H   0  0  0  0  0  0  0  0  0  0  0  0
   -1.9412    0.0892    1.5945 H   0  0  0  0  0  0  0  0  0  0  0  0
   -3.4215   -1.8699    1.9730 H   0  0  0  0  0  0  0  0  0  0  0  0
   -3.9218   -1.8626    0.2919 H   0  0  0  0  0  0  0  0  0  0  0  0
   -5.2524   -0.5894    2.3040 H   0  0  0  0  0  0  0  0  0  0  0  0
   -4.2258    0.7782    1.8094 H   0  0  0  0  0  0  0  0  0  0  0  0
   -5.9823   -0.8142    0.0316 H   0  0  0  0  0  0  0  0  0  0  0  0
   -5.7997    0.9924   -1.5568 H   0  0  0  0  0  0  0  0  0  0  0  0
   -4.5129    1.6903   -0.5074 H   0  0  0  0  0  0  0  0  0  0  0  0
   -4.2933    0.0813   -1.2998 H   0  0  0  0  0  0  0  0  0  0  0  0
   -6.4713    1.8466    1.2011 H   0  0  0  0  0  0  0  0  0  0  0  0
   -7.2782    0.2995    1.6575 H   0  0  0  0  0  0  0  0  0  0  0  0
   -7.5181    0.9742    0.0198 H   0  0  0  0  0  0  0  0  0  0  0  0
    3.6580   -4.6530   -1.8340 H   0  0  0  0  0  0  0  0  0  0  0  0
    1.9938   -4.6617   -1.2350 H   0  0  0  0  0  0  0  0  0  0  0  0
    2.4087   -3.7160   -2.6834 H   0  0  0  0  0  0  0  0  0  0  0  0
  1  2  1  0
  2  3  2  0
  3  4  1  0
  4  5  2  3
  5  6  1  0
  6  7  2  0
  7  8  1  0
  8  9  2  0
  9 10  1  0
  9 11  1  0
 11 12  2  0
  4 13  1  0
 13 14  2  0
 14 15  1  0
 15 16  1  0
 16 17  1  0
 17 18  1  0
 18 19  1  0
 19 20  1  0
 19 21  1  0
 14 22  1  0
 22 23  2  0
 23 24  1  0
 24 25  1  0
 24  1  1  0
 23  3  1  0
 12  6  1  0
  1 26  1  0
  2 27  1  0
  7 28  1  0
  8 29  1  0
 11 30  1  0
 12 31  1  0
 15 32  1  0
 16 33  1  0
 16 34  1  0
 17 35  1  0
 17 36  1  0
 18 37  1  0
 18 38  1  0
 19 39  1  0
 20 40  1  0
 20 41  1  0
 20 42  1  0
 21 43  1  0
 21 44  1  0
 21 45  1  0
 25 46  1  0
 25 47  1  0
 25 48  1  0
M  CHG  1  19   1
M  END
>  <ScrubInfo>  (6) 
{"isomerGroup": 0, "isomerId": 5, "confId": 0, "nr_conformers:": 1, "nr_isomers:": 9}

$$$$
_i6
     RDKit          3D

 48 50  0  0  0  0  0  0  0  0999 V2000
    2.1491   -3.8679   -1.9407 N   0  0  0  0  0  0  0  0  0  0  0  0
    2.7783   -2.8627   -1.2175 C   0  0  0  0  0  0  0  0  0  0  0  0
    1.9154   -1.9723   -0.7089 C   0  0  0  0  0  0  0  0  0  0  0  0
    1.9504   -0.7517    0.1046 C   0  0  0  0  0  0  0  0  0  0  0  0
    3.1683   -0.2526    0.5254 N   0  0  0  0  0  0  0  0  0  0  0  0
    3.4674    0.9660    1.1645 C   0  0  0  0  0  0  0  0  0  0  0  0
    4.7101    1.0931    1.8111 C   0  0  0  0  0  0  0  0  0  0  0  0
    5.0604    2.2640    2.4928 C   0  0  0  0  0  0  0  0  0  0  0  0
    4.1658    3.3264    2.5415 C   0  0  0  0  0  0  0  0  0  0  0  0
    4.5870    4.7682    3.3766 Cl  0  0  0  0  0  0  0  0  0  0  0  0
    2.9284    3.2241    1.9155 C   0  0  0  0  0  0  0  0  0  0  0  0
    2.5835    2.0489    1.2364 C   0  0  0  0  0  0  0  0  0  0  0  0
    0.8004   -0.2091    0.3984 N   0  0  0  0  0  0  0  0  0  0  0  0
   -0.3608   -0.8047   -0.0202 C   0  0  0  0  0  0  0  0  0  0  0  0
   -1.4969   -0.3441    0.3751 N   0  0  0  0  0  0  0  0  0  0  0  0
   -1.5447    0.7809    1.3059 C   0  0  0  0  0  0  0  0  0  0  0  0
   -2.0692    2.0332    0.5965 C   0  0  0  0  0  0  0  0  0  0  0  0
   -2.8708    1.8097   -0.6897 C   0  0  0  0  0  0  0  0  0  0  0  0
   -3.7954    0.6225   -0.6057 N   0  0  0  0  0  4  0  0  0  0  0  0
   -4.9439    0.7986    0.3328 C   0  0  0  0  0  0  0  0  0  0  0  0
   -4.2314    0.1430   -1.9553 C   0  0  0  0  0  0  0  0  0  0  0  0
   -0.4928   -1.8620   -0.8821 N   0  0  0  0  0  0  0  0  0  0  0  0
    0.6068   -2.4445   -1.2187 C   0  0  0  0  0  0  0  0  0  0  0  0
    0.8020   -3.5451   -2.0527 N   0  0  0  0  0  0  0  0  0  0  0  0
   -0.1693   -4.6225   -2.1173 C   0  0  0  0  0  0  0  0  0  0  0  0
    2.6319   -4.1344   -2.8034 H   0  0  0  0  0  0  0  0  0  0  0  0
    3.8557   -2.8784   -1.1386 H   0  0  0  0  0  0  0  0  0  0  0  0
    3.9861   -0.8277    0.3619 H   0  0  0  0  0  0  0  0  0  0  0  0
    5.4256    0.2735    1.8014 H   0  0  0  0  0  0  0  0  0  0  0  0
    6.0275    2.3353    2.9842 H   0  0  0  0  0  0  0  0  0  0  0  0
    2.2268    4.0532    1.9491 H   0  0  0  0  0  0  0  0  0  0  0  0
    1.6159    2.0144    0.7477 H   0  0  0  0  0  0  0  0  0  0  0  0
   -2.2497    0.5078    2.1007 H   0  0  0  0  0  0  0  0  0  0  0  0
   -0.6061    1.0016    1.8251 H   0  0  0  0  0  0  0  0  0  0  0  0
   -1.2150    2.6746    0.3438 H   0  0  0  0  0  0  0  0  0  0  0  0
   -2.6666    2.6152    1.3093 H   0  0  0  0  0  0  0  0  0  0  0  0
   -3.4707    2.6890   -0.9491 H   0  0  0  0  0  0  0  0  0  0  0  0
   -2.1755    1.6132   -1.5145 H   0  0  0  0  0  0  0  0  0  0  0  0
   -3.1835   -0.1358   -0.2308 H   0  0  0  0  0  0  0  0  0  0  0  0
   -5.4942   -0.1449    0.3798 H   0  0  0  0  0  0  0  0  0  0  0  0
   -5.5818    1.6019   -0.0454 H   0  0  0  0  0  0  0  0  0  0  0  0
   -4.5574    1.0450    1.3238 H   0  0  0  0  0  0  0  0  0  0  0  0
   -3.3392   -0.0791   -2.5471 H   0  0  0  0  0  0  0  0  0  0  0  0
   -4.8190   -0.7691   -1.8210 H   0  0  0  0  0  0  0  0  0  0  0  0
   -4.8291    0.9277   -2.4265 H   0  0  0  0  0  0  0  0  0  0  0  0
   -1.1598   -4.2319   -2.3714 H   0  0  0  0  0  0  0  0  0  0  0  0
    0.1140   -5.3447   -2.8898 H   0  0  0  0  0  0  0  0  0  0  0  0
   -0.2342   -5.1457   -1.1575 H   0  0  0  0  0  0  0  0  0  0  0  0
  1  2  1  0
  2  3  2  0
  3  4  1  0
  4  5  1  0
  5  6  1  0
  6  7  2  0
  7  8  1  0
  8  9  2  0
  9 10  1  0
  9 11  1  0
 11 12  2  0
  4 13  2  0
 13 14  1  0
 14 15  2  3
 15 16  1  0
 16 17  1  0
 17 18  1  0
 18 19  1  0
 19 20  1  0
 19 21  1  0
 14 22  1  0
 22 23  2  0
 23 24  1  0
 24 25  1  0
 24  1  1  0
 23  3  1  0
 12  6  1  0
  1 26  1  0
  2 27  1  0
  5 28  1  0
  7 29  1  0
  8 30  1  0
 11 31  1  0
 12 32  1  0
 16 33  1  0
 16 34  1  0
 17 35  1  0
 17 36  1  0
 18 37  1  0
 18 38  1  0
 19 39  1  0
 20 40  1  0
 20 41  1  0
 20 42  1  0
 21 43  1  0
 21 44  1  0
 21 45  1  0
 25 46  1  0
 25 47  1  0
 25 48  1  0
M  CHG  1  19   1
M  END
>  <ScrubInfo>  (7) 
{"isomerGroup": 0, "isomerId": 6, "confId": 0, "nr_conformers:": 1, "nr_isomers:": 9}

$$$$
_i7
     RDKit          3D

 48 50  0  0  0  0  0  0  0  0999 V2000
    3.2321   -1.7795   -1.5218 N   0  0  0  0  0  0  0  0  0  0  0  0
    3.3347   -0.5390   -0.9046 C   0  0  0  0  0  0  0  0  0  0  0  0
    2.2297   -0.1851   -0.2333 C   0  0  0  0  0  0  0  0  0  0  0  0
    1.6943    0.9424    0.5525 C   0  0  0  0  0  0  0  0  0  0  0  0
    2.2630    2.0594    0.8947 N   0  0  0  0  0  0  0  0  0  0  0  0
    3.5828    2.3335    0.5282 C   0  0  0  0  0  0  0  0  0  0  0  0
    3.8556    3.0362   -0.6493 C   0  0  0  0  0  0  0  0  0  0  0  0
    5.1736    3.3325   -1.0061 C   0  0  0  0  0  0  0  0  0  0  0  0
    6.2197    2.9385   -0.1736 C   0  0  0  0  0  0  0  0  0  0  0  0
    7.8427    3.2964   -0.6137 Cl  0  0  0  0  0  0  0  0  0  0  0  0
    5.9581    2.2590    1.0148 C   0  0  0  0  0  0  0  0  0  0  0  0
    4.6386    1.9645    1.3676 C   0  0  0  0  0  0  0  0  0  0  0  0
    0.4019    0.7289    0.9519 N   0  0  0  0  0  0  0  0  0  0  0  0
   -0.3619   -0.3795    0.7273 C   0  0  0  0  0  0  0  0  0  0  0  0
   -1.5722   -0.4106    1.1935 N   0  0  0  0  0  0  0  0  0  0  0  0
   -2.3283   -1.6430    0.9757 C   0  0  0  0  0  0  0  0  0  0  0  0
   -3.6476   -1.5457    1.7366 C   0  0  0  0  0  0  0  0  0  0  0  0
   -4.4906   -0.3138    1.4173 C   0  0  0  0  0  0  0  0  0  0  0  0
   -4.9952   -0.3325   -0.0160 N   0  0  0  0  0  4  0  0  0  0  0  0
   -4.2401    0.6252   -0.8997 C   0  0  0  0  0  0  0  0  0  0  0  0
   -6.4771   -0.0958   -0.1009 C   0  0  0  0  0  0  0  0  0  0  0  0
    0.1169   -1.4558    0.0133 N   0  0  0  0  0  0  0  0  0  0  0  0
    1.3398   -1.3883   -0.4191 C   0  0  0  0  0  0  0  0  0  0  0  0
    2.0432   -2.3674   -1.1216 N   0  0  0  0  0  0  0  0  0  0  0  0
    1.3830   -3.3022   -2.0106 C   0  0  0  0  0  0  0  0  0  0  0  0
    4.0782   -2.3503   -1.4387 H   0  0  0  0  0  0  0  0  0  0  0  0
    4.2576    0.0110   -1.0181 H   0  0  0  0  0  0  0  0  0  0  0  0
    3.0382    3.3584   -1.2886 H   0  0  0  0  0  0  0  0  0  0  0  0
    5.3757    3.8763   -1.9252 H   0  0  0  0  0  0  0  0  0  0  0  0
    6.7718    1.9659    1.6732 H   0  0  0  0  0  0  0  0  0  0  0  0
    4.4321    1.4514    2.3032 H   0  0  0  0  0  0  0  0  0  0  0  0
   -0.0041    1.4504    1.5284 H   0  0  0  0  0  0  0  0  0  0  0  0
   -1.7812   -2.5144    1.3566 H   0  0  0  0  0  0  0  0  0  0  0  0
   -2.5236   -1.7989   -0.0914 H   0  0  0  0  0  0  0  0  0  0  0  0
   -3.4272   -1.5286    2.8118 H   0  0  0  0  0  0  0  0  0  0  0  0
   -4.2344   -2.4544    1.5547 H   0  0  0  0  0  0  0  0  0  0  0  0
   -5.3686   -0.3116    2.0737 H   0  0  0  0  0  0  0  0  0  0  0  0
   -3.9554    0.6269    1.5854 H   0  0  0  0  0  0  0  0  0  0  0  0
   -4.8315   -1.2730   -0.3957 H   0  0  0  0  0  0  0  0  0  0  0  0
   -4.6164    0.5098   -1.9198 H   0  0  0  0  0  0  0  0  0  0  0  0
   -4.4092    1.6426   -0.5367 H   0  0  0  0  0  0  0  0  0  0  0  0
   -3.1802    0.3699   -0.8711 H   0  0  0  0  0  0  0  0  0  0  0  0
   -6.6955    0.8976    0.3004 H   0  0  0  0  0  0  0  0  0  0  0  0
   -6.9776   -0.8752    0.4799 H   0  0  0  0  0  0  0  0  0  0  0  0
   -6.7741   -0.1692   -1.1504 H   0  0  0  0  0  0  0  0  0  0  0  0
    2.0936   -4.0523   -2.3727 H   0  0  0  0  0  0  0  0  0  0  0  0
    0.5788   -3.8294   -1.4875 H   0  0  0  0  0  0  0  0  0  0  0  0
    0.9564   -2.7813   -2.8741 H   0  0  0  0  0  0  0  0  0  0  0  0
  1  2  1  0
  2  3  2  0
  3  4  1  0
  4  5  2  3
  5  6  1  0
  6  7  2  0
  7  8  1  0
  8  9  2  0
  9 10  1  0
  9 11  1  0
 11 12  2  0
  4 13  1  0
 13 14  1  0
 14 15  2  3
 15 16  1  0
 16 17  1  0
 17 18  1  0
 18 19  1  0
 19 20  1  0
 19 21  1  0
 14 22  1  0
 22 23  2  0
 23 24  1  0
 24 25  1  0
 24  1  1  0
 23  3  1  0
 12  6  1  0
  1 26  1  0
  2 27  1  0
  7 28  1  0
  8 29  1  0
 11 30  1  0
 12 31  1  0
 13 32  1  0
 16 33  1  0
 16 34  1  0
 17 35  1  0
 17 36  1  0
 18 37  1  0
 18 38  1  0
 19 39  1  0
 20 40  1  0
 20 41  1  0
 20 42  1  0
 21 43  1  0
 21 44  1  0
 21 45  1  0
 25 46  1  0
 25 47  1  0
 25 48  1  0
M  CHG  1  19   1
M  END
>  <ScrubInfo>  (8) 
{"isomerGroup": 0, "isomerId": 7, "confId": 0, "nr_conformers:": 1, "nr_isomers:": 9}

$$$$
_i8
     RDKit          3D

 48 50  0  0  0  0  0  0  0  0999 V2000
    0.3432    0.5681    1.0296 N   0  0  0  0  0  0  0  0  0  0  0  0
   -0.0065   -0.0455   -0.1619 C   0  0  0  0  0  0  0  0  0  0  0  0
   -1.1865   -0.1853   -0.6670 N   0  0  0  0  0  0  0  0  0  0  0  0
   -2.3396    0.3396    0.0447 C   0  0  0  0  0  0  0  0  0  0  0  0
   -3.5697    0.0088   -0.8036 C   0  0  0  0  0  0  0  0  0  0  0  0
   -4.8492    0.5137   -0.1538 C   0  0  0  0  0  0  0  0  0  0  0  0
   -6.0410    0.2883   -1.0661 N   0  0  0  0  0  4  0  0  0  0  0  0
   -6.4274   -1.1612   -1.2063 C   0  0  0  0  0  0  0  0  0  0  0  0
   -7.2232    1.1208   -0.6440 C   0  0  0  0  0  0  0  0  0  0  0  0
    1.0713   -0.5509   -0.8535 N   0  0  0  0  0  0  0  0  0  0  0  0
    2.4220   -0.5549   -0.5787 C   0  0  0  0  0  0  0  0  0  0  0  0
    3.2659   -1.1039   -1.3987 N   0  0  0  0  0  0  0  0  0  0  0  0
    4.6390   -1.1287   -1.1550 C   0  0  0  0  0  0  0  0  0  0  0  0
    5.4608   -0.1118   -1.6510 C   0  0  0  0  0  0  0  0  0  0  0  0
    6.8416   -0.1535   -1.4415 C   0  0  0  0  0  0  0  0  0  0  0  0
    7.4029   -1.2249   -0.7489 C   0  0  0  0  0  0  0  0  0  0  0  0
    9.1019   -1.2784   -0.4892 Cl  0  0  0  0  0  0  0  0  0  0  0  0
    6.5965   -2.2563   -0.2710 C   0  0  0  0  0  0  0  0  0  0  0  0
    5.2161   -2.2105   -0.4827 C   0  0  0  0  0  0  0  0  0  0  0  0
    2.6927    0.1099    0.6834 C   0  0  0  0  0  0  0  0  0  0  0  0
    3.8211    0.4192    1.4644 C   0  0  0  0  0  0  0  0  0  0  0  0
    3.5077    1.0769    2.5896 N   0  0  0  0  0  0  0  0  0  0  0  0
    2.1650    1.1872    2.5403 N   0  0  0  0  0  0  0  0  0  0  0  0
    1.4832    1.8592    3.6178 C   0  0  0  0  0  0  0  0  0  0  0  0
    1.6419    0.6284    1.4130 C   0  0  0  0  0  0  0  0  0  0  0  0
   -0.3957    0.9669    1.5895 H   0  0  0  0  0  0  0  0  0  0  0  0
   -2.4351   -0.1279    1.0316 H   0  0  0  0  0  0  0  0  0  0  0  0
   -2.2575    1.4254    0.1705 H   0  0  0  0  0  0  0  0  0  0  0  0
   -3.4544    0.4536   -1.8004 H   0  0  0  0  0  0  0  0  0  0  0  0
   -3.6140   -1.0769   -0.9482 H   0  0  0  0  0  0  0  0  0  0  0  0
   -5.0588    0.0134    0.7979 H   0  0  0  0  0  0  0  0  0  0  0  0
   -4.7802    1.5939    0.0166 H   0  0  0  0  0  0  0  0  0  0  0  0
   -5.7755    0.6175   -2.0050 H   0  0  0  0  0  0  0  0  0  0  0  0
   -5.5994   -1.7002   -1.6702 H   0  0  0  0  0  0  0  0  0  0  0  0
   -6.6541   -1.5591   -0.2137 H   0  0  0  0  0  0  0  0  0  0  0  0
   -7.3036   -1.2176   -1.8580 H   0  0  0  0  0  0  0  0  0  0  0  0
   -6.9188    2.1707   -0.6492 H   0  0  0  0  0  0  0  0  0  0  0  0
   -8.0257    0.9662   -1.3702 H   0  0  0  0  0  0  0  0  0  0  0  0
   -7.5310    0.8051    0.3563 H   0  0  0  0  0  0  0  0  0  0  0  0
    0.8375   -1.0031   -1.7257 H   0  0  0  0  0  0  0  0  0  0  0  0
    5.0239    0.7143   -2.2056 H   0  0  0  0  0  0  0  0  0  0  0  0
    7.4708    0.6449   -1.8261 H   0  0  0  0  0  0  0  0  0  0  0  0
    7.0343   -3.0987    0.2579 H   0  0  0  0  0  0  0  0  0  0  0  0
    4.5883   -3.0225   -0.1255 H   0  0  0  0  0  0  0  0  0  0  0  0
    4.8654    0.2060    1.2809 H   0  0  0  0  0  0  0  0  0  0  0  0
    1.9659    1.5948    4.5625 H   0  0  0  0  0  0  0  0  0  0  0  0
    1.5500    2.9358    3.4435 H   0  0  0  0  0  0  0  0  0  0  0  0
    0.4382    1.5432    3.6453 H   0  0  0  0  0  0  0  0  0  0  0  0
  1  2  1  0
  2  3  2  3
  3  4  1  0
  4  5  1  0
  5  6  1  0
  6  7  1  0
  7  8  1  0
  7  9  1  0
  2 10  1  0
 10 11  1  0
 11 12  2  3
 12 13  1  0
 13 14  2  0
 14 15  1  0
 15 16  2  0
 16 17  1  0
 16 18  1  0
 18 19  2  0
 11 20  1  0
 20 21  1  0
 21 22  2  0
 22 23  1  0
 23 24  1  0
 23 25  1  0
 25  1  1  0
 19 13  1  0
 25 20  2  0
  1 26  1  0
  4 27  1  0
  4 28  1  0
  5 29  1  0
  5 30  1  0
  6 31  1  0
  6 32  1  0
  7 33  1  0
  8 34  1  0
  8 35  1  0
  8 36  1  0
  9 37  1  0
  9 38  1  0
  9 39  1  0
 10 40  1  0
 14 41  1  0
 15 42  1  0
 18 43  1  0
 19 44  1  0
 21 45  1  0
 24 46  1  0
 24 47  1  0
 24 48  1  0
M  CHG  1   7   1
M  END
>  <ScrubInfo>  (9) 
{"isomerGroup": 0, "isomerId": 8, "confId": 0, "nr_conformers:": 1, "nr_isomers:": 9}

$$$$
