REMARK SMILES c1ccc(Nc2nc(NCc3ccncc3)nc(N3CCCCCC3)n2)cc1
REMARK SMILES IDX 6 1 7 2 8 3 17 4 18 5 26 6 5 7 4 9 1 10 2 11 28 12 3 13
REMARK SMILES IDX 27 14 9 15 10 17 11 18 12 19 16 20 13 21 15 22 14 23 19 24
REMARK SMILES IDX 20 25 21 26 22 27 25 29 24 30 23 31
REMARK H PARENT 5 8 9 16
REMARK Flexibility Score:   44.900
ROOT
ATOM      1  C   UNL     1      -0.588   1.306   0.513  1.00  0.00     0.233 A 
ATOM      2  N   UNL     1       0.660   0.976   0.220  1.00  0.00    -0.177 NA
ATOM      3  C   UNL     1       0.864  -0.293  -0.087  1.00  0.00     0.229 A 
ATOM      4  N   UNL     1      -0.081  -1.218  -0.102  1.00  0.00    -0.177 NA
ATOM      5  C   UNL     1      -1.310  -0.821   0.206  1.00  0.00     0.231 A 
ATOM      6  N   UNL     1      -1.593   0.437   0.526  1.00  0.00    -0.176 NA
ENDROOT
BRANCH   1   7
ATOM      7  N   UNL     1      -0.938   2.608   0.867  1.00  0.00    -0.324 N 
ATOM      8  H   UNL     1      -1.930   2.644   1.049  1.00  0.00     0.170 HD
BRANCH   7   9
ATOM      9  C   UNL     1      -0.255   3.830   0.876  1.00  0.00     0.041 A 
ATOM     10  C   UNL     1       1.035   6.340   1.024  1.00  0.00     0.000 A 
ATOM     11  C   UNL     1       1.700   5.237   0.497  1.00  0.00     0.002 A 
ATOM     12  C   UNL     1      -0.269   6.198   1.485  1.00  0.00     0.002 A 
ATOM     13  C   UNL     1       1.060   3.994   0.430  1.00  0.00     0.026 A 
ATOM     14  C   UNL     1      -0.903   4.954   1.414  1.00  0.00     0.026 A 
ENDBRANCH   7   9
ENDBRANCH   1   7
BRANCH   3  15
ATOM     15  N   UNL     1       2.140  -0.734  -0.417  1.00  0.00    -0.350 N 
ATOM     16  H   UNL     1       2.129  -1.744  -0.324  1.00  0.00     0.164 HD
BRANCH  15  17
ATOM     17  C   UNL     1       3.202  -0.067   0.307  1.00  0.00     0.152 C 
BRANCH  17  18
ATOM     18  C   UNL     1       4.513  -0.748  -0.002  1.00  0.00    -0.026 A 
ATOM     19  C   UNL     1       5.053  -0.698  -1.292  1.00  0.00     0.025 A 
ATOM     20  C   UNL     1       5.212  -1.451   0.983  1.00  0.00     0.025 A 
ATOM     21  C   UNL     1       6.255  -1.341  -1.536  1.00  0.00     0.111 A 
ATOM     22  C   UNL     1       6.410  -2.059   0.641  1.00  0.00     0.111 A 
ATOM     23  N   UNL     1       6.948  -2.019  -0.597  1.00  0.00    -0.265 NA
ENDBRANCH  17  18
ENDBRANCH  15  17
ENDBRANCH   3  15
BRANCH   5  24
ATOM     24  N   UNL     1      -2.335  -1.753   0.187  1.00  0.00    -0.341 N 
BRANCH  24  25
ATOM     25  C   UNL     1      -2.019  -3.109  -0.233  1.00  0.00     0.119 C 
BRANCH  25  26
ATOM     26  C   UNL     1      -3.240  -3.947  -0.618  1.00  0.00     0.021 C 
BRANCH  26  27
ATOM     27  C   UNL     1      -4.152  -3.277  -1.647  1.00  0.00     0.002 CG0
ATOM     28  G   UNL     1      -5.193  -2.348  -1.023  1.00  0.00     0.000 G0
ENDBRANCH  26  27
ENDBRANCH  25  26
ENDBRANCH  24  25
BRANCH  24  29
ATOM     29  C   UNL     1      -3.623  -1.415   0.768  1.00  0.00     0.119 C 
BRANCH  29  30
ATOM     30  C   UNL     1      -4.629  -1.103  -0.337  1.00  0.00     0.021 C 
BRANCH  30  31
ATOM     31  C   UNL     1      -5.193  -2.348  -1.023  1.00  0.00     0.002 CG0
ATOM     32  G   UNL     1      -4.152  -3.277  -1.647  1.00  0.00     0.000 G0
ENDBRANCH  30  31
ENDBRANCH  29  30
ENDBRANCH  24  29
ENDBRANCH   5  24
TORSDOF 6
