_i0
     RDKit          3D

 53 56  0  0  0  0  0  0  0  0999 V2000
    1.0350    6.3395    1.0238 C   0  0  0  0  0  0  0  0  0  0  0  0
    1.7001    5.2367    0.4972 C   0  0  0  0  0  0  0  0  0  0  0  0
    1.0603    3.9935    0.4301 C   0  0  0  0  0  0  0  0  0  0  0  0
   -0.2550    3.8296    0.8764 C   0  0  0  0  0  0  0  0  0  0  0  0
   -0.9380    2.6083    0.8665 N   0  0  0  0  0  0  0  0  0  0  0  0
   -0.5879    1.3056    0.5131 C   0  0  0  0  0  0  0  0  0  0  0  0
    0.6599    0.9760    0.2201 N   0  0  0  0  0  0  0  0  0  0  0  0
    0.8644   -0.2927   -0.0870 C   0  0  0  0  0  0  0  0  0  0  0  0
    2.1404   -0.7344   -0.4173 N   0  0  0  0  0  0  0  0  0  0  0  0
    3.2020   -0.0667    0.3071 C   0  0  0  0  0  0  0  0  0  0  0  0
    4.5131   -0.7481   -0.0019 C   0  0  0  0  0  0  0  0  0  0  0  0
    5.0528   -0.6977   -1.2917 C   0  0  0  0  0  0  0  0  0  0  0  0
    6.2554   -1.3405   -1.5360 C   0  0  0  0  0  0  0  0  0  0  0  0
    6.9479   -2.0191   -0.5965 N   0  0  0  0  0  0  0  0  0  0  0  0
    6.4100   -2.0595    0.6408 C   0  0  0  0  0  0  0  0  0  0  0  0
    5.2123   -1.4507    0.9834 C   0  0  0  0  0  0  0  0  0  0  0  0
   -0.0808   -1.2176   -0.1025 N   0  0  0  0  0  0  0  0  0  0  0  0
   -1.3104   -0.8211    0.2065 C   0  0  0  0  0  0  0  0  0  0  0  0
   -2.3352   -1.7531    0.1874 N   0  0  0  0  0  0  0  0  0  0  0  0
   -2.0186   -3.1094   -0.2334 C   0  0  0  0  0  0  0  0  0  0  0  0
   -3.2398   -3.9473   -0.6178 C   0  0  0  0  0  0  0  0  0  0  0  0
   -4.1516   -3.2769   -1.6469 C   0  0  0  0  0  0  0  0  0  0  0  0
   -5.1931   -2.3478   -1.0226 C   0  0  0  0  0  0  0  0  0  0  0  0
   -4.6293   -1.1035   -0.3373 C   0  0  0  0  0  0  0  0  0  0  0  0
   -3.6229   -1.4145    0.7684 C   0  0  0  0  0  0  0  0  0  0  0  0
   -1.5927    0.4373    0.5261 N   0  0  0  0  0  0  0  0  0  0  0  0
   -0.9033    4.9542    1.4144 C   0  0  0  0  0  0  0  0  0  0  0  0
   -0.2691    6.1983    1.4851 C   0  0  0  0  0  0  0  0  0  0  0  0
    1.5328    7.3038    1.0758 H   0  0  0  0  0  0  0  0  0  0  0  0
    2.7200    5.3377    0.1351 H   0  0  0  0  0  0  0  0  0  0  0  0
    1.6139    3.1619    0.0062 H   0  0  0  0  0  0  0  0  0  0  0  0
   -1.9304    2.6438    1.0487 H   0  0  0  0  0  0  0  0  0  0  0  0
    2.1291   -1.7441   -0.3238 H   0  0  0  0  0  0  0  0  0  0  0  0
    3.2846    0.9878    0.0136 H   0  0  0  0  0  0  0  0  0  0  0  0
    3.0170   -0.0965    1.3889 H   0  0  0  0  0  0  0  0  0  0  0  0
    4.5390   -0.1744   -2.0923 H   0  0  0  0  0  0  0  0  0  0  0  0
    6.7054   -1.3271   -2.5244 H   0  0  0  0  0  0  0  0  0  0  0  0
    6.9860   -2.6138    1.3764 H   0  0  0  0  0  0  0  0  0  0  0  0
    4.8394   -1.5272    1.9993 H   0  0  0  0  0  0  0  0  0  0  0  0
   -1.4764   -3.6248    0.5692 H   0  0  0  0  0  0  0  0  0  0  0  0
   -1.3579   -3.0911   -1.1105 H   0  0  0  0  0  0  0  0  0  0  0  0
   -2.8692   -4.8882   -1.0449 H   0  0  0  0  0  0  0  0  0  0  0  0
   -3.8123   -4.2294    0.2738 H   0  0  0  0  0  0  0  0  0  0  0  0
   -4.6956   -4.0658   -2.1816 H   0  0  0  0  0  0  0  0  0  0  0  0
   -3.5612   -2.7406   -2.3991 H   0  0  0  0  0  0  0  0  0  0  0  0
   -5.8841   -2.0218   -1.8099 H   0  0  0  0  0  0  0  0  0  0  0  0
   -5.7967   -2.9140   -0.3018 H   0  0  0  0  0  0  0  0  0  0  0  0
   -5.4711   -0.5542    0.1021 H   0  0  0  0  0  0  0  0  0  0  0  0
   -4.1807   -0.4416   -1.0885 H   0  0  0  0  0  0  0  0  0  0  0  0
   -3.9861   -2.2307    1.4048 H   0  0  0  0  0  0  0  0  0  0  0  0
   -3.5567   -0.5510    1.4418 H   0  0  0  0  0  0  0  0  0  0  0  0
   -1.9200    4.8703    1.7910 H   0  0  0  0  0  0  0  0  0  0  0  0
   -0.7946    7.0528    1.9029 H   0  0  0  0  0  0  0  0  0  0  0  0
  1  2  2  0
  2  3  1  0
  3  4  2  0
  4  5  1  0
  5  6  1  0
  6  7  2  0
  7  8  1  0
  8  9  1  0
  9 10  1  0
 10 11  1  0
 11 12  2  0
 12 13  1  0
 13 14  2  0
 14 15  1  0
 15 16  2  0
  8 17  2  0
 17 18  1  0
 18 19  1  0
 19 20  1  0
 20 21  1  0
 21 22  1  0
 22 23  1  0
 23 24  1  0
 24 25  1  0
 18 26  2  0
  4 27  1  0
 27 28  2  0
 28  1  1  0
 26  6  1  0
 16 11  1  0
 25 19  1  0
  1 29  1  0
  2 30  1  0
  3 31  1  0
  5 32  1  0
  9 33  1  0
 10 34  1  0
 10 35  1  0
 12 36  1  0
 13 37  1  0
 15 38  1  0
 16 39  1  0
 20 40  1  0
 20 41  1  0
 21 42  1  0
 21 43  1  0
 22 44  1  0
 22 45  1  0
 23 46  1  0
 23 47  1  0
 24 48  1  0
 24 49  1  0
 25 50  1  0
 25 51  1  0
 27 52  1  0
 28 53  1  0
M  END
>  <ScrubInfo>  (1) 
{"isomerGroup": 0, "isomerId": 0, "confId": 0, "nr_conformers:": 1, "nr_isomers:": 9}

$$$$
_i1
     RDKit          3D

 53 56  0  0  0  0  0  0  0  0999 V2000
    1.5511    1.0394   -0.5584 N   0  0  0  0  0  0  0  0  0  0  0  0
    1.6254   -0.2480   -0.1828 C   0  0  0  0  0  0  0  0  0  0  0  0
    2.8053   -0.9009   -0.3775 N   0  0  0  0  0  0  0  0  0  0  0  0
    4.0868   -0.3075   -0.0458 C   0  0  0  0  0  0  0  0  0  0  0  0
    5.1816   -1.3202   -0.2581 C   0  0  0  0  0  0  0  0  0  0  0  0
    5.5146   -1.7495   -1.5474 C   0  0  0  0  0  0  0  0  0  0  0  0
    6.5220   -2.6891   -1.6965 C   0  0  0  0  0  0  0  0  0  0  0  0
    7.2091   -3.2214   -0.6641 N   0  0  0  0  0  0  0  0  0  0  0  0
    6.8704   -2.8004    0.5724 C   0  0  0  0  0  0  0  0  0  0  0  0
    5.8769   -1.8667    0.8245 C   0  0  0  0  0  0  0  0  0  0  0  0
    0.6095   -0.8582    0.3384 N   0  0  0  0  0  0  0  0  0  0  0  0
   -0.5504   -0.1247    0.5152 C   0  0  0  0  0  0  0  0  0  0  0  0
   -1.6249   -0.7622    1.1191 N   0  0  0  0  0  0  0  0  0  0  0  0
   -1.5875   -2.2112    1.3440 C   0  0  0  0  0  0  0  0  0  0  0  0
   -2.9438   -2.8526    1.6444 C   0  0  0  0  0  0  0  0  0  0  0  0
   -3.9766   -2.7736    0.5142 C   0  0  0  0  0  0  0  0  0  0  0  0
   -3.8762   -1.5778   -0.4309 C   0  0  0  0  0  0  0  0  0  0  0  0
   -3.8655   -0.2045    0.2404 C   0  0  0  0  0  0  0  0  0  0  0  0
   -2.8645   -0.0370    1.3817 C   0  0  0  0  0  0  0  0  0  0  0  0
   -0.6683    1.1195    0.1435 N   0  0  0  0  0  0  0  0  0  0  0  0
    0.3901    1.7243   -0.4647 C   0  0  0  0  0  0  0  0  0  0  0  0
    0.3033    2.9240   -0.9628 N   0  0  0  0  0  0  0  0  0  0  0  0
   -0.9193    3.6055   -0.8628 C   0  0  0  0  0  0  0  0  0  0  0  0
   -1.9012    3.4509   -1.8458 C   0  0  0  0  0  0  0  0  0  0  0  0
   -3.1068    4.1506   -1.7598 C   0  0  0  0  0  0  0  0  0  0  0  0
   -3.3318    5.0203   -0.6933 C   0  0  0  0  0  0  0  0  0  0  0  0
   -2.3516    5.1924    0.2834 C   0  0  0  0  0  0  0  0  0  0  0  0
   -1.1476    4.4904    0.1943 C   0  0  0  0  0  0  0  0  0  0  0  0
    2.2409    1.4436   -1.1659 H   0  0  0  0  0  0  0  0  0  0  0  0
    2.7274   -1.8499   -0.0172 H   0  0  0  0  0  0  0  0  0  0  0  0
    4.0808    0.0343    0.9962 H   0  0  0  0  0  0  0  0  0  0  0  0
    4.2885    0.5679   -0.6741 H   0  0  0  0  0  0  0  0  0  0  0  0
    4.9941   -1.3672   -2.4199 H   0  0  0  0  0  0  0  0  0  0  0  0
    6.8096   -3.0504   -2.6798 H   0  0  0  0  0  0  0  0  0  0  0  0
    7.4363   -3.2489    1.3842 H   0  0  0  0  0  0  0  0  0  0  0  0
    5.6561   -1.5786    1.8471 H   0  0  0  0  0  0  0  0  0  0  0  0
   -1.1636   -2.7152    0.4662 H   0  0  0  0  0  0  0  0  0  0  0  0
   -0.9149   -2.4109    2.1869 H   0  0  0  0  0  0  0  0  0  0  0  0
   -3.3710   -2.4306    2.5612 H   0  0  0  0  0  0  0  0  0  0  0  0
   -2.7812   -3.9129    1.8787 H   0  0  0  0  0  0  0  0  0  0  0  0
   -3.8893   -3.6827   -0.0948 H   0  0  0  0  0  0  0  0  0  0  0  0
   -4.9803   -2.8062    0.9559 H   0  0  0  0  0  0  0  0  0  0  0  0
   -2.9770   -1.6841   -1.0513 H   0  0  0  0  0  0  0  0  0  0  0  0
   -4.7185   -1.6149   -1.1331 H   0  0  0  0  0  0  0  0  0  0  0  0
   -3.6483    0.5430   -0.5334 H   0  0  0  0  0  0  0  0  0  0  0  0
   -4.8688    0.0307    0.6157 H   0  0  0  0  0  0  0  0  0  0  0  0
   -3.3076   -0.3659    2.3277 H   0  0  0  0  0  0  0  0  0  0  0  0
   -2.6799    1.0323    1.5455 H   0  0  0  0  0  0  0  0  0  0  0  0
   -1.7242    2.7744   -2.6765 H   0  0  0  0  0  0  0  0  0  0  0  0
   -3.8661    4.0166   -2.5250 H   0  0  0  0  0  0  0  0  0  0  0  0
   -4.2690    5.5661   -0.6253 H   0  0  0  0  0  0  0  0  0  0  0  0
   -2.5214    5.8725    1.1133 H   0  0  0  0  0  0  0  0  0  0  0  0
   -0.3825    4.6254    0.9528 H   0  0  0  0  0  0  0  0  0  0  0  0
  1  2  1  0
  2  3  1  0
  3  4  1  0
  4  5  1  0
  5  6  2  0
  6  7  1  0
  7  8  2  0
  8  9  1  0
  9 10  2  0
  2 11  2  0
 11 12  1  0
 12 13  1  0
 13 14  1  0
 14 15  1  0
 15 16  1  0
 16 17  1  0
 17 18  1  0
 18 19  1  0
 12 20  2  0
 20 21  1  0
 21 22  2  3
 22 23  1  0
 23 24  2  0
 24 25  1  0
 25 26  2  0
 26 27  1  0
 27 28  2  0
 21  1  1  0
 28 23  1  0
 10  5  1  0
 19 13  1  0
  1 29  1  0
  3 30  1  0
  4 31  1  0
  4 32  1  0
  6 33  1  0
  7 34  1  0
  9 35  1  0
 10 36  1  0
 14 37  1  0
 14 38  1  0
 15 39  1  0
 15 40  1  0
 16 41  1  0
 16 42  1  0
 17 43  1  0
 17 44  1  0
 18 45  1  0
 18 46  1  0
 19 47  1  0
 19 48  1  0
 24 49  1  0
 25 50  1  0
 26 51  1  0
 27 52  1  0
 28 53  1  0
M  END
>  <ScrubInfo>  (2) 
{"isomerGroup": 0, "isomerId": 1, "confId": 0, "nr_conformers:": 1, "nr_isomers:": 9}

$$$$
_i2
     RDKit          3D

 53 56  0  0  0  0  0  0  0  0999 V2000
    0.3557    1.7634   -0.1088 N   0  0  0  0  0  0  0  0  0  0  0  0
   -0.8157    1.7003    0.5505 C   0  0  0  0  0  0  0  0  0  0  0  0
   -1.4173    2.8732    0.9039 N   0  0  0  0  0  0  0  0  0  0  0  0
   -1.5492    4.0463    0.1311 C   0  0  0  0  0  0  0  0  0  0  0  0
   -1.2982    4.1005   -1.2455 C   0  0  0  0  0  0  0  0  0  0  0  0
   -1.4200    5.3023   -1.9499 C   0  0  0  0  0  0  0  0  0  0  0  0
   -1.7914    6.4682   -1.2857 C   0  0  0  0  0  0  0  0  0  0  0  0
   -2.0446    6.4331    0.0823 C   0  0  0  0  0  0  0  0  0  0  0  0
   -1.9238    5.2307    0.7835 C   0  0  0  0  0  0  0  0  0  0  0  0
   -1.3154    0.5555    0.9021 N   0  0  0  0  0  0  0  0  0  0  0  0
   -0.6308   -0.5855    0.5273 C   0  0  0  0  0  0  0  0  0  0  0  0
   -1.2073   -1.8105    0.8408 N   0  0  0  0  0  0  0  0  0  0  0  0
   -2.5268   -1.8737    1.4648 C   0  0  0  0  0  0  0  0  0  0  0  0
   -3.3075   -3.1602    1.1912 C   0  0  0  0  0  0  0  0  0  0  0  0
   -3.3752   -3.5441   -0.2875 C   0  0  0  0  0  0  0  0  0  0  0  0
   -2.1792   -4.3774   -0.7485 C   0  0  0  0  0  0  0  0  0  0  0  0
   -0.8360   -3.6494   -0.7325 C   0  0  0  0  0  0  0  0  0  0  0  0
   -0.4757   -3.0549    0.6263 C   0  0  0  0  0  0  0  0  0  0  0  0
    0.5156   -0.5546   -0.0969 N   0  0  0  0  0  0  0  0  0  0  0  0
    1.0610    0.6544   -0.4047 C   0  0  0  0  0  0  0  0  0  0  0  0
    2.2212    0.7578   -0.9582 N   0  0  0  0  0  0  0  0  0  0  0  0
    2.9687   -0.4616   -1.2517 C   0  0  0  0  0  0  0  0  0  0  0  0
    4.0839   -0.6760   -0.2600 C   0  0  0  0  0  0  0  0  0  0  0  0
    3.8487   -1.3527    0.9392 C   0  0  0  0  0  0  0  0  0  0  0  0
    4.8973   -1.5083    1.8319 C   0  0  0  0  0  0  0  0  0  0  0  0
    6.1455   -1.0393    1.6176 N   0  0  0  0  0  0  0  0  0  0  0  0
    6.3456   -0.3711    0.4611 C   0  0  0  0  0  0  0  0  0  0  0  0
    5.3619   -0.1630   -0.4934 C   0  0  0  0  0  0  0  0  0  0  0  0
    0.8253    2.6452   -0.2302 H   0  0  0  0  0  0  0  0  0  0  0  0
   -2.2320    2.7234    1.4911 H   0  0  0  0  0  0  0  0  0  0  0  0
   -1.0364    3.2055   -1.8044 H   0  0  0  0  0  0  0  0  0  0  0  0
   -1.2299    5.3240   -3.0203 H   0  0  0  0  0  0  0  0  0  0  0  0
   -1.8852    7.4020   -1.8343 H   0  0  0  0  0  0  0  0  0  0  0  0
   -2.3320    7.3411    0.6062 H   0  0  0  0  0  0  0  0  0  0  0  0
   -2.1115    5.2278    1.8550 H   0  0  0  0  0  0  0  0  0  0  0  0
   -2.4163   -1.7435    2.5478 H   0  0  0  0  0  0  0  0  0  0  0  0
   -3.1510   -1.0452    1.1074 H   0  0  0  0  0  0  0  0  0  0  0  0
   -4.3310   -3.0049    1.5564 H   0  0  0  0  0  0  0  0  0  0  0  0
   -2.9055   -3.9907    1.7836 H   0  0  0  0  0  0  0  0  0  0  0  0
   -4.2761   -4.1519   -0.4393 H   0  0  0  0  0  0  0  0  0  0  0  0
   -3.4893   -2.6538   -0.9169 H   0  0  0  0  0  0  0  0  0  0  0  0
   -2.3696   -4.7252   -1.7713 H   0  0  0  0  0  0  0  0  0  0  0  0
   -2.1070   -5.2794   -0.1277 H   0  0  0  0  0  0  0  0  0  0  0  0
   -0.8337   -2.8701   -1.5046 H   0  0  0  0  0  0  0  0  0  0  0  0
   -0.0602   -4.3718   -1.0147 H   0  0  0  0  0  0  0  0  0  0  0  0
    0.6057   -2.8778    0.6628 H   0  0  0  0  0  0  0  0  0  0  0  0
   -0.6665   -3.7705    1.4348 H   0  0  0  0  0  0  0  0  0  0  0  0
    3.4009   -0.3559   -2.2551 H   0  0  0  0  0  0  0  0  0  0  0  0
    2.3531   -1.3672   -1.3202 H   0  0  0  0  0  0  0  0  0  0  0  0
    2.8646   -1.7416    1.1775 H   0  0  0  0  0  0  0  0  0  0  0  0
    4.7540   -2.0280    2.7746 H   0  0  0  0  0  0  0  0  0  0  0  0
    7.3520    0.0104    0.3162 H   0  0  0  0  0  0  0  0  0  0  0  0
    5.5862    0.3946   -1.3962 H   0  0  0  0  0  0  0  0  0  0  0  0
  1  2  1  0
  2  3  1  0
  3  4  1  0
  4  5  2  0
  5  6  1  0
  6  7  2  0
  7  8  1  0
  8  9  2  0
  2 10  2  0
 10 11  1  0
 11 12  1  0
 12 13  1  0
 13 14  1  0
 14 15  1  0
 15 16  1  0
 16 17  1  0
 17 18  1  0
 11 19  2  0
 19 20  1  0
 20 21  2  3
 21 22  1  0
 22 23  1  0
 23 24  2  0
 24 25  1  0
 25 26  2  0
 26 27  1  0
 27 28  2  0
 20  1  1  0
 28 23  1  0
  9  4  1  0
 18 12  1  0
  1 29  1  0
  3 30  1  0
  5 31  1  0
  6 32  1  0
  7 33  1  0
  8 34  1  0
  9 35  1  0
 13 36  1  0
 13 37  1  0
 14 38  1  0
 14 39  1  0
 15 40  1  0
 15 41  1  0
 16 42  1  0
 16 43  1  0
 17 44  1  0
 17 45  1  0
 18 46  1  0
 18 47  1  0
 22 48  1  0
 22 49  1  0
 24 50  1  0
 25 51  1  0
 27 52  1  0
 28 53  1  0
M  END
>  <ScrubInfo>  (3) 
{"isomerGroup": 0, "isomerId": 2, "confId": 0, "nr_conformers:": 1, "nr_isomers:": 9}

$$$$
_i3
     RDKit          3D

 53 56  0  0  0  0  0  0  0  0999 V2000
   -0.5524    0.6328   -0.1393 N   0  0  0  0  0  0  0  0  0  0  0  0
    0.0078   -0.5911   -0.0350 C   0  0  0  0  0  0  0  0  0  0  0  0
   -0.8372   -1.6488   -0.3247 N   0  0  0  0  0  0  0  0  0  0  0  0
   -0.2061   -2.9322   -0.6765 C   0  0  0  0  0  0  0  0  0  0  0  0
   -1.0569   -3.7537   -1.6474 C   0  0  0  0  0  0  0  0  0  0  0  0
   -2.2802   -4.3855   -0.9905 C   0  0  0  0  0  0  0  0  0  0  0  0
   -3.5031   -3.4755   -0.8958 C   0  0  0  0  0  0  0  0  0  0  0  0
   -3.2542   -2.0080   -0.5510 C   0  0  0  0  0  0  0  0  0  0  0  0
   -2.1034   -1.7698    0.4193 C   0  0  0  0  0  0  0  0  0  0  0  0
    1.2571   -0.7183    0.2779 N   0  0  0  0  0  0  0  0  0  0  0  0
    1.9750    0.4279    0.5312 C   0  0  0  0  0  0  0  0  0  0  0  0
    3.2913    0.3884    0.9030 N   0  0  0  0  0  0  0  0  0  0  0  0
    4.1400   -0.6687    1.2593 C   0  0  0  0  0  0  0  0  0  0  0  0
    5.5052   -0.3870    1.4476 C   0  0  0  0  0  0  0  0  0  0  0  0
    6.4219   -1.3903    1.7767 C   0  0  0  0  0  0  0  0  0  0  0  0
    5.9906   -2.7042    1.9175 C   0  0  0  0  0  0  0  0  0  0  0  0
    4.6468   -3.0089    1.7261 C   0  0  0  0  0  0  0  0  0  0  0  0
    3.7340   -1.9996    1.3957 C   0  0  0  0  0  0  0  0  0  0  0  0
    1.4733    1.6303    0.4212 N   0  0  0  0  0  0  0  0  0  0  0  0
    0.1724    1.7634    0.0372 C   0  0  0  0  0  0  0  0  0  0  0  0
   -0.2062    2.9812   -0.1170 N   0  0  0  0  0  0  0  0  0  0  0  0
   -1.5845    3.2413   -0.5154 C   0  0  0  0  0  0  0  0  0  0  0  0
   -1.9190    4.7141   -0.5379 C   0  0  0  0  0  0  0  0  0  0  0  0
   -2.9223    5.1969   -1.3841 C   0  0  0  0  0  0  0  0  0  0  0  0
   -3.2337    6.5483   -1.3485 C   0  0  0  0  0  0  0  0  0  0  0  0
   -2.6318    7.4389   -0.5331 N   0  0  0  0  0  0  0  0  0  0  0  0
   -1.6702    6.9534    0.2813 C   0  0  0  0  0  0  0  0  0  0  0  0
   -1.2902    5.6210    0.3202 C   0  0  0  0  0  0  0  0  0  0  0  0
   -1.4429    0.6913   -0.5959 H   0  0  0  0  0  0  0  0  0  0  0  0
    0.0240   -3.5037    0.2311 H   0  0  0  0  0  0  0  0  0  0  0  0
    0.7489   -2.7431   -1.1836 H   0  0  0  0  0  0  0  0  0  0  0  0
   -0.4254   -4.5685   -2.0241 H   0  0  0  0  0  0  0  0  0  0  0  0
   -1.3489   -3.1542   -2.5177 H   0  0  0  0  0  0  0  0  0  0  0  0
   -2.0168   -4.7541    0.0087 H   0  0  0  0  0  0  0  0  0  0  0  0
   -2.5714   -5.2732   -1.5664 H   0  0  0  0  0  0  0  0  0  0  0  0
   -4.0502   -3.5112   -1.8467 H   0  0  0  0  0  0  0  0  0  0  0  0
   -4.1836   -3.9052   -0.1493 H   0  0  0  0  0  0  0  0  0  0  0  0
   -3.0882   -1.4402   -1.4757 H   0  0  0  0  0  0  0  0  0  0  0  0
   -4.1785   -1.6091   -0.1142 H   0  0  0  0  0  0  0  0  0  0  0  0
   -2.0396   -2.5546    1.1826 H   0  0  0  0  0  0  0  0  0  0  0  0
   -2.3112   -0.8420    0.9665 H   0  0  0  0  0  0  0  0  0  0  0  0
    3.6771    1.3150    1.0174 H   0  0  0  0  0  0  0  0  0  0  0  0
    5.8733    0.6304    1.3340 H   0  0  0  0  0  0  0  0  0  0  0  0
    7.4705   -1.1423    1.9182 H   0  0  0  0  0  0  0  0  0  0  0  0
    6.6980   -3.4883    2.1725 H   0  0  0  0  0  0  0  0  0  0  0  0
    4.3007   -4.0336    1.8322 H   0  0  0  0  0  0  0  0  0  0  0  0
    2.6959   -2.2846    1.2627 H   0  0  0  0  0  0  0  0  0  0  0  0
   -2.2843    2.7581    0.1783 H   0  0  0  0  0  0  0  0  0  0  0  0
   -1.7501    2.8312   -1.5197 H   0  0  0  0  0  0  0  0  0  0  0  0
   -3.4539    4.5399   -2.0636 H   0  0  0  0  0  0  0  0  0  0  0  0
   -4.0024    6.9616   -1.9950 H   0  0  0  0  0  0  0  0  0  0  0  0
   -1.1955    7.6861    0.9273 H   0  0  0  0  0  0  0  0  0  0  0  0
   -0.5096    5.2980    1.0023 H   0  0  0  0  0  0  0  0  0  0  0  0
  1  2  1  0
  2  3  1  0
  3  4  1  0
  4  5  1  0
  5  6  1  0
  6  7  1  0
  7  8  1  0
  8  9  1  0
  2 10  2  0
 10 11  1  0
 11 12  1  0
 12 13  1  0
 13 14  2  0
 14 15  1  0
 15 16  2  0
 16 17  1  0
 17 18  2  0
 11 19  2  0
 19 20  1  0
 20 21  2  3
 21 22  1  0
 22 23  1  0
 23 24  2  0
 24 25  1  0
 25 26  2  0
 26 27  1  0
 27 28  2  0
 20  1  1  0
 28 23  1  0
  9  3  1  0
 18 13  1  0
  1 29  1  0
  4 30  1  0
  4 31  1  0
  5 32  1  0
  5 33  1  0
  6 34  1  0
  6 35  1  0
  7 36  1  0
  7 37  1  0
  8 38  1  0
  8 39  1  0
  9 40  1  0
  9 41  1  0
 12 42  1  0
 14 43  1  0
 15 44  1  0
 16 45  1  0
 17 46  1  0
 18 47  1  0
 22 48  1  0
 22 49  1  0
 24 50  1  0
 25 51  1  0
 27 52  1  0
 28 53  1  0
M  END
>  <ScrubInfo>  (4) 
{"isomerGroup": 0, "isomerId": 3, "confId": 0, "nr_conformers:": 1, "nr_isomers:": 9}

$$$$
_i4
     RDKit          3D

 53 56  0  0  0  0  0  0  0  0999 V2000
   -1.7364    0.3477    1.1569 N   0  0  0  0  0  0  0  0  0  0  0  0
   -1.1960   -0.8741    0.9637 C   0  0  0  0  0  0  0  0  0  0  0  0
   -1.9463   -1.9775    1.3374 N   0  0  0  0  0  0  0  0  0  0  0  0
   -1.2824   -3.2826    1.4273 C   0  0  0  0  0  0  0  0  0  0  0  0
   -1.3962   -4.0365    0.1049 C   0  0  0  0  0  0  0  0  0  0  0  0
   -2.7456   -4.7218   -0.0979 C   0  0  0  0  0  0  0  0  0  0  0  0
   -3.9576   -3.7961   -0.0116 C   0  0  0  0  0  0  0  0  0  0  0  0
   -4.1623   -3.2028    1.3820 C   0  0  0  0  0  0  0  0  0  0  0  0
   -3.3791   -1.9137    1.6291 C   0  0  0  0  0  0  0  0  0  0  0  0
   -0.0061   -0.9704    0.4452 N   0  0  0  0  0  0  0  0  0  0  0  0
    0.6427    0.1910    0.1072 C   0  0  0  0  0  0  0  0  0  0  0  0
    1.8713    0.0122   -0.4576 N   0  0  0  0  0  0  0  0  0  0  0  0
    2.4996    1.0455   -1.2437 C   0  0  0  0  0  0  0  0  0  0  0  0
    3.8413    0.5582   -1.7279 C   0  0  0  0  0  0  0  0  0  0  0  0
    4.9182    0.4486   -0.8422 C   0  0  0  0  0  0  0  0  0  0  0  0
    6.1299   -0.0202   -1.3231 C   0  0  0  0  0  0  0  0  0  0  0  0
    6.3379   -0.3843   -2.6065 N   0  0  0  0  0  0  0  0  0  0  0  0
    5.2850   -0.2779   -3.4445 C   0  0  0  0  0  0  0  0  0  0  0  0
    4.0337    0.1780   -3.0590 C   0  0  0  0  0  0  0  0  0  0  0  0
    0.1613    1.3836    0.2844 N   0  0  0  0  0  0  0  0  0  0  0  0
   -1.0683    1.4852    0.8638 C   0  0  0  0  0  0  0  0  0  0  0  0
   -1.6026    2.6387    1.1452 N   0  0  0  0  0  0  0  0  0  0  0  0
   -0.8898    3.8063    0.8342 C   0  0  0  0  0  0  0  0  0  0  0  0
    0.0277    4.3433    1.7418 C   0  0  0  0  0  0  0  0  0  0  0  0
    0.7126    5.5230    1.4428 C   0  0  0  0  0  0  0  0  0  0  0  0
    0.4735    6.1799    0.2362 C   0  0  0  0  0  0  0  0  0  0  0  0
   -0.4518    5.6600   -0.6681 C   0  0  0  0  0  0  0  0  0  0  0  0
   -1.1343    4.4797   -0.3658 C   0  0  0  0  0  0  0  0  0  0  0  0
   -2.5708    0.4758    1.6977 H   0  0  0  0  0  0  0  0  0  0  0  0
   -0.2210   -3.1470    1.6705 H   0  0  0  0  0  0  0  0  0  0  0  0
   -1.6842   -3.8728    2.2592 H   0  0  0  0  0  0  0  0  0  0  0  0
   -0.6210   -4.8123    0.0786 H   0  0  0  0  0  0  0  0  0  0  0  0
   -1.1968   -3.3664   -0.7401 H   0  0  0  0  0  0  0  0  0  0  0  0
   -2.7430   -5.2034   -1.0835 H   0  0  0  0  0  0  0  0  0  0  0  0
   -2.8539   -5.5297    0.6368 H   0  0  0  0  0  0  0  0  0  0  0  0
   -4.8445   -4.3922   -0.2612 H   0  0  0  0  0  0  0  0  0  0  0  0
   -3.8910   -3.0041   -0.7667 H   0  0  0  0  0  0  0  0  0  0  0  0
   -5.2272   -2.9636    1.5009 H   0  0  0  0  0  0  0  0  0  0  0  0
   -3.9398   -3.9487    2.1540 H   0  0  0  0  0  0  0  0  0  0  0  0
   -3.5137   -1.6089    2.6736 H   0  0  0  0  0  0  0  0  0  0  0  0
   -3.8445   -1.1383    1.0076 H   0  0  0  0  0  0  0  0  0  0  0  0
    2.0114   -0.9368   -0.7781 H   0  0  0  0  0  0  0  0  0  0  0  0
    1.8645    1.3110   -2.0975 H   0  0  0  0  0  0  0  0  0  0  0  0
    2.6441    1.9576   -0.6515 H   0  0  0  0  0  0  0  0  0  0  0  0
    4.8116    0.7171    0.2044 H   0  0  0  0  0  0  0  0  0  0  0  0
    6.9903   -0.1203   -0.6677 H   0  0  0  0  0  0  0  0  0  0  0  0
    5.4784   -0.5805   -4.4697 H   0  0  0  0  0  0  0  0  0  0  0  0
    3.2302    0.2330   -3.7861 H   0  0  0  0  0  0  0  0  0  0  0  0
    0.2110    3.8324    2.6823 H   0  0  0  0  0  0  0  0  0  0  0  0
    1.4292    5.9274    2.1521 H   0  0  0  0  0  0  0  0  0  0  0  0
    1.0050    7.0987    0.0029 H   0  0  0  0  0  0  0  0  0  0  0  0
   -0.6453    6.1724   -1.6063 H   0  0  0  0  0  0  0  0  0  0  0  0
   -1.8592    4.0764   -1.0666 H   0  0  0  0  0  0  0  0  0  0  0  0
  1  2  1  0
  2  3  1  0
  3  4  1  0
  4  5  1  0
  5  6  1  0
  6  7  1  0
  7  8  1  0
  8  9  1  0
  2 10  2  0
 10 11  1  0
 11 12  1  0
 12 13  1  0
 13 14  1  0
 14 15  2  0
 15 16  1  0
 16 17  2  0
 17 18  1  0
 18 19  2  0
 11 20  2  0
 20 21  1  0
 21 22  2  3
 22 23  1  0
 23 24  2  0
 24 25  1  0
 25 26  2  0
 26 27  1  0
 27 28  2  0
 21  1  1  0
 28 23  1  0
  9  3  1  0
 19 14  1  0
  1 29  1  0
  4 30  1  0
  4 31  1  0
  5 32  1  0
  5 33  1  0
  6 34  1  0
  6 35  1  0
  7 36  1  0
  7 37  1  0
  8 38  1  0
  8 39  1  0
  9 40  1  0
  9 41  1  0
 12 42  1  0
 13 43  1  0
 13 44  1  0
 15 45  1  0
 16 46  1  0
 18 47  1  0
 19 48  1  0
 24 49  1  0
 25 50  1  0
 26 51  1  0
 27 52  1  0
 28 53  1  0
M  END
>  <ScrubInfo>  (5) 
{"isomerGroup": 0, "isomerId": 4, "confId": 0, "nr_conformers:": 1, "nr_isomers:": 9}

$$$$
_i5
     RDKit          3D

 53 56  0  0  0  0  0  0  0  0999 V2000
    0.3153   -0.6284   -0.6737 N   0  0  0  0  0  0  0  0  0  0  0  0
   -0.7759    0.1676   -0.5732 C   0  0  0  0  0  0  0  0  0  0  0  0
   -1.9868   -0.4261   -0.7769 N   0  0  0  0  0  0  0  0  0  0  0  0
   -2.3621   -1.6296   -0.0549 C   0  0  0  0  0  0  0  0  0  0  0  0
   -3.7820   -2.0008   -0.3929 C   0  0  0  0  0  0  0  0  0  0  0  0
   -4.1204   -2.4304   -1.6806 C   0  0  0  0  0  0  0  0  0  0  0  0
   -5.4399   -2.7587   -1.9477 C   0  0  0  0  0  0  0  0  0  0  0  0
   -6.4291   -2.6905   -1.0324 N   0  0  0  0  0  0  0  0  0  0  0  0
   -6.0865   -2.2652    0.2016 C   0  0  0  0  0  0  0  0  0  0  0  0
   -4.7960   -1.9127    0.5655 C   0  0  0  0  0  0  0  0  0  0  0  0
   -0.6929    1.4287   -0.3103 N   0  0  0  0  0  0  0  0  0  0  0  0
    0.5957    1.8969   -0.1455 C   0  0  0  0  0  0  0  0  0  0  0  0
    0.8088    3.1314    0.1911 N   0  0  0  0  0  0  0  0  0  0  0  0
   -0.2816    3.9882    0.3885 C   0  0  0  0  0  0  0  0  0  0  0  0
   -0.7946    4.1886    1.6731 C   0  0  0  0  0  0  0  0  0  0  0  0
   -1.8591    5.0680    1.8826 C   0  0  0  0  0  0  0  0  0  0  0  0
   -2.4098    5.7628    0.8062 C   0  0  0  0  0  0  0  0  0  0  0  0
   -1.8929    5.5828   -0.4764 C   0  0  0  0  0  0  0  0  0  0  0  0
   -0.8278    4.7030   -0.6815 C   0  0  0  0  0  0  0  0  0  0  0  0
    1.7398    1.1487   -0.3130 N   0  0  0  0  0  0  0  0  0  0  0  0
    1.5708   -0.1130   -0.5702 C   0  0  0  0  0  0  0  0  0  0  0  0
    2.6244   -0.9928   -0.7705 N   0  0  0  0  0  0  0  0  0  0  0  0
    2.5468   -2.4295   -0.5077 C   0  0  0  0  0  0  0  0  0  0  0  0
    3.0087   -2.7791    0.9080 C   0  0  0  0  0  0  0  0  0  0  0  0
    4.5298   -2.7637    1.0465 C   0  0  0  0  0  0  0  0  0  0  0  0
    5.1650   -1.3937    1.2783 C   0  0  0  0  0  0  0  0  0  0  0  0
    4.5312   -0.1856    0.5894 C   0  0  0  0  0  0  0  0  0  0  0  0
    3.9937   -0.4472   -0.8159 C   0  0  0  0  0  0  0  0  0  0  0  0
    0.2129   -1.4041   -1.3058 H   0  0  0  0  0  0  0  0  0  0  0  0
   -2.7116    0.2859   -0.6854 H   0  0  0  0  0  0  0  0  0  0  0  0
   -2.2570   -1.4640    1.0241 H   0  0  0  0  0  0  0  0  0  0  0  0
   -1.7049   -2.4663   -0.3205 H   0  0  0  0  0  0  0  0  0  0  0  0
   -3.3744   -2.4986   -2.4658 H   0  0  0  0  0  0  0  0  0  0  0  0
   -5.7453   -3.0929   -2.9352 H   0  0  0  0  0  0  0  0  0  0  0  0
   -6.9040   -2.2117    0.9153 H   0  0  0  0  0  0  0  0  0  0  0  0
   -4.5959   -1.5749    1.5772 H   0  0  0  0  0  0  0  0  0  0  0  0
   -0.3561    3.6542    2.5107 H   0  0  0  0  0  0  0  0  0  0  0  0
   -2.2519    5.2132    2.8848 H   0  0  0  0  0  0  0  0  0  0  0  0
   -3.2363    6.4495    0.9675 H   0  0  0  0  0  0  0  0  0  0  0  0
   -2.3128    6.1286   -1.3165 H   0  0  0  0  0  0  0  0  0  0  0  0
   -0.4174    4.5674   -1.6778 H   0  0  0  0  0  0  0  0  0  0  0  0
    1.5268   -2.8048   -0.6377 H   0  0  0  0  0  0  0  0  0  0  0  0
    3.1455   -2.9696   -1.2517 H   0  0  0  0  0  0  0  0  0  0  0  0
    2.6695   -3.8010    1.1201 H   0  0  0  0  0  0  0  0  0  0  0  0
    2.5398   -2.1287    1.6555 H   0  0  0  0  0  0  0  0  0  0  0  0
    4.9839   -3.2267    0.1612 H   0  0  0  0  0  0  0  0  0  0  0  0
    4.8118   -3.4067    1.8901 H   0  0  0  0  0  0  0  0  0  0  0  0
    5.1824   -1.1911    2.3572 H   0  0  0  0  0  0  0  0  0  0  0  0
    6.2190   -1.4588    0.9784 H   0  0  0  0  0  0  0  0  0  0  0  0
    3.7416    0.2127    1.2378 H   0  0  0  0  0  0  0  0  0  0  0  0
    5.2953    0.6000    0.5322 H   0  0  0  0  0  0  0  0  0  0  0  0
    3.9890    0.4905   -1.3856 H   0  0  0  0  0  0  0  0  0  0  0  0
    4.6580   -1.1217   -1.3699 H   0  0  0  0  0  0  0  0  0  0  0  0
  1  2  1  0
  2  3  1  0
  3  4  1  0
  4  5  1  0
  5  6  2  0
  6  7  1  0
  7  8  2  0
  8  9  1  0
  9 10  2  0
  2 11  2  0
 11 12  1  0
 12 13  2  3
 13 14  1  0
 14 15  2  0
 15 16  1  0
 16 17  2  0
 17 18  1  0
 18 19  2  0
 12 20  1  0
 20 21  2  0
 21 22  1  0
 22 23  1  0
 23 24  1  0
 24 25  1  0
 25 26  1  0
 26 27  1  0
 27 28  1  0
 21  1  1  0
 28 22  1  0
 10  5  1  0
 19 14  1  0
  1 29  1  0
  3 30  1  0
  4 31  1  0
  4 32  1  0
  6 33  1  0
  7 34  1  0
  9 35  1  0
 10 36  1  0
 15 37  1  0
 16 38  1  0
 17 39  1  0
 18 40  1  0
 19 41  1  0
 23 42  1  0
 23 43  1  0
 24 44  1  0
 24 45  1  0
 25 46  1  0
 25 47  1  0
 26 48  1  0
 26 49  1  0
 27 50  1  0
 27 51  1  0
 28 52  1  0
 28 53  1  0
M  END
>  <ScrubInfo>  (6) 
{"isomerGroup": 0, "isomerId": 5, "confId": 0, "nr_conformers:": 1, "nr_isomers:": 9}

$$$$
_i6
     RDKit          3D

 53 56  0  0  0  0  0  0  0  0999 V2000
   -0.5318    0.2408   -1.1877 N   0  0  0  0  0  0  0  0  0  0  0  0
    0.5126    1.1057   -1.2331 C   0  0  0  0  0  0  0  0  0  0  0  0
    0.3634    2.2210   -2.0084 N   0  0  0  0  0  0  0  0  0  0  0  0
   -0.7765    3.0480   -2.1069 C   0  0  0  0  0  0  0  0  0  0  0  0
   -1.8344    3.0174   -1.1891 C   0  0  0  0  0  0  0  0  0  0  0  0
   -2.9483    3.8463   -1.3520 C   0  0  0  0  0  0  0  0  0  0  0  0
   -3.0196    4.7160   -2.4370 C   0  0  0  0  0  0  0  0  0  0  0  0
   -1.9753    4.7619   -3.3564 C   0  0  0  0  0  0  0  0  0  0  0  0
   -0.8620    3.9346   -3.1902 C   0  0  0  0  0  0  0  0  0  0  0  0
    1.6286    0.8537   -0.6229 N   0  0  0  0  0  0  0  0  0  0  0  0
    1.6417   -0.3319    0.0826 C   0  0  0  0  0  0  0  0  0  0  0  0
    2.6714   -0.6515    0.7848 N   0  0  0  0  0  0  0  0  0  0  0  0
    3.7873    0.2914    0.7943 C   0  0  0  0  0  0  0  0  0  0  0  0
    4.9329   -0.1738    1.6669 C   0  0  0  0  0  0  0  0  0  0  0  0
    6.2343    0.2701    1.4127 C   0  0  0  0  0  0  0  0  0  0  0  0
    7.2576   -0.1414    2.2540 C   0  0  0  0  0  0  0  0  0  0  0  0
    7.0779   -0.9456    3.3229 N   0  0  0  0  0  0  0  0  0  0  0  0
    5.8127   -1.3566    3.5572 C   0  0  0  0  0  0  0  0  0  0  0  0
    4.7250   -0.9984    2.7761 C   0  0  0  0  0  0  0  0  0  0  0  0
    0.6259   -1.2575    0.1152 N   0  0  0  0  0  0  0  0  0  0  0  0
   -0.4555   -0.9450   -0.5319 C   0  0  0  0  0  0  0  0  0  0  0  0
   -1.5678   -1.7676   -0.5949 N   0  0  0  0  0  0  0  0  0  0  0  0
   -1.4657   -3.1250   -0.0434 C   0  0  0  0  0  0  0  0  0  0  0  0
   -1.8444   -3.1711    1.4363 C   0  0  0  0  0  0  0  0  0  0  0  0
   -2.9534   -2.2123    1.8670 C   0  0  0  0  0  0  0  0  0  0  0  0
   -4.2332   -2.2735    1.0371 C   0  0  0  0  0  0  0  0  0  0  0  0
   -4.0759   -2.1409   -0.4806 C   0  0  0  0  0  0  0  0  0  0  0  0
   -2.9076   -1.2703   -0.9461 C   0  0  0  0  0  0  0  0  0  0  0  0
   -1.2254    0.3453   -1.9091 H   0  0  0  0  0  0  0  0  0  0  0  0
    1.2186    2.7679   -2.0596 H   0  0  0  0  0  0  0  0  0  0  0  0
   -1.7956    2.3769   -0.3113 H   0  0  0  0  0  0  0  0  0  0  0  0
   -3.7549    3.8203   -0.6234 H   0  0  0  0  0  0  0  0  0  0  0  0
   -3.8844    5.3629   -2.5617 H   0  0  0  0  0  0  0  0  0  0  0  0
   -2.0257    5.4412   -4.2038 H   0  0  0  0  0  0  0  0  0  0  0  0
   -0.0611    3.9780   -3.9253 H   0  0  0  0  0  0  0  0  0  0  0  0
    4.1678    0.4192   -0.2275 H   0  0  0  0  0  0  0  0  0  0  0  0
    3.4651    1.2677    1.1786 H   0  0  0  0  0  0  0  0  0  0  0  0
    6.4521    0.9233    0.5747 H   0  0  0  0  0  0  0  0  0  0  0  0
    8.2813    0.1786    2.0845 H   0  0  0  0  0  0  0  0  0  0  0  0
    5.6873   -2.0031    4.4206 H   0  0  0  0  0  0  0  0  0  0  0  0
    3.7327   -1.3625    3.0237 H   0  0  0  0  0  0  0  0  0  0  0  0
   -2.0866   -3.8187   -0.6200 H   0  0  0  0  0  0  0  0  0  0  0  0
   -0.4510   -3.5245   -0.1698 H   0  0  0  0  0  0  0  0  0  0  0  0
   -2.1238   -4.1996    1.6955 H   0  0  0  0  0  0  0  0  0  0  0  0
   -0.9546   -2.9402    2.0359 H   0  0  0  0  0  0  0  0  0  0  0  0
   -2.5677   -1.1848    1.8592 H   0  0  0  0  0  0  0  0  0  0  0  0
   -3.2056   -2.4192    2.9147 H   0  0  0  0  0  0  0  0  0  0  0  0
   -4.7631   -3.2098    1.2520 H   0  0  0  0  0  0  0  0  0  0  0  0
   -4.8934   -1.4696    1.3876 H   0  0  0  0  0  0  0  0  0  0  0  0
   -4.0166   -3.1374   -0.9324 H   0  0  0  0  0  0  0  0  0  0  0  0
   -5.0056   -1.7131   -0.8786 H   0  0  0  0  0  0  0  0  0  0  0  0
   -2.9602   -1.1788   -2.0376 H   0  0  0  0  0  0  0  0  0  0  0  0
   -3.0493   -0.2645   -0.5308 H   0  0  0  0  0  0  0  0  0  0  0  0
  1  2  1  0
  2  3  1  0
  3  4  1  0
  4  5  2  0
  5  6  1  0
  6  7  2  0
  7  8  1  0
  8  9  2  0
  2 10  2  0
 10 11  1  0
 11 12  2  3
 12 13  1  0
 13 14  1  0
 14 15  2  0
 15 16  1  0
 16 17  2  0
 17 18  1  0
 18 19  2  0
 11 20  1  0
 20 21  2  0
 21 22  1  0
 22 23  1  0
 23 24  1  0
 24 25  1  0
 25 26  1  0
 26 27  1  0
 27 28  1  0
 21  1  1  0
 28 22  1  0
  9  4  1  0
 19 14  1  0
  1 29  1  0
  3 30  1  0
  5 31  1  0
  6 32  1  0
  7 33  1  0
  8 34  1  0
  9 35  1  0
 13 36  1  0
 13 37  1  0
 15 38  1  0
 16 39  1  0
 18 40  1  0
 19 41  1  0
 23 42  1  0
 23 43  1  0
 24 44  1  0
 24 45  1  0
 25 46  1  0
 25 47  1  0
 26 48  1  0
 26 49  1  0
 27 50  1  0
 27 51  1  0
 28 52  1  0
 28 53  1  0
M  END
>  <ScrubInfo>  (7) 
{"isomerGroup": 0, "isomerId": 6, "confId": 0, "nr_conformers:": 1, "nr_isomers:": 9}

$$$$
_i7
     RDKit          3D

 53 56  0  0  0  0  0  0  0  0999 V2000
    0.4916    0.3005   -0.2466 N   0  0  0  0  0  0  0  0  0  0  0  0
    1.5221   -0.5874   -0.0789 C   0  0  0  0  0  0  0  0  0  0  0  0
    2.7923   -0.0381   -0.1209 N   0  0  0  0  0  0  0  0  0  0  0  0
    3.1584    1.0574   -1.0163 C   0  0  0  0  0  0  0  0  0  0  0  0
    3.5218    2.3156   -0.2216 C   0  0  0  0  0  0  0  0  0  0  0  0
    3.9776    2.0829    1.2209 C   0  0  0  0  0  0  0  0  0  0  0  0
    5.1891    1.1680    1.3973 C   0  0  0  0  0  0  0  0  0  0  0  0
    5.2323   -0.0953    0.5368 C   0  0  0  0  0  0  0  0  0  0  0  0
    3.9080   -0.8523    0.4027 C   0  0  0  0  0  0  0  0  0  0  0  0
    1.3223   -1.8559    0.1414 N   0  0  0  0  0  0  0  0  0  0  0  0
    0.0095   -2.2738    0.1625 C   0  0  0  0  0  0  0  0  0  0  0  0
   -0.1348   -3.5471    0.3692 N   0  0  0  0  0  0  0  0  0  0  0  0
   -1.4238   -4.0890    0.4124 C   0  0  0  0  0  0  0  0  0  0  0  0
   -2.1159   -4.1685    1.6236 C   0  0  0  0  0  0  0  0  0  0  0  0
   -3.4069   -4.6978    1.6659 C   0  0  0  0  0  0  0  0  0  0  0  0
   -4.0075   -5.1616    0.4960 C   0  0  0  0  0  0  0  0  0  0  0  0
   -3.3152   -5.1041   -0.7132 C   0  0  0  0  0  0  0  0  0  0  0  0
   -2.0244   -4.5738   -0.7522 C   0  0  0  0  0  0  0  0  0  0  0  0
   -0.9922   -1.3562   -0.0249 N   0  0  0  0  0  0  0  0  0  0  0  0
   -0.8396   -0.0166   -0.2123 C   0  0  0  0  0  0  0  0  0  0  0  0
   -1.8690    0.7490   -0.3189 N   0  0  0  0  0  0  0  0  0  0  0  0
   -1.6445    2.1792   -0.5170 C   0  0  0  0  0  0  0  0  0  0  0  0
   -2.9367    2.9257   -0.7366 C   0  0  0  0  0  0  0  0  0  0  0  0
   -3.8998    2.4449   -1.6290 C   0  0  0  0  0  0  0  0  0  0  0  0
   -5.0567    3.1824   -1.8251 C   0  0  0  0  0  0  0  0  0  0  0  0
   -5.3131    4.3567   -1.2104 N   0  0  0  0  0  0  0  0  0  0  0  0
   -4.3709    4.8068   -0.3555 C   0  0  0  0  0  0  0  0  0  0  0  0
   -3.1826    4.1413   -0.0921 C   0  0  0  0  0  0  0  0  0  0  0  0
    0.7389    1.2730   -0.2294 H   0  0  0  0  0  0  0  0  0  0  0  0
    3.9890    0.7591   -1.6665 H   0  0  0  0  0  0  0  0  0  0  0  0
    2.3507    1.2964   -1.7194 H   0  0  0  0  0  0  0  0  0  0  0  0
    4.2867    2.8780   -0.7706 H   0  0  0  0  0  0  0  0  0  0  0  0
    2.6384    2.9664   -0.1859 H   0  0  0  0  0  0  0  0  0  0  0  0
    4.2066    3.0539    1.6779 H   0  0  0  0  0  0  0  0  0  0  0  0
    3.1384    1.6815    1.8039 H   0  0  0  0  0  0  0  0  0  0  0  0
    6.1012    1.7447    1.1980 H   0  0  0  0  0  0  0  0  0  0  0  0
    5.2433    0.8787    2.4545 H   0  0  0  0  0  0  0  0  0  0  0  0
    5.9787   -0.7768    0.9651 H   0  0  0  0  0  0  0  0  0  0  0  0
    5.6244    0.1610   -0.4543 H   0  0  0  0  0  0  0  0  0  0  0  0
    4.0638   -1.7131   -0.2591 H   0  0  0  0  0  0  0  0  0  0  0  0
    3.6343   -1.2416    1.3915 H   0  0  0  0  0  0  0  0  0  0  0  0
   -1.6411   -3.8190    2.5366 H   0  0  0  0  0  0  0  0  0  0  0  0
   -3.9386   -4.7556    2.6120 H   0  0  0  0  0  0  0  0  0  0  0  0
   -5.0106   -5.5795    0.5288 H   0  0  0  0  0  0  0  0  0  0  0  0
   -3.7752   -5.4793   -1.6235 H   0  0  0  0  0  0  0  0  0  0  0  0
   -1.4780   -4.5403   -1.6911 H   0  0  0  0  0  0  0  0  0  0  0  0
   -1.9425   -1.6878    0.0250 H   0  0  0  0  0  0  0  0  0  0  0  0
   -1.1357    2.5896    0.3643 H   0  0  0  0  0  0  0  0  0  0  0  0
   -1.0062    2.3563   -1.3920 H   0  0  0  0  0  0  0  0  0  0  0  0
   -3.7552    1.5068   -2.1551 H   0  0  0  0  0  0  0  0  0  0  0  0
   -5.8303    2.8363   -2.5043 H   0  0  0  0  0  0  0  0  0  0  0  0
   -4.6016    5.7509    0.1295 H   0  0  0  0  0  0  0  0  0  0  0  0
   -2.4710    4.5672    0.6067 H   0  0  0  0  0  0  0  0  0  0  0  0
  1  2  1  0
  2  3  1  0
  3  4  1  0
  4  5  1  0
  5  6  1  0
  6  7  1  0
  7  8  1  0
  8  9  1  0
  2 10  2  0
 10 11  1  0
 11 12  2  3
 12 13  1  0
 13 14  2  0
 14 15  1  0
 15 16  2  0
 16 17  1  0
 17 18  2  0
 11 19  1  0
 19 20  1  0
 20 21  2  3
 21 22  1  0
 22 23  1  0
 23 24  2  0
 24 25  1  0
 25 26  2  0
 26 27  1  0
 27 28  2  0
 20  1  1  0
 28 23  1  0
  9  3  1  0
 18 13  1  0
  1 29  1  0
  4 30  1  0
  4 31  1  0
  5 32  1  0
  5 33  1  0
  6 34  1  0
  6 35  1  0
  7 36  1  0
  7 37  1  0
  8 38  1  0
  8 39  1  0
  9 40  1  0
  9 41  1  0
 14 42  1  0
 15 43  1  0
 16 44  1  0
 17 45  1  0
 18 46  1  0
 19 47  1  0
 22 48  1  0
 22 49  1  0
 24 50  1  0
 25 51  1  0
 27 52  1  0
 28 53  1  0
M  END
>  <ScrubInfo>  (8) 
{"isomerGroup": 0, "isomerId": 7, "confId": 0, "nr_conformers:": 1, "nr_isomers:": 9}

$$$$
_i8
     RDKit          3D

 53 56  0  0  0  0  0  0  0  0999 V2000
   -1.6807    0.4410    0.4682 N   0  0  0  0  0  0  0  0  0  0  0  0
   -1.0143   -0.7495    0.3574 C   0  0  0  0  0  0  0  0  0  0  0  0
   -1.8107   -1.8818    0.4692 N   0  0  0  0  0  0  0  0  0  0  0  0
   -1.3033   -3.1516   -0.0731 C   0  0  0  0  0  0  0  0  0  0  0  0
   -2.1786   -3.5796   -1.2505 C   0  0  0  0  0  0  0  0  0  0  0  0
   -3.5219   -4.1854   -0.8490 C   0  0  0  0  0  0  0  0  0  0  0  0
   -4.3748   -3.3178    0.0765 C   0  0  0  0  0  0  0  0  0  0  0  0
   -3.7587   -3.1528    1.4646 C   0  0  0  0  0  0  0  0  0  0  0  0
   -2.7667   -1.9950    1.5820 C   0  0  0  0  0  0  0  0  0  0  0  0
    0.2715   -0.8038    0.1397 N   0  0  0  0  0  0  0  0  0  0  0  0
    0.9205    0.4077    0.0577 C   0  0  0  0  0  0  0  0  0  0  0  0
    2.1967    0.4574   -0.1415 N   0  0  0  0  0  0  0  0  0  0  0  0
    2.8862   -0.8246   -0.2684 C   0  0  0  0  0  0  0  0  0  0  0  0
    4.3613   -0.6066   -0.5002 C   0  0  0  0  0  0  0  0  0  0  0  0
    4.8657   -0.4490   -1.7935 C   0  0  0  0  0  0  0  0  0  0  0  0
    6.2252   -0.2312   -1.9543 C   0  0  0  0  0  0  0  0  0  0  0  0
    7.1031   -0.1546   -0.9309 N   0  0  0  0  0  0  0  0  0  0  0  0
    6.5904   -0.2879    0.3114 C   0  0  0  0  0  0  0  0  0  0  0  0
    5.2474   -0.5083    0.5752 C   0  0  0  0  0  0  0  0  0  0  0  0
    0.2237    1.5731    0.1823 N   0  0  0  0  0  0  0  0  0  0  0  0
   -1.1245    1.6847    0.3629 C   0  0  0  0  0  0  0  0  0  0  0  0
   -1.8624    2.7503    0.4258 N   0  0  0  0  0  0  0  0  0  0  0  0
   -1.2344    3.9967    0.3034 C   0  0  0  0  0  0  0  0  0  0  0  0
   -0.7693    4.6668    1.4377 C   0  0  0  0  0  0  0  0  0  0  0  0
   -0.1354    5.9046    1.3163 C   0  0  0  0  0  0  0  0  0  0  0  0
    0.0269    6.4829    0.0578 C   0  0  0  0  0  0  0  0  0  0  0  0
   -0.4504    5.8281   -1.0770 C   0  0  0  0  0  0  0  0  0  0  0  0
   -1.0839    4.5904   -0.9524 C   0  0  0  0  0  0  0  0  0  0  0  0
   -2.6872    0.4303    0.4561 H   0  0  0  0  0  0  0  0  0  0  0  0
   -0.2793   -3.0458   -0.4493 H   0  0  0  0  0  0  0  0  0  0  0  0
   -1.2522   -3.9288    0.6983 H   0  0  0  0  0  0  0  0  0  0  0  0
   -1.6344   -4.3305   -1.8366 H   0  0  0  0  0  0  0  0  0  0  0  0
   -2.3502   -2.7261   -1.9187 H   0  0  0  0  0  0  0  0  0  0  0  0
   -4.0938   -4.3885   -1.7628 H   0  0  0  0  0  0  0  0  0  0  0  0
   -3.3492   -5.1597   -0.3745 H   0  0  0  0  0  0  0  0  0  0  0  0
   -5.3450   -3.8171    0.1925 H   0  0  0  0  0  0  0  0  0  0  0  0
   -4.5771   -2.3430   -0.3822 H   0  0  0  0  0  0  0  0  0  0  0  0
   -4.5647   -2.9694    2.1868 H   0  0  0  0  0  0  0  0  0  0  0  0
   -3.2880   -4.0908    1.7834 H   0  0  0  0  0  0  0  0  0  0  0  0
   -2.2111   -2.0941    2.5227 H   0  0  0  0  0  0  0  0  0  0  0  0
   -3.3572   -1.0761    1.6662 H   0  0  0  0  0  0  0  0  0  0  0  0
    2.7607   -1.4298    0.6392 H   0  0  0  0  0  0  0  0  0  0  0  0
    2.4839   -1.4065   -1.1083 H   0  0  0  0  0  0  0  0  0  0  0  0
    4.2119   -0.4871   -2.6580 H   0  0  0  0  0  0  0  0  0  0  0  0
    6.6561   -0.1052   -2.9431 H   0  0  0  0  0  0  0  0  0  0  0  0
    7.3110   -0.2070    1.1198 H   0  0  0  0  0  0  0  0  0  0  0  0
    4.8982   -0.5938    1.5984 H   0  0  0  0  0  0  0  0  0  0  0  0
    0.7755    2.4109    0.0822 H   0  0  0  0  0  0  0  0  0  0  0  0
   -0.9034    4.2205    2.4193 H   0  0  0  0  0  0  0  0  0  0  0  0
    0.2265    6.4186    2.2029 H   0  0  0  0  0  0  0  0  0  0  0  0
    0.5180    7.4482   -0.0377 H   0  0  0  0  0  0  0  0  0  0  0  0
   -0.3342    6.2823   -2.0576 H   0  0  0  0  0  0  0  0  0  0  0  0
   -1.4634    4.0845   -1.8361 H   0  0  0  0  0  0  0  0  0  0  0  0
  1  2  1  0
  2  3  1  0
  3  4  1  0
  4  5  1  0
  5  6  1  0
  6  7  1  0
  7  8  1  0
  8  9  1  0
  2 10  2  0
 10 11  1  0
 11 12  2  3
 12 13  1  0
 13 14  1  0
 14 15  2  0
 15 16  1  0
 16 17  2  0
 17 18  1  0
 18 19  2  0
 11 20  1  0
 20 21  1  0
 21 22  2  3
 22 23  1  0
 23 24  2  0
 24 25  1  0
 25 26  2  0
 26 27  1  0
 27 28  2  0
 21  1  1  0
 28 23  1  0
  9  3  1  0
 19 14  1  0
  1 29  1  0
  4 30  1  0
  4 31  1  0
  5 32  1  0
  5 33  1  0
  6 34  1  0
  6 35  1  0
  7 36  1  0
  7 37  1  0
  8 38  1  0
  8 39  1  0
  9 40  1  0
  9 41  1  0
 13 42  1  0
 13 43  1  0
 15 44  1  0
 16 45  1  0
 18 46  1  0
 19 47  1  0
 20 48  1  0
 24 49  1  0
 25 50  1  0
 26 51  1  0
 27 52  1  0
 28 53  1  0
M  END
>  <ScrubInfo>  (9) 
{"isomerGroup": 0, "isomerId": 8, "confId": 0, "nr_conformers:": 1, "nr_isomers:": 9}

$$$$
