_i0
     RDKit          3D

 46 48  0  0  0  0  0  0  0  0999 V2000
   -8.0436    0.9391    1.2785 C   0  0  0  0  0  0  0  0  0  0  0  0
   -7.1168    0.0097    1.8249 O   0  0  0  0  0  0  0  0  0  0  0  0
   -5.8149    0.1252    1.4225 C   0  0  0  0  0  0  0  0  0  0  0  0
   -4.9490   -0.8247    1.9679 C   0  0  0  0  0  0  0  0  0  0  0  0
   -3.5909   -0.8223    1.6420 C   0  0  0  0  0  0  0  0  0  0  0  0
   -3.0740    0.1408    0.7663 C   0  0  0  0  0  0  0  0  0  0  0  0
   -1.6080    0.1328    0.4015 C   0  0  0  0  0  0  0  0  0  0  0  0
   -1.3646   -0.9442   -0.5492 N   0  0  0  0  0  0  0  0  0  0  0  0
   -0.0581   -1.0380   -1.0502 C   0  0  0  0  0  0  0  0  0  0  0  0
    0.9095   -0.3069   -0.4512 N   0  0  0  0  0  0  0  0  0  0  0  0
    2.1911   -0.4410   -0.8483 C   0  0  0  0  0  0  0  0  0  0  0  0
    3.0969    0.3724   -0.1756 N   0  0  0  0  0  0  0  0  0  0  0  0
    4.4933    0.5134   -0.1908 C   0  0  0  0  0  0  0  0  0  0  0  0
    5.3219   -0.2767   -1.0014 C   0  0  0  0  0  0  0  0  0  0  0  0
    6.7099   -0.1081   -1.0201 C   0  0  0  0  0  0  0  0  0  0  0  0
    7.3031    0.8661   -0.2297 C   0  0  0  0  0  0  0  0  0  0  0  0
    6.5071    1.6741    0.5762 C   0  0  0  0  0  0  0  0  0  0  0  0
    5.1088    1.5143    0.6011 C   0  0  0  0  0  0  0  0  0  0  0  0
    4.3053    2.4286    1.4890 C   0  0  0  0  0  0  0  0  0  0  0  0
    2.5658   -1.2824   -1.8209 N   0  0  0  0  0  0  0  0  0  0  0  0
    1.6031   -2.0206   -2.4054 C   0  0  0  0  0  0  0  0  0  0  0  0
    0.2798   -1.9277   -2.0514 C   0  0  0  0  0  0  0  0  0  0  0  0
   -0.6927   -2.7235   -2.7498 N   0  0  0  0  0  4  0  0  0  0  0  0
   -1.7918   -2.2047   -2.9967 O   0  0  0  0  0  0  0  0  0  0  0  0
   -0.3510   -3.8618   -3.1002 O   0  0  0  0  0  1  0  0  0  0  0  0
   -3.9477    1.0870    0.2135 C   0  0  0  0  0  0  0  0  0  0  0  0
   -5.3087    1.0812    0.5420 C   0  0  0  0  0  0  0  0  0  0  0  0
   -8.1055    0.8418    0.1895 H   0  0  0  0  0  0  0  0  0  0  0  0
   -9.0309    0.7078    1.6897 H   0  0  0  0  0  0  0  0  0  0  0  0
   -7.7933    1.9642    1.5710 H   0  0  0  0  0  0  0  0  0  0  0  0
   -5.3370   -1.5780    2.6493 H   0  0  0  0  0  0  0  0  0  0  0  0
   -2.9379   -1.5808    2.0688 H   0  0  0  0  0  0  0  0  0  0  0  0
   -1.0180   -0.0057    1.3166 H   0  0  0  0  0  0  0  0  0  0  0  0
   -1.3325    1.1046   -0.0282 H   0  0  0  0  0  0  0  0  0  0  0  0
   -2.0551   -0.9427   -1.3037 H   0  0  0  0  0  0  0  0  0  0  0  0
    2.5967    0.8910    0.5296 H   0  0  0  0  0  0  0  0  0  0  0  0
    4.9067   -1.0528   -1.6363 H   0  0  0  0  0  0  0  0  0  0  0  0
    7.3214   -0.7425   -1.6562 H   0  0  0  0  0  0  0  0  0  0  0  0
    8.3813    0.9988   -0.2424 H   0  0  0  0  0  0  0  0  0  0  0  0
    6.9848    2.4371    1.1872 H   0  0  0  0  0  0  0  0  0  0  0  0
    3.5719    2.9859    0.8972 H   0  0  0  0  0  0  0  0  0  0  0  0
    4.9410    3.1629    1.9954 H   0  0  0  0  0  0  0  0  0  0  0  0
    3.7909    1.8492    2.2624 H   0  0  0  0  0  0  0  0  0  0  0  0
    1.9530   -2.6919   -3.1853 H   0  0  0  0  0  0  0  0  0  0  0  0
   -3.5766    1.8386   -0.4801 H   0  0  0  0  0  0  0  0  0  0  0  0
   -5.9447    1.8354    0.0909 H   0  0  0  0  0  0  0  0  0  0  0  0
  1  2  1  0
  2  3  1  0
  3  4  2  0
  4  5  1  0
  5  6  2  0
  6  7  1  0
  7  8  1  0
  8  9  1  0
  9 10  2  0
 10 11  1  0
 11 12  1  0
 12 13  1  0
 13 14  2  0
 14 15  1  0
 15 16  2  0
 16 17  1  0
 17 18  2  0
 18 19  1  0
 11 20  2  0
 20 21  1  0
 21 22  2  0
 22 23  1  0
 23 24  2  0
 23 25  1  0
  6 26  1  0
 26 27  2  0
 27  3  1  0
 22  9  1  0
 18 13  1  0
  1 28  1  0
  1 29  1  0
  1 30  1  0
  4 31  1  0
  5 32  1  0
  7 33  1  0
  7 34  1  0
  8 35  1  0
 12 36  1  0
 14 37  1  0
 15 38  1  0
 16 39  1  0
 17 40  1  0
 19 41  1  0
 19 42  1  0
 19 43  1  0
 21 44  1  0
 26 45  1  0
 27 46  1  0
M  CHG  2  23   1  25  -1
M  END
>  <ScrubInfo>  (1) 
{"isomerGroup": 0, "isomerId": 0, "confId": 0, "nr_conformers:": 1, "nr_isomers:": 6}

$$$$
_i1
     RDKit          3D

 46 48  0  0  0  0  0  0  0  0999 V2000
   -0.4943    1.6291    0.1072 N   0  0  0  0  0  0  0  0  0  0  0  0
   -1.5093    0.9684   -0.5500 C   0  0  0  0  0  0  0  0  0  0  0  0
   -1.8147   -0.2263    0.0530 N   0  0  0  0  0  0  0  0  0  0  0  0
   -2.6881   -1.2415   -0.4026 C   0  0  0  0  0  0  0  0  0  0  0  0
   -3.0188   -1.3808   -1.7600 C   0  0  0  0  0  0  0  0  0  0  0  0
   -3.8659   -2.3977   -2.2081 C   0  0  0  0  0  0  0  0  0  0  0  0
   -4.3962   -3.3083   -1.3050 C   0  0  0  0  0  0  0  0  0  0  0  0
   -4.0745   -3.2047    0.0453 C   0  0  0  0  0  0  0  0  0  0  0  0
   -3.2226   -2.1847    0.5096 C   0  0  0  0  0  0  0  0  0  0  0  0
   -2.9172   -2.1349    1.9835 C   0  0  0  0  0  0  0  0  0  0  0  0
   -2.0891    1.4718   -1.6071 N   0  0  0  0  0  0  0  0  0  0  0  0
   -1.6417    2.7058   -2.0506 C   0  0  0  0  0  0  0  0  0  0  0  0
   -0.6478    3.4127   -1.4921 C   0  0  0  0  0  0  0  0  0  0  0  0
   -0.3104    4.6887   -2.0387 N   0  0  0  0  0  4  0  0  0  0  0  0
   -0.0774    4.7416   -3.2554 O   0  0  0  0  0  0  0  0  0  0  0  0
   -0.3263    5.6614   -1.2733 O   0  0  0  0  0  1  0  0  0  0  0  0
    0.0491    2.8269   -0.3225 C   0  0  0  0  0  0  0  0  0  0  0  0
    1.0831    3.4181    0.1753 N   0  0  0  0  0  0  0  0  0  0  0  0
    1.7628    2.8888    1.3580 C   0  0  0  0  0  0  0  0  0  0  0  0
    2.4958    1.5852    1.1417 C   0  0  0  0  0  0  0  0  0  0  0  0
    2.5380    0.6234    2.1609 C   0  0  0  0  0  0  0  0  0  0  0  0
    3.2132   -0.5887    1.9742 C   0  0  0  0  0  0  0  0  0  0  0  0
    3.8653   -0.8502    0.7698 C   0  0  0  0  0  0  0  0  0  0  0  0
    4.5551   -1.9885    0.4578 O   0  0  0  0  0  0  0  0  0  0  0  0
    4.6430   -2.9872    1.4658 C   0  0  0  0  0  0  0  0  0  0  0  0
    3.8429    0.1139   -0.2395 C   0  0  0  0  0  0  0  0  0  0  0  0
    3.1732    1.3254   -0.0549 C   0  0  0  0  0  0  0  0  0  0  0  0
    0.0866    1.0643    0.7071 H   0  0  0  0  0  0  0  0  0  0  0  0
   -1.6459   -0.2633    1.0459 H   0  0  0  0  0  0  0  0  0  0  0  0
   -2.6093   -0.7041   -2.5051 H   0  0  0  0  0  0  0  0  0  0  0  0
   -4.1041   -2.4742   -3.2658 H   0  0  0  0  0  0  0  0  0  0  0  0
   -5.0554   -4.0997   -1.6513 H   0  0  0  0  0  0  0  0  0  0  0  0
   -4.4956   -3.9297    0.7389 H   0  0  0  0  0  0  0  0  0  0  0  0
   -3.4272   -2.9349    2.5308 H   0  0  0  0  0  0  0  0  0  0  0  0
   -3.2518   -1.1830    2.4083 H   0  0  0  0  0  0  0  0  0  0  0  0
   -1.8423   -2.2564    2.1523 H   0  0  0  0  0  0  0  0  0  0  0  0
   -2.1786    3.0930   -2.9149 H   0  0  0  0  0  0  0  0  0  0  0  0
    1.0378    2.7894    2.1762 H   0  0  0  0  0  0  0  0  0  0  0  0
    2.4963    3.6329    1.6905 H   0  0  0  0  0  0  0  0  0  0  0  0
    2.0530    0.8124    3.1166 H   0  0  0  0  0  0  0  0  0  0  0  0
    3.2186   -1.3023    2.7915 H   0  0  0  0  0  0  0  0  0  0  0  0
    5.1624   -2.6089    2.3525 H   0  0  0  0  0  0  0  0  0  0  0  0
    5.2319   -3.8172    1.0638 H   0  0  0  0  0  0  0  0  0  0  0  0
    3.6522   -3.3757    1.7232 H   0  0  0  0  0  0  0  0  0  0  0  0
    4.3593   -0.0765   -1.1777 H   0  0  0  0  0  0  0  0  0  0  0  0
    3.1848    2.0660   -0.8529 H   0  0  0  0  0  0  0  0  0  0  0  0
  1  2  1  0
  2  3  1  0
  3  4  1  0
  4  5  2  0
  5  6  1  0
  6  7  2  0
  7  8  1  0
  8  9  2  0
  9 10  1  0
  2 11  2  0
 11 12  1  0
 12 13  2  0
 13 14  1  0
 14 15  2  0
 14 16  1  0
 13 17  1  0
 17 18  2  3
 18 19  1  0
 19 20  1  0
 20 21  2  0
 21 22  1  0
 22 23  2  0
 23 24  1  0
 24 25  1  0
 23 26  1  0
 26 27  2  0
 17  1  1  0
 27 20  1  0
  9  4  1  0
  1 28  1  0
  3 29  1  0
  5 30  1  0
  6 31  1  0
  7 32  1  0
  8 33  1  0
 10 34  1  0
 10 35  1  0
 10 36  1  0
 12 37  1  0
 19 38  1  0
 19 39  1  0
 21 40  1  0
 22 41  1  0
 25 42  1  0
 25 43  1  0
 25 44  1  0
 26 45  1  0
 27 46  1  0
M  CHG  2  14   1  16  -1
M  END
>  <ScrubInfo>  (2) 
{"isomerGroup": 0, "isomerId": 1, "confId": 0, "nr_conformers:": 1, "nr_isomers:": 6}

$$$$
_i2
     RDKit          3D

 46 48  0  0  0  0  0  0  0  0999 V2000
   -1.7888   -1.2689   -0.1531 N   0  0  0  0  0  0  0  0  0  0  0  0
   -0.6287   -2.0299   -0.1791 C   0  0  0  0  0  0  0  0  0  0  0  0
    0.5589   -1.3172   -0.1887 N   0  0  0  0  0  0  0  0  0  0  0  0
    1.9209   -1.7737   -0.4168 C   0  0  0  0  0  0  0  0  0  0  0  0
    2.8607   -0.6004   -0.2698 C   0  0  0  0  0  0  0  0  0  0  0  0
    3.1875   -0.1092    1.0005 C   0  0  0  0  0  0  0  0  0  0  0  0
    4.0365    0.9916    1.1346 C   0  0  0  0  0  0  0  0  0  0  0  0
    4.5698    1.6226    0.0088 C   0  0  0  0  0  0  0  0  0  0  0  0
    5.3842    2.6864    0.2822 O   0  0  0  0  0  0  0  0  0  0  0  0
    5.9836    3.3404   -0.8291 C   0  0  0  0  0  0  0  0  0  0  0  0
    4.2416    1.1436   -1.2593 C   0  0  0  0  0  0  0  0  0  0  0  0
    3.3899    0.0411   -1.3978 C   0  0  0  0  0  0  0  0  0  0  0  0
   -0.8369   -3.3641   -0.1666 C   0  0  0  0  0  0  0  0  0  0  0  0
    0.2098   -4.3227   -0.1832 N   0  0  0  0  0  4  0  0  0  0  0  0
    0.4214   -4.9391    0.8681 O   0  0  0  0  0  0  0  0  0  0  0  0
    0.8013   -4.5039   -1.2553 O   0  0  0  0  0  1  0  0  0  0  0  0
   -2.2180   -3.8629   -0.1215 C   0  0  0  0  0  0  0  0  0  0  0  0
   -3.2820   -3.1240   -0.0890 N   0  0  0  0  0  0  0  0  0  0  0  0
   -3.0732   -1.7631   -0.0838 C   0  0  0  0  0  0  0  0  0  0  0  0
   -4.1608   -1.0645   -0.0029 N   0  0  0  0  0  0  0  0  0  0  0  0
   -4.0745    0.3352    0.0118 C   0  0  0  0  0  0  0  0  0  0  0  0
   -4.1030    1.0315   -1.2024 C   0  0  0  0  0  0  0  0  0  0  0  0
   -3.9916    2.4213   -1.2293 C   0  0  0  0  0  0  0  0  0  0  0  0
   -3.8590    3.1277   -0.0372 C   0  0  0  0  0  0  0  0  0  0  0  0
   -3.8513    2.4469    1.1811 C   0  0  0  0  0  0  0  0  0  0  0  0
   -3.9725    1.0493    1.2190 C   0  0  0  0  0  0  0  0  0  0  0  0
   -3.9729    0.3325    2.5399 C   0  0  0  0  0  0  0  0  0  0  0  0
   -1.6782   -0.2703   -0.0575 H   0  0  0  0  0  0  0  0  0  0  0  0
    0.4390   -0.3345   -0.4251 H   0  0  0  0  0  0  0  0  0  0  0  0
    2.0156   -2.1967   -1.4227 H   0  0  0  0  0  0  0  0  0  0  0  0
    2.2068   -2.5440    0.3078 H   0  0  0  0  0  0  0  0  0  0  0  0
    2.7801   -0.5794    1.8933 H   0  0  0  0  0  0  0  0  0  0  0  0
    4.2852    1.3618    2.1265 H   0  0  0  0  0  0  0  0  0  0  0  0
    6.6282    2.6558   -1.3903 H   0  0  0  0  0  0  0  0  0  0  0  0
    5.2248    3.7908   -1.4775 H   0  0  0  0  0  0  0  0  0  0  0  0
    6.6125    4.1480   -0.4424 H   0  0  0  0  0  0  0  0  0  0  0  0
    4.6295    1.6043   -2.1618 H   0  0  0  0  0  0  0  0  0  0  0  0
    3.1451   -0.3133   -2.3974 H   0  0  0  0  0  0  0  0  0  0  0  0
   -2.3416   -4.9591   -0.1203 H   0  0  0  0  0  0  0  0  0  0  0  0
   -4.2181    0.4797   -2.1321 H   0  0  0  0  0  0  0  0  0  0  0  0
   -4.0177    2.9504   -2.1782 H   0  0  0  0  0  0  0  0  0  0  0  0
   -3.7768    4.2118   -0.0534 H   0  0  0  0  0  0  0  0  0  0  0  0
   -3.7631    3.0157    2.1044 H   0  0  0  0  0  0  0  0  0  0  0  0
   -4.0673    1.0348    3.3749 H   0  0  0  0  0  0  0  0  0  0  0  0
   -4.8187   -0.3600    2.6022 H   0  0  0  0  0  0  0  0  0  0  0  0
   -3.0382   -0.2222    2.6688 H   0  0  0  0  0  0  0  0  0  0  0  0
  1  2  1  0
  2  3  1  0
  3  4  1  0
  4  5  1  0
  5  6  2  0
  6  7  1  0
  7  8  2  0
  8  9  1  0
  9 10  1  0
  8 11  1  0
 11 12  2  0
  2 13  2  0
 13 14  1  0
 14 15  2  0
 14 16  1  0
 13 17  1  0
 17 18  2  0
 18 19  1  0
 19 20  2  3
 20 21  1  0
 21 22  2  0
 22 23  1  0
 23 24  2  0
 24 25  1  0
 25 26  2  0
 26 27  1  0
 19  1  1  0
 26 21  1  0
 12  5  1  0
  1 28  1  0
  3 29  1  0
  4 30  1  0
  4 31  1  0
  6 32  1  0
  7 33  1  0
 10 34  1  0
 10 35  1  0
 10 36  1  0
 11 37  1  0
 12 38  1  0
 17 39  1  0
 22 40  1  0
 23 41  1  0
 24 42  1  0
 25 43  1  0
 27 44  1  0
 27 45  1  0
 27 46  1  0
M  CHG  2  14   1  16  -1
M  END
>  <ScrubInfo>  (3) 
{"isomerGroup": 0, "isomerId": 2, "confId": 0, "nr_conformers:": 1, "nr_isomers:": 6}

$$$$
_i3
     RDKit          3D

 46 48  0  0  0  0  0  0  0  0999 V2000
   -2.7079   -0.9264   -0.8481 N   0  0  0  0  0  0  0  0  0  0  0  0
   -1.8237   -1.2491   -1.8430 C   0  0  0  0  0  0  0  0  0  0  0  0
   -0.5193   -0.9838   -1.7018 C   0  0  0  0  0  0  0  0  0  0  0  0
    0.3681   -1.2656   -2.7940 N   0  0  0  0  0  4  0  0  0  0  0  0
    1.3011   -0.4819   -3.0050 O   0  0  0  0  0  0  0  0  0  0  0  0
    0.1342   -2.2786   -3.4704 O   0  0  0  0  0  1  0  0  0  0  0  0
   -0.1006   -0.3528   -0.4111 C   0  0  0  0  0  0  0  0  0  0  0  0
    1.1993   -0.0632   -0.0475 N   0  0  0  0  0  0  0  0  0  0  0  0
    2.2014   -1.1105    0.0751 C   0  0  0  0  0  0  0  0  0  0  0  0
    3.5350   -0.4884    0.4005 C   0  0  0  0  0  0  0  0  0  0  0  0
    4.2449    0.2140   -0.5840 C   0  0  0  0  0  0  0  0  0  0  0  0
    5.4796    0.8045   -0.2932 C   0  0  0  0  0  0  0  0  0  0  0  0
    6.0194    0.7041    0.9884 C   0  0  0  0  0  0  0  0  0  0  0  0
    7.2108    1.2312    1.4045 O   0  0  0  0  0  0  0  0  0  0  0  0
    7.9607    1.9602    0.4410 C   0  0  0  0  0  0  0  0  0  0  0  0
    5.3116    0.0116    1.9737 C   0  0  0  0  0  0  0  0  0  0  0  0
    4.0778   -0.5786    1.6874 C   0  0  0  0  0  0  0  0  0  0  0  0
   -0.9772   -0.0114    0.5095 N   0  0  0  0  0  0  0  0  0  0  0  0
   -2.3148   -0.2767    0.3003 C   0  0  0  0  0  0  0  0  0  0  0  0
   -3.0885    0.1313    1.2555 N   0  0  0  0  0  0  0  0  0  0  0  0
   -4.4706   -0.0828    1.1546 C   0  0  0  0  0  0  0  0  0  0  0  0
   -5.0142   -1.2733    1.6521 C   0  0  0  0  0  0  0  0  0  0  0  0
   -6.3809   -1.5302    1.5484 C   0  0  0  0  0  0  0  0  0  0  0  0
   -7.2181   -0.5910    0.9528 C   0  0  0  0  0  0  0  0  0  0  0  0
   -6.6918    0.6093    0.4730 C   0  0  0  0  0  0  0  0  0  0  0  0
   -5.3191    0.8806    0.5805 C   0  0  0  0  0  0  0  0  0  0  0  0
   -4.7696    2.1834    0.0712 C   0  0  0  0  0  0  0  0  0  0  0  0
   -3.6984   -1.0758   -0.9975 H   0  0  0  0  0  0  0  0  0  0  0  0
   -2.2668   -1.6933   -2.7288 H   0  0  0  0  0  0  0  0  0  0  0  0
    1.1774    0.4811    0.8155 H   0  0  0  0  0  0  0  0  0  0  0  0
    1.9049   -1.8117    0.8645 H   0  0  0  0  0  0  0  0  0  0  0  0
    2.2977   -1.6960   -0.8448 H   0  0  0  0  0  0  0  0  0  0  0  0
    3.8307    0.3111   -1.5872 H   0  0  0  0  0  0  0  0  0  0  0  0
    5.9879    1.3368   -1.0900 H   0  0  0  0  0  0  0  0  0  0  0  0
    7.4068    2.8374    0.0904 H   0  0  0  0  0  0  0  0  0  0  0  0
    8.2581    1.3190   -0.3953 H   0  0  0  0  0  0  0  0  0  0  0  0
    8.8737    2.3163    0.9279 H   0  0  0  0  0  0  0  0  0  0  0  0
    5.7255   -0.0656    2.9764 H   0  0  0  0  0  0  0  0  0  0  0  0
    3.5491   -1.1050    2.4788 H   0  0  0  0  0  0  0  0  0  0  0  0
   -4.3614   -2.0005    2.1283 H   0  0  0  0  0  0  0  0  0  0  0  0
   -6.7910   -2.4571    1.9406 H   0  0  0  0  0  0  0  0  0  0  0  0
   -8.2851   -0.7851    0.8753 H   0  0  0  0  0  0  0  0  0  0  0  0
   -7.3626    1.3399    0.0259 H   0  0  0  0  0  0  0  0  0  0  0  0
   -4.1575    2.6689    0.8382 H   0  0  0  0  0  0  0  0  0  0  0  0
   -4.1638    2.0137   -0.8245 H   0  0  0  0  0  0  0  0  0  0  0  0
   -5.5728    2.8799   -0.1916 H   0  0  0  0  0  0  0  0  0  0  0  0
  1  2  1  0
  2  3  2  0
  3  4  1  0
  4  5  2  0
  4  6  1  0
  3  7  1  0
  7  8  1  0
  8  9  1  0
  9 10  1  0
 10 11  2  0
 11 12  1  0
 12 13  2  0
 13 14  1  0
 14 15  1  0
 13 16  1  0
 16 17  2  0
  7 18  2  0
 18 19  1  0
 19 20  2  3
 20 21  1  0
 21 22  2  0
 22 23  1  0
 23 24  2  0
 24 25  1  0
 25 26  2  0
 26 27  1  0
 19  1  1  0
 26 21  1  0
 17 10  1  0
  1 28  1  0
  2 29  1  0
  8 30  1  0
  9 31  1  0
  9 32  1  0
 11 33  1  0
 12 34  1  0
 15 35  1  0
 15 36  1  0
 15 37  1  0
 16 38  1  0
 17 39  1  0
 22 40  1  0
 23 41  1  0
 24 42  1  0
 25 43  1  0
 27 44  1  0
 27 45  1  0
 27 46  1  0
M  CHG  2   4   1   6  -1
M  END
>  <ScrubInfo>  (4) 
{"isomerGroup": 0, "isomerId": 3, "confId": 0, "nr_conformers:": 1, "nr_isomers:": 6}

$$$$
_i4
     RDKit          3D

 46 48  0  0  0  0  0  0  0  0999 V2000
   -1.4901   -2.4272   -1.9472 N   0  0  0  0  0  0  0  0  0  0  0  0
   -0.5826   -2.7120   -2.9390 C   0  0  0  0  0  0  0  0  0  0  0  0
    0.3830   -1.8342   -3.2342 C   0  0  0  0  0  0  0  0  0  0  0  0
    1.3145   -2.1487   -4.2719 N   0  0  0  0  0  4  0  0  0  0  0  0
    1.7779   -3.2998   -4.2884 O   0  0  0  0  0  0  0  0  0  0  0  0
    1.5403   -1.2824   -5.1258 O   0  0  0  0  0  1  0  0  0  0  0  0
    0.4828   -0.5868   -2.4490 C   0  0  0  0  0  0  0  0  0  0  0  0
    1.5115    0.1860   -2.5023 N   0  0  0  0  0  0  0  0  0  0  0  0
    1.5309    1.3756   -1.6496 C   0  0  0  0  0  0  0  0  0  0  0  0
    2.0829    1.0876   -0.2733 C   0  0  0  0  0  0  0  0  0  0  0  0
    1.2610    1.1521    0.8570 C   0  0  0  0  0  0  0  0  0  0  0  0
    1.7788    0.8706    2.1234 C   0  0  0  0  0  0  0  0  0  0  0  0
    3.1206    0.5179    2.2831 C   0  0  0  0  0  0  0  0  0  0  0  0
    3.4970    0.2670    3.5745 O   0  0  0  0  0  0  0  0  0  0  0  0
    4.8614   -0.0704    3.7886 C   0  0  0  0  0  0  0  0  0  0  0  0
    3.9435    0.4447    1.1590 C   0  0  0  0  0  0  0  0  0  0  0  0
    3.4263    0.7257   -0.1107 C   0  0  0  0  0  0  0  0  0  0  0  0
   -0.5817   -0.2875   -1.6122 N   0  0  0  0  0  0  0  0  0  0  0  0
   -1.4936   -1.1805   -1.3630 C   0  0  0  0  0  0  0  0  0  0  0  0
   -2.5536   -1.0283   -0.5040 N   0  0  0  0  0  0  0  0  0  0  0  0
   -2.9220    0.1583    0.1750 C   0  0  0  0  0  0  0  0  0  0  0  0
   -2.7330    1.4208   -0.4121 C   0  0  0  0  0  0  0  0  0  0  0  0
   -3.1022    2.5960    0.2455 C   0  0  0  0  0  0  0  0  0  0  0  0
   -3.6808    2.5317    1.5057 C   0  0  0  0  0  0  0  0  0  0  0  0
   -3.8946    1.2925    2.1044 C   0  0  0  0  0  0  0  0  0  0  0  0
   -3.5261    0.1007    1.4529 C   0  0  0  0  0  0  0  0  0  0  0  0
   -3.7784   -1.2037    2.1606 C   0  0  0  0  0  0  0  0  0  0  0  0
   -2.3506   -2.9633   -1.9465 H   0  0  0  0  0  0  0  0  0  0  0  0
   -0.7251   -3.6582   -3.4512 H   0  0  0  0  0  0  0  0  0  0  0  0
    2.1823    2.1197   -2.1257 H   0  0  0  0  0  0  0  0  0  0  0  0
    0.5524    1.8695   -1.5921 H   0  0  0  0  0  0  0  0  0  0  0  0
    0.2094    1.4122    0.7575 H   0  0  0  0  0  0  0  0  0  0  0  0
    1.1278    0.9247    2.9920 H   0  0  0  0  0  0  0  0  0  0  0  0
    5.1209   -1.0056    3.2816 H   0  0  0  0  0  0  0  0  0  0  0  0
    5.0028   -0.2247    4.8627 H   0  0  0  0  0  0  0  0  0  0  0  0
    5.5239    0.7450    3.4798 H   0  0  0  0  0  0  0  0  0  0  0  0
    4.9896    0.1685    1.2303 H   0  0  0  0  0  0  0  0  0  0  0  0
    4.0744    0.6547   -0.9821 H   0  0  0  0  0  0  0  0  0  0  0  0
   -2.7922   -1.8652    0.0066 H   0  0  0  0  0  0  0  0  0  0  0  0
   -2.2992    1.5079   -1.4053 H   0  0  0  0  0  0  0  0  0  0  0  0
   -2.9371    3.5580   -0.2324 H   0  0  0  0  0  0  0  0  0  0  0  0
   -3.9679    3.4443    2.0214 H   0  0  0  0  0  0  0  0  0  0  0  0
   -4.3513    1.2620    3.0917 H   0  0  0  0  0  0  0  0  0  0  0  0
   -2.8358   -1.7374    2.3197 H   0  0  0  0  0  0  0  0  0  0  0  0
   -4.2377   -1.0500    3.1430 H   0  0  0  0  0  0  0  0  0  0  0  0
   -4.4604   -1.8277    1.5741 H   0  0  0  0  0  0  0  0  0  0  0  0
  1  2  1  0
  2  3  2  0
  3  4  1  0
  4  5  2  0
  4  6  1  0
  3  7  1  0
  7  8  2  3
  8  9  1  0
  9 10  1  0
 10 11  2  0
 11 12  1  0
 12 13  2  0
 13 14  1  0
 14 15  1  0
 13 16  1  0
 16 17  2  0
  7 18  1  0
 18 19  2  0
 19 20  1  0
 20 21  1  0
 21 22  2  0
 22 23  1  0
 23 24  2  0
 24 25  1  0
 25 26  2  0
 26 27  1  0
 19  1  1  0
 26 21  1  0
 17 10  1  0
  1 28  1  0
  2 29  1  0
  9 30  1  0
  9 31  1  0
 11 32  1  0
 12 33  1  0
 15 34  1  0
 15 35  1  0
 15 36  1  0
 16 37  1  0
 17 38  1  0
 20 39  1  0
 22 40  1  0
 23 41  1  0
 24 42  1  0
 25 43  1  0
 27 44  1  0
 27 45  1  0
 27 46  1  0
M  CHG  2   4   1   6  -1
M  END
>  <ScrubInfo>  (5) 
{"isomerGroup": 0, "isomerId": 4, "confId": 0, "nr_conformers:": 1, "nr_isomers:": 6}

$$$$
_i5
     RDKit          3D

 46 48  0  0  0  0  0  0  0  0999 V2000
   -2.7498    0.5868    1.1209 N   0  0  0  0  0  0  0  0  0  0  0  0
   -1.9440    1.4012    1.8952 C   0  0  0  0  0  0  0  0  0  0  0  0
   -0.6049    1.3862    1.8044 C   0  0  0  0  0  0  0  0  0  0  0  0
    0.1660    2.2355    2.6614 N   0  0  0  0  0  4  0  0  0  0  0  0
    1.0958    1.7239    3.2978 O   0  0  0  0  0  0  0  0  0  0  0  0
   -0.1979    3.4175    2.7590 O   0  0  0  0  0  1  0  0  0  0  0  0
   -0.0021    0.4650    0.7959 C   0  0  0  0  0  0  0  0  0  0  0  0
    1.2772    0.4776    0.6211 N   0  0  0  0  0  0  0  0  0  0  0  0
    1.8897   -0.4149   -0.3604 C   0  0  0  0  0  0  0  0  0  0  0  0
    3.3938   -0.2723   -0.4195 C   0  0  0  0  0  0  0  0  0  0  0  0
    4.1399    0.1110    0.7035 C   0  0  0  0  0  0  0  0  0  0  0  0
    5.5356    0.2033    0.6443 C   0  0  0  0  0  0  0  0  0  0  0  0
    6.2088   -0.0989   -0.5382 C   0  0  0  0  0  0  0  0  0  0  0  0
    7.5623   -0.0510   -0.7302 O   0  0  0  0  0  0  0  0  0  0  0  0
    8.3492    0.3807    0.3728 C   0  0  0  0  0  0  0  0  0  0  0  0
    5.4734   -0.4971   -1.6560 C   0  0  0  0  0  0  0  0  0  0  0  0
    4.0798   -0.5883   -1.5994 C   0  0  0  0  0  0  0  0  0  0  0  0
   -0.9067   -0.3280    0.1024 N   0  0  0  0  0  0  0  0  0  0  0  0
   -2.2796   -0.3257    0.1948 C   0  0  0  0  0  0  0  0  0  0  0  0
   -2.9690   -1.1284   -0.5573 N   0  0  0  0  0  0  0  0  0  0  0  0
   -4.3688   -1.1106   -0.4505 C   0  0  0  0  0  0  0  0  0  0  0  0
   -4.9908   -1.9580    0.4742 C   0  0  0  0  0  0  0  0  0  0  0  0
   -6.3774   -1.9544    0.6229 C   0  0  0  0  0  0  0  0  0  0  0  0
   -7.1549   -1.1063   -0.1606 C   0  0  0  0  0  0  0  0  0  0  0  0
   -6.5480   -0.2713   -1.0998 C   0  0  0  0  0  0  0  0  0  0  0  0
   -5.1542   -0.2743   -1.2635 C   0  0  0  0  0  0  0  0  0  0  0  0
   -4.5193    0.6274   -2.2842 C   0  0  0  0  0  0  0  0  0  0  0  0
   -3.7550    0.6575    1.2489 H   0  0  0  0  0  0  0  0  0  0  0  0
   -2.4870    2.0387    2.5872 H   0  0  0  0  0  0  0  0  0  0  0  0
    1.6668   -1.4603   -0.1139 H   0  0  0  0  0  0  0  0  0  0  0  0
    1.4803   -0.1923   -1.3537 H   0  0  0  0  0  0  0  0  0  0  0  0
    3.6345    0.3497    1.6385 H   0  0  0  0  0  0  0  0  0  0  0  0
    6.0600    0.5133    1.5416 H   0  0  0  0  0  0  0  0  0  0  0  0
    8.0916    1.4037    0.6665 H   0  0  0  0  0  0  0  0  0  0  0  0
    9.3967    0.3795    0.0565 H   0  0  0  0  0  0  0  0  0  0  0  0
    8.2563   -0.3096    1.2178 H   0  0  0  0  0  0  0  0  0  0  0  0
    5.9915   -0.7394   -2.5805 H   0  0  0  0  0  0  0  0  0  0  0  0
    3.5369   -0.9061   -2.4861 H   0  0  0  0  0  0  0  0  0  0  0  0
   -0.5574   -0.9777   -0.5862 H   0  0  0  0  0  0  0  0  0  0  0  0
   -4.3854   -2.6271    1.0802 H   0  0  0  0  0  0  0  0  0  0  0  0
   -6.8490   -2.6174    1.3435 H   0  0  0  0  0  0  0  0  0  0  0  0
   -8.2367   -1.1031   -0.0502 H   0  0  0  0  0  0  0  0  0  0  0  0
   -7.1721    0.3756   -1.7130 H   0  0  0  0  0  0  0  0  0  0  0  0
   -3.9851    1.4432   -1.7871 H   0  0  0  0  0  0  0  0  0  0  0  0
   -5.2697    1.0693   -2.9483 H   0  0  0  0  0  0  0  0  0  0  0  0
   -3.8212    0.0656   -2.9134 H   0  0  0  0  0  0  0  0  0  0  0  0
  1  2  1  0
  2  3  2  0
  3  4  1  0
  4  5  2  0
  4  6  1  0
  3  7  1  0
  7  8  2  3
  8  9  1  0
  9 10  1  0
 10 11  2  0
 11 12  1  0
 12 13  2  0
 13 14  1  0
 14 15  1  0
 13 16  1  0
 16 17  2  0
  7 18  1  0
 18 19  1  0
 19 20  2  3
 20 21  1  0
 21 22  2  0
 22 23  1  0
 23 24  2  0
 24 25  1  0
 25 26  2  0
 26 27  1  0
 19  1  1  0
 26 21  1  0
 17 10  1  0
  1 28  1  0
  2 29  1  0
  9 30  1  0
  9 31  1  0
 11 32  1  0
 12 33  1  0
 15 34  1  0
 15 35  1  0
 15 36  1  0
 16 37  1  0
 17 38  1  0
 18 39  1  0
 22 40  1  0
 23 41  1  0
 24 42  1  0
 25 43  1  0
 27 44  1  0
 27 45  1  0
 27 46  1  0
M  CHG  2   4   1   6  -1
M  END
>  <ScrubInfo>  (6) 
{"isomerGroup": 0, "isomerId": 5, "confId": 0, "nr_conformers:": 1, "nr_isomers:": 6}

$$$$
