REMARK SMILES COc1ccc(CNc2nc(Nc3ccccc3C)ncc2[N+](=O)[O-])cc1
REMARK SMILES IDX 8 1 7 3 6 4 3 5 4 6 27 7 5 8 26 9 2 10 1 11 9 12 10 13 22 14
REMARK SMILES IDX 11 15 21 16 20 17 23 18 24 19 25 20 12 21 13 23 14 24 18 25
REMARK SMILES IDX 15 26 17 27 16 28 19 29
REMARK H PARENT 8 2 12 22
ROOT
ATOM      1  N   UNL     1      -1.365  -0.944  -0.549  1.00  0.00    -0.360 N 
ATOM      2  H   UNL     1      -2.055  -0.943  -1.304  1.00  0.00     0.162 HD
ENDROOT
BRANCH   1   3
ATOM      3  C   UNL     1      -1.608   0.133   0.402  1.00  0.00     0.150 C 
BRANCH   3   4
ATOM      4  C   UNL     1      -3.074   0.141   0.766  1.00  0.00    -0.029 A 
ATOM      5  C   UNL     1      -5.815   0.125   1.423  1.00  0.00     0.118 A 
ATOM      6  C   UNL     1      -4.949  -0.825   1.968  1.00  0.00     0.047 A 
ATOM      7  C   UNL     1      -5.309   1.081   0.542  1.00  0.00     0.047 A 
ATOM      8  C   UNL     1      -3.591  -0.822   1.642  1.00  0.00     0.009 A 
ATOM      9  C   UNL     1      -3.948   1.087   0.213  1.00  0.00     0.009 A 
BRANCH   5  10
ATOM     10  O   UNL     1      -7.117   0.010   1.825  1.00  0.00    -0.497 OA
ATOM     11  C   UNL     1      -8.044   0.939   1.278  1.00  0.00     0.278 C 
ENDBRANCH   5  10
ENDBRANCH   3   4
ENDBRANCH   1   3
BRANCH   1  12
ATOM     12  C   UNL     1      -0.058  -1.038  -1.050  1.00  0.00     0.210 A 
ATOM     13  N   UNL     1       0.909  -0.307  -0.451  1.00  0.00    -0.188 NA
ATOM     14  C   UNL     1       0.280  -1.928  -2.051  1.00  0.00     0.329 A 
ATOM     15  C   UNL     1       2.191  -0.441  -0.848  1.00  0.00     0.229 A 
ATOM     16  C   UNL     1       1.603  -2.021  -2.405  1.00  0.00     0.204 A 
ATOM     17  N   UNL     1       2.566  -1.282  -1.821  1.00  0.00    -0.214 NA
BRANCH  14  18
ATOM     18  N   UNL     1      -0.693  -2.724  -2.750  1.00  0.00     0.068 N 
ATOM     19  O   UNL     1      -1.792  -2.205  -2.997  1.00  0.00    -0.258 OA
ATOM     20  O   UNL     1      -0.351  -3.862  -3.100  1.00  0.00    -0.258 OA
ENDBRANCH  14  18
BRANCH  15  21
ATOM     21  N   UNL     1       3.097   0.372  -0.176  1.00  0.00    -0.324 N 
ATOM     22  H   UNL     1       2.597   0.891   0.530  1.00  0.00     0.170 HD
BRANCH  21  23
ATOM     23  C   UNL     1       4.493   0.513  -0.191  1.00  0.00     0.044 A 
ATOM     24  C   UNL     1       5.322  -0.277  -1.001  1.00  0.00     0.026 A 
ATOM     25  C   UNL     1       5.109   1.514   0.601  1.00  0.00    -0.027 A 
ATOM     26  C   UNL     1       6.710  -0.108  -1.020  1.00  0.00     0.002 A 
ATOM     27  C   UNL     1       6.507   1.674   0.576  1.00  0.00     0.005 A 
ATOM     28  C   UNL     1       7.303   0.866  -0.230  1.00  0.00     0.000 A 
ATOM     29  C   UNL     1       4.305   2.429   1.489  1.00  0.00     0.046 C 
ENDBRANCH  21  23
ENDBRANCH  15  21
ENDBRANCH   1  12
TORSDOF 7
