REMARK SMILES c1ccc(Nc2nc(NCc3ccncc3)nc(N3CCCC3)n2)cc1
REMARK SMILES IDX 6 1 7 2 8 3 17 4 18 5 24 6 5 7 4 9 1 10 2 11 26 12 3 13
REMARK SMILES IDX 25 14 9 15 10 17 11 18 12 19 16 20 13 21 15 22 14 23 19 24
REMARK SMILES IDX 20 25 23 26 21 27 22 28
REMARK H PARENT 5 8 9 16
ROOT
ATOM      1  C   UNL     1      -1.353  -0.395  -1.001  1.00  0.00     0.233 A 
ATOM      2  N   UNL     1      -0.431  -0.881  -0.183  1.00  0.00    -0.177 NA
ATOM      3  C   UNL     1       0.484  -0.023   0.232  1.00  0.00     0.229 A 
ATOM      4  N   UNL     1       0.520   1.254  -0.113  1.00  0.00    -0.177 NA
ATOM      5  C   UNL     1      -0.431   1.669  -0.940  1.00  0.00     0.231 A 
ATOM      6  N   UNL     1      -1.390   0.873  -1.396  1.00  0.00    -0.176 NA
ENDROOT
BRANCH   1   7
ATOM      7  N   UNL     1      -2.384  -1.190  -1.499  1.00  0.00    -0.324 N 
ATOM      8  H   UNL     1      -2.982  -0.625  -2.084  1.00  0.00     0.170 HD
BRANCH   7   9
ATOM      9  C   UNL     1      -2.685  -2.555  -1.427  1.00  0.00     0.041 A 
ATOM     10  C   UNL     1      -3.439  -5.275  -1.302  1.00  0.00     0.000 A 
ATOM     11  C   UNL     1      -2.238  -4.852  -0.741  1.00  0.00     0.002 A 
ATOM     12  C   UNL     1      -4.271  -4.350  -1.922  1.00  0.00     0.002 A 
ATOM     13  C   UNL     1      -1.869  -3.503  -0.800  1.00  0.00     0.026 A 
ATOM     14  C   UNL     1      -3.896  -3.004  -1.980  1.00  0.00     0.026 A 
ENDBRANCH   7   9
ENDBRANCH   1   7
BRANCH   3  15
ATOM     15  N   UNL     1       1.447  -0.544   1.089  1.00  0.00    -0.350 N 
ATOM     16  H   UNL     1       1.073  -1.419   1.440  1.00  0.00     0.164 HD
BRANCH  15  17
ATOM     17  C   UNL     1       1.882   0.382   2.113  1.00  0.00     0.152 C 
BRANCH  17  18
ATOM     18  C   UNL     1       2.781  -0.344   3.083  1.00  0.00    -0.026 A 
ATOM     19  C   UNL     1       2.375  -0.594   4.397  1.00  0.00     0.025 A 
ATOM     20  C   UNL     1       4.041  -0.799   2.679  1.00  0.00     0.025 A 
ATOM     21  C   UNL     1       3.241  -1.271   5.242  1.00  0.00     0.111 A 
ATOM     22  C   UNL     1       4.833  -1.468   3.598  1.00  0.00     0.111 A 
ATOM     23  N   UNL     1       4.463  -1.711   4.873  1.00  0.00    -0.265 NA
ENDBRANCH  17  18
ENDBRANCH  15  17
ENDBRANCH   3  15
BRANCH   5  24
ATOM     24  N   UNL     1      -0.442   2.991  -1.312  1.00  0.00    -0.341 N 
ATOM     25  C   UNL     1       0.722   3.826  -1.075  1.00  0.00     0.120 C 
ATOM     26  C   UNL     1      -1.208   3.430  -2.468  1.00  0.00     0.120 C 
ATOM     27  C   UNL     1       0.357   5.122  -1.792  1.00  0.00     0.023 C 
ATOM     28  C   UNL     1      -0.415   4.625  -3.005  1.00  0.00     0.023 C 
ENDBRANCH   5  24
TORSDOF 6
