_i0
     RDKit          3D

 47 50  0  0  0  0  0  0  0  0999 V2000
   -3.4387   -5.2754   -1.3024 C   0  0  0  0  0  0  0  0  0  0  0  0
   -2.2383   -4.8518   -0.7409 C   0  0  0  0  0  0  0  0  0  0  0  0
   -1.8692   -3.5028   -0.8005 C   0  0  0  0  0  0  0  0  0  0  0  0
   -2.6846   -2.5547   -1.4265 C   0  0  0  0  0  0  0  0  0  0  0  0
   -2.3842   -1.1902   -1.4994 N   0  0  0  0  0  0  0  0  0  0  0  0
   -1.3526   -0.3951   -1.0014 C   0  0  0  0  0  0  0  0  0  0  0  0
   -0.4308   -0.8811   -0.1832 N   0  0  0  0  0  0  0  0  0  0  0  0
    0.4836   -0.0233    0.2321 C   0  0  0  0  0  0  0  0  0  0  0  0
    1.4468   -0.5445    1.0889 N   0  0  0  0  0  0  0  0  0  0  0  0
    1.8816    0.3821    2.1134 C   0  0  0  0  0  0  0  0  0  0  0  0
    2.7811   -0.3445    3.0835 C   0  0  0  0  0  0  0  0  0  0  0  0
    2.3750   -0.5942    4.3974 C   0  0  0  0  0  0  0  0  0  0  0  0
    3.2413   -1.2710    5.2425 C   0  0  0  0  0  0  0  0  0  0  0  0
    4.4625   -1.7113    4.8728 N   0  0  0  0  0  0  0  0  0  0  0  0
    4.8335   -1.4680    3.5978 C   0  0  0  0  0  0  0  0  0  0  0  0
    4.0410   -0.7988    2.6794 C   0  0  0  0  0  0  0  0  0  0  0  0
    0.5204    1.2541   -0.1128 N   0  0  0  0  0  0  0  0  0  0  0  0
   -0.4307    1.6693   -0.9396 C   0  0  0  0  0  0  0  0  0  0  0  0
   -0.4419    2.9906   -1.3120 N   0  0  0  0  0  0  0  0  0  0  0  0
    0.7221    3.8257   -1.0747 C   0  0  0  0  0  0  0  0  0  0  0  0
    0.3573    5.1220   -1.7920 C   0  0  0  0  0  0  0  0  0  0  0  0
   -0.4147    4.6246   -3.0053 C   0  0  0  0  0  0  0  0  0  0  0  0
   -1.2076    3.4302   -2.4684 C   0  0  0  0  0  0  0  0  0  0  0  0
   -1.3900    0.8726   -1.3961 N   0  0  0  0  0  0  0  0  0  0  0  0
   -3.8961   -3.0037   -1.9795 C   0  0  0  0  0  0  0  0  0  0  0  0
   -4.2706   -4.3497   -1.9223 C   0  0  0  0  0  0  0  0  0  0  0  0
   -3.7242   -6.3227   -1.2547 H   0  0  0  0  0  0  0  0  0  0  0  0
   -1.5821   -5.5682   -0.2535 H   0  0  0  0  0  0  0  0  0  0  0  0
   -0.9220   -3.2177   -0.3538 H   0  0  0  0  0  0  0  0  0  0  0  0
   -2.9819   -0.6245   -2.0840 H   0  0  0  0  0  0  0  0  0  0  0  0
    1.0725   -1.4195    1.4400 H   0  0  0  0  0  0  0  0  0  0  0  0
    2.4443    1.2202    1.6818 H   0  0  0  0  0  0  0  0  0  0  0  0
    1.0226    0.8032    2.6525 H   0  0  0  0  0  0  0  0  0  0  0  0
    1.4056   -0.2726    4.7632 H   0  0  0  0  0  0  0  0  0  0  0  0
    2.9658   -1.4842    6.2715 H   0  0  0  0  0  0  0  0  0  0  0  0
    5.8166   -1.8388    3.3222 H   0  0  0  0  0  0  0  0  0  0  0  0
    4.3925   -0.6419    1.6643 H   0  0  0  0  0  0  0  0  0  0  0  0
    1.6205    3.3863   -1.5257 H   0  0  0  0  0  0  0  0  0  0  0  0
    0.9008    4.0014   -0.0087 H   0  0  0  0  0  0  0  0  0  0  0  0
    1.2355    5.7156   -2.0603 H   0  0  0  0  0  0  0  0  0  0  0  0
   -0.2956    5.7350   -1.1589 H   0  0  0  0  0  0  0  0  0  0  0  0
    0.2867    4.2877   -3.7784 H   0  0  0  0  0  0  0  0  0  0  0  0
   -1.0597    5.3913   -3.4436 H   0  0  0  0  0  0  0  0  0  0  0  0
   -2.2088    3.7412   -2.1507 H   0  0  0  0  0  0  0  0  0  0  0  0
   -1.3041    2.6683   -3.2504 H   0  0  0  0  0  0  0  0  0  0  0  0
   -4.5693   -2.3004   -2.4638 H   0  0  0  0  0  0  0  0  0  0  0  0
   -5.2120   -4.6706   -2.3598 H   0  0  0  0  0  0  0  0  0  0  0  0
  1  2  2  0
  2  3  1  0
  3  4  2  0
  4  5  1  0
  5  6  1  0
  6  7  2  0
  7  8  1  0
  8  9  1  0
  9 10  1  0
 10 11  1  0
 11 12  2  0
 12 13  1  0
 13 14  2  0
 14 15  1  0
 15 16  2  0
  8 17  2  0
 17 18  1  0
 18 19  1  0
 19 20  1  0
 20 21  1  0
 21 22  1  0
 22 23  1  0
 18 24  2  0
  4 25  1  0
 25 26  2  0
 26  1  1  0
 24  6  1  0
 16 11  1  0
 23 19  1  0
  1 27  1  0
  2 28  1  0
  3 29  1  0
  5 30  1  0
  9 31  1  0
 10 32  1  0
 10 33  1  0
 12 34  1  0
 13 35  1  0
 15 36  1  0
 16 37  1  0
 20 38  1  0
 20 39  1  0
 21 40  1  0
 21 41  1  0
 22 42  1  0
 22 43  1  0
 23 44  1  0
 23 45  1  0
 25 46  1  0
 26 47  1  0
M  END
>  <ScrubInfo>  (1) 
{"isomerGroup": 0, "isomerId": 0, "confId": 0, "nr_conformers:": 1, "nr_isomers:": 9}

$$$$
_i1
     RDKit          3D

 47 50  0  0  0  0  0  0  0  0999 V2000
    0.4425   -1.4237    0.8686 N   0  0  0  0  0  0  0  0  0  0  0  0
    1.1990   -0.4580    0.3178 C   0  0  0  0  0  0  0  0  0  0  0  0
    2.5421   -0.6278    0.4913 N   0  0  0  0  0  0  0  0  0  0  0  0
    3.4831    0.2496   -0.1798 C   0  0  0  0  0  0  0  0  0  0  0  0
    4.8853   -0.1301    0.2205 C   0  0  0  0  0  0  0  0  0  0  0  0
    5.7225   -0.8256   -0.6567 C   0  0  0  0  0  0  0  0  0  0  0  0
    6.9960   -1.1663   -0.2280 C   0  0  0  0  0  0  0  0  0  0  0  0
    7.4804   -0.8713    0.9966 N   0  0  0  0  0  0  0  0  0  0  0  0
    6.6557   -0.2046    1.8318 C   0  0  0  0  0  0  0  0  0  0  0  0
    5.3680    0.1807    1.4961 C   0  0  0  0  0  0  0  0  0  0  0  0
    0.6603    0.5391   -0.3058 N   0  0  0  0  0  0  0  0  0  0  0  0
   -0.7180    0.5593   -0.3964 C   0  0  0  0  0  0  0  0  0  0  0  0
   -1.2877    1.5952   -1.0933 N   0  0  0  0  0  0  0  0  0  0  0  0
   -0.5422    2.6617   -1.7350 C   0  0  0  0  0  0  0  0  0  0  0  0
   -1.5900    3.3852   -2.5758 C   0  0  0  0  0  0  0  0  0  0  0  0
   -2.8623    3.2007   -1.7656 C   0  0  0  0  0  0  0  0  0  0  0  0
   -2.7238    1.7789   -1.2290 C   0  0  0  0  0  0  0  0  0  0  0  0
   -1.4898   -0.3446    0.1392 N   0  0  0  0  0  0  0  0  0  0  0  0
   -0.9074   -1.3607    0.8363 C   0  0  0  0  0  0  0  0  0  0  0  0
   -1.6113   -2.2530    1.4716 N   0  0  0  0  0  0  0  0  0  0  0  0
   -3.0106   -2.1627    1.4289 C   0  0  0  0  0  0  0  0  0  0  0  0
   -3.7032   -1.4435    2.4071 C   0  0  0  0  0  0  0  0  0  0  0  0
   -5.0982   -1.3807    2.3860 C   0  0  0  0  0  0  0  0  0  0  0  0
   -5.8100   -2.0484    1.3900 C   0  0  0  0  0  0  0  0  0  0  0  0
   -5.1279   -2.7806    0.4189 C   0  0  0  0  0  0  0  0  0  0  0  0
   -3.7328   -2.8410    0.4433 C   0  0  0  0  0  0  0  0  0  0  0  0
    0.8312   -2.0941    1.5075 H   0  0  0  0  0  0  0  0  0  0  0  0
    2.8518   -1.5918    0.5162 H   0  0  0  0  0  0  0  0  0  0  0  0
    3.3023    1.2968    0.0921 H   0  0  0  0  0  0  0  0  0  0  0  0
    3.3652    0.1693   -1.2672 H   0  0  0  0  0  0  0  0  0  0  0  0
    5.3977   -1.0990   -1.6553 H   0  0  0  0  0  0  0  0  0  0  0  0
    7.6808   -1.7035   -0.8783 H   0  0  0  0  0  0  0  0  0  0  0  0
    7.0691    0.0177    2.8115 H   0  0  0  0  0  0  0  0  0  0  0  0
    4.7507    0.7083    2.2166 H   0  0  0  0  0  0  0  0  0  0  0  0
   -0.1230    3.3334   -0.9775 H   0  0  0  0  0  0  0  0  0  0  0  0
    0.2688    2.2848   -2.3666 H   0  0  0  0  0  0  0  0  0  0  0  0
   -1.3398    4.4362   -2.7446 H   0  0  0  0  0  0  0  0  0  0  0  0
   -1.6942    2.8950   -3.5514 H   0  0  0  0  0  0  0  0  0  0  0  0
   -2.8826    3.9161   -0.9345 H   0  0  0  0  0  0  0  0  0  0  0  0
   -3.7704    3.3386   -2.3589 H   0  0  0  0  0  0  0  0  0  0  0  0
   -3.1257    1.0532   -1.9448 H   0  0  0  0  0  0  0  0  0  0  0  0
   -3.2533    1.6720   -0.2764 H   0  0  0  0  0  0  0  0  0  0  0  0
   -3.1477   -0.9269    3.1840 H   0  0  0  0  0  0  0  0  0  0  0  0
   -5.6258   -0.8131    3.1472 H   0  0  0  0  0  0  0  0  0  0  0  0
   -6.8955   -2.0012    1.3729 H   0  0  0  0  0  0  0  0  0  0  0  0
   -5.6788   -3.3061   -0.3559 H   0  0  0  0  0  0  0  0  0  0  0  0
   -3.2005   -3.4136   -0.3102 H   0  0  0  0  0  0  0  0  0  0  0  0
  1  2  1  0
  2  3  1  0
  3  4  1  0
  4  5  1  0
  5  6  2  0
  6  7  1  0
  7  8  2  0
  8  9  1  0
  9 10  2  0
  2 11  2  0
 11 12  1  0
 12 13  1  0
 13 14  1  0
 14 15  1  0
 15 16  1  0
 16 17  1  0
 12 18  2  0
 18 19  1  0
 19 20  2  3
 20 21  1  0
 21 22  2  0
 22 23  1  0
 23 24  2  0
 24 25  1  0
 25 26  2  0
 19  1  1  0
 26 21  1  0
 10  5  1  0
 17 13  1  0
  1 27  1  0
  3 28  1  0
  4 29  1  0
  4 30  1  0
  6 31  1  0
  7 32  1  0
  9 33  1  0
 10 34  1  0
 14 35  1  0
 14 36  1  0
 15 37  1  0
 15 38  1  0
 16 39  1  0
 16 40  1  0
 17 41  1  0
 17 42  1  0
 22 43  1  0
 23 44  1  0
 24 45  1  0
 25 46  1  0
 26 47  1  0
M  END
>  <ScrubInfo>  (2) 
{"isomerGroup": 0, "isomerId": 1, "confId": 0, "nr_conformers:": 1, "nr_isomers:": 9}

$$$$
_i2
     RDKit          3D

 47 50  0  0  0  0  0  0  0  0999 V2000
   -0.4405   -0.8046    0.7687 N   0  0  0  0  0  0  0  0  0  0  0  0
   -1.5318   -0.1110    1.1432 C   0  0  0  0  0  0  0  0  0  0  0  0
   -2.5026   -0.7689    1.8415 N   0  0  0  0  0  0  0  0  0  0  0  0
   -3.0144   -2.0621    1.6035 C   0  0  0  0  0  0  0  0  0  0  0  0
   -3.7796   -2.6675    2.6119 C   0  0  0  0  0  0  0  0  0  0  0  0
   -4.2923   -3.9573    2.4519 C   0  0  0  0  0  0  0  0  0  0  0  0
   -4.0461   -4.6623    1.2774 C   0  0  0  0  0  0  0  0  0  0  0  0
   -3.2907   -4.0764    0.2652 C   0  0  0  0  0  0  0  0  0  0  0  0
   -2.7776   -2.7859    0.4282 C   0  0  0  0  0  0  0  0  0  0  0  0
   -1.6180    1.1628    0.9089 N   0  0  0  0  0  0  0  0  0  0  0  0
   -0.5766    1.7526    0.2197 C   0  0  0  0  0  0  0  0  0  0  0  0
   -0.6968    3.0880   -0.0734 N   0  0  0  0  0  0  0  0  0  0  0  0
   -1.8532    3.8997    0.2638 C   0  0  0  0  0  0  0  0  0  0  0  0
   -1.6371    5.1911   -0.5196 C   0  0  0  0  0  0  0  0  0  0  0  0
   -0.1231    5.3088   -0.5702 C   0  0  0  0  0  0  0  0  0  0  0  0
    0.3253    3.8626   -0.7576 C   0  0  0  0  0  0  0  0  0  0  0  0
    0.4966    1.1128   -0.1576 N   0  0  0  0  0  0  0  0  0  0  0  0
    0.5970   -0.2113    0.1470 C   0  0  0  0  0  0  0  0  0  0  0  0
    1.6558   -0.8907   -0.1434 N   0  0  0  0  0  0  0  0  0  0  0  0
    2.7285   -0.1602   -0.8158 C   0  0  0  0  0  0  0  0  0  0  0  0
    3.8933   -1.0777   -1.0960 C   0  0  0  0  0  0  0  0  0  0  0  0
    4.8562   -1.3264   -0.1147 C   0  0  0  0  0  0  0  0  0  0  0  0
    5.8984   -2.1912   -0.4103 C   0  0  0  0  0  0  0  0  0  0  0  0
    6.0426   -2.8204   -1.5966 N   0  0  0  0  0  0  0  0  0  0  0  0
    5.0894   -2.5815   -2.5230 C   0  0  0  0  0  0  0  0  0  0  0  0
    4.0101   -1.7346   -2.3231 C   0  0  0  0  0  0  0  0  0  0  0  0
   -0.3073   -1.7547    1.0727 H   0  0  0  0  0  0  0  0  0  0  0  0
   -3.2282   -0.1395    2.1709 H   0  0  0  0  0  0  0  0  0  0  0  0
   -3.9708   -2.1394    3.5434 H   0  0  0  0  0  0  0  0  0  0  0  0
   -4.8792   -4.4113    3.2463 H   0  0  0  0  0  0  0  0  0  0  0  0
   -4.4438   -5.6659    1.1496 H   0  0  0  0  0  0  0  0  0  0  0  0
   -3.1035   -4.6209   -0.6573 H   0  0  0  0  0  0  0  0  0  0  0  0
   -2.2192   -2.3508   -0.3968 H   0  0  0  0  0  0  0  0  0  0  0  0
   -1.8681    4.0985    1.3412 H   0  0  0  0  0  0  0  0  0  0  0  0
   -2.7969    3.4256   -0.0254 H   0  0  0  0  0  0  0  0  0  0  0  0
   -2.0376    5.0869   -1.5353 H   0  0  0  0  0  0  0  0  0  0  0  0
   -2.1170    6.0531   -0.0482 H   0  0  0  0  0  0  0  0  0  0  0  0
    0.2279    5.9642   -1.3721 H   0  0  0  0  0  0  0  0  0  0  0  0
    0.2532    5.6993    0.3831 H   0  0  0  0  0  0  0  0  0  0  0  0
    1.3227    3.7081   -0.3329 H   0  0  0  0  0  0  0  0  0  0  0  0
    0.3444    3.5974   -1.8205 H   0  0  0  0  0  0  0  0  0  0  0  0
    3.0852    0.6733   -0.1963 H   0  0  0  0  0  0  0  0  0  0  0  0
    2.3783    0.2645   -1.7659 H   0  0  0  0  0  0  0  0  0  0  0  0
    4.7908   -0.8620    0.8633 H   0  0  0  0  0  0  0  0  0  0  0  0
    6.6670   -2.4094    0.3251 H   0  0  0  0  0  0  0  0  0  0  0  0
    5.2168   -3.1092   -3.4636 H   0  0  0  0  0  0  0  0  0  0  0  0
    3.2725   -1.5960   -3.1061 H   0  0  0  0  0  0  0  0  0  0  0  0
  1  2  1  0
  2  3  1  0
  3  4  1  0
  4  5  2  0
  5  6  1  0
  6  7  2  0
  7  8  1  0
  8  9  2  0
  2 10  2  0
 10 11  1  0
 11 12  1  0
 12 13  1  0
 13 14  1  0
 14 15  1  0
 15 16  1  0
 11 17  2  0
 17 18  1  0
 18 19  2  3
 19 20  1  0
 20 21  1  0
 21 22  2  0
 22 23  1  0
 23 24  2  0
 24 25  1  0
 25 26  2  0
 18  1  1  0
 26 21  1  0
  9  4  1  0
 16 12  1  0
  1 27  1  0
  3 28  1  0
  5 29  1  0
  6 30  1  0
  7 31  1  0
  8 32  1  0
  9 33  1  0
 13 34  1  0
 13 35  1  0
 14 36  1  0
 14 37  1  0
 15 38  1  0
 15 39  1  0
 16 40  1  0
 16 41  1  0
 20 42  1  0
 20 43  1  0
 22 44  1  0
 23 45  1  0
 25 46  1  0
 26 47  1  0
M  END
>  <ScrubInfo>  (3) 
{"isomerGroup": 0, "isomerId": 2, "confId": 0, "nr_conformers:": 1, "nr_isomers:": 9}

$$$$
_i3
     RDKit          3D

 47 50  0  0  0  0  0  0  0  0999 V2000
   -0.4542   -1.1574   -0.0142 N   0  0  0  0  0  0  0  0  0  0  0  0
    0.6647   -1.7348   -0.4989 C   0  0  0  0  0  0  0  0  0  0  0  0
    0.6270   -3.0880   -0.7170 N   0  0  0  0  0  0  0  0  0  0  0  0
    1.8050   -3.8173   -1.1881 C   0  0  0  0  0  0  0  0  0  0  0  0
    1.3865   -5.2810   -1.1235 C   0  0  0  0  0  0  0  0  0  0  0  0
   -0.0953   -5.2153   -1.4429 C   0  0  0  0  0  0  0  0  0  0  0  0
   -0.5465   -3.9519   -0.7172 C   0  0  0  0  0  0  0  0  0  0  0  0
    1.7208   -1.0174   -0.7332 N   0  0  0  0  0  0  0  0  0  0  0  0
    1.6495    0.3390   -0.4837 C   0  0  0  0  0  0  0  0  0  0  0  0
    2.8123    0.9946   -0.7907 N   0  0  0  0  0  0  0  0  0  0  0  0
    3.1648    2.3503   -0.7267 C   0  0  0  0  0  0  0  0  0  0  0  0
    2.3066    3.3712   -0.3062 C   0  0  0  0  0  0  0  0  0  0  0  0
    2.7302    4.7051   -0.2614 C   0  0  0  0  0  0  0  0  0  0  0  0
    4.0267    5.0428   -0.6356 C   0  0  0  0  0  0  0  0  0  0  0  0
    4.9006    4.0461   -1.0543 C   0  0  0  0  0  0  0  0  0  0  0  0
    4.4718    2.7156   -1.0973 C   0  0  0  0  0  0  0  0  0  0  0  0
    0.5911    0.9187   -0.0071 N   0  0  0  0  0  0  0  0  0  0  0  0
   -0.5095    0.1673    0.2653 C   0  0  0  0  0  0  0  0  0  0  0  0
   -1.4852    0.8308    0.7728 N   0  0  0  0  0  0  0  0  0  0  0  0
   -2.7198    0.1325    1.1057 C   0  0  0  0  0  0  0  0  0  0  0  0
   -3.7607    1.0423    1.7144 C   0  0  0  0  0  0  0  0  0  0  0  0
   -3.4021    2.1678    2.4620 C   0  0  0  0  0  0  0  0  0  0  0  0
   -4.4024    2.9409    3.0303 C   0  0  0  0  0  0  0  0  0  0  0  0
   -5.7203    2.6673    2.9197 N   0  0  0  0  0  0  0  0  0  0  0  0
   -6.0478    1.5732    2.2016 C   0  0  0  0  0  0  0  0  0  0  0  0
   -5.1206    0.7389    1.5940 C   0  0  0  0  0  0  0  0  0  0  0  0
   -1.2139   -1.7383    0.2767 H   0  0  0  0  0  0  0  0  0  0  0  0
    2.6823   -3.6332   -0.5594 H   0  0  0  0  0  0  0  0  0  0  0  0
    2.0351   -3.5265   -2.2196 H   0  0  0  0  0  0  0  0  0  0  0  0
    1.5350   -5.6727   -0.1100 H   0  0  0  0  0  0  0  0  0  0  0  0
    1.9467   -5.9092   -1.8213 H   0  0  0  0  0  0  0  0  0  0  0  0
   -0.2404   -5.1004   -2.5239 H   0  0  0  0  0  0  0  0  0  0  0  0
   -0.6427   -6.1040   -1.1168 H   0  0  0  0  0  0  0  0  0  0  0  0
   -1.3979   -3.4966   -1.2336 H   0  0  0  0  0  0  0  0  0  0  0  0
   -0.8357   -4.1801    0.3145 H   0  0  0  0  0  0  0  0  0  0  0  0
    3.5207    0.3726   -1.1486 H   0  0  0  0  0  0  0  0  0  0  0  0
    1.2850    3.1593   -0.0043 H   0  0  0  0  0  0  0  0  0  0  0  0
    2.0384    5.4760    0.0684 H   0  0  0  0  0  0  0  0  0  0  0  0
    4.3527    6.0786   -0.5995 H   0  0  0  0  0  0  0  0  0  0  0  0
    5.9158    4.2997   -1.3471 H   0  0  0  0  0  0  0  0  0  0  0  0
    5.1785    1.9577   -1.4269 H   0  0  0  0  0  0  0  0  0  0  0  0
   -2.5224   -0.6678    1.8300 H   0  0  0  0  0  0  0  0  0  0  0  0
   -3.1385   -0.3159    0.1957 H   0  0  0  0  0  0  0  0  0  0  0  0
   -2.3603    2.4450    2.5927 H   0  0  0  0  0  0  0  0  0  0  0  0
   -4.1590    3.8272    3.6089 H   0  0  0  0  0  0  0  0  0  0  0  0
   -7.1127    1.3740    2.1252 H   0  0  0  0  0  0  0  0  0  0  0  0
   -5.4599   -0.1269    1.0364 H   0  0  0  0  0  0  0  0  0  0  0  0
  1  2  1  0
  2  3  1  0
  3  4  1  0
  4  5  1  0
  5  6  1  0
  6  7  1  0
  2  8  2  0
  8  9  1  0
  9 10  1  0
 10 11  1  0
 11 12  2  0
 12 13  1  0
 13 14  2  0
 14 15  1  0
 15 16  2  0
  9 17  2  0
 17 18  1  0
 18 19  2  3
 19 20  1  0
 20 21  1  0
 21 22  2  0
 22 23  1  0
 23 24  2  0
 24 25  1  0
 25 26  2  0
 18  1  1  0
 26 21  1  0
  7  3  1  0
 16 11  1  0
  1 27  1  0
  4 28  1  0
  4 29  1  0
  5 30  1  0
  5 31  1  0
  6 32  1  0
  6 33  1  0
  7 34  1  0
  7 35  1  0
 10 36  1  0
 12 37  1  0
 13 38  1  0
 14 39  1  0
 15 40  1  0
 16 41  1  0
 20 42  1  0
 20 43  1  0
 22 44  1  0
 23 45  1  0
 25 46  1  0
 26 47  1  0
M  END
>  <ScrubInfo>  (4) 
{"isomerGroup": 0, "isomerId": 3, "confId": 0, "nr_conformers:": 1, "nr_isomers:": 9}

$$$$
_i4
     RDKit          3D

 47 50  0  0  0  0  0  0  0  0999 V2000
   -1.7177   -1.5545    0.5031 N   0  0  0  0  0  0  0  0  0  0  0  0
   -0.7572   -2.1069   -0.2639 C   0  0  0  0  0  0  0  0  0  0  0  0
   -0.9417   -3.4020   -0.6720 N   0  0  0  0  0  0  0  0  0  0  0  0
   -2.1206   -4.2326   -0.4720 C   0  0  0  0  0  0  0  0  0  0  0  0
   -1.9136   -5.4189   -1.4080 C   0  0  0  0  0  0  0  0  0  0  0  0
   -0.4032   -5.5611   -1.4466 C   0  0  0  0  0  0  0  0  0  0  0  0
    0.0702   -4.1121   -1.4525 C   0  0  0  0  0  0  0  0  0  0  0  0
    0.2922   -1.4106   -0.5878 N   0  0  0  0  0  0  0  0  0  0  0  0
    0.3692   -0.1230   -0.1162 C   0  0  0  0  0  0  0  0  0  0  0  0
    1.4917    0.5546   -0.4926 N   0  0  0  0  0  0  0  0  0  0  0  0
    1.5518    1.9953   -0.4607 C   0  0  0  0  0  0  0  0  0  0  0  0
    2.9117    2.4492   -0.9264 C   0  0  0  0  0  0  0  0  0  0  0  0
    3.0894    3.0167   -2.1912 C   0  0  0  0  0  0  0  0  0  0  0  0
    4.3656    3.4014   -2.5723 C   0  0  0  0  0  0  0  0  0  0  0  0
    5.4590    3.2564   -1.7942 N   0  0  0  0  0  0  0  0  0  0  0  0
    5.2683    2.6989   -0.5794 C   0  0  0  0  0  0  0  0  0  0  0  0
    4.0336    2.2840   -0.1076 C   0  0  0  0  0  0  0  0  0  0  0  0
   -0.5328    0.4485    0.6234 N   0  0  0  0  0  0  0  0  0  0  0  0
   -1.6265   -0.2895    0.9681 C   0  0  0  0  0  0  0  0  0  0  0  0
   -2.5700    0.1919    1.7252 N   0  0  0  0  0  0  0  0  0  0  0  0
   -2.4524    1.5086    2.1948 C   0  0  0  0  0  0  0  0  0  0  0  0
   -1.7611    1.7834    3.3783 C   0  0  0  0  0  0  0  0  0  0  0  0
   -1.6724    3.0914    3.8598 C   0  0  0  0  0  0  0  0  0  0  0  0
   -2.2868    4.1322    3.1644 C   0  0  0  0  0  0  0  0  0  0  0  0
   -2.9919    3.8650    1.9914 C   0  0  0  0  0  0  0  0  0  0  0  0
   -3.0779    2.5558    1.5128 C   0  0  0  0  0  0  0  0  0  0  0  0
   -2.5097   -2.0789    0.8222 H   0  0  0  0  0  0  0  0  0  0  0  0
   -3.0475   -3.7054   -0.7200 H   0  0  0  0  0  0  0  0  0  0  0  0
   -2.1664   -4.5654    0.5708 H   0  0  0  0  0  0  0  0  0  0  0  0
   -2.2925   -5.1794   -2.4090 H   0  0  0  0  0  0  0  0  0  0  0  0
   -2.4192   -6.3228   -1.0574 H   0  0  0  0  0  0  0  0  0  0  0  0
   -0.0515   -6.0696   -0.5407 H   0  0  0  0  0  0  0  0  0  0  0  0
   -0.0486   -6.1221   -2.3155 H   0  0  0  0  0  0  0  0  0  0  0  0
    0.0951   -3.7167   -2.4742 H   0  0  0  0  0  0  0  0  0  0  0  0
    1.0689   -4.0279   -1.0116 H   0  0  0  0  0  0  0  0  0  0  0  0
    1.9703    0.1063   -1.2626 H   0  0  0  0  0  0  0  0  0  0  0  0
    1.3781    2.3742    0.5541 H   0  0  0  0  0  0  0  0  0  0  0  0
    0.7718    2.4212   -1.1034 H   0  0  0  0  0  0  0  0  0  0  0  0
    2.2557    3.1590   -2.8708 H   0  0  0  0  0  0  0  0  0  0  0  0
    4.5475    3.8492   -3.5452 H   0  0  0  0  0  0  0  0  0  0  0  0
    6.1638    2.5878    0.0253 H   0  0  0  0  0  0  0  0  0  0  0  0
    3.9467    1.8338    0.8766 H   0  0  0  0  0  0  0  0  0  0  0  0
   -1.2854    0.9717    3.9204 H   0  0  0  0  0  0  0  0  0  0  0  0
   -1.1261    3.2946    4.7765 H   0  0  0  0  0  0  0  0  0  0  0  0
   -2.2195    5.1502    3.5387 H   0  0  0  0  0  0  0  0  0  0  0  0
   -3.4773    4.6724    1.4505 H   0  0  0  0  0  0  0  0  0  0  0  0
   -3.6312    2.3453    0.6025 H   0  0  0  0  0  0  0  0  0  0  0  0
  1  2  1  0
  2  3  1  0
  3  4  1  0
  4  5  1  0
  5  6  1  0
  6  7  1  0
  2  8  2  0
  8  9  1  0
  9 10  1  0
 10 11  1  0
 11 12  1  0
 12 13  2  0
 13 14  1  0
 14 15  2  0
 15 16  1  0
 16 17  2  0
  9 18  2  0
 18 19  1  0
 19 20  2  3
 20 21  1  0
 21 22  2  0
 22 23  1  0
 23 24  2  0
 24 25  1  0
 25 26  2  0
 19  1  1  0
 26 21  1  0
  7  3  1  0
 17 12  1  0
  1 27  1  0
  4 28  1  0
  4 29  1  0
  5 30  1  0
  5 31  1  0
  6 32  1  0
  6 33  1  0
  7 34  1  0
  7 35  1  0
 10 36  1  0
 11 37  1  0
 11 38  1  0
 13 39  1  0
 14 40  1  0
 16 41  1  0
 17 42  1  0
 22 43  1  0
 23 44  1  0
 24 45  1  0
 25 46  1  0
 26 47  1  0
M  END
>  <ScrubInfo>  (5) 
{"isomerGroup": 0, "isomerId": 4, "confId": 0, "nr_conformers:": 1, "nr_isomers:": 9}

$$$$
_i5
     RDKit          3D

 47 50  0  0  0  0  0  0  0  0999 V2000
   -0.1274   -1.2085   -0.1671 N   0  0  0  0  0  0  0  0  0  0  0  0
    0.1316    0.1119   -0.3138 C   0  0  0  0  0  0  0  0  0  0  0  0
    1.3941    0.4510   -0.7025 N   0  0  0  0  0  0  0  0  0  0  0  0
    2.5555   -0.0385    0.0206 C   0  0  0  0  0  0  0  0  0  0  0  0
    3.8057    0.5742   -0.5539 C   0  0  0  0  0  0  0  0  0  0  0  0
    4.2189    0.2670   -1.8548 C   0  0  0  0  0  0  0  0  0  0  0  0
    5.3748    0.8553   -2.3427 C   0  0  0  0  0  0  0  0  0  0  0  0
    6.1360    1.7138   -1.6326 N   0  0  0  0  0  0  0  0  0  0  0  0
    5.7178    2.0057   -0.3832 C   0  0  0  0  0  0  0  0  0  0  0  0
    4.5759    1.4706    0.1929 C   0  0  0  0  0  0  0  0  0  0  0  0
   -0.7652    1.0187   -0.1102 N   0  0  0  0  0  0  0  0  0  0  0  0
   -2.0019    0.5323    0.2702 C   0  0  0  0  0  0  0  0  0  0  0  0
   -2.9626    1.3486    0.5761 N   0  0  0  0  0  0  0  0  0  0  0  0
   -2.7360    2.7297    0.5189 C   0  0  0  0  0  0  0  0  0  0  0  0
   -2.9359    3.4351   -0.6713 C   0  0  0  0  0  0  0  0  0  0  0  0
   -2.7425    4.8174   -0.7175 C   0  0  0  0  0  0  0  0  0  0  0  0
   -2.3601    5.5054    0.4337 C   0  0  0  0  0  0  0  0  0  0  0  0
   -2.1764    4.8128    1.6300 C   0  0  0  0  0  0  0  0  0  0  0  0
   -2.3701    3.4303    1.6716 C   0  0  0  0  0  0  0  0  0  0  0  0
   -2.3388   -0.8011    0.3607 N   0  0  0  0  0  0  0  0  0  0  0  0
   -1.3796   -1.6444    0.1321 C   0  0  0  0  0  0  0  0  0  0  0  0
   -1.5590   -3.0039    0.1732 N   0  0  0  0  0  0  0  0  0  0  0  0
   -2.8748   -3.5808    0.4550 C   0  0  0  0  0  0  0  0  0  0  0  0
   -2.6488   -5.0832    0.3414 C   0  0  0  0  0  0  0  0  0  0  0  0
   -1.2291   -5.2415    0.8541 C   0  0  0  0  0  0  0  0  0  0  0  0
   -0.5181   -4.0177    0.2843 C   0  0  0  0  0  0  0  0  0  0  0  0
    0.4487   -1.8334   -0.7035 H   0  0  0  0  0  0  0  0  0  0  0  0
    1.4362    1.4662   -0.7944 H   0  0  0  0  0  0  0  0  0  0  0  0
    2.6310   -1.1299   -0.0531 H   0  0  0  0  0  0  0  0  0  0  0  0
    2.4622    0.2100    1.0847 H   0  0  0  0  0  0  0  0  0  0  0  0
    3.6472   -0.4090   -2.4823 H   0  0  0  0  0  0  0  0  0  0  0  0
    5.7280    0.6467   -3.3486 H   0  0  0  0  0  0  0  0  0  0  0  0
    6.3447    2.7059    0.1620 H   0  0  0  0  0  0  0  0  0  0  0  0
    4.2994    1.7553    1.2030 H   0  0  0  0  0  0  0  0  0  0  0  0
   -3.2422    2.8978   -1.5641 H   0  0  0  0  0  0  0  0  0  0  0  0
   -2.8954    5.3540   -1.6495 H   0  0  0  0  0  0  0  0  0  0  0  0
   -2.2126    6.5814    0.3999 H   0  0  0  0  0  0  0  0  0  0  0  0
   -1.8889    5.3464    2.5313 H   0  0  0  0  0  0  0  0  0  0  0  0
   -2.2388    2.8894    2.6040 H   0  0  0  0  0  0  0  0  0  0  0  0
   -3.1914   -3.3156    1.4705 H   0  0  0  0  0  0  0  0  0  0  0  0
   -3.6327   -3.2412   -0.2583 H   0  0  0  0  0  0  0  0  0  0  0  0
   -2.7064   -5.3970   -0.7079 H   0  0  0  0  0  0  0  0  0  0  0  0
   -3.3773   -5.6623    0.9154 H   0  0  0  0  0  0  0  0  0  0  0  0
   -0.7637   -6.1800    0.5407 H   0  0  0  0  0  0  0  0  0  0  0  0
   -1.2210   -5.2041    1.9502 H   0  0  0  0  0  0  0  0  0  0  0  0
    0.2992   -3.7066    0.9434 H   0  0  0  0  0  0  0  0  0  0  0  0
   -0.1103   -4.2347   -0.7090 H   0  0  0  0  0  0  0  0  0  0  0  0
  1  2  1  0
  2  3  1  0
  3  4  1  0
  4  5  1  0
  5  6  2  0
  6  7  1  0
  7  8  2  0
  8  9  1  0
  9 10  2  0
  2 11  2  0
 11 12  1  0
 12 13  2  3
 13 14  1  0
 14 15  2  0
 15 16  1  0
 16 17  2  0
 17 18  1  0
 18 19  2  0
 12 20  1  0
 20 21  2  0
 21 22  1  0
 22 23  1  0
 23 24  1  0
 24 25  1  0
 25 26  1  0
 21  1  1  0
 26 22  1  0
 10  5  1  0
 19 14  1  0
  1 27  1  0
  3 28  1  0
  4 29  1  0
  4 30  1  0
  6 31  1  0
  7 32  1  0
  9 33  1  0
 10 34  1  0
 15 35  1  0
 16 36  1  0
 17 37  1  0
 18 38  1  0
 19 39  1  0
 23 40  1  0
 23 41  1  0
 24 42  1  0
 24 43  1  0
 25 44  1  0
 25 45  1  0
 26 46  1  0
 26 47  1  0
M  END
>  <ScrubInfo>  (6) 
{"isomerGroup": 0, "isomerId": 5, "confId": 0, "nr_conformers:": 1, "nr_isomers:": 9}

$$$$
_i6
     RDKit          3D

 47 50  0  0  0  0  0  0  0  0999 V2000
    1.2192    0.3191   -0.3403 N   0  0  0  0  0  0  0  0  0  0  0  0
    0.8438   -0.9697   -0.1457 C   0  0  0  0  0  0  0  0  0  0  0  0
    1.8383   -1.8883    0.0387 N   0  0  0  0  0  0  0  0  0  0  0  0
    2.9992   -1.7471    0.8292 C   0  0  0  0  0  0  0  0  0  0  0  0
    3.1641   -0.7379    1.7865 C   0  0  0  0  0  0  0  0  0  0  0  0
    4.3478   -0.6359    2.5234 C   0  0  0  0  0  0  0  0  0  0  0  0
    5.3840   -1.5413    2.3106 C   0  0  0  0  0  0  0  0  0  0  0  0
    5.2357   -2.5523    1.3653 C   0  0  0  0  0  0  0  0  0  0  0  0
    4.0509   -2.6538    0.6319 C   0  0  0  0  0  0  0  0  0  0  0  0
   -0.4018   -1.3273   -0.2011 N   0  0  0  0  0  0  0  0  0  0  0  0
   -1.2874   -0.2949   -0.4367 C   0  0  0  0  0  0  0  0  0  0  0  0
   -2.5539   -0.5222   -0.4388 N   0  0  0  0  0  0  0  0  0  0  0  0
   -2.9823   -1.8951   -0.1821 C   0  0  0  0  0  0  0  0  0  0  0  0
   -4.4873   -2.0490   -0.2192 C   0  0  0  0  0  0  0  0  0  0  0  0
   -5.2899   -1.2290   -1.0173 C   0  0  0  0  0  0  0  0  0  0  0  0
   -6.6587   -1.4472   -1.0370 C   0  0  0  0  0  0  0  0  0  0  0  0
   -7.2775   -2.4223   -0.3363 N   0  0  0  0  0  0  0  0  0  0  0  0
   -6.4851   -3.2107    0.4200 C   0  0  0  0  0  0  0  0  0  0  0  0
   -5.1077   -3.0705    0.5067 C   0  0  0  0  0  0  0  0  0  0  0  0
   -0.9467    1.0133   -0.6899 N   0  0  0  0  0  0  0  0  0  0  0  0
    0.3201    1.2894   -0.6349 C   0  0  0  0  0  0  0  0  0  0  0  0
    0.8198    2.5451   -0.8632 N   0  0  0  0  0  0  0  0  0  0  0  0
    2.1598    3.0271   -0.5548 C   0  0  0  0  0  0  0  0  0  0  0  0
    2.0242    4.5462   -0.5194 C   0  0  0  0  0  0  0  0  0  0  0  0
    0.8924    4.8117   -1.4951 C   0  0  0  0  0  0  0  0  0  0  0  0
   -0.0630    3.6578   -1.2165 C   0  0  0  0  0  0  0  0  0  0  0  0
    2.1883    0.4797   -0.5565 H   0  0  0  0  0  0  0  0  0  0  0  0
    1.4783   -2.8378    0.0814 H   0  0  0  0  0  0  0  0  0  0  0  0
    2.3626   -0.0360    2.0039 H   0  0  0  0  0  0  0  0  0  0  0  0
    4.4546    0.1450    3.2726 H   0  0  0  0  0  0  0  0  0  0  0  0
    6.3031   -1.4636    2.8861 H   0  0  0  0  0  0  0  0  0  0  0  0
    6.0413   -3.2626    1.1971 H   0  0  0  0  0  0  0  0  0  0  0  0
    3.9588   -3.4445   -0.1097 H   0  0  0  0  0  0  0  0  0  0  0  0
   -2.5696   -2.5765   -0.9371 H   0  0  0  0  0  0  0  0  0  0  0  0
   -2.6319   -2.2094    0.8097 H   0  0  0  0  0  0  0  0  0  0  0  0
   -4.8567   -0.4280   -1.6082 H   0  0  0  0  0  0  0  0  0  0  0  0
   -7.3118   -0.8226   -1.6390 H   0  0  0  0  0  0  0  0  0  0  0  0
   -7.0021   -3.9888    0.9737 H   0  0  0  0  0  0  0  0  0  0  0  0
   -4.5330   -3.7459    1.1309 H   0  0  0  0  0  0  0  0  0  0  0  0
    2.5270    2.6522    0.4064 H   0  0  0  0  0  0  0  0  0  0  0  0
    2.8525    2.7183   -1.3453 H   0  0  0  0  0  0  0  0  0  0  0  0
    2.9522    5.0561   -0.7923 H   0  0  0  0  0  0  0  0  0  0  0  0
    1.7355    4.8744    0.4865 H   0  0  0  0  0  0  0  0  0  0  0  0
    0.4240    5.7890   -1.3504 H   0  0  0  0  0  0  0  0  0  0  0  0
    1.2640    4.7554   -2.5254 H   0  0  0  0  0  0  0  0  0  0  0  0
   -0.6752    3.4337   -2.0961 H   0  0  0  0  0  0  0  0  0  0  0  0
   -0.7199    3.8966   -0.3722 H   0  0  0  0  0  0  0  0  0  0  0  0
  1  2  1  0
  2  3  1  0
  3  4  1  0
  4  5  2  0
  5  6  1  0
  6  7  2  0
  7  8  1  0
  8  9  2  0
  2 10  2  0
 10 11  1  0
 11 12  2  3
 12 13  1  0
 13 14  1  0
 14 15  2  0
 15 16  1  0
 16 17  2  0
 17 18  1  0
 18 19  2  0
 11 20  1  0
 20 21  2  0
 21 22  1  0
 22 23  1  0
 23 24  1  0
 24 25  1  0
 25 26  1  0
 21  1  1  0
 26 22  1  0
  9  4  1  0
 19 14  1  0
  1 27  1  0
  3 28  1  0
  5 29  1  0
  6 30  1  0
  7 31  1  0
  8 32  1  0
  9 33  1  0
 13 34  1  0
 13 35  1  0
 15 36  1  0
 16 37  1  0
 18 38  1  0
 19 39  1  0
 23 40  1  0
 23 41  1  0
 24 42  1  0
 24 43  1  0
 25 44  1  0
 25 45  1  0
 26 46  1  0
 26 47  1  0
M  END
>  <ScrubInfo>  (7) 
{"isomerGroup": 0, "isomerId": 6, "confId": 0, "nr_conformers:": 1, "nr_isomers:": 9}

$$$$
_i7
     RDKit          3D

 47 50  0  0  0  0  0  0  0  0999 V2000
    0.2165   -1.1410    0.0228 N   0  0  0  0  0  0  0  0  0  0  0  0
   -0.9081   -1.8148   -0.3745 C   0  0  0  0  0  0  0  0  0  0  0  0
   -0.7972   -3.1821   -0.4560 N   0  0  0  0  0  0  0  0  0  0  0  0
   -1.9553   -4.0089   -0.8068 C   0  0  0  0  0  0  0  0  0  0  0  0
   -1.4489   -5.4379   -0.6552 C   0  0  0  0  0  0  0  0  0  0  0  0
    0.0051   -5.3172   -1.0711 C   0  0  0  0  0  0  0  0  0  0  0  0
    0.4233   -3.9770   -0.4745 C   0  0  0  0  0  0  0  0  0  0  0  0
   -2.0269   -1.2057   -0.6514 N   0  0  0  0  0  0  0  0  0  0  0  0
   -2.0207    0.1672   -0.5386 C   0  0  0  0  0  0  0  0  0  0  0  0
   -3.1542    0.7260   -0.8351 N   0  0  0  0  0  0  0  0  0  0  0  0
   -3.2695    2.1179   -0.7566 C   0  0  0  0  0  0  0  0  0  0  0  0
   -3.6981    2.7239    0.4271 C   0  0  0  0  0  0  0  0  0  0  0  0
   -3.8027    4.1134    0.5117 C   0  0  0  0  0  0  0  0  0  0  0  0
   -3.4887    4.9033   -0.5938 C   0  0  0  0  0  0  0  0  0  0  0  0
   -3.0792    4.3045   -1.7848 C   0  0  0  0  0  0  0  0  0  0  0  0
   -2.9759    2.9147   -1.8661 C   0  0  0  0  0  0  0  0  0  0  0  0
   -0.8737    0.8042   -0.1404 N   0  0  0  0  0  0  0  0  0  0  0  0
    0.3114    0.2161    0.1793 C   0  0  0  0  0  0  0  0  0  0  0  0
    1.3092    0.9312    0.5669 N   0  0  0  0  0  0  0  0  0  0  0  0
    2.5607    0.2512    0.8910 C   0  0  0  0  0  0  0  0  0  0  0  0
    3.6208    1.2199    1.3527 C   0  0  0  0  0  0  0  0  0  0  0  0
    3.3339    2.1862    2.3218 C   0  0  0  0  0  0  0  0  0  0  0  0
    4.3469    3.0343    2.7405 C   0  0  0  0  0  0  0  0  0  0  0  0
    5.6129    2.9807    2.2747 N   0  0  0  0  0  0  0  0  0  0  0  0
    5.8716    2.0403    1.3419 C   0  0  0  0  0  0  0  0  0  0  0  0
    4.9262    1.1475    0.8590 C   0  0  0  0  0  0  0  0  0  0  0  0
    1.0010   -1.6969    0.3057 H   0  0  0  0  0  0  0  0  0  0  0  0
   -2.8083   -3.8239   -0.1458 H   0  0  0  0  0  0  0  0  0  0  0  0
   -2.2535   -3.8139   -1.8434 H   0  0  0  0  0  0  0  0  0  0  0  0
   -1.5148   -5.7541    0.3928 H   0  0  0  0  0  0  0  0  0  0  0  0
   -2.0106   -6.1496   -1.2664 H   0  0  0  0  0  0  0  0  0  0  0  0
    0.0798   -5.2815   -2.1648 H   0  0  0  0  0  0  0  0  0  0  0  0
    0.6223   -6.1459   -0.7133 H   0  0  0  0  0  0  0  0  0  0  0  0
    1.2103   -3.5174   -1.0816 H   0  0  0  0  0  0  0  0  0  0  0  0
    0.7928   -4.1074    0.5486 H   0  0  0  0  0  0  0  0  0  0  0  0
   -3.9552    2.1057    1.2832 H   0  0  0  0  0  0  0  0  0  0  0  0
   -4.1370    4.5769    1.4361 H   0  0  0  0  0  0  0  0  0  0  0  0
   -3.5751    5.9852   -0.5311 H   0  0  0  0  0  0  0  0  0  0  0  0
   -2.8485    4.9172   -2.6522 H   0  0  0  0  0  0  0  0  0  0  0  0
   -2.6699    2.4455   -2.7974 H   0  0  0  0  0  0  0  0  0  0  0  0
   -0.9023    1.8083   -0.0607 H   0  0  0  0  0  0  0  0  0  0  0  0
    2.4071   -0.4806    1.6942 H   0  0  0  0  0  0  0  0  0  0  0  0
    2.9231   -0.2868    0.0060 H   0  0  0  0  0  0  0  0  0  0  0  0
    2.3354    2.2826    2.7361 H   0  0  0  0  0  0  0  0  0  0  0  0
    4.1593    3.8018    3.4856 H   0  0  0  0  0  0  0  0  0  0  0  0
    6.8954    2.0200    0.9795 H   0  0  0  0  0  0  0  0  0  0  0  0
    5.2097    0.4170    0.1093 H   0  0  0  0  0  0  0  0  0  0  0  0
  1  2  1  0
  2  3  1  0
  3  4  1  0
  4  5  1  0
  5  6  1  0
  6  7  1  0
  2  8  2  0
  8  9  1  0
  9 10  2  3
 10 11  1  0
 11 12  2  0
 12 13  1  0
 13 14  2  0
 14 15  1  0
 15 16  2  0
  9 17  1  0
 17 18  1  0
 18 19  2  3
 19 20  1  0
 20 21  1  0
 21 22  2  0
 22 23  1  0
 23 24  2  0
 24 25  1  0
 25 26  2  0
 18  1  1  0
 26 21  1  0
  7  3  1  0
 16 11  1  0
  1 27  1  0
  4 28  1  0
  4 29  1  0
  5 30  1  0
  5 31  1  0
  6 32  1  0
  6 33  1  0
  7 34  1  0
  7 35  1  0
 12 36  1  0
 13 37  1  0
 14 38  1  0
 15 39  1  0
 16 40  1  0
 17 41  1  0
 20 42  1  0
 20 43  1  0
 22 44  1  0
 23 45  1  0
 25 46  1  0
 26 47  1  0
M  END
>  <ScrubInfo>  (8) 
{"isomerGroup": 0, "isomerId": 7, "confId": 0, "nr_conformers:": 1, "nr_isomers:": 9}

$$$$
_i8
     RDKit          3D

 47 50  0  0  0  0  0  0  0  0999 V2000
   -1.7994   -1.2344    0.7636 N   0  0  0  0  0  0  0  0  0  0  0  0
   -0.9128   -2.0757    0.1540 C   0  0  0  0  0  0  0  0  0  0  0  0
   -1.2722   -3.3991    0.0876 N   0  0  0  0  0  0  0  0  0  0  0  0
   -0.3735   -4.4011   -0.4879 C   0  0  0  0  0  0  0  0  0  0  0  0
   -1.0464   -5.7306   -0.1683 C   0  0  0  0  0  0  0  0  0  0  0  0
   -2.5211   -5.3768   -0.2187 C   0  0  0  0  0  0  0  0  0  0  0  0
   -2.5624   -3.9894    0.4141 C   0  0  0  0  0  0  0  0  0  0  0  0
    0.2194   -1.6504   -0.3353 N   0  0  0  0  0  0  0  0  0  0  0  0
    0.4771   -0.3034   -0.2149 C   0  0  0  0  0  0  0  0  0  0  0  0
    1.6054    0.0461   -0.7237 N   0  0  0  0  0  0  0  0  0  0  0  0
    2.0048    1.4472   -0.6712 C   0  0  0  0  0  0  0  0  0  0  0  0
    3.3384    1.7074   -1.3322 C   0  0  0  0  0  0  0  0  0  0  0  0
    4.0676    2.8564   -1.0087 C   0  0  0  0  0  0  0  0  0  0  0  0
    5.2712    3.0897   -1.6579 C   0  0  0  0  0  0  0  0  0  0  0  0
    5.7889    2.2752   -2.6007 N   0  0  0  0  0  0  0  0  0  0  0  0
    5.0673    1.1749   -2.9053 C   0  0  0  0  0  0  0  0  0  0  0  0
    3.8547    0.8569   -2.3138 C   0  0  0  0  0  0  0  0  0  0  0  0
   -0.4392    0.5084    0.4022 N   0  0  0  0  0  0  0  0  0  0  0  0
   -1.6302    0.1074    0.9418 C   0  0  0  0  0  0  0  0  0  0  0  0
   -2.5281    0.8179    1.5540 N   0  0  0  0  0  0  0  0  0  0  0  0
   -2.2948    2.1906    1.7081 C   0  0  0  0  0  0  0  0  0  0  0  0
   -1.6369    2.6707    2.8433 C   0  0  0  0  0  0  0  0  0  0  0  0
   -1.3861    4.0361    2.9893 C   0  0  0  0  0  0  0  0  0  0  0  0
   -1.8020    4.9294    2.0025 C   0  0  0  0  0  0  0  0  0  0  0  0
   -2.4746    4.4593    0.8751 C   0  0  0  0  0  0  0  0  0  0  0  0
   -2.7242    3.0933    0.7319 C   0  0  0  0  0  0  0  0  0  0  0  0
   -2.6347   -1.6123    1.1748 H   0  0  0  0  0  0  0  0  0  0  0  0
    0.6294   -4.3576   -0.0505 H   0  0  0  0  0  0  0  0  0  0  0  0
   -0.2997   -4.2557   -1.5717 H   0  0  0  0  0  0  0  0  0  0  0  0
   -0.7739   -6.0592    0.8419 H   0  0  0  0  0  0  0  0  0  0  0  0
   -0.7720   -6.5202   -0.8730 H   0  0  0  0  0  0  0  0  0  0  0  0
   -2.8580   -5.3251   -1.2612 H   0  0  0  0  0  0  0  0  0  0  0  0
   -3.1518   -6.0972    0.3095 H   0  0  0  0  0  0  0  0  0  0  0  0
   -2.6703   -4.0631    1.5018 H   0  0  0  0  0  0  0  0  0  0  0  0
   -3.3993   -3.4104    0.0103 H   0  0  0  0  0  0  0  0  0  0  0  0
    1.2607    2.0730   -1.1798 H   0  0  0  0  0  0  0  0  0  0  0  0
    2.0746    1.7645    0.3771 H   0  0  0  0  0  0  0  0  0  0  0  0
    3.7115    3.5602   -0.2643 H   0  0  0  0  0  0  0  0  0  0  0  0
    5.8676    3.9682   -1.4297 H   0  0  0  0  0  0  0  0  0  0  0  0
    5.5006    0.5312   -3.6650 H   0  0  0  0  0  0  0  0  0  0  0  0
    3.3260   -0.0444   -2.6095 H   0  0  0  0  0  0  0  0  0  0  0  0
   -0.2184    1.4852    0.4824 H   0  0  0  0  0  0  0  0  0  0  0  0
   -1.3225    1.9758    3.6176 H   0  0  0  0  0  0  0  0  0  0  0  0
   -0.8755    4.4026    3.8762 H   0  0  0  0  0  0  0  0  0  0  0  0
   -1.6139    5.9941    2.1187 H   0  0  0  0  0  0  0  0  0  0  0  0
   -2.8129    5.1559    0.1122 H   0  0  0  0  0  0  0  0  0  0  0  0
   -3.2583    2.7284   -0.1415 H   0  0  0  0  0  0  0  0  0  0  0  0
  1  2  1  0
  2  3  1  0
  3  4  1  0
  4  5  1  0
  5  6  1  0
  6  7  1  0
  2  8  2  0
  8  9  1  0
  9 10  2  3
 10 11  1  0
 11 12  1  0
 12 13  2  0
 13 14  1  0
 14 15  2  0
 15 16  1  0
 16 17  2  0
  9 18  1  0
 18 19  1  0
 19 20  2  3
 20 21  1  0
 21 22  2  0
 22 23  1  0
 23 24  2  0
 24 25  1  0
 25 26  2  0
 19  1  1  0
 26 21  1  0
  7  3  1  0
 17 12  1  0
  1 27  1  0
  4 28  1  0
  4 29  1  0
  5 30  1  0
  5 31  1  0
  6 32  1  0
  6 33  1  0
  7 34  1  0
  7 35  1  0
 11 36  1  0
 11 37  1  0
 13 38  1  0
 14 39  1  0
 16 40  1  0
 17 41  1  0
 18 42  1  0
 22 43  1  0
 23 44  1  0
 24 45  1  0
 25 46  1  0
 26 47  1  0
M  END
>  <ScrubInfo>  (9) 
{"isomerGroup": 0, "isomerId": 8, "confId": 0, "nr_conformers:": 1, "nr_isomers:": 9}

$$$$
