_i0
     RDKit          3D

 42 44  0  0  0  0  0  0  0  0999 V2000
    5.5283   -1.9714    0.8421 C   0  0  0  0  0  0  0  0  0  0  0  0
    4.0335   -2.1102    1.0850 C   0  0  0  0  0  0  0  0  0  0  0  0
    3.1810   -1.7826   -0.1427 C   0  0  0  0  0  0  0  0  0  0  0  0
    3.2862   -0.3190   -0.5787 C   0  0  0  0  0  0  0  0  0  0  0  0
    2.3864   -0.0508   -1.6887 N   0  0  0  0  0  0  0  0  0  0  0  0
    1.1393    0.4641   -1.3567 C   0  0  0  0  0  0  0  0  0  0  0  0
    0.5481    0.0967   -0.2037 N   0  0  0  0  0  0  0  0  0  0  0  0
   -0.6858    0.5605    0.1151 C   0  0  0  0  0  0  0  0  0  0  0  0
   -1.2230    0.1260    1.3306 N   0  0  0  0  0  0  0  0  0  0  0  0
   -2.5124   -0.3415    1.6559 C   0  0  0  0  0  0  0  0  0  0  0  0
   -3.5306   -0.5343    0.7143 C   0  0  0  0  0  0  0  0  0  0  0  0
   -4.8027   -0.9570    1.1163 C   0  0  0  0  0  0  0  0  0  0  0  0
   -5.0637   -1.1856    2.4627 C   0  0  0  0  0  0  0  0  0  0  0  0
   -6.2835   -1.5905    2.8381 F   0  0  0  0  0  0  0  0  0  0  0  0
   -4.0787   -1.0055    3.4195 C   0  0  0  0  0  0  0  0  0  0  0  0
   -2.8185   -0.5858    3.0087 C   0  0  0  0  0  0  0  0  0  0  0  0
   -1.8650   -0.4167    3.9389 F   0  0  0  0  0  0  0  0  0  0  0  0
   -1.2723    1.4862   -0.7503 C   0  0  0  0  0  0  0  0  0  0  0  0
   -2.4254    2.2954   -0.8178 C   0  0  0  0  0  0  0  0  0  0  0  0
   -2.4837    3.0286   -1.9357 N   0  0  0  0  0  0  0  0  0  0  0  0
   -1.3365    2.7046   -2.5763 N   0  0  0  0  0  0  0  0  0  0  0  0
   -1.0331    3.3220   -3.8427 C   0  0  0  0  0  0  0  0  0  0  0  0
   -0.5680    1.7996   -1.8962 C   0  0  0  0  0  0  0  0  0  0  0  0
    0.6296    1.3148   -2.2562 N   0  0  0  0  0  0  0  0  0  0  0  0
    5.8095   -0.9309    0.6551 H   0  0  0  0  0  0  0  0  0  0  0  0
    6.0846   -2.3112    1.7217 H   0  0  0  0  0  0  0  0  0  0  0  0
    5.8455   -2.5759   -0.0135 H   0  0  0  0  0  0  0  0  0  0  0  0
    3.7391   -1.4696    1.9244 H   0  0  0  0  0  0  0  0  0  0  0  0
    3.8245   -3.1435    1.3869 H   0  0  0  0  0  0  0  0  0  0  0  0
    3.4675   -2.4360   -0.9766 H   0  0  0  0  0  0  0  0  0  0  0  0
    2.1390   -2.0302    0.0924 H   0  0  0  0  0  0  0  0  0  0  0  0
    4.3059   -0.1262   -0.9314 H   0  0  0  0  0  0  0  0  0  0  0  0
    3.1192    0.3642    0.2639 H   0  0  0  0  0  0  0  0  0  0  0  0
    2.7567    0.5651   -2.4046 H   0  0  0  0  0  0  0  0  0  0  0  0
   -0.5020   -0.3670    1.8541 H   0  0  0  0  0  0  0  0  0  0  0  0
   -3.3497   -0.3937   -0.3475 H   0  0  0  0  0  0  0  0  0  0  0  0
   -5.5889   -1.1142    0.3834 H   0  0  0  0  0  0  0  0  0  0  0  0
   -4.2850   -1.1870    4.4672 H   0  0  0  0  0  0  0  0  0  0  0  0
   -3.2277    2.3810   -0.0962 H   0  0  0  0  0  0  0  0  0  0  0  0
   -0.9161    4.3965   -3.6808 H   0  0  0  0  0  0  0  0  0  0  0  0
   -1.8613    3.1267   -4.5287 H   0  0  0  0  0  0  0  0  0  0  0  0
   -0.1102    2.9046   -4.2515 H   0  0  0  0  0  0  0  0  0  0  0  0
  1  2  1  0
  2  3  1  0
  3  4  1  0
  4  5  1  0
  5  6  1  0
  6  7  2  0
  7  8  1  0
  8  9  1  0
  9 10  1  0
 10 11  2  0
 11 12  1  0
 12 13  2  0
 13 14  1  0
 13 15  1  0
 15 16  2  0
 16 17  1  0
  8 18  2  0
 18 19  1  0
 19 20  2  0
 20 21  1  0
 21 22  1  0
 21 23  1  0
 23 24  2  0
 24  6  1  0
 16 10  1  0
 23 18  1  0
  1 25  1  0
  1 26  1  0
  1 27  1  0
  2 28  1  0
  2 29  1  0
  3 30  1  0
  3 31  1  0
  4 32  1  0
  4 33  1  0
  5 34  1  0
  9 35  1  0
 11 36  1  0
 12 37  1  0
 15 38  1  0
 19 39  1  0
 22 40  1  0
 22 41  1  0
 22 42  1  0
M  END
>  <ScrubInfo>  (1) 
{"isomerGroup": 0, "isomerId": 0, "confId": 0, "nr_conformers:": 1, "nr_isomers:": 9}

$$$$
_i1
     RDKit          3D

 42 44  0  0  0  0  0  0  0  0999 V2000
    0.3356   -0.2106   -0.4986 N   0  0  0  0  0  0  0  0  0  0  0  0
   -1.0079   -0.5299   -0.5612 C   0  0  0  0  0  0  0  0  0  0  0  0
   -1.9186    0.3440   -1.1190 N   0  0  0  0  0  0  0  0  0  0  0  0
   -3.0248    0.9518   -0.4745 C   0  0  0  0  0  0  0  0  0  0  0  0
   -3.4288    0.6531    0.8334 C   0  0  0  0  0  0  0  0  0  0  0  0
   -4.5732    1.2482    1.3771 C   0  0  0  0  0  0  0  0  0  0  0  0
   -5.3249    2.1346    0.6131 C   0  0  0  0  0  0  0  0  0  0  0  0
   -6.4177    2.6980    1.1427 F   0  0  0  0  0  0  0  0  0  0  0  0
   -4.9586    2.4432   -0.6865 C   0  0  0  0  0  0  0  0  0  0  0  0
   -3.8203    1.8474   -1.2164 C   0  0  0  0  0  0  0  0  0  0  0  0
   -3.4614    2.1489   -2.4748 F   0  0  0  0  0  0  0  0  0  0  0  0
   -1.3291   -1.7524   -0.1227 C   0  0  0  0  0  0  0  0  0  0  0  0
   -2.5216   -2.6026   -0.0479 C   0  0  0  0  0  0  0  0  0  0  0  0
   -2.2789   -3.7785    0.4746 N   0  0  0  0  0  0  0  0  0  0  0  0
   -0.9146   -3.7616    0.8142 N   0  0  0  0  0  0  0  0  0  0  0  0
   -0.2516   -5.0107    1.1033 C   0  0  0  0  0  0  0  0  0  0  0  0
   -0.2576   -2.6034    0.4299 C   0  0  0  0  0  0  0  0  0  0  0  0
    0.9885   -2.2847    0.4992 N   0  0  0  0  0  0  0  0  0  0  0  0
    1.3118   -1.0316    0.0264 C   0  0  0  0  0  0  0  0  0  0  0  0
    2.5612   -0.7527    0.1392 N   0  0  0  0  0  0  0  0  0  0  0  0
    3.0520    0.5390   -0.3224 C   0  0  0  0  0  0  0  0  0  0  0  0
    4.5642    0.5802   -0.1013 C   0  0  0  0  0  0  0  0  0  0  0  0
    5.2256    1.8436   -0.6544 C   0  0  0  0  0  0  0  0  0  0  0  0
    4.7887    3.1167    0.0536 C   0  0  0  0  0  0  0  0  0  0  0  0
    0.5933    0.7238   -0.7672 H   0  0  0  0  0  0  0  0  0  0  0  0
   -1.5181    0.9746   -1.8119 H   0  0  0  0  0  0  0  0  0  0  0  0
   -2.8588   -0.0238    1.4635 H   0  0  0  0  0  0  0  0  0  0  0  0
   -4.8813    1.0241    2.3946 H   0  0  0  0  0  0  0  0  0  0  0  0
   -5.5483    3.1328   -1.2782 H   0  0  0  0  0  0  0  0  0  0  0  0
   -3.4924   -2.2563   -0.4249 H   0  0  0  0  0  0  0  0  0  0  0  0
    0.0556   -5.5029    0.1753 H   0  0  0  0  0  0  0  0  0  0  0  0
   -0.9187   -5.6856    1.6493 H   0  0  0  0  0  0  0  0  0  0  0  0
    0.6364   -4.8471    1.7222 H   0  0  0  0  0  0  0  0  0  0  0  0
    2.5720    1.3463    0.2415 H   0  0  0  0  0  0  0  0  0  0  0  0
    2.8370    0.6732   -1.3891 H   0  0  0  0  0  0  0  0  0  0  0  0
    4.7839    0.4840    0.9694 H   0  0  0  0  0  0  0  0  0  0  0  0
    5.0214   -0.2910   -0.5878 H   0  0  0  0  0  0  0  0  0  0  0  0
    6.3122    1.7414   -0.5485 H   0  0  0  0  0  0  0  0  0  0  0  0
    5.0191    1.9338   -1.7272 H   0  0  0  0  0  0  0  0  0  0  0  0
    5.3645    3.9699   -0.3193 H   0  0  0  0  0  0  0  0  0  0  0  0
    3.7303    3.3302   -0.1216 H   0  0  0  0  0  0  0  0  0  0  0  0
    4.9537    3.0427    1.1331 H   0  0  0  0  0  0  0  0  0  0  0  0
  1  2  1  0
  2  3  1  0
  3  4  1  0
  4  5  2  0
  5  6  1  0
  6  7  2  0
  7  8  1  0
  7  9  1  0
  9 10  2  0
 10 11  1  0
  2 12  2  0
 12 13  1  0
 13 14  2  0
 14 15  1  0
 15 16  1  0
 15 17  1  0
 17 18  2  0
 18 19  1  0
 19 20  2  3
 20 21  1  0
 21 22  1  0
 22 23  1  0
 23 24  1  0
 19  1  1  0
 10  4  1  0
 17 12  1  0
  1 25  1  0
  3 26  1  0
  5 27  1  0
  6 28  1  0
  9 29  1  0
 13 30  1  0
 16 31  1  0
 16 32  1  0
 16 33  1  0
 21 34  1  0
 21 35  1  0
 22 36  1  0
 22 37  1  0
 23 38  1  0
 23 39  1  0
 24 40  1  0
 24 41  1  0
 24 42  1  0
M  END
>  <ScrubInfo>  (2) 
{"isomerGroup": 0, "isomerId": 1, "confId": 0, "nr_conformers:": 1, "nr_isomers:": 9}

$$$$
_i2
     RDKit          3D

 42 44  0  0  0  0  0  0  0  0999 V2000
    0.1523    0.2213   -0.5482 N   0  0  0  0  0  0  0  0  0  0  0  0
    0.9576   -0.8704   -0.3501 C   0  0  0  0  0  0  0  0  0  0  0  0
    2.2789   -0.7162   -0.6628 N   0  0  0  0  0  0  0  0  0  0  0  0
    3.0636    0.4135   -0.1823 C   0  0  0  0  0  0  0  0  0  0  0  0
    4.5060    0.2793   -0.6696 C   0  0  0  0  0  0  0  0  0  0  0  0
    5.3650    1.4509   -0.1960 C   0  0  0  0  0  0  0  0  0  0  0  0
    6.8009    1.3198   -0.6783 C   0  0  0  0  0  0  0  0  0  0  0  0
    0.5303   -2.0247    0.0956 N   0  0  0  0  0  0  0  0  0  0  0  0
   -0.8070   -1.9942    0.3596 C   0  0  0  0  0  0  0  0  0  0  0  0
   -1.6971   -0.9420    0.1973 C   0  0  0  0  0  0  0  0  0  0  0  0
   -2.9330   -1.4684    0.6115 C   0  0  0  0  0  0  0  0  0  0  0  0
   -2.8486   -2.7441    1.0091 N   0  0  0  0  0  0  0  0  0  0  0  0
   -1.5388   -3.0397    0.8486 N   0  0  0  0  0  0  0  0  0  0  0  0
   -1.0672   -4.3600    1.1820 C   0  0  0  0  0  0  0  0  0  0  0  0
   -1.2015    0.3168   -0.3262 C   0  0  0  0  0  0  0  0  0  0  0  0
   -1.8577    1.4045   -0.5945 N   0  0  0  0  0  0  0  0  0  0  0  0
   -3.2274    1.5305   -0.3423 C   0  0  0  0  0  0  0  0  0  0  0  0
   -4.1456    1.3046   -1.3737 C   0  0  0  0  0  0  0  0  0  0  0  0
   -5.5137    1.4726   -1.1467 C   0  0  0  0  0  0  0  0  0  0  0  0
   -5.9586    1.8818    0.1074 C   0  0  0  0  0  0  0  0  0  0  0  0
   -7.2710    2.0432    0.3183 F   0  0  0  0  0  0  0  0  0  0  0  0
   -5.0655    2.1302    1.1401 C   0  0  0  0  0  0  0  0  0  0  0  0
   -3.7056    1.9603    0.9056 C   0  0  0  0  0  0  0  0  0  0  0  0
   -2.8444    2.2036    1.9056 F   0  0  0  0  0  0  0  0  0  0  0  0
    0.5519    1.0162   -1.0177 H   0  0  0  0  0  0  0  0  0  0  0  0
    2.7507   -1.5995   -0.4754 H   0  0  0  0  0  0  0  0  0  0  0  0
    2.6426    1.3550   -0.5512 H   0  0  0  0  0  0  0  0  0  0  0  0
    3.0379    0.4372    0.9133 H   0  0  0  0  0  0  0  0  0  0  0  0
    4.9336   -0.6632   -0.3047 H   0  0  0  0  0  0  0  0  0  0  0  0
    4.5208    0.2278   -1.7657 H   0  0  0  0  0  0  0  0  0  0  0  0
    5.3566    1.4999    0.8991 H   0  0  0  0  0  0  0  0  0  0  0  0
    4.9461    2.3937   -0.5664 H   0  0  0  0  0  0  0  0  0  0  0  0
    7.3972    2.1682   -0.3283 H   0  0  0  0  0  0  0  0  0  0  0  0
    6.8471    1.3002   -1.7718 H   0  0  0  0  0  0  0  0  0  0  0  0
    7.2602    0.4018   -0.2981 H   0  0  0  0  0  0  0  0  0  0  0  0
   -3.9050   -0.9983    0.6456 H   0  0  0  0  0  0  0  0  0  0  0  0
    0.0182   -4.4114    1.0728 H   0  0  0  0  0  0  0  0  0  0  0  0
   -1.3427   -4.5733    2.2180 H   0  0  0  0  0  0  0  0  0  0  0  0
   -1.5433   -5.0744    0.5057 H   0  0  0  0  0  0  0  0  0  0  0  0
   -3.7912    0.9995   -2.3550 H   0  0  0  0  0  0  0  0  0  0  0  0
   -6.2328    1.2933   -1.9404 H   0  0  0  0  0  0  0  0  0  0  0  0
   -5.4200    2.4540    2.1112 H   0  0  0  0  0  0  0  0  0  0  0  0
  1  2  1  0
  2  3  1  0
  3  4  1  0
  4  5  1  0
  5  6  1  0
  6  7  1  0
  2  8  2  0
  8  9  1  0
  9 10  2  0
 10 11  1  0
 11 12  2  0
 12 13  1  0
 13 14  1  0
 10 15  1  0
 15 16  2  3
 16 17  1  0
 17 18  2  0
 18 19  1  0
 19 20  2  0
 20 21  1  0
 20 22  1  0
 22 23  2  0
 23 24  1  0
 15  1  1  0
 23 17  1  0
 13  9  1  0
  1 25  1  0
  3 26  1  0
  4 27  1  0
  4 28  1  0
  5 29  1  0
  5 30  1  0
  6 31  1  0
  6 32  1  0
  7 33  1  0
  7 34  1  0
  7 35  1  0
 11 36  1  0
 14 37  1  0
 14 38  1  0
 14 39  1  0
 18 40  1  0
 19 41  1  0
 22 42  1  0
M  END
>  <ScrubInfo>  (3) 
{"isomerGroup": 0, "isomerId": 2, "confId": 0, "nr_conformers:": 1, "nr_isomers:": 9}

$$$$
_i3
     RDKit          3D

 42 44  0  0  0  0  0  0  0  0999 V2000
    0.9589   -1.6622    0.1949 N   0  0  0  0  0  0  0  0  0  0  0  0
    0.6135   -0.5524   -0.5595 C   0  0  0  0  0  0  0  0  0  0  0  0
    1.3847    0.0950   -1.3573 N   0  0  0  0  0  0  0  0  0  0  0  0
    2.7631   -0.3106   -1.5854 C   0  0  0  0  0  0  0  0  0  0  0  0
    3.6921    0.2851   -0.5281 C   0  0  0  0  0  0  0  0  0  0  0  0
    3.7439    1.8136   -0.5864 C   0  0  0  0  0  0  0  0  0  0  0  0
    4.7122    2.3755    0.4429 C   0  0  0  0  0  0  0  0  0  0  0  0
   -0.6630   -0.0172   -0.4942 N   0  0  0  0  0  0  0  0  0  0  0  0
   -1.5697   -0.5531    0.2686 C   0  0  0  0  0  0  0  0  0  0  0  0
   -2.8632   -0.1240    0.4549 N   0  0  0  0  0  0  0  0  0  0  0  0
   -3.4807    0.9004   -0.2895 C   0  0  0  0  0  0  0  0  0  0  0  0
   -4.2145    1.8891    0.3860 C   0  0  0  0  0  0  0  0  0  0  0  0
   -4.7912    2.9518   -0.3158 C   0  0  0  0  0  0  0  0  0  0  0  0
   -4.6346    3.0332   -1.6951 C   0  0  0  0  0  0  0  0  0  0  0  0
   -5.1926    4.0523   -2.3609 F   0  0  0  0  0  0  0  0  0  0  0  0
   -3.9188    2.0714   -2.3897 C   0  0  0  0  0  0  0  0  0  0  0  0
   -3.3473    1.0163   -1.6852 C   0  0  0  0  0  0  0  0  0  0  0  0
   -2.7243    0.0580   -2.3879 F   0  0  0  0  0  0  0  0  0  0  0  0
   -1.2421   -1.7147    1.0684 C   0  0  0  0  0  0  0  0  0  0  0  0
   -1.8920   -2.5754    1.9671 C   0  0  0  0  0  0  0  0  0  0  0  0
   -1.0776   -3.5307    2.4403 N   0  0  0  0  0  0  0  0  0  0  0  0
    0.1016   -3.2914    1.8146 N   0  0  0  0  0  0  0  0  0  0  0  0
    1.2228   -4.1573    2.0771 C   0  0  0  0  0  0  0  0  0  0  0  0
    0.0281   -2.2147    0.9897 C   0  0  0  0  0  0  0  0  0  0  0  0
    1.9070   -1.9953    0.1206 H   0  0  0  0  0  0  0  0  0  0  0  0
    2.8694   -1.4009   -1.6181 H   0  0  0  0  0  0  0  0  0  0  0  0
    3.0646    0.0420   -2.5788 H   0  0  0  0  0  0  0  0  0  0  0  0
    4.7009   -0.1149   -0.6874 H   0  0  0  0  0  0  0  0  0  0  0  0
    3.3776   -0.0321    0.4732 H   0  0  0  0  0  0  0  0  0  0  0  0
    2.7486    2.2340   -0.4033 H   0  0  0  0  0  0  0  0  0  0  0  0
    4.0549    2.1375   -1.5863 H   0  0  0  0  0  0  0  0  0  0  0  0
    4.7349    3.4683    0.3848 H   0  0  0  0  0  0  0  0  0  0  0  0
    4.4119    2.0954    1.4577 H   0  0  0  0  0  0  0  0  0  0  0  0
    5.7277    2.0051    0.2700 H   0  0  0  0  0  0  0  0  0  0  0  0
   -3.2856   -0.3056    1.3536 H   0  0  0  0  0  0  0  0  0  0  0  0
   -4.3271    1.8534    1.4666 H   0  0  0  0  0  0  0  0  0  0  0  0
   -5.3534    3.7209    0.2052 H   0  0  0  0  0  0  0  0  0  0  0  0
   -3.8089    2.1323   -3.4657 H   0  0  0  0  0  0  0  0  0  0  0  0
   -2.9194   -2.5618    2.3057 H   0  0  0  0  0  0  0  0  0  0  0  0
    0.9583   -5.1685    1.7578 H   0  0  0  0  0  0  0  0  0  0  0  0
    1.4306   -4.1368    3.1499 H   0  0  0  0  0  0  0  0  0  0  0  0
    2.0989   -3.8112    1.5249 H   0  0  0  0  0  0  0  0  0  0  0  0
  1  2  1  0
  2  3  2  3
  3  4  1  0
  4  5  1  0
  5  6  1  0
  6  7  1  0
  2  8  1  0
  8  9  2  0
  9 10  1  0
 10 11  1  0
 11 12  2  0
 12 13  1  0
 13 14  2  0
 14 15  1  0
 14 16  1  0
 16 17  2  0
 17 18  1  0
  9 19  1  0
 19 20  1  0
 20 21  2  0
 21 22  1  0
 22 23  1  0
 22 24  1  0
 24  1  1  0
 17 11  1  0
 24 19  2  0
  1 25  1  0
  4 26  1  0
  4 27  1  0
  5 28  1  0
  5 29  1  0
  6 30  1  0
  6 31  1  0
  7 32  1  0
  7 33  1  0
  7 34  1  0
 10 35  1  0
 12 36  1  0
 13 37  1  0
 16 38  1  0
 20 39  1  0
 23 40  1  0
 23 41  1  0
 23 42  1  0
M  END
>  <ScrubInfo>  (4) 
{"isomerGroup": 0, "isomerId": 3, "confId": 0, "nr_conformers:": 1, "nr_isomers:": 9}

$$$$
_i4
     RDKit          3D

 42 44  0  0  0  0  0  0  0  0999 V2000
   -1.2114   -3.8199    1.9936 N   0  0  0  0  0  0  0  0  0  0  0  0
   -2.0142   -2.7115    1.7425 C   0  0  0  0  0  0  0  0  0  0  0  0
   -1.4780   -1.8749    0.8448 C   0  0  0  0  0  0  0  0  0  0  0  0
   -1.8100   -0.6051    0.2427 C   0  0  0  0  0  0  0  0  0  0  0  0
   -2.9243    0.0096    0.4925 N   0  0  0  0  0  0  0  0  0  0  0  0
   -3.1409    1.2592   -0.1121 C   0  0  0  0  0  0  0  0  0  0  0  0
   -4.0186    1.3522   -1.1978 C   0  0  0  0  0  0  0  0  0  0  0  0
   -4.2659    2.5875   -1.8012 C   0  0  0  0  0  0  0  0  0  0  0  0
   -3.6417    3.7300   -1.3090 C   0  0  0  0  0  0  0  0  0  0  0  0
   -3.8822    4.9124   -1.8905 F   0  0  0  0  0  0  0  0  0  0  0  0
   -2.7791    3.6662   -0.2240 C   0  0  0  0  0  0  0  0  0  0  0  0
   -2.5384    2.4320    0.3701 C   0  0  0  0  0  0  0  0  0  0  0  0
   -1.7110    2.3797    1.4264 F   0  0  0  0  0  0  0  0  0  0  0  0
   -0.8558   -0.1149   -0.6094 N   0  0  0  0  0  0  0  0  0  0  0  0
    0.2467   -0.7598   -0.8673 C   0  0  0  0  0  0  0  0  0  0  0  0
    1.1091   -0.1396   -1.7231 N   0  0  0  0  0  0  0  0  0  0  0  0
    2.5243   -0.4269   -1.7964 C   0  0  0  0  0  0  0  0  0  0  0  0
    3.2820    0.1219   -0.5861 C   0  0  0  0  0  0  0  0  0  0  0  0
    3.2595    1.6506   -0.5128 C   0  0  0  0  0  0  0  0  0  0  0  0
    4.0802    2.1615    0.6613 C   0  0  0  0  0  0  0  0  0  0  0  0
    0.5953   -1.9843   -0.3562 N   0  0  0  0  0  0  0  0  0  0  0  0
   -0.2316   -2.5441    0.4560 C   0  0  0  0  0  0  0  0  0  0  0  0
   -0.1415   -3.7791    1.1013 N   0  0  0  0  0  0  0  0  0  0  0  0
    1.1425   -4.3083    1.5180 C   0  0  0  0  0  0  0  0  0  0  0  0
   -1.7356   -4.6974    2.0270 H   0  0  0  0  0  0  0  0  0  0  0  0
   -2.9589   -2.6046    2.2570 H   0  0  0  0  0  0  0  0  0  0  0  0
   -4.5041    0.4555   -1.5731 H   0  0  0  0  0  0  0  0  0  0  0  0
   -4.9406    2.6642   -2.6480 H   0  0  0  0  0  0  0  0  0  0  0  0
   -2.3029    4.5608    0.1574 H   0  0  0  0  0  0  0  0  0  0  0  0
    0.8394    0.8191   -1.9059 H   0  0  0  0  0  0  0  0  0  0  0  0
    2.9252    0.0157   -2.7153 H   0  0  0  0  0  0  0  0  0  0  0  0
    2.6888   -1.5075   -1.8774 H   0  0  0  0  0  0  0  0  0  0  0  0
    4.3233   -0.2173   -0.6497 H   0  0  0  0  0  0  0  0  0  0  0  0
    2.8692   -0.2952    0.3404 H   0  0  0  0  0  0  0  0  0  0  0  0
    3.6589    2.0739   -1.4417 H   0  0  0  0  0  0  0  0  0  0  0  0
    2.2303    2.0113   -0.4065 H   0  0  0  0  0  0  0  0  0  0  0  0
    5.1266    1.8524    0.5729 H   0  0  0  0  0  0  0  0  0  0  0  0
    4.0511    3.2550    0.6967 H   0  0  0  0  0  0  0  0  0  0  0  0
    3.6877    1.7802    1.6094 H   0  0  0  0  0  0  0  0  0  0  0  0
    1.0248   -5.3190    1.9220 H   0  0  0  0  0  0  0  0  0  0  0  0
    1.8296   -4.3662    0.6678 H   0  0  0  0  0  0  0  0  0  0  0  0
    1.5926   -3.6752    2.2898 H   0  0  0  0  0  0  0  0  0  0  0  0
  1  2  1  0
  2  3  2  0
  3  4  1  0
  4  5  2  3
  5  6  1  0
  6  7  2  0
  7  8  1  0
  8  9  2  0
  9 10  1  0
  9 11  1  0
 11 12  2  0
 12 13  1  0
  4 14  1  0
 14 15  2  0
 15 16  1  0
 16 17  1  0
 17 18  1  0
 18 19  1  0
 19 20  1  0
 15 21  1  0
 21 22  2  0
 22 23  1  0
 23 24  1  0
 23  1  1  0
 22  3  1  0
 12  6  1  0
  1 25  1  0
  2 26  1  0
  7 27  1  0
  8 28  1  0
 11 29  1  0
 16 30  1  0
 17 31  1  0
 17 32  1  0
 18 33  1  0
 18 34  1  0
 19 35  1  0
 19 36  1  0
 20 37  1  0
 20 38  1  0
 20 39  1  0
 24 40  1  0
 24 41  1  0
 24 42  1  0
M  END
>  <ScrubInfo>  (5) 
{"isomerGroup": 0, "isomerId": 4, "confId": 0, "nr_conformers:": 1, "nr_isomers:": 9}

$$$$
_i5
     RDKit          3D

 42 44  0  0  0  0  0  0  0  0999 V2000
   -0.8456    1.8342   -0.5907 N   0  0  0  0  0  0  0  0  0  0  0  0
   -1.1385    0.5665   -1.0374 C   0  0  0  0  0  0  0  0  0  0  0  0
   -2.3923    0.4969   -1.5821 N   0  0  0  0  0  0  0  0  0  0  0  0
   -2.9627   -0.7663   -2.0316 C   0  0  0  0  0  0  0  0  0  0  0  0
   -3.4652   -1.6203   -0.8658 C   0  0  0  0  0  0  0  0  0  0  0  0
   -4.6547   -0.9926   -0.1351 C   0  0  0  0  0  0  0  0  0  0  0  0
   -5.1772   -1.9079    0.9616 C   0  0  0  0  0  0  0  0  0  0  0  0
   -0.3338   -0.4534   -0.9630 N   0  0  0  0  0  0  0  0  0  0  0  0
    0.9299   -0.3138   -0.4063 C   0  0  0  0  0  0  0  0  0  0  0  0
    1.6526   -1.3878   -0.3723 N   0  0  0  0  0  0  0  0  0  0  0  0
    2.9606   -1.4073    0.1158 C   0  0  0  0  0  0  0  0  0  0  0  0
    3.2033   -1.8696    1.4140 C   0  0  0  0  0  0  0  0  0  0  0  0
    4.5096   -1.9441    1.9029 C   0  0  0  0  0  0  0  0  0  0  0  0
    5.5725   -1.5711    1.0851 C   0  0  0  0  0  0  0  0  0  0  0  0
    6.8230   -1.6450    1.5584 F   0  0  0  0  0  0  0  0  0  0  0  0
    5.3586   -1.1278   -0.2124 C   0  0  0  0  0  0  0  0  0  0  0  0
    4.0548   -1.0568   -0.6908 C   0  0  0  0  0  0  0  0  0  0  0  0
    3.8536   -0.6223   -1.9442 F   0  0  0  0  0  0  0  0  0  0  0  0
    1.2827    1.0100    0.0791 C   0  0  0  0  0  0  0  0  0  0  0  0
    2.3752    1.6364    0.7053 C   0  0  0  0  0  0  0  0  0  0  0  0
    2.1690    2.9434    0.9330 N   0  0  0  0  0  0  0  0  0  0  0  0
    0.9270    3.1614    0.4457 N   0  0  0  0  0  0  0  0  0  0  0  0
    0.3682    4.4868    0.5255 C   0  0  0  0  0  0  0  0  0  0  0  0
    0.3695    2.0265   -0.0497 C   0  0  0  0  0  0  0  0  0  0  0  0
   -1.4507    2.5865   -0.8878 H   0  0  0  0  0  0  0  0  0  0  0  0
   -3.0754    1.1175   -1.1696 H   0  0  0  0  0  0  0  0  0  0  0  0
   -2.2231   -1.3282   -2.6140 H   0  0  0  0  0  0  0  0  0  0  0  0
   -3.7921   -0.5483   -2.7140 H   0  0  0  0  0  0  0  0  0  0  0  0
   -3.7673   -2.5973   -1.2629 H   0  0  0  0  0  0  0  0  0  0  0  0
   -2.6545   -1.8063   -0.1516 H   0  0  0  0  0  0  0  0  0  0  0  0
   -4.3641   -0.0364    0.3137 H   0  0  0  0  0  0  0  0  0  0  0  0
   -5.4628   -0.7870   -0.8464 H   0  0  0  0  0  0  0  0  0  0  0  0
   -4.4010   -2.1097    1.7067 H   0  0  0  0  0  0  0  0  0  0  0  0
   -5.5140   -2.8638    0.5479 H   0  0  0  0  0  0  0  0  0  0  0  0
   -6.0254   -1.4414    1.4723 H   0  0  0  0  0  0  0  0  0  0  0  0
    2.3692   -2.1789    2.0391 H   0  0  0  0  0  0  0  0  0  0  0  0
    4.7042   -2.2989    2.9104 H   0  0  0  0  0  0  0  0  0  0  0  0
    6.1917   -0.8451   -0.8445 H   0  0  0  0  0  0  0  0  0  0  0  0
    3.3224    1.2190    1.0153 H   0  0  0  0  0  0  0  0  0  0  0  0
    0.9720    5.1516   -0.0973 H   0  0  0  0  0  0  0  0  0  0  0  0
    0.3945    4.8116    1.5688 H   0  0  0  0  0  0  0  0  0  0  0  0
   -0.6638    4.4794    0.1689 H   0  0  0  0  0  0  0  0  0  0  0  0
  1  2  1  0
  2  3  1  0
  3  4  1  0
  4  5  1  0
  5  6  1  0
  6  7  1  0
  2  8  2  0
  8  9  1  0
  9 10  2  3
 10 11  1  0
 11 12  2  0
 12 13  1  0
 13 14  2  0
 14 15  1  0
 14 16  1  0
 16 17  2  0
 17 18  1  0
  9 19  1  0
 19 20  1  0
 20 21  2  0
 21 22  1  0
 22 23  1  0
 22 24  1  0
 24  1  1  0
 17 11  1  0
 24 19  2  0
  1 25  1  0
  3 26  1  0
  4 27  1  0
  4 28  1  0
  5 29  1  0
  5 30  1  0
  6 31  1  0
  6 32  1  0
  7 33  1  0
  7 34  1  0
  7 35  1  0
 12 36  1  0
 13 37  1  0
 16 38  1  0
 20 39  1  0
 23 40  1  0
 23 41  1  0
 23 42  1  0
M  END
>  <ScrubInfo>  (6) 
{"isomerGroup": 0, "isomerId": 5, "confId": 0, "nr_conformers:": 1, "nr_isomers:": 9}

$$$$
_i6
     RDKit          3D

 42 44  0  0  0  0  0  0  0  0999 V2000
   -1.7135   -3.0875    0.1289 N   0  0  0  0  0  0  0  0  0  0  0  0
   -2.2310   -1.8565   -0.2601 C   0  0  0  0  0  0  0  0  0  0  0  0
   -1.2964   -1.0228   -0.7355 C   0  0  0  0  0  0  0  0  0  0  0  0
   -1.1931    0.3365   -1.2612 C   0  0  0  0  0  0  0  0  0  0  0  0
   -2.2662    1.1883   -1.4261 N   0  0  0  0  0  0  0  0  0  0  0  0
   -3.2113    1.4780   -0.4109 C   0  0  0  0  0  0  0  0  0  0  0  0
   -4.4685    1.9623   -0.8044 C   0  0  0  0  0  0  0  0  0  0  0  0
   -5.4264    2.3158    0.1495 C   0  0  0  0  0  0  0  0  0  0  0  0
   -5.1223    2.2082    1.5019 C   0  0  0  0  0  0  0  0  0  0  0  0
   -6.0427    2.5491    2.4125 F   0  0  0  0  0  0  0  0  0  0  0  0
   -3.8778    1.7637    1.9207 C   0  0  0  0  0  0  0  0  0  0  0  0
   -2.9294    1.4135    0.9649 C   0  0  0  0  0  0  0  0  0  0  0  0
   -1.7200    1.0239    1.3934 F   0  0  0  0  0  0  0  0  0  0  0  0
   -0.0224    0.7645   -1.6451 N   0  0  0  0  0  0  0  0  0  0  0  0
    1.0753   -0.0547   -1.4874 C   0  0  0  0  0  0  0  0  0  0  0  0
    2.1859    0.5179   -1.7880 N   0  0  0  0  0  0  0  0  0  0  0  0
    3.4343   -0.2319   -1.6805 C   0  0  0  0  0  0  0  0  0  0  0  0
    4.0232   -0.1119   -0.2745 C   0  0  0  0  0  0  0  0  0  0  0  0
    4.4170    1.3246    0.0771 C   0  0  0  0  0  0  0  0  0  0  0  0
    5.0444    1.4051    1.4601 C   0  0  0  0  0  0  0  0  0  0  0  0
    1.0731   -1.3625   -1.0579 N   0  0  0  0  0  0  0  0  0  0  0  0
   -0.0678   -1.8439   -0.7048 C   0  0  0  0  0  0  0  0  0  0  0  0
   -0.3761   -3.1281   -0.2534 N   0  0  0  0  0  0  0  0  0  0  0  0
    0.5671   -3.8768    0.5555 C   0  0  0  0  0  0  0  0  0  0  0  0
   -2.2874   -3.8817   -0.1635 H   0  0  0  0  0  0  0  0  0  0  0  0
   -3.2914   -1.6765   -0.1592 H   0  0  0  0  0  0  0  0  0  0  0  0
   -1.9263    2.0635   -1.8245 H   0  0  0  0  0  0  0  0  0  0  0  0
   -4.7113    2.0537   -1.8614 H   0  0  0  0  0  0  0  0  0  0  0  0
   -6.4041    2.6782   -0.1543 H   0  0  0  0  0  0  0  0  0  0  0  0
   -3.6417    1.7008    2.9766 H   0  0  0  0  0  0  0  0  0  0  0  0
    4.1418    0.1800   -2.4099 H   0  0  0  0  0  0  0  0  0  0  0  0
    3.3154   -1.2871   -1.9545 H   0  0  0  0  0  0  0  0  0  0  0  0
    3.3079   -0.4871    0.4672 H   0  0  0  0  0  0  0  0  0  0  0  0
    4.9112   -0.7528   -0.2143 H   0  0  0  0  0  0  0  0  0  0  0  0
    5.1294    1.7069   -0.6631 H   0  0  0  0  0  0  0  0  0  0  0  0
    3.5369    1.9769    0.0487 H   0  0  0  0  0  0  0  0  0  0  0  0
    5.9498    0.7924    1.5168 H   0  0  0  0  0  0  0  0  0  0  0  0
    4.3457    1.0584    2.2283 H   0  0  0  0  0  0  0  0  0  0  0  0
    5.3189    2.4389    1.6921 H   0  0  0  0  0  0  0  0  0  0  0  0
    1.5304   -3.9638    0.0428 H   0  0  0  0  0  0  0  0  0  0  0  0
    0.7268   -3.3860    1.5212 H   0  0  0  0  0  0  0  0  0  0  0  0
    0.1926   -4.8894    0.7373 H   0  0  0  0  0  0  0  0  0  0  0  0
  1  2  1  0
  2  3  2  0
  3  4  1  0
  4  5  1  0
  5  6  1  0
  6  7  2  0
  7  8  1  0
  8  9  2  0
  9 10  1  0
  9 11  1  0
 11 12  2  0
 12 13  1  0
  4 14  2  0
 14 15  1  0
 15 16  2  3
 16 17  1  0
 17 18  1  0
 18 19  1  0
 19 20  1  0
 15 21  1  0
 21 22  2  0
 22 23  1  0
 23 24  1  0
 23  1  1  0
 22  3  1  0
 12  6  1  0
  1 25  1  0
  2 26  1  0
  5 27  1  0
  7 28  1  0
  8 29  1  0
 11 30  1  0
 17 31  1  0
 17 32  1  0
 18 33  1  0
 18 34  1  0
 19 35  1  0
 19 36  1  0
 20 37  1  0
 20 38  1  0
 20 39  1  0
 24 40  1  0
 24 41  1  0
 24 42  1  0
M  END
>  <ScrubInfo>  (7) 
{"isomerGroup": 0, "isomerId": 6, "confId": 0, "nr_conformers:": 1, "nr_isomers:": 9}

$$$$
_i7
     RDKit          3D

 42 44  0  0  0  0  0  0  0  0999 V2000
   -2.4759   -2.2056   -1.6670 N   0  0  0  0  0  0  0  0  0  0  0  0
   -2.5115   -1.0642   -0.8736 C   0  0  0  0  0  0  0  0  0  0  0  0
   -1.3552   -0.8132   -0.2428 C   0  0  0  0  0  0  0  0  0  0  0  0
   -0.7408    0.1883    0.6474 C   0  0  0  0  0  0  0  0  0  0  0  0
   -1.2661    1.2487    1.1875 N   0  0  0  0  0  0  0  0  0  0  0  0
   -2.6192    1.5592    1.0037 C   0  0  0  0  0  0  0  0  0  0  0  0
   -2.9803    2.5301    0.0636 C   0  0  0  0  0  0  0  0  0  0  0  0
   -4.3216    2.8815   -0.1058 C   0  0  0  0  0  0  0  0  0  0  0  0
   -5.2974    2.2708    0.6769 C   0  0  0  0  0  0  0  0  0  0  0  0
   -6.5817    2.6097    0.5088 F   0  0  0  0  0  0  0  0  0  0  0  0
   -4.9619    1.3178    1.6282 C   0  0  0  0  0  0  0  0  0  0  0  0
   -3.6244    0.9738    1.7896 C   0  0  0  0  0  0  0  0  0  0  0  0
   -3.3049    0.0461    2.7047 F   0  0  0  0  0  0  0  0  0  0  0  0
    0.5799   -0.0732    0.9021 N   0  0  0  0  0  0  0  0  0  0  0  0
    1.3252   -1.1276    0.4383 C   0  0  0  0  0  0  0  0  0  0  0  0
    2.5713   -1.3445    0.6617 N   0  0  0  0  0  0  0  0  0  0  0  0
    3.3614   -0.4508    1.4973 C   0  0  0  0  0  0  0  0  0  0  0  0
    3.9089    0.7208    0.6827 C   0  0  0  0  0  0  0  0  0  0  0  0
    4.8877    0.2727   -0.4052 C   0  0  0  0  0  0  0  0  0  0  0  0
    5.4534    1.4616   -1.1663 C   0  0  0  0  0  0  0  0  0  0  0  0
    0.7526   -2.0970   -0.3583 N   0  0  0  0  0  0  0  0  0  0  0  0
   -0.4980   -1.9726   -0.6701 C   0  0  0  0  0  0  0  0  0  0  0  0
   -1.2641   -2.8435   -1.4478 N   0  0  0  0  0  0  0  0  0  0  0  0
   -0.6611   -3.6144   -2.5184 C   0  0  0  0  0  0  0  0  0  0  0  0
   -3.3109   -2.7895   -1.5776 H   0  0  0  0  0  0  0  0  0  0  0  0
   -3.4305   -0.4994   -0.8433 H   0  0  0  0  0  0  0  0  0  0  0  0
   -2.2117    3.0157   -0.5325 H   0  0  0  0  0  0  0  0  0  0  0  0
   -4.6093    3.6324   -0.8357 H   0  0  0  0  0  0  0  0  0  0  0  0
   -5.7270    0.8525    2.2380 H   0  0  0  0  0  0  0  0  0  0  0  0
    1.0341    0.6044    1.4909 H   0  0  0  0  0  0  0  0  0  0  0  0
    2.7909   -0.0850    2.3586 H   0  0  0  0  0  0  0  0  0  0  0  0
    4.1943   -1.0244    1.9205 H   0  0  0  0  0  0  0  0  0  0  0  0
    4.4216    1.4089    1.3659 H   0  0  0  0  0  0  0  0  0  0  0  0
    3.0848    1.2806    0.2251 H   0  0  0  0  0  0  0  0  0  0  0  0
    4.3865   -0.3961   -1.1140 H   0  0  0  0  0  0  0  0  0  0  0  0
    5.7129   -0.2906    0.0457 H   0  0  0  0  0  0  0  0  0  0  0  0
    6.1503    1.1205   -1.9383 H   0  0  0  0  0  0  0  0  0  0  0  0
    4.6556    2.0295   -1.6556 H   0  0  0  0  0  0  0  0  0  0  0  0
    5.9941    2.1363   -0.4950 H   0  0  0  0  0  0  0  0  0  0  0  0
   -1.3944   -4.3026   -2.9515 H   0  0  0  0  0  0  0  0  0  0  0  0
   -0.2920   -2.9556   -3.3114 H   0  0  0  0  0  0  0  0  0  0  0  0
    0.1746   -4.2122   -2.1410 H   0  0  0  0  0  0  0  0  0  0  0  0
  1  2  1  0
  2  3  2  0
  3  4  1  0
  4  5  2  3
  5  6  1  0
  6  7  2  0
  7  8  1  0
  8  9  2  0
  9 10  1  0
  9 11  1  0
 11 12  2  0
 12 13  1  0
  4 14  1  0
 14 15  1  0
 15 16  2  3
 16 17  1  0
 17 18  1  0
 18 19  1  0
 19 20  1  0
 15 21  1  0
 21 22  2  0
 22 23  1  0
 23 24  1  0
 23  1  1  0
 22  3  1  0
 12  6  1  0
  1 25  1  0
  2 26  1  0
  7 27  1  0
  8 28  1  0
 11 29  1  0
 14 30  1  0
 17 31  1  0
 17 32  1  0
 18 33  1  0
 18 34  1  0
 19 35  1  0
 19 36  1  0
 20 37  1  0
 20 38  1  0
 20 39  1  0
 24 40  1  0
 24 41  1  0
 24 42  1  0
M  END
>  <ScrubInfo>  (8) 
{"isomerGroup": 0, "isomerId": 7, "confId": 0, "nr_conformers:": 1, "nr_isomers:": 9}

$$$$
_i8
     RDKit          3D

 42 44  0  0  0  0  0  0  0  0999 V2000
    0.6532    2.4505    0.8088 N   0  0  0  0  0  0  0  0  0  0  0  0
    0.7203    1.1509    0.3443 C   0  0  0  0  0  0  0  0  0  0  0  0
    1.8822    0.6642    0.0618 N   0  0  0  0  0  0  0  0  0  0  0  0
    1.9603   -0.7067   -0.4341 C   0  0  0  0  0  0  0  0  0  0  0  0
    3.4288   -1.0386   -0.6933 C   0  0  0  0  0  0  0  0  0  0  0  0
    3.5944   -2.4640   -1.2176 C   0  0  0  0  0  0  0  0  0  0  0  0
    5.0552   -2.7962   -1.4764 C   0  0  0  0  0  0  0  0  0  0  0  0
   -0.5150    0.5294    0.2441 N   0  0  0  0  0  0  0  0  0  0  0  0
   -1.7856    1.0064    0.5189 C   0  0  0  0  0  0  0  0  0  0  0  0
   -2.9481    0.4488    0.4407 N   0  0  0  0  0  0  0  0  0  0  0  0
   -3.0639   -0.8762   -0.0068 C   0  0  0  0  0  0  0  0  0  0  0  0
   -3.6021   -1.8290    0.8644 C   0  0  0  0  0  0  0  0  0  0  0  0
   -3.7706   -3.1529    0.4508 C   0  0  0  0  0  0  0  0  0  0  0  0
   -3.4102   -3.5207   -0.8418 C   0  0  0  0  0  0  0  0  0  0  0  0
   -3.5708   -4.7907   -1.2336 F   0  0  0  0  0  0  0  0  0  0  0  0
   -2.8863   -2.5932   -1.7305 C   0  0  0  0  0  0  0  0  0  0  0  0
   -2.7237   -1.2780   -1.3089 C   0  0  0  0  0  0  0  0  0  0  0  0
   -2.1977   -0.3912   -2.1673 F   0  0  0  0  0  0  0  0  0  0  0  0
   -1.7353    2.3726    0.9859 C   0  0  0  0  0  0  0  0  0  0  0  0
   -2.6861    3.3202    1.3931 C   0  0  0  0  0  0  0  0  0  0  0  0
   -2.1238    4.4852    1.7508 N   0  0  0  0  0  0  0  0  0  0  0  0
   -0.7970    4.2765    1.5627 N   0  0  0  0  0  0  0  0  0  0  0  0
    0.1239    5.3466    1.8501 C   0  0  0  0  0  0  0  0  0  0  0  0
   -0.5318    3.0213    1.1077 C   0  0  0  0  0  0  0  0  0  0  0  0
    1.5508    2.9151    0.8798 H   0  0  0  0  0  0  0  0  0  0  0  0
    1.3933   -0.8097   -1.3671 H   0  0  0  0  0  0  0  0  0  0  0  0
    1.5538   -1.4058    0.3065 H   0  0  0  0  0  0  0  0  0  0  0  0
    3.8439   -0.3258   -1.4170 H   0  0  0  0  0  0  0  0  0  0  0  0
    4.0023   -0.9145    0.2339 H   0  0  0  0  0  0  0  0  0  0  0  0
    3.1864   -3.1774   -0.4922 H   0  0  0  0  0  0  0  0  0  0  0  0
    3.0275   -2.5870   -2.1478 H   0  0  0  0  0  0  0  0  0  0  0  0
    5.1505   -3.8203   -1.8508 H   0  0  0  0  0  0  0  0  0  0  0  0
    5.6449   -2.7141   -0.5578 H   0  0  0  0  0  0  0  0  0  0  0  0
    5.4850   -2.1203   -2.2226 H   0  0  0  0  0  0  0  0  0  0  0  0
   -0.4896   -0.4118   -0.1073 H   0  0  0  0  0  0  0  0  0  0  0  0
   -3.8976   -1.5326    1.8683 H   0  0  0  0  0  0  0  0  0  0  0  0
   -4.1875   -3.8946    1.1256 H   0  0  0  0  0  0  0  0  0  0  0  0
   -2.6129   -2.8873   -2.7369 H   0  0  0  0  0  0  0  0  0  0  0  0
   -3.7619    3.2132    1.4455 H   0  0  0  0  0  0  0  0  0  0  0  0
   -0.1182    6.1923    1.2014 H   0  0  0  0  0  0  0  0  0  0  0  0
    0.0103    5.6260    2.9007 H   0  0  0  0  0  0  0  0  0  0  0  0
    1.1488    5.0195    1.6641 H   0  0  0  0  0  0  0  0  0  0  0  0
  1  2  1  0
  2  3  2  3
  3  4  1  0
  4  5  1  0
  5  6  1  0
  6  7  1  0
  2  8  1  0
  8  9  1  0
  9 10  2  3
 10 11  1  0
 11 12  2  0
 12 13  1  0
 13 14  2  0
 14 15  1  0
 14 16  1  0
 16 17  2  0
 17 18  1  0
  9 19  1  0
 19 20  1  0
 20 21  2  0
 21 22  1  0
 22 23  1  0
 22 24  1  0
 24  1  1  0
 17 11  1  0
 24 19  2  0
  1 25  1  0
  4 26  1  0
  4 27  1  0
  5 28  1  0
  5 29  1  0
  6 30  1  0
  6 31  1  0
  7 32  1  0
  7 33  1  0
  7 34  1  0
  8 35  1  0
 12 36  1  0
 13 37  1  0
 16 38  1  0
 20 39  1  0
 23 40  1  0
 23 41  1  0
 23 42  1  0
M  END
>  <ScrubInfo>  (9) 
{"isomerGroup": 0, "isomerId": 8, "confId": 0, "nr_conformers:": 1, "nr_isomers:": 9}

$$$$
