REMARK SMILES CCCCNc1nc(Nc2ccc(F)cc2F)c2cnn(C)c2n1
REMARK SMILES IDX 5 1 4 3 3 4 2 5 1 6 6 7 7 8 24 9 8 10 23 11 18 12 21 13
REMARK SMILES IDX 19 14 20 15 22 16 9 17 10 19 11 20 16 21 12 22 15 23 13 24
REMARK SMILES IDX 17 25 14 26
REMARK H PARENT 5 2 9 18
ROOT
ATOM      1  N   UNL     1       2.386  -0.051  -1.689  1.00  0.00    -0.354 N 
ATOM      2  H   UNL     1       2.757   0.565  -2.405  1.00  0.00     0.163 HD
ENDROOT
BRANCH   1   3
ATOM      3  C   UNL     1       3.286  -0.319  -0.579  1.00  0.00     0.116 C 
BRANCH   3   4
ATOM      4  C   UNL     1       3.181  -1.783  -0.143  1.00  0.00     0.021 C 
BRANCH   4   5
ATOM      5  C   UNL     1       4.034  -2.110   1.085  1.00  0.00    -0.002 C 
ATOM      6  C   UNL     1       5.528  -1.971   0.842  1.00  0.00     0.004 C 
ENDBRANCH   4   5
ENDBRANCH   3   4
ENDBRANCH   1   3
BRANCH   1   7
ATOM      7  C   UNL     1       1.139   0.464  -1.357  1.00  0.00     0.226 A 
ATOM      8  N   UNL     1       0.548   0.097  -0.204  1.00  0.00    -0.195 NA
ATOM      9  N   UNL     1       0.630   1.315  -2.256  1.00  0.00    -0.193 NA
ATOM     10  C   UNL     1      -0.686   0.560   0.115  1.00  0.00     0.147 A 
ATOM     11  C   UNL     1      -0.568   1.800  -1.896  1.00  0.00     0.165 A 
ATOM     12  C   UNL     1      -1.272   1.486  -0.750  1.00  0.00     0.082 A 
ATOM     13  N   UNL     1      -1.337   2.705  -2.576  1.00  0.00    -0.250 N 
ATOM     14  C   UNL     1      -2.425   2.295  -0.818  1.00  0.00     0.149 A 
ATOM     15  N   UNL     1      -2.484   3.029  -1.936  1.00  0.00    -0.179 NA
ATOM     16  C   UNL     1      -1.033   3.322  -3.843  1.00  0.00     0.176 C 
BRANCH  10  17
ATOM     17  N   UNL     1      -1.223   0.126   1.331  1.00  0.00    -0.337 N 
ATOM     18  H   UNL     1      -0.502  -0.367   1.854  1.00  0.00     0.168 HD
BRANCH  17  19
ATOM     19  C   UNL     1      -2.512  -0.342   1.656  1.00  0.00     0.076 A 
ATOM     20  C   UNL     1      -3.531  -0.534   0.714  1.00  0.00     0.032 A 
ATOM     21  C   UNL     1      -2.818  -0.586   3.009  1.00  0.00     0.149 A 
ATOM     22  C   UNL     1      -4.803  -0.957   1.116  1.00  0.00     0.041 A 
ATOM     23  C   UNL     1      -4.079  -1.006   3.420  1.00  0.00     0.080 A 
ATOM     24  C   UNL     1      -5.064  -1.186   2.463  1.00  0.00     0.126 A 
ATOM     25  F   UNL     1      -1.865  -0.417   3.939  1.00  0.00    -0.205 F 
ATOM     26  F   UNL     1      -6.284  -1.591   2.838  1.00  0.00    -0.207 F 
ENDBRANCH  17  19
ENDBRANCH  10  17
ENDBRANCH   1   7
TORSDOF 6
