_i0
     RDKit          3D

 43 45  0  0  0  0  0  0  0  0999 V2000
    4.9294   -2.8005   -0.1194 C   0  0  0  0  0  0  0  0  0  0  0  0
    3.6273   -2.3605   -0.4699 O   0  0  0  0  0  0  0  0  0  0  0  0
    3.2361   -1.1810    0.2398 C   0  0  0  0  0  0  0  0  0  0  0  0
    1.7563   -0.8860   -0.1069 C   0  0  0  0  0  0  0  0  0  0  0  0
    1.2906    0.3295    0.5840 N   0  0  0  0  0  0  0  0  0  0  0  0
   -0.0613    0.6376    0.3624 C   0  0  0  0  0  0  0  0  0  0  0  0
   -0.8663   -0.2263   -0.2787 N   0  0  0  0  0  0  0  0  0  0  0  0
   -2.1708    0.1070   -0.4534 C   0  0  0  0  0  0  0  0  0  0  0  0
   -3.0303   -0.8564   -1.1752 C   0  0  0  0  0  0  0  0  0  0  0  0
   -2.5203   -2.0749   -1.6656 C   0  0  0  0  0  0  0  0  0  0  0  0
   -3.3311   -2.9874   -2.3490 C   0  0  0  0  0  0  0  0  0  0  0  0
   -4.6766   -2.7024   -2.5591 C   0  0  0  0  0  0  0  0  0  0  0  0
   -5.2107   -1.5076   -2.0868 C   0  0  0  0  0  0  0  0  0  0  0  0
   -4.3962   -0.5979   -1.4040 C   0  0  0  0  0  0  0  0  0  0  0  0
   -2.7372    1.2530   -0.0223 N   0  0  0  0  0  0  0  0  0  0  0  0
   -1.9079    2.0659    0.6331 C   0  0  0  0  0  0  0  0  0  0  0  0
   -0.5728    1.8079    0.8589 C   0  0  0  0  0  0  0  0  0  0  0  0
    0.0784    2.9244    1.5991 C   0  0  0  0  0  0  0  0  0  0  0  0
   -1.1461    3.6594    2.1671 C   0  0  0  0  0  0  0  0  0  0  0  0
   -2.2999    3.4049    1.1882 C   0  0  0  0  0  0  0  0  0  0  0  0
    4.0313   -0.0575   -0.1672 O   0  0  0  0  0  0  0  0  0  0  0  0
    4.7390    0.5217    0.9197 C   0  0  0  0  0  0  0  0  0  0  0  0
    5.6829   -2.0736   -0.4357 H   0  0  0  0  0  0  0  0  0  0  0  0
    5.0025   -2.9781    0.9579 H   0  0  0  0  0  0  0  0  0  0  0  0
    5.1240   -3.7425   -0.6394 H   0  0  0  0  0  0  0  0  0  0  0  0
    3.3151   -1.3654    1.3204 H   0  0  0  0  0  0  0  0  0  0  0  0
    1.1540   -1.7582    0.1774 H   0  0  0  0  0  0  0  0  0  0  0  0
    1.6644   -0.7529   -1.1930 H   0  0  0  0  0  0  0  0  0  0  0  0
    1.8608    1.1209    0.2898 H   0  0  0  0  0  0  0  0  0  0  0  0
   -1.4707   -2.3236   -1.5152 H   0  0  0  0  0  0  0  0  0  0  0  0
   -2.9069   -3.9187   -2.7151 H   0  0  0  0  0  0  0  0  0  0  0  0
   -5.3077   -3.4101   -3.0897 H   0  0  0  0  0  0  0  0  0  0  0  0
   -6.2608   -1.2783   -2.2471 H   0  0  0  0  0  0  0  0  0  0  0  0
   -4.8399    0.3297   -1.0449 H   0  0  0  0  0  0  0  0  0  0  0  0
    0.7362    2.5765    2.4005 H   0  0  0  0  0  0  0  0  0  0  0  0
    0.6362    3.5638    0.9071 H   0  0  0  0  0  0  0  0  0  0  0  0
   -0.9579    4.7259    2.3248 H   0  0  0  0  0  0  0  0  0  0  0  0
   -1.4024    3.2282    3.1450 H   0  0  0  0  0  0  0  0  0  0  0  0
   -2.3138    4.1503    0.3867 H   0  0  0  0  0  0  0  0  0  0  0  0
   -3.2682    3.3781    1.6946 H   0  0  0  0  0  0  0  0  0  0  0  0
    5.4260   -0.2043    1.3646 H   0  0  0  0  0  0  0  0  0  0  0  0
    5.3224    1.3644    0.5393 H   0  0  0  0  0  0  0  0  0  0  0  0
    4.0429    0.8948    1.6771 H   0  0  0  0  0  0  0  0  0  0  0  0
  1  2  1  0
  2  3  1  0
  3  4  1  0
  4  5  1  0
  5  6  1  0
  6  7  2  0
  7  8  1  0
  8  9  1  0
  9 10  2  0
 10 11  1  0
 11 12  2  0
 12 13  1  0
 13 14  2  0
  8 15  2  0
 15 16  1  0
 16 17  2  0
 17 18  1  0
 18 19  1  0
 19 20  1  0
  3 21  1  0
 21 22  1  0
 17  6  1  0
 14  9  1  0
 20 16  1  0
  1 23  1  0
  1 24  1  0
  1 25  1  0
  3 26  1  0
  4 27  1  0
  4 28  1  0
  5 29  1  0
 10 30  1  0
 11 31  1  0
 12 32  1  0
 13 33  1  0
 14 34  1  0
 18 35  1  0
 18 36  1  0
 19 37  1  0
 19 38  1  0
 20 39  1  0
 20 40  1  0
 22 41  1  0
 22 42  1  0
 22 43  1  0
M  END
>  <ScrubInfo>  (1) 
{"isomerGroup": 0, "isomerId": 0, "confId": 0, "nr_conformers:": 1, "nr_isomers:": 3}

$$$$
_i1
     RDKit          3D

 43 45  0  0  0  0  0  0  0  0999 V2000
    0.3782   -0.1760    0.5109 N   0  0  0  0  0  0  0  0  0  0  0  0
    1.4585    0.6829    0.4018 C   0  0  0  0  0  0  0  0  0  0  0  0
    1.3723    2.0609    0.9851 C   0  0  0  0  0  0  0  0  0  0  0  0
    0.4276    2.3776    1.9704 C   0  0  0  0  0  0  0  0  0  0  0  0
    0.3628    3.6739    2.4890 C   0  0  0  0  0  0  0  0  0  0  0  0
    1.2405    4.6561    2.0322 C   0  0  0  0  0  0  0  0  0  0  0  0
    2.1892    4.3454    1.0597 C   0  0  0  0  0  0  0  0  0  0  0  0
    2.2571    3.0516    0.5389 C   0  0  0  0  0  0  0  0  0  0  0  0
    2.5638    0.3328   -0.2133 N   0  0  0  0  0  0  0  0  0  0  0  0
    2.5724   -0.9321   -0.7463 C   0  0  0  0  0  0  0  0  0  0  0  0
    1.5798   -1.8288   -0.7230 C   0  0  0  0  0  0  0  0  0  0  0  0
    0.3357   -1.4338   -0.0431 C   0  0  0  0  0  0  0  0  0  0  0  0
   -0.6472   -2.2716   -0.0390 N   0  0  0  0  0  0  0  0  0  0  0  0
   -1.8732   -1.9341    0.7050 C   0  0  0  0  0  0  0  0  0  0  0  0
   -2.7473   -0.8909   -0.0268 C   0  0  0  0  0  0  0  0  0  0  0  0
   -4.1003   -0.9853    0.4200 O   0  0  0  0  0  0  0  0  0  0  0  0
   -4.8578   -1.9161   -0.3415 C   0  0  0  0  0  0  0  0  0  0  0  0
   -2.2285    0.4121    0.3074 O   0  0  0  0  0  0  0  0  0  0  0  0
   -2.8622    1.4361   -0.4514 C   0  0  0  0  0  0  0  0  0  0  0  0
    1.9063   -3.1022   -1.3985 C   0  0  0  0  0  0  0  0  0  0  0  0
    3.1893   -2.7286   -2.1516 C   0  0  0  0  0  0  0  0  0  0  0  0
    3.7624   -1.4824   -1.4606 C   0  0  0  0  0  0  0  0  0  0  0  0
   -0.5193    0.2182    0.7750 H   0  0  0  0  0  0  0  0  0  0  0  0
   -0.2541    1.6303    2.3652 H   0  0  0  0  0  0  0  0  0  0  0  0
   -0.3691    3.9153    3.2561 H   0  0  0  0  0  0  0  0  0  0  0  0
    1.1902    5.6629    2.4395 H   0  0  0  0  0  0  0  0  0  0  0  0
    2.8791    5.1078    0.7068 H   0  0  0  0  0  0  0  0  0  0  0  0
    3.0023    2.8205   -0.2194 H   0  0  0  0  0  0  0  0  0  0  0  0
   -1.6272   -1.5953    1.7198 H   0  0  0  0  0  0  0  0  0  0  0  0
   -2.4310   -2.8676    0.8349 H   0  0  0  0  0  0  0  0  0  0  0  0
   -2.6792   -1.0293   -1.1143 H   0  0  0  0  0  0  0  0  0  0  0  0
   -4.9282   -1.5867   -1.3827 H   0  0  0  0  0  0  0  0  0  0  0  0
   -4.4208   -2.9173   -0.2933 H   0  0  0  0  0  0  0  0  0  0  0  0
   -5.8675   -1.9580    0.0759 H   0  0  0  0  0  0  0  0  0  0  0  0
   -2.7126    1.2697   -1.5224 H   0  0  0  0  0  0  0  0  0  0  0  0
   -2.4036    2.3915   -0.1822 H   0  0  0  0  0  0  0  0  0  0  0  0
   -3.9301    1.4889   -0.2207 H   0  0  0  0  0  0  0  0  0  0  0  0
    1.1256   -3.4292   -2.0912 H   0  0  0  0  0  0  0  0  0  0  0  0
    2.0926   -3.8938   -0.6655 H   0  0  0  0  0  0  0  0  0  0  0  0
    3.9089   -3.5536   -2.1704 H   0  0  0  0  0  0  0  0  0  0  0  0
    2.9461   -2.4896   -3.1955 H   0  0  0  0  0  0  0  0  0  0  0  0
    4.1710   -0.7811   -2.1944 H   0  0  0  0  0  0  0  0  0  0  0  0
    4.5478   -1.7512   -0.7463 H   0  0  0  0  0  0  0  0  0  0  0  0
  1  2  1  0
  2  3  1  0
  3  4  2  0
  4  5  1  0
  5  6  2  0
  6  7  1  0
  7  8  2  0
  2  9  2  0
  9 10  1  0
 10 11  2  0
 11 12  1  0
 12 13  2  3
 13 14  1  0
 14 15  1  0
 15 16  1  0
 16 17  1  0
 15 18  1  0
 18 19  1  0
 11 20  1  0
 20 21  1  0
 21 22  1  0
 12  1  1  0
  8  3  1  0
 22 10  1  0
  1 23  1  0
  4 24  1  0
  5 25  1  0
  6 26  1  0
  7 27  1  0
  8 28  1  0
 14 29  1  0
 14 30  1  0
 15 31  1  0
 17 32  1  0
 17 33  1  0
 17 34  1  0
 19 35  1  0
 19 36  1  0
 19 37  1  0
 20 38  1  0
 20 39  1  0
 21 40  1  0
 21 41  1  0
 22 42  1  0
 22 43  1  0
M  END
>  <ScrubInfo>  (2) 
{"isomerGroup": 0, "isomerId": 1, "confId": 0, "nr_conformers:": 1, "nr_isomers:": 3}

$$$$
_i2
     RDKit          3D

 43 45  0  0  0  0  0  0  0  0999 V2000
   -2.5830   -0.7221   -0.0472 N   0  0  0  0  0  0  0  0  0  0  0  0
   -2.0809    0.2859    0.7475 C   0  0  0  0  0  0  0  0  0  0  0  0
   -3.0204    1.1171    1.5651 C   0  0  0  0  0  0  0  0  0  0  0  0
   -2.5447    1.7630    2.7133 C   0  0  0  0  0  0  0  0  0  0  0  0
   -3.4067    2.5346    3.4947 C   0  0  0  0  0  0  0  0  0  0  0  0
   -4.7451    2.6702    3.1294 C   0  0  0  0  0  0  0  0  0  0  0  0
   -5.2225    2.0410    1.9800 C   0  0  0  0  0  0  0  0  0  0  0  0
   -4.3633    1.2668    1.1956 C   0  0  0  0  0  0  0  0  0  0  0  0
   -0.8047    0.5411    0.8298 N   0  0  0  0  0  0  0  0  0  0  0  0
    0.1171   -0.1784    0.0903 C   0  0  0  0  0  0  0  0  0  0  0  0
    1.3055    0.2855    0.1825 N   0  0  0  0  0  0  0  0  0  0  0  0
    2.4273   -0.3099   -0.5377 C   0  0  0  0  0  0  0  0  0  0  0  0
    3.6998    0.5517   -0.3504 C   0  0  0  0  0  0  0  0  0  0  0  0
    4.5428    0.3057   -1.4887 O   0  0  0  0  0  0  0  0  0  0  0  0
    5.6654    1.1756   -1.5106 C   0  0  0  0  0  0  0  0  0  0  0  0
    4.4116    0.2111    0.8442 O   0  0  0  0  0  0  0  0  0  0  0  0
    3.7291    0.6020    2.0274 C   0  0  0  0  0  0  0  0  0  0  0  0
   -0.3966   -1.3471   -0.6706 C   0  0  0  0  0  0  0  0  0  0  0  0
   -1.7172   -1.5420   -0.7001 C   0  0  0  0  0  0  0  0  0  0  0  0
   -2.1062   -2.7411   -1.4895 C   0  0  0  0  0  0  0  0  0  0  0  0
   -0.7611   -3.4488   -1.6704 C   0  0  0  0  0  0  0  0  0  0  0  0
    0.3268   -2.3904   -1.4386 C   0  0  0  0  0  0  0  0  0  0  0  0
   -3.5442   -1.0243    0.0406 H   0  0  0  0  0  0  0  0  0  0  0  0
   -1.5004    1.6661    3.0037 H   0  0  0  0  0  0  0  0  0  0  0  0
   -3.0303    3.0321    4.3850 H   0  0  0  0  0  0  0  0  0  0  0  0
   -5.4140    3.2755    3.7365 H   0  0  0  0  0  0  0  0  0  0  0  0
   -6.2631    2.1632    1.6894 H   0  0  0  0  0  0  0  0  0  0  0  0
   -4.7521    0.8164    0.2880 H   0  0  0  0  0  0  0  0  0  0  0  0
    2.6299   -1.3183   -0.1618 H   0  0  0  0  0  0  0  0  0  0  0  0
    2.1968   -0.3615   -1.6075 H   0  0  0  0  0  0  0  0  0  0  0  0
    3.4368    1.6181   -0.3418 H   0  0  0  0  0  0  0  0  0  0  0  0
    5.3443    2.2215   -1.5340 H   0  0  0  0  0  0  0  0  0  0  0  0
    6.3152    0.9986   -0.6485 H   0  0  0  0  0  0  0  0  0  0  0  0
    6.2384    0.9702   -2.4190 H   0  0  0  0  0  0  0  0  0  0  0  0
    4.4282    0.5135    2.8639 H   0  0  0  0  0  0  0  0  0  0  0  0
    3.3940    1.6421    1.9692 H   0  0  0  0  0  0  0  0  0  0  0  0
    2.8875   -0.0658    2.2274 H   0  0  0  0  0  0  0  0  0  0  0  0
   -2.5341   -2.4462   -2.4532 H   0  0  0  0  0  0  0  0  0  0  0  0
   -2.8195   -3.3807   -0.9610 H   0  0  0  0  0  0  0  0  0  0  0  0
   -0.6620   -4.2476   -0.9234 H   0  0  0  0  0  0  0  0  0  0  0  0
   -0.6729   -3.9182   -2.6557 H   0  0  0  0  0  0  0  0  0  0  0  0
    0.6889   -1.9942   -2.3926 H   0  0  0  0  0  0  0  0  0  0  0  0
    1.1598   -2.8319   -0.8863 H   0  0  0  0  0  0  0  0  0  0  0  0
  1  2  1  0
  2  3  1  0
  3  4  2  0
  4  5  1  0
  5  6  2  0
  6  7  1  0
  7  8  2  0
  2  9  2  0
  9 10  1  0
 10 11  2  3
 11 12  1  0
 12 13  1  0
 13 14  1  0
 14 15  1  0
 13 16  1  0
 16 17  1  0
 10 18  1  0
 18 19  2  0
 19 20  1  0
 20 21  1  0
 21 22  1  0
 19  1  1  0
  8  3  1  0
 22 18  1  0
  1 23  1  0
  4 24  1  0
  5 25  1  0
  6 26  1  0
  7 27  1  0
  8 28  1  0
 12 29  1  0
 12 30  1  0
 13 31  1  0
 15 32  1  0
 15 33  1  0
 15 34  1  0
 17 35  1  0
 17 36  1  0
 17 37  1  0
 20 38  1  0
 20 39  1  0
 21 40  1  0
 21 41  1  0
 22 42  1  0
 22 43  1  0
M  END
>  <ScrubInfo>  (3) 
{"isomerGroup": 0, "isomerId": 2, "confId": 0, "nr_conformers:": 1, "nr_isomers:": 3}

$$$$
