REMARK SMILES COC(CNc1nc(-c2ccccc2)nc2c1CCC2)OC
REMARK SMILES IDX 4 1 3 2 2 3 1 4 21 5 22 6 5 7 6 9 7 10 17 11 8 12 16 13
REMARK SMILES IDX 18 14 15 15 20 16 19 17 9 18 10 19 14 20 11 21 13 22 12 23
REMARK H PARENT 5 8
ROOT
ATOM      1  C   UNL     1       1.756  -0.886  -0.107  1.00  0.00     0.176 C 
ENDROOT
BRANCH   1   2
ATOM      2  C   UNL     1       3.236  -1.181   0.240  1.00  0.00     0.268 C 
BRANCH   2   3
ATOM      3  O   UNL     1       3.627  -2.361  -0.470  1.00  0.00    -0.354 OA
ATOM      4  C   UNL     1       4.929  -2.800  -0.119  1.00  0.00     0.198 C 
ENDBRANCH   2   3
BRANCH   2   5
ATOM      5  O   UNL     1       4.031  -0.058  -0.167  1.00  0.00    -0.354 OA
ATOM      6  C   UNL     1       4.739   0.522   0.920  1.00  0.00     0.198 C 
ENDBRANCH   2   5
ENDBRANCH   1   2
BRANCH   1   7
ATOM      7  N   UNL     1       1.291   0.330   0.584  1.00  0.00    -0.365 N 
ATOM      8  H   UNL     1       1.861   1.121   0.290  1.00  0.00     0.162 HD
BRANCH   7   9
ATOM      9  C   UNL     1      -0.061   0.638   0.362  1.00  0.00     0.133 A 
ATOM     10  N   UNL     1      -0.866  -0.226  -0.279  1.00  0.00    -0.211 NA
ATOM     11  C   UNL     1      -0.573   1.808   0.859  1.00  0.00     0.016 A 
ATOM     12  C   UNL     1      -2.171   0.107  -0.453  1.00  0.00     0.161 A 
ATOM     13  C   UNL     1      -1.908   2.066   0.633  1.00  0.00     0.050 A 
ATOM     14  C   UNL     1       0.078   2.924   1.599  1.00  0.00     0.042 C 
ATOM     15  N   UNL     1      -2.737   1.253  -0.022  1.00  0.00    -0.233 NA
ATOM     16  C   UNL     1      -2.300   3.405   1.188  1.00  0.00     0.057 C 
ATOM     17  C   UNL     1      -1.146   3.659   2.167  1.00  0.00     0.011 C 
BRANCH  12  18
ATOM     18  C   UNL     1      -3.030  -0.856  -1.175  1.00  0.00     0.019 A 
ATOM     19  C   UNL     1      -2.520  -2.075  -1.666  1.00  0.00     0.012 A 
ATOM     20  C   UNL     1      -4.396  -0.598  -1.404  1.00  0.00     0.012 A 
ATOM     21  C   UNL     1      -3.331  -2.987  -2.349  1.00  0.00     0.001 A 
ATOM     22  C   UNL     1      -5.211  -1.508  -2.087  1.00  0.00     0.001 A 
ATOM     23  C   UNL     1      -4.677  -2.702  -2.559  1.00  0.00     0.000 A 
ENDBRANCH  12  18
ENDBRANCH   7   9
ENDBRANCH   1   7
TORSDOF 6
