_i0
     RDKit          3D

 46 48  0  0  0  0  0  0  0  0999 V2000
   -7.0958    0.2269   -1.6999 C   0  0  0  0  0  0  0  0  0  0  0  0
   -6.2421    1.0004   -0.7108 C   0  0  0  0  0  0  0  0  0  0  0  0
   -4.8997    1.1040   -1.1786 O   0  0  0  0  0  0  0  0  0  0  0  0
   -4.0745   -0.0155   -0.8446 C   0  0  0  0  0  0  0  0  0  0  0  0
   -3.4190    0.2016    0.5170 C   0  0  0  0  0  0  0  0  0  0  0  0
   -2.6203   -1.0124    0.9881 C   0  0  0  0  0  0  0  0  0  0  0  0
   -1.5587   -1.3757    0.0649 N   0  0  0  0  0  0  0  0  0  0  0  0
   -0.3264   -0.7681    0.2768 C   0  0  0  0  0  0  0  0  0  0  0  0
    0.7321   -1.5482   -0.0069 N   0  0  0  0  0  0  0  0  0  0  0  0
    1.9971   -1.0748    0.1407 C   0  0  0  0  0  0  0  0  0  0  0  0
    3.0288   -1.9813   -0.1936 N   0  0  0  0  0  0  0  0  0  0  0  0
    4.2737   -1.6099   -0.7533 C   0  0  0  0  0  0  0  0  0  0  0  0
    5.3782   -1.4657    0.1000 C   0  0  0  0  0  0  0  0  0  0  0  0
    6.6149   -1.0614   -0.4044 C   0  0  0  0  0  0  0  0  0  0  0  0
    6.7477   -0.7950   -1.7621 C   0  0  0  0  0  0  0  0  0  0  0  0
    7.9359   -0.4072   -2.2423 F   0  0  0  0  0  0  0  0  0  0  0  0
    5.6709   -0.9253   -2.6293 C   0  0  0  0  0  0  0  0  0  0  0  0
    4.4354   -1.3307   -2.1249 C   0  0  0  0  0  0  0  0  0  0  0  0
    3.1169   -1.5008   -3.2286 Cl  0  0  0  0  0  0  0  0  0  0  0  0
    2.1507    0.2360    0.6011 C   0  0  0  0  0  0  0  0  0  0  0  0
    3.1794    1.1501    0.9102 C   0  0  0  0  0  0  0  0  0  0  0  0
    2.7212    2.3341    1.3341 N   0  0  0  0  0  0  0  0  0  0  0  0
    1.3789    2.1788    1.2850 N   0  0  0  0  0  0  0  0  0  0  0  0
    0.5226    3.2762    1.6585 C   0  0  0  0  0  0  0  0  0  0  0  0
    0.9893    0.9373    0.8645 C   0  0  0  0  0  0  0  0  0  0  0  0
   -0.2659    0.4878    0.7293 N   0  0  0  0  0  0  0  0  0  0  0  0
   -7.0360    0.6797   -2.6951 H   0  0  0  0  0  0  0  0  0  0  0  0
   -6.7522   -0.8071   -1.7994 H   0  0  0  0  0  0  0  0  0  0  0  0
   -8.1418    0.2146   -1.3804 H   0  0  0  0  0  0  0  0  0  0  0  0
   -6.6323    2.0200   -0.6269 H   0  0  0  0  0  0  0  0  0  0  0  0
   -6.2842    0.5488    0.2861 H   0  0  0  0  0  0  0  0  0  0  0  0
   -3.3040   -0.0803   -1.6200 H   0  0  0  0  0  0  0  0  0  0  0  0
   -4.6479   -0.9486   -0.8719 H   0  0  0  0  0  0  0  0  0  0  0  0
   -2.7920    1.0994    0.4703 H   0  0  0  0  0  0  0  0  0  0  0  0
   -4.1876    0.4256    1.2661 H   0  0  0  0  0  0  0  0  0  0  0  0
   -3.3044   -1.8665    1.0657 H   0  0  0  0  0  0  0  0  0  0  0  0
   -2.2340   -0.8458    2.0019 H   0  0  0  0  0  0  0  0  0  0  0  0
   -1.3548   -2.3692    0.0145 H   0  0  0  0  0  0  0  0  0  0  0  0
    2.5499   -2.6507   -0.8005 H   0  0  0  0  0  0  0  0  0  0  0  0
    5.2733   -1.6751    1.1627 H   0  0  0  0  0  0  0  0  0  0  0  0
    7.4732   -0.9524    0.2519 H   0  0  0  0  0  0  0  0  0  0  0  0
    5.8062   -0.7110   -3.6844 H   0  0  0  0  0  0  0  0  0  0  0  0
    4.2494    1.0117    0.8472 H   0  0  0  0  0  0  0  0  0  0  0  0
   -0.5254    2.9914    1.5413 H   0  0  0  0  0  0  0  0  0  0  0  0
    0.7237    3.5285    2.7028 H   0  0  0  0  0  0  0  0  0  0  0  0
    0.7495    4.1259    1.0096 H   0  0  0  0  0  0  0  0  0  0  0  0
  1  2  1  0
  2  3  1  0
  3  4  1  0
  4  5  1  0
  5  6  1  0
  6  7  1  0
  7  8  1  0
  8  9  2  0
  9 10  1  0
 10 11  1  0
 11 12  1  0
 12 13  2  0
 13 14  1  0
 14 15  2  0
 15 16  1  0
 15 17  1  0
 17 18  2  0
 18 19  1  0
 10 20  2  0
 20 21  1  0
 21 22  2  0
 22 23  1  0
 23 24  1  0
 23 25  1  0
 25 26  2  0
 26  8  1  0
 18 12  1  0
 25 20  1  0
  1 27  1  0
  1 28  1  0
  1 29  1  0
  2 30  1  0
  2 31  1  0
  4 32  1  0
  4 33  1  0
  5 34  1  0
  5 35  1  0
  6 36  1  0
  6 37  1  0
  7 38  1  0
 11 39  1  0
 13 40  1  0
 14 41  1  0
 17 42  1  0
 21 43  1  0
 24 44  1  0
 24 45  1  0
 24 46  1  0
M  END
>  <ScrubInfo>  (1) 
{"isomerGroup": 0, "isomerId": 0, "confId": 0, "nr_conformers:": 1, "nr_isomers:": 9}

$$$$
_i1
     RDKit          3D

 46 48  0  0  0  0  0  0  0  0999 V2000
   -0.7527   -1.0404   -0.1281 N   0  0  0  0  0  0  0  0  0  0  0  0
   -1.9711   -1.1855   -0.7702 C   0  0  0  0  0  0  0  0  0  0  0  0
   -2.7548   -0.1091   -1.1377 N   0  0  0  0  0  0  0  0  0  0  0  0
   -2.8337    1.1921   -0.5940 C   0  0  0  0  0  0  0  0  0  0  0  0
   -2.3465    1.5090    0.6837 C   0  0  0  0  0  0  0  0  0  0  0  0
   -2.3924    2.8208    1.1650 C   0  0  0  0  0  0  0  0  0  0  0  0
   -2.9233    3.8287    0.3708 C   0  0  0  0  0  0  0  0  0  0  0  0
   -2.9632    5.0829    0.8374 F   0  0  0  0  0  0  0  0  0  0  0  0
   -3.4176    3.5548   -0.8951 C   0  0  0  0  0  0  0  0  0  0  0  0
   -3.3711    2.2443   -1.3715 C   0  0  0  0  0  0  0  0  0  0  0  0
   -3.9983    1.9319   -2.9557 Cl  0  0  0  0  0  0  0  0  0  0  0  0
   -2.3057   -2.4463   -1.0700 C   0  0  0  0  0  0  0  0  0  0  0  0
   -3.4019   -3.1549   -1.7405 C   0  0  0  0  0  0  0  0  0  0  0  0
   -3.2351   -4.4524   -1.7685 N   0  0  0  0  0  0  0  0  0  0  0  0
   -2.0388   -4.6879   -1.0709 N   0  0  0  0  0  0  0  0  0  0  0  0
   -1.4068   -5.9809   -1.1778 C   0  0  0  0  0  0  0  0  0  0  0  0
   -1.3880   -3.5328   -0.6680 C   0  0  0  0  0  0  0  0  0  0  0  0
   -0.2475   -3.3743   -0.0916 N   0  0  0  0  0  0  0  0  0  0  0  0
    0.1132   -2.0704    0.1665 C   0  0  0  0  0  0  0  0  0  0  0  0
    1.2895   -1.9589    0.6689 N   0  0  0  0  0  0  0  0  0  0  0  0
    1.8313   -0.6542    1.0359 C   0  0  0  0  0  0  0  0  0  0  0  0
    2.6165   -0.0744   -0.1389 C   0  0  0  0  0  0  0  0  0  0  0  0
    3.0667    1.3605    0.1159 C   0  0  0  0  0  0  0  0  0  0  0  0
    3.8664    1.4113    1.2931 O   0  0  0  0  0  0  0  0  0  0  0  0
    4.3404    2.7197    1.6030 C   0  0  0  0  0  0  0  0  0  0  0  0
    5.5660    3.0753    0.7807 C   0  0  0  0  0  0  0  0  0  0  0  0
   -0.3886   -0.1024   -0.1136 H   0  0  0  0  0  0  0  0  0  0  0  0
   -3.4615   -0.2844   -1.8493 H   0  0  0  0  0  0  0  0  0  0  0  0
   -1.9634    0.7359    1.3456 H   0  0  0  0  0  0  0  0  0  0  0  0
   -2.0257    3.0583    2.1597 H   0  0  0  0  0  0  0  0  0  0  0  0
   -3.8307    4.3599   -1.4937 H   0  0  0  0  0  0  0  0  0  0  0  0
   -4.2488   -2.6100   -2.1763 H   0  0  0  0  0  0  0  0  0  0  0  0
   -0.7912   -6.0304   -2.0814 H   0  0  0  0  0  0  0  0  0  0  0  0
   -0.7691   -6.1768   -0.3099 H   0  0  0  0  0  0  0  0  0  0  0  0
   -2.1576   -6.7763   -1.2262 H   0  0  0  0  0  0  0  0  0  0  0  0
    1.0541    0.0381    1.3792 H   0  0  0  0  0  0  0  0  0  0  0  0
    2.4995   -0.7975    1.8930 H   0  0  0  0  0  0  0  0  0  0  0  0
    2.0117   -0.0999   -1.0529 H   0  0  0  0  0  0  0  0  0  0  0  0
    3.4948   -0.7072   -0.3177 H   0  0  0  0  0  0  0  0  0  0  0  0
    2.1915    2.0088    0.2402 H   0  0  0  0  0  0  0  0  0  0  0  0
    3.6419    1.7116   -0.7468 H   0  0  0  0  0  0  0  0  0  0  0  0
    4.6156    2.7149    2.6628 H   0  0  0  0  0  0  0  0  0  0  0  0
    3.5442    3.4617    1.4751 H   0  0  0  0  0  0  0  0  0  0  0  0
    5.3226    3.1581   -0.2826 H   0  0  0  0  0  0  0  0  0  0  0  0
    5.9868    4.0299    1.1097 H   0  0  0  0  0  0  0  0  0  0  0  0
    6.3323    2.2990    0.8754 H   0  0  0  0  0  0  0  0  0  0  0  0
  1  2  1  0
  2  3  1  0
  3  4  1  0
  4  5  2  0
  5  6  1  0
  6  7  2  0
  7  8  1  0
  7  9  1  0
  9 10  2  0
 10 11  1  0
  2 12  2  0
 12 13  1  0
 13 14  2  0
 14 15  1  0
 15 16  1  0
 15 17  1  0
 17 18  2  0
 18 19  1  0
 19 20  2  3
 20 21  1  0
 21 22  1  0
 22 23  1  0
 23 24  1  0
 24 25  1  0
 25 26  1  0
 19  1  1  0
 10  4  1  0
 17 12  1  0
  1 27  1  0
  3 28  1  0
  5 29  1  0
  6 30  1  0
  9 31  1  0
 13 32  1  0
 16 33  1  0
 16 34  1  0
 16 35  1  0
 21 36  1  0
 21 37  1  0
 22 38  1  0
 22 39  1  0
 23 40  1  0
 23 41  1  0
 25 42  1  0
 25 43  1  0
 26 44  1  0
 26 45  1  0
 26 46  1  0
M  END
>  <ScrubInfo>  (2) 
{"isomerGroup": 0, "isomerId": 1, "confId": 0, "nr_conformers:": 1, "nr_isomers:": 9}

$$$$
_i2
     RDKit          3D

 46 48  0  0  0  0  0  0  0  0999 V2000
   -0.4609   -1.2719   -0.0289 N   0  0  0  0  0  0  0  0  0  0  0  0
    0.4438   -0.5832   -0.8011 C   0  0  0  0  0  0  0  0  0  0  0  0
    1.6741   -1.1793   -0.8385 N   0  0  0  0  0  0  0  0  0  0  0  0
    2.8250   -0.5516   -1.4694 C   0  0  0  0  0  0  0  0  0  0  0  0
    3.3737    0.6209   -0.6555 C   0  0  0  0  0  0  0  0  0  0  0  0
    3.7356    0.2617    0.7838 C   0  0  0  0  0  0  0  0  0  0  0  0
    4.5204   -0.9272    0.8643 O   0  0  0  0  0  0  0  0  0  0  0  0
    5.9061   -0.6996    0.6125 C   0  0  0  0  0  0  0  0  0  0  0  0
    6.6343   -2.0238    0.7330 C   0  0  0  0  0  0  0  0  0  0  0  0
    0.1551    0.5200   -1.4417 N   0  0  0  0  0  0  0  0  0  0  0  0
   -1.1347    0.9058   -1.2325 C   0  0  0  0  0  0  0  0  0  0  0  0
   -2.1109    0.2819   -0.4706 C   0  0  0  0  0  0  0  0  0  0  0  0
   -3.2409    1.1054   -0.6155 C   0  0  0  0  0  0  0  0  0  0  0  0
   -3.0145    2.1664   -1.4000 N   0  0  0  0  0  0  0  0  0  0  0  0
   -1.7193    2.0217   -1.7612 N   0  0  0  0  0  0  0  0  0  0  0  0
   -1.1142    2.9997   -2.6297 C   0  0  0  0  0  0  0  0  0  0  0  0
   -1.7765   -0.9518    0.2130 C   0  0  0  0  0  0  0  0  0  0  0  0
   -2.5350   -1.7089    0.9464 N   0  0  0  0  0  0  0  0  0  0  0  0
   -3.8682   -1.3841    1.2277 C   0  0  0  0  0  0  0  0  0  0  0  0
   -4.8761   -1.9231    0.4165 C   0  0  0  0  0  0  0  0  0  0  0  0
   -6.2199   -1.6609    0.6873 C   0  0  0  0  0  0  0  0  0  0  0  0
   -6.5570   -0.8717    1.7809 C   0  0  0  0  0  0  0  0  0  0  0  0
   -7.8472   -0.6236    2.0393 F   0  0  0  0  0  0  0  0  0  0  0  0
   -5.5801   -0.3411    2.6134 C   0  0  0  0  0  0  0  0  0  0  0  0
   -4.2370   -0.6041    2.3415 C   0  0  0  0  0  0  0  0  0  0  0  0
   -3.0441    0.0622    3.4005 Cl  0  0  0  0  0  0  0  0  0  0  0  0
   -0.1782   -2.1599    0.3504 H   0  0  0  0  0  0  0  0  0  0  0  0
    1.9353   -1.7251   -0.0242 H   0  0  0  0  0  0  0  0  0  0  0  0
    2.5624   -0.2112   -2.4780 H   0  0  0  0  0  0  0  0  0  0  0  0
    3.6036   -1.3120   -1.5985 H   0  0  0  0  0  0  0  0  0  0  0  0
    2.6547    1.4479   -0.6406 H   0  0  0  0  0  0  0  0  0  0  0  0
    4.2658    0.9959   -1.1709 H   0  0  0  0  0  0  0  0  0  0  0  0
    4.2465    1.0964    1.2782 H   0  0  0  0  0  0  0  0  0  0  0  0
    2.8192    0.0752    1.3543 H   0  0  0  0  0  0  0  0  0  0  0  0
    6.0459   -0.2936   -0.3943 H   0  0  0  0  0  0  0  0  0  0  0  0
    6.3033    0.0104    1.3459 H   0  0  0  0  0  0  0  0  0  0  0  0
    7.7051   -1.8984    0.5498 H   0  0  0  0  0  0  0  0  0  0  0  0
    6.4940   -2.4517    1.7312 H   0  0  0  0  0  0  0  0  0  0  0  0
    6.2354   -2.7493    0.0163 H   0  0  0  0  0  0  0  0  0  0  0  0
   -4.2305    0.9967   -0.1963 H   0  0  0  0  0  0  0  0  0  0  0  0
   -0.0456    2.8004   -2.7348 H   0  0  0  0  0  0  0  0  0  0  0  0
   -1.2610    3.9898   -2.1904 H   0  0  0  0  0  0  0  0  0  0  0  0
   -1.6025    2.9390   -3.6055 H   0  0  0  0  0  0  0  0  0  0  0  0
   -4.6079   -2.5519   -0.4291 H   0  0  0  0  0  0  0  0  0  0  0  0
   -7.0030   -2.0716    0.0571 H   0  0  0  0  0  0  0  0  0  0  0  0
   -5.8742    0.2653    3.4638 H   0  0  0  0  0  0  0  0  0  0  0  0
  1  2  1  0
  2  3  1  0
  3  4  1  0
  4  5  1  0
  5  6  1  0
  6  7  1  0
  7  8  1  0
  8  9  1  0
  2 10  2  0
 10 11  1  0
 11 12  2  0
 12 13  1  0
 13 14  2  0
 14 15  1  0
 15 16  1  0
 12 17  1  0
 17 18  2  3
 18 19  1  0
 19 20  2  0
 20 21  1  0
 21 22  2  0
 22 23  1  0
 22 24  1  0
 24 25  2  0
 25 26  1  0
 17  1  1  0
 25 19  1  0
 15 11  1  0
  1 27  1  0
  3 28  1  0
  4 29  1  0
  4 30  1  0
  5 31  1  0
  5 32  1  0
  6 33  1  0
  6 34  1  0
  8 35  1  0
  8 36  1  0
  9 37  1  0
  9 38  1  0
  9 39  1  0
 13 40  1  0
 16 41  1  0
 16 42  1  0
 16 43  1  0
 20 44  1  0
 21 45  1  0
 24 46  1  0
M  END
>  <ScrubInfo>  (3) 
{"isomerGroup": 0, "isomerId": 2, "confId": 0, "nr_conformers:": 1, "nr_isomers:": 9}

$$$$
_i3
     RDKit          3D

 46 48  0  0  0  0  0  0  0  0999 V2000
    0.2143   -1.1709   -0.4768 N   0  0  0  0  0  0  0  0  0  0  0  0
    0.1110   -0.0005   -1.2123 C   0  0  0  0  0  0  0  0  0  0  0  0
    1.0770    0.6182   -1.7955 N   0  0  0  0  0  0  0  0  0  0  0  0
    2.4265    0.0749   -1.6959 C   0  0  0  0  0  0  0  0  0  0  0  0
    3.3812    1.0317   -2.4066 C   0  0  0  0  0  0  0  0  0  0  0  0
    4.8073    0.4899   -2.4447 C   0  0  0  0  0  0  0  0  0  0  0  0
    5.2964    0.1314   -1.1523 O   0  0  0  0  0  0  0  0  0  0  0  0
    5.7016    1.2567   -0.3746 C   0  0  0  0  0  0  0  0  0  0  0  0
    6.2555    0.7481    0.9420 C   0  0  0  0  0  0  0  0  0  0  0  0
   -1.1125    0.6294   -1.3889 N   0  0  0  0  0  0  0  0  0  0  0  0
   -2.1842    0.1272   -0.8429 C   0  0  0  0  0  0  0  0  0  0  0  0
   -3.4162    0.7161   -0.9909 N   0  0  0  0  0  0  0  0  0  0  0  0
   -4.3113    0.9857    0.0793 C   0  0  0  0  0  0  0  0  0  0  0  0
   -5.6789    0.7822   -0.1822 C   0  0  0  0  0  0  0  0  0  0  0  0
   -6.6450    1.0675    0.7832 C   0  0  0  0  0  0  0  0  0  0  0  0
   -6.2522    1.5884    2.0080 C   0  0  0  0  0  0  0  0  0  0  0  0
   -7.1792    1.8659    2.9333 F   0  0  0  0  0  0  0  0  0  0  0  0
   -4.9156    1.8441    2.2812 C   0  0  0  0  0  0  0  0  0  0  0  0
   -3.9461    1.5607    1.3150 C   0  0  0  0  0  0  0  0  0  0  0  0
   -2.3164    1.9906    1.6973 Cl  0  0  0  0  0  0  0  0  0  0  0  0
   -2.1253   -1.1114   -0.1015 C   0  0  0  0  0  0  0  0  0  0  0  0
   -3.0094   -1.9849    0.5494 C   0  0  0  0  0  0  0  0  0  0  0  0
   -2.3804   -3.0395    1.0921 N   0  0  0  0  0  0  0  0  0  0  0  0
   -1.0777   -2.8373    0.7759 N   0  0  0  0  0  0  0  0  0  0  0  0
   -0.0945   -3.7982    1.2068 C   0  0  0  0  0  0  0  0  0  0  0  0
   -0.9014   -1.7021    0.0510 C   0  0  0  0  0  0  0  0  0  0  0  0
    1.1308   -1.5829   -0.3872 H   0  0  0  0  0  0  0  0  0  0  0  0
    2.4744   -0.9109   -2.1736 H   0  0  0  0  0  0  0  0  0  0  0  0
    2.7227   -0.0247   -0.6451 H   0  0  0  0  0  0  0  0  0  0  0  0
    3.0388    1.2111   -3.4330 H   0  0  0  0  0  0  0  0  0  0  0  0
    3.3573    2.0019   -1.8969 H   0  0  0  0  0  0  0  0  0  0  0  0
    4.8274   -0.4215   -3.0525 H   0  0  0  0  0  0  0  0  0  0  0  0
    5.4852    1.2065   -2.9229 H   0  0  0  0  0  0  0  0  0  0  0  0
    4.8470    1.9121   -0.1819 H   0  0  0  0  0  0  0  0  0  0  0  0
    6.4748    1.8189   -0.9093 H   0  0  0  0  0  0  0  0  0  0  0  0
    5.4976    0.1700    1.4811 H   0  0  0  0  0  0  0  0  0  0  0  0
    7.1047    0.0784    0.7703 H   0  0  0  0  0  0  0  0  0  0  0  0
    6.5825    1.5781    1.5745 H   0  0  0  0  0  0  0  0  0  0  0  0
   -3.2818    1.5760   -1.5220 H   0  0  0  0  0  0  0  0  0  0  0  0
   -5.9928    0.3786   -1.1436 H   0  0  0  0  0  0  0  0  0  0  0  0
   -7.6979    0.8907    0.5854 H   0  0  0  0  0  0  0  0  0  0  0  0
   -4.6445    2.2760    3.2396 H   0  0  0  0  0  0  0  0  0  0  0  0
   -4.0833   -1.9129    0.6569 H   0  0  0  0  0  0  0  0  0  0  0  0
   -0.1885   -3.9289    2.2879 H   0  0  0  0  0  0  0  0  0  0  0  0
   -0.2871   -4.7412    0.6893 H   0  0  0  0  0  0  0  0  0  0  0  0
    0.9082   -3.4388    0.9664 H   0  0  0  0  0  0  0  0  0  0  0  0
  1  2  1  0
  2  3  2  3
  3  4  1  0
  4  5  1  0
  5  6  1  0
  6  7  1  0
  7  8  1  0
  8  9  1  0
  2 10  1  0
 10 11  2  0
 11 12  1  0
 12 13  1  0
 13 14  2  0
 14 15  1  0
 15 16  2  0
 16 17  1  0
 16 18  1  0
 18 19  2  0
 19 20  1  0
 11 21  1  0
 21 22  1  0
 22 23  2  0
 23 24  1  0
 24 25  1  0
 24 26  1  0
 26  1  1  0
 19 13  1  0
 26 21  2  0
  1 27  1  0
  4 28  1  0
  4 29  1  0
  5 30  1  0
  5 31  1  0
  6 32  1  0
  6 33  1  0
  8 34  1  0
  8 35  1  0
  9 36  1  0
  9 37  1  0
  9 38  1  0
 12 39  1  0
 14 40  1  0
 15 41  1  0
 18 42  1  0
 22 43  1  0
 25 44  1  0
 25 45  1  0
 25 46  1  0
M  END
>  <ScrubInfo>  (4) 
{"isomerGroup": 0, "isomerId": 3, "confId": 0, "nr_conformers:": 1, "nr_isomers:": 9}

$$$$
_i4
     RDKit          3D

 46 48  0  0  0  0  0  0  0  0999 V2000
   -2.4247   -4.6719   -0.3320 N   0  0  0  0  0  0  0  0  0  0  0  0
   -3.1591   -3.5034   -0.1548 C   0  0  0  0  0  0  0  0  0  0  0  0
   -2.3873   -2.4118   -0.0814 C   0  0  0  0  0  0  0  0  0  0  0  0
   -2.5655   -0.9924    0.1112 C   0  0  0  0  0  0  0  0  0  0  0  0
   -3.7364   -0.4448    0.2160 N   0  0  0  0  0  0  0  0  0  0  0  0
   -3.7987    0.9521    0.3779 C   0  0  0  0  0  0  0  0  0  0  0  0
   -3.9799    1.4655    1.6695 C   0  0  0  0  0  0  0  0  0  0  0  0
   -4.0612    2.8424    1.8821 C   0  0  0  0  0  0  0  0  0  0  0  0
   -3.9719    3.7077    0.7984 C   0  0  0  0  0  0  0  0  0  0  0  0
   -4.0498    5.0289    1.0042 F   0  0  0  0  0  0  0  0  0  0  0  0
   -3.8087    3.2274   -0.4944 C   0  0  0  0  0  0  0  0  0  0  0  0
   -3.7273    1.8500   -0.7051 C   0  0  0  0  0  0  0  0  0  0  0  0
   -3.5421    1.2872   -2.3307 Cl  0  0  0  0  0  0  0  0  0  0  0  0
   -1.3981   -0.2806    0.1814 N   0  0  0  0  0  0  0  0  0  0  0  0
   -0.2318   -0.8339    0.0343 C   0  0  0  0  0  0  0  0  0  0  0  0
    0.9075   -0.0830    0.1072 N   0  0  0  0  0  0  0  0  0  0  0  0
    0.8925    1.3535   -0.0903 C   0  0  0  0  0  0  0  0  0  0  0  0
    2.2643    1.9597    0.1865 C   0  0  0  0  0  0  0  0  0  0  0  0
    3.2714    1.6649   -0.9226 C   0  0  0  0  0  0  0  0  0  0  0  0
    4.4964    2.3573   -0.6813 O   0  0  0  0  0  0  0  0  0  0  0  0
    5.4041    1.6662    0.1745 C   0  0  0  0  0  0  0  0  0  0  0  0
    6.2480    0.6843   -0.6189 C   0  0  0  0  0  0  0  0  0  0  0  0
   -0.0037   -2.1636   -0.2120 N   0  0  0  0  0  0  0  0  0  0  0  0
   -1.0315   -2.9369   -0.2817 C   0  0  0  0  0  0  0  0  0  0  0  0
   -1.0926   -4.3100   -0.5282 N   0  0  0  0  0  0  0  0  0  0  0  0
   -0.0475   -5.1988   -0.0585 C   0  0  0  0  0  0  0  0  0  0  0  0
   -2.8280   -5.2966   -1.0344 H   0  0  0  0  0  0  0  0  0  0  0  0
   -4.2377   -3.5497   -0.0987 H   0  0  0  0  0  0  0  0  0  0  0  0
   -4.0501    0.7818    2.5115 H   0  0  0  0  0  0  0  0  0  0  0  0
   -4.1938    3.2414    2.8827 H   0  0  0  0  0  0  0  0  0  0  0  0
   -3.7506    3.9270   -1.3212 H   0  0  0  0  0  0  0  0  0  0  0  0
    1.6966   -0.5893   -0.2728 H   0  0  0  0  0  0  0  0  0  0  0  0
    0.1739    1.8079    0.6022 H   0  0  0  0  0  0  0  0  0  0  0  0
    0.5654    1.5912   -1.1091 H   0  0  0  0  0  0  0  0  0  0  0  0
    2.6466    1.6117    1.1532 H   0  0  0  0  0  0  0  0  0  0  0  0
    2.1631    3.0485    0.2801 H   0  0  0  0  0  0  0  0  0  0  0  0
    3.4469    0.5913   -1.0440 H   0  0  0  0  0  0  0  0  0  0  0  0
    2.8813    2.0402   -1.8750 H   0  0  0  0  0  0  0  0  0  0  0  0
    4.8794    1.1639    0.9937 H   0  0  0  0  0  0  0  0  0  0  0  0
    6.0619    2.4202    0.6189 H   0  0  0  0  0  0  0  0  0  0  0  0
    6.7546    1.1933   -1.4455 H   0  0  0  0  0  0  0  0  0  0  0  0
    5.6319   -0.1047   -1.0602 H   0  0  0  0  0  0  0  0  0  0  0  0
    7.0010    0.2166    0.0219 H   0  0  0  0  0  0  0  0  0  0  0  0
    0.9298   -4.8739   -0.4296 H   0  0  0  0  0  0  0  0  0  0  0  0
   -0.2214   -6.2166   -0.4222 H   0  0  0  0  0  0  0  0  0  0  0  0
   -0.0175   -5.2205    1.0359 H   0  0  0  0  0  0  0  0  0  0  0  0
  1  2  1  0
  2  3  2  0
  3  4  1  0
  4  5  2  3
  5  6  1  0
  6  7  2  0
  7  8  1  0
  8  9  2  0
  9 10  1  0
  9 11  1  0
 11 12  2  0
 12 13  1  0
  4 14  1  0
 14 15  2  0
 15 16  1  0
 16 17  1  0
 17 18  1  0
 18 19  1  0
 19 20  1  0
 20 21  1  0
 21 22  1  0
 15 23  1  0
 23 24  2  0
 24 25  1  0
 25 26  1  0
 25  1  1  0
 24  3  1  0
 12  6  1  0
  1 27  1  0
  2 28  1  0
  7 29  1  0
  8 30  1  0
 11 31  1  0
 16 32  1  0
 17 33  1  0
 17 34  1  0
 18 35  1  0
 18 36  1  0
 19 37  1  0
 19 38  1  0
 21 39  1  0
 21 40  1  0
 22 41  1  0
 22 42  1  0
 22 43  1  0
 26 44  1  0
 26 45  1  0
 26 46  1  0
M  END
>  <ScrubInfo>  (5) 
{"isomerGroup": 0, "isomerId": 4, "confId": 0, "nr_conformers:": 1, "nr_isomers:": 9}

$$$$
_i5
     RDKit          3D

 46 48  0  0  0  0  0  0  0  0999 V2000
   -0.3585   -2.4834   -1.2358 N   0  0  0  0  0  0  0  0  0  0  0  0
   -0.2650   -1.1119   -1.1918 C   0  0  0  0  0  0  0  0  0  0  0  0
    0.7532   -0.5793   -1.9280 N   0  0  0  0  0  0  0  0  0  0  0  0
    2.1461   -0.9689   -1.7188 C   0  0  0  0  0  0  0  0  0  0  0  0
    2.6067   -0.7726   -0.2723 C   0  0  0  0  0  0  0  0  0  0  0  0
    2.5138    0.6688    0.2189 C   0  0  0  0  0  0  0  0  0  0  0  0
    3.2645    1.5102   -0.6547 O   0  0  0  0  0  0  0  0  0  0  0  0
    3.1439    2.8975   -0.3405 C   0  0  0  0  0  0  0  0  0  0  0  0
    3.9867    3.2794    0.8632 C   0  0  0  0  0  0  0  0  0  0  0  0
   -1.0495   -0.3136   -0.5213 N   0  0  0  0  0  0  0  0  0  0  0  0
   -2.0610   -0.8640    0.2558 C   0  0  0  0  0  0  0  0  0  0  0  0
   -2.8428   -0.1695    1.0200 N   0  0  0  0  0  0  0  0  0  0  0  0
   -2.6276    1.2195    1.0828 C   0  0  0  0  0  0  0  0  0  0  0  0
   -3.4740    2.0565    0.3427 C   0  0  0  0  0  0  0  0  0  0  0  0
   -3.3121    3.4423    0.3776 C   0  0  0  0  0  0  0  0  0  0  0  0
   -2.3077    3.9935    1.1641 C   0  0  0  0  0  0  0  0  0  0  0  0
   -2.1519    5.3234    1.1953 F   0  0  0  0  0  0  0  0  0  0  0  0
   -1.4651    3.1908    1.9219 C   0  0  0  0  0  0  0  0  0  0  0  0
   -1.6282    1.8049    1.8855 C   0  0  0  0  0  0  0  0  0  0  0  0
   -0.5687    0.8404    2.8563 Cl  0  0  0  0  0  0  0  0  0  0  0  0
   -2.2326   -2.2924    0.1973 C   0  0  0  0  0  0  0  0  0  0  0  0
   -3.1212   -3.2247    0.7480 C   0  0  0  0  0  0  0  0  0  0  0  0
   -2.8468   -4.4806    0.3566 N   0  0  0  0  0  0  0  0  0  0  0  0
   -1.7626   -4.3403   -0.4473 N   0  0  0  0  0  0  0  0  0  0  0  0
   -1.1805   -5.5121   -1.0495 C   0  0  0  0  0  0  0  0  0  0  0  0
   -1.3711   -3.0441   -0.5530 C   0  0  0  0  0  0  0  0  0  0  0  0
    0.1872   -2.9592   -1.9414 H   0  0  0  0  0  0  0  0  0  0  0  0
    0.6774    0.4370   -1.9006 H   0  0  0  0  0  0  0  0  0  0  0  0
    2.2799   -2.0192   -2.0022 H   0  0  0  0  0  0  0  0  0  0  0  0
    2.7750   -0.3859   -2.4009 H   0  0  0  0  0  0  0  0  0  0  0  0
    2.0334   -1.4187    0.4026 H   0  0  0  0  0  0  0  0  0  0  0  0
    3.6534   -1.0960   -0.2133 H   0  0  0  0  0  0  0  0  0  0  0  0
    2.9247    0.7247    1.2321 H   0  0  0  0  0  0  0  0  0  0  0  0
    1.4710    1.0007    0.2502 H   0  0  0  0  0  0  0  0  0  0  0  0
    3.5043    3.4510   -1.2139 H   0  0  0  0  0  0  0  0  0  0  0  0
    2.0924    3.1693   -0.1940 H   0  0  0  0  0  0  0  0  0  0  0  0
    5.0193    2.9389    0.7356 H   0  0  0  0  0  0  0  0  0  0  0  0
    3.6052    2.8178    1.7788 H   0  0  0  0  0  0  0  0  0  0  0  0
    3.9859    4.3642    1.0046 H   0  0  0  0  0  0  0  0  0  0  0  0
   -4.2592    1.6178   -0.2679 H   0  0  0  0  0  0  0  0  0  0  0  0
   -3.9626    4.0904   -0.2010 H   0  0  0  0  0  0  0  0  0  0  0  0
   -0.6972    3.6509    2.5340 H   0  0  0  0  0  0  0  0  0  0  0  0
   -3.9577   -3.0470    1.4117 H   0  0  0  0  0  0  0  0  0  0  0  0
   -0.2844   -5.2367   -1.6095 H   0  0  0  0  0  0  0  0  0  0  0  0
   -0.9173   -6.2150   -0.2550 H   0  0  0  0  0  0  0  0  0  0  0  0
   -1.9186   -5.9548   -1.7230 H   0  0  0  0  0  0  0  0  0  0  0  0
  1  2  1  0
  2  3  1  0
  3  4  1  0
  4  5  1  0
  5  6  1  0
  6  7  1  0
  7  8  1  0
  8  9  1  0
  2 10  2  0
 10 11  1  0
 11 12  2  3
 12 13  1  0
 13 14  2  0
 14 15  1  0
 15 16  2  0
 16 17  1  0
 16 18  1  0
 18 19  2  0
 19 20  1  0
 11 21  1  0
 21 22  1  0
 22 23  2  0
 23 24  1  0
 24 25  1  0
 24 26  1  0
 26  1  1  0
 19 13  1  0
 26 21  2  0
  1 27  1  0
  3 28  1  0
  4 29  1  0
  4 30  1  0
  5 31  1  0
  5 32  1  0
  6 33  1  0
  6 34  1  0
  8 35  1  0
  8 36  1  0
  9 37  1  0
  9 38  1  0
  9 39  1  0
 14 40  1  0
 15 41  1  0
 18 42  1  0
 22 43  1  0
 25 44  1  0
 25 45  1  0
 25 46  1  0
M  END
>  <ScrubInfo>  (6) 
{"isomerGroup": 0, "isomerId": 5, "confId": 0, "nr_conformers:": 1, "nr_isomers:": 9}

$$$$
_i6
     RDKit          3D

 46 48  0  0  0  0  0  0  0  0999 V2000
   -1.9526   -4.4496   -0.8627 N   0  0  0  0  0  0  0  0  0  0  0  0
   -2.7962   -3.3746   -0.6044 C   0  0  0  0  0  0  0  0  0  0  0  0
   -2.1425   -2.2076   -0.5163 C   0  0  0  0  0  0  0  0  0  0  0  0
   -2.4468   -0.7992   -0.2450 C   0  0  0  0  0  0  0  0  0  0  0  0
   -3.7584   -0.4244   -0.0318 N   0  0  0  0  0  0  0  0  0  0  0  0
   -4.3233    0.8415    0.2451 C   0  0  0  0  0  0  0  0  0  0  0  0
   -3.5784    2.0243    0.3445 C   0  0  0  0  0  0  0  0  0  0  0  0
   -4.1983    3.2487    0.6209 C   0  0  0  0  0  0  0  0  0  0  0  0
   -5.5730    3.3032    0.8008 C   0  0  0  0  0  0  0  0  0  0  0  0
   -6.1597    4.4774    1.0649 F   0  0  0  0  0  0  0  0  0  0  0  0
   -6.3473    2.1582    0.7104 C   0  0  0  0  0  0  0  0  0  0  0  0
   -5.7235    0.9407    0.4347 C   0  0  0  0  0  0  0  0  0  0  0  0
   -6.7212   -0.4746    0.3273 Cl  0  0  0  0  0  0  0  0  0  0  0  0
   -1.4392    0.0228   -0.2188 N   0  0  0  0  0  0  0  0  0  0  0  0
   -0.1604   -0.4358   -0.4335 C   0  0  0  0  0  0  0  0  0  0  0  0
    0.7393    0.4770   -0.3207 N   0  0  0  0  0  0  0  0  0  0  0  0
    2.1302    0.0893   -0.5383 C   0  0  0  0  0  0  0  0  0  0  0  0
    3.0024    1.3315   -0.3800 C   0  0  0  0  0  0  0  0  0  0  0  0
    4.4799    0.9926   -0.5513 C   0  0  0  0  0  0  0  0  0  0  0  0
    5.2879    2.1685   -0.4953 O   0  0  0  0  0  0  0  0  0  0  0  0
    5.6123    2.5973    0.8250 C   0  0  0  0  0  0  0  0  0  0  0  0
    6.8404    1.8675    1.3400 C   0  0  0  0  0  0  0  0  0  0  0  0
    0.2124   -1.7233   -0.7458 N   0  0  0  0  0  0  0  0  0  0  0  0
   -0.7417   -2.5850   -0.8031 C   0  0  0  0  0  0  0  0  0  0  0  0
   -0.6800   -3.9451   -1.1068 N   0  0  0  0  0  0  0  0  0  0  0  0
    0.4787   -4.7402   -0.7474 C   0  0  0  0  0  0  0  0  0  0  0  0
   -2.3180   -5.1022   -1.5608 H   0  0  0  0  0  0  0  0  0  0  0  0
   -3.8552   -3.5603   -0.5006 H   0  0  0  0  0  0  0  0  0  0  0  0
   -4.4626   -1.1545   -0.0623 H   0  0  0  0  0  0  0  0  0  0  0  0
   -2.5001    2.0312    0.2108 H   0  0  0  0  0  0  0  0  0  0  0  0
   -3.6073    4.1571    0.6949 H   0  0  0  0  0  0  0  0  0  0  0  0
   -7.4202    2.2257    0.8545 H   0  0  0  0  0  0  0  0  0  0  0  0
    2.4382   -0.6644    0.1968 H   0  0  0  0  0  0  0  0  0  0  0  0
    2.2669   -0.3202   -1.5467 H   0  0  0  0  0  0  0  0  0  0  0  0
    2.8268    1.7869    0.6017 H   0  0  0  0  0  0  0  0  0  0  0  0
    2.7128    2.0958   -1.1123 H   0  0  0  0  0  0  0  0  0  0  0  0
    4.8100    0.2543    0.1875 H   0  0  0  0  0  0  0  0  0  0  0  0
    4.6373    0.5521   -1.5420 H   0  0  0  0  0  0  0  0  0  0  0  0
    5.8356    3.6677    0.7676 H   0  0  0  0  0  0  0  0  0  0  0  0
    4.7661    2.4753    1.5084 H   0  0  0  0  0  0  0  0  0  0  0  0
    7.1407    2.2586    2.3164 H   0  0  0  0  0  0  0  0  0  0  0  0
    6.6528    0.7944    1.4410 H   0  0  0  0  0  0  0  0  0  0  0  0
    7.6761    1.9811    0.6418 H   0  0  0  0  0  0  0  0  0  0  0  0
    1.3917   -4.2993   -1.1603 H   0  0  0  0  0  0  0  0  0  0  0  0
    0.3850   -5.7537   -1.1508 H   0  0  0  0  0  0  0  0  0  0  0  0
    0.5823   -4.8068    0.3407 H   0  0  0  0  0  0  0  0  0  0  0  0
  1  2  1  0
  2  3  2  0
  3  4  1  0
  4  5  1  0
  5  6  1  0
  6  7  2  0
  7  8  1  0
  8  9  2  0
  9 10  1  0
  9 11  1  0
 11 12  2  0
 12 13  1  0
  4 14  2  0
 14 15  1  0
 15 16  2  3
 16 17  1  0
 17 18  1  0
 18 19  1  0
 19 20  1  0
 20 21  1  0
 21 22  1  0
 15 23  1  0
 23 24  2  0
 24 25  1  0
 25 26  1  0
 25  1  1  0
 24  3  1  0
 12  6  1  0
  1 27  1  0
  2 28  1  0
  5 29  1  0
  7 30  1  0
  8 31  1  0
 11 32  1  0
 17 33  1  0
 17 34  1  0
 18 35  1  0
 18 36  1  0
 19 37  1  0
 19 38  1  0
 21 39  1  0
 21 40  1  0
 22 41  1  0
 22 42  1  0
 22 43  1  0
 26 44  1  0
 26 45  1  0
 26 46  1  0
M  END
>  <ScrubInfo>  (7) 
{"isomerGroup": 0, "isomerId": 6, "confId": 0, "nr_conformers:": 1, "nr_isomers:": 9}

$$$$
_i7
     RDKit          3D

 46 48  0  0  0  0  0  0  0  0999 V2000
   -2.2779   -4.6004   -0.5839 N   0  0  0  0  0  0  0  0  0  0  0  0
   -3.0508   -3.4446   -0.6029 C   0  0  0  0  0  0  0  0  0  0  0  0
   -2.3412   -2.3397   -0.3457 C   0  0  0  0  0  0  0  0  0  0  0  0
   -2.5821   -0.9021   -0.1977 C   0  0  0  0  0  0  0  0  0  0  0  0
   -3.7843   -0.4395   -0.3714 N   0  0  0  0  0  0  0  0  0  0  0  0
   -4.0098    0.9423   -0.2474 C   0  0  0  0  0  0  0  0  0  0  0  0
   -4.5074    1.4284    0.9686 C   0  0  0  0  0  0  0  0  0  0  0  0
   -4.7666    2.7895    1.1359 C   0  0  0  0  0  0  0  0  0  0  0  0
   -4.5377    3.6649    0.0807 C   0  0  0  0  0  0  0  0  0  0  0  0
   -4.7880    4.9700    0.2436 F   0  0  0  0  0  0  0  0  0  0  0  0
   -4.0570    3.2092   -1.1400 C   0  0  0  0  0  0  0  0  0  0  0  0
   -3.7990    1.8479   -1.3056 C   0  0  0  0  0  0  0  0  0  0  0  0
   -3.2013    1.3123   -2.8366 Cl  0  0  0  0  0  0  0  0  0  0  0  0
   -1.4383   -0.2191    0.1292 N   0  0  0  0  0  0  0  0  0  0  0  0
   -0.1897   -0.7537    0.3049 C   0  0  0  0  0  0  0  0  0  0  0  0
    0.7688    0.0472    0.6411 N   0  0  0  0  0  0  0  0  0  0  0  0
    2.0968   -0.5396    0.8231 C   0  0  0  0  0  0  0  0  0  0  0  0
    3.0803    0.5596    1.2159 C   0  0  0  0  0  0  0  0  0  0  0  0
    3.2813    1.5857    0.1027 C   0  0  0  0  0  0  0  0  0  0  0  0
    4.2524    2.5605    0.4934 O   0  0  0  0  0  0  0  0  0  0  0  0
    5.5975    2.1947    0.1951 C   0  0  0  0  0  0  0  0  0  0  0  0
    5.9556    2.5858   -1.2278 C   0  0  0  0  0  0  0  0  0  0  0  0
    0.0612   -2.1000    0.1307 N   0  0  0  0  0  0  0  0  0  0  0  0
   -0.9438   -2.8531   -0.1932 C   0  0  0  0  0  0  0  0  0  0  0  0
   -0.9422   -4.2278   -0.4444 N   0  0  0  0  0  0  0  0  0  0  0  0
   -0.0326   -5.1150    0.2544 C   0  0  0  0  0  0  0  0  0  0  0  0
   -2.4878   -5.2373   -1.3562 H   0  0  0  0  0  0  0  0  0  0  0  0
   -4.1089   -3.5100   -0.8139 H   0  0  0  0  0  0  0  0  0  0  0  0
   -4.6987    0.7370    1.7861 H   0  0  0  0  0  0  0  0  0  0  0  0
   -5.1510    3.1695    2.0776 H   0  0  0  0  0  0  0  0  0  0  0  0
   -3.8935    3.9160   -1.9469 H   0  0  0  0  0  0  0  0  0  0  0  0
   -1.4789    0.7775    0.2733 H   0  0  0  0  0  0  0  0  0  0  0  0
    2.0754   -1.2854    1.6270 H   0  0  0  0  0  0  0  0  0  0  0  0
    2.4429   -1.0252   -0.0975 H   0  0  0  0  0  0  0  0  0  0  0  0
    4.0408    0.1011    1.4772 H   0  0  0  0  0  0  0  0  0  0  0  0
    2.7375    1.0740    2.1225 H   0  0  0  0  0  0  0  0  0  0  0  0
    3.5637    1.1056   -0.8406 H   0  0  0  0  0  0  0  0  0  0  0  0
    2.3467    2.1285   -0.0737 H   0  0  0  0  0  0  0  0  0  0  0  0
    5.7704    1.1271    0.3669 H   0  0  0  0  0  0  0  0  0  0  0  0
    6.2411    2.7476    0.8871 H   0  0  0  0  0  0  0  0  0  0  0  0
    5.3488    2.0390   -1.9558 H   0  0  0  0  0  0  0  0  0  0  0  0
    7.0101    2.3787   -1.4315 H   0  0  0  0  0  0  0  0  0  0  0  0
    5.7669    3.6518   -1.3922 H   0  0  0  0  0  0  0  0  0  0  0  0
    1.0034   -4.7865    0.1234 H   0  0  0  0  0  0  0  0  0  0  0  0
   -0.1129   -6.1323   -0.1422 H   0  0  0  0  0  0  0  0  0  0  0  0
   -0.2599   -5.1400    1.3253 H   0  0  0  0  0  0  0  0  0  0  0  0
  1  2  1  0
  2  3  2  0
  3  4  1  0
  4  5  2  3
  5  6  1  0
  6  7  2  0
  7  8  1  0
  8  9  2  0
  9 10  1  0
  9 11  1  0
 11 12  2  0
 12 13  1  0
  4 14  1  0
 14 15  1  0
 15 16  2  3
 16 17  1  0
 17 18  1  0
 18 19  1  0
 19 20  1  0
 20 21  1  0
 21 22  1  0
 15 23  1  0
 23 24  2  0
 24 25  1  0
 25 26  1  0
 25  1  1  0
 24  3  1  0
 12  6  1  0
  1 27  1  0
  2 28  1  0
  7 29  1  0
  8 30  1  0
 11 31  1  0
 14 32  1  0
 17 33  1  0
 17 34  1  0
 18 35  1  0
 18 36  1  0
 19 37  1  0
 19 38  1  0
 21 39  1  0
 21 40  1  0
 22 41  1  0
 22 42  1  0
 22 43  1  0
 26 44  1  0
 26 45  1  0
 26 46  1  0
M  END
>  <ScrubInfo>  (8) 
{"isomerGroup": 0, "isomerId": 7, "confId": 0, "nr_conformers:": 1, "nr_isomers:": 9}

$$$$
_i8
     RDKit          3D

 46 48  0  0  0  0  0  0  0  0999 V2000
   -0.1276   -1.1003   -0.1594 N   0  0  0  0  0  0  0  0  0  0  0  0
    0.2356    0.2007   -0.4644 C   0  0  0  0  0  0  0  0  0  0  0  0
    1.4206    0.6635   -0.6782 N   0  0  0  0  0  0  0  0  0  0  0  0
    2.5548   -0.2511   -0.6014 C   0  0  0  0  0  0  0  0  0  0  0  0
    3.8221    0.5281   -0.9400 C   0  0  0  0  0  0  0  0  0  0  0  0
    5.0618   -0.3539   -0.8270 C   0  0  0  0  0  0  0  0  0  0  0  0
    6.2284    0.3426   -1.2616 O   0  0  0  0  0  0  0  0  0  0  0  0
    6.8227    1.1767   -0.2696 C   0  0  0  0  0  0  0  0  0  0  0  0
    7.7639    0.3756    0.6126 C   0  0  0  0  0  0  0  0  0  0  0  0
   -0.8354    1.0637   -0.5348 N   0  0  0  0  0  0  0  0  0  0  0  0
   -2.1861    0.8710   -0.3437 C   0  0  0  0  0  0  0  0  0  0  0  0
   -3.0256    1.8574   -0.4458 N   0  0  0  0  0  0  0  0  0  0  0  0
   -4.3996    1.7067   -0.2215 C   0  0  0  0  0  0  0  0  0  0  0  0
   -5.2395    1.5051   -1.3253 C   0  0  0  0  0  0  0  0  0  0  0  0
   -6.6203    1.3946   -1.1550 C   0  0  0  0  0  0  0  0  0  0  0  0
   -7.1639    1.5025    0.1199 C   0  0  0  0  0  0  0  0  0  0  0  0
   -8.4891    1.3971    0.2801 F   0  0  0  0  0  0  0  0  0  0  0  0
   -6.3578    1.7228    1.2292 C   0  0  0  0  0  0  0  0  0  0  0  0
   -4.9773    1.8333    1.0573 C   0  0  0  0  0  0  0  0  0  0  0  0
   -4.0014    2.1145    2.4561 Cl  0  0  0  0  0  0  0  0  0  0  0  0
   -2.4706   -0.5218   -0.0394 C   0  0  0  0  0  0  0  0  0  0  0  0
   -3.6035   -1.3136    0.2238 C   0  0  0  0  0  0  0  0  0  0  0  0
   -3.3010   -2.6004    0.4493 N   0  0  0  0  0  0  0  0  0  0  0  0
   -1.9572   -2.6421    0.3252 N   0  0  0  0  0  0  0  0  0  0  0  0
   -1.2709   -3.8953    0.5150 C   0  0  0  0  0  0  0  0  0  0  0  0
   -1.4279   -1.4221    0.0336 C   0  0  0  0  0  0  0  0  0  0  0  0
    0.6158   -1.7812   -0.0909 H   0  0  0  0  0  0  0  0  0  0  0  0
    2.4343   -1.0761   -1.3137 H   0  0  0  0  0  0  0  0  0  0  0  0
    2.6393   -0.6665    0.4099 H   0  0  0  0  0  0  0  0  0  0  0  0
    3.7544    0.9400   -1.9550 H   0  0  0  0  0  0  0  0  0  0  0  0
    3.9129    1.3974   -0.2781 H   0  0  0  0  0  0  0  0  0  0  0  0
    5.1884   -0.7381    0.1910 H   0  0  0  0  0  0  0  0  0  0  0  0
    4.9505   -1.2201   -1.4885 H   0  0  0  0  0  0  0  0  0  0  0  0
    6.0654    1.6933    0.3286 H   0  0  0  0  0  0  0  0  0  0  0  0
    7.3999    1.9416   -0.7994 H   0  0  0  0  0  0  0  0  0  0  0  0
    8.5060   -0.1514    0.0040 H   0  0  0  0  0  0  0  0  0  0  0  0
    7.2233   -0.3840    1.1851 H   0  0  0  0  0  0  0  0  0  0  0  0
    8.2856    1.0312    1.3158 H   0  0  0  0  0  0  0  0  0  0  0  0
   -0.5772    2.0180   -0.7422 H   0  0  0  0  0  0  0  0  0  0  0  0
   -4.8107    1.4389   -2.3225 H   0  0  0  0  0  0  0  0  0  0  0  0
   -7.2732    1.2335   -2.0075 H   0  0  0  0  0  0  0  0  0  0  0  0
   -6.8117    1.8107    2.2108 H   0  0  0  0  0  0  0  0  0  0  0  0
   -4.6458   -1.0315    0.2650 H   0  0  0  0  0  0  0  0  0  0  0  0
   -1.0235   -3.9898    1.5749 H   0  0  0  0  0  0  0  0  0  0  0  0
   -0.3628   -3.9078   -0.0921 H   0  0  0  0  0  0  0  0  0  0  0  0
   -1.9258   -4.7131    0.2027 H   0  0  0  0  0  0  0  0  0  0  0  0
  1  2  1  0
  2  3  2  3
  3  4  1  0
  4  5  1  0
  5  6  1  0
  6  7  1  0
  7  8  1  0
  8  9  1  0
  2 10  1  0
 10 11  1  0
 11 12  2  3
 12 13  1  0
 13 14  2  0
 14 15  1  0
 15 16  2  0
 16 17  1  0
 16 18  1  0
 18 19  2  0
 19 20  1  0
 11 21  1  0
 21 22  1  0
 22 23  2  0
 23 24  1  0
 24 25  1  0
 24 26  1  0
 26  1  1  0
 19 13  1  0
 26 21  2  0
  1 27  1  0
  4 28  1  0
  4 29  1  0
  5 30  1  0
  5 31  1  0
  6 32  1  0
  6 33  1  0
  8 34  1  0
  8 35  1  0
  9 36  1  0
  9 37  1  0
  9 38  1  0
 10 39  1  0
 14 40  1  0
 15 41  1  0
 18 42  1  0
 22 43  1  0
 25 44  1  0
 25 45  1  0
 25 46  1  0
M  END
>  <ScrubInfo>  (9) 
{"isomerGroup": 0, "isomerId": 8, "confId": 0, "nr_conformers:": 1, "nr_isomers:": 9}

$$$$
