REMARK SMILES CCOCCCNc1nc(Nc2ccc(F)cc2Cl)c2cnn(C)c2n1
REMARK SMILES IDX 6 1 5 2 4 3 3 4 2 5 1 6 7 7 8 9 9 10 26 11 10 12 25 13 20 14
REMARK SMILES IDX 23 15 21 16 22 17 24 18 11 19 12 21 13 22 18 23 14 24 17 25
REMARK SMILES IDX 15 26 19 27 16 28
REMARK H PARENT 7 8 11 20
ROOT
ATOM      1  C   UNL     1      -2.620  -1.012   0.988  1.00  0.00     0.118 C 
ENDROOT
BRANCH   1   2
ATOM      2  C   UNL     1      -3.419   0.202   0.517  1.00  0.00     0.050 C 
BRANCH   2   3
ATOM      3  C   UNL     1      -4.074  -0.015  -0.845  1.00  0.00     0.162 C 
BRANCH   3   4
ATOM      4  O   UNL     1      -4.900   1.104  -1.179  1.00  0.00    -0.382 OA
BRANCH   4   5
ATOM      5  C   UNL     1      -6.242   1.000  -0.711  1.00  0.00     0.156 C 
ATOM      6  C   UNL     1      -7.096   0.227  -1.700  1.00  0.00     0.035 C 
ENDBRANCH   4   5
ENDBRANCH   3   4
ENDBRANCH   2   3
ENDBRANCH   1   2
BRANCH   1   7
ATOM      7  N   UNL     1      -1.559  -1.376   0.065  1.00  0.00    -0.354 N 
ATOM      8  H   UNL     1      -1.355  -2.369   0.015  1.00  0.00     0.163 HD
BRANCH   7   9
ATOM      9  C   UNL     1      -0.326  -0.768   0.277  1.00  0.00     0.226 A 
ATOM     10  N   UNL     1       0.732  -1.548  -0.007  1.00  0.00    -0.195 NA
ATOM     11  N   UNL     1      -0.266   0.488   0.729  1.00  0.00    -0.193 NA
ATOM     12  C   UNL     1       1.997  -1.075   0.141  1.00  0.00     0.147 A 
ATOM     13  C   UNL     1       0.989   0.937   0.865  1.00  0.00     0.165 A 
ATOM     14  C   UNL     1       2.151   0.236   0.601  1.00  0.00     0.082 A 
ATOM     15  N   UNL     1       1.379   2.179   1.285  1.00  0.00    -0.250 N 
ATOM     16  C   UNL     1       3.179   1.150   0.910  1.00  0.00     0.149 A 
ATOM     17  N   UNL     1       2.721   2.334   1.334  1.00  0.00    -0.179 NA
ATOM     18  C   UNL     1       0.523   3.276   1.659  1.00  0.00     0.176 C 
BRANCH  12  19
ATOM     19  N   UNL     1       3.029  -1.981  -0.194  1.00  0.00    -0.338 N 
ATOM     20  H   UNL     1       2.550  -2.651  -0.800  1.00  0.00     0.168 HD
BRANCH  19  21
ATOM     21  C   UNL     1       4.274  -1.610  -0.753  1.00  0.00     0.059 A 
ATOM     22  C   UNL     1       5.378  -1.466   0.100  1.00  0.00     0.031 A 
ATOM     23  C   UNL     1       4.435  -1.331  -2.125  1.00  0.00     0.067 A 
ATOM     24  C   UNL     1       6.615  -1.061  -0.404  1.00  0.00     0.041 A 
ATOM     25  C   UNL     1       5.671  -0.925  -2.629  1.00  0.00     0.062 A 
ATOM     26  C   UNL     1       6.748  -0.795  -1.762  1.00  0.00     0.124 A 
ATOM     27  Cl  UNL     1       3.117  -1.501  -3.229  1.00  0.00    -0.082 Cl
ATOM     28  F   UNL     1       7.936  -0.407  -2.242  1.00  0.00    -0.207 F 
ENDBRANCH  19  21
ENDBRANCH  12  19
ENDBRANCH   7   9
ENDBRANCH   1   7
TORSDOF 8
