_i0
     RDKit          3D

 52 54  0  0  0  0  0  0  0  0999 V2000
   -2.9005    1.3138    2.8466 C   0  0  0  0  0  0  0  0  0  0  0  0
   -4.1890    0.9442    2.1568 C   0  0  0  0  0  0  0  0  0  0  0  0
   -5.1850    1.9201    1.9506 C   0  0  0  0  0  0  0  0  0  0  0  0
   -4.9587    3.5704    2.4247 Cl  0  0  0  0  0  0  0  0  0  0  0  0
   -6.4033    1.5948    1.3479 C   0  0  0  0  0  0  0  0  0  0  0  0
   -6.6463    0.2927    0.9282 C   0  0  0  0  0  0  0  0  0  0  0  0
   -5.6638   -0.6800    1.0998 C   0  0  0  0  0  0  0  0  0  0  0  0
   -4.4313   -0.3736    1.7067 C   0  0  0  0  0  0  0  0  0  0  0  0
   -3.4533   -1.3944    1.7614 N   0  0  0  0  0  0  0  0  0  0  0  0
   -2.2361   -1.4017    1.0481 C   0  0  0  0  0  0  0  0  0  0  0  0
   -1.8171   -0.3052    0.3622 N   0  0  0  0  0  0  0  0  0  0  0  0
   -0.6627   -0.3231   -0.3269 C   0  0  0  0  0  0  0  0  0  0  0  0
   -0.3698    0.8681   -0.9832 N   0  0  0  0  0  0  0  0  0  0  0  0
    1.0344    1.2564   -0.9757 C   0  0  0  0  0  0  0  0  0  0  0  0
    1.7435    0.7527   -2.2336 C   0  0  0  0  0  0  0  0  0  0  0  0
    3.1376    1.3529   -2.3745 C   0  0  0  0  0  0  0  0  0  0  0  0
    3.9249    0.9878   -1.2433 O   0  0  0  0  0  0  0  0  0  0  0  0
    5.2812    1.4362   -1.3176 C   0  0  0  0  0  0  0  0  0  0  0  0
    6.0821    0.5934   -0.3313 C   0  0  0  0  0  0  0  0  0  0  0  0
    5.3832    2.9139   -0.9538 C   0  0  0  0  0  0  0  0  0  0  0  0
    0.1741   -1.3634   -0.4144 N   0  0  0  0  0  0  0  0  0  0  0  0
   -0.2506   -2.4341    0.2688 C   0  0  0  0  0  0  0  0  0  0  0  0
   -1.4138   -2.5317    1.0050 C   0  0  0  0  0  0  0  0  0  0  0  0
   -1.3895   -3.8417    1.5261 C   0  0  0  0  0  0  0  0  0  0  0  0
   -0.3095   -4.5339    1.1457 N   0  0  0  0  0  0  0  0  0  0  0  0
    0.3723   -3.6463    0.3823 N   0  0  0  0  0  0  0  0  0  0  0  0
    1.6280   -4.0330   -0.2102 C   0  0  0  0  0  0  0  0  0  0  0  0
   -2.3516    0.4381    3.2048 H   0  0  0  0  0  0  0  0  0  0  0  0
   -3.0970    1.9173    3.7392 H   0  0  0  0  0  0  0  0  0  0  0  0
   -2.2546    1.8775    2.1664 H   0  0  0  0  0  0  0  0  0  0  0  0
   -7.1636    2.3572    1.1986 H   0  0  0  0  0  0  0  0  0  0  0  0
   -7.5890    0.0394    0.4507 H   0  0  0  0  0  0  0  0  0  0  0  0
   -5.8567   -1.6843    0.7298 H   0  0  0  0  0  0  0  0  0  0  0  0
   -3.8525   -2.3240    1.8070 H   0  0  0  0  0  0  0  0  0  0  0  0
   -0.9969    1.5466   -0.5600 H   0  0  0  0  0  0  0  0  0  0  0  0
    1.5466    0.9315   -0.0611 H   0  0  0  0  0  0  0  0  0  0  0  0
    1.0686    2.3529   -0.9716 H   0  0  0  0  0  0  0  0  0  0  0  0
    1.8257   -0.3395   -2.1973 H   0  0  0  0  0  0  0  0  0  0  0  0
    1.1538    1.0024   -3.1238 H   0  0  0  0  0  0  0  0  0  0  0  0
    3.0669    2.4426   -2.4512 H   0  0  0  0  0  0  0  0  0  0  0  0
    3.6060    0.9662   -3.2867 H   0  0  0  0  0  0  0  0  0  0  0  0
    5.6779    1.2648   -2.3255 H   0  0  0  0  0  0  0  0  0  0  0  0
    5.6965    0.7077    0.6880 H   0  0  0  0  0  0  0  0  0  0  0  0
    7.1412    0.8685   -0.3394 H   0  0  0  0  0  0  0  0  0  0  0  0
    5.9966   -0.4696   -0.5821 H   0  0  0  0  0  0  0  0  0  0  0  0
    4.9043    3.1132    0.0111 H   0  0  0  0  0  0  0  0  0  0  0  0
    4.8745    3.5390   -1.6940 H   0  0  0  0  0  0  0  0  0  0  0  0
    6.4275    3.2380   -0.9028 H   0  0  0  0  0  0  0  0  0  0  0  0
   -2.1130   -4.3237    2.1702 H   0  0  0  0  0  0  0  0  0  0  0  0
    1.4464   -4.8798   -0.8769 H   0  0  0  0  0  0  0  0  0  0  0  0
    2.3132   -4.3184    0.5921 H   0  0  0  0  0  0  0  0  0  0  0  0
    2.0486   -3.1990   -0.7764 H   0  0  0  0  0  0  0  0  0  0  0  0
  1  2  1  0
  2  3  2  0
  3  4  1  0
  3  5  1  0
  5  6  2  0
  6  7  1  0
  7  8  2  0
  8  9  1  0
  9 10  1  0
 10 11  2  0
 11 12  1  0
 12 13  1  0
 13 14  1  0
 14 15  1  0
 15 16  1  0
 16 17  1  0
 17 18  1  0
 18 19  1  0
 18 20  1  0
 12 21  2  0
 21 22  1  0
 22 23  2  0
 23 24  1  0
 24 25  2  0
 25 26  1  0
 26 27  1  0
  8  2  1  0
 23 10  1  0
 26 22  1  0
  1 28  1  0
  1 29  1  0
  1 30  1  0
  5 31  1  0
  6 32  1  0
  7 33  1  0
  9 34  1  0
 13 35  1  0
 14 36  1  0
 14 37  1  0
 15 38  1  0
 15 39  1  0
 16 40  1  0
 16 41  1  0
 18 42  1  0
 19 43  1  0
 19 44  1  0
 19 45  1  0
 20 46  1  0
 20 47  1  0
 20 48  1  0
 24 49  1  0
 27 50  1  0
 27 51  1  0
 27 52  1  0
M  END
>  <ScrubInfo>  (1) 
{"isomerGroup": 0, "isomerId": 0, "confId": 0, "nr_conformers:": 1, "nr_isomers:": 9}

$$$$
_i1
     RDKit          3D

 52 54  0  0  0  0  0  0  0  0999 V2000
   -0.4438    0.3133    0.9639 N   0  0  0  0  0  0  0  0  0  0  0  0
    0.3001    1.1199    0.1357 C   0  0  0  0  0  0  0  0  0  0  0  0
    1.5180    1.4438    0.6655 N   0  0  0  0  0  0  0  0  0  0  0  0
    2.5244    2.1898   -0.0754 C   0  0  0  0  0  0  0  0  0  0  0  0
    3.1677    1.3675   -1.1919 C   0  0  0  0  0  0  0  0  0  0  0  0
    3.7931    0.0581   -0.7236 C   0  0  0  0  0  0  0  0  0  0  0  0
    4.6851    0.3169    0.3585 O   0  0  0  0  0  0  0  0  0  0  0  0
    5.3504   -0.8543    0.8422 C   0  0  0  0  0  0  0  0  0  0  0  0
    5.8025   -0.5526    2.2664 C   0  0  0  0  0  0  0  0  0  0  0  0
    6.5522   -1.1889   -0.0350 C   0  0  0  0  0  0  0  0  0  0  0  0
   -0.1167    1.5378   -1.0311 N   0  0  0  0  0  0  0  0  0  0  0  0
   -1.3602    1.0656   -1.3255 C   0  0  0  0  0  0  0  0  0  0  0  0
   -2.1809    0.2548   -0.5566 C   0  0  0  0  0  0  0  0  0  0  0  0
   -3.3311    0.0780   -1.3453 C   0  0  0  0  0  0  0  0  0  0  0  0
   -3.2579    0.7160   -2.5205 N   0  0  0  0  0  0  0  0  0  0  0  0
   -2.0478    1.3184   -2.4788 N   0  0  0  0  0  0  0  0  0  0  0  0
   -1.6209    2.1235   -3.5952 C   0  0  0  0  0  0  0  0  0  0  0  0
   -1.7129   -0.1719    0.7467 C   0  0  0  0  0  0  0  0  0  0  0  0
   -2.3268   -0.8876    1.6400 N   0  0  0  0  0  0  0  0  0  0  0  0
   -3.6211   -1.3799    1.4386 C   0  0  0  0  0  0  0  0  0  0  0  0
   -3.7625   -2.6598    0.8830 C   0  0  0  0  0  0  0  0  0  0  0  0
   -5.0227   -3.2137    0.6738 C   0  0  0  0  0  0  0  0  0  0  0  0
   -6.1564   -2.4915    1.0315 C   0  0  0  0  0  0  0  0  0  0  0  0
   -6.0284   -1.2251    1.6110 C   0  0  0  0  0  0  0  0  0  0  0  0
   -7.4872   -0.3897    2.0199 Cl  0  0  0  0  0  0  0  0  0  0  0  0
   -4.7618   -0.6573    1.8426 C   0  0  0  0  0  0  0  0  0  0  0  0
   -4.6311    0.7058    2.4685 C   0  0  0  0  0  0  0  0  0  0  0  0
   -0.1025    0.1564    1.8973 H   0  0  0  0  0  0  0  0  0  0  0  0
    1.9267    0.7780    1.3102 H   0  0  0  0  0  0  0  0  0  0  0  0
    2.0797    3.0991   -0.4969 H   0  0  0  0  0  0  0  0  0  0  0  0
    3.2921    2.5263    0.6307 H   0  0  0  0  0  0  0  0  0  0  0  0
    3.9506    1.9873   -1.6466 H   0  0  0  0  0  0  0  0  0  0  0  0
    2.4382    1.1502   -1.9800 H   0  0  0  0  0  0  0  0  0  0  0  0
    3.0147   -0.6400   -0.3952 H   0  0  0  0  0  0  0  0  0  0  0  0
    4.3322   -0.3975   -1.5603 H   0  0  0  0  0  0  0  0  0  0  0  0
    4.6520   -1.6996    0.8691 H   0  0  0  0  0  0  0  0  0  0  0  0
    4.9410   -0.2954    2.8923 H   0  0  0  0  0  0  0  0  0  0  0  0
    6.4774    0.3103    2.2909 H   0  0  0  0  0  0  0  0  0  0  0  0
    6.3131   -1.4111    2.7132 H   0  0  0  0  0  0  0  0  0  0  0  0
    7.2157   -0.3230   -0.1361 H   0  0  0  0  0  0  0  0  0  0  0  0
    7.1245   -2.0245    0.3799 H   0  0  0  0  0  0  0  0  0  0  0  0
    6.2389   -1.4652   -1.0463 H   0  0  0  0  0  0  0  0  0  0  0  0
   -4.2293   -0.4847   -1.1345 H   0  0  0  0  0  0  0  0  0  0  0  0
   -2.3456    2.9298   -3.7346 H   0  0  0  0  0  0  0  0  0  0  0  0
   -1.5827    1.4869   -4.4828 H   0  0  0  0  0  0  0  0  0  0  0  0
   -0.6326    2.5454   -3.4002 H   0  0  0  0  0  0  0  0  0  0  0  0
   -2.8748   -3.2248    0.6081 H   0  0  0  0  0  0  0  0  0  0  0  0
   -5.1189   -4.2025    0.2333 H   0  0  0  0  0  0  0  0  0  0  0  0
   -7.1410   -2.9207    0.8613 H   0  0  0  0  0  0  0  0  0  0  0  0
   -5.2453    0.7777    3.3721 H   0  0  0  0  0  0  0  0  0  0  0  0
   -4.9408    1.4762    1.7551 H   0  0  0  0  0  0  0  0  0  0  0  0
   -3.6067    0.9286    2.7808 H   0  0  0  0  0  0  0  0  0  0  0  0
  1  2  1  0
  2  3  1  0
  3  4  1  0
  4  5  1  0
  5  6  1  0
  6  7  1  0
  7  8  1  0
  8  9  1  0
  8 10  1  0
  2 11  2  0
 11 12  1  0
 12 13  2  0
 13 14  1  0
 14 15  2  0
 15 16  1  0
 16 17  1  0
 13 18  1  0
 18 19  2  3
 19 20  1  0
 20 21  2  0
 21 22  1  0
 22 23  2  0
 23 24  1  0
 24 25  1  0
 24 26  2  0
 26 27  1  0
 18  1  1  0
 26 20  1  0
 16 12  1  0
  1 28  1  0
  3 29  1  0
  4 30  1  0
  4 31  1  0
  5 32  1  0
  5 33  1  0
  6 34  1  0
  6 35  1  0
  8 36  1  0
  9 37  1  0
  9 38  1  0
  9 39  1  0
 10 40  1  0
 10 41  1  0
 10 42  1  0
 14 43  1  0
 17 44  1  0
 17 45  1  0
 17 46  1  0
 21 47  1  0
 22 48  1  0
 23 49  1  0
 27 50  1  0
 27 51  1  0
 27 52  1  0
M  END
>  <ScrubInfo>  (2) 
{"isomerGroup": 0, "isomerId": 1, "confId": 0, "nr_conformers:": 1, "nr_isomers:": 9}

$$$$
_i2
     RDKit          3D

 52 54  0  0  0  0  0  0  0  0999 V2000
    1.6475    0.0032   -0.0647 N   0  0  0  0  0  0  0  0  0  0  0  0
    2.8476   -0.6700    0.0621 C   0  0  0  0  0  0  0  0  0  0  0  0
    4.0663   -0.0815   -0.2275 N   0  0  0  0  0  0  0  0  0  0  0  0
    4.4394    1.2770   -0.0843 C   0  0  0  0  0  0  0  0  0  0  0  0
    3.7607    2.1297    0.8048 C   0  0  0  0  0  0  0  0  0  0  0  0
    4.1280    3.4664    0.9537 C   0  0  0  0  0  0  0  0  0  0  0  0
    5.1896    3.9752    0.2172 C   0  0  0  0  0  0  0  0  0  0  0  0
    5.8761    3.1509   -0.6762 C   0  0  0  0  0  0  0  0  0  0  0  0
    7.2053    3.8547   -1.5333 Cl  0  0  0  0  0  0  0  0  0  0  0  0
    5.5022    1.8028   -0.8596 C   0  0  0  0  0  0  0  0  0  0  0  0
    6.2498    0.9418   -1.8482 C   0  0  0  0  0  0  0  0  0  0  0  0
    2.7315   -1.9529    0.4275 C   0  0  0  0  0  0  0  0  0  0  0  0
    3.6105   -3.1023    0.6685 C   0  0  0  0  0  0  0  0  0  0  0  0
    2.9613   -4.1831    1.0190 N   0  0  0  0  0  0  0  0  0  0  0  0
    1.6105   -3.8033    1.0807 N   0  0  0  0  0  0  0  0  0  0  0  0
    0.5988   -4.8309    1.1355 C   0  0  0  0  0  0  0  0  0  0  0  0
    1.3776   -2.4955    0.6855 C   0  0  0  0  0  0  0  0  0  0  0  0
    0.2686   -1.8523    0.5431 N   0  0  0  0  0  0  0  0  0  0  0  0
    0.4074   -0.5478    0.1216 C   0  0  0  0  0  0  0  0  0  0  0  0
   -0.6346    0.1795   -0.1125 N   0  0  0  0  0  0  0  0  0  0  0  0
   -1.9420   -0.4433    0.0970 C   0  0  0  0  0  0  0  0  0  0  0  0
   -3.0202    0.5856   -0.2274 C   0  0  0  0  0  0  0  0  0  0  0  0
   -4.4151    0.0069   -0.0287 C   0  0  0  0  0  0  0  0  0  0  0  0
   -5.3720    1.0178   -0.3453 O   0  0  0  0  0  0  0  0  0  0  0  0
   -6.7262    0.6162   -0.1232 C   0  0  0  0  0  0  0  0  0  0  0  0
   -7.2244   -0.2684   -1.2616 C   0  0  0  0  0  0  0  0  0  0  0  0
   -7.5603    1.8899   -0.0415 C   0  0  0  0  0  0  0  0  0  0  0  0
    1.6717    0.9244   -0.4780 H   0  0  0  0  0  0  0  0  0  0  0  0
    4.8701   -0.7014   -0.2086 H   0  0  0  0  0  0  0  0  0  0  0  0
    2.9529    1.7537    1.4292 H   0  0  0  0  0  0  0  0  0  0  0  0
    3.5938    4.1031    1.6548 H   0  0  0  0  0  0  0  0  0  0  0  0
    5.4822    5.0144    0.3456 H   0  0  0  0  0  0  0  0  0  0  0  0
    5.6879    0.0479   -2.1346 H   0  0  0  0  0  0  0  0  0  0  0  0
    7.2054    0.6249   -1.4190 H   0  0  0  0  0  0  0  0  0  0  0  0
    6.4319    1.4824   -2.7828 H   0  0  0  0  0  0  0  0  0  0  0  0
    4.6972   -3.0246    0.5382 H   0  0  0  0  0  0  0  0  0  0  0  0
    0.9381   -5.6769    1.7420 H   0  0  0  0  0  0  0  0  0  0  0  0
    0.3712   -5.1953    0.1290 H   0  0  0  0  0  0  0  0  0  0  0  0
   -0.3231   -4.4475    1.5844 H   0  0  0  0  0  0  0  0  0  0  0  0
   -2.0636   -1.3134   -0.5596 H   0  0  0  0  0  0  0  0  0  0  0  0
   -2.0526   -0.7657    1.1396 H   0  0  0  0  0  0  0  0  0  0  0  0
   -2.9112    0.9389   -1.2607 H   0  0  0  0  0  0  0  0  0  0  0  0
   -2.8978    1.4770    0.4011 H   0  0  0  0  0  0  0  0  0  0  0  0
   -4.5465   -0.3078    1.0129 H   0  0  0  0  0  0  0  0  0  0  0  0
   -4.5550   -0.8586   -0.6839 H   0  0  0  0  0  0  0  0  0  0  0  0
   -6.8072    0.0851    0.8329 H   0  0  0  0  0  0  0  0  0  0  0  0
   -8.2909   -0.4897   -1.1534 H   0  0  0  0  0  0  0  0  0  0  0  0
   -7.0607    0.2133   -2.2319 H   0  0  0  0  0  0  0  0  0  0  0  0
   -6.6860   -1.2207   -1.2866 H   0  0  0  0  0  0  0  0  0  0  0  0
   -7.4820    2.4718   -0.9667 H   0  0  0  0  0  0  0  0  0  0  0  0
   -7.1945    2.5333    0.7662 H   0  0  0  0  0  0  0  0  0  0  0  0
   -8.6151    1.6650    0.1440 H   0  0  0  0  0  0  0  0  0  0  0  0
  1  2  1  0
  2  3  1  0
  3  4  1  0
  4  5  2  0
  5  6  1  0
  6  7  2  0
  7  8  1  0
  8  9  1  0
  8 10  2  0
 10 11  1  0
  2 12  2  0
 12 13  1  0
 13 14  2  0
 14 15  1  0
 15 16  1  0
 15 17  1  0
 17 18  2  0
 18 19  1  0
 19 20  2  3
 20 21  1  0
 21 22  1  0
 22 23  1  0
 23 24  1  0
 24 25  1  0
 25 26  1  0
 25 27  1  0
 19  1  1  0
 10  4  1  0
 17 12  1  0
  1 28  1  0
  3 29  1  0
  5 30  1  0
  6 31  1  0
  7 32  1  0
 11 33  1  0
 11 34  1  0
 11 35  1  0
 13 36  1  0
 16 37  1  0
 16 38  1  0
 16 39  1  0
 21 40  1  0
 21 41  1  0
 22 42  1  0
 22 43  1  0
 23 44  1  0
 23 45  1  0
 25 46  1  0
 26 47  1  0
 26 48  1  0
 26 49  1  0
 27 50  1  0
 27 51  1  0
 27 52  1  0
M  END
>  <ScrubInfo>  (3) 
{"isomerGroup": 0, "isomerId": 2, "confId": 0, "nr_conformers:": 1, "nr_isomers:": 9}

$$$$
_i3
     RDKit          3D

 52 54  0  0  0  0  0  0  0  0999 V2000
   -0.4003    1.7355    1.2659 N   0  0  0  0  0  0  0  0  0  0  0  0
    0.1905    0.6283    0.6795 C   0  0  0  0  0  0  0  0  0  0  0  0
    1.3936    0.5562    0.2304 N   0  0  0  0  0  0  0  0  0  0  0  0
    2.2649    1.7185    0.3232 C   0  0  0  0  0  0  0  0  0  0  0  0
    3.6139    1.3803   -0.3028 C   0  0  0  0  0  0  0  0  0  0  0  0
    4.3626    0.3022    0.4780 C   0  0  0  0  0  0  0  0  0  0  0  0
    5.6755    0.1261   -0.0612 O   0  0  0  0  0  0  0  0  0  0  0  0
    5.7370   -0.8025   -1.1481 C   0  0  0  0  0  0  0  0  0  0  0  0
    6.9450   -0.4227   -1.9962 C   0  0  0  0  0  0  0  0  0  0  0  0
    5.8916   -2.2211   -0.6092 C   0  0  0  0  0  0  0  0  0  0  0  0
   -0.5093   -0.5582    0.5196 N   0  0  0  0  0  0  0  0  0  0  0  0
   -1.7504   -0.6386    0.9114 C   0  0  0  0  0  0  0  0  0  0  0  0
   -2.4805   -1.7943    0.7762 N   0  0  0  0  0  0  0  0  0  0  0  0
   -3.7873   -1.8500    0.2213 C   0  0  0  0  0  0  0  0  0  0  0  0
   -4.7241   -2.6338    0.9192 C   0  0  0  0  0  0  0  0  0  0  0  0
   -6.0326   -2.7671    0.4654 C   0  0  0  0  0  0  0  0  0  0  0  0
   -6.4172   -2.1291   -0.7072 C   0  0  0  0  0  0  0  0  0  0  0  0
   -5.4865   -1.3879   -1.4424 C   0  0  0  0  0  0  0  0  0  0  0  0
   -6.0648   -0.6278   -2.8863 Cl  0  0  0  0  0  0  0  0  0  0  0  0
   -4.1463   -1.2709   -1.0178 C   0  0  0  0  0  0  0  0  0  0  0  0
   -3.1409   -0.5180   -1.8518 C   0  0  0  0  0  0  0  0  0  0  0  0
   -2.3952    0.4857    1.5502 C   0  0  0  0  0  0  0  0  0  0  0  0
   -3.6334    0.7867    2.1381 C   0  0  0  0  0  0  0  0  0  0  0  0
   -3.6863    2.0449    2.6036 N   0  0  0  0  0  0  0  0  0  0  0  0
   -2.4634    2.5501    2.3133 N   0  0  0  0  0  0  0  0  0  0  0  0
   -2.1626    3.9094    2.6838 C   0  0  0  0  0  0  0  0  0  0  0  0
   -1.6710    1.6376    1.6925 C   0  0  0  0  0  0  0  0  0  0  0  0
    0.1628    2.5662    1.3651 H   0  0  0  0  0  0  0  0  0  0  0  0
    2.4085    2.0182    1.3681 H   0  0  0  0  0  0  0  0  0  0  0  0
    1.8312    2.5634   -0.2247 H   0  0  0  0  0  0  0  0  0  0  0  0
    4.2327    2.2851   -0.3448 H   0  0  0  0  0  0  0  0  0  0  0  0
    3.4757    1.0629   -1.3431 H   0  0  0  0  0  0  0  0  0  0  0  0
    3.8143   -0.6454    0.5000 H   0  0  0  0  0  0  0  0  0  0  0  0
    4.4918    0.6294    1.5154 H   0  0  0  0  0  0  0  0  0  0  0  0
    4.8372   -0.7334   -1.7700 H   0  0  0  0  0  0  0  0  0  0  0  0
    7.8668   -0.4500   -1.4045 H   0  0  0  0  0  0  0  0  0  0  0  0
    7.0573   -1.0939   -2.8532 H   0  0  0  0  0  0  0  0  0  0  0  0
    6.8406    0.6024   -2.3681 H   0  0  0  0  0  0  0  0  0  0  0  0
    6.0064   -2.9433   -1.4236 H   0  0  0  0  0  0  0  0  0  0  0  0
    6.7623   -2.2956    0.0517 H   0  0  0  0  0  0  0  0  0  0  0  0
    5.0212   -2.5143   -0.0141 H   0  0  0  0  0  0  0  0  0  0  0  0
   -1.8998   -2.4883    0.3083 H   0  0  0  0  0  0  0  0  0  0  0  0
   -4.4333   -3.1242    1.8470 H   0  0  0  0  0  0  0  0  0  0  0  0
   -6.7506   -3.3565    1.0296 H   0  0  0  0  0  0  0  0  0  0  0  0
   -7.4448   -2.2178   -1.0521 H   0  0  0  0  0  0  0  0  0  0  0  0
   -3.3713   -0.5679   -2.9201 H   0  0  0  0  0  0  0  0  0  0  0  0
   -2.1427   -0.9565   -1.7622 H   0  0  0  0  0  0  0  0  0  0  0  0
   -3.1076    0.5324   -1.5480 H   0  0  0  0  0  0  0  0  0  0  0  0
   -4.5040    0.1553    2.2553 H   0  0  0  0  0  0  0  0  0  0  0  0
   -2.1896    3.9821    3.7739 H   0  0  0  0  0  0  0  0  0  0  0  0
   -2.9158    4.5641    2.2379 H   0  0  0  0  0  0  0  0  0  0  0  0
   -1.1719    4.1854    2.3170 H   0  0  0  0  0  0  0  0  0  0  0  0
  1  2  1  0
  2  3  2  3
  3  4  1  0
  4  5  1  0
  5  6  1  0
  6  7  1  0
  7  8  1  0
  8  9  1  0
  8 10  1  0
  2 11  1  0
 11 12  2  0
 12 13  1  0
 13 14  1  0
 14 15  2  0
 15 16  1  0
 16 17  2  0
 17 18  1  0
 18 19  1  0
 18 20  2  0
 20 21  1  0
 12 22  1  0
 22 23  1  0
 23 24  2  0
 24 25  1  0
 25 26  1  0
 25 27  1  0
 27  1  1  0
 20 14  1  0
 27 22  2  0
  1 28  1  0
  4 29  1  0
  4 30  1  0
  5 31  1  0
  5 32  1  0
  6 33  1  0
  6 34  1  0
  8 35  1  0
  9 36  1  0
  9 37  1  0
  9 38  1  0
 10 39  1  0
 10 40  1  0
 10 41  1  0
 13 42  1  0
 15 43  1  0
 16 44  1  0
 17 45  1  0
 21 46  1  0
 21 47  1  0
 21 48  1  0
 23 49  1  0
 26 50  1  0
 26 51  1  0
 26 52  1  0
M  END
>  <ScrubInfo>  (4) 
{"isomerGroup": 0, "isomerId": 3, "confId": 0, "nr_conformers:": 1, "nr_isomers:": 9}

$$$$
_i4
     RDKit          3D

 52 54  0  0  0  0  0  0  0  0999 V2000
   -0.5636   -1.7435    1.4856 N   0  0  0  0  0  0  0  0  0  0  0  0
   -0.6280   -0.6696    0.6273 C   0  0  0  0  0  0  0  0  0  0  0  0
    0.5424   -0.3468    0.0008 N   0  0  0  0  0  0  0  0  0  0  0  0
    1.3211   -1.3384   -0.7302 C   0  0  0  0  0  0  0  0  0  0  0  0
    2.5536   -0.6988   -1.3581 C   0  0  0  0  0  0  0  0  0  0  0  0
    3.5467   -0.1926   -0.3175 C   0  0  0  0  0  0  0  0  0  0  0  0
    4.6998    0.2844   -1.0106 O   0  0  0  0  0  0  0  0  0  0  0  0
    5.7228    0.7844   -0.1443 C   0  0  0  0  0  0  0  0  0  0  0  0
    5.4010    2.2057    0.3062 C   0  0  0  0  0  0  0  0  0  0  0  0
    7.0259    0.7639   -0.9354 C   0  0  0  0  0  0  0  0  0  0  0  0
   -1.6889    0.0518    0.3877 N   0  0  0  0  0  0  0  0  0  0  0  0
   -2.8815   -0.2687    1.0241 C   0  0  0  0  0  0  0  0  0  0  0  0
   -4.0016    0.3522    0.8314 N   0  0  0  0  0  0  0  0  0  0  0  0
   -4.0156    1.4205   -0.0809 C   0  0  0  0  0  0  0  0  0  0  0  0
   -3.7946    2.7150    0.4117 C   0  0  0  0  0  0  0  0  0  0  0  0
   -3.8011    3.8168   -0.4396 C   0  0  0  0  0  0  0  0  0  0  0  0
   -4.0335    3.6307   -1.7982 C   0  0  0  0  0  0  0  0  0  0  0  0
   -4.2729    2.3471   -2.2997 C   0  0  0  0  0  0  0  0  0  0  0  0
   -4.5350    2.1999   -4.0044 Cl  0  0  0  0  0  0  0  0  0  0  0  0
   -4.2913    1.2263   -1.4496 C   0  0  0  0  0  0  0  0  0  0  0  0
   -4.5488   -0.1536   -1.9925 C   0  0  0  0  0  0  0  0  0  0  0  0
   -2.8533   -1.3668    1.9555 C   0  0  0  0  0  0  0  0  0  0  0  0
   -3.7737   -1.9842    2.8122 C   0  0  0  0  0  0  0  0  0  0  0  0
   -3.2218   -2.9917    3.5093 N   0  0  0  0  0  0  0  0  0  0  0  0
   -1.9334   -3.0121    3.0850 N   0  0  0  0  0  0  0  0  0  0  0  0
   -1.0321   -3.9936    3.6316 C   0  0  0  0  0  0  0  0  0  0  0  0
   -1.6890   -2.0565    2.1510 C   0  0  0  0  0  0  0  0  0  0  0  0
    0.3533   -2.0829    1.7394 H   0  0  0  0  0  0  0  0  0  0  0  0
    0.3560    0.4681   -0.5852 H   0  0  0  0  0  0  0  0  0  0  0  0
    0.6983   -1.7707   -1.5220 H   0  0  0  0  0  0  0  0  0  0  0  0
    1.6295   -2.1550   -0.0682 H   0  0  0  0  0  0  0  0  0  0  0  0
    3.0532   -1.4338   -2.0017 H   0  0  0  0  0  0  0  0  0  0  0  0
    2.2654    0.1291   -2.0185 H   0  0  0  0  0  0  0  0  0  0  0  0
    3.1014    0.6148    0.2713 H   0  0  0  0  0  0  0  0  0  0  0  0
    3.8395   -1.0074    0.3543 H   0  0  0  0  0  0  0  0  0  0  0  0
    5.8323    0.1259    0.7259 H   0  0  0  0  0  0  0  0  0  0  0  0
    5.2012    2.8531   -0.5548 H   0  0  0  0  0  0  0  0  0  0  0  0
    4.5042    2.2285    0.9327 H   0  0  0  0  0  0  0  0  0  0  0  0
    6.2255    2.6337    0.8850 H   0  0  0  0  0  0  0  0  0  0  0  0
    7.2501   -0.2538   -1.2731 H   0  0  0  0  0  0  0  0  0  0  0  0
    7.8650    1.1225   -0.3315 H   0  0  0  0  0  0  0  0  0  0  0  0
    6.9498    1.3840   -1.8356 H   0  0  0  0  0  0  0  0  0  0  0  0
   -3.6081    2.8551    1.4736 H   0  0  0  0  0  0  0  0  0  0  0  0
   -3.6206    4.8124   -0.0443 H   0  0  0  0  0  0  0  0  0  0  0  0
   -4.0284    4.4891   -2.4650 H   0  0  0  0  0  0  0  0  0  0  0  0
   -4.7842   -0.8760   -1.2053 H   0  0  0  0  0  0  0  0  0  0  0  0
   -5.4119   -0.1527   -2.6662 H   0  0  0  0  0  0  0  0  0  0  0  0
   -3.6669   -0.5138   -2.5317 H   0  0  0  0  0  0  0  0  0  0  0  0
   -4.8182   -1.7433    2.9641 H   0  0  0  0  0  0  0  0  0  0  0  0
   -0.0610   -3.9234    3.1370 H   0  0  0  0  0  0  0  0  0  0  0  0
   -0.9199   -3.7990    4.7011 H   0  0  0  0  0  0  0  0  0  0  0  0
   -1.4591   -4.9860    3.4658 H   0  0  0  0  0  0  0  0  0  0  0  0
  1  2  1  0
  2  3  1  0
  3  4  1  0
  4  5  1  0
  5  6  1  0
  6  7  1  0
  7  8  1  0
  8  9  1  0
  8 10  1  0
  2 11  2  0
 11 12  1  0
 12 13  2  3
 13 14  1  0
 14 15  2  0
 15 16  1  0
 16 17  2  0
 17 18  1  0
 18 19  1  0
 18 20  2  0
 20 21  1  0
 12 22  1  0
 22 23  1  0
 23 24  2  0
 24 25  1  0
 25 26  1  0
 25 27  1  0
 27  1  1  0
 20 14  1  0
 27 22  2  0
  1 28  1  0
  3 29  1  0
  4 30  1  0
  4 31  1  0
  5 32  1  0
  5 33  1  0
  6 34  1  0
  6 35  1  0
  8 36  1  0
  9 37  1  0
  9 38  1  0
  9 39  1  0
 10 40  1  0
 10 41  1  0
 10 42  1  0
 15 43  1  0
 16 44  1  0
 17 45  1  0
 21 46  1  0
 21 47  1  0
 21 48  1  0
 23 49  1  0
 26 50  1  0
 26 51  1  0
 26 52  1  0
M  END
>  <ScrubInfo>  (5) 
{"isomerGroup": 0, "isomerId": 4, "confId": 0, "nr_conformers:": 1, "nr_isomers:": 9}

$$$$
_i5
     RDKit          3D

 52 54  0  0  0  0  0  0  0  0999 V2000
   -4.4169   -2.4700   -2.8367 N   0  0  0  0  0  0  0  0  0  0  0  0
   -4.4326   -1.2204   -2.2249 C   0  0  0  0  0  0  0  0  0  0  0  0
   -3.2400   -0.8729   -1.7249 C   0  0  0  0  0  0  0  0  0  0  0  0
   -2.6599    0.2620   -1.0470 C   0  0  0  0  0  0  0  0  0  0  0  0
   -3.3549    1.3077   -0.7211 N   0  0  0  0  0  0  0  0  0  0  0  0
   -2.6967    2.3645   -0.0671 C   0  0  0  0  0  0  0  0  0  0  0  0
   -2.7183    2.3888    1.3349 C   0  0  0  0  0  0  0  0  0  0  0  0
   -2.0830    3.4047    2.0442 C   0  0  0  0  0  0  0  0  0  0  0  0
   -1.4189    4.4111    1.3512 C   0  0  0  0  0  0  0  0  0  0  0  0
   -1.4041    4.4080   -0.0475 C   0  0  0  0  0  0  0  0  0  0  0  0
   -0.5363    5.6838   -0.8318 Cl  0  0  0  0  0  0  0  0  0  0  0  0
   -2.0611    3.4020   -0.7791 C   0  0  0  0  0  0  0  0  0  0  0  0
   -2.0402    3.3980   -2.2838 C   0  0  0  0  0  0  0  0  0  0  0  0
   -1.3203    0.1425   -0.7947 N   0  0  0  0  0  0  0  0  0  0  0  0
   -0.6366   -0.9148   -1.1144 C   0  0  0  0  0  0  0  0  0  0  0  0
    0.7008   -0.9804   -0.8454 N   0  0  0  0  0  0  0  0  0  0  0  0
    1.5076    0.2079   -0.6492 C   0  0  0  0  0  0  0  0  0  0  0  0
    2.8834   -0.1633   -0.1107 C   0  0  0  0  0  0  0  0  0  0  0  0
    2.8198   -0.7040    1.3138 C   0  0  0  0  0  0  0  0  0  0  0  0
    4.1570   -0.9700    1.7411 O   0  0  0  0  0  0  0  0  0  0  0  0
    4.2342   -1.5576    3.0433 C   0  0  0  0  0  0  0  0  0  0  0  0
    5.6125   -2.1991    3.1603 C   0  0  0  0  0  0  0  0  0  0  0  0
    4.0501   -0.5013    4.1282 C   0  0  0  0  0  0  0  0  0  0  0  0
   -1.1397   -2.0348   -1.7255 N   0  0  0  0  0  0  0  0  0  0  0  0
   -2.3962   -2.0401   -2.0087 C   0  0  0  0  0  0  0  0  0  0  0  0
   -3.1674   -3.0413   -2.6023 N   0  0  0  0  0  0  0  0  0  0  0  0
   -2.6009   -3.9285   -3.5994 C   0  0  0  0  0  0  0  0  0  0  0  0
   -5.2269   -3.0462   -2.5961 H   0  0  0  0  0  0  0  0  0  0  0  0
   -5.3492   -0.6481   -2.1947 H   0  0  0  0  0  0  0  0  0  0  0  0
   -3.2307    1.5947    1.8720 H   0  0  0  0  0  0  0  0  0  0  0  0
   -2.1012    3.4052    3.1303 H   0  0  0  0  0  0  0  0  0  0  0  0
   -0.9126    5.1981    1.9044 H   0  0  0  0  0  0  0  0  0  0  0  0
   -2.2557    4.3954   -2.6808 H   0  0  0  0  0  0  0  0  0  0  0  0
   -2.8008    2.7368   -2.7099 H   0  0  0  0  0  0  0  0  0  0  0  0
   -1.0605    3.0676   -2.6432 H   0  0  0  0  0  0  0  0  0  0  0  0
    1.1449   -1.7337   -1.3572 H   0  0  0  0  0  0  0  0  0  0  0  0
    1.6225    0.7229   -1.6097 H   0  0  0  0  0  0  0  0  0  0  0  0
    1.0203    0.9040    0.0437 H   0  0  0  0  0  0  0  0  0  0  0  0
    3.5298    0.7232   -0.1255 H   0  0  0  0  0  0  0  0  0  0  0  0
    3.3704   -0.9003   -0.7619 H   0  0  0  0  0  0  0  0  0  0  0  0
    2.2360   -1.6304    1.3476 H   0  0  0  0  0  0  0  0  0  0  0  0
    2.3572    0.0367    1.9735 H   0  0  0  0  0  0  0  0  0  0  0  0
    3.4751   -2.3426    3.1453 H   0  0  0  0  0  0  0  0  0  0  0  0
    5.7444   -2.6872    4.1308 H   0  0  0  0  0  0  0  0  0  0  0  0
    6.4056   -1.4543    3.0303 H   0  0  0  0  0  0  0  0  0  0  0  0
    5.7521   -2.9475    2.3726 H   0  0  0  0  0  0  0  0  0  0  0  0
    3.0383   -0.0852    4.1068 H   0  0  0  0  0  0  0  0  0  0  0  0
    4.7401    0.3365    3.9797 H   0  0  0  0  0  0  0  0  0  0  0  0
    4.2171   -0.9234    5.1242 H   0  0  0  0  0  0  0  0  0  0  0  0
   -2.3204   -3.3730   -4.5004 H   0  0  0  0  0  0  0  0  0  0  0  0
   -3.3256   -4.7004   -3.8780 H   0  0  0  0  0  0  0  0  0  0  0  0
   -1.7115   -4.4315   -3.2066 H   0  0  0  0  0  0  0  0  0  0  0  0
  1  2  1  0
  2  3  2  0
  3  4  1  0
  4  5  2  3
  5  6  1  0
  6  7  2  0
  7  8  1  0
  8  9  2  0
  9 10  1  0
 10 11  1  0
 10 12  2  0
 12 13  1  0
  4 14  1  0
 14 15  2  0
 15 16  1  0
 16 17  1  0
 17 18  1  0
 18 19  1  0
 19 20  1  0
 20 21  1  0
 21 22  1  0
 21 23  1  0
 15 24  1  0
 24 25  2  0
 25 26  1  0
 26 27  1  0
 26  1  1  0
 25  3  1  0
 12  6  1  0
  1 28  1  0
  2 29  1  0
  7 30  1  0
  8 31  1  0
  9 32  1  0
 13 33  1  0
 13 34  1  0
 13 35  1  0
 16 36  1  0
 17 37  1  0
 17 38  1  0
 18 39  1  0
 18 40  1  0
 19 41  1  0
 19 42  1  0
 21 43  1  0
 22 44  1  0
 22 45  1  0
 22 46  1  0
 23 47  1  0
 23 48  1  0
 23 49  1  0
 27 50  1  0
 27 51  1  0
 27 52  1  0
M  END
>  <ScrubInfo>  (6) 
{"isomerGroup": 0, "isomerId": 5, "confId": 0, "nr_conformers:": 1, "nr_isomers:": 9}

$$$$
_i6
     RDKit          3D

 52 54  0  0  0  0  0  0  0  0999 V2000
   -3.7125    2.5603    0.0119 N   0  0  0  0  0  0  0  0  0  0  0  0
   -3.7491    1.1725    0.0962 C   0  0  0  0  0  0  0  0  0  0  0  0
   -2.5505    0.6316    0.3524 C   0  0  0  0  0  0  0  0  0  0  0  0
   -1.9539   -0.6850    0.5690 C   0  0  0  0  0  0  0  0  0  0  0  0
   -2.6471   -1.8763    0.4923 N   0  0  0  0  0  0  0  0  0  0  0  0
   -3.6433   -2.1309   -0.4793 C   0  0  0  0  0  0  0  0  0  0  0  0
   -4.8901   -2.5713   -0.0031 C   0  0  0  0  0  0  0  0  0  0  0  0
   -5.9351   -2.8536   -0.8777 C   0  0  0  0  0  0  0  0  0  0  0  0
   -5.7395   -2.7106   -2.2461 C   0  0  0  0  0  0  0  0  0  0  0  0
   -4.4919   -2.3170   -2.7401 C   0  0  0  0  0  0  0  0  0  0  0  0
   -4.3477   -2.1527   -4.4569 Cl  0  0  0  0  0  0  0  0  0  0  0  0
   -3.4110   -2.0611   -1.8717 C   0  0  0  0  0  0  0  0  0  0  0  0
   -2.0583   -1.6852   -2.4219 C   0  0  0  0  0  0  0  0  0  0  0  0
   -0.6857   -0.7456    0.8692 N   0  0  0  0  0  0  0  0  0  0  0  0
    0.0395    0.4225    0.9661 C   0  0  0  0  0  0  0  0  0  0  0  0
    1.2578    0.2370    1.3297 N   0  0  0  0  0  0  0  0  0  0  0  0
    2.1497    1.3863    1.4872 C   0  0  0  0  0  0  0  0  0  0  0  0
    2.8917    1.6670    0.1806 C   0  0  0  0  0  0  0  0  0  0  0  0
    3.9147    0.5852   -0.1500 C   0  0  0  0  0  0  0  0  0  0  0  0
    5.0040    0.6766    0.7706 O   0  0  0  0  0  0  0  0  0  0  0  0
    5.9501   -0.3859    0.6312 C   0  0  0  0  0  0  0  0  0  0  0  0
    7.2752    0.1177    1.1915 C   0  0  0  0  0  0  0  0  0  0  0  0
    5.4827   -1.6153    1.4039 C   0  0  0  0  0  0  0  0  0  0  0  0
   -0.4094    1.6947    0.6963 N   0  0  0  0  0  0  0  0  0  0  0  0
   -1.6555    1.8076    0.3927 C   0  0  0  0  0  0  0  0  0  0  0  0
   -2.3807    2.9568    0.0756 N   0  0  0  0  0  0  0  0  0  0  0  0
   -2.0525    4.2345    0.6794 C   0  0  0  0  0  0  0  0  0  0  0  0
   -4.2566    2.9351   -0.7688 H   0  0  0  0  0  0  0  0  0  0  0  0
   -4.6911    0.6639   -0.0495 H   0  0  0  0  0  0  0  0  0  0  0  0
   -2.0021   -2.6607    0.5672 H   0  0  0  0  0  0  0  0  0  0  0  0
   -5.0524   -2.6740    1.0688 H   0  0  0  0  0  0  0  0  0  0  0  0
   -6.8989   -3.1764   -0.4924 H   0  0  0  0  0  0  0  0  0  0  0  0
   -6.5611   -2.9162   -2.9284 H   0  0  0  0  0  0  0  0  0  0  0  0
   -1.2502   -1.9848   -1.7482 H   0  0  0  0  0  0  0  0  0  0  0  0
   -2.0056   -0.6049   -2.5876 H   0  0  0  0  0  0  0  0  0  0  0  0
   -1.8465   -2.2013   -3.3634 H   0  0  0  0  0  0  0  0  0  0  0  0
    1.6182    2.2861    1.8192 H   0  0  0  0  0  0  0  0  0  0  0  0
    2.8625    1.1596    2.2885 H   0  0  0  0  0  0  0  0  0  0  0  0
    3.4083    2.6293    0.2787 H   0  0  0  0  0  0  0  0  0  0  0  0
    2.1772    1.7544   -0.6457 H   0  0  0  0  0  0  0  0  0  0  0  0
    4.3038    0.7551   -1.1604 H   0  0  0  0  0  0  0  0  0  0  0  0
    3.4545   -0.4072   -0.1196 H   0  0  0  0  0  0  0  0  0  0  0  0
    6.0888   -0.6323   -0.4286 H   0  0  0  0  0  0  0  0  0  0  0  0
    7.6027    1.0111    0.6487 H   0  0  0  0  0  0  0  0  0  0  0  0
    8.0571   -0.6438    1.1118 H   0  0  0  0  0  0  0  0  0  0  0  0
    7.1733    0.4088    2.2430 H   0  0  0  0  0  0  0  0  0  0  0  0
    5.2729   -1.3631    2.4493 H   0  0  0  0  0  0  0  0  0  0  0  0
    4.5546   -2.0168    0.9861 H   0  0  0  0  0  0  0  0  0  0  0  0
    6.2360   -2.4089    1.3779 H   0  0  0  0  0  0  0  0  0  0  0  0
   -1.0022    4.4865    0.5007 H   0  0  0  0  0  0  0  0  0  0  0  0
   -2.2288    4.2110    1.7599 H   0  0  0  0  0  0  0  0  0  0  0  0
   -2.6658    5.0299    0.2438 H   0  0  0  0  0  0  0  0  0  0  0  0
  1  2  1  0
  2  3  2  0
  3  4  1  0
  4  5  1  0
  5  6  1  0
  6  7  2  0
  7  8  1  0
  8  9  2  0
  9 10  1  0
 10 11  1  0
 10 12  2  0
 12 13  1  0
  4 14  2  0
 14 15  1  0
 15 16  2  3
 16 17  1  0
 17 18  1  0
 18 19  1  0
 19 20  1  0
 20 21  1  0
 21 22  1  0
 21 23  1  0
 15 24  1  0
 24 25  2  0
 25 26  1  0
 26 27  1  0
 26  1  1  0
 25  3  1  0
 12  6  1  0
  1 28  1  0
  2 29  1  0
  5 30  1  0
  7 31  1  0
  8 32  1  0
  9 33  1  0
 13 34  1  0
 13 35  1  0
 13 36  1  0
 17 37  1  0
 17 38  1  0
 18 39  1  0
 18 40  1  0
 19 41  1  0
 19 42  1  0
 21 43  1  0
 22 44  1  0
 22 45  1  0
 22 46  1  0
 23 47  1  0
 23 48  1  0
 23 49  1  0
 27 50  1  0
 27 51  1  0
 27 52  1  0
M  END
>  <ScrubInfo>  (7) 
{"isomerGroup": 0, "isomerId": 6, "confId": 0, "nr_conformers:": 1, "nr_isomers:": 9}

$$$$
_i7
     RDKit          3D

 52 54  0  0  0  0  0  0  0  0999 V2000
   -0.3878    1.7253    0.9790 N   0  0  0  0  0  0  0  0  0  0  0  0
    0.2783    0.6876    0.3486 C   0  0  0  0  0  0  0  0  0  0  0  0
    1.5374    0.6018    0.0786 N   0  0  0  0  0  0  0  0  0  0  0  0
    2.4080    1.7081    0.4640 C   0  0  0  0  0  0  0  0  0  0  0  0
    3.8362    1.3940    0.0311 C   0  0  0  0  0  0  0  0  0  0  0  0
    4.4245    0.2059    0.7891 C   0  0  0  0  0  0  0  0  0  0  0  0
    5.8059    0.0448    0.4589 O   0  0  0  0  0  0  0  0  0  0  0  0
    6.0388   -0.7464   -0.7101 C   0  0  0  0  0  0  0  0  0  0  0  0
    7.3826   -0.3146   -1.2851 C   0  0  0  0  0  0  0  0  0  0  0  0
    6.0714   -2.2251   -0.3370 C   0  0  0  0  0  0  0  0  0  0  0  0
   -0.5492   -0.3526   -0.0118 N   0  0  0  0  0  0  0  0  0  0  0  0
   -1.9059   -0.5428    0.1373 C   0  0  0  0  0  0  0  0  0  0  0  0
   -2.4822   -1.6248   -0.2938 N   0  0  0  0  0  0  0  0  0  0  0  0
   -3.8562   -1.8496   -0.1574 C   0  0  0  0  0  0  0  0  0  0  0  0
   -4.3070   -2.5174    0.9905 C   0  0  0  0  0  0  0  0  0  0  0  0
   -5.6604   -2.7872    1.1760 C   0  0  0  0  0  0  0  0  0  0  0  0
   -6.5760   -2.3987    0.2036 C   0  0  0  0  0  0  0  0  0  0  0  0
   -6.1362   -1.7565   -0.9582 C   0  0  0  0  0  0  0  0  0  0  0  0
   -7.3388   -1.2983   -2.1145 Cl  0  0  0  0  0  0  0  0  0  0  0  0
   -4.7705   -1.4899   -1.1679 C   0  0  0  0  0  0  0  0  0  0  0  0
   -4.3031   -0.8030   -2.4235 C   0  0  0  0  0  0  0  0  0  0  0  0
   -2.5163    0.5950    0.8045 C   0  0  0  0  0  0  0  0  0  0  0  0
   -3.8044    0.9838    1.2166 C   0  0  0  0  0  0  0  0  0  0  0  0
   -3.8215    2.1871    1.8087 N   0  0  0  0  0  0  0  0  0  0  0  0
   -2.5295    2.5778    1.7836 N   0  0  0  0  0  0  0  0  0  0  0  0
   -2.1700    3.8571    2.3418 C   0  0  0  0  0  0  0  0  0  0  0  0
   -1.7235    1.6570    1.1868 C   0  0  0  0  0  0  0  0  0  0  0  0
    0.1646    2.5230    1.2621 H   0  0  0  0  0  0  0  0  0  0  0  0
    2.3778    1.8703    1.5480 H   0  0  0  0  0  0  0  0  0  0  0  0
    2.0893    2.6308   -0.0352 H   0  0  0  0  0  0  0  0  0  0  0  0
    4.4694    2.2736    0.2009 H   0  0  0  0  0  0  0  0  0  0  0  0
    3.8683    1.2048   -1.0482 H   0  0  0  0  0  0  0  0  0  0  0  0
    3.8643   -0.7168    0.6047 H   0  0  0  0  0  0  0  0  0  0  0  0
    4.3812    0.4047    1.8654 H   0  0  0  0  0  0  0  0  0  0  0  0
    5.2622   -0.5664   -1.4621 H   0  0  0  0  0  0  0  0  0  0  0  0
    7.3632    0.7515   -1.5364 H   0  0  0  0  0  0  0  0  0  0  0  0
    8.1868   -0.4504   -0.5534 H   0  0  0  0  0  0  0  0  0  0  0  0
    7.6300   -0.8805   -2.1885 H   0  0  0  0  0  0  0  0  0  0  0  0
    5.1054   -2.5536    0.0585 H   0  0  0  0  0  0  0  0  0  0  0  0
    6.8119   -2.4140    0.4481 H   0  0  0  0  0  0  0  0  0  0  0  0
    6.3134   -2.8467   -1.2047 H   0  0  0  0  0  0  0  0  0  0  0  0
   -0.0740   -1.1137   -0.4752 H   0  0  0  0  0  0  0  0  0  0  0  0
   -3.5886   -2.8263    1.7465 H   0  0  0  0  0  0  0  0  0  0  0  0
   -5.9975   -3.2980    2.0740 H   0  0  0  0  0  0  0  0  0  0  0  0
   -7.6337   -2.6034    0.3515 H   0  0  0  0  0  0  0  0  0  0  0  0
   -4.7271   -1.2866   -3.3097 H   0  0  0  0  0  0  0  0  0  0  0  0
   -3.2169   -0.8442   -2.5464 H   0  0  0  0  0  0  0  0  0  0  0  0
   -4.5996    0.2506   -2.4060 H   0  0  0  0  0  0  0  0  0  0  0  0
   -4.7445    0.4590    1.1191 H   0  0  0  0  0  0  0  0  0  0  0  0
   -2.8419    4.0863    3.1731 H   0  0  0  0  0  0  0  0  0  0  0  0
   -2.2667    4.6098    1.5558 H   0  0  0  0  0  0  0  0  0  0  0  0
   -1.1418    3.8177    2.7086 H   0  0  0  0  0  0  0  0  0  0  0  0
  1  2  1  0
  2  3  2  3
  3  4  1  0
  4  5  1  0
  5  6  1  0
  6  7  1  0
  7  8  1  0
  8  9  1  0
  8 10  1  0
  2 11  1  0
 11 12  1  0
 12 13  2  3
 13 14  1  0
 14 15  2  0
 15 16  1  0
 16 17  2  0
 17 18  1  0
 18 19  1  0
 18 20  2  0
 20 21  1  0
 12 22  1  0
 22 23  1  0
 23 24  2  0
 24 25  1  0
 25 26  1  0
 25 27  1  0
 27  1  1  0
 20 14  1  0
 27 22  2  0
  1 28  1  0
  4 29  1  0
  4 30  1  0
  5 31  1  0
  5 32  1  0
  6 33  1  0
  6 34  1  0
  8 35  1  0
  9 36  1  0
  9 37  1  0
  9 38  1  0
 10 39  1  0
 10 40  1  0
 10 41  1  0
 11 42  1  0
 15 43  1  0
 16 44  1  0
 17 45  1  0
 21 46  1  0
 21 47  1  0
 21 48  1  0
 23 49  1  0
 26 50  1  0
 26 51  1  0
 26 52  1  0
M  END
>  <ScrubInfo>  (8) 
{"isomerGroup": 0, "isomerId": 7, "confId": 0, "nr_conformers:": 1, "nr_isomers:": 9}

$$$$
_i8
     RDKit          3D

 52 54  0  0  0  0  0  0  0  0999 V2000
   -3.7499    3.9731   -1.2722 N   0  0  0  0  0  0  0  0  0  0  0  0
   -4.1229    2.7077   -0.8330 C   0  0  0  0  0  0  0  0  0  0  0  0
   -3.1026    1.8422   -0.8137 C   0  0  0  0  0  0  0  0  0  0  0  0
   -2.8654    0.4481   -0.4325 C   0  0  0  0  0  0  0  0  0  0  0  0
   -3.8589   -0.2756   -0.0087 N   0  0  0  0  0  0  0  0  0  0  0  0
   -3.6121   -1.6082    0.3582 C   0  0  0  0  0  0  0  0  0  0  0  0
   -3.7100   -2.5977   -0.6300 C   0  0  0  0  0  0  0  0  0  0  0  0
   -3.4573   -3.9337   -0.3310 C   0  0  0  0  0  0  0  0  0  0  0  0
   -3.1077   -4.2912    0.9671 C   0  0  0  0  0  0  0  0  0  0  0  0
   -3.0260   -3.3159    1.9660 C   0  0  0  0  0  0  0  0  0  0  0  0
   -2.5701   -3.8398    3.5505 Cl  0  0  0  0  0  0  0  0  0  0  0  0
   -3.2943   -1.9639    1.6837 C   0  0  0  0  0  0  0  0  0  0  0  0
   -3.2079   -0.9173    2.7628 C   0  0  0  0  0  0  0  0  0  0  0  0
   -1.5496    0.0893   -0.5799 N   0  0  0  0  0  0  0  0  0  0  0  0
   -0.5309    0.8854   -1.0314 C   0  0  0  0  0  0  0  0  0  0  0  0
    0.6587    0.3795   -1.0789 N   0  0  0  0  0  0  0  0  0  0  0  0
    1.7321    1.2434   -1.5739 C   0  0  0  0  0  0  0  0  0  0  0  0
    3.0438    0.4644   -1.5683 C   0  0  0  0  0  0  0  0  0  0  0  0
    3.4920    0.0880   -0.1606 C   0  0  0  0  0  0  0  0  0  0  0  0
    4.7751   -0.5359   -0.2535 O   0  0  0  0  0  0  0  0  0  0  0  0
    5.3168   -0.9144    1.0148 C   0  0  0  0  0  0  0  0  0  0  0  0
    6.8213   -1.0741    0.8266 C   0  0  0  0  0  0  0  0  0  0  0  0
    4.7031   -2.2258    1.4949 C   0  0  0  0  0  0  0  0  0  0  0  0
   -0.7457    2.1896   -1.4308 N   0  0  0  0  0  0  0  0  0  0  0  0
   -1.9575    2.6441   -1.3480 C   0  0  0  0  0  0  0  0  0  0  0  0
   -2.4276    3.9100   -1.7076 N   0  0  0  0  0  0  0  0  0  0  0  0
   -1.5865    5.0845   -1.5793 C   0  0  0  0  0  0  0  0  0  0  0  0
   -4.4193    4.3882   -1.9245 H   0  0  0  0  0  0  0  0  0  0  0  0
   -5.1495    2.5176   -0.5526 H   0  0  0  0  0  0  0  0  0  0  0  0
   -3.9864   -2.3161   -1.6437 H   0  0  0  0  0  0  0  0  0  0  0  0
   -3.5326   -4.6912   -1.1068 H   0  0  0  0  0  0  0  0  0  0  0  0
   -2.9035   -5.3339    1.1990 H   0  0  0  0  0  0  0  0  0  0  0  0
   -3.7528   -1.2362    3.6573 H   0  0  0  0  0  0  0  0  0  0  0  0
   -2.1604   -0.7319    3.0208 H   0  0  0  0  0  0  0  0  0  0  0  0
   -3.6547    0.0346    2.4607 H   0  0  0  0  0  0  0  0  0  0  0  0
   -1.2660   -0.8466   -0.3330 H   0  0  0  0  0  0  0  0  0  0  0  0
    1.8367    2.1380   -0.9479 H   0  0  0  0  0  0  0  0  0  0  0  0
    1.5232    1.5577   -2.6037 H   0  0  0  0  0  0  0  0  0  0  0  0
    2.9517   -0.4453   -2.1750 H   0  0  0  0  0  0  0  0  0  0  0  0
    3.8261    1.0674   -2.0458 H   0  0  0  0  0  0  0  0  0  0  0  0
    3.5720    0.9860    0.4625 H   0  0  0  0  0  0  0  0  0  0  0  0
    2.7738   -0.6005    0.2948 H   0  0  0  0  0  0  0  0  0  0  0  0
    5.1399   -0.1207    1.7508 H   0  0  0  0  0  0  0  0  0  0  0  0
    7.0451   -1.8365    0.0721 H   0  0  0  0  0  0  0  0  0  0  0  0
    7.3133   -1.3520    1.7637 H   0  0  0  0  0  0  0  0  0  0  0  0
    7.2614   -0.1376    0.4670 H   0  0  0  0  0  0  0  0  0  0  0  0
    5.1864   -2.5765    2.4122 H   0  0  0  0  0  0  0  0  0  0  0  0
    4.7940   -3.0037    0.7288 H   0  0  0  0  0  0  0  0  0  0  0  0
    3.6350   -2.1103    1.7021 H   0  0  0  0  0  0  0  0  0  0  0  0
   -0.6479    4.9483   -2.1260 H   0  0  0  0  0  0  0  0  0  0  0  0
   -2.0914    5.9619   -1.9962 H   0  0  0  0  0  0  0  0  0  0  0  0
   -1.3543    5.2834   -0.5278 H   0  0  0  0  0  0  0  0  0  0  0  0
  1  2  1  0
  2  3  2  0
  3  4  1  0
  4  5  2  3
  5  6  1  0
  6  7  2  0
  7  8  1  0
  8  9  2  0
  9 10  1  0
 10 11  1  0
 10 12  2  0
 12 13  1  0
  4 14  1  0
 14 15  1  0
 15 16  2  3
 16 17  1  0
 17 18  1  0
 18 19  1  0
 19 20  1  0
 20 21  1  0
 21 22  1  0
 21 23  1  0
 15 24  1  0
 24 25  2  0
 25 26  1  0
 26 27  1  0
 26  1  1  0
 25  3  1  0
 12  6  1  0
  1 28  1  0
  2 29  1  0
  7 30  1  0
  8 31  1  0
  9 32  1  0
 13 33  1  0
 13 34  1  0
 13 35  1  0
 14 36  1  0
 17 37  1  0
 17 38  1  0
 18 39  1  0
 18 40  1  0
 19 41  1  0
 19 42  1  0
 21 43  1  0
 22 44  1  0
 22 45  1  0
 22 46  1  0
 23 47  1  0
 23 48  1  0
 23 49  1  0
 27 50  1  0
 27 51  1  0
 27 52  1  0
M  END
>  <ScrubInfo>  (9) 
{"isomerGroup": 0, "isomerId": 8, "confId": 0, "nr_conformers:": 1, "nr_isomers:": 9}

$$$$
