REMARK SMILES Cc1c(Cl)cccc1Nc1nc(NCCCOC(C)C)nc2c1cnn2C
REMARK SMILES IDX 14 1 13 2 12 4 10 5 11 6 23 7 22 8 24 9 21 10 26 11 25 12
REMARK SMILES IDX 27 13 9 14 8 16 2 17 3 18 5 19 7 20 6 21 1 22 4 23 15 24
REMARK SMILES IDX 16 25 17 26 18 27 19 28 20 29
REMARK H PARENT 13 3 9 15
ROOT
ATOM      1  C   UNL     1       1.034   1.256  -0.976  1.00  0.00     0.118 C 
ENDROOT
BRANCH   1   2
ATOM      2  N   UNL     1      -0.370   0.868  -0.983  1.00  0.00    -0.354 N 
ATOM      3  H   UNL     1      -0.997   1.547  -0.560  1.00  0.00     0.163 HD
BRANCH   2   4
ATOM      4  C   UNL     1      -0.663  -0.323  -0.327  1.00  0.00     0.226 A 
ATOM      5  C   UNL     1      -2.236  -1.402   1.048  1.00  0.00     0.147 A 
ATOM      6  N   UNL     1      -1.817  -0.305   0.362  1.00  0.00    -0.195 NA
ATOM      7  C   UNL     1      -1.414  -2.532   1.005  1.00  0.00     0.082 A 
ATOM      8  C   UNL     1      -0.251  -2.434   0.269  1.00  0.00     0.165 A 
ATOM      9  C   UNL     1      -1.389  -3.842   1.526  1.00  0.00     0.149 A 
ATOM     10  N   UNL     1       0.174  -1.363  -0.414  1.00  0.00    -0.193 NA
ATOM     11  N   UNL     1       0.372  -3.646   0.382  1.00  0.00    -0.250 N 
ATOM     12  N   UNL     1      -0.309  -4.534   1.146  1.00  0.00    -0.179 NA
ATOM     13  C   UNL     1       1.628  -4.033  -0.210  1.00  0.00     0.176 C 
BRANCH   5  14
ATOM     14  N   UNL     1      -3.453  -1.394   1.761  1.00  0.00    -0.339 N 
ATOM     15  H   UNL     1      -3.853  -2.324   1.807  1.00  0.00     0.168 HD
BRANCH  14  16
ATOM     16  C   UNL     1      -4.431  -0.374   1.707  1.00  0.00     0.044 A 
ATOM     17  C   UNL     1      -4.189   0.944   2.157  1.00  0.00    -0.009 A 
ATOM     18  C   UNL     1      -5.185   1.920   1.951  1.00  0.00     0.046 A 
ATOM     19  C   UNL     1      -6.403   1.595   1.348  1.00  0.00     0.021 A 
ATOM     20  C   UNL     1      -5.664  -0.680   1.100  1.00  0.00     0.026 A 
ATOM     21  C   UNL     1      -6.646   0.293   0.928  1.00  0.00     0.004 A 
ATOM     22  C   UNL     1      -2.901   1.314   2.847  1.00  0.00     0.048 C 
ATOM     23  Cl  UNL     1      -4.959   3.570   2.425  1.00  0.00    -0.084 Cl
ENDBRANCH  14  16
ENDBRANCH   5  14
ENDBRANCH   2   4
ENDBRANCH   1   2
BRANCH   1  24
ATOM     24  C   UNL     1       1.744   0.753  -2.234  1.00  0.00     0.050 C 
BRANCH  24  25
ATOM     25  C   UNL     1       3.138   1.353  -2.374  1.00  0.00     0.162 C 
BRANCH  25  26
ATOM     26  O   UNL     1       3.925   0.988  -1.243  1.00  0.00    -0.379 OA
BRANCH  26  27
ATOM     27  C   UNL     1       5.281   1.436  -1.318  1.00  0.00     0.112 C 
ATOM     28  C   UNL     1       6.082   0.593  -0.331  1.00  0.00     0.038 C 
ATOM     29  C   UNL     1       5.383   2.914  -0.954  1.00  0.00     0.038 C 
ENDBRANCH  26  27
ENDBRANCH  25  26
ENDBRANCH  24  25
ENDBRANCH   1  24
TORSDOF 8
