_i0
     RDKit          3D

 49 51  0  0  0  0  0  0  0  0999 V2000
    4.1068    1.1385    4.0837 C   0  0  0  0  0  0  0  0  0  0  0  0
    3.9166    1.2989    2.5830 C   0  0  0  0  0  0  0  0  0  0  0  0
    2.4341    1.3486    2.2124 C   0  0  0  0  0  0  0  0  0  0  0  0
    2.1869    1.6172    0.7254 C   0  0  0  0  0  0  0  0  0  0  0  0
    2.6675    0.4825   -0.1828 C   0  0  0  0  0  0  0  0  0  0  0  0
    2.3156    0.7543   -1.5654 N   0  0  0  0  0  0  0  0  0  0  0  0
    1.1305    0.1967   -2.0277 C   0  0  0  0  0  0  0  0  0  0  0  0
    0.1000    0.0047   -1.1824 N   0  0  0  0  0  0  0  0  0  0  0  0
   -1.0765   -0.5216   -1.6160 C   0  0  0  0  0  0  0  0  0  0  0  0
   -2.1766   -0.7021   -0.7625 N   0  0  0  0  0  0  0  0  0  0  0  0
   -2.3332   -0.5748    0.6324 C   0  0  0  0  0  0  0  0  0  0  0  0
   -1.2373   -0.4520    1.5001 C   0  0  0  0  0  0  0  0  0  0  0  0
   -1.4023   -0.2965    2.8801 C   0  0  0  0  0  0  0  0  0  0  0  0
   -2.6809   -0.2551    3.4107 C   0  0  0  0  0  0  0  0  0  0  0  0
   -2.8937   -0.1065    4.7484 O   0  0  0  0  0  0  0  0  0  0  0  0
   -3.7900   -0.3628    2.5841 C   0  0  0  0  0  0  0  0  0  0  0  0
   -3.6324   -0.5137    1.1941 C   0  0  0  0  0  0  0  0  0  0  0  0
   -4.8726   -0.6047    0.3450 C   0  0  0  0  0  0  0  0  0  0  0  0
   -1.1530   -0.8508   -2.9756 C   0  0  0  0  0  0  0  0  0  0  0  0
   -2.0931   -1.3908   -3.8786 C   0  0  0  0  0  0  0  0  0  0  0  0
   -1.6181   -1.4994   -5.1243 N   0  0  0  0  0  0  0  0  0  0  0  0
   -0.3573   -1.0185   -5.0158 N   0  0  0  0  0  0  0  0  0  0  0  0
    0.4848   -0.9663   -6.1842 C   0  0  0  0  0  0  0  0  0  0  0  0
   -0.0314   -0.6222   -3.7474 C   0  0  0  0  0  0  0  0  0  0  0  0
    1.1348   -0.1103   -3.3305 N   0  0  0  0  0  0  0  0  0  0  0  0
    3.6432    0.2134    4.4410 H   0  0  0  0  0  0  0  0  0  0  0  0
    3.6629    1.9782    4.6278 H   0  0  0  0  0  0  0  0  0  0  0  0
    5.1729    1.1012    4.3287 H   0  0  0  0  0  0  0  0  0  0  0  0
    4.4145    2.2181    2.2538 H   0  0  0  0  0  0  0  0  0  0  0  0
    4.4081    0.4613    2.0768 H   0  0  0  0  0  0  0  0  0  0  0  0
    1.9495    0.4085    2.5020 H   0  0  0  0  0  0  0  0  0  0  0  0
    1.9472    2.1449    2.7892 H   0  0  0  0  0  0  0  0  0  0  0  0
    2.6753    2.5553    0.4327 H   0  0  0  0  0  0  0  0  0  0  0  0
    1.1118    1.7793    0.5839 H   0  0  0  0  0  0  0  0  0  0  0  0
    2.2925   -0.4913    0.1566 H   0  0  0  0  0  0  0  0  0  0  0  0
    3.7605    0.4240   -0.1297 H   0  0  0  0  0  0  0  0  0  0  0  0
    3.0231    0.5175   -2.2517 H   0  0  0  0  0  0  0  0  0  0  0  0
   -3.0050   -1.0211   -1.2417 H   0  0  0  0  0  0  0  0  0  0  0  0
   -0.2239   -0.4945    1.1153 H   0  0  0  0  0  0  0  0  0  0  0  0
   -0.5236   -0.2120    3.5105 H   0  0  0  0  0  0  0  0  0  0  0  0
   -2.0323   -0.0218    5.1890 H   0  0  0  0  0  0  0  0  0  0  0  0
   -4.7814   -0.3206    3.0285 H   0  0  0  0  0  0  0  0  0  0  0  0
   -4.8657    0.1738   -0.4248 H   0  0  0  0  0  0  0  0  0  0  0  0
   -5.7817   -0.4652    0.9397 H   0  0  0  0  0  0  0  0  0  0  0  0
   -4.9350   -1.5896   -0.1287 H   0  0  0  0  0  0  0  0  0  0  0  0
   -3.1072   -1.7134   -3.6834 H   0  0  0  0  0  0  0  0  0  0  0  0
    1.4628   -0.5556   -5.9238 H   0  0  0  0  0  0  0  0  0  0  0  0
    0.6007   -1.9824   -6.5698 H   0  0  0  0  0  0  0  0  0  0  0  0
    0.0012   -0.3281   -6.9281 H   0  0  0  0  0  0  0  0  0  0  0  0
  1  2  1  0
  2  3  1  0
  3  4  1  0
  4  5  1  0
  5  6  1  0
  6  7  1  0
  7  8  2  0
  8  9  1  0
  9 10  1  0
 10 11  1  0
 11 12  2  0
 12 13  1  0
 13 14  2  0
 14 15  1  0
 14 16  1  0
 16 17  2  0
 17 18  1  0
  9 19  2  0
 19 20  1  0
 20 21  2  0
 21 22  1  0
 22 23  1  0
 22 24  1  0
 24 25  2  0
 25  7  1  0
 17 11  1  0
 24 19  1  0
  1 26  1  0
  1 27  1  0
  1 28  1  0
  2 29  1  0
  2 30  1  0
  3 31  1  0
  3 32  1  0
  4 33  1  0
  4 34  1  0
  5 35  1  0
  5 36  1  0
  6 37  1  0
 10 38  1  0
 12 39  1  0
 13 40  1  0
 15 41  1  0
 16 42  1  0
 18 43  1  0
 18 44  1  0
 18 45  1  0
 20 46  1  0
 23 47  1  0
 23 48  1  0
 23 49  1  0
M  END
>  <ScrubInfo>  (1) 
{"isomerGroup": 0, "isomerId": 0, "confId": 0, "nr_conformers:": 1, "nr_isomers:": 9}

$$$$
_i1
     RDKit          3D

 49 51  0  0  0  0  0  0  0  0999 V2000
   -0.4528   -0.8146    0.0297 N   0  0  0  0  0  0  0  0  0  0  0  0
   -1.5182   -1.3428   -0.6791 C   0  0  0  0  0  0  0  0  0  0  0  0
   -2.7154   -0.6576   -0.8742 N   0  0  0  0  0  0  0  0  0  0  0  0
   -2.8959    0.7040   -0.5362 C   0  0  0  0  0  0  0  0  0  0  0  0
   -2.8146    1.6703   -1.5512 C   0  0  0  0  0  0  0  0  0  0  0  0
   -2.8951    3.0293   -1.2493 C   0  0  0  0  0  0  0  0  0  0  0  0
   -3.0460    3.4303    0.0697 C   0  0  0  0  0  0  0  0  0  0  0  0
   -3.1115    4.7680    0.3215 O   0  0  0  0  0  0  0  0  0  0  0  0
   -3.1234    2.4934    1.0953 C   0  0  0  0  0  0  0  0  0  0  0  0
   -3.0587    1.1201    0.8027 C   0  0  0  0  0  0  0  0  0  0  0  0
   -3.1508    0.1336    1.9363 C   0  0  0  0  0  0  0  0  0  0  0  0
   -1.3162   -2.5714   -1.1688 C   0  0  0  0  0  0  0  0  0  0  0  0
   -2.0698   -3.5833   -1.9164 C   0  0  0  0  0  0  0  0  0  0  0  0
   -1.3873   -4.6796   -2.1289 N   0  0  0  0  0  0  0  0  0  0  0  0
   -0.1199   -4.4416   -1.5711 N   0  0  0  0  0  0  0  0  0  0  0  0
    0.7750   -5.5538   -1.3603 C   0  0  0  0  0  0  0  0  0  0  0  0
   -0.0104   -3.2193   -0.9271 C   0  0  0  0  0  0  0  0  0  0  0  0
    0.9652   -2.7129   -0.2558 N   0  0  0  0  0  0  0  0  0  0  0  0
    0.7487   -1.4480    0.2472 C   0  0  0  0  0  0  0  0  0  0  0  0
    1.7567   -0.9800    0.8906 N   0  0  0  0  0  0  0  0  0  0  0  0
    1.7046    0.3375    1.5096 C   0  0  0  0  0  0  0  0  0  0  0  0
    2.0737    1.4331    0.5092 C   0  0  0  0  0  0  0  0  0  0  0  0
    3.4577    1.2818   -0.1336 C   0  0  0  0  0  0  0  0  0  0  0  0
    4.6394    1.2324    0.8375 C   0  0  0  0  0  0  0  0  0  0  0  0
    4.7695    2.4781    1.6997 C   0  0  0  0  0  0  0  0  0  0  0  0
   -0.5680    0.1336    0.3485 H   0  0  0  0  0  0  0  0  0  0  0  0
   -3.1545   -0.8886   -1.7625 H   0  0  0  0  0  0  0  0  0  0  0  0
   -2.6669    1.3724   -2.5862 H   0  0  0  0  0  0  0  0  0  0  0  0
   -2.8290    3.7720   -2.0396 H   0  0  0  0  0  0  0  0  0  0  0  0
   -3.2388    4.9029    1.2749 H   0  0  0  0  0  0  0  0  0  0  0  0
   -3.2406    2.8175    2.1259 H   0  0  0  0  0  0  0  0  0  0  0  0
   -3.6800   -0.7748    1.6312 H   0  0  0  0  0  0  0  0  0  0  0  0
   -3.7134    0.5564    2.7760 H   0  0  0  0  0  0  0  0  0  0  0  0
   -2.1505   -0.1311    2.2912 H   0  0  0  0  0  0  0  0  0  0  0  0
   -3.1073   -3.4054   -2.2262 H   0  0  0  0  0  0  0  0  0  0  0  0
    0.6790   -6.2868   -2.1679 H   0  0  0  0  0  0  0  0  0  0  0  0
    1.8166   -5.2181   -1.3370 H   0  0  0  0  0  0  0  0  0  0  0  0
    0.5474   -6.0513   -0.4124 H   0  0  0  0  0  0  0  0  0  0  0  0
    0.7222    0.5436    1.9509 H   0  0  0  0  0  0  0  0  0  0  0  0
    2.4021    0.3484    2.3541 H   0  0  0  0  0  0  0  0  0  0  0  0
    1.3294    1.4566   -0.2963 H   0  0  0  0  0  0  0  0  0  0  0  0
    2.0061    2.4057    1.0103 H   0  0  0  0  0  0  0  0  0  0  0  0
    3.4739    0.3729   -0.7475 H   0  0  0  0  0  0  0  0  0  0  0  0
    3.6062    2.1183   -0.8283 H   0  0  0  0  0  0  0  0  0  0  0  0
    5.5601    1.1169    0.2526 H   0  0  0  0  0  0  0  0  0  0  0  0
    4.5702    0.3475    1.4794 H   0  0  0  0  0  0  0  0  0  0  0  0
    5.6840    2.4260    2.2993 H   0  0  0  0  0  0  0  0  0  0  0  0
    4.8207    3.3801    1.0818 H   0  0  0  0  0  0  0  0  0  0  0  0
    3.9267    2.5780    2.3900 H   0  0  0  0  0  0  0  0  0  0  0  0
  1  2  1  0
  2  3  1  0
  3  4  1  0
  4  5  2  0
  5  6  1  0
  6  7  2  0
  7  8  1  0
  7  9  1  0
  9 10  2  0
 10 11  1  0
  2 12  2  0
 12 13  1  0
 13 14  2  0
 14 15  1  0
 15 16  1  0
 15 17  1  0
 17 18  2  0
 18 19  1  0
 19 20  2  3
 20 21  1  0
 21 22  1  0
 22 23  1  0
 23 24  1  0
 24 25  1  0
 19  1  1  0
 10  4  1  0
 17 12  1  0
  1 26  1  0
  3 27  1  0
  5 28  1  0
  6 29  1  0
  8 30  1  0
  9 31  1  0
 11 32  1  0
 11 33  1  0
 11 34  1  0
 13 35  1  0
 16 36  1  0
 16 37  1  0
 16 38  1  0
 21 39  1  0
 21 40  1  0
 22 41  1  0
 22 42  1  0
 23 43  1  0
 23 44  1  0
 24 45  1  0
 24 46  1  0
 25 47  1  0
 25 48  1  0
 25 49  1  0
M  END
>  <ScrubInfo>  (2) 
{"isomerGroup": 0, "isomerId": 1, "confId": 0, "nr_conformers:": 1, "nr_isomers:": 9}

$$$$
_i2
     RDKit          3D

 49 51  0  0  0  0  0  0  0  0999 V2000
   -0.3371   -1.5422    0.9252 N   0  0  0  0  0  0  0  0  0  0  0  0
    0.8431   -1.3777    0.2396 C   0  0  0  0  0  0  0  0  0  0  0  0
    1.8769   -2.0875    0.7937 N   0  0  0  0  0  0  0  0  0  0  0  0
    3.1963   -2.1155    0.1757 C   0  0  0  0  0  0  0  0  0  0  0  0
    3.9800   -0.8482    0.5197 C   0  0  0  0  0  0  0  0  0  0  0  0
    5.3805   -0.8810   -0.0955 C   0  0  0  0  0  0  0  0  0  0  0  0
    6.2429    0.3209    0.2958 C   0  0  0  0  0  0  0  0  0  0  0  0
    5.7249    1.6432   -0.2489 C   0  0  0  0  0  0  0  0  0  0  0  0
    0.9650   -0.6198   -0.8188 N   0  0  0  0  0  0  0  0  0  0  0  0
   -0.2157   -0.0325   -1.1611 C   0  0  0  0  0  0  0  0  0  0  0  0
   -1.4470   -0.1367   -0.5326 C   0  0  0  0  0  0  0  0  0  0  0  0
   -2.3029    0.6621   -1.3113 C   0  0  0  0  0  0  0  0  0  0  0  0
   -1.6773    1.2358   -2.3476 N   0  0  0  0  0  0  0  0  0  0  0  0
   -0.4033    0.7978   -2.2297 N   0  0  0  0  0  0  0  0  0  0  0  0
    0.5813    1.2197   -3.1937 C   0  0  0  0  0  0  0  0  0  0  0  0
   -1.5525   -0.9542    0.6594 C   0  0  0  0  0  0  0  0  0  0  0  0
   -2.5808   -1.1484    1.4282 N   0  0  0  0  0  0  0  0  0  0  0  0
   -3.8191   -0.5495    1.1757 C   0  0  0  0  0  0  0  0  0  0  0  0
   -4.7642   -1.2439    0.4102 C   0  0  0  0  0  0  0  0  0  0  0  0
   -6.0176   -0.6891    0.1546 C   0  0  0  0  0  0  0  0  0  0  0  0
   -6.3321    0.5575    0.6773 C   0  0  0  0  0  0  0  0  0  0  0  0
   -7.5648    1.0688    0.3989 O   0  0  0  0  0  0  0  0  0  0  0  0
   -5.4179    1.2552    1.4625 C   0  0  0  0  0  0  0  0  0  0  0  0
   -4.1569    0.6986    1.7334 C   0  0  0  0  0  0  0  0  0  0  0  0
   -3.1751    1.4538    2.5845 C   0  0  0  0  0  0  0  0  0  0  0  0
   -0.3037   -2.0252    1.8073 H   0  0  0  0  0  0  0  0  0  0  0  0
    1.6052   -2.9911    1.1625 H   0  0  0  0  0  0  0  0  0  0  0  0
    3.1133   -2.2499   -0.9092 H   0  0  0  0  0  0  0  0  0  0  0  0
    3.7364   -2.9878    0.5623 H   0  0  0  0  0  0  0  0  0  0  0  0
    3.4362    0.0325    0.1620 H   0  0  0  0  0  0  0  0  0  0  0  0
    4.0565   -0.7498    1.6098 H   0  0  0  0  0  0  0  0  0  0  0  0
    5.3033   -0.9374   -1.1882 H   0  0  0  0  0  0  0  0  0  0  0  0
    5.8950   -1.7928    0.2325 H   0  0  0  0  0  0  0  0  0  0  0  0
    6.3245    0.3826    1.3872 H   0  0  0  0  0  0  0  0  0  0  0  0
    7.2570    0.1599   -0.0891 H   0  0  0  0  0  0  0  0  0  0  0  0
    5.6002    1.5992   -1.3354 H   0  0  0  0  0  0  0  0  0  0  0  0
    6.4338    2.4460   -0.0217 H   0  0  0  0  0  0  0  0  0  0  0  0
    4.7647    1.9140    0.1996 H   0  0  0  0  0  0  0  0  0  0  0  0
   -3.3574    0.8639   -1.1847 H   0  0  0  0  0  0  0  0  0  0  0  0
    0.5627    2.3111   -3.2523 H   0  0  0  0  0  0  0  0  0  0  0  0
    0.3225    0.7812   -4.1607 H   0  0  0  0  0  0  0  0  0  0  0  0
    1.5753    0.8868   -2.8871 H   0  0  0  0  0  0  0  0  0  0  0  0
   -4.5174   -2.2227    0.0080 H   0  0  0  0  0  0  0  0  0  0  0  0
   -6.7431   -1.2278   -0.4477 H   0  0  0  0  0  0  0  0  0  0  0  0
   -7.6408    1.9427    0.8157 H   0  0  0  0  0  0  0  0  0  0  0  0
   -5.6757    2.2269    1.8734 H   0  0  0  0  0  0  0  0  0  0  0  0
   -2.3647    1.8505    1.9652 H   0  0  0  0  0  0  0  0  0  0  0  0
   -2.7558    0.8041    3.3596 H   0  0  0  0  0  0  0  0  0  0  0  0
   -3.6547    2.2958    3.0949 H   0  0  0  0  0  0  0  0  0  0  0  0
  1  2  1  0
  2  3  1  0
  3  4  1  0
  4  5  1  0
  5  6  1  0
  6  7  1  0
  7  8  1  0
  2  9  2  0
  9 10  1  0
 10 11  2  0
 11 12  1  0
 12 13  2  0
 13 14  1  0
 14 15  1  0
 11 16  1  0
 16 17  2  3
 17 18  1  0
 18 19  2  0
 19 20  1  0
 20 21  2  0
 21 22  1  0
 21 23  1  0
 23 24  2  0
 24 25  1  0
 16  1  1  0
 24 18  1  0
 14 10  1  0
  1 26  1  0
  3 27  1  0
  4 28  1  0
  4 29  1  0
  5 30  1  0
  5 31  1  0
  6 32  1  0
  6 33  1  0
  7 34  1  0
  7 35  1  0
  8 36  1  0
  8 37  1  0
  8 38  1  0
 12 39  1  0
 15 40  1  0
 15 41  1  0
 15 42  1  0
 19 43  1  0
 20 44  1  0
 22 45  1  0
 23 46  1  0
 25 47  1  0
 25 48  1  0
 25 49  1  0
M  END
>  <ScrubInfo>  (3) 
{"isomerGroup": 0, "isomerId": 2, "confId": 0, "nr_conformers:": 1, "nr_isomers:": 9}

$$$$
_i3
     RDKit          3D

 49 51  0  0  0  0  0  0  0  0999 V2000
   -0.8671    1.7730   -0.1645 N   0  0  0  0  0  0  0  0  0  0  0  0
   -1.1413    0.5074   -0.6592 C   0  0  0  0  0  0  0  0  0  0  0  0
   -2.1707    0.1631   -1.3456 N   0  0  0  0  0  0  0  0  0  0  0  0
   -3.1999    1.1239   -1.7117 C   0  0  0  0  0  0  0  0  0  0  0  0
   -4.2258    1.3011   -0.5917 C   0  0  0  0  0  0  0  0  0  0  0  0
   -5.2496    0.1656   -0.4728 C   0  0  0  0  0  0  0  0  0  0  0  0
   -4.6608   -1.1634   -0.0005 C   0  0  0  0  0  0  0  0  0  0  0  0
   -5.7531   -2.1852    0.2791 C   0  0  0  0  0  0  0  0  0  0  0  0
   -0.2747   -0.5533   -0.4334 N   0  0  0  0  0  0  0  0  0  0  0  0
    0.8210   -0.3621    0.2440 C   0  0  0  0  0  0  0  0  0  0  0  0
    1.7099   -1.3698    0.5212 N   0  0  0  0  0  0  0  0  0  0  0  0
    3.0763   -1.3505    0.1227 C   0  0  0  0  0  0  0  0  0  0  0  0
    3.5171   -0.5824   -0.9688 C   0  0  0  0  0  0  0  0  0  0  0  0
    4.8508   -0.6190   -1.3815 C   0  0  0  0  0  0  0  0  0  0  0  0
    5.7469   -1.4432   -0.7154 C   0  0  0  0  0  0  0  0  0  0  0  0
    7.0575   -1.5131   -1.0832 O   0  0  0  0  0  0  0  0  0  0  0  0
    5.3303   -2.2338    0.3489 C   0  0  0  0  0  0  0  0  0  0  0  0
    3.9929   -2.2033    0.7739 C   0  0  0  0  0  0  0  0  0  0  0  0
    3.5667   -3.0690    1.9282 C   0  0  0  0  0  0  0  0  0  0  0  0
    1.1265    0.9341    0.8013 C   0  0  0  0  0  0  0  0  0  0  0  0
    2.1229    1.5146    1.5999 C   0  0  0  0  0  0  0  0  0  0  0  0
    1.8934    2.8173    1.8322 N   0  0  0  0  0  0  0  0  0  0  0  0
    0.7287    3.0629    1.1833 N   0  0  0  0  0  0  0  0  0  0  0  0
    0.1674    4.3887    1.2316 C   0  0  0  0  0  0  0  0  0  0  0  0
    0.2493    1.9544    0.5613 C   0  0  0  0  0  0  0  0  0  0  0  0
   -1.5581    2.4906   -0.3185 H   0  0  0  0  0  0  0  0  0  0  0  0
   -3.6990    0.7706   -2.6214 H   0  0  0  0  0  0  0  0  0  0  0  0
   -2.7618    2.0928   -1.9789 H   0  0  0  0  0  0  0  0  0  0  0  0
   -3.7281    1.4504    0.3736 H   0  0  0  0  0  0  0  0  0  0  0  0
   -4.7863    2.2217   -0.7987 H   0  0  0  0  0  0  0  0  0  0  0  0
   -6.0205    0.4846    0.2402 H   0  0  0  0  0  0  0  0  0  0  0  0
   -5.7558    0.0237   -1.4355 H   0  0  0  0  0  0  0  0  0  0  0  0
   -3.9923   -1.5755   -0.7629 H   0  0  0  0  0  0  0  0  0  0  0  0
   -4.0708   -1.0105    0.9103 H   0  0  0  0  0  0  0  0  0  0  0  0
   -5.3115   -3.1318    0.6061 H   0  0  0  0  0  0  0  0  0  0  0  0
   -6.3474   -2.3795   -0.6195 H   0  0  0  0  0  0  0  0  0  0  0  0
   -6.4264   -1.8347    1.0680 H   0  0  0  0  0  0  0  0  0  0  0  0
    1.3137   -2.2457    0.1823 H   0  0  0  0  0  0  0  0  0  0  0  0
    2.8239    0.0487   -1.5206 H   0  0  0  0  0  0  0  0  0  0  0  0
    5.1627   -0.0084   -2.2229 H   0  0  0  0  0  0  0  0  0  0  0  0
    7.2052   -0.9042   -1.8254 H   0  0  0  0  0  0  0  0  0  0  0  0
    6.0552   -2.8748    0.8449 H   0  0  0  0  0  0  0  0  0  0  0  0
    4.4095   -3.6346    2.3396 H   0  0  0  0  0  0  0  0  0  0  0  0
    3.1589   -2.4518    2.7353 H   0  0  0  0  0  0  0  0  0  0  0  0
    2.8108   -3.7906    1.6024 H   0  0  0  0  0  0  0  0  0  0  0  0
    3.0059    1.0540    2.0244 H   0  0  0  0  0  0  0  0  0  0  0  0
   -0.0830    4.6180    2.2704 H   0  0  0  0  0  0  0  0  0  0  0  0
   -0.7315    4.4357    0.6136 H   0  0  0  0  0  0  0  0  0  0  0  0
    0.9122    5.0934    0.8530 H   0  0  0  0  0  0  0  0  0  0  0  0
  1  2  1  0
  2  3  2  3
  3  4  1  0
  4  5  1  0
  5  6  1  0
  6  7  1  0
  7  8  1  0
  2  9  1  0
  9 10  2  0
 10 11  1  0
 11 12  1  0
 12 13  2  0
 13 14  1  0
 14 15  2  0
 15 16  1  0
 15 17  1  0
 17 18  2  0
 18 19  1  0
 10 20  1  0
 20 21  1  0
 21 22  2  0
 22 23  1  0
 23 24  1  0
 23 25  1  0
 25  1  1  0
 18 12  1  0
 25 20  2  0
  1 26  1  0
  4 27  1  0
  4 28  1  0
  5 29  1  0
  5 30  1  0
  6 31  1  0
  6 32  1  0
  7 33  1  0
  7 34  1  0
  8 35  1  0
  8 36  1  0
  8 37  1  0
 11 38  1  0
 13 39  1  0
 14 40  1  0
 16 41  1  0
 17 42  1  0
 19 43  1  0
 19 44  1  0
 19 45  1  0
 21 46  1  0
 24 47  1  0
 24 48  1  0
 24 49  1  0
M  END
>  <ScrubInfo>  (4) 
{"isomerGroup": 0, "isomerId": 3, "confId": 0, "nr_conformers:": 1, "nr_isomers:": 9}

$$$$
_i4
     RDKit          3D

 49 51  0  0  0  0  0  0  0  0999 V2000
   -2.4134   -2.1452    2.0172 N   0  0  0  0  0  0  0  0  0  0  0  0
   -2.7369   -1.0981    1.1606 C   0  0  0  0  0  0  0  0  0  0  0  0
   -1.6660   -0.5100    0.6053 C   0  0  0  0  0  0  0  0  0  0  0  0
   -1.3569    0.5501   -0.3460 C   0  0  0  0  0  0  0  0  0  0  0  0
   -2.1308    1.3786   -0.9651 N   0  0  0  0  0  0  0  0  0  0  0  0
   -3.5133    1.3578   -0.7549 C   0  0  0  0  0  0  0  0  0  0  0  0
   -4.0570    2.1582    0.2591 C   0  0  0  0  0  0  0  0  0  0  0  0
   -5.4315    2.1734    0.4991 C   0  0  0  0  0  0  0  0  0  0  0  0
   -6.2646    1.3897   -0.2894 C   0  0  0  0  0  0  0  0  0  0  0  0
   -7.6130    1.3652   -0.0897 O   0  0  0  0  0  0  0  0  0  0  0  0
   -5.7479    0.6064   -1.3167 C   0  0  0  0  0  0  0  0  0  0  0  0
   -4.3682    0.5967   -1.5728 C   0  0  0  0  0  0  0  0  0  0  0  0
   -3.8208   -0.2384   -2.6952 C   0  0  0  0  0  0  0  0  0  0  0  0
   -0.0213    0.6728   -0.6249 N   0  0  0  0  0  0  0  0  0  0  0  0
    0.8965   -0.0517   -0.0566 C   0  0  0  0  0  0  0  0  0  0  0  0
    2.1800    0.1994   -0.4448 N   0  0  0  0  0  0  0  0  0  0  0  0
    3.2460   -0.7681   -0.3118 C   0  0  0  0  0  0  0  0  0  0  0  0
    4.5840   -0.1596   -0.7372 C   0  0  0  0  0  0  0  0  0  0  0  0
    5.0641    0.9318    0.2257 C   0  0  0  0  0  0  0  0  0  0  0  0
    6.3699    1.5968   -0.2163 C   0  0  0  0  0  0  0  0  0  0  0  0
    7.5666    0.6584   -0.2006 C   0  0  0  0  0  0  0  0  0  0  0  0
    0.6738   -1.0264    0.8782 N   0  0  0  0  0  0  0  0  0  0  0  0
   -0.5467   -1.2477    1.2206 C   0  0  0  0  0  0  0  0  0  0  0  0
   -1.0334   -2.1655    2.1530 N   0  0  0  0  0  0  0  0  0  0  0  0
   -0.3639   -3.4327    2.3727 C   0  0  0  0  0  0  0  0  0  0  0  0
   -2.9532   -2.1379    2.8857 H   0  0  0  0  0  0  0  0  0  0  0  0
   -3.7806   -0.8583    1.0193 H   0  0  0  0  0  0  0  0  0  0  0  0
   -3.3953    2.7765    0.8607 H   0  0  0  0  0  0  0  0  0  0  0  0
   -5.8253    2.7990    1.2931 H   0  0  0  0  0  0  0  0  0  0  0  0
   -7.8372    2.0157    0.5957 H   0  0  0  0  0  0  0  0  0  0  0  0
   -6.4272    0.0145   -1.9250 H   0  0  0  0  0  0  0  0  0  0  0  0
   -4.6229   -0.6218   -3.3349 H   0  0  0  0  0  0  0  0  0  0  0  0
   -3.2693   -1.0950   -2.2954 H   0  0  0  0  0  0  0  0  0  0  0  0
   -3.1572    0.3572   -3.3305 H   0  0  0  0  0  0  0  0  0  0  0  0
    2.2045    0.7846   -1.2718 H   0  0  0  0  0  0  0  0  0  0  0  0
    3.3186   -1.1269    0.7214 H   0  0  0  0  0  0  0  0  0  0  0  0
    3.0287   -1.6318   -0.9508 H   0  0  0  0  0  0  0  0  0  0  0  0
    5.3247   -0.9663   -0.7750 H   0  0  0  0  0  0  0  0  0  0  0  0
    4.5020    0.2516   -1.7508 H   0  0  0  0  0  0  0  0  0  0  0  0
    5.1889    0.5093    1.2302 H   0  0  0  0  0  0  0  0  0  0  0  0
    4.2983    1.7128    0.3050 H   0  0  0  0  0  0  0  0  0  0  0  0
    6.5775    2.4353    0.4592 H   0  0  0  0  0  0  0  0  0  0  0  0
    6.2517    2.0210   -1.2202 H   0  0  0  0  0  0  0  0  0  0  0  0
    7.4667   -0.1327   -0.9494 H   0  0  0  0  0  0  0  0  0  0  0  0
    8.4821    1.2142   -0.4276 H   0  0  0  0  0  0  0  0  0  0  0  0
    7.6884    0.1927    0.7824 H   0  0  0  0  0  0  0  0  0  0  0  0
   -0.8365   -3.9751    3.1981 H   0  0  0  0  0  0  0  0  0  0  0  0
    0.6865   -3.2732    2.6365 H   0  0  0  0  0  0  0  0  0  0  0  0
   -0.4089   -4.0577    1.4747 H   0  0  0  0  0  0  0  0  0  0  0  0
  1  2  1  0
  2  3  2  0
  3  4  1  0
  4  5  2  3
  5  6  1  0
  6  7  2  0
  7  8  1  0
  8  9  2  0
  9 10  1  0
  9 11  1  0
 11 12  2  0
 12 13  1  0
  4 14  1  0
 14 15  2  0
 15 16  1  0
 16 17  1  0
 17 18  1  0
 18 19  1  0
 19 20  1  0
 20 21  1  0
 15 22  1  0
 22 23  2  0
 23 24  1  0
 24 25  1  0
 24  1  1  0
 23  3  1  0
 12  6  1  0
  1 26  1  0
  2 27  1  0
  7 28  1  0
  8 29  1  0
 10 30  1  0
 11 31  1  0
 13 32  1  0
 13 33  1  0
 13 34  1  0
 16 35  1  0
 17 36  1  0
 17 37  1  0
 18 38  1  0
 18 39  1  0
 19 40  1  0
 19 41  1  0
 20 42  1  0
 20 43  1  0
 21 44  1  0
 21 45  1  0
 21 46  1  0
 25 47  1  0
 25 48  1  0
 25 49  1  0
M  END
>  <ScrubInfo>  (5) 
{"isomerGroup": 0, "isomerId": 4, "confId": 0, "nr_conformers:": 1, "nr_isomers:": 9}

$$$$
_i5
     RDKit          3D

 49 51  0  0  0  0  0  0  0  0999 V2000
   -0.2133   -1.7703   -2.4098 N   0  0  0  0  0  0  0  0  0  0  0  0
   -0.3343   -1.0423   -1.2441 C   0  0  0  0  0  0  0  0  0  0  0  0
   -1.5978   -1.1262   -0.7211 N   0  0  0  0  0  0  0  0  0  0  0  0
   -1.9443   -0.3458    0.4634 C   0  0  0  0  0  0  0  0  0  0  0  0
   -3.3579   -0.7074    0.9176 C   0  0  0  0  0  0  0  0  0  0  0  0
   -3.7587   -0.0483    2.2405 C   0  0  0  0  0  0  0  0  0  0  0  0
   -3.7370    1.4821    2.2523 C   0  0  0  0  0  0  0  0  0  0  0  0
   -4.6689    2.1109    1.2284 C   0  0  0  0  0  0  0  0  0  0  0  0
    0.6199   -0.3529   -0.6846 N   0  0  0  0  0  0  0  0  0  0  0  0
    1.8735   -0.3124   -1.2768 C   0  0  0  0  0  0  0  0  0  0  0  0
    2.8767    0.3655   -0.8176 N   0  0  0  0  0  0  0  0  0  0  0  0
    2.6818    1.1144    0.3545 C   0  0  0  0  0  0  0  0  0  0  0  0
    2.2149    2.4316    0.2550 C   0  0  0  0  0  0  0  0  0  0  0  0
    2.0225    3.2075    1.3978 C   0  0  0  0  0  0  0  0  0  0  0  0
    2.3089    2.6688    2.6442 C   0  0  0  0  0  0  0  0  0  0  0  0
    2.1043    3.4563    3.7388 O   0  0  0  0  0  0  0  0  0  0  0  0
    2.7917    1.3683    2.7677 C   0  0  0  0  0  0  0  0  0  0  0  0
    2.9942    0.5832    1.6205 C   0  0  0  0  0  0  0  0  0  0  0  0
    3.5080   -0.8221    1.7550 C   0  0  0  0  0  0  0  0  0  0  0  0
    2.0541   -1.0876   -2.4765 C   0  0  0  0  0  0  0  0  0  0  0  0
    3.1164   -1.3627   -3.3471 C   0  0  0  0  0  0  0  0  0  0  0  0
    2.7571   -2.1941   -4.3398 N   0  0  0  0  0  0  0  0  0  0  0  0
    1.4470   -2.4461   -4.0930 N   0  0  0  0  0  0  0  0  0  0  0  0
    0.7224   -3.3167   -4.9828 C   0  0  0  0  0  0  0  0  0  0  0  0
    1.0001   -1.7910   -2.9900 C   0  0  0  0  0  0  0  0  0  0  0  0
   -0.9453   -2.4341   -2.6219 H   0  0  0  0  0  0  0  0  0  0  0  0
   -2.3238   -1.0977   -1.4266 H   0  0  0  0  0  0  0  0  0  0  0  0
   -1.2345   -0.5602    1.2710 H   0  0  0  0  0  0  0  0  0  0  0  0
   -1.8809    0.7208    0.2225 H   0  0  0  0  0  0  0  0  0  0  0  0
   -4.0797   -0.4501    0.1331 H   0  0  0  0  0  0  0  0  0  0  0  0
   -3.4280   -1.7958    1.0431 H   0  0  0  0  0  0  0  0  0  0  0  0
   -4.7665   -0.3910    2.5064 H   0  0  0  0  0  0  0  0  0  0  0  0
   -3.0921   -0.4102    3.0334 H   0  0  0  0  0  0  0  0  0  0  0  0
   -2.7175    1.8509    2.0951 H   0  0  0  0  0  0  0  0  0  0  0  0
   -4.0368    1.8223    3.2511 H   0  0  0  0  0  0  0  0  0  0  0  0
   -4.3422    1.8997    0.2060 H   0  0  0  0  0  0  0  0  0  0  0  0
   -4.6844    3.1984    1.3528 H   0  0  0  0  0  0  0  0  0  0  0  0
   -5.6921    1.7416    1.3492 H   0  0  0  0  0  0  0  0  0  0  0  0
    1.9944    2.8482   -0.7234 H   0  0  0  0  0  0  0  0  0  0  0  0
    1.6532    4.2246    1.3127 H   0  0  0  0  0  0  0  0  0  0  0  0
    2.3736    2.9597    4.5285 H   0  0  0  0  0  0  0  0  0  0  0  0
    3.0156    0.9549    3.7462 H   0  0  0  0  0  0  0  0  0  0  0  0
    4.3582   -0.9875    1.0852 H   0  0  0  0  0  0  0  0  0  0  0  0
    3.8549   -1.0249    2.7738 H   0  0  0  0  0  0  0  0  0  0  0  0
    2.7146   -1.5385    1.5196 H   0  0  0  0  0  0  0  0  0  0  0  0
    4.1356   -1.0007   -3.3000 H   0  0  0  0  0  0  0  0  0  0  0  0
    1.1605   -4.3157   -4.9176 H   0  0  0  0  0  0  0  0  0  0  0  0
   -0.3300   -3.3523   -4.6935 H   0  0  0  0  0  0  0  0  0  0  0  0
    0.8119   -2.9252   -5.9993 H   0  0  0  0  0  0  0  0  0  0  0  0
  1  2  1  0
  2  3  1  0
  3  4  1  0
  4  5  1  0
  5  6  1  0
  6  7  1  0
  7  8  1  0
  2  9  2  0
  9 10  1  0
 10 11  2  3
 11 12  1  0
 12 13  2  0
 13 14  1  0
 14 15  2  0
 15 16  1  0
 15 17  1  0
 17 18  2  0
 18 19  1  0
 10 20  1  0
 20 21  1  0
 21 22  2  0
 22 23  1  0
 23 24  1  0
 23 25  1  0
 25  1  1  0
 18 12  1  0
 25 20  2  0
  1 26  1  0
  3 27  1  0
  4 28  1  0
  4 29  1  0
  5 30  1  0
  5 31  1  0
  6 32  1  0
  6 33  1  0
  7 34  1  0
  7 35  1  0
  8 36  1  0
  8 37  1  0
  8 38  1  0
 13 39  1  0
 14 40  1  0
 16 41  1  0
 17 42  1  0
 19 43  1  0
 19 44  1  0
 19 45  1  0
 21 46  1  0
 24 47  1  0
 24 48  1  0
 24 49  1  0
M  END
>  <ScrubInfo>  (6) 
{"isomerGroup": 0, "isomerId": 5, "confId": 0, "nr_conformers:": 1, "nr_isomers:": 9}

$$$$
_i6
     RDKit          3D

 49 51  0  0  0  0  0  0  0  0999 V2000
   -1.2803   -4.0358    1.4453 N   0  0  0  0  0  0  0  0  0  0  0  0
   -2.1149   -3.0648    0.9022 C   0  0  0  0  0  0  0  0  0  0  0  0
   -1.4602   -1.9491    0.5508 C   0  0  0  0  0  0  0  0  0  0  0  0
   -1.7564   -0.6532   -0.0702 C   0  0  0  0  0  0  0  0  0  0  0  0
   -3.0623   -0.3627   -0.4244 N   0  0  0  0  0  0  0  0  0  0  0  0
   -3.6291    0.8320   -0.9237 C   0  0  0  0  0  0  0  0  0  0  0  0
   -2.9209    2.0433   -0.9784 C   0  0  0  0  0  0  0  0  0  0  0  0
   -3.4917    3.2101   -1.4981 C   0  0  0  0  0  0  0  0  0  0  0  0
   -4.7890    3.1773   -1.9802 C   0  0  0  0  0  0  0  0  0  0  0  0
   -5.3872    4.2881   -2.4947 O   0  0  0  0  0  0  0  0  0  0  0  0
   -5.5187    1.9981   -1.9542 C   0  0  0  0  0  0  0  0  0  0  0  0
   -4.9511    0.8178   -1.4388 C   0  0  0  0  0  0  0  0  0  0  0  0
   -5.7898   -0.4332   -1.4572 C   0  0  0  0  0  0  0  0  0  0  0  0
   -0.7467    0.1440   -0.2649 N   0  0  0  0  0  0  0  0  0  0  0  0
    0.5231   -0.2322    0.1062 C   0  0  0  0  0  0  0  0  0  0  0  0
    1.4249    0.6387   -0.1833 N   0  0  0  0  0  0  0  0  0  0  0  0
    2.8069    0.3296    0.1769 C   0  0  0  0  0  0  0  0  0  0  0  0
    3.6849    1.4972   -0.2759 C   0  0  0  0  0  0  0  0  0  0  0  0
    5.1821    1.2492   -0.0760 C   0  0  0  0  0  0  0  0  0  0  0  0
    5.5875    1.1334    1.3938 C   0  0  0  0  0  0  0  0  0  0  0  0
    7.0955    1.0015    1.5440 C   0  0  0  0  0  0  0  0  0  0  0  0
    0.8846   -1.4010    0.7368 N   0  0  0  0  0  0  0  0  0  0  0  0
   -0.0703   -2.2311    0.9694 C   0  0  0  0  0  0  0  0  0  0  0  0
   -0.0174   -3.4749    1.5992 N   0  0  0  0  0  0  0  0  0  0  0  0
    1.1543   -4.3220    1.4800 C   0  0  0  0  0  0  0  0  0  0  0  0
   -1.6681   -4.4977    2.2716 H   0  0  0  0  0  0  0  0  0  0  0  0
   -3.1692   -3.2807    0.8125 H   0  0  0  0  0  0  0  0  0  0  0  0
   -3.7429   -1.0892   -0.2608 H   0  0  0  0  0  0  0  0  0  0  0  0
   -1.9035    2.1175   -0.6045 H   0  0  0  0  0  0  0  0  0  0  0  0
   -2.9020    4.1211   -1.5131 H   0  0  0  0  0  0  0  0  0  0  0  0
   -4.7475    5.0191   -2.4685 H   0  0  0  0  0  0  0  0  0  0  0  0
   -6.5329    2.0019   -2.3461 H   0  0  0  0  0  0  0  0  0  0  0  0
   -5.9972   -0.7644   -0.4346 H   0  0  0  0  0  0  0  0  0  0  0  0
   -5.2749   -1.2291   -2.0049 H   0  0  0  0  0  0  0  0  0  0  0  0
   -6.7526   -0.2687   -1.9529 H   0  0  0  0  0  0  0  0  0  0  0  0
    2.8958    0.2001    1.2613 H   0  0  0  0  0  0  0  0  0  0  0  0
    3.1409   -0.5877   -0.3230 H   0  0  0  0  0  0  0  0  0  0  0  0
    3.5060    1.6865   -1.3423 H   0  0  0  0  0  0  0  0  0  0  0  0
    3.3856    2.4114    0.2520 H   0  0  0  0  0  0  0  0  0  0  0  0
    5.4795    0.3415   -0.6151 H   0  0  0  0  0  0  0  0  0  0  0  0
    5.7304    2.0817   -0.5344 H   0  0  0  0  0  0  0  0  0  0  0  0
    5.1129    0.2593    1.8523 H   0  0  0  0  0  0  0  0  0  0  0  0
    5.2475    2.0174    1.9454 H   0  0  0  0  0  0  0  0  0  0  0  0
    7.3649    0.9162    2.6014 H   0  0  0  0  0  0  0  0  0  0  0  0
    7.4647    0.1105    1.0261 H   0  0  0  0  0  0  0  0  0  0  0  0
    7.6092    1.8763    1.1325 H   0  0  0  0  0  0  0  0  0  0  0  0
    1.0495   -5.2080    2.1146 H   0  0  0  0  0  0  0  0  0  0  0  0
    2.0525   -3.7850    1.8015 H   0  0  0  0  0  0  0  0  0  0  0  0
    1.2934   -4.6499    0.4445 H   0  0  0  0  0  0  0  0  0  0  0  0
  1  2  1  0
  2  3  2  0
  3  4  1  0
  4  5  1  0
  5  6  1  0
  6  7  2  0
  7  8  1  0
  8  9  2  0
  9 10  1  0
  9 11  1  0
 11 12  2  0
 12 13  1  0
  4 14  2  0
 14 15  1  0
 15 16  2  3
 16 17  1  0
 17 18  1  0
 18 19  1  0
 19 20  1  0
 20 21  1  0
 15 22  1  0
 22 23  2  0
 23 24  1  0
 24 25  1  0
 24  1  1  0
 23  3  1  0
 12  6  1  0
  1 26  1  0
  2 27  1  0
  5 28  1  0
  7 29  1  0
  8 30  1  0
 10 31  1  0
 11 32  1  0
 13 33  1  0
 13 34  1  0
 13 35  1  0
 17 36  1  0
 17 37  1  0
 18 38  1  0
 18 39  1  0
 19 40  1  0
 19 41  1  0
 20 42  1  0
 20 43  1  0
 21 44  1  0
 21 45  1  0
 21 46  1  0
 25 47  1  0
 25 48  1  0
 25 49  1  0
M  END
>  <ScrubInfo>  (7) 
{"isomerGroup": 0, "isomerId": 6, "confId": 0, "nr_conformers:": 1, "nr_isomers:": 9}

$$$$
_i7
     RDKit          3D

 49 51  0  0  0  0  0  0  0  0999 V2000
   -1.9213   -1.4131    2.3405 N   0  0  0  0  0  0  0  0  0  0  0  0
   -2.4886   -0.6709    1.3111 C   0  0  0  0  0  0  0  0  0  0  0  0
   -1.5862   -0.1296    0.4805 C   0  0  0  0  0  0  0  0  0  0  0  0
   -1.5212    0.6796   -0.7528 C   0  0  0  0  0  0  0  0  0  0  0  0
   -2.4884    1.2064   -1.4446 N   0  0  0  0  0  0  0  0  0  0  0  0
   -3.8215    1.0540   -1.0453 C   0  0  0  0  0  0  0  0  0  0  0  0
   -4.3894    2.0161   -0.1989 C   0  0  0  0  0  0  0  0  0  0  0  0
   -5.7177    1.9095    0.2155 C   0  0  0  0  0  0  0  0  0  0  0  0
   -6.4815    0.8384   -0.2304 C   0  0  0  0  0  0  0  0  0  0  0  0
   -7.7812    0.6862    0.1515 O   0  0  0  0  0  0  0  0  0  0  0  0
   -5.9436   -0.1148   -1.0894 C   0  0  0  0  0  0  0  0  0  0  0  0
   -4.6128   -0.0071   -1.5212 C   0  0  0  0  0  0  0  0  0  0  0  0
   -4.0460   -1.0347   -2.4589 C   0  0  0  0  0  0  0  0  0  0  0  0
   -0.2348    0.8637   -1.1808 N   0  0  0  0  0  0  0  0  0  0  0  0
    0.9106    0.4060   -0.5946 C   0  0  0  0  0  0  0  0  0  0  0  0
    2.0405    0.6652   -1.1679 N   0  0  0  0  0  0  0  0  0  0  0  0
    3.2511    0.1639   -0.5131 C   0  0  0  0  0  0  0  0  0  0  0  0
    4.4525    0.5745   -1.3656 C   0  0  0  0  0  0  0  0  0  0  0  0
    5.7810    0.0028   -0.8643 C   0  0  0  0  0  0  0  0  0  0  0  0
    6.1966    0.5429    0.5046 C   0  0  0  0  0  0  0  0  0  0  0  0
    7.5725    0.0341    0.9067 C   0  0  0  0  0  0  0  0  0  0  0  0
    0.8809   -0.3115    0.5827 N   0  0  0  0  0  0  0  0  0  0  0  0
   -0.2819   -0.5554    1.1024 C   0  0  0  0  0  0  0  0  0  0  0  0
   -0.5455   -1.2446    2.2889 N   0  0  0  0  0  0  0  0  0  0  0  0
    0.3148   -2.3258    2.7307 C   0  0  0  0  0  0  0  0  0  0  0  0
   -2.3641   -1.2543    3.2484 H   0  0  0  0  0  0  0  0  0  0  0  0
   -3.5655   -0.6006    1.2672 H   0  0  0  0  0  0  0  0  0  0  0  0
   -3.7850    2.8556    0.1352 H   0  0  0  0  0  0  0  0  0  0  0  0
   -6.1313    2.6654    0.8747 H   0  0  0  0  0  0  0  0  0  0  0  0
   -8.0419    1.4555    0.6840 H   0  0  0  0  0  0  0  0  0  0  0  0
   -6.5707   -0.9352   -1.4298 H   0  0  0  0  0  0  0  0  0  0  0  0
   -4.8329   -1.6744   -2.8725 H   0  0  0  0  0  0  0  0  0  0  0  0
   -3.3320   -1.6749   -1.9318 H   0  0  0  0  0  0  0  0  0  0  0  0
   -3.5456   -0.5510   -3.3041 H   0  0  0  0  0  0  0  0  0  0  0  0
   -0.1057    1.3908   -2.0312 H   0  0  0  0  0  0  0  0  0  0  0  0
    3.3444    0.5958    0.4896 H   0  0  0  0  0  0  0  0  0  0  0  0
    3.2215   -0.9295   -0.4332 H   0  0  0  0  0  0  0  0  0  0  0  0
    4.2949    0.2289   -2.3955 H   0  0  0  0  0  0  0  0  0  0  0  0
    4.5137    1.6689   -1.4156 H   0  0  0  0  0  0  0  0  0  0  0  0
    5.7197   -1.0917   -0.8277 H   0  0  0  0  0  0  0  0  0  0  0  0
    6.5581    0.2504   -1.5982 H   0  0  0  0  0  0  0  0  0  0  0  0
    5.4742    0.2389    1.2695 H   0  0  0  0  0  0  0  0  0  0  0  0
    6.2105    1.6387    0.4847 H   0  0  0  0  0  0  0  0  0  0  0  0
    7.8499    0.4282    1.8894 H   0  0  0  0  0  0  0  0  0  0  0  0
    8.3342    0.3505    0.1869 H   0  0  0  0  0  0  0  0  0  0  0  0
    7.5852   -1.0591    0.9629 H   0  0  0  0  0  0  0  0  0  0  0  0
    0.0024   -2.6819    3.7178 H   0  0  0  0  0  0  0  0  0  0  0  0
    1.3520   -1.9851    2.8122 H   0  0  0  0  0  0  0  0  0  0  0  0
    0.2752   -3.1657    2.0293 H   0  0  0  0  0  0  0  0  0  0  0  0
  1  2  1  0
  2  3  2  0
  3  4  1  0
  4  5  2  3
  5  6  1  0
  6  7  2  0
  7  8  1  0
  8  9  2  0
  9 10  1  0
  9 11  1  0
 11 12  2  0
 12 13  1  0
  4 14  1  0
 14 15  1  0
 15 16  2  3
 16 17  1  0
 17 18  1  0
 18 19  1  0
 19 20  1  0
 20 21  1  0
 15 22  1  0
 22 23  2  0
 23 24  1  0
 24 25  1  0
 24  1  1  0
 23  3  1  0
 12  6  1  0
  1 26  1  0
  2 27  1  0
  7 28  1  0
  8 29  1  0
 10 30  1  0
 11 31  1  0
 13 32  1  0
 13 33  1  0
 13 34  1  0
 14 35  1  0
 17 36  1  0
 17 37  1  0
 18 38  1  0
 18 39  1  0
 19 40  1  0
 19 41  1  0
 20 42  1  0
 20 43  1  0
 21 44  1  0
 21 45  1  0
 21 46  1  0
 25 47  1  0
 25 48  1  0
 25 49  1  0
M  END
>  <ScrubInfo>  (8) 
{"isomerGroup": 0, "isomerId": 7, "confId": 0, "nr_conformers:": 1, "nr_isomers:": 9}

$$$$
_i8
     RDKit          3D

 49 51  0  0  0  0  0  0  0  0999 V2000
   -1.1293    2.2390   -0.1903 N   0  0  0  0  0  0  0  0  0  0  0  0
   -0.9170    0.8729   -0.0746 C   0  0  0  0  0  0  0  0  0  0  0  0
   -1.7400   -0.0827   -0.3448 N   0  0  0  0  0  0  0  0  0  0  0  0
   -3.0668    0.2533   -0.8459 C   0  0  0  0  0  0  0  0  0  0  0  0
   -3.8406   -1.0326   -1.1433 C   0  0  0  0  0  0  0  0  0  0  0  0
   -3.4846   -1.6958   -2.4801 C   0  0  0  0  0  0  0  0  0  0  0  0
   -2.0608   -2.2385   -2.6172 C   0  0  0  0  0  0  0  0  0  0  0  0
   -1.7215   -3.3221   -1.6056 C   0  0  0  0  0  0  0  0  0  0  0  0
    0.3408    0.5420    0.3882 N   0  0  0  0  0  0  0  0  0  0  0  0
    1.4124    1.3342    0.7485 C   0  0  0  0  0  0  0  0  0  0  0  0
    2.5921    1.0289    1.1783 N   0  0  0  0  0  0  0  0  0  0  0  0
    2.9013   -0.3315    1.3239 C   0  0  0  0  0  0  0  0  0  0  0  0
    3.4828   -1.0132    0.2467 C   0  0  0  0  0  0  0  0  0  0  0  0
    3.7884   -2.3714    0.3413 C   0  0  0  0  0  0  0  0  0  0  0  0
    3.5155   -3.0456    1.5246 C   0  0  0  0  0  0  0  0  0  0  0  0
    3.7894   -4.3737    1.6645 O   0  0  0  0  0  0  0  0  0  0  0  0
    2.9547   -2.3828    2.6117 C   0  0  0  0  0  0  0  0  0  0  0  0
    2.6555   -1.0146    2.5284 C   0  0  0  0  0  0  0  0  0  0  0  0
    2.0530   -0.3088    3.7099 C   0  0  0  0  0  0  0  0  0  0  0  0
    1.0889    2.7324    0.5945 C   0  0  0  0  0  0  0  0  0  0  0  0
    1.7725    3.9382    0.8064 C   0  0  0  0  0  0  0  0  0  0  0  0
    1.0206    5.0083    0.5061 N   0  0  0  0  0  0  0  0  0  0  0  0
   -0.1579    4.4746    0.1014 N   0  0  0  0  0  0  0  0  0  0  0  0
   -1.2182    5.3622   -0.3039 C   0  0  0  0  0  0  0  0  0  0  0  0
   -0.1502    3.1130    0.1394 C   0  0  0  0  0  0  0  0  0  0  0  0
   -2.0369    2.5368   -0.5199 H   0  0  0  0  0  0  0  0  0  0  0  0
   -3.0087    0.8706   -1.7500 H   0  0  0  0  0  0  0  0  0  0  0  0
   -3.6138    0.8139   -0.0782 H   0  0  0  0  0  0  0  0  0  0  0  0
   -3.7300   -1.7471   -0.3197 H   0  0  0  0  0  0  0  0  0  0  0  0
   -4.9069   -0.7758   -1.1868 H   0  0  0  0  0  0  0  0  0  0  0  0
   -4.1887   -2.5206   -2.6488 H   0  0  0  0  0  0  0  0  0  0  0  0
   -3.6604   -0.9763   -3.2897 H   0  0  0  0  0  0  0  0  0  0  0  0
   -1.9531   -2.6622   -3.6234 H   0  0  0  0  0  0  0  0  0  0  0  0
   -1.3300   -1.4261   -2.5516 H   0  0  0  0  0  0  0  0  0  0  0  0
   -1.7129   -2.9342   -0.5834 H   0  0  0  0  0  0  0  0  0  0  0  0
   -2.4417   -4.1449   -1.6564 H   0  0  0  0  0  0  0  0  0  0  0  0
   -0.7270   -3.7304   -1.8129 H   0  0  0  0  0  0  0  0  0  0  0  0
    0.4789   -0.4550    0.4728 H   0  0  0  0  0  0  0  0  0  0  0  0
    3.6971   -0.4745   -0.6731 H   0  0  0  0  0  0  0  0  0  0  0  0
    4.2347   -2.8766   -0.5089 H   0  0  0  0  0  0  0  0  0  0  0  0
    4.2040   -4.6942    0.8468 H   0  0  0  0  0  0  0  0  0  0  0  0
    2.7601   -2.9371    3.5267 H   0  0  0  0  0  0  0  0  0  0  0  0
    2.1194   -0.9205    4.6160 H   0  0  0  0  0  0  0  0  0  0  0  0
    2.5841    0.6269    3.9129 H   0  0  0  0  0  0  0  0  0  0  0  0
    0.9964   -0.0937    3.5224 H   0  0  0  0  0  0  0  0  0  0  0  0
    2.7837    4.0831    1.1650 H   0  0  0  0  0  0  0  0  0  0  0  0
   -1.3937    6.0821    0.4997 H   0  0  0  0  0  0  0  0  0  0  0  0
   -2.1310    4.7938   -0.4921 H   0  0  0  0  0  0  0  0  0  0  0  0
   -0.9045    5.8763   -1.2159 H   0  0  0  0  0  0  0  0  0  0  0  0
  1  2  1  0
  2  3  2  3
  3  4  1  0
  4  5  1  0
  5  6  1  0
  6  7  1  0
  7  8  1  0
  2  9  1  0
  9 10  1  0
 10 11  2  3
 11 12  1  0
 12 13  2  0
 13 14  1  0
 14 15  2  0
 15 16  1  0
 15 17  1  0
 17 18  2  0
 18 19  1  0
 10 20  1  0
 20 21  1  0
 21 22  2  0
 22 23  1  0
 23 24  1  0
 23 25  1  0
 25  1  1  0
 18 12  1  0
 25 20  2  0
  1 26  1  0
  4 27  1  0
  4 28  1  0
  5 29  1  0
  5 30  1  0
  6 31  1  0
  6 32  1  0
  7 33  1  0
  7 34  1  0
  8 35  1  0
  8 36  1  0
  8 37  1  0
  9 38  1  0
 13 39  1  0
 14 40  1  0
 16 41  1  0
 17 42  1  0
 19 43  1  0
 19 44  1  0
 19 45  1  0
 21 46  1  0
 24 47  1  0
 24 48  1  0
 24 49  1  0
M  END
>  <ScrubInfo>  (9) 
{"isomerGroup": 0, "isomerId": 8, "confId": 0, "nr_conformers:": 1, "nr_isomers:": 9}

$$$$
