REMARK SMILES Cc1cc(Cl)ccc1Nc1nc(NCCC[NH+](C)C)nc2c1cnn2C
REMARK SMILES IDX 14 1 15 2 16 3 17 4 18 5 19 6 13 8 12 10 11 11 20 12 10 13
REMARK SMILES IDX 21 14 22 15 25 16 23 17 24 18 26 19 9 20 8 22 7 23 2 24 6 25
REMARK SMILES IDX 3 26 4 27 1 28 5 29
REMARK H PARENT 17 7 13 9 9 21
ROOT
ATOM      1  C   UNL     1       2.444  -0.162  -1.353  1.00  0.00     0.122 C 
ENDROOT
BRANCH   1   2
ATOM      2  C   UNL     1       3.481  -0.472  -0.268  1.00  0.00     0.083 C 
BRANCH   2   3
ATOM      3  C   UNL     1       3.859   0.778   0.523  1.00  0.00     0.263 C 
BRANCH   3   4
ATOM      4  N   UNL     1       4.793   0.433   1.673  1.00  0.00    -0.340 N 
ATOM      5  C   UNL     1       4.851   1.557   2.675  1.00  0.00     0.332 C 
ATOM      6  C   UNL     1       6.172   0.028   1.236  1.00  0.00     0.332 C 
ATOM      7  H   UNL     1       4.374  -0.367   2.167  1.00  0.00     0.347 HD
ENDBRANCH   3   4
ENDBRANCH   2   3
ENDBRANCH   1   2
BRANCH   1   8
ATOM      8  N   UNL     1       1.286   0.517  -0.799  1.00  0.00    -0.354 N 
ATOM      9  H   UNL     1       0.796   1.119  -1.465  1.00  0.00     0.163 HD
BRANCH   8  10
ATOM     10  C   UNL     1       0.261  -0.316  -0.347  1.00  0.00     0.226 A 
ATOM     11  N   UNL     1      -0.969   0.164  -0.581  1.00  0.00    -0.195 NA
ATOM     12  N   UNL     1       0.554  -1.468   0.270  1.00  0.00    -0.193 NA
ATOM     13  C   UNL     1      -2.076  -0.528  -0.200  1.00  0.00     0.147 A 
ATOM     14  C   UNL     1      -0.547  -2.150   0.627  1.00  0.00     0.165 A 
ATOM     15  C   UNL     1      -1.859  -1.758   0.433  1.00  0.00     0.082 A 
ATOM     16  N   UNL     1      -0.609  -3.370   1.245  1.00  0.00    -0.250 N 
ATOM     17  C   UNL     1      -2.624  -2.807   0.984  1.00  0.00     0.149 A 
ATOM     18  N   UNL     1      -1.870  -3.790   1.484  1.00  0.00    -0.179 NA
ATOM     19  C   UNL     1       0.496  -4.208   1.637  1.00  0.00     0.176 C 
BRANCH  13  20
ATOM     20  N   UNL     1      -3.369  -0.056  -0.466  1.00  0.00    -0.339 N 
ATOM     21  H   UNL     1      -4.100  -0.709  -0.221  1.00  0.00     0.168 HD
BRANCH  20  22
ATOM     22  C   UNL     1      -3.843   1.185  -0.937  1.00  0.00     0.043 A 
ATOM     23  C   UNL     1      -3.037   2.334  -0.953  1.00  0.00     0.028 A 
ATOM     24  C   UNL     1      -5.151   1.283  -1.474  1.00  0.00    -0.026 A 
ATOM     25  C   UNL     1      -3.506   3.553  -1.454  1.00  0.00     0.022 A 
ATOM     26  C   UNL     1      -5.616   2.515  -1.973  1.00  0.00     0.026 A 
ATOM     27  C   UNL     1      -4.795   3.638  -1.960  1.00  0.00     0.041 A 
ATOM     28  C   UNL     1      -6.078   0.097  -1.531  1.00  0.00     0.046 C 
ATOM     29  Cl  UNL     1      -5.376   5.135  -2.576  1.00  0.00    -0.084 Cl
ENDBRANCH  20  22
ENDBRANCH  13  20
ENDBRANCH   8  10
ENDBRANCH   1   8
TORSDOF 7
