_i0
     RDKit          3D

 51 53  0  0  0  0  0  0  0  0999 V2000
    3.8588    0.7777    0.5230 C   0  0  0  0  0  0  0  0  0  0  0  0
    4.7929    0.4326    1.6725 N   0  0  0  0  0  4  0  0  0  0  0  0
    4.8508    1.5570    2.6746 C   0  0  0  0  0  0  0  0  0  0  0  0
    6.1721    0.0275    1.2356 C   0  0  0  0  0  0  0  0  0  0  0  0
    3.4809   -0.4718   -0.2677 C   0  0  0  0  0  0  0  0  0  0  0  0
    2.4441   -0.1615   -1.3527 C   0  0  0  0  0  0  0  0  0  0  0  0
    1.2858    0.5166   -0.7994 N   0  0  0  0  0  0  0  0  0  0  0  0
    0.2612   -0.3158   -0.3466 C   0  0  0  0  0  0  0  0  0  0  0  0
   -0.9685    0.1641   -0.5811 N   0  0  0  0  0  0  0  0  0  0  0  0
    0.5544   -1.4680    0.2702 N   0  0  0  0  0  0  0  0  0  0  0  0
   -2.0761   -0.5279   -0.2000 C   0  0  0  0  0  0  0  0  0  0  0  0
   -0.5469   -2.1500    0.6271 C   0  0  0  0  0  0  0  0  0  0  0  0
   -3.3693   -0.0559   -0.4657 N   0  0  0  0  0  0  0  0  0  0  0  0
   -1.8588   -1.7578    0.4332 C   0  0  0  0  0  0  0  0  0  0  0  0
   -0.6091   -3.3704    1.2451 N   0  0  0  0  0  0  0  0  0  0  0  0
   -3.8434    1.1851   -0.9374 C   0  0  0  0  0  0  0  0  0  0  0  0
   -2.6242   -2.8069    0.9838 C   0  0  0  0  0  0  0  0  0  0  0  0
   -1.8700   -3.7904    1.4841 N   0  0  0  0  0  0  0  0  0  0  0  0
    0.4961   -4.2081    1.6367 C   0  0  0  0  0  0  0  0  0  0  0  0
   -3.0374    2.3344   -0.9530 C   0  0  0  0  0  0  0  0  0  0  0  0
   -5.1508    1.2828   -1.4739 C   0  0  0  0  0  0  0  0  0  0  0  0
   -3.5065    3.5527   -1.4537 C   0  0  0  0  0  0  0  0  0  0  0  0
   -6.0781    0.0967   -1.5307 C   0  0  0  0  0  0  0  0  0  0  0  0
   -5.6160    2.5148   -1.9728 C   0  0  0  0  0  0  0  0  0  0  0  0
   -4.7952    3.6380   -1.9605 C   0  0  0  0  0  0  0  0  0  0  0  0
   -5.3763    5.1345   -2.5764 Cl  0  0  0  0  0  0  0  0  0  0  0  0
    2.9736    1.2317    0.9797 H   0  0  0  0  0  0  0  0  0  0  0  0
    4.3631    1.5244   -0.1003 H   0  0  0  0  0  0  0  0  0  0  0  0
    4.3739   -0.3670    2.1666 H   0  0  0  0  0  0  0  0  0  0  0  0
    5.4830    1.2378    3.5076 H   0  0  0  0  0  0  0  0  0  0  0  0
    3.8360    1.7460    3.0346 H   0  0  0  0  0  0  0  0  0  0  0  0
    5.2657    2.4405    2.1821 H   0  0  0  0  0  0  0  0  0  0  0  0
    6.6101    0.8454    0.6576 H   0  0  0  0  0  0  0  0  0  0  0  0
    6.0954   -0.8824    0.6374 H   0  0  0  0  0  0  0  0  0  0  0  0
    6.7659   -0.1786    2.1303 H   0  0  0  0  0  0  0  0  0  0  0  0
    4.3639   -0.8965   -0.7576 H   0  0  0  0  0  0  0  0  0  0  0  0
    3.1031   -1.2399    0.4159 H   0  0  0  0  0  0  0  0  0  0  0  0
    2.9058    0.5087   -2.0883 H   0  0  0  0  0  0  0  0  0  0  0  0
    2.1687   -1.0724   -1.8992 H   0  0  0  0  0  0  0  0  0  0  0  0
    0.7964    1.1190   -1.4647 H   0  0  0  0  0  0  0  0  0  0  0  0
   -4.1004   -0.7090   -0.2214 H   0  0  0  0  0  0  0  0  0  0  0  0
   -3.7012   -2.8992    1.0447 H   0  0  0  0  0  0  0  0  0  0  0  0
    0.4073   -5.1630    1.1125 H   0  0  0  0  0  0  0  0  0  0  0  0
    1.4408   -3.7274    1.3726 H   0  0  0  0  0  0  0  0  0  0  0  0
    0.4473   -4.3591    2.7181 H   0  0  0  0  0  0  0  0  0  0  0  0
   -2.0306    2.3106   -0.5482 H   0  0  0  0  0  0  0  0  0  0  0  0
   -2.8604    4.4258   -1.4399 H   0  0  0  0  0  0  0  0  0  0  0  0
   -7.0097    0.3361   -2.0544 H   0  0  0  0  0  0  0  0  0  0  0  0
   -6.3400   -0.2263   -0.5181 H   0  0  0  0  0  0  0  0  0  0  0  0
   -5.6062   -0.7309   -2.0701 H   0  0  0  0  0  0  0  0  0  0  0  0
   -6.6223    2.5957   -2.3786 H   0  0  0  0  0  0  0  0  0  0  0  0
  1  2  1  0
  2  3  1  0
  2  4  1  0
  5  1  1  0
  6  5  1  0
  7  6  1  0
  8  7  1  0
  9  8  2  0
  8 10  1  0
 11  9  1  0
 10 12  2  0
 13 11  1  0
 14 11  2  0
 12 14  1  0
 15 12  1  0
 16 13  1  0
 14 17  1  0
 18 15  1  0
 15 19  1  0
 20 16  2  0
 16 21  1  0
 17 18  2  0
 22 20  1  0
 23 21  1  0
 21 24  2  0
 25 22  2  0
 24 25  1  0
 25 26  1  0
  1 27  1  0
  1 28  1  0
  2 29  1  0
  3 30  1  0
  3 31  1  0
  3 32  1  0
  4 33  1  0
  4 34  1  0
  4 35  1  0
  5 36  1  0
  5 37  1  0
  6 38  1  0
  6 39  1  0
  7 40  1  0
 13 41  1  0
 17 42  1  0
 19 43  1  0
 19 44  1  0
 19 45  1  0
 20 46  1  0
 22 47  1  0
 23 48  1  0
 23 49  1  0
 23 50  1  0
 24 51  1  0
M  CHG  1   2   1
M  END
>  <ScrubInfo>  (1) 
{"isomerGroup": 0, "isomerId": 0, "confId": 0, "nr_conformers:": 1, "nr_isomers:": 9}

$$$$
_i1
     RDKit          3D

 51 53  0  0  0  0  0  0  0  0999 V2000
   -0.6393   -0.2376    1.3394 N   0  0  0  0  0  0  0  0  0  0  0  0
   -1.7810   -0.3648    0.5730 C   0  0  0  0  0  0  0  0  0  0  0  0
   -2.9318   -0.9244    1.0949 N   0  0  0  0  0  0  0  0  0  0  0  0
   -4.2367   -0.3694    1.0516 C   0  0  0  0  0  0  0  0  0  0  0  0
   -4.4604    0.9926    0.7878 C   0  0  0  0  0  0  0  0  0  0  0  0
   -5.7553    1.5164    0.7496 C   0  0  0  0  0  0  0  0  0  0  0  0
   -6.8436    0.6835    0.9785 C   0  0  0  0  0  0  0  0  0  0  0  0
   -8.4374    1.3270    0.9346 Cl  0  0  0  0  0  0  0  0  0  0  0  0
   -6.6481   -0.6690    1.2463 C   0  0  0  0  0  0  0  0  0  0  0  0
   -5.3500   -1.2081    1.2833 C   0  0  0  0  0  0  0  0  0  0  0  0
   -5.1807   -2.6782    1.5615 C   0  0  0  0  0  0  0  0  0  0  0  0
   -1.6585    0.0378   -0.6985 C   0  0  0  0  0  0  0  0  0  0  0  0
   -2.4912    0.1029   -1.9044 C   0  0  0  0  0  0  0  0  0  0  0  0
   -1.8654    0.6355   -2.9244 N   0  0  0  0  0  0  0  0  0  0  0  0
   -0.5609    0.9036   -2.4764 N   0  0  0  0  0  0  0  0  0  0  0  0
    0.2310    1.8472   -3.2291 C   0  0  0  0  0  0  0  0  0  0  0  0
   -0.3653    0.6083   -1.1363 C   0  0  0  0  0  0  0  0  0  0  0  0
    0.6767    0.7726   -0.3901 N   0  0  0  0  0  0  0  0  0  0  0  0
    0.5229    0.3515    0.9138 C   0  0  0  0  0  0  0  0  0  0  0  0
    1.4914    0.4955    1.7579 N   0  0  0  0  0  0  0  0  0  0  0  0
    2.7159    1.1525    1.3113 C   0  0  0  0  0  0  0  0  0  0  0  0
    3.6650    0.1104    0.7225 C   0  0  0  0  0  0  0  0  0  0  0  0
    4.9332    0.7790    0.2139 C   0  0  0  0  0  0  0  0  0  0  0  0
    5.9084   -0.2023   -0.4060 N   0  0  0  0  0  4  0  0  0  0  0  0
    5.3975   -0.8557   -1.6604 C   0  0  0  0  0  0  0  0  0  0  0  0
    6.4680   -1.2022    0.5663 C   0  0  0  0  0  0  0  0  0  0  0  0
   -0.6998   -0.4347    2.3270 H   0  0  0  0  0  0  0  0  0  0  0  0
   -2.7846   -1.3940    1.9848 H   0  0  0  0  0  0  0  0  0  0  0  0
   -3.6313    1.6780    0.6328 H   0  0  0  0  0  0  0  0  0  0  0  0
   -5.9050    2.5742    0.5483 H   0  0  0  0  0  0  0  0  0  0  0  0
   -7.5114   -1.3075    1.4229 H   0  0  0  0  0  0  0  0  0  0  0  0
   -4.6564   -2.8252    2.5111 H   0  0  0  0  0  0  0  0  0  0  0  0
   -4.6165   -3.1564    0.7542 H   0  0  0  0  0  0  0  0  0  0  0  0
   -6.1469   -3.1891    1.6319 H   0  0  0  0  0  0  0  0  0  0  0  0
   -3.5297   -0.2521   -1.9035 H   0  0  0  0  0  0  0  0  0  0  0  0
   -0.0468    2.8731   -2.9675 H   0  0  0  0  0  0  0  0  0  0  0  0
    1.2976    1.7118   -3.0230 H   0  0  0  0  0  0  0  0  0  0  0  0
    0.0792    1.7096   -4.3046 H   0  0  0  0  0  0  0  0  0  0  0  0
    3.1850    1.6196    2.1855 H   0  0  0  0  0  0  0  0  0  0  0  0
    2.5254    1.9702    0.6056 H   0  0  0  0  0  0  0  0  0  0  0  0
    3.1630   -0.4250   -0.0902 H   0  0  0  0  0  0  0  0  0  0  0  0
    3.8981   -0.6330    1.4933 H   0  0  0  0  0  0  0  0  0  0  0  0
    5.4716    1.2831    1.0245 H   0  0  0  0  0  0  0  0  0  0  0  0
    4.7104    1.5239   -0.5584 H   0  0  0  0  0  0  0  0  0  0  0  0
    6.7085    0.3724   -0.7019 H   0  0  0  0  0  0  0  0  0  0  0  0
    6.2396   -1.3647   -2.1373 H   0  0  0  0  0  0  0  0  0  0  0  0
    5.0128   -0.0748   -2.3211 H   0  0  0  0  0  0  0  0  0  0  0  0
    4.6169   -1.5736   -1.3980 H   0  0  0  0  0  0  0  0  0  0  0  0
    5.6851   -1.9144    0.8373 H   0  0  0  0  0  0  0  0  0  0  0  0
    7.2992   -1.7159    0.0755 H   0  0  0  0  0  0  0  0  0  0  0  0
    6.8317   -0.6602    1.4430 H   0  0  0  0  0  0  0  0  0  0  0  0
  1  2  1  0
  2  3  1  0
  3  4  1  0
  4  5  2  0
  5  6  1  0
  6  7  2  0
  7  8  1  0
  7  9  1  0
  9 10  2  0
 10 11  1  0
  2 12  2  0
 12 13  1  0
 13 14  2  0
 14 15  1  0
 15 16  1  0
 15 17  1  0
 17 18  2  0
 18 19  1  0
 19 20  2  3
 20 21  1  0
 21 22  1  0
 22 23  1  0
 23 24  1  0
 24 25  1  0
 24 26  1  0
 19  1  1  0
 10  4  1  0
 17 12  1  0
  1 27  1  0
  3 28  1  0
  5 29  1  0
  6 30  1  0
  9 31  1  0
 11 32  1  0
 11 33  1  0
 11 34  1  0
 13 35  1  0
 16 36  1  0
 16 37  1  0
 16 38  1  0
 21 39  1  0
 21 40  1  0
 22 41  1  0
 22 42  1  0
 23 43  1  0
 23 44  1  0
 24 45  1  0
 25 46  1  0
 25 47  1  0
 25 48  1  0
 26 49  1  0
 26 50  1  0
 26 51  1  0
M  CHG  1  24   1
M  END
>  <ScrubInfo>  (2) 
{"isomerGroup": 0, "isomerId": 1, "confId": 0, "nr_conformers:": 1, "nr_isomers:": 9}

$$$$
_i2
     RDKit          3D

 51 53  0  0  0  0  0  0  0  0999 V2000
   -0.9488   -0.7627   -0.6304 N   0  0  0  0  0  0  0  0  0  0  0  0
   -0.0683   -1.7301   -1.0438 C   0  0  0  0  0  0  0  0  0  0  0  0
    1.0390   -1.8788   -0.2468 N   0  0  0  0  0  0  0  0  0  0  0  0
    2.1417   -0.9229   -0.3618 C   0  0  0  0  0  0  0  0  0  0  0  0
    1.8238    0.3997    0.3390 C   0  0  0  0  0  0  0  0  0  0  0  0
    3.0512    1.2947    0.5011 C   0  0  0  0  0  0  0  0  0  0  0  0
    3.9103    0.8833    1.6830 N   0  0  0  0  0  4  0  0  0  0  0  0
    5.3207    1.4053    1.5421 C   0  0  0  0  0  0  0  0  0  0  0  0
    3.3279    1.3026    3.0130 C   0  0  0  0  0  0  0  0  0  0  0  0
   -0.2304   -2.4879   -2.0959 N   0  0  0  0  0  0  0  0  0  0  0  0
   -1.3916   -2.1825   -2.7468 C   0  0  0  0  0  0  0  0  0  0  0  0
   -2.3334   -1.2270   -2.4079 C   0  0  0  0  0  0  0  0  0  0  0  0
   -3.3245   -1.3138   -3.3936 C   0  0  0  0  0  0  0  0  0  0  0  0
   -3.0438   -2.2513   -4.3073 N   0  0  0  0  0  0  0  0  0  0  0  0
   -1.8682   -2.7757   -3.8843 N   0  0  0  0  0  0  0  0  0  0  0  0
   -1.2661   -3.8489   -4.6348 C   0  0  0  0  0  0  0  0  0  0  0  0
   -2.1408   -0.4194   -1.2321 C   0  0  0  0  0  0  0  0  0  0  0  0
   -3.0320    0.4548   -0.9005 N   0  0  0  0  0  0  0  0  0  0  0  0
   -2.7778    1.2341    0.2371 C   0  0  0  0  0  0  0  0  0  0  0  0
   -2.1301    2.4658    0.0759 C   0  0  0  0  0  0  0  0  0  0  0  0
   -1.7934    3.2440    1.1835 C   0  0  0  0  0  0  0  0  0  0  0  0
   -2.1105    2.7912    2.4606 C   0  0  0  0  0  0  0  0  0  0  0  0
   -1.6404    3.7170    3.8314 Cl  0  0  0  0  0  0  0  0  0  0  0  0
   -2.7874    1.5842    2.6365 C   0  0  0  0  0  0  0  0  0  0  0  0
   -3.1441    0.8030    1.5251 C   0  0  0  0  0  0  0  0  0  0  0  0
   -3.8835   -0.4909    1.7270 C   0  0  0  0  0  0  0  0  0  0  0  0
   -0.8234   -0.4218    0.3067 H   0  0  0  0  0  0  0  0  0  0  0  0
    1.4111   -2.7990   -0.5010 H   0  0  0  0  0  0  0  0  0  0  0  0
    3.0216   -1.3827    0.1013 H   0  0  0  0  0  0  0  0  0  0  0  0
    2.3883   -0.7514   -1.4166 H   0  0  0  0  0  0  0  0  0  0  0  0
    1.3345    0.2162    1.3010 H   0  0  0  0  0  0  0  0  0  0  0  0
    1.0984    0.9484   -0.2741 H   0  0  0  0  0  0  0  0  0  0  0  0
    2.7591    2.3373    0.6694 H   0  0  0  0  0  0  0  0  0  0  0  0
    3.6766    1.2497   -0.3975 H   0  0  0  0  0  0  0  0  0  0  0  0
    3.9883   -0.1415    1.7058 H   0  0  0  0  0  0  0  0  0  0  0  0
    5.7398    0.9988    0.6179 H   0  0  0  0  0  0  0  0  0  0  0  0
    5.9014    1.0512    2.3979 H   0  0  0  0  0  0  0  0  0  0  0  0
    5.2858    2.4976    1.5130 H   0  0  0  0  0  0  0  0  0  0  0  0
    2.3528    0.8272    3.1325 H   0  0  0  0  0  0  0  0  0  0  0  0
    4.0018    0.9550    3.8007 H   0  0  0  0  0  0  0  0  0  0  0  0
    3.2397    2.3922    3.0274 H   0  0  0  0  0  0  0  0  0  0  0  0
   -4.2360   -0.7374   -3.4886 H   0  0  0  0  0  0  0  0  0  0  0  0
   -0.3396   -4.1690   -4.1533 H   0  0  0  0  0  0  0  0  0  0  0  0
   -1.0534   -3.4854   -5.6433 H   0  0  0  0  0  0  0  0  0  0  0  0
   -1.9719   -4.6826   -4.6696 H   0  0  0  0  0  0  0  0  0  0  0  0
   -1.8951    2.8179   -0.9263 H   0  0  0  0  0  0  0  0  0  0  0  0
   -1.2986    4.2009    1.0411 H   0  0  0  0  0  0  0  0  0  0  0  0
   -3.0519    1.2560    3.6399 H   0  0  0  0  0  0  0  0  0  0  0  0
   -4.3049   -0.5541    2.7359 H   0  0  0  0  0  0  0  0  0  0  0  0
   -3.2053   -1.3383    1.5867 H   0  0  0  0  0  0  0  0  0  0  0  0
   -4.7186   -0.5733    1.0238 H   0  0  0  0  0  0  0  0  0  0  0  0
  1  2  1  0
  2  3  1  0
  3  4  1  0
  4  5  1  0
  5  6  1  0
  6  7  1  0
  7  8  1  0
  7  9  1  0
  2 10  2  0
 10 11  1  0
 11 12  2  0
 12 13  1  0
 13 14  2  0
 14 15  1  0
 15 16  1  0
 12 17  1  0
 17 18  2  3
 18 19  1  0
 19 20  2  0
 20 21  1  0
 21 22  2  0
 22 23  1  0
 22 24  1  0
 24 25  2  0
 25 26  1  0
 17  1  1  0
 25 19  1  0
 15 11  1  0
  1 27  1  0
  3 28  1  0
  4 29  1  0
  4 30  1  0
  5 31  1  0
  5 32  1  0
  6 33  1  0
  6 34  1  0
  7 35  1  0
  8 36  1  0
  8 37  1  0
  8 38  1  0
  9 39  1  0
  9 40  1  0
  9 41  1  0
 13 42  1  0
 16 43  1  0
 16 44  1  0
 16 45  1  0
 20 46  1  0
 21 47  1  0
 24 48  1  0
 26 49  1  0
 26 50  1  0
 26 51  1  0
M  CHG  1   7   1
M  END
>  <ScrubInfo>  (3) 
{"isomerGroup": 0, "isomerId": 2, "confId": 0, "nr_conformers:": 1, "nr_isomers:": 9}

$$$$
_i3
     RDKit          3D

 51 53  0  0  0  0  0  0  0  0999 V2000
    0.0223   -2.7528    0.3191 N   0  0  0  0  0  0  0  0  0  0  0  0
    0.2440   -1.3967    0.4318 C   0  0  0  0  0  0  0  0  0  0  0  0
    1.1577   -0.8021    1.1077 N   0  0  0  0  0  0  0  0  0  0  0  0
    2.1544   -1.5397    1.8611 C   0  0  0  0  0  0  0  0  0  0  0  0
    2.9506   -0.5170    2.6844 C   0  0  0  0  0  0  0  0  0  0  0  0
    3.4908    0.6583    1.8566 C   0  0  0  0  0  0  0  0  0  0  0  0
    2.3713    1.4846    1.2638 N   0  0  0  0  0  4  0  0  0  0  0  0
    1.7085    2.4144    2.2279 C   0  0  0  0  0  0  0  0  0  0  0  0
    2.7453    2.1645   -0.0139 C   0  0  0  0  0  0  0  0  0  0  0  0
   -0.5313   -0.4690   -0.2347 N   0  0  0  0  0  0  0  0  0  0  0  0
   -1.5209   -0.8608   -0.9876 C   0  0  0  0  0  0  0  0  0  0  0  0
   -2.3592   -0.0560   -1.7279 N   0  0  0  0  0  0  0  0  0  0  0  0
   -2.1255    1.3308   -1.8763 C   0  0  0  0  0  0  0  0  0  0  0  0
   -1.7161    1.8108   -3.1327 C   0  0  0  0  0  0  0  0  0  0  0  0
   -1.3683    3.1515   -3.3116 C   0  0  0  0  0  0  0  0  0  0  0  0
   -1.4196    4.0247   -2.2316 C   0  0  0  0  0  0  0  0  0  0  0  0
   -0.9543    5.6673   -2.4343 Cl  0  0  0  0  0  0  0  0  0  0  0  0
   -1.8316    3.5729   -0.9798 C   0  0  0  0  0  0  0  0  0  0  0  0
   -2.1967    2.2281   -0.7896 C   0  0  0  0  0  0  0  0  0  0  0  0
   -2.6504    1.8016    0.5810 C   0  0  0  0  0  0  0  0  0  0  0  0
   -1.8104   -2.2728   -1.1123 C   0  0  0  0  0  0  0  0  0  0  0  0
   -2.7597   -3.0828   -1.7539 C   0  0  0  0  0  0  0  0  0  0  0  0
   -2.5512   -4.3865   -1.5240 N   0  0  0  0  0  0  0  0  0  0  0  0
   -1.4716   -4.4118   -0.7076 N   0  0  0  0  0  0  0  0  0  0  0  0
   -0.9782   -5.6837   -0.2422 C   0  0  0  0  0  0  0  0  0  0  0  0
   -1.0084   -3.1604   -0.4443 C   0  0  0  0  0  0  0  0  0  0  0  0
    0.6102   -3.3838    0.8447 H   0  0  0  0  0  0  0  0  0  0  0  0
    1.6950   -2.2680    2.5385 H   0  0  0  0  0  0  0  0  0  0  0  0
    2.8301   -2.0683    1.1795 H   0  0  0  0  0  0  0  0  0  0  0  0
    3.7941   -1.0332    3.1580 H   0  0  0  0  0  0  0  0  0  0  0  0
    2.3216   -0.1404    3.4991 H   0  0  0  0  0  0  0  0  0  0  0  0
    4.0962    0.2759    1.0271 H   0  0  0  0  0  0  0  0  0  0  0  0
    4.1089    1.3287    2.4630 H   0  0  0  0  0  0  0  0  0  0  0  0
    1.6402    0.7832    0.9993 H   0  0  0  0  0  0  0  0  0  0  0  0
    0.8614    2.8857    1.7216 H   0  0  0  0  0  0  0  0  0  0  0  0
    2.4378    3.1646    2.5446 H   0  0  0  0  0  0  0  0  0  0  0  0
    1.3462    1.8383    3.0817 H   0  0  0  0  0  0  0  0  0  0  0  0
    1.8553    2.6568   -0.4155 H   0  0  0  0  0  0  0  0  0  0  0  0
    3.5336    2.8915    0.1983 H   0  0  0  0  0  0  0  0  0  0  0  0
    3.0927    1.4040   -0.7183 H   0  0  0  0  0  0  0  0  0  0  0  0
   -2.7380   -0.4763   -2.5691 H   0  0  0  0  0  0  0  0  0  0  0  0
   -1.6441    1.1374   -3.9841 H   0  0  0  0  0  0  0  0  0  0  0  0
   -1.0519    3.5022   -4.2908 H   0  0  0  0  0  0  0  0  0  0  0  0
   -1.8839    4.2729   -0.1485 H   0  0  0  0  0  0  0  0  0  0  0  0
   -3.1951    2.6139    1.0752 H   0  0  0  0  0  0  0  0  0  0  0  0
   -1.7882    1.5372    1.2003 H   0  0  0  0  0  0  0  0  0  0  0  0
   -3.3370    0.9508    0.5343 H   0  0  0  0  0  0  0  0  0  0  0  0
   -3.5974   -2.7988   -2.3779 H   0  0  0  0  0  0  0  0  0  0  0  0
   -1.7623   -6.1600    0.3517 H   0  0  0  0  0  0  0  0  0  0  0  0
   -0.0868   -5.5347    0.3705 H   0  0  0  0  0  0  0  0  0  0  0  0
   -0.7304   -6.2970   -1.1123 H   0  0  0  0  0  0  0  0  0  0  0  0
  1  2  1  0
  2  3  2  3
  3  4  1  0
  4  5  1  0
  5  6  1  0
  6  7  1  0
  7  8  1  0
  7  9  1  0
  2 10  1  0
 10 11  2  0
 11 12  1  0
 12 13  1  0
 13 14  2  0
 14 15  1  0
 15 16  2  0
 16 17  1  0
 16 18  1  0
 18 19  2  0
 19 20  1  0
 11 21  1  0
 21 22  1  0
 22 23  2  0
 23 24  1  0
 24 25  1  0
 24 26  1  0
 26  1  1  0
 19 13  1  0
 26 21  2  0
  1 27  1  0
  4 28  1  0
  4 29  1  0
  5 30  1  0
  5 31  1  0
  6 32  1  0
  6 33  1  0
  7 34  1  0
  8 35  1  0
  8 36  1  0
  8 37  1  0
  9 38  1  0
  9 39  1  0
  9 40  1  0
 12 41  1  0
 14 42  1  0
 15 43  1  0
 18 44  1  0
 20 45  1  0
 20 46  1  0
 20 47  1  0
 22 48  1  0
 25 49  1  0
 25 50  1  0
 25 51  1  0
M  CHG  1   7   1
M  END
>  <ScrubInfo>  (4) 
{"isomerGroup": 0, "isomerId": 3, "confId": 0, "nr_conformers:": 1, "nr_isomers:": 9}

$$$$
_i4
     RDKit          3D

 51 53  0  0  0  0  0  0  0  0999 V2000
   -0.3684   -2.1401   -0.0898 N   0  0  0  0  0  0  0  0  0  0  0  0
    0.1448   -1.1821    0.7442 C   0  0  0  0  0  0  0  0  0  0  0  0
    1.3164   -1.5246    1.3599 N   0  0  0  0  0  0  0  0  0  0  0  0
    2.5454   -1.6065    0.5765 C   0  0  0  0  0  0  0  0  0  0  0  0
    2.8744   -0.2566   -0.0707 C   0  0  0  0  0  0  0  0  0  0  0  0
    4.2495   -0.2210   -0.7299 C   0  0  0  0  0  0  0  0  0  0  0  0
    5.3746   -0.0508    0.2753 N   0  0  0  0  0  4  0  0  0  0  0  0
    5.4510    1.3448    0.8506 C   0  0  0  0  0  0  0  0  0  0  0  0
    6.7036   -0.4404   -0.3271 C   0  0  0  0  0  0  0  0  0  0  0  0
   -0.3622   -0.0070    0.9712 N   0  0  0  0  0  0  0  0  0  0  0  0
   -1.5414    0.3662    0.3333 C   0  0  0  0  0  0  0  0  0  0  0  0
   -1.9283    1.5829    0.5445 N   0  0  0  0  0  0  0  0  0  0  0  0
   -3.0891    2.1111   -0.0251 C   0  0  0  0  0  0  0  0  0  0  0  0
   -3.0124    2.7345   -1.2777 C   0  0  0  0  0  0  0  0  0  0  0  0
   -4.1470    3.2975   -1.8642 C   0  0  0  0  0  0  0  0  0  0  0  0
   -5.3632    3.2526   -1.1893 C   0  0  0  0  0  0  0  0  0  0  0  0
   -6.7647    3.9409   -1.9104 Cl  0  0  0  0  0  0  0  0  0  0  0  0
   -5.4515    2.6590    0.0696 C   0  0  0  0  0  0  0  0  0  0  0  0
   -4.3130    2.0966    0.6699 C   0  0  0  0  0  0  0  0  0  0  0  0
   -4.4187    1.4734    2.0336 C   0  0  0  0  0  0  0  0  0  0  0  0
   -2.1776   -0.6447   -0.4947 C   0  0  0  0  0  0  0  0  0  0  0  0
   -3.3608   -0.7825   -1.2419 C   0  0  0  0  0  0  0  0  0  0  0  0
   -3.4676   -1.9858   -1.8261 N   0  0  0  0  0  0  0  0  0  0  0  0
   -2.3515   -2.6379   -1.4367 N   0  0  0  0  0  0  0  0  0  0  0  0
   -2.1500   -3.9967   -1.8720 C   0  0  0  0  0  0  0  0  0  0  0  0
   -1.5538   -1.8579   -0.6610 C   0  0  0  0  0  0  0  0  0  0  0  0
   -0.0226   -3.0837    0.0336 H   0  0  0  0  0  0  0  0  0  0  0  0
    1.4368   -0.8594    2.1253 H   0  0  0  0  0  0  0  0  0  0  0  0
    2.4561   -2.3864   -0.1885 H   0  0  0  0  0  0  0  0  0  0  0  0
    3.3513   -1.9115    1.2519 H   0  0  0  0  0  0  0  0  0  0  0  0
    2.7613    0.5536    0.6569 H   0  0  0  0  0  0  0  0  0  0  0  0
    2.1285   -0.0614   -0.8523 H   0  0  0  0  0  0  0  0  0  0  0  0
    4.4328   -1.1535   -1.2754 H   0  0  0  0  0  0  0  0  0  0  0  0
    4.3257    0.6149   -1.4342 H   0  0  0  0  0  0  0  0  0  0  0  0
    5.2236   -0.6893    1.0661 H   0  0  0  0  0  0  0  0  0  0  0  0
    5.5898    2.0537    0.0301 H   0  0  0  0  0  0  0  0  0  0  0  0
    6.2969    1.3787    1.5426 H   0  0  0  0  0  0  0  0  0  0  0  0
    4.5292    1.5480    1.3980 H   0  0  0  0  0  0  0  0  0  0  0  0
    7.4698   -0.3406    0.4463 H   0  0  0  0  0  0  0  0  0  0  0  0
    6.6363   -1.4835   -0.6472 H   0  0  0  0  0  0  0  0  0  0  0  0
    6.9089    0.2200   -1.1738 H   0  0  0  0  0  0  0  0  0  0  0  0
   -2.0595    2.7826   -1.7976 H   0  0  0  0  0  0  0  0  0  0  0  0
   -4.0743    3.7717   -2.8391 H   0  0  0  0  0  0  0  0  0  0  0  0
   -6.4075    2.6423    0.5886 H   0  0  0  0  0  0  0  0  0  0  0  0
   -3.6597    1.8881    2.7050 H   0  0  0  0  0  0  0  0  0  0  0  0
   -5.3959    1.6685    2.4880 H   0  0  0  0  0  0  0  0  0  0  0  0
   -4.2902    0.3887    1.9647 H   0  0  0  0  0  0  0  0  0  0  0  0
   -4.1651   -0.0757   -1.3951 H   0  0  0  0  0  0  0  0  0  0  0  0
   -1.1565   -4.3389   -1.5747 H   0  0  0  0  0  0  0  0  0  0  0  0
   -2.2390   -4.0292   -2.9609 H   0  0  0  0  0  0  0  0  0  0  0  0
   -2.9153   -4.6226   -1.4064 H   0  0  0  0  0  0  0  0  0  0  0  0
  1  2  1  0
  2  3  1  0
  3  4  1  0
  4  5  1  0
  5  6  1  0
  6  7  1  0
  7  8  1  0
  7  9  1  0
  2 10  2  0
 10 11  1  0
 11 12  2  3
 12 13  1  0
 13 14  2  0
 14 15  1  0
 15 16  2  0
 16 17  1  0
 16 18  1  0
 18 19  2  0
 19 20  1  0
 11 21  1  0
 21 22  1  0
 22 23  2  0
 23 24  1  0
 24 25  1  0
 24 26  1  0
 26  1  1  0
 19 13  1  0
 26 21  2  0
  1 27  1  0
  3 28  1  0
  4 29  1  0
  4 30  1  0
  5 31  1  0
  5 32  1  0
  6 33  1  0
  6 34  1  0
  7 35  1  0
  8 36  1  0
  8 37  1  0
  8 38  1  0
  9 39  1  0
  9 40  1  0
  9 41  1  0
 14 42  1  0
 15 43  1  0
 18 44  1  0
 20 45  1  0
 20 46  1  0
 20 47  1  0
 22 48  1  0
 25 49  1  0
 25 50  1  0
 25 51  1  0
M  CHG  1   7   1
M  END
>  <ScrubInfo>  (5) 
{"isomerGroup": 0, "isomerId": 4, "confId": 0, "nr_conformers:": 1, "nr_isomers:": 9}

$$$$
_i5
     RDKit          3D

 51 53  0  0  0  0  0  0  0  0999 V2000
   -1.8779    1.6642    2.0520 N   0  0  0  0  0  0  0  0  0  0  0  0
   -2.5279    0.9824    1.0320 C   0  0  0  0  0  0  0  0  0  0  0  0
   -1.7122    0.6252    0.0292 C   0  0  0  0  0  0  0  0  0  0  0  0
   -1.7809   -0.0505   -1.2596 C   0  0  0  0  0  0  0  0  0  0  0  0
   -2.7650   -0.6246   -1.8641 N   0  0  0  0  0  0  0  0  0  0  0  0
   -4.0375   -0.6631   -1.2858 C   0  0  0  0  0  0  0  0  0  0  0  0
   -4.9411    0.3712   -1.5628 C   0  0  0  0  0  0  0  0  0  0  0  0
   -6.2232    0.3646   -1.0115 C   0  0  0  0  0  0  0  0  0  0  0  0
   -6.6113   -0.6892   -0.1901 C   0  0  0  0  0  0  0  0  0  0  0  0
   -8.1847   -0.6964    0.5042 Cl  0  0  0  0  0  0  0  0  0  0  0  0
   -5.7340   -1.7415    0.0727 C   0  0  0  0  0  0  0  0  0  0  0  0
   -4.4449   -1.7462   -0.4849 C   0  0  0  0  0  0  0  0  0  0  0  0
   -3.5180   -2.8976   -0.2150 C   0  0  0  0  0  0  0  0  0  0  0  0
   -0.5877   -0.0716   -1.9328 N   0  0  0  0  0  0  0  0  0  0  0  0
    0.5142    0.4117   -1.4509 C   0  0  0  0  0  0  0  0  0  0  0  0
    1.6111    0.3141   -2.2599 N   0  0  0  0  0  0  0  0  0  0  0  0
    2.7718    1.1647   -2.1499 C   0  0  0  0  0  0  0  0  0  0  0  0
    3.9411    0.3853   -1.5467 C   0  0  0  0  0  0  0  0  0  0  0  0
    3.6492   -0.0701   -0.1193 C   0  0  0  0  0  0  0  0  0  0  0  0
    4.8063   -0.8883    0.4374 N   0  0  0  0  0  4  0  0  0  0  0  0
    4.3673   -1.6786    1.6441 C   0  0  0  0  0  0  0  0  0  0  0  0
    6.0330   -0.0767    0.7428 C   0  0  0  0  0  0  0  0  0  0  0  0
    0.6674    0.9794   -0.2128 N   0  0  0  0  0  0  0  0  0  0  0  0
   -0.3960    1.0945    0.5090 C   0  0  0  0  0  0  0  0  0  0  0  0
   -0.5156    1.6418    1.7899 N   0  0  0  0  0  0  0  0  0  0  0  0
    0.2655    2.8053    2.1742 C   0  0  0  0  0  0  0  0  0  0  0  0
   -2.1820    1.3968    2.9919 H   0  0  0  0  0  0  0  0  0  0  0  0
   -3.5892    0.8044    1.1300 H   0  0  0  0  0  0  0  0  0  0  0  0
   -4.6415    1.1846   -2.2194 H   0  0  0  0  0  0  0  0  0  0  0  0
   -6.9115    1.1757   -1.2336 H   0  0  0  0  0  0  0  0  0  0  0  0
   -6.0607   -2.5666    0.7018 H   0  0  0  0  0  0  0  0  0  0  0  0
   -3.1198   -3.2982   -1.1529 H   0  0  0  0  0  0  0  0  0  0  0  0
   -4.0361   -3.7172    0.2942 H   0  0  0  0  0  0  0  0  0  0  0  0
   -2.6899   -2.5749    0.4236 H   0  0  0  0  0  0  0  0  0  0  0  0
    1.3317    0.0659   -3.2072 H   0  0  0  0  0  0  0  0  0  0  0  0
    2.5664    2.0696   -1.5662 H   0  0  0  0  0  0  0  0  0  0  0  0
    3.0543    1.5013   -3.1540 H   0  0  0  0  0  0  0  0  0  0  0  0
    4.1651   -0.4866   -2.1740 H   0  0  0  0  0  0  0  0  0  0  0  0
    4.8242    1.0325   -1.5683 H   0  0  0  0  0  0  0  0  0  0  0  0
    3.4833    0.7713    0.5621 H   0  0  0  0  0  0  0  0  0  0  0  0
    2.7807   -0.7347   -0.0995 H   0  0  0  0  0  0  0  0  0  0  0  0
    5.0599   -1.5812   -0.2796 H   0  0  0  0  0  0  0  0  0  0  0  0
    5.2108   -2.2903    1.9749 H   0  0  0  0  0  0  0  0  0  0  0  0
    4.0591   -0.9783    2.4250 H   0  0  0  0  0  0  0  0  0  0  0  0
    3.5387   -2.3260    1.3452 H   0  0  0  0  0  0  0  0  0  0  0  0
    6.7912   -0.7479    1.1553 H   0  0  0  0  0  0  0  0  0  0  0  0
    5.7676    0.7007    1.4642 H   0  0  0  0  0  0  0  0  0  0  0  0
    6.4050    0.3576   -0.1869 H   0  0  0  0  0  0  0  0  0  0  0  0
    0.0927    3.0488    3.2275 H   0  0  0  0  0  0  0  0  0  0  0  0
   -0.0041    3.6750    1.5657 H   0  0  0  0  0  0  0  0  0  0  0  0
    1.3349    2.6074    2.0481 H   0  0  0  0  0  0  0  0  0  0  0  0
  1  2  1  0
  2  3  2  0
  3  4  1  0
  4  5  2  3
  5  6  1  0
  6  7  2  0
  7  8  1  0
  8  9  2  0
  9 10  1  0
  9 11  1  0
 11 12  2  0
 12 13  1  0
  4 14  1  0
 14 15  2  0
 15 16  1  0
 16 17  1  0
 17 18  1  0
 18 19  1  0
 19 20  1  0
 20 21  1  0
 20 22  1  0
 15 23  1  0
 23 24  2  0
 24 25  1  0
 25 26  1  0
 25  1  1  0
 24  3  1  0
 12  6  1  0
  1 27  1  0
  2 28  1  0
  7 29  1  0
  8 30  1  0
 11 31  1  0
 13 32  1  0
 13 33  1  0
 13 34  1  0
 16 35  1  0
 17 36  1  0
 17 37  1  0
 18 38  1  0
 18 39  1  0
 19 40  1  0
 19 41  1  0
 20 42  1  0
 21 43  1  0
 21 44  1  0
 21 45  1  0
 22 46  1  0
 22 47  1  0
 22 48  1  0
 26 49  1  0
 26 50  1  0
 26 51  1  0
M  CHG  1  20   1
M  END
>  <ScrubInfo>  (6) 
{"isomerGroup": 0, "isomerId": 5, "confId": 0, "nr_conformers:": 1, "nr_isomers:": 9}

$$$$
_i6
     RDKit          3D

 51 53  0  0  0  0  0  0  0  0999 V2000
    2.9870    2.1571   -2.2710 N   0  0  0  0  0  0  0  0  0  0  0  0
    3.1191    0.9633   -1.5731 C   0  0  0  0  0  0  0  0  0  0  0  0
    1.9400    0.4306   -1.2255 C   0  0  0  0  0  0  0  0  0  0  0  0
    1.4205   -0.7456   -0.5259 C   0  0  0  0  0  0  0  0  0  0  0  0
    2.2152   -1.7047    0.0662 N   0  0  0  0  0  0  0  0  0  0  0  0
    3.4033   -1.4083    0.7709 C   0  0  0  0  0  0  0  0  0  0  0  0
    4.5560   -2.1306    0.4204 C   0  0  0  0  0  0  0  0  0  0  0  0
    5.7629   -1.9303    1.0915 C   0  0  0  0  0  0  0  0  0  0  0  0
    5.8200   -1.0213    2.1405 C   0  0  0  0  0  0  0  0  0  0  0  0
    7.3049   -0.7586    2.9662 Cl  0  0  0  0  0  0  0  0  0  0  0  0
    4.6756   -0.3296    2.5349 C   0  0  0  0  0  0  0  0  0  0  0  0
    3.4490   -0.5349    1.8768 C   0  0  0  0  0  0  0  0  0  0  0  0
    2.2400    0.2094    2.3741 C   0  0  0  0  0  0  0  0  0  0  0  0
    0.1236   -0.9091   -0.4740 N   0  0  0  0  0  0  0  0  0  0  0  0
   -0.6829    0.0183   -1.0942 C   0  0  0  0  0  0  0  0  0  0  0  0
   -1.9512   -0.1949   -1.1671 N   0  0  0  0  0  0  0  0  0  0  0  0
   -2.4855   -1.4255   -0.6047 C   0  0  0  0  0  0  0  0  0  0  0  0
   -3.8993   -1.6364   -1.1401 C   0  0  0  0  0  0  0  0  0  0  0  0
   -4.7899   -0.3999   -1.2571 C   0  0  0  0  0  0  0  0  0  0  0  0
   -5.1525    0.2909    0.0386 N   0  0  0  0  0  4  0  0  0  0  0  0
   -4.0917    1.2241    0.5564 C   0  0  0  0  0  0  0  0  0  0  0  0
   -5.7021   -0.6087    1.1001 C   0  0  0  0  0  0  0  0  0  0  0  0
   -0.3051    1.2131   -1.6502 N   0  0  0  0  0  0  0  0  0  0  0  0
    0.9643    1.4237   -1.7285 C   0  0  0  0  0  0  0  0  0  0  0  0
    1.6450    2.5192   -2.2597 N   0  0  0  0  0  0  0  0  0  0  0  0
    1.1127    3.2575   -3.3906 C   0  0  0  0  0  0  0  0  0  0  0  0
    3.6619    2.8765   -1.9981 H   0  0  0  0  0  0  0  0  0  0  0  0
    4.1101    0.5837   -1.3674 H   0  0  0  0  0  0  0  0  0  0  0  0
    1.6629   -2.3931    0.5709 H   0  0  0  0  0  0  0  0  0  0  0  0
    4.5207   -2.8456   -0.3999 H   0  0  0  0  0  0  0  0  0  0  0  0
    6.6483   -2.4851    0.7917 H   0  0  0  0  0  0  0  0  0  0  0  0
    4.7371    0.3634    3.3722 H   0  0  0  0  0  0  0  0  0  0  0  0
    2.3832    0.5516    3.4050 H   0  0  0  0  0  0  0  0  0  0  0  0
    1.3565   -0.4367    2.3800 H   0  0  0  0  0  0  0  0  0  0  0  0
    2.0499    1.0870    1.7495 H   0  0  0  0  0  0  0  0  0  0  0  0
   -2.5085   -1.3661    0.4887 H   0  0  0  0  0  0  0  0  0  0  0  0
   -1.8869   -2.3032   -0.8783 H   0  0  0  0  0  0  0  0  0  0  0  0
   -4.3954   -2.4172   -0.5520 H   0  0  0  0  0  0  0  0  0  0  0  0
   -3.8076   -2.0496   -2.1540 H   0  0  0  0  0  0  0  0  0  0  0  0
   -5.7479   -0.7017   -1.6985 H   0  0  0  0  0  0  0  0  0  0  0  0
   -4.3657    0.3577   -1.9255 H   0  0  0  0  0  0  0  0  0  0  0  0
   -5.9247    0.9151   -0.2257 H   0  0  0  0  0  0  0  0  0  0  0  0
   -3.7175    1.8266   -0.2748 H   0  0  0  0  0  0  0  0  0  0  0  0
   -4.5656    1.8785    1.2940 H   0  0  0  0  0  0  0  0  0  0  0  0
   -3.2996    0.6474    1.0343 H   0  0  0  0  0  0  0  0  0  0  0  0
   -4.8957   -1.2335    1.4914 H   0  0  0  0  0  0  0  0  0  0  0  0
   -6.4939   -1.2176    0.6560 H   0  0  0  0  0  0  0  0  0  0  0  0
   -6.1172    0.0201    1.8924 H   0  0  0  0  0  0  0  0  0  0  0  0
    1.0761    2.6265   -4.2848 H   0  0  0  0  0  0  0  0  0  0  0  0
    1.7390    4.1296   -3.6046 H   0  0  0  0  0  0  0  0  0  0  0  0
    0.1018    3.6170   -3.1733 H   0  0  0  0  0  0  0  0  0  0  0  0
  1  2  1  0
  2  3  2  0
  3  4  1  0
  4  5  1  0
  5  6  1  0
  6  7  2  0
  7  8  1  0
  8  9  2  0
  9 10  1  0
  9 11  1  0
 11 12  2  0
 12 13  1  0
  4 14  2  0
 14 15  1  0
 15 16  2  3
 16 17  1  0
 17 18  1  0
 18 19  1  0
 19 20  1  0
 20 21  1  0
 20 22  1  0
 15 23  1  0
 23 24  2  0
 24 25  1  0
 25 26  1  0
 25  1  1  0
 24  3  1  0
 12  6  1  0
  1 27  1  0
  2 28  1  0
  5 29  1  0
  7 30  1  0
  8 31  1  0
 11 32  1  0
 13 33  1  0
 13 34  1  0
 13 35  1  0
 17 36  1  0
 17 37  1  0
 18 38  1  0
 18 39  1  0
 19 40  1  0
 19 41  1  0
 20 42  1  0
 21 43  1  0
 21 44  1  0
 21 45  1  0
 22 46  1  0
 22 47  1  0
 22 48  1  0
 26 49  1  0
 26 50  1  0
 26 51  1  0
M  CHG  1  20   1
M  END
>  <ScrubInfo>  (7) 
{"isomerGroup": 0, "isomerId": 6, "confId": 0, "nr_conformers:": 1, "nr_isomers:": 9}

$$$$
_i7
     RDKit          3D

 51 53  0  0  0  0  0  0  0  0999 V2000
   -2.8578    2.9184    1.1524 N   0  0  0  0  0  0  0  0  0  0  0  0
   -3.2090    1.7178    0.5490 C   0  0  0  0  0  0  0  0  0  0  0  0
   -2.1543    1.0005    0.1374 C   0  0  0  0  0  0  0  0  0  0  0  0
   -1.8449   -0.2607   -0.5623 C   0  0  0  0  0  0  0  0  0  0  0  0
   -2.6477   -1.1790   -1.0109 N   0  0  0  0  0  0  0  0  0  0  0  0
   -4.0344   -1.0534   -0.8650 C   0  0  0  0  0  0  0  0  0  0  0  0
   -4.7696   -0.4265   -1.8795 C   0  0  0  0  0  0  0  0  0  0  0  0
   -6.1553   -0.2941   -1.7776 C   0  0  0  0  0  0  0  0  0  0  0  0
   -6.8132   -0.8032   -0.6623 C   0  0  0  0  0  0  0  0  0  0  0  0
   -8.5190   -0.6327   -0.5254 Cl  0  0  0  0  0  0  0  0  0  0  0  0
   -6.0991   -1.4527    0.3446 C   0  0  0  0  0  0  0  0  0  0  0  0
   -4.7055   -1.5978    0.2457 C   0  0  0  0  0  0  0  0  0  0  0  0
   -3.9516   -2.3123    1.3313 C   0  0  0  0  0  0  0  0  0  0  0  0
   -0.4992   -0.4380   -0.7416 N   0  0  0  0  0  0  0  0  0  0  0  0
    0.5061    0.3992   -0.3523 C   0  0  0  0  0  0  0  0  0  0  0  0
    1.7314    0.0813   -0.6381 N   0  0  0  0  0  0  0  0  0  0  0  0
    2.7649    1.0257   -0.2129 C   0  0  0  0  0  0  0  0  0  0  0  0
    4.1167    0.5018   -0.6952 C   0  0  0  0  0  0  0  0  0  0  0  0
    4.4557   -0.8310   -0.0362 C   0  0  0  0  0  0  0  0  0  0  0  0
    5.7381   -1.4080   -0.6140 N   0  0  0  0  0  4  0  0  0  0  0  0
    5.8724   -2.8694   -0.2775 C   0  0  0  0  0  0  0  0  0  0  0  0
    6.9734   -0.6470   -0.2224 C   0  0  0  0  0  0  0  0  0  0  0  0
    0.2502    1.5595    0.3446 N   0  0  0  0  0  0  0  0  0  0  0  0
   -0.9919    1.8461    0.5922 C   0  0  0  0  0  0  0  0  0  0  0  0
   -1.4792    2.9507    1.2944 N   0  0  0  0  0  0  0  0  0  0  0  0
   -0.8022    4.2333    1.2492 C   0  0  0  0  0  0  0  0  0  0  0  0
   -3.4131    3.1432    1.9821 H   0  0  0  0  0  0  0  0  0  0  0  0
   -4.2588    1.4777    0.4651 H   0  0  0  0  0  0  0  0  0  0  0  0
   -4.2563   -0.0402   -2.7565 H   0  0  0  0  0  0  0  0  0  0  0  0
   -6.7114    0.1990   -2.5704 H   0  0  0  0  0  0  0  0  0  0  0  0
   -6.6313   -1.8564    1.2033 H   0  0  0  0  0  0  0  0  0  0  0  0
   -3.2983   -3.0804    0.9047 H   0  0  0  0  0  0  0  0  0  0  0  0
   -4.6323   -2.8156    2.0261 H   0  0  0  0  0  0  0  0  0  0  0  0
   -3.3496   -1.6005    1.9047 H   0  0  0  0  0  0  0  0  0  0  0  0
   -0.2280   -1.2646   -1.2510 H   0  0  0  0  0  0  0  0  0  0  0  0
    2.7813    1.1281    0.8790 H   0  0  0  0  0  0  0  0  0  0  0  0
    2.5979    2.0126   -0.6614 H   0  0  0  0  0  0  0  0  0  0  0  0
    4.0995    0.3872   -1.7861 H   0  0  0  0  0  0  0  0  0  0  0  0
    4.8788    1.2514   -0.4573 H   0  0  0  0  0  0  0  0  0  0  0  0
    4.5946   -0.7344    1.0463 H   0  0  0  0  0  0  0  0  0  0  0  0
    3.6714   -1.5700   -0.2306 H   0  0  0  0  0  0  0  0  0  0  0  0
    5.6530   -1.3541   -1.6380 H   0  0  0  0  0  0  0  0  0  0  0  0
    5.9404   -2.9716    0.8088 H   0  0  0  0  0  0  0  0  0  0  0  0
    6.7740   -3.2496   -0.7653 H   0  0  0  0  0  0  0  0  0  0  0  0
    4.9951   -3.3917   -0.6683 H   0  0  0  0  0  0  0  0  0  0  0  0
    7.8375   -1.1500   -0.6650 H   0  0  0  0  0  0  0  0  0  0  0  0
    7.0464   -0.6360    0.8683 H   0  0  0  0  0  0  0  0  0  0  0  0
    6.9026    0.3654   -0.6245 H   0  0  0  0  0  0  0  0  0  0  0  0
   -1.2811    4.9415    1.9333 H   0  0  0  0  0  0  0  0  0  0  0  0
   -0.8304    4.6524    0.2380 H   0  0  0  0  0  0  0  0  0  0  0  0
    0.2433    4.1280    1.5561 H   0  0  0  0  0  0  0  0  0  0  0  0
  1  2  1  0
  2  3  2  0
  3  4  1  0
  4  5  2  3
  5  6  1  0
  6  7  2  0
  7  8  1  0
  8  9  2  0
  9 10  1  0
  9 11  1  0
 11 12  2  0
 12 13  1  0
  4 14  1  0
 14 15  1  0
 15 16  2  3
 16 17  1  0
 17 18  1  0
 18 19  1  0
 19 20  1  0
 20 21  1  0
 20 22  1  0
 15 23  1  0
 23 24  2  0
 24 25  1  0
 25 26  1  0
 25  1  1  0
 24  3  1  0
 12  6  1  0
  1 27  1  0
  2 28  1  0
  7 29  1  0
  8 30  1  0
 11 31  1  0
 13 32  1  0
 13 33  1  0
 13 34  1  0
 14 35  1  0
 17 36  1  0
 17 37  1  0
 18 38  1  0
 18 39  1  0
 19 40  1  0
 19 41  1  0
 20 42  1  0
 21 43  1  0
 21 44  1  0
 21 45  1  0
 22 46  1  0
 22 47  1  0
 22 48  1  0
 26 49  1  0
 26 50  1  0
 26 51  1  0
M  CHG  1  20   1
M  END
>  <ScrubInfo>  (8) 
{"isomerGroup": 0, "isomerId": 7, "confId": 0, "nr_conformers:": 1, "nr_isomers:": 9}

$$$$
_i8
     RDKit          3D

 51 53  0  0  0  0  0  0  0  0999 V2000
    0.7485   -1.4499   -0.6893 N   0  0  0  0  0  0  0  0  0  0  0  0
    1.0872   -0.7129    0.4303 C   0  0  0  0  0  0  0  0  0  0  0  0
    2.3191   -0.7484    0.8325 N   0  0  0  0  0  0  0  0  0  0  0  0
    2.6890   -0.0376    2.0637 C   0  0  0  0  0  0  0  0  0  0  0  0
    3.2537    1.3416    1.7246 C   0  0  0  0  0  0  0  0  0  0  0  0
    4.5670    1.2731    0.9429 C   0  0  0  0  0  0  0  0  0  0  0  0
    4.3809    0.5708   -0.3816 N   0  0  0  0  0  4  0  0  0  0  0  0
    3.7556    1.4347   -1.4364 C   0  0  0  0  0  0  0  0  0  0  0  0
    5.6397   -0.0814   -0.8663 C   0  0  0  0  0  0  0  0  0  0  0  0
    0.0277    0.0025    0.9526 N   0  0  0  0  0  0  0  0  0  0  0  0
   -1.2909    0.1026    0.5500 C   0  0  0  0  0  0  0  0  0  0  0  0
   -2.1109    0.8705    1.2005 N   0  0  0  0  0  0  0  0  0  0  0  0
   -3.4547    1.0059    0.8373 C   0  0  0  0  0  0  0  0  0  0  0  0
   -3.8183    2.0219   -0.0565 C   0  0  0  0  0  0  0  0  0  0  0  0
   -5.1528    2.2053   -0.4221 C   0  0  0  0  0  0  0  0  0  0  0  0
   -6.1331    1.3791    0.1188 C   0  0  0  0  0  0  0  0  0  0  0  0
   -7.7777    1.5970   -0.3339 Cl  0  0  0  0  0  0  0  0  0  0  0  0
   -5.7911    0.3795    1.0291 C   0  0  0  0  0  0  0  0  0  0  0  0
   -4.4516    0.1937    1.4095 C   0  0  0  0  0  0  0  0  0  0  0  0
   -4.1023   -0.8810    2.4001 C   0  0  0  0  0  0  0  0  0  0  0  0
   -1.5507   -0.7222   -0.6130 C   0  0  0  0  0  0  0  0  0  0  0  0
   -2.6531   -1.0420   -1.4254 C   0  0  0  0  0  0  0  0  0  0  0  0
   -2.3407   -1.9048   -2.4019 N   0  0  0  0  0  0  0  0  0  0  0  0
   -1.0307   -2.1591   -2.2103 N   0  0  0  0  0  0  0  0  0  0  0  0
   -0.3718   -3.0966   -3.0852 C   0  0  0  0  0  0  0  0  0  0  0  0
   -0.5194   -1.4551   -1.1616 C   0  0  0  0  0  0  0  0  0  0  0  0
    1.4591   -2.0864   -1.0297 H   0  0  0  0  0  0  0  0  0  0  0  0
    1.8590    0.0479    2.7725 H   0  0  0  0  0  0  0  0  0  0  0  0
    3.4527   -0.6320    2.5790 H   0  0  0  0  0  0  0  0  0  0  0  0
    3.4446    1.8770    2.6625 H   0  0  0  0  0  0  0  0  0  0  0  0
    2.5095    1.9296    1.1763 H   0  0  0  0  0  0  0  0  0  0  0  0
    5.3078    0.7057    1.5176 H   0  0  0  0  0  0  0  0  0  0  0  0
    4.9717    2.2702    0.7392 H   0  0  0  0  0  0  0  0  0  0  0  0
    3.7015   -0.1941   -0.1855 H   0  0  0  0  0  0  0  0  0  0  0  0
    3.5894    0.8187   -2.3243 H   0  0  0  0  0  0  0  0  0  0  0  0
    4.4355    2.2615   -1.6580 H   0  0  0  0  0  0  0  0  0  0  0  0
    2.7976    1.8048   -1.0654 H   0  0  0  0  0  0  0  0  0  0  0  0
    6.3890    0.6953   -1.0404 H   0  0  0  0  0  0  0  0  0  0  0  0
    5.9753   -0.7873   -0.1019 H   0  0  0  0  0  0  0  0  0  0  0  0
    5.4117   -0.6207   -1.7896 H   0  0  0  0  0  0  0  0  0  0  0  0
    0.1866    0.5570    1.7793 H   0  0  0  0  0  0  0  0  0  0  0  0
   -3.0559    2.6765   -0.4699 H   0  0  0  0  0  0  0  0  0  0  0  0
   -5.4201    2.9931   -1.1214 H   0  0  0  0  0  0  0  0  0  0  0  0
   -6.5716   -0.2511    1.4499 H   0  0  0  0  0  0  0  0  0  0  0  0
   -4.9992   -1.2994    2.8692 H   0  0  0  0  0  0  0  0  0  0  0  0
   -3.4765   -0.4763    3.2022 H   0  0  0  0  0  0  0  0  0  0  0  0
   -3.5705   -1.6967    1.9006 H   0  0  0  0  0  0  0  0  0  0  0  0
   -3.6775   -0.6995   -1.3649 H   0  0  0  0  0  0  0  0  0  0  0  0
   -0.6893   -4.1041   -2.8060 H   0  0  0  0  0  0  0  0  0  0  0  0
    0.7111   -3.0007   -2.9830 H   0  0  0  0  0  0  0  0  0  0  0  0
   -0.6605   -2.8764   -4.1164 H   0  0  0  0  0  0  0  0  0  0  0  0
  1  2  1  0
  2  3  2  3
  3  4  1  0
  4  5  1  0
  5  6  1  0
  6  7  1  0
  7  8  1  0
  7  9  1  0
  2 10  1  0
 10 11  1  0
 11 12  2  3
 12 13  1  0
 13 14  2  0
 14 15  1  0
 15 16  2  0
 16 17  1  0
 16 18  1  0
 18 19  2  0
 19 20  1  0
 11 21  1  0
 21 22  1  0
 22 23  2  0
 23 24  1  0
 24 25  1  0
 24 26  1  0
 26  1  1  0
 19 13  1  0
 26 21  2  0
  1 27  1  0
  4 28  1  0
  4 29  1  0
  5 30  1  0
  5 31  1  0
  6 32  1  0
  6 33  1  0
  7 34  1  0
  8 35  1  0
  8 36  1  0
  8 37  1  0
  9 38  1  0
  9 39  1  0
  9 40  1  0
 10 41  1  0
 14 42  1  0
 15 43  1  0
 18 44  1  0
 20 45  1  0
 20 46  1  0
 20 47  1  0
 22 48  1  0
 25 49  1  0
 25 50  1  0
 25 51  1  0
M  CHG  1   7   1
M  END
>  <ScrubInfo>  (9) 
{"isomerGroup": 0, "isomerId": 8, "confId": 0, "nr_conformers:": 1, "nr_isomers:": 9}

$$$$
