REMARK SMILES CCCCCCNc1nc(Nc2ccccc2)c2cnn(C)c2n1
REMARK SMILES IDX 5 1 4 2 3 3 2 4 1 5 6 6 7 7 8 9 9 10 24 11 10 12 23 13 18 14
REMARK SMILES IDX 21 15 19 16 20 17 22 18 11 19 12 21 13 22 17 23 14 24 16 25
REMARK SMILES IDX 15 26
REMARK H PARENT 7 8 11 20
ROOT
ATOM      1  C   UNL     1       3.239  -0.851   0.345  1.00  0.00     0.021 C 
ENDROOT
BRANCH   1   2
ATOM      2  C   UNL     1       3.809   0.328   1.143  1.00  0.00     0.002 C 
BRANCH   2   3
ATOM      3  C   UNL     1       4.742   1.267   0.372  1.00  0.00    -0.000 C 
BRANCH   3   4
ATOM      4  C   UNL     1       5.984   0.569  -0.183  1.00  0.00    -0.003 C 
ATOM      5  C   UNL     1       6.930   1.561  -0.842  1.00  0.00     0.004 C 
ENDBRANCH   3   4
ENDBRANCH   2   3
ENDBRANCH   1   2
BRANCH   1   6
ATOM      6  C   UNL     1       2.459  -0.467  -0.916  1.00  0.00     0.116 C 
BRANCH   6   7
ATOM      7  N   UNL     1       1.356   0.431  -0.620  1.00  0.00    -0.354 N 
ATOM      8  H   UNL     1       1.179   1.139  -1.324  1.00  0.00     0.163 HD
BRANCH   7   9
ATOM      9  C   UNL     1       0.125  -0.163  -0.373  1.00  0.00     0.226 A 
ATOM     10  N   UNL     1      -0.931   0.553  -0.804  1.00  0.00    -0.195 NA
ATOM     11  N   UNL     1       0.064  -1.350   0.244  1.00  0.00    -0.193 NA
ATOM     12  C   UNL     1      -2.193   0.099  -0.600  1.00  0.00     0.147 A 
ATOM     13  C   UNL     1      -1.192  -1.790   0.409  1.00  0.00     0.165 A 
ATOM     14  C   UNL     1      -2.347  -1.143   0.019  1.00  0.00     0.082 A 
ATOM     15  N   UNL     1      -1.593  -2.962   0.988  1.00  0.00    -0.250 N 
ATOM     16  C   UNL     1      -3.384  -2.024   0.387  1.00  0.00     0.149 A 
ATOM     17  N   UNL     1      -2.936  -3.135   0.985  1.00  0.00    -0.179 NA
ATOM     18  C   UNL     1      -0.749  -3.978   1.563  1.00  0.00     0.176 C 
BRANCH  12  19
ATOM     19  N   UNL     1      -3.244   0.896  -1.082  1.00  0.00    -0.339 N 
ATOM     20  H   UNL     1      -2.818   1.739  -1.464  1.00  0.00     0.168 HD
BRANCH  19  21
ATOM     21  C   UNL     1      -4.458   1.207  -0.434  1.00  0.00     0.040 A 
ATOM     22  C   UNL     1      -5.534   1.651  -1.214  1.00  0.00     0.026 A 
ATOM     23  C   UNL     1      -4.611   1.177   0.958  1.00  0.00     0.026 A 
ATOM     24  C   UNL     1      -6.748   2.010  -0.625  1.00  0.00     0.002 A 
ATOM     25  C   UNL     1      -5.825   1.536   1.550  1.00  0.00     0.002 A 
ATOM     26  C   UNL     1      -6.894   1.948   0.758  1.00  0.00     0.000 A 
ENDBRANCH  19  21
ENDBRANCH  12  19
ENDBRANCH   7   9
ENDBRANCH   6   7
ENDBRANCH   1   6
TORSDOF 8
