_i0
     RDKit          3D

 48 50  0  0  0  0  0  0  0  0999 V2000
    6.9298    1.5614   -0.8421 C   0  0  0  0  0  0  0  0  0  0  0  0
    5.9841    0.5690   -0.1830 C   0  0  0  0  0  0  0  0  0  0  0  0
    4.7423    1.2671    0.3719 C   0  0  0  0  0  0  0  0  0  0  0  0
    3.8093    0.3284    1.1427 C   0  0  0  0  0  0  0  0  0  0  0  0
    3.2385   -0.8514    0.3454 C   0  0  0  0  0  0  0  0  0  0  0  0
    2.4591   -0.4670   -0.9157 C   0  0  0  0  0  0  0  0  0  0  0  0
    1.3561    0.4309   -0.6201 N   0  0  0  0  0  0  0  0  0  0  0  0
    0.1249   -0.1628   -0.3733 C   0  0  0  0  0  0  0  0  0  0  0  0
   -0.9310    0.5535   -0.8043 N   0  0  0  0  0  0  0  0  0  0  0  0
   -2.1934    0.0992   -0.5995 C   0  0  0  0  0  0  0  0  0  0  0  0
   -3.2438    0.8962   -1.0818 N   0  0  0  0  0  0  0  0  0  0  0  0
   -4.4577    1.2073   -0.4338 C   0  0  0  0  0  0  0  0  0  0  0  0
   -5.5336    1.6506   -1.2143 C   0  0  0  0  0  0  0  0  0  0  0  0
   -6.7477    2.0103   -0.6247 C   0  0  0  0  0  0  0  0  0  0  0  0
   -6.8941    1.9485    0.7585 C   0  0  0  0  0  0  0  0  0  0  0  0
   -5.8249    1.5360    1.5500 C   0  0  0  0  0  0  0  0  0  0  0  0
   -4.6111    1.1765    0.9575 C   0  0  0  0  0  0  0  0  0  0  0  0
   -2.3467   -1.1428    0.0193 C   0  0  0  0  0  0  0  0  0  0  0  0
   -3.3842   -2.0243    0.3867 C   0  0  0  0  0  0  0  0  0  0  0  0
   -2.9358   -3.1348    0.9854 N   0  0  0  0  0  0  0  0  0  0  0  0
   -1.5933   -2.9620    0.9880 N   0  0  0  0  0  0  0  0  0  0  0  0
   -0.7486   -3.9782    1.5627 C   0  0  0  0  0  0  0  0  0  0  0  0
   -1.1918   -1.7898    0.4088 C   0  0  0  0  0  0  0  0  0  0  0  0
    0.0638   -1.3497    0.2444 N   0  0  0  0  0  0  0  0  0  0  0  0
    6.4394    2.0768   -1.6741 H   0  0  0  0  0  0  0  0  0  0  0  0
    7.2719    2.3141   -0.1246 H   0  0  0  0  0  0  0  0  0  0  0  0
    7.8098    1.0426   -1.2350 H   0  0  0  0  0  0  0  0  0  0  0  0
    6.5130    0.0509    0.6253 H   0  0  0  0  0  0  0  0  0  0  0  0
    5.6984   -0.1860   -0.9232 H   0  0  0  0  0  0  0  0  0  0  0  0
    5.0571    2.0663    1.0550 H   0  0  0  0  0  0  0  0  0  0  0  0
    4.1956    1.7581   -0.4412 H   0  0  0  0  0  0  0  0  0  0  0  0
    4.3499   -0.0732    2.0092 H   0  0  0  0  0  0  0  0  0  0  0  0
    2.9819    0.9210    1.5520 H   0  0  0  0  0  0  0  0  0  0  0  0
    4.0534   -1.5272    0.0603 H   0  0  0  0  0  0  0  0  0  0  0  0
    2.5941   -1.4304    1.0175 H   0  0  0  0  0  0  0  0  0  0  0  0
    3.1341    0.0388   -1.6155 H   0  0  0  0  0  0  0  0  0  0  0  0
    2.1189   -1.3696   -1.4398 H   0  0  0  0  0  0  0  0  0  0  0  0
    1.1785    1.1394   -1.3242 H   0  0  0  0  0  0  0  0  0  0  0  0
   -2.8184    1.7389   -1.4637 H   0  0  0  0  0  0  0  0  0  0  0  0
   -5.4335    1.7019   -2.2960 H   0  0  0  0  0  0  0  0  0  0  0  0
   -7.5766    2.3387   -1.2462 H   0  0  0  0  0  0  0  0  0  0  0  0
   -7.8374    2.2287    1.2202 H   0  0  0  0  0  0  0  0  0  0  0  0
   -5.9304    1.5009    2.6314 H   0  0  0  0  0  0  0  0  0  0  0  0
   -3.7856    0.8883    1.6032 H   0  0  0  0  0  0  0  0  0  0  0  0
   -4.4502   -1.8998    0.2426 H   0  0  0  0  0  0  0  0  0  0  0  0
    0.2974   -3.6672    1.5153 H   0  0  0  0  0  0  0  0  0  0  0  0
   -1.0440   -4.1225    2.6050 H   0  0  0  0  0  0  0  0  0  0  0  0
   -0.8875   -4.9015    0.9947 H   0  0  0  0  0  0  0  0  0  0  0  0
  1  2  1  0
  2  3  1  0
  3  4  1  0
  4  5  1  0
  5  6  1  0
  6  7  1  0
  7  8  1  0
  8  9  2  0
  9 10  1  0
 10 11  1  0
 11 12  1  0
 12 13  2  0
 13 14  1  0
 14 15  2  0
 15 16  1  0
 16 17  2  0
 10 18  2  0
 18 19  1  0
 19 20  2  0
 20 21  1  0
 21 22  1  0
 21 23  1  0
 23 24  2  0
 24  8  1  0
 17 12  1  0
 23 18  1  0
  1 25  1  0
  1 26  1  0
  1 27  1  0
  2 28  1  0
  2 29  1  0
  3 30  1  0
  3 31  1  0
  4 32  1  0
  4 33  1  0
  5 34  1  0
  5 35  1  0
  6 36  1  0
  6 37  1  0
  7 38  1  0
 11 39  1  0
 13 40  1  0
 14 41  1  0
 15 42  1  0
 16 43  1  0
 17 44  1  0
 19 45  1  0
 22 46  1  0
 22 47  1  0
 22 48  1  0
M  END
>  <ScrubInfo>  (1) 
{"isomerGroup": 0, "isomerId": 0, "confId": 0, "nr_conformers:": 1, "nr_isomers:": 9}

$$$$
_i1
     RDKit          3D

 48 50  0  0  0  0  0  0  0  0999 V2000
    0.4907   -0.2620    1.2766 N   0  0  0  0  0  0  0  0  0  0  0  0
    1.8486   -0.2940    1.0150 C   0  0  0  0  0  0  0  0  0  0  0  0
    2.6356    0.8250    1.2098 N   0  0  0  0  0  0  0  0  0  0  0  0
    3.4449    1.4657    0.2424 C   0  0  0  0  0  0  0  0  0  0  0  0
    3.4599    1.1146   -1.1135 C   0  0  0  0  0  0  0  0  0  0  0  0
    4.3153    1.7600   -2.0119 C   0  0  0  0  0  0  0  0  0  0  0  0
    5.1752    2.7594   -1.5648 C   0  0  0  0  0  0  0  0  0  0  0  0
    5.1814    3.1140   -0.2192 C   0  0  0  0  0  0  0  0  0  0  0  0
    4.3250    2.4688    0.6766 C   0  0  0  0  0  0  0  0  0  0  0  0
    2.3322   -1.4790    0.6238 C   0  0  0  0  0  0  0  0  0  0  0  0
    3.6289   -2.0607    0.2597 C   0  0  0  0  0  0  0  0  0  0  0  0
    3.5451   -3.3230   -0.0808 N   0  0  0  0  0  0  0  0  0  0  0  0
    2.1940   -3.6658    0.0930 N   0  0  0  0  0  0  0  0  0  0  0  0
    1.7052   -4.9062   -0.4566 C   0  0  0  0  0  0  0  0  0  0  0  0
    1.3897   -2.6048    0.4748 C   0  0  0  0  0  0  0  0  0  0  0  0
    0.1169   -2.5448    0.6636 N   0  0  0  0  0  0  0  0  0  0  0  0
   -0.3697   -1.3184    1.0598 C   0  0  0  0  0  0  0  0  0  0  0  0
   -1.6483   -1.2966    1.1862 N   0  0  0  0  0  0  0  0  0  0  0  0
   -2.3086   -0.0671    1.5984 C   0  0  0  0  0  0  0  0  0  0  0  0
   -3.8178   -0.3043    1.6676 C   0  0  0  0  0  0  0  0  0  0  0  0
   -4.4694   -0.7115    0.3402 C   0  0  0  0  0  0  0  0  0  0  0  0
   -4.2681    0.2584   -0.8280 C   0  0  0  0  0  0  0  0  0  0  0  0
   -4.8214    1.6579   -0.5588 C   0  0  0  0  0  0  0  0  0  0  0  0
   -4.6940    2.5494   -1.7847 C   0  0  0  0  0  0  0  0  0  0  0  0
    0.0908    0.6403    1.4690 H   0  0  0  0  0  0  0  0  0  0  0  0
    2.2240    1.5055    1.8417 H   0  0  0  0  0  0  0  0  0  0  0  0
    2.7917    0.3527   -1.5052 H   0  0  0  0  0  0  0  0  0  0  0  0
    4.3070    1.4807   -3.0628 H   0  0  0  0  0  0  0  0  0  0  0  0
    5.8412    3.2585   -2.2642 H   0  0  0  0  0  0  0  0  0  0  0  0
    5.8573    3.8877    0.1362 H   0  0  0  0  0  0  0  0  0  0  0  0
    4.3612    2.7479    1.7271 H   0  0  0  0  0  0  0  0  0  0  0  0
    4.5467   -1.4590    0.2690 H   0  0  0  0  0  0  0  0  0  0  0  0
    1.4295   -4.7742   -1.5075 H   0  0  0  0  0  0  0  0  0  0  0  0
    0.8262   -5.2578    0.0930 H   0  0  0  0  0  0  0  0  0  0  0  0
    2.4708   -5.6865   -0.3950 H   0  0  0  0  0  0  0  0  0  0  0  0
   -1.9618    0.2305    2.5955 H   0  0  0  0  0  0  0  0  0  0  0  0
   -2.0889    0.7524    0.9056 H   0  0  0  0  0  0  0  0  0  0  0  0
   -4.0206   -1.0952    2.4013 H   0  0  0  0  0  0  0  0  0  0  0  0
   -4.3022    0.6005    2.0524 H   0  0  0  0  0  0  0  0  0  0  0  0
   -4.0912   -1.6966    0.0403 H   0  0  0  0  0  0  0  0  0  0  0  0
   -5.5456   -0.8405    0.5115 H   0  0  0  0  0  0  0  0  0  0  0  0
   -4.7722   -0.1623   -1.7073 H   0  0  0  0  0  0  0  0  0  0  0  0
   -3.2048    0.3208   -1.0867 H   0  0  0  0  0  0  0  0  0  0  0  0
   -5.8767    1.5923   -0.2701 H   0  0  0  0  0  0  0  0  0  0  0  0
   -4.2839    2.1273    0.2720 H   0  0  0  0  0  0  0  0  0  0  0  0
   -3.6463    2.6587   -2.0826 H   0  0  0  0  0  0  0  0  0  0  0  0
   -5.0924    3.5462   -1.5713 H   0  0  0  0  0  0  0  0  0  0  0  0
   -5.2511    2.1353   -2.6311 H   0  0  0  0  0  0  0  0  0  0  0  0
  1  2  1  0
  2  3  1  0
  3  4  1  0
  4  5  2  0
  5  6  1  0
  6  7  2  0
  7  8  1  0
  8  9  2  0
  2 10  2  0
 10 11  1  0
 11 12  2  0
 12 13  1  0
 13 14  1  0
 13 15  1  0
 15 16  2  0
 16 17  1  0
 17 18  2  3
 18 19  1  0
 19 20  1  0
 20 21  1  0
 21 22  1  0
 22 23  1  0
 23 24  1  0
 17  1  1  0
  9  4  1  0
 15 10  1  0
  1 25  1  0
  3 26  1  0
  5 27  1  0
  6 28  1  0
  7 29  1  0
  8 30  1  0
  9 31  1  0
 11 32  1  0
 14 33  1  0
 14 34  1  0
 14 35  1  0
 19 36  1  0
 19 37  1  0
 20 38  1  0
 20 39  1  0
 21 40  1  0
 21 41  1  0
 22 42  1  0
 22 43  1  0
 23 44  1  0
 23 45  1  0
 24 46  1  0
 24 47  1  0
 24 48  1  0
M  END
>  <ScrubInfo>  (2) 
{"isomerGroup": 0, "isomerId": 1, "confId": 0, "nr_conformers:": 1, "nr_isomers:": 9}

$$$$
_i2
     RDKit          3D

 48 50  0  0  0  0  0  0  0  0999 V2000
   -1.2418    0.2899    1.2940 N   0  0  0  0  0  0  0  0  0  0  0  0
   -0.1253    0.2369    0.4942 C   0  0  0  0  0  0  0  0  0  0  0  0
    1.0187    0.5935    1.1591 N   0  0  0  0  0  0  0  0  0  0  0  0
    2.3152    0.4919    0.5004 C   0  0  0  0  0  0  0  0  0  0  0  0
    3.3927    1.0979    1.3999 C   0  0  0  0  0  0  0  0  0  0  0  0
    4.7726    1.1598    0.7382 C   0  0  0  0  0  0  0  0  0  0  0  0
    5.3610   -0.2215    0.4385 C   0  0  0  0  0  0  0  0  0  0  0  0
    6.8194   -0.1680   -0.0238 C   0  0  0  0  0  0  0  0  0  0  0  0
    7.0066    0.5370   -1.3584 C   0  0  0  0  0  0  0  0  0  0  0  0
   -0.1525   -0.1075   -0.7670 N   0  0  0  0  0  0  0  0  0  0  0  0
   -1.4134   -0.4204   -1.1790 C   0  0  0  0  0  0  0  0  0  0  0  0
   -2.5927   -0.3928   -0.4500 C   0  0  0  0  0  0  0  0  0  0  0  0
   -3.5752   -0.8151   -1.3628 C   0  0  0  0  0  0  0  0  0  0  0  0
   -3.0742   -1.0906   -2.5742 N   0  0  0  0  0  0  0  0  0  0  0  0
   -1.7533   -0.8357   -2.4355 N   0  0  0  0  0  0  0  0  0  0  0  0
   -0.8764   -1.0216   -3.5638 C   0  0  0  0  0  0  0  0  0  0  0  0
   -2.5442    0.0246    0.9373 C   0  0  0  0  0  0  0  0  0  0  0  0
   -3.5198    0.1661    1.7823 N   0  0  0  0  0  0  0  0  0  0  0  0
   -4.8461   -0.0883    1.4292 C   0  0  0  0  0  0  0  0  0  0  0  0
   -5.6488    0.9338    0.9149 C   0  0  0  0  0  0  0  0  0  0  0  0
   -6.9836    0.6870    0.5881 C   0  0  0  0  0  0  0  0  0  0  0  0
   -7.5267   -0.5812    0.7909 C   0  0  0  0  0  0  0  0  0  0  0  0
   -6.7393   -1.5991    1.3278 C   0  0  0  0  0  0  0  0  0  0  0  0
   -5.4047   -1.3496    1.6534 C   0  0  0  0  0  0  0  0  0  0  0  0
   -1.1470    0.7048    2.2059 H   0  0  0  0  0  0  0  0  0  0  0  0
    1.0459    0.2888    2.1249 H   0  0  0  0  0  0  0  0  0  0  0  0
    2.2916    1.0292   -0.4548 H   0  0  0  0  0  0  0  0  0  0  0  0
    2.5331   -0.5620    0.2975 H   0  0  0  0  0  0  0  0  0  0  0  0
    3.4570    0.5311    2.3373 H   0  0  0  0  0  0  0  0  0  0  0  0
    3.0974    2.1180    1.6777 H   0  0  0  0  0  0  0  0  0  0  0  0
    4.7016    1.7482   -0.1837 H   0  0  0  0  0  0  0  0  0  0  0  0
    5.4500    1.7012    1.4099 H   0  0  0  0  0  0  0  0  0  0  0  0
    5.3111   -0.8380    1.3444 H   0  0  0  0  0  0  0  0  0  0  0  0
    4.7618   -0.7295   -0.3257 H   0  0  0  0  0  0  0  0  0  0  0  0
    7.1920   -1.1951   -0.1168 H   0  0  0  0  0  0  0  0  0  0  0  0
    7.4350    0.3240    0.7382 H   0  0  0  0  0  0  0  0  0  0  0  0
    6.7585    1.6001   -1.2887 H   0  0  0  0  0  0  0  0  0  0  0  0
    8.0504    0.4611   -1.6798 H   0  0  0  0  0  0  0  0  0  0  0  0
    6.3799    0.0845   -2.1334 H   0  0  0  0  0  0  0  0  0  0  0  0
   -4.6390   -0.9412   -1.2165 H   0  0  0  0  0  0  0  0  0  0  0  0
   -0.8903   -2.0796   -3.8378 H   0  0  0  0  0  0  0  0  0  0  0  0
    0.1405   -0.7187   -3.3054 H   0  0  0  0  0  0  0  0  0  0  0  0
   -1.2441   -0.4085   -4.3907 H   0  0  0  0  0  0  0  0  0  0  0  0
   -5.2297    1.9251    0.7664 H   0  0  0  0  0  0  0  0  0  0  0  0
   -7.5986    1.4847    0.1802 H   0  0  0  0  0  0  0  0  0  0  0  0
   -8.5664   -0.7740    0.5380 H   0  0  0  0  0  0  0  0  0  0  0  0
   -7.1640   -2.5850    1.4973 H   0  0  0  0  0  0  0  0  0  0  0  0
   -4.7951   -2.1401    2.0819 H   0  0  0  0  0  0  0  0  0  0  0  0
  1  2  1  0
  2  3  1  0
  3  4  1  0
  4  5  1  0
  5  6  1  0
  6  7  1  0
  7  8  1  0
  8  9  1  0
  2 10  2  0
 10 11  1  0
 11 12  2  0
 12 13  1  0
 13 14  2  0
 14 15  1  0
 15 16  1  0
 12 17  1  0
 17 18  2  3
 18 19  1  0
 19 20  2  0
 20 21  1  0
 21 22  2  0
 22 23  1  0
 23 24  2  0
 17  1  1  0
 24 19  1  0
 15 11  1  0
  1 25  1  0
  3 26  1  0
  4 27  1  0
  4 28  1  0
  5 29  1  0
  5 30  1  0
  6 31  1  0
  6 32  1  0
  7 33  1  0
  7 34  1  0
  8 35  1  0
  8 36  1  0
  9 37  1  0
  9 38  1  0
  9 39  1  0
 13 40  1  0
 16 41  1  0
 16 42  1  0
 16 43  1  0
 20 44  1  0
 21 45  1  0
 22 46  1  0
 23 47  1  0
 24 48  1  0
M  END
>  <ScrubInfo>  (3) 
{"isomerGroup": 0, "isomerId": 2, "confId": 0, "nr_conformers:": 1, "nr_isomers:": 9}

$$$$
_i3
     RDKit          3D

 48 50  0  0  0  0  0  0  0  0999 V2000
   -0.6416   -2.6283    0.5229 N   0  0  0  0  0  0  0  0  0  0  0  0
   -0.0092   -1.5045    0.0358 C   0  0  0  0  0  0  0  0  0  0  0  0
    1.2834   -1.4705    0.0775 N   0  0  0  0  0  0  0  0  0  0  0  0
    1.9334   -0.2680   -0.4444 C   0  0  0  0  0  0  0  0  0  0  0  0
    3.4445   -0.4435   -0.2947 C   0  0  0  0  0  0  0  0  0  0  0  0
    4.2040    0.7762   -0.8199 C   0  0  0  0  0  0  0  0  0  0  0  0
    5.7157    0.5965   -0.6644 C   0  0  0  0  0  0  0  0  0  0  0  0
    6.5280    1.7430   -1.2703 C   0  0  0  0  0  0  0  0  0  0  0  0
    6.3222    3.0735   -0.5628 C   0  0  0  0  0  0  0  0  0  0  0  0
   -0.7205   -0.4332   -0.4872 N   0  0  0  0  0  0  0  0  0  0  0  0
   -2.0244   -0.4849   -0.5005 C   0  0  0  0  0  0  0  0  0  0  0  0
   -2.8025    0.5193   -1.0184 N   0  0  0  0  0  0  0  0  0  0  0  0
   -3.7658    1.2473   -0.2715 C   0  0  0  0  0  0  0  0  0  0  0  0
   -3.8204    1.2402    1.1282 C   0  0  0  0  0  0  0  0  0  0  0  0
   -4.7769    2.0002    1.8071 C   0  0  0  0  0  0  0  0  0  0  0  0
   -5.6815    2.7848    1.0955 C   0  0  0  0  0  0  0  0  0  0  0  0
   -5.6279    2.8150   -0.2955 C   0  0  0  0  0  0  0  0  0  0  0  0
   -4.6719    2.0553   -0.9733 C   0  0  0  0  0  0  0  0  0  0  0  0
   -2.7250   -1.6583   -0.0277 C   0  0  0  0  0  0  0  0  0  0  0  0
   -4.0487   -2.1140    0.0663 C   0  0  0  0  0  0  0  0  0  0  0  0
   -4.1283   -3.3415    0.6060 N   0  0  0  0  0  0  0  0  0  0  0  0
   -2.8356   -3.6750    0.8466 N   0  0  0  0  0  0  0  0  0  0  0  0
   -2.5376   -4.9594    1.4267 C   0  0  0  0  0  0  0  0  0  0  0  0
   -1.9800   -2.6896    0.4730 C   0  0  0  0  0  0  0  0  0  0  0  0
   -0.0198   -3.3498    0.8622 H   0  0  0  0  0  0  0  0  0  0  0  0
    1.6895   -0.1257   -1.5043 H   0  0  0  0  0  0  0  0  0  0  0  0
    1.6152    0.6185    0.1178 H   0  0  0  0  0  0  0  0  0  0  0  0
    3.7642   -1.3425   -0.8366 H   0  0  0  0  0  0  0  0  0  0  0  0
    3.6919   -0.6083    0.7615 H   0  0  0  0  0  0  0  0  0  0  0  0
    3.9592    0.9333   -1.8773 H   0  0  0  0  0  0  0  0  0  0  0  0
    3.8734    1.6665   -0.2734 H   0  0  0  0  0  0  0  0  0  0  0  0
    6.0186   -0.3354   -1.1578 H   0  0  0  0  0  0  0  0  0  0  0  0
    5.9683    0.4880    0.3974 H   0  0  0  0  0  0  0  0  0  0  0  0
    7.5915    1.4810   -1.2159 H   0  0  0  0  0  0  0  0  0  0  0  0
    6.2831    1.8532   -2.3331 H   0  0  0  0  0  0  0  0  0  0  0  0
    5.3003    3.4421   -0.6902 H   0  0  0  0  0  0  0  0  0  0  0  0
    6.9995    3.8273   -0.9770 H   0  0  0  0  0  0  0  0  0  0  0  0
    6.5284    2.9853    0.5085 H   0  0  0  0  0  0  0  0  0  0  0  0
   -2.2010    1.2002   -1.4781 H   0  0  0  0  0  0  0  0  0  0  0  0
   -3.1166    0.6552    1.7151 H   0  0  0  0  0  0  0  0  0  0  0  0
   -4.8111    1.9814    2.8936 H   0  0  0  0  0  0  0  0  0  0  0  0
   -6.4250    3.3747    1.6255 H   0  0  0  0  0  0  0  0  0  0  0  0
   -6.3304    3.4282   -0.8540 H   0  0  0  0  0  0  0  0  0  0  0  0
   -4.6471    2.0855   -2.0603 H   0  0  0  0  0  0  0  0  0  0  0  0
   -4.9610   -1.6123   -0.2302 H   0  0  0  0  0  0  0  0  0  0  0  0
   -1.4624   -5.0524    1.5936 H   0  0  0  0  0  0  0  0  0  0  0  0
   -3.0673   -5.0391    2.3793 H   0  0  0  0  0  0  0  0  0  0  0  0
   -2.8748   -5.7355    0.7352 H   0  0  0  0  0  0  0  0  0  0  0  0
  1  2  1  0
  2  3  2  3
  3  4  1  0
  4  5  1  0
  5  6  1  0
  6  7  1  0
  7  8  1  0
  8  9  1  0
  2 10  1  0
 10 11  2  0
 11 12  1  0
 12 13  1  0
 13 14  2  0
 14 15  1  0
 15 16  2  0
 16 17  1  0
 17 18  2  0
 11 19  1  0
 19 20  1  0
 20 21  2  0
 21 22  1  0
 22 23  1  0
 22 24  1  0
 24  1  1  0
 18 13  1  0
 24 19  2  0
  1 25  1  0
  4 26  1  0
  4 27  1  0
  5 28  1  0
  5 29  1  0
  6 30  1  0
  6 31  1  0
  7 32  1  0
  7 33  1  0
  8 34  1  0
  8 35  1  0
  9 36  1  0
  9 37  1  0
  9 38  1  0
 12 39  1  0
 14 40  1  0
 15 41  1  0
 16 42  1  0
 17 43  1  0
 18 44  1  0
 20 45  1  0
 23 46  1  0
 23 47  1  0
 23 48  1  0
M  END
>  <ScrubInfo>  (4) 
{"isomerGroup": 0, "isomerId": 3, "confId": 0, "nr_conformers:": 1, "nr_isomers:": 9}

$$$$
_i4
     RDKit          3D

 48 50  0  0  0  0  0  0  0  0999 V2000
   -3.4417    0.2311   -2.4642 N   0  0  0  0  0  0  0  0  0  0  0  0
   -3.4387    0.0894   -1.0801 C   0  0  0  0  0  0  0  0  0  0  0  0
   -2.2469    0.3434   -0.5179 C   0  0  0  0  0  0  0  0  0  0  0  0
   -1.6230    0.3386    0.7994 C   0  0  0  0  0  0  0  0  0  0  0  0
   -2.1243    0.1117    1.9680 N   0  0  0  0  0  0  0  0  0  0  0  0
   -3.4820   -0.1770    2.1170 C   0  0  0  0  0  0  0  0  0  0  0  0
   -3.9238   -1.5027    2.1257 C   0  0  0  0  0  0  0  0  0  0  0  0
   -5.2791   -1.7950    2.2901 C   0  0  0  0  0  0  0  0  0  0  0  0
   -6.1982   -0.7604    2.4629 C   0  0  0  0  0  0  0  0  0  0  0  0
   -5.7617    0.5640    2.4814 C   0  0  0  0  0  0  0  0  0  0  0  0
   -4.4057    0.8528    2.3165 C   0  0  0  0  0  0  0  0  0  0  0  0
   -0.2815    0.6155    0.7783 N   0  0  0  0  0  0  0  0  0  0  0  0
    0.3705    0.9085   -0.3077 C   0  0  0  0  0  0  0  0  0  0  0  0
    1.7026    1.1557   -0.1530 N   0  0  0  0  0  0  0  0  0  0  0  0
    2.6776    1.0678   -1.2150 C   0  0  0  0  0  0  0  0  0  0  0  0
    2.9767   -0.3810   -1.5961 C   0  0  0  0  0  0  0  0  0  0  0  0
    3.5490   -1.2654   -0.4805 C   0  0  0  0  0  0  0  0  0  0  0  0
    4.9434   -0.8585    0.0091 C   0  0  0  0  0  0  0  0  0  0  0  0
    4.9149   -0.0079    1.2803 C   0  0  0  0  0  0  0  0  0  0  0  0
    6.3213    0.3224    1.7572 C   0  0  0  0  0  0  0  0  0  0  0  0
   -0.1698    0.9826   -1.5630 N   0  0  0  0  0  0  0  0  0  0  0  0
   -1.4261    0.7304   -1.6805 C   0  0  0  0  0  0  0  0  0  0  0  0
   -2.2101    0.7505   -2.8351 N   0  0  0  0  0  0  0  0  0  0  0  0
   -1.6502    0.3901   -4.1231 C   0  0  0  0  0  0  0  0  0  0  0  0
   -4.2639    0.7275   -2.8155 H   0  0  0  0  0  0  0  0  0  0  0  0
   -4.3591   -0.2000   -0.5945 H   0  0  0  0  0  0  0  0  0  0  0  0
   -3.2039   -2.3083    2.0086 H   0  0  0  0  0  0  0  0  0  0  0  0
   -5.6138   -2.8290    2.2948 H   0  0  0  0  0  0  0  0  0  0  0  0
   -7.2525   -0.9873    2.6000 H   0  0  0  0  0  0  0  0  0  0  0  0
   -6.4728    1.3709    2.6366 H   0  0  0  0  0  0  0  0  0  0  0  0
   -4.0611    1.8830    2.3499 H   0  0  0  0  0  0  0  0  0  0  0  0
    2.0244    0.9169    0.7771 H   0  0  0  0  0  0  0  0  0  0  0  0
    2.3229    1.6112   -2.0989 H   0  0  0  0  0  0  0  0  0  0  0  0
    3.5957    1.5762   -0.9047 H   0  0  0  0  0  0  0  0  0  0  0  0
    3.6761   -0.3808   -2.4416 H   0  0  0  0  0  0  0  0  0  0  0  0
    2.0570   -0.8541   -1.9631 H   0  0  0  0  0  0  0  0  0  0  0  0
    3.6288   -2.2789   -0.8955 H   0  0  0  0  0  0  0  0  0  0  0  0
    2.8449   -1.3391    0.3562 H   0  0  0  0  0  0  0  0  0  0  0  0
    5.5043   -1.7756    0.2316 H   0  0  0  0  0  0  0  0  0  0  0  0
    5.4957   -0.3422   -0.7849 H   0  0  0  0  0  0  0  0  0  0  0  0
    4.3861   -0.5466    2.0753 H   0  0  0  0  0  0  0  0  0  0  0  0
    4.3748    0.9273    1.1111 H   0  0  0  0  0  0  0  0  0  0  0  0
    6.8694    0.8892    0.9979 H   0  0  0  0  0  0  0  0  0  0  0  0
    6.8849   -0.5892    1.9801 H   0  0  0  0  0  0  0  0  0  0  0  0
    6.2800    0.9270    2.6686 H   0  0  0  0  0  0  0  0  0  0  0  0
   -2.3869    0.5505   -4.9170 H   0  0  0  0  0  0  0  0  0  0  0  0
   -1.3487   -0.6626   -4.1358 H   0  0  0  0  0  0  0  0  0  0  0  0
   -0.7754    1.0079   -4.3498 H   0  0  0  0  0  0  0  0  0  0  0  0
  1  2  1  0
  2  3  2  0
  3  4  1  0
  4  5  2  3
  5  6  1  0
  6  7  2  0
  7  8  1  0
  8  9  2  0
  9 10  1  0
 10 11  2  0
  4 12  1  0
 12 13  2  0
 13 14  1  0
 14 15  1  0
 15 16  1  0
 16 17  1  0
 17 18  1  0
 18 19  1  0
 19 20  1  0
 13 21  1  0
 21 22  2  0
 22 23  1  0
 23 24  1  0
 23  1  1  0
 22  3  1  0
 11  6  1  0
  1 25  1  0
  2 26  1  0
  7 27  1  0
  8 28  1  0
  9 29  1  0
 10 30  1  0
 11 31  1  0
 14 32  1  0
 15 33  1  0
 15 34  1  0
 16 35  1  0
 16 36  1  0
 17 37  1  0
 17 38  1  0
 18 39  1  0
 18 40  1  0
 19 41  1  0
 19 42  1  0
 20 43  1  0
 20 44  1  0
 20 45  1  0
 24 46  1  0
 24 47  1  0
 24 48  1  0
M  END
>  <ScrubInfo>  (5) 
{"isomerGroup": 0, "isomerId": 4, "confId": 0, "nr_conformers:": 1, "nr_isomers:": 9}

$$$$
_i5
     RDKit          3D

 48 50  0  0  0  0  0  0  0  0999 V2000
   -0.7306   -1.2449    0.1985 N   0  0  0  0  0  0  0  0  0  0  0  0
   -0.0982   -0.8441   -0.9510 C   0  0  0  0  0  0  0  0  0  0  0  0
    1.0585   -1.5108   -1.2403 N   0  0  0  0  0  0  0  0  0  0  0  0
    2.1518   -1.5812   -0.2771 C   0  0  0  0  0  0  0  0  0  0  0  0
    3.3151   -2.3611   -0.8847 C   0  0  0  0  0  0  0  0  0  0  0  0
    4.4568   -2.6552    0.0941 C   0  0  0  0  0  0  0  0  0  0  0  0
    5.1758   -1.4124    0.6299 C   0  0  0  0  0  0  0  0  0  0  0  0
    4.6633   -0.9695    2.0022 C   0  0  0  0  0  0  0  0  0  0  0  0
    5.4003    0.2659    2.4965 C   0  0  0  0  0  0  0  0  0  0  0  0
   -0.5189    0.0814   -1.7643 N   0  0  0  0  0  0  0  0  0  0  0  0
   -1.6963    0.7666   -1.4841 C   0  0  0  0  0  0  0  0  0  0  0  0
   -2.0114    1.7104   -2.3132 N   0  0  0  0  0  0  0  0  0  0  0  0
   -3.1582    2.4884   -2.1619 C   0  0  0  0  0  0  0  0  0  0  0  0
   -4.3419    2.1302   -2.8128 C   0  0  0  0  0  0  0  0  0  0  0  0
   -5.4858    2.9206   -2.6851 C   0  0  0  0  0  0  0  0  0  0  0  0
   -5.4452    4.0848   -1.9184 C   0  0  0  0  0  0  0  0  0  0  0  0
   -4.2599    4.4641   -1.2891 C   0  0  0  0  0  0  0  0  0  0  0  0
   -3.1177    3.6715   -1.4187 C   0  0  0  0  0  0  0  0  0  0  0  0
   -2.4291    0.3422   -0.3013 C   0  0  0  0  0  0  0  0  0  0  0  0
   -3.6380    0.6576    0.3460 C   0  0  0  0  0  0  0  0  0  0  0  0
   -3.8525   -0.0868    1.4435 N   0  0  0  0  0  0  0  0  0  0  0  0
   -2.7675   -0.8910    1.5024 N   0  0  0  0  0  0  0  0  0  0  0  0
   -2.6582   -1.8420    2.5788 C   0  0  0  0  0  0  0  0  0  0  0  0
   -1.9031   -0.6540    0.4827 C   0  0  0  0  0  0  0  0  0  0  0  0
   -0.4209   -2.1141    0.6107 H   0  0  0  0  0  0  0  0  0  0  0  0
    1.3947   -1.1526   -2.1343 H   0  0  0  0  0  0  0  0  0  0  0  0
    1.8175   -2.0779    0.6400 H   0  0  0  0  0  0  0  0  0  0  0  0
    2.4672   -0.5635   -0.0243 H   0  0  0  0  0  0  0  0  0  0  0  0
    2.9430   -3.3192   -1.2709 H   0  0  0  0  0  0  0  0  0  0  0  0
    3.7089   -1.8171   -1.7529 H   0  0  0  0  0  0  0  0  0  0  0  0
    4.0940   -3.2809    0.9182 H   0  0  0  0  0  0  0  0  0  0  0  0
    5.1936   -3.2613   -0.4489 H   0  0  0  0  0  0  0  0  0  0  0  0
    6.2422   -1.6522    0.7307 H   0  0  0  0  0  0  0  0  0  0  0  0
    5.1091   -0.5885   -0.0903 H   0  0  0  0  0  0  0  0  0  0  0  0
    4.8013   -1.7807    2.7268 H   0  0  0  0  0  0  0  0  0  0  0  0
    3.5922   -0.7512    1.9672 H   0  0  0  0  0  0  0  0  0  0  0  0
    5.2564    1.1079    1.8120 H   0  0  0  0  0  0  0  0  0  0  0  0
    5.0262    0.5614    3.4818 H   0  0  0  0  0  0  0  0  0  0  0  0
    6.4743    0.0735    2.5848 H   0  0  0  0  0  0  0  0  0  0  0  0
   -4.3679    1.2315   -3.4232 H   0  0  0  0  0  0  0  0  0  0  0  0
   -6.4037    2.6312   -3.1897 H   0  0  0  0  0  0  0  0  0  0  0  0
   -6.3341    4.7030   -1.8215 H   0  0  0  0  0  0  0  0  0  0  0  0
   -4.2213    5.3793   -0.7046 H   0  0  0  0  0  0  0  0  0  0  0  0
   -2.1896    3.9749   -0.9419 H   0  0  0  0  0  0  0  0  0  0  0  0
   -4.3883    1.3890    0.0787 H   0  0  0  0  0  0  0  0  0  0  0  0
   -2.8276   -1.3193    3.5239 H   0  0  0  0  0  0  0  0  0  0  0  0
   -1.6615   -2.2883    2.5817 H   0  0  0  0  0  0  0  0  0  0  0  0
   -3.4148   -2.6161    2.4293 H   0  0  0  0  0  0  0  0  0  0  0  0
  1  2  1  0
  2  3  1  0
  3  4  1  0
  4  5  1  0
  5  6  1  0
  6  7  1  0
  7  8  1  0
  8  9  1  0
  2 10  2  0
 10 11  1  0
 11 12  2  3
 12 13  1  0
 13 14  2  0
 14 15  1  0
 15 16  2  0
 16 17  1  0
 17 18  2  0
 11 19  1  0
 19 20  1  0
 20 21  2  0
 21 22  1  0
 22 23  1  0
 22 24  1  0
 24  1  1  0
 18 13  1  0
 24 19  2  0
  1 25  1  0
  3 26  1  0
  4 27  1  0
  4 28  1  0
  5 29  1  0
  5 30  1  0
  6 31  1  0
  6 32  1  0
  7 33  1  0
  7 34  1  0
  8 35  1  0
  8 36  1  0
  9 37  1  0
  9 38  1  0
  9 39  1  0
 14 40  1  0
 15 41  1  0
 16 42  1  0
 17 43  1  0
 18 44  1  0
 20 45  1  0
 23 46  1  0
 23 47  1  0
 23 48  1  0
M  END
>  <ScrubInfo>  (6) 
{"isomerGroup": 0, "isomerId": 5, "confId": 0, "nr_conformers:": 1, "nr_isomers:": 9}

$$$$
_i6
     RDKit          3D

 48 50  0  0  0  0  0  0  0  0999 V2000
    3.7023   -4.0479   -2.3156 N   0  0  0  0  0  0  0  0  0  0  0  0
    3.9109   -3.0028   -1.4218 C   0  0  0  0  0  0  0  0  0  0  0  0
    2.8058   -2.2778   -1.1970 C   0  0  0  0  0  0  0  0  0  0  0  0
    2.3948   -1.1260   -0.3867 C   0  0  0  0  0  0  0  0  0  0  0  0
    3.3347   -0.4975    0.4103 N   0  0  0  0  0  0  0  0  0  0  0  0
    3.2331    0.6862    1.1671 C   0  0  0  0  0  0  0  0  0  0  0  0
    4.2517    0.9728    2.0940 C   0  0  0  0  0  0  0  0  0  0  0  0
    4.2068    2.1161    2.8981 C   0  0  0  0  0  0  0  0  0  0  0  0
    3.1350    2.9955    2.7946 C   0  0  0  0  0  0  0  0  0  0  0  0
    2.1127    2.7279    1.8900 C   0  0  0  0  0  0  0  0  0  0  0  0
    2.1624    1.5818    1.0878 C   0  0  0  0  0  0  0  0  0  0  0  0
    1.1430   -0.7735   -0.4584 N   0  0  0  0  0  0  0  0  0  0  0  0
    0.2689   -1.4784   -1.2586 C   0  0  0  0  0  0  0  0  0  0  0  0
   -0.9814   -1.1747   -1.2540 N   0  0  0  0  0  0  0  0  0  0  0  0
   -1.4112   -0.0847   -0.3828 C   0  0  0  0  0  0  0  0  0  0  0  0
   -2.9275    0.0588   -0.5130 C   0  0  0  0  0  0  0  0  0  0  0  0
   -3.4589    1.1881    0.3716 C   0  0  0  0  0  0  0  0  0  0  0  0
   -4.9763    1.3317    0.2349 C   0  0  0  0  0  0  0  0  0  0  0  0
   -5.5736    2.3778    1.1785 C   0  0  0  0  0  0  0  0  0  0  0  0
   -5.1206    3.7978    0.8763 C   0  0  0  0  0  0  0  0  0  0  0  0
    0.5826   -2.5151   -2.1037 N   0  0  0  0  0  0  0  0  0  0  0  0
    1.8077   -2.9042   -2.0896 C   0  0  0  0  0  0  0  0  0  0  0  0
    2.4173   -3.9169   -2.8304 N   0  0  0  0  0  0  0  0  0  0  0  0
    1.6782   -5.1050   -3.2137 C   0  0  0  0  0  0  0  0  0  0  0  0
    4.4494   -4.1561   -3.0058 H   0  0  0  0  0  0  0  0  0  0  0  0
    4.8985   -2.8673   -1.0069 H   0  0  0  0  0  0  0  0  0  0  0  0
    4.2514   -0.9205    0.4572 H   0  0  0  0  0  0  0  0  0  0  0  0
    5.0975    0.2995    2.2084 H   0  0  0  0  0  0  0  0  0  0  0  0
    5.0062    2.3147    3.6070 H   0  0  0  0  0  0  0  0  0  0  0  0
    3.0930    3.8847    3.4178 H   0  0  0  0  0  0  0  0  0  0  0  0
    1.2695    3.4085    1.8028 H   0  0  0  0  0  0  0  0  0  0  0  0
    1.3470    1.4219    0.3898 H   0  0  0  0  0  0  0  0  0  0  0  0
   -0.9342    0.8568   -0.6807 H   0  0  0  0  0  0  0  0  0  0  0  0
   -1.1586   -0.2978    0.6631 H   0  0  0  0  0  0  0  0  0  0  0  0
   -3.1893    0.2531   -1.5607 H   0  0  0  0  0  0  0  0  0  0  0  0
   -3.4099   -0.8876   -0.2383 H   0  0  0  0  0  0  0  0  0  0  0  0
   -2.9662    2.1255    0.0902 H   0  0  0  0  0  0  0  0  0  0  0  0
   -3.2014    0.9862    1.4183 H   0  0  0  0  0  0  0  0  0  0  0  0
   -5.2325    1.5827   -0.8016 H   0  0  0  0  0  0  0  0  0  0  0  0
   -5.4489    0.3657    0.4519 H   0  0  0  0  0  0  0  0  0  0  0  0
   -6.6662    2.3361    1.0954 H   0  0  0  0  0  0  0  0  0  0  0  0
   -5.3254    2.1289    2.2169 H   0  0  0  0  0  0  0  0  0  0  0  0
   -5.3263    4.0628   -0.1656 H   0  0  0  0  0  0  0  0  0  0  0  0
   -5.6545    4.5064    1.5177 H   0  0  0  0  0  0  0  0  0  0  0  0
   -4.0503    3.9259    1.0620 H   0  0  0  0  0  0  0  0  0  0  0  0
    0.7721   -4.8345   -3.7651 H   0  0  0  0  0  0  0  0  0  0  0  0
    2.2888   -5.7390   -3.8648 H   0  0  0  0  0  0  0  0  0  0  0  0
    1.3918   -5.6864   -2.3311 H   0  0  0  0  0  0  0  0  0  0  0  0
  1  2  1  0
  2  3  2  0
  3  4  1  0
  4  5  1  0
  5  6  1  0
  6  7  2  0
  7  8  1  0
  8  9  2  0
  9 10  1  0
 10 11  2  0
  4 12  2  0
 12 13  1  0
 13 14  2  3
 14 15  1  0
 15 16  1  0
 16 17  1  0
 17 18  1  0
 18 19  1  0
 19 20  1  0
 13 21  1  0
 21 22  2  0
 22 23  1  0
 23 24  1  0
 23  1  1  0
 22  3  1  0
 11  6  1  0
  1 25  1  0
  2 26  1  0
  5 27  1  0
  7 28  1  0
  8 29  1  0
  9 30  1  0
 10 31  1  0
 11 32  1  0
 15 33  1  0
 15 34  1  0
 16 35  1  0
 16 36  1  0
 17 37  1  0
 17 38  1  0
 18 39  1  0
 18 40  1  0
 19 41  1  0
 19 42  1  0
 20 43  1  0
 20 44  1  0
 20 45  1  0
 24 46  1  0
 24 47  1  0
 24 48  1  0
M  END
>  <ScrubInfo>  (7) 
{"isomerGroup": 0, "isomerId": 6, "confId": 0, "nr_conformers:": 1, "nr_isomers:": 9}

$$$$
_i7
     RDKit          3D

 48 50  0  0  0  0  0  0  0  0999 V2000
   -2.1321    0.5737   -2.2827 N   0  0  0  0  0  0  0  0  0  0  0  0
   -2.8425    0.3916   -1.1012 C   0  0  0  0  0  0  0  0  0  0  0  0
   -2.0619    0.1611   -0.0359 C   0  0  0  0  0  0  0  0  0  0  0  0
   -2.1642   -0.0633    1.4200 C   0  0  0  0  0  0  0  0  0  0  0  0
   -3.2250   -0.1518    2.1670 N   0  0  0  0  0  0  0  0  0  0  0  0
   -4.5023   -0.0390    1.6116 C   0  0  0  0  0  0  0  0  0  0  0  0
   -5.1800   -1.1762    1.1638 C   0  0  0  0  0  0  0  0  0  0  0  0
   -6.4643   -1.0676    0.6269 C   0  0  0  0  0  0  0  0  0  0  0  0
   -7.0830    0.1798    0.5495 C   0  0  0  0  0  0  0  0  0  0  0  0
   -6.4226    1.3156    1.0168 C   0  0  0  0  0  0  0  0  0  0  0  0
   -5.1385    1.2038    1.5535 C   0  0  0  0  0  0  0  0  0  0  0  0
   -0.9355   -0.1838    2.0105 N   0  0  0  0  0  0  0  0  0  0  0  0
    0.2880   -0.1285    1.4057 C   0  0  0  0  0  0  0  0  0  0  0  0
    1.3432   -0.2437    2.1433 N   0  0  0  0  0  0  0  0  0  0  0  0
    2.6593   -0.1764    1.5022 C   0  0  0  0  0  0  0  0  0  0  0  0
    3.0987   -1.5765    1.0817 C   0  0  0  0  0  0  0  0  0  0  0  0
    4.5277   -1.6478    0.5342 C   0  0  0  0  0  0  0  0  0  0  0  0
    4.7408   -0.8812   -0.7761 C   0  0  0  0  0  0  0  0  0  0  0  0
    5.3873    0.4897   -0.5655 C   0  0  0  0  0  0  0  0  0  0  0  0
    5.5533    1.2318   -1.8827 C   0  0  0  0  0  0  0  0  0  0  0  0
    0.4085    0.0333    0.0422 N   0  0  0  0  0  0  0  0  0  0  0  0
   -0.6846    0.1536   -0.6443 C   0  0  0  0  0  0  0  0  0  0  0  0
   -0.7950    0.3058   -2.0284 N   0  0  0  0  0  0  0  0  0  0  0  0
    0.2243    1.0060   -2.7864 C   0  0  0  0  0  0  0  0  0  0  0  0
   -2.5457    0.0887   -3.0824 H   0  0  0  0  0  0  0  0  0  0  0  0
   -3.9203    0.4502   -1.1402 H   0  0  0  0  0  0  0  0  0  0  0  0
   -4.7043   -2.1501    1.2398 H   0  0  0  0  0  0  0  0  0  0  0  0
   -6.9844   -1.9568    0.2804 H   0  0  0  0  0  0  0  0  0  0  0  0
   -8.0861    0.2647    0.1388 H   0  0  0  0  0  0  0  0  0  0  0  0
   -6.9095    2.2864    0.9736 H   0  0  0  0  0  0  0  0  0  0  0  0
   -4.6298    2.0863    1.9318 H   0  0  0  0  0  0  0  0  0  0  0  0
   -0.9192   -0.3226    3.0096 H   0  0  0  0  0  0  0  0  0  0  0  0
    2.6726    0.5246    0.6614 H   0  0  0  0  0  0  0  0  0  0  0  0
    3.3670    0.2221    2.2385 H   0  0  0  0  0  0  0  0  0  0  0  0
    2.4036   -1.9785    0.3343 H   0  0  0  0  0  0  0  0  0  0  0  0
    3.0293   -2.2465    1.9486 H   0  0  0  0  0  0  0  0  0  0  0  0
    5.2419   -1.3223    1.2998 H   0  0  0  0  0  0  0  0  0  0  0  0
    4.7440   -2.7069    0.3431 H   0  0  0  0  0  0  0  0  0  0  0  0
    5.4085   -1.4735   -1.4152 H   0  0  0  0  0  0  0  0  0  0  0  0
    3.7957   -0.7810   -1.3229 H   0  0  0  0  0  0  0  0  0  0  0  0
    4.7885    1.1032    0.1139 H   0  0  0  0  0  0  0  0  0  0  0  0
    6.3718    0.3646   -0.0994 H   0  0  0  0  0  0  0  0  0  0  0  0
    4.5833    1.4045   -2.3598 H   0  0  0  0  0  0  0  0  0  0  0  0
    6.1823    0.6648   -2.5765 H   0  0  0  0  0  0  0  0  0  0  0  0
    6.0262    2.2041   -1.7128 H   0  0  0  0  0  0  0  0  0  0  0  0
    0.2642    2.0624   -2.5010 H   0  0  0  0  0  0  0  0  0  0  0  0
    0.0121    0.9431   -3.8587 H   0  0  0  0  0  0  0  0  0  0  0  0
    1.2089    0.5589   -2.6146 H   0  0  0  0  0  0  0  0  0  0  0  0
  1  2  1  0
  2  3  2  0
  3  4  1  0
  4  5  2  3
  5  6  1  0
  6  7  2  0
  7  8  1  0
  8  9  2  0
  9 10  1  0
 10 11  2  0
  4 12  1  0
 12 13  1  0
 13 14  2  3
 14 15  1  0
 15 16  1  0
 16 17  1  0
 17 18  1  0
 18 19  1  0
 19 20  1  0
 13 21  1  0
 21 22  2  0
 22 23  1  0
 23 24  1  0
 23  1  1  0
 22  3  1  0
 11  6  1  0
  1 25  1  0
  2 26  1  0
  7 27  1  0
  8 28  1  0
  9 29  1  0
 10 30  1  0
 11 31  1  0
 12 32  1  0
 15 33  1  0
 15 34  1  0
 16 35  1  0
 16 36  1  0
 17 37  1  0
 17 38  1  0
 18 39  1  0
 18 40  1  0
 19 41  1  0
 19 42  1  0
 20 43  1  0
 20 44  1  0
 20 45  1  0
 24 46  1  0
 24 47  1  0
 24 48  1  0
M  END
>  <ScrubInfo>  (8) 
{"isomerGroup": 0, "isomerId": 7, "confId": 0, "nr_conformers:": 1, "nr_isomers:": 9}

$$$$
_i8
     RDKit          3D

 48 50  0  0  0  0  0  0  0  0999 V2000
   -0.8331   -2.2789    0.3045 N   0  0  0  0  0  0  0  0  0  0  0  0
   -0.0189   -1.1866    0.0863 C   0  0  0  0  0  0  0  0  0  0  0  0
    1.2581   -1.3725    0.0617 N   0  0  0  0  0  0  0  0  0  0  0  0
    2.1183   -0.2152   -0.1694 C   0  0  0  0  0  0  0  0  0  0  0  0
    3.5708   -0.6894   -0.1537 C   0  0  0  0  0  0  0  0  0  0  0  0
    4.5401    0.4701   -0.3905 C   0  0  0  0  0  0  0  0  0  0  0  0
    5.9930   -0.0097   -0.3703 C   0  0  0  0  0  0  0  0  0  0  0  0
    7.0001    1.0921   -0.7068 C   0  0  0  0  0  0  0  0  0  0  0  0
    7.0506    2.2056    0.3280 C   0  0  0  0  0  0  0  0  0  0  0  0
   -0.7193   -0.0076   -0.0803 N   0  0  0  0  0  0  0  0  0  0  0  0
   -2.0758    0.2536   -0.0669 C   0  0  0  0  0  0  0  0  0  0  0  0
   -2.5164    1.4626   -0.2495 N   0  0  0  0  0  0  0  0  0  0  0  0
   -3.8786    1.7665   -0.2421 C   0  0  0  0  0  0  0  0  0  0  0  0
   -4.5096    2.1484    0.9450 C   0  0  0  0  0  0  0  0  0  0  0  0
   -5.8656    2.4810    0.9487 C   0  0  0  0  0  0  0  0  0  0  0  0
   -6.5933    2.4492   -0.2405 C   0  0  0  0  0  0  0  0  0  0  0  0
   -5.9643    2.0945   -1.4334 C   0  0  0  0  0  0  0  0  0  0  0  0
   -4.6081    1.7625   -1.4342 C   0  0  0  0  0  0  0  0  0  0  0  0
   -2.8428   -0.9583    0.1666 C   0  0  0  0  0  0  0  0  0  0  0  0
   -4.1978   -1.3228    0.2767 C   0  0  0  0  0  0  0  0  0  0  0  0
   -4.3690   -2.6348    0.5005 N   0  0  0  0  0  0  0  0  0  0  0  0
   -3.1091   -3.1213    0.5428 N   0  0  0  0  0  0  0  0  0  0  0  0
   -2.9056   -4.5304    0.7665 C   0  0  0  0  0  0  0  0  0  0  0  0
   -2.1762   -2.1520    0.3410 C   0  0  0  0  0  0  0  0  0  0  0  0
   -0.3332   -3.1518    0.4258 H   0  0  0  0  0  0  0  0  0  0  0  0
    1.8944    0.2410   -1.1411 H   0  0  0  0  0  0  0  0  0  0  0  0
    1.9712    0.5348    0.6168 H   0  0  0  0  0  0  0  0  0  0  0  0
    3.7137   -1.4571   -0.9245 H   0  0  0  0  0  0  0  0  0  0  0  0
    3.7907   -1.1663    0.8097 H   0  0  0  0  0  0  0  0  0  0  0  0
    4.3212    0.9395   -1.3572 H   0  0  0  0  0  0  0  0  0  0  0  0
    4.3848    1.2303    0.3832 H   0  0  0  0  0  0  0  0  0  0  0  0
    6.1137   -0.8183   -1.1019 H   0  0  0  0  0  0  0  0  0  0  0  0
    6.2287   -0.4355    0.6126 H   0  0  0  0  0  0  0  0  0  0  0  0
    7.9966    0.6404   -0.7804 H   0  0  0  0  0  0  0  0  0  0  0  0
    6.7724    1.5185   -1.6906 H   0  0  0  0  0  0  0  0  0  0  0  0
    7.8533    2.9088    0.0836 H   0  0  0  0  0  0  0  0  0  0  0  0
    7.2445    1.8048    1.3279 H   0  0  0  0  0  0  0  0  0  0  0  0
    6.1142    2.7702    0.3562 H   0  0  0  0  0  0  0  0  0  0  0  0
   -0.1736    0.8236   -0.2423 H   0  0  0  0  0  0  0  0  0  0  0  0
   -3.9407    2.1856    1.8698 H   0  0  0  0  0  0  0  0  0  0  0  0
   -6.3510    2.7696    1.8772 H   0  0  0  0  0  0  0  0  0  0  0  0
   -7.6486    2.7102   -0.2391 H   0  0  0  0  0  0  0  0  0  0  0  0
   -6.5266    2.0817   -2.3633 H   0  0  0  0  0  0  0  0  0  0  0  0
   -4.1161    1.4983   -2.3661 H   0  0  0  0  0  0  0  0  0  0  0  0
   -5.0823   -0.7048    0.2043 H   0  0  0  0  0  0  0  0  0  0  0  0
   -1.9101   -4.6957    1.1845 H   0  0  0  0  0  0  0  0  0  0  0  0
   -3.6587   -4.8899    1.4727 H   0  0  0  0  0  0  0  0  0  0  0  0
   -3.0060   -5.0446   -0.1922 H   0  0  0  0  0  0  0  0  0  0  0  0
  1  2  1  0
  2  3  2  3
  3  4  1  0
  4  5  1  0
  5  6  1  0
  6  7  1  0
  7  8  1  0
  8  9  1  0
  2 10  1  0
 10 11  1  0
 11 12  2  3
 12 13  1  0
 13 14  2  0
 14 15  1  0
 15 16  2  0
 16 17  1  0
 17 18  2  0
 11 19  1  0
 19 20  1  0
 20 21  2  0
 21 22  1  0
 22 23  1  0
 22 24  1  0
 24  1  1  0
 18 13  1  0
 24 19  2  0
  1 25  1  0
  4 26  1  0
  4 27  1  0
  5 28  1  0
  5 29  1  0
  6 30  1  0
  6 31  1  0
  7 32  1  0
  7 33  1  0
  8 34  1  0
  8 35  1  0
  9 36  1  0
  9 37  1  0
  9 38  1  0
 10 39  1  0
 14 40  1  0
 15 41  1  0
 16 42  1  0
 17 43  1  0
 18 44  1  0
 20 45  1  0
 23 46  1  0
 23 47  1  0
 23 48  1  0
M  END
>  <ScrubInfo>  (9) 
{"isomerGroup": 0, "isomerId": 8, "confId": 0, "nr_conformers:": 1, "nr_isomers:": 9}

$$$$
