REMARK SMILES COCCNc1nc(Nc2ccc(Br)cc2C)c2cnn(C)c2n1
REMARK SMILES IDX 5 1 4 3 3 4 2 5 1 6 6 7 7 8 24 9 8 10 23 11 18 12 21 13
REMARK SMILES IDX 19 14 20 15 22 16 9 17 10 19 11 20 16 21 12 22 15 23 13 24
REMARK SMILES IDX 17 25 14 26
REMARK H PARENT 5 2 9 18
ROOT
ATOM      1  N   UNL     1       1.874  -0.788  -0.957  1.00  0.00    -0.352 N 
ATOM      2  H   UNL     1       1.469  -1.544  -0.412  1.00  0.00     0.163 HD
ENDROOT
BRANCH   1   3
ATOM      3  C   UNL     1       3.268  -0.495  -0.652  1.00  0.00     0.144 C 
BRANCH   3   4
ATOM      4  C   UNL     1       4.133  -1.739  -0.875  1.00  0.00     0.181 C 
BRANCH   4   5
ATOM      5  O   UNL     1       5.482  -1.453  -0.501  1.00  0.00    -0.383 OA
ATOM      6  C   UNL     1       6.332  -2.573  -0.714  1.00  0.00     0.194 C 
ENDBRANCH   4   5
ENDBRANCH   3   4
ENDBRANCH   1   3
BRANCH   1   7
ATOM      7  C   UNL     1       1.012   0.286  -0.751  1.00  0.00     0.226 A 
ATOM      8  N   UNL     1      -0.187  -0.058  -0.250  1.00  0.00    -0.195 NA
ATOM      9  N   UNL     1       1.408   1.530  -1.046  1.00  0.00    -0.193 NA
ATOM     10  C   UNL     1      -1.138   0.883  -0.003  1.00  0.00     0.147 A 
ATOM     11  C   UNL     1       0.465   2.447  -0.793  1.00  0.00     0.165 A 
ATOM     12  C   UNL     1      -0.796   2.212  -0.282  1.00  0.00     0.082 A 
ATOM     13  N   UNL     1       0.552   3.799  -0.982  1.00  0.00    -0.250 N 
ATOM     14  C   UNL     1      -1.383   3.492  -0.202  1.00  0.00     0.149 A 
ATOM     15  N   UNL     1      -0.570   4.467  -0.622  1.00  0.00    -0.179 NA
ATOM     16  C   UNL     1       1.678   4.531  -1.504  1.00  0.00     0.176 C 
BRANCH  10  17
ATOM     17  N   UNL     1      -2.386   0.547   0.544  1.00  0.00    -0.339 N 
ATOM     18  H   UNL     1      -2.965   1.348   0.749  1.00  0.00     0.168 HD
BRANCH  17  19
ATOM     19  C   UNL     1      -3.026  -0.693   0.747  1.00  0.00     0.043 A 
ATOM     20  C   UNL     1      -2.565  -1.877   0.152  1.00  0.00     0.027 A 
ATOM     21  C   UNL     1      -4.131  -0.779   1.629  1.00  0.00    -0.026 A 
ATOM     22  C   UNL     1      -3.187  -3.108   0.387  1.00  0.00     0.018 A 
ATOM     23  C   UNL     1      -4.754  -2.021   1.858  1.00  0.00     0.021 A 
ATOM     24  C   UNL     1      -4.280  -3.173   1.238  1.00  0.00     0.018 A 
ATOM     25  C   UNL     1      -4.672   0.432   2.342  1.00  0.00     0.046 C 
ATOM     26  Br  UNL     1      -5.126  -4.832   1.560  1.00  0.00    -0.051 Br
ENDBRANCH  17  19
ENDBRANCH  10  17
ENDBRANCH   1   7
TORSDOF 6
