_i0
     RDKit          3D

 43 45  0  0  0  0  0  0  0  0999 V2000
    6.3316   -2.5729   -0.7139 C   0  0  0  0  0  0  0  0  0  0  0  0
    5.4824   -1.4529   -0.5008 O   0  0  0  0  0  0  0  0  0  0  0  0
    4.1330   -1.7393   -0.8745 C   0  0  0  0  0  0  0  0  0  0  0  0
    3.2680   -0.4946   -0.6521 C   0  0  0  0  0  0  0  0  0  0  0  0
    1.8742   -0.7881   -0.9572 N   0  0  0  0  0  0  0  0  0  0  0  0
    1.0125    0.2856   -0.7509 C   0  0  0  0  0  0  0  0  0  0  0  0
   -0.1872   -0.0577   -0.2496 N   0  0  0  0  0  0  0  0  0  0  0  0
   -1.1381    0.8826   -0.0031 C   0  0  0  0  0  0  0  0  0  0  0  0
   -2.3865    0.5469    0.5436 N   0  0  0  0  0  0  0  0  0  0  0  0
   -3.0255   -0.6928    0.7474 C   0  0  0  0  0  0  0  0  0  0  0  0
   -2.5652   -1.8774    0.1519 C   0  0  0  0  0  0  0  0  0  0  0  0
   -3.1865   -3.1077    0.3870 C   0  0  0  0  0  0  0  0  0  0  0  0
   -4.2800   -3.1731    1.2384 C   0  0  0  0  0  0  0  0  0  0  0  0
   -5.1261   -4.8319    1.5598 Br  0  0  0  0  0  0  0  0  0  0  0  0
   -4.7536   -2.0207    1.8583 C   0  0  0  0  0  0  0  0  0  0  0  0
   -4.1306   -0.7789    1.6294 C   0  0  0  0  0  0  0  0  0  0  0  0
   -4.6721    0.4325    2.3425 C   0  0  0  0  0  0  0  0  0  0  0  0
   -0.7962    2.2119   -0.2823 C   0  0  0  0  0  0  0  0  0  0  0  0
   -1.3834    3.4921   -0.2019 C   0  0  0  0  0  0  0  0  0  0  0  0
   -0.5697    4.4672   -0.6219 N   0  0  0  0  0  0  0  0  0  0  0  0
    0.5516    3.7990   -0.9823 N   0  0  0  0  0  0  0  0  0  0  0  0
    1.6782    4.5310   -1.5040 C   0  0  0  0  0  0  0  0  0  0  0  0
    0.4652    2.4470   -0.7927 C   0  0  0  0  0  0  0  0  0  0  0  0
    1.4080    1.5295   -1.0464 N   0  0  0  0  0  0  0  0  0  0  0  0
    6.3466   -2.8462   -1.7734 H   0  0  0  0  0  0  0  0  0  0  0  0
    7.3454   -2.2991   -0.4096 H   0  0  0  0  0  0  0  0  0  0  0  0
    6.0028   -3.4236   -0.1093 H   0  0  0  0  0  0  0  0  0  0  0  0
    3.7576   -2.5714   -0.2665 H   0  0  0  0  0  0  0  0  0  0  0  0
    4.0963   -2.0360   -1.9297 H   0  0  0  0  0  0  0  0  0  0  0  0
    3.6557    0.3108   -1.2890 H   0  0  0  0  0  0  0  0  0  0  0  0
    3.3770   -0.1619    0.3885 H   0  0  0  0  0  0  0  0  0  0  0  0
    1.4692   -1.5438   -0.4123 H   0  0  0  0  0  0  0  0  0  0  0  0
   -2.9646    1.3482    0.7486 H   0  0  0  0  0  0  0  0  0  0  0  0
   -1.7222   -1.8617   -0.5330 H   0  0  0  0  0  0  0  0  0  0  0  0
   -2.8057   -3.9994   -0.1030 H   0  0  0  0  0  0  0  0  0  0  0  0
   -5.6072   -2.0850    2.5294 H   0  0  0  0  0  0  0  0  0  0  0  0
   -5.4656    0.1653    3.0485 H   0  0  0  0  0  0  0  0  0  0  0  0
   -5.0944    1.1383    1.6201 H   0  0  0  0  0  0  0  0  0  0  0  0
   -3.8796    0.9237    2.9164 H   0  0  0  0  0  0  0  0  0  0  0  0
   -2.3726    3.7598    0.1448 H   0  0  0  0  0  0  0  0  0  0  0  0
    1.3570    5.0595   -2.4052 H   0  0  0  0  0  0  0  0  0  0  0  0
    2.4915    3.8440   -1.7481 H   0  0  0  0  0  0  0  0  0  0  0  0
    2.0091    5.2411   -0.7419 H   0  0  0  0  0  0  0  0  0  0  0  0
  1  2  1  0
  2  3  1  0
  3  4  1  0
  4  5  1  0
  5  6  1  0
  6  7  2  0
  7  8  1  0
  8  9  1  0
  9 10  1  0
 10 11  2  0
 11 12  1  0
 12 13  2  0
 13 14  1  0
 13 15  1  0
 15 16  2  0
 16 17  1  0
  8 18  2  0
 18 19  1  0
 19 20  2  0
 20 21  1  0
 21 22  1  0
 21 23  1  0
 23 24  2  0
 24  6  1  0
 16 10  1  0
 23 18  1  0
  1 25  1  0
  1 26  1  0
  1 27  1  0
  3 28  1  0
  3 29  1  0
  4 30  1  0
  4 31  1  0
  5 32  1  0
  9 33  1  0
 11 34  1  0
 12 35  1  0
 15 36  1  0
 17 37  1  0
 17 38  1  0
 17 39  1  0
 19 40  1  0
 22 41  1  0
 22 42  1  0
 22 43  1  0
M  END
>  <ScrubInfo>  (1) 
{"isomerGroup": 0, "isomerId": 0, "confId": 0, "nr_conformers:": 1, "nr_isomers:": 9}

$$$$
_i1
     RDKit          3D

 43 45  0  0  0  0  0  0  0  0999 V2000
    0.3241   -0.9330   -0.0302 N   0  0  0  0  0  0  0  0  0  0  0  0
   -0.7378   -0.3071    0.5903 C   0  0  0  0  0  0  0  0  0  0  0  0
   -1.8970   -0.9995    0.8900 N   0  0  0  0  0  0  0  0  0  0  0  0
   -3.2234   -0.5949    0.5924 C   0  0  0  0  0  0  0  0  0  0  0  0
   -3.5055    0.3936   -0.3654 C   0  0  0  0  0  0  0  0  0  0  0  0
   -4.8204    0.7758   -0.6428 C   0  0  0  0  0  0  0  0  0  0  0  0
   -5.8709    0.1685    0.0341 C   0  0  0  0  0  0  0  0  0  0  0  0
   -7.6511    0.6804   -0.3406 Br  0  0  0  0  0  0  0  0  0  0  0  0
   -5.6190   -0.8178    0.9848 C   0  0  0  0  0  0  0  0  0  0  0  0
   -4.2993   -1.2064    1.2740 C   0  0  0  0  0  0  0  0  0  0  0  0
   -4.0628   -2.2646    2.3187 C   0  0  0  0  0  0  0  0  0  0  0  0
   -0.5213    0.9698    0.9317 C   0  0  0  0  0  0  0  0  0  0  0  0
   -1.2244    2.0391    1.6491 C   0  0  0  0  0  0  0  0  0  0  0  0
   -0.5269    3.1450    1.7305 N   0  0  0  0  0  0  0  0  0  0  0  0
    0.6660    2.8883    1.0332 N   0  0  0  0  0  0  0  0  0  0  0  0
    1.7832    3.7843    1.2113 C   0  0  0  0  0  0  0  0  0  0  0  0
    0.7755    1.5850    0.5757 C   0  0  0  0  0  0  0  0  0  0  0  0
    1.7527    0.9862   -0.0163 N   0  0  0  0  0  0  0  0  0  0  0  0
    1.5169   -0.3304   -0.3404 C   0  0  0  0  0  0  0  0  0  0  0  0
    2.4168   -1.0307   -0.9502 N   0  0  0  0  0  0  0  0  0  0  0  0
    3.6769   -0.3479   -1.2643 C   0  0  0  0  0  0  0  0  0  0  0  0
    4.6095   -1.3265   -1.9767 C   0  0  0  0  0  0  0  0  0  0  0  0
    5.8418   -0.6702   -2.2842 O   0  0  0  0  0  0  0  0  0  0  0  0
    6.7430   -1.5432   -2.9508 C   0  0  0  0  0  0  0  0  0  0  0  0
    0.2235   -1.8866   -0.3386 H   0  0  0  0  0  0  0  0  0  0  0  0
   -1.8015   -2.0032    0.7612 H   0  0  0  0  0  0  0  0  0  0  0  0
   -2.7078    0.8677   -0.9321 H   0  0  0  0  0  0  0  0  0  0  0  0
   -5.0094    1.5409   -1.3915 H   0  0  0  0  0  0  0  0  0  0  0  0
   -6.4505   -1.2849    1.5083 H   0  0  0  0  0  0  0  0  0  0  0  0
   -3.6175   -3.1542    1.8620 H   0  0  0  0  0  0  0  0  0  0  0  0
   -4.9973   -2.5705    2.8010 H   0  0  0  0  0  0  0  0  0  0  0  0
   -3.3997   -1.8847    3.1028 H   0  0  0  0  0  0  0  0  0  0  0  0
   -2.2208    1.8781    2.0799 H   0  0  0  0  0  0  0  0  0  0  0  0
    1.4390    4.8201    1.2973 H   0  0  0  0  0  0  0  0  0  0  0  0
    2.3373    3.5268    2.1193 H   0  0  0  0  0  0  0  0  0  0  0  0
    2.4669    3.7300    0.3582 H   0  0  0  0  0  0  0  0  0  0  0  0
    4.1709    0.0116   -0.3528 H   0  0  0  0  0  0  0  0  0  0  0  0
    3.5069    0.5176   -1.9170 H   0  0  0  0  0  0  0  0  0  0  0  0
    4.8057   -2.1923   -1.3329 H   0  0  0  0  0  0  0  0  0  0  0  0
    4.1418   -1.6819   -2.9027 H   0  0  0  0  0  0  0  0  0  0  0  0
    6.3161   -1.8841   -3.8990 H   0  0  0  0  0  0  0  0  0  0  0  0
    7.6639   -0.9928   -3.1608 H   0  0  0  0  0  0  0  0  0  0  0  0
    6.9859   -2.4011   -2.3164 H   0  0  0  0  0  0  0  0  0  0  0  0
  1  2  1  0
  2  3  1  0
  3  4  1  0
  4  5  2  0
  5  6  1  0
  6  7  2  0
  7  8  1  0
  7  9  1  0
  9 10  2  0
 10 11  1  0
  2 12  2  0
 12 13  1  0
 13 14  2  0
 14 15  1  0
 15 16  1  0
 15 17  1  0
 17 18  2  0
 18 19  1  0
 19 20  2  3
 20 21  1  0
 21 22  1  0
 22 23  1  0
 23 24  1  0
 19  1  1  0
 10  4  1  0
 17 12  1  0
  1 25  1  0
  3 26  1  0
  5 27  1  0
  6 28  1  0
  9 29  1  0
 11 30  1  0
 11 31  1  0
 11 32  1  0
 13 33  1  0
 16 34  1  0
 16 35  1  0
 16 36  1  0
 21 37  1  0
 21 38  1  0
 22 39  1  0
 22 40  1  0
 24 41  1  0
 24 42  1  0
 24 43  1  0
M  END
>  <ScrubInfo>  (2) 
{"isomerGroup": 0, "isomerId": 1, "confId": 0, "nr_conformers:": 1, "nr_isomers:": 9}

$$$$
_i2
     RDKit          3D

 43 45  0  0  0  0  0  0  0  0999 V2000
    0.5412    0.5719   -0.4568 N   0  0  0  0  0  0  0  0  0  0  0  0
    1.5669   -0.2851   -0.1378 C   0  0  0  0  0  0  0  0  0  0  0  0
    2.7995    0.2386   -0.4149 N   0  0  0  0  0  0  0  0  0  0  0  0
    4.0130   -0.4441    0.0282 C   0  0  0  0  0  0  0  0  0  0  0  0
    5.2404    0.3215   -0.4728 C   0  0  0  0  0  0  0  0  0  0  0  0
    5.1967    1.6593    0.0439 O   0  0  0  0  0  0  0  0  0  0  0  0
    6.3257    2.4150   -0.3774 C   0  0  0  0  0  0  0  0  0  0  0  0
    1.3847   -1.4815    0.3585 N   0  0  0  0  0  0  0  0  0  0  0  0
    0.0621   -1.7584    0.5371 C   0  0  0  0  0  0  0  0  0  0  0  0
   -1.0348   -0.9620    0.2447 C   0  0  0  0  0  0  0  0  0  0  0  0
   -2.1405   -1.7366    0.6370 C   0  0  0  0  0  0  0  0  0  0  0  0
   -1.7887   -2.9285    1.1364 N   0  0  0  0  0  0  0  0  0  0  0  0
   -0.4385   -2.9171    1.0602 N   0  0  0  0  0  0  0  0  0  0  0  0
    0.3038   -4.0639    1.5191 C   0  0  0  0  0  0  0  0  0  0  0  0
   -0.8105    0.3471   -0.3359 C   0  0  0  0  0  0  0  0  0  0  0  0
   -1.6827    1.2298   -0.7185 N   0  0  0  0  0  0  0  0  0  0  0  0
   -3.0590    1.0095   -0.6128 C   0  0  0  0  0  0  0  0  0  0  0  0
   -3.7356    0.4093   -1.6827 C   0  0  0  0  0  0  0  0  0  0  0  0
   -5.1137    0.1971   -1.6264 C   0  0  0  0  0  0  0  0  0  0  0  0
   -5.8234    0.6008   -0.4994 C   0  0  0  0  0  0  0  0  0  0  0  0
   -7.6896    0.3119   -0.4139 Br  0  0  0  0  0  0  0  0  0  0  0  0
   -5.1698    1.2220    0.5650 C   0  0  0  0  0  0  0  0  0  0  0  0
   -3.7843    1.4459    0.5114 C   0  0  0  0  0  0  0  0  0  0  0  0
   -3.0914    2.1210    1.6613 C   0  0  0  0  0  0  0  0  0  0  0  0
    0.7754    1.4211   -0.9433 H   0  0  0  0  0  0  0  0  0  0  0  0
    2.8863    1.2391   -0.2526 H   0  0  0  0  0  0  0  0  0  0  0  0
    4.0228   -0.4751    1.1238 H   0  0  0  0  0  0  0  0  0  0  0  0
    4.0387   -1.4692   -0.3566 H   0  0  0  0  0  0  0  0  0  0  0  0
    6.1528   -0.1764   -0.1263 H   0  0  0  0  0  0  0  0  0  0  0  0
    5.2424    0.3586   -1.5685 H   0  0  0  0  0  0  0  0  0  0  0  0
    7.2501    1.9588   -0.0103 H   0  0  0  0  0  0  0  0  0  0  0  0
    6.3494    2.4912   -1.4687 H   0  0  0  0  0  0  0  0  0  0  0  0
    6.2418    3.4212    0.0417 H   0  0  0  0  0  0  0  0  0  0  0  0
   -3.1946   -1.5019    0.5905 H   0  0  0  0  0  0  0  0  0  0  0  0
    0.1223   -4.1834    2.5902 H   0  0  0  0  0  0  0  0  0  0  0  0
    1.3710   -3.9199    1.3376 H   0  0  0  0  0  0  0  0  0  0  0  0
   -0.0471   -4.9428    0.9722 H   0  0  0  0  0  0  0  0  0  0  0  0
   -3.1794    0.1030   -2.5651 H   0  0  0  0  0  0  0  0  0  0  0  0
   -5.6183   -0.2784   -2.4629 H   0  0  0  0  0  0  0  0  0  0  0  0
   -5.7372    1.5392    1.4370 H   0  0  0  0  0  0  0  0  0  0  0  0
   -2.4636    1.4032    2.1984 H   0  0  0  0  0  0  0  0  0  0  0  0
   -3.8121    2.5379    2.3729 H   0  0  0  0  0  0  0  0  0  0  0  0
   -2.4723    2.9504    1.3044 H   0  0  0  0  0  0  0  0  0  0  0  0
  1  2  1  0
  2  3  1  0
  3  4  1  0
  4  5  1  0
  5  6  1  0
  6  7  1  0
  2  8  2  0
  8  9  1  0
  9 10  2  0
 10 11  1  0
 11 12  2  0
 12 13  1  0
 13 14  1  0
 10 15  1  0
 15 16  2  3
 16 17  1  0
 17 18  2  0
 18 19  1  0
 19 20  2  0
 20 21  1  0
 20 22  1  0
 22 23  2  0
 23 24  1  0
 15  1  1  0
 23 17  1  0
 13  9  1  0
  1 25  1  0
  3 26  1  0
  4 27  1  0
  4 28  1  0
  5 29  1  0
  5 30  1  0
  7 31  1  0
  7 32  1  0
  7 33  1  0
 11 34  1  0
 14 35  1  0
 14 36  1  0
 14 37  1  0
 18 38  1  0
 19 39  1  0
 22 40  1  0
 24 41  1  0
 24 42  1  0
 24 43  1  0
M  END
>  <ScrubInfo>  (3) 
{"isomerGroup": 0, "isomerId": 2, "confId": 0, "nr_conformers:": 1, "nr_isomers:": 9}

$$$$
_i3
     RDKit          3D

 43 45  0  0  0  0  0  0  0  0999 V2000
    1.7691   -1.6314   -0.2099 N   0  0  0  0  0  0  0  0  0  0  0  0
    1.9176   -0.2668   -0.3369 C   0  0  0  0  0  0  0  0  0  0  0  0
    3.1112    0.2252   -0.2503 N   0  0  0  0  0  0  0  0  0  0  0  0
    3.2362    1.6852   -0.3862 C   0  0  0  0  0  0  0  0  0  0  0  0
    4.7055    2.0947   -0.2235 C   0  0  0  0  0  0  0  0  0  0  0  0
    5.0952    2.3023    1.1389 O   0  0  0  0  0  0  0  0  0  0  0  0
    5.1427    1.1020    1.8971 C   0  0  0  0  0  0  0  0  0  0  0  0
    0.8320    0.5704   -0.5524 N   0  0  0  0  0  0  0  0  0  0  0  0
   -0.3641    0.0529   -0.6174 C   0  0  0  0  0  0  0  0  0  0  0  0
   -1.4887    0.8066   -0.8422 N   0  0  0  0  0  0  0  0  0  0  0  0
   -2.5932    0.8655    0.0538 C   0  0  0  0  0  0  0  0  0  0  0  0
   -2.4539    0.5676    1.4197 C   0  0  0  0  0  0  0  0  0  0  0  0
   -3.5371    0.6844    2.2935 C   0  0  0  0  0  0  0  0  0  0  0  0
   -4.7662    1.1204    1.8119 C   0  0  0  0  0  0  0  0  0  0  0  0
   -6.2332    1.2822    2.9927 Br  0  0  0  0  0  0  0  0  0  0  0  0
   -4.9211    1.4470    0.4662 C   0  0  0  0  0  0  0  0  0  0  0  0
   -3.8383    1.3309   -0.4216 C   0  0  0  0  0  0  0  0  0  0  0  0
   -4.0325    1.6886   -1.8708 C   0  0  0  0  0  0  0  0  0  0  0  0
   -0.5606   -1.3759   -0.5168 C   0  0  0  0  0  0  0  0  0  0  0  0
   -1.6233   -2.2889   -0.5904 C   0  0  0  0  0  0  0  0  0  0  0  0
   -1.2167   -3.5582   -0.4256 N   0  0  0  0  0  0  0  0  0  0  0  0
    0.1247   -3.4510   -0.2564 N   0  0  0  0  0  0  0  0  0  0  0  0
    0.9052   -4.6454   -0.0581 C   0  0  0  0  0  0  0  0  0  0  0  0
    0.5407   -2.1597   -0.3112 C   0  0  0  0  0  0  0  0  0  0  0  0
    2.6305   -2.1433   -0.0757 H   0  0  0  0  0  0  0  0  0  0  0  0
    2.9083    1.9805   -1.3901 H   0  0  0  0  0  0  0  0  0  0  0  0
    2.6288    2.2001    0.3675 H   0  0  0  0  0  0  0  0  0  0  0  0
    5.3870    1.3814   -0.7022 H   0  0  0  0  0  0  0  0  0  0  0  0
    4.8482    3.0611   -0.7191 H   0  0  0  0  0  0  0  0  0  0  0  0
    4.1336    0.7487    2.1243 H   0  0  0  0  0  0  0  0  0  0  0  0
    5.6410    1.3206    2.8458 H   0  0  0  0  0  0  0  0  0  0  0  0
    5.7153    0.3279    1.3772 H   0  0  0  0  0  0  0  0  0  0  0  0
   -1.2040    1.7672   -1.0267 H   0  0  0  0  0  0  0  0  0  0  0  0
   -1.4972    0.2482    1.8274 H   0  0  0  0  0  0  0  0  0  0  0  0
   -3.4065    0.4398    3.3444 H   0  0  0  0  0  0  0  0  0  0  0  0
   -5.8865    1.7936    0.1039 H   0  0  0  0  0  0  0  0  0  0  0  0
   -5.0650    1.9906   -2.0760 H   0  0  0  0  0  0  0  0  0  0  0  0
   -3.3818    2.5250   -2.1454 H   0  0  0  0  0  0  0  0  0  0  0  0
   -3.8087    0.8267   -2.5077 H   0  0  0  0  0  0  0  0  0  0  0  0
   -2.6752   -2.0942   -0.7553 H   0  0  0  0  0  0  0  0  0  0  0  0
    1.9531   -4.3832    0.1020 H   0  0  0  0  0  0  0  0  0  0  0  0
    0.5175   -5.1693    0.8193 H   0  0  0  0  0  0  0  0  0  0  0  0
    0.8104   -5.2700   -0.9498 H   0  0  0  0  0  0  0  0  0  0  0  0
  1  2  1  0
  2  3  2  3
  3  4  1  0
  4  5  1  0
  5  6  1  0
  6  7  1  0
  2  8  1  0
  8  9  2  0
  9 10  1  0
 10 11  1  0
 11 12  2  0
 12 13  1  0
 13 14  2  0
 14 15  1  0
 14 16  1  0
 16 17  2  0
 17 18  1  0
  9 19  1  0
 19 20  1  0
 20 21  2  0
 21 22  1  0
 22 23  1  0
 22 24  1  0
 24  1  1  0
 17 11  1  0
 24 19  2  0
  1 25  1  0
  4 26  1  0
  4 27  1  0
  5 28  1  0
  5 29  1  0
  7 30  1  0
  7 31  1  0
  7 32  1  0
 10 33  1  0
 12 34  1  0
 13 35  1  0
 16 36  1  0
 18 37  1  0
 18 38  1  0
 18 39  1  0
 20 40  1  0
 23 41  1  0
 23 42  1  0
 23 43  1  0
M  END
>  <ScrubInfo>  (4) 
{"isomerGroup": 0, "isomerId": 3, "confId": 0, "nr_conformers:": 1, "nr_isomers:": 9}

$$$$
_i4
     RDKit          3D

 43 45  0  0  0  0  0  0  0  0999 V2000
    1.5424    3.1317   -0.1982 N   0  0  0  0  0  0  0  0  0  0  0  0
    1.8692    1.7962   -0.4082 C   0  0  0  0  0  0  0  0  0  0  0  0
    0.8326    0.9597   -0.2448 C   0  0  0  0  0  0  0  0  0  0  0  0
    0.5445   -0.4679   -0.2949 C   0  0  0  0  0  0  0  0  0  0  0  0
    1.2919   -1.4671   -0.6296 N   0  0  0  0  0  0  0  0  0  0  0  0
    2.6148   -1.2667   -1.0349 C   0  0  0  0  0  0  0  0  0  0  0  0
    2.8850   -1.0425   -2.3911 C   0  0  0  0  0  0  0  0  0  0  0  0
    4.1935   -0.8488   -2.8353 C   0  0  0  0  0  0  0  0  0  0  0  0
    5.2409   -0.8933   -1.9199 C   0  0  0  0  0  0  0  0  0  0  0  0
    7.0153   -0.6224   -2.5130 Br  0  0  0  0  0  0  0  0  0  0  0  0
    4.9930   -1.1414   -0.5696 C   0  0  0  0  0  0  0  0  0  0  0  0
    3.6791   -1.3455   -0.1178 C   0  0  0  0  0  0  0  0  0  0  0  0
    3.4212   -1.6269    1.3361 C   0  0  0  0  0  0  0  0  0  0  0  0
   -0.7330   -0.7882    0.0787 N   0  0  0  0  0  0  0  0  0  0  0  0
   -1.6324    0.0966    0.3836 C   0  0  0  0  0  0  0  0  0  0  0  0
   -2.8845   -0.2927    0.7560 N   0  0  0  0  0  0  0  0  0  0  0  0
   -3.4153   -1.6043    0.4333 C   0  0  0  0  0  0  0  0  0  0  0  0
   -4.8633   -1.7153    0.9255 C   0  0  0  0  0  0  0  0  0  0  0  0
   -5.7046   -0.6860    0.3866 O   0  0  0  0  0  0  0  0  0  0  0  0
   -6.0795   -0.9187   -0.9647 C   0  0  0  0  0  0  0  0  0  0  0  0
   -1.4486    1.4521    0.3616 N   0  0  0  0  0  0  0  0  0  0  0  0
   -0.2747    1.8849    0.0601 C   0  0  0  0  0  0  0  0  0  0  0  0
    0.1680    3.2063   -0.0242 N   0  0  0  0  0  0  0  0  0  0  0  0
   -0.3769    4.2290    0.8487 C   0  0  0  0  0  0  0  0  0  0  0  0
    1.9443    3.7626   -0.8955 H   0  0  0  0  0  0  0  0  0  0  0  0
    2.8871    1.5562   -0.6772 H   0  0  0  0  0  0  0  0  0  0  0  0
    2.0638   -1.0245   -3.1035 H   0  0  0  0  0  0  0  0  0  0  0  0
    4.3815   -0.6734   -3.8908 H   0  0  0  0  0  0  0  0  0  0  0  0
    5.8212   -1.1875    0.1338 H   0  0  0  0  0  0  0  0  0  0  0  0
    4.3548   -1.8052    1.8800 H   0  0  0  0  0  0  0  0  0  0  0  0
    2.9170   -0.7749    1.8026 H   0  0  0  0  0  0  0  0  0  0  0  0
    2.8030   -2.5233    1.4504 H   0  0  0  0  0  0  0  0  0  0  0  0
   -3.5647    0.4595    0.7021 H   0  0  0  0  0  0  0  0  0  0  0  0
   -3.3722   -1.7560   -0.6502 H   0  0  0  0  0  0  0  0  0  0  0  0
   -2.8127   -2.3848    0.9108 H   0  0  0  0  0  0  0  0  0  0  0  0
   -4.8848   -1.5959    2.0145 H   0  0  0  0  0  0  0  0  0  0  0  0
   -5.2808   -2.7025    0.6966 H   0  0  0  0  0  0  0  0  0  0  0  0
   -6.5757   -1.8885   -1.0670 H   0  0  0  0  0  0  0  0  0  0  0  0
   -6.7833   -0.1366   -1.2622 H   0  0  0  0  0  0  0  0  0  0  0  0
   -5.2111   -0.8654   -1.6263 H   0  0  0  0  0  0  0  0  0  0  0  0
   -0.1266    4.0223    1.8945 H   0  0  0  0  0  0  0  0  0  0  0  0
   -1.4662    4.2781    0.7517 H   0  0  0  0  0  0  0  0  0  0  0  0
    0.0265    5.2112    0.5820 H   0  0  0  0  0  0  0  0  0  0  0  0
  1  2  1  0
  2  3  2  0
  3  4  1  0
  4  5  2  3
  5  6  1  0
  6  7  2  0
  7  8  1  0
  8  9  2  0
  9 10  1  0
  9 11  1  0
 11 12  2  0
 12 13  1  0
  4 14  1  0
 14 15  2  0
 15 16  1  0
 16 17  1  0
 17 18  1  0
 18 19  1  0
 19 20  1  0
 15 21  1  0
 21 22  2  0
 22 23  1  0
 23 24  1  0
 23  1  1  0
 22  3  1  0
 12  6  1  0
  1 25  1  0
  2 26  1  0
  7 27  1  0
  8 28  1  0
 11 29  1  0
 13 30  1  0
 13 31  1  0
 13 32  1  0
 16 33  1  0
 17 34  1  0
 17 35  1  0
 18 36  1  0
 18 37  1  0
 20 38  1  0
 20 39  1  0
 20 40  1  0
 24 41  1  0
 24 42  1  0
 24 43  1  0
M  END
>  <ScrubInfo>  (5) 
{"isomerGroup": 0, "isomerId": 4, "confId": 0, "nr_conformers:": 1, "nr_isomers:": 9}

$$$$
_i5
     RDKit          3D

 43 45  0  0  0  0  0  0  0  0999 V2000
    0.9887   -1.7524   -0.5315 N   0  0  0  0  0  0  0  0  0  0  0  0
    0.6411   -0.5305   -0.0033 C   0  0  0  0  0  0  0  0  0  0  0  0
    1.6495    0.1571    0.6088 N   0  0  0  0  0  0  0  0  0  0  0  0
    2.9322    0.3888   -0.0479 C   0  0  0  0  0  0  0  0  0  0  0  0
    3.8753    1.1756    0.8651 C   0  0  0  0  0  0  0  0  0  0  0  0
    5.1265    1.3541    0.2001 O   0  0  0  0  0  0  0  0  0  0  0  0
    6.0435    2.0905    1.0000 C   0  0  0  0  0  0  0  0  0  0  0  0
   -0.5518   -0.0011   -0.0277 N   0  0  0  0  0  0  0  0  0  0  0  0
   -1.5868   -0.6965   -0.6409 C   0  0  0  0  0  0  0  0  0  0  0  0
   -2.8010   -0.2587   -0.7440 N   0  0  0  0  0  0  0  0  0  0  0  0
   -3.0975    1.0026   -0.2053 C   0  0  0  0  0  0  0  0  0  0  0  0
   -2.9542    2.1393   -1.0117 C   0  0  0  0  0  0  0  0  0  0  0  0
   -3.2577    3.4088   -0.5180 C   0  0  0  0  0  0  0  0  0  0  0  0
   -3.7172    3.5430    0.7885 C   0  0  0  0  0  0  0  0  0  0  0  0
   -4.1224    5.2607    1.4674 Br  0  0  0  0  0  0  0  0  0  0  0  0
   -3.8844    2.4212    1.6005 C   0  0  0  0  0  0  0  0  0  0  0  0
   -3.5886    1.1401    1.1065 C   0  0  0  0  0  0  0  0  0  0  0  0
   -3.7694   -0.0626    1.9885 C   0  0  0  0  0  0  0  0  0  0  0  0
   -1.2735   -1.9923   -1.1862 C   0  0  0  0  0  0  0  0  0  0  0  0
   -1.9848   -3.0115   -1.8325 C   0  0  0  0  0  0  0  0  0  0  0  0
   -1.2054   -4.0650   -2.1302 N   0  0  0  0  0  0  0  0  0  0  0  0
    0.0177   -3.7047   -1.6660 N   0  0  0  0  0  0  0  0  0  0  0  0
    1.1230   -4.6144   -1.8250 C   0  0  0  0  0  0  0  0  0  0  0  0
    0.0052   -2.4688   -1.1027 C   0  0  0  0  0  0  0  0  0  0  0  0
    1.8900   -2.1327   -0.2783 H   0  0  0  0  0  0  0  0  0  0  0  0
    1.2528    1.0311    0.9531 H   0  0  0  0  0  0  0  0  0  0  0  0
    3.4117   -0.5593   -0.3174 H   0  0  0  0  0  0  0  0  0  0  0  0
    2.7804    0.9408   -0.9833 H   0  0  0  0  0  0  0  0  0  0  0  0
    3.4406    2.1543    1.1011 H   0  0  0  0  0  0  0  0  0  0  0  0
    4.0328    0.6290    1.8027 H   0  0  0  0  0  0  0  0  0  0  0  0
    6.2490    1.5591    1.9342 H   0  0  0  0  0  0  0  0  0  0  0  0
    5.6499    3.0892    1.2123 H   0  0  0  0  0  0  0  0  0  0  0  0
    6.9789    2.1943    0.4438 H   0  0  0  0  0  0  0  0  0  0  0  0
   -2.5978    2.0274   -2.0321 H   0  0  0  0  0  0  0  0  0  0  0  0
   -3.1328    4.2769   -1.1586 H   0  0  0  0  0  0  0  0  0  0  0  0
   -4.2489    2.5382    2.6180 H   0  0  0  0  0  0  0  0  0  0  0  0
   -4.3541   -0.8327    1.4749 H   0  0  0  0  0  0  0  0  0  0  0  0
   -4.3075    0.1932    2.9074 H   0  0  0  0  0  0  0  0  0  0  0  0
   -2.7951   -0.4736    2.2711 H   0  0  0  0  0  0  0  0  0  0  0  0
   -3.0348   -3.0371   -2.0951 H   0  0  0  0  0  0  0  0  0  0  0  0
    1.2184   -4.8614   -2.8854 H   0  0  0  0  0  0  0  0  0  0  0  0
    2.0442   -4.1461   -1.4718 H   0  0  0  0  0  0  0  0  0  0  0  0
    0.9144   -5.5136   -1.2399 H   0  0  0  0  0  0  0  0  0  0  0  0
  1  2  1  0
  2  3  1  0
  3  4  1  0
  4  5  1  0
  5  6  1  0
  6  7  1  0
  2  8  2  0
  8  9  1  0
  9 10  2  3
 10 11  1  0
 11 12  2  0
 12 13  1  0
 13 14  2  0
 14 15  1  0
 14 16  1  0
 16 17  2  0
 17 18  1  0
  9 19  1  0
 19 20  1  0
 20 21  2  0
 21 22  1  0
 22 23  1  0
 22 24  1  0
 24  1  1  0
 17 11  1  0
 24 19  2  0
  1 25  1  0
  3 26  1  0
  4 27  1  0
  4 28  1  0
  5 29  1  0
  5 30  1  0
  7 31  1  0
  7 32  1  0
  7 33  1  0
 12 34  1  0
 13 35  1  0
 16 36  1  0
 18 37  1  0
 18 38  1  0
 18 39  1  0
 20 40  1  0
 23 41  1  0
 23 42  1  0
 23 43  1  0
M  END
>  <ScrubInfo>  (6) 
{"isomerGroup": 0, "isomerId": 5, "confId": 0, "nr_conformers:": 1, "nr_isomers:": 9}

$$$$
_i6
     RDKit          3D

 43 45  0  0  0  0  0  0  0  0999 V2000
   -0.8514    3.2092    0.3707 N   0  0  0  0  0  0  0  0  0  0  0  0
   -1.3826    2.0110    0.8362 C   0  0  0  0  0  0  0  0  0  0  0  0
   -0.5622    0.9682    0.6519 C   0  0  0  0  0  0  0  0  0  0  0  0
   -0.5403   -0.4749    0.8819 C   0  0  0  0  0  0  0  0  0  0  0  0
   -1.5596   -1.1801    1.4890 N   0  0  0  0  0  0  0  0  0  0  0  0
   -2.9252   -0.9541    1.2012 C   0  0  0  0  0  0  0  0  0  0  0  0
   -3.7862   -0.7481    2.2914 C   0  0  0  0  0  0  0  0  0  0  0  0
   -5.1537   -0.5482    2.1010 C   0  0  0  0  0  0  0  0  0  0  0  0
   -5.6751   -0.5765    0.8132 C   0  0  0  0  0  0  0  0  0  0  0  0
   -7.5245   -0.2950    0.5431 Br  0  0  0  0  0  0  0  0  0  0  0  0
   -4.8448   -0.8233   -0.2794 C   0  0  0  0  0  0  0  0  0  0  0  0
   -3.4671   -1.0423   -0.0973 C   0  0  0  0  0  0  0  0  0  0  0  0
   -2.6236   -1.3440   -1.3069 C   0  0  0  0  0  0  0  0  0  0  0  0
    0.5145   -1.1432    0.5053 N   0  0  0  0  0  0  0  0  0  0  0  0
    1.5484   -0.4756   -0.1135 C   0  0  0  0  0  0  0  0  0  0  0  0
    2.4885   -1.2505   -0.5230 N   0  0  0  0  0  0  0  0  0  0  0  0
    3.6393   -0.6341   -1.1853 C   0  0  0  0  0  0  0  0  0  0  0  0
    4.6736   -1.7132   -1.5369 C   0  0  0  0  0  0  0  0  0  0  0  0
    5.2640   -2.3748   -0.4135 O   0  0  0  0  0  0  0  0  0  0  0  0
    6.0283   -1.5200    0.4211 C   0  0  0  0  0  0  0  0  0  0  0  0
    1.6474    0.8822   -0.3228 N   0  0  0  0  0  0  0  0  0  0  0  0
    0.6404    1.5899    0.0567 C   0  0  0  0  0  0  0  0  0  0  0  0
    0.4649    2.9726   -0.0111 N   0  0  0  0  0  0  0  0  0  0  0  0
    1.0354    3.7466   -1.0968 C   0  0  0  0  0  0  0  0  0  0  0  0
   -1.0008    3.9945    1.0089 H   0  0  0  0  0  0  0  0  0  0  0  0
   -2.3642    2.0126    1.2881 H   0  0  0  0  0  0  0  0  0  0  0  0
   -1.3528   -2.1770    1.4490 H   0  0  0  0  0  0  0  0  0  0  0  0
   -3.3822   -0.7275    3.3019 H   0  0  0  0  0  0  0  0  0  0  0  0
   -5.7966   -0.3745    2.9596 H   0  0  0  0  0  0  0  0  0  0  0  0
   -5.2710   -0.8610   -1.2801 H   0  0  0  0  0  0  0  0  0  0  0  0
   -2.0806   -0.4494   -1.6250 H   0  0  0  0  0  0  0  0  0  0  0  0
   -1.9151   -2.1518   -1.0984 H   0  0  0  0  0  0  0  0  0  0  0  0
   -3.2423   -1.6801   -2.1463 H   0  0  0  0  0  0  0  0  0  0  0  0
    4.0963    0.1254   -0.5420 H   0  0  0  0  0  0  0  0  0  0  0  0
    3.3192   -0.1547   -2.1184 H   0  0  0  0  0  0  0  0  0  0  0  0
    4.1953   -2.4910   -2.1427 H   0  0  0  0  0  0  0  0  0  0  0  0
    5.4739   -1.2779   -2.1469 H   0  0  0  0  0  0  0  0  0  0  0  0
    6.5898   -2.1425    1.1234 H   0  0  0  0  0  0  0  0  0  0  0  0
    6.7398   -0.9310   -0.1654 H   0  0  0  0  0  0  0  0  0  0  0  0
    5.3766   -0.8626    1.0028 H   0  0  0  0  0  0  0  0  0  0  0  0
    0.5782    3.4712   -2.0529 H   0  0  0  0  0  0  0  0  0  0  0  0
    2.1152    3.5793   -1.1634 H   0  0  0  0  0  0  0  0  0  0  0  0
    0.8727    4.8161   -0.9284 H   0  0  0  0  0  0  0  0  0  0  0  0
  1  2  1  0
  2  3  2  0
  3  4  1  0
  4  5  1  0
  5  6  1  0
  6  7  2  0
  7  8  1  0
  8  9  2  0
  9 10  1  0
  9 11  1  0
 11 12  2  0
 12 13  1  0
  4 14  2  0
 14 15  1  0
 15 16  2  3
 16 17  1  0
 17 18  1  0
 18 19  1  0
 19 20  1  0
 15 21  1  0
 21 22  2  0
 22 23  1  0
 23 24  1  0
 23  1  1  0
 22  3  1  0
 12  6  1  0
  1 25  1  0
  2 26  1  0
  5 27  1  0
  7 28  1  0
  8 29  1  0
 11 30  1  0
 13 31  1  0
 13 32  1  0
 13 33  1  0
 17 34  1  0
 17 35  1  0
 18 36  1  0
 18 37  1  0
 20 38  1  0
 20 39  1  0
 20 40  1  0
 24 41  1  0
 24 42  1  0
 24 43  1  0
M  END
>  <ScrubInfo>  (7) 
{"isomerGroup": 0, "isomerId": 6, "confId": 0, "nr_conformers:": 1, "nr_isomers:": 9}

$$$$
_i7
     RDKit          3D

 43 45  0  0  0  0  0  0  0  0999 V2000
    1.8167    2.9038   -0.9260 N   0  0  0  0  0  0  0  0  0  0  0  0
    1.9927    1.5350   -0.7598 C   0  0  0  0  0  0  0  0  0  0  0  0
    0.8525    0.8349   -0.8434 C   0  0  0  0  0  0  0  0  0  0  0  0
    0.3600   -0.5496   -0.7325 C   0  0  0  0  0  0  0  0  0  0  0  0
    1.0241   -1.6501   -0.5312 N   0  0  0  0  0  0  0  0  0  0  0  0
    2.4165   -1.6309   -0.3902 C   0  0  0  0  0  0  0  0  0  0  0  0
    3.2169   -1.7721   -1.5310 C   0  0  0  0  0  0  0  0  0  0  0  0
    4.6087   -1.7720   -1.4301 C   0  0  0  0  0  0  0  0  0  0  0  0
    5.2046   -1.6429   -0.1791 C   0  0  0  0  0  0  0  0  0  0  0  0
    7.0894   -1.6321   -0.0360 Br  0  0  0  0  0  0  0  0  0  0  0  0
    4.4226   -1.5259    0.9702 C   0  0  0  0  0  0  0  0  0  0  0  0
    3.0213   -1.5347    0.8766 C   0  0  0  0  0  0  0  0  0  0  0  0
    2.1883   -1.4160    2.1221 C   0  0  0  0  0  0  0  0  0  0  0  0
   -1.0012   -0.6377   -0.8618 N   0  0  0  0  0  0  0  0  0  0  0  0
   -1.8853    0.3907   -1.0695 C   0  0  0  0  0  0  0  0  0  0  0  0
   -3.1640    0.3026   -1.1380 N   0  0  0  0  0  0  0  0  0  0  0  0
   -3.8520   -0.9759   -0.9861 C   0  0  0  0  0  0  0  0  0  0  0  0
   -4.0119   -1.3815    0.4869 C   0  0  0  0  0  0  0  0  0  0  0  0
   -4.5849   -0.3869    1.3353 O   0  0  0  0  0  0  0  0  0  0  0  0
   -5.8973    0.0017    0.9584 C   0  0  0  0  0  0  0  0  0  0  0  0
   -1.4329    1.6825   -1.2403 N   0  0  0  0  0  0  0  0  0  0  0  0
   -0.1604    1.9035   -1.1464 C   0  0  0  0  0  0  0  0  0  0  0  0
    0.4969    3.1278   -1.2905 N   0  0  0  0  0  0  0  0  0  0  0  0
   -0.1474    4.3660   -0.8941 C   0  0  0  0  0  0  0  0  0  0  0  0
    2.5278    3.3383   -1.5184 H   0  0  0  0  0  0  0  0  0  0  0  0
    2.9927    1.1684   -0.5823 H   0  0  0  0  0  0  0  0  0  0  0  0
    2.7471   -1.8843   -2.5049 H   0  0  0  0  0  0  0  0  0  0  0  0
    5.2122   -1.8783   -2.3273 H   0  0  0  0  0  0  0  0  0  0  0  0
    4.9005   -1.4363    1.9432 H   0  0  0  0  0  0  0  0  0  0  0  0
    2.8003   -1.5260    3.0236 H   0  0  0  0  0  0  0  0  0  0  0  0
    1.7033   -0.4357    2.1604 H   0  0  0  0  0  0  0  0  0  0  0  0
    1.4255   -2.2008    2.1514 H   0  0  0  0  0  0  0  0  0  0  0  0
   -1.3664   -1.5691   -0.7636 H   0  0  0  0  0  0  0  0  0  0  0  0
   -4.8416   -0.8693   -1.4441 H   0  0  0  0  0  0  0  0  0  0  0  0
   -3.3534   -1.7739   -1.5484 H   0  0  0  0  0  0  0  0  0  0  0  0
   -3.0302   -1.6169    0.9107 H   0  0  0  0  0  0  0  0  0  0  0  0
   -4.6116   -2.2966    0.5572 H   0  0  0  0  0  0  0  0  0  0  0  0
   -6.5429   -0.8731    0.8352 H   0  0  0  0  0  0  0  0  0  0  0  0
   -6.3092    0.6275    1.7551 H   0  0  0  0  0  0  0  0  0  0  0  0
   -5.8789    0.5940    0.0397 H   0  0  0  0  0  0  0  0  0  0  0  0
   -0.3240    4.3841    0.1864 H   0  0  0  0  0  0  0  0  0  0  0  0
   -1.1062    4.4846   -1.4089 H   0  0  0  0  0  0  0  0  0  0  0  0
    0.4807    5.2231   -1.1581 H   0  0  0  0  0  0  0  0  0  0  0  0
  1  2  1  0
  2  3  2  0
  3  4  1  0
  4  5  2  3
  5  6  1  0
  6  7  2  0
  7  8  1  0
  8  9  2  0
  9 10  1  0
  9 11  1  0
 11 12  2  0
 12 13  1  0
  4 14  1  0
 14 15  1  0
 15 16  2  3
 16 17  1  0
 17 18  1  0
 18 19  1  0
 19 20  1  0
 15 21  1  0
 21 22  2  0
 22 23  1  0
 23 24  1  0
 23  1  1  0
 22  3  1  0
 12  6  1  0
  1 25  1  0
  2 26  1  0
  7 27  1  0
  8 28  1  0
 11 29  1  0
 13 30  1  0
 13 31  1  0
 13 32  1  0
 14 33  1  0
 17 34  1  0
 17 35  1  0
 18 36  1  0
 18 37  1  0
 20 38  1  0
 20 39  1  0
 20 40  1  0
 24 41  1  0
 24 42  1  0
 24 43  1  0
M  END
>  <ScrubInfo>  (8) 
{"isomerGroup": 0, "isomerId": 7, "confId": 0, "nr_conformers:": 1, "nr_isomers:": 9}

$$$$
_i8
     RDKit          3D

 43 45  0  0  0  0  0  0  0  0999 V2000
    1.6718   -1.2750   -0.1382 N   0  0  0  0  0  0  0  0  0  0  0  0
    1.8940    0.0864   -0.1006 C   0  0  0  0  0  0  0  0  0  0  0  0
    3.1091    0.5088   -0.2080 N   0  0  0  0  0  0  0  0  0  0  0  0
    3.3402    1.9581   -0.1675 C   0  0  0  0  0  0  0  0  0  0  0  0
    4.8465    2.2451   -0.2094 C   0  0  0  0  0  0  0  0  0  0  0  0
    5.4574    2.2338    1.0850 O   0  0  0  0  0  0  0  0  0  0  0  0
    5.5554    0.9323    1.6470 C   0  0  0  0  0  0  0  0  0  0  0  0
    0.7359    0.8248    0.0497 N   0  0  0  0  0  0  0  0  0  0  0  0
   -0.5835    0.4324    0.1663 C   0  0  0  0  0  0  0  0  0  0  0  0
   -1.5252    1.3177    0.3016 N   0  0  0  0  0  0  0  0  0  0  0  0
   -2.8715    0.9639    0.4281 C   0  0  0  0  0  0  0  0  0  0  0  0
   -3.4013    0.7545    1.7080 C   0  0  0  0  0  0  0  0  0  0  0  0
   -4.7468    0.4259    1.8782 C   0  0  0  0  0  0  0  0  0  0  0  0
   -5.5724    0.3201    0.7630 C   0  0  0  0  0  0  0  0  0  0  0  0
   -7.3946   -0.1308    0.9854 Br  0  0  0  0  0  0  0  0  0  0  0  0
   -5.0677    0.5499   -0.5170 C   0  0  0  0  0  0  0  0  0  0  0  0
   -3.7165    0.8896   -0.6948 C   0  0  0  0  0  0  0  0  0  0  0  0
   -3.1860    1.1429   -2.0778 C   0  0  0  0  0  0  0  0  0  0  0  0
   -0.7097   -1.0137    0.1115 C   0  0  0  0  0  0  0  0  0  0  0  0
   -1.7443   -1.9663    0.1603 C   0  0  0  0  0  0  0  0  0  0  0  0
   -1.2980   -3.2270    0.0539 N   0  0  0  0  0  0  0  0  0  0  0  0
    0.0411   -3.0870   -0.0574 N   0  0  0  0  0  0  0  0  0  0  0  0
    0.8622   -4.2632   -0.1969 C   0  0  0  0  0  0  0  0  0  0  0  0
    0.4252   -1.7819   -0.0351 C   0  0  0  0  0  0  0  0  0  0  0  0
    2.5098   -1.8323   -0.2549 H   0  0  0  0  0  0  0  0  0  0  0  0
    2.8746    2.4142   -1.0489 H   0  0  0  0  0  0  0  0  0  0  0  0
    2.9103    2.3947    0.7413 H   0  0  0  0  0  0  0  0  0  0  0  0
    5.3792    1.5645   -0.8841 H   0  0  0  0  0  0  0  0  0  0  0  0
    4.9905    3.2611   -0.5930 H   0  0  0  0  0  0  0  0  0  0  0  0
    4.5757    0.5811    1.9805 H   0  0  0  0  0  0  0  0  0  0  0  0
    6.2057    0.9910    2.5245 H   0  0  0  0  0  0  0  0  0  0  0  0
    5.9971    0.2269    0.9367 H   0  0  0  0  0  0  0  0  0  0  0  0
    0.8377    1.8267    0.0882 H   0  0  0  0  0  0  0  0  0  0  0  0
   -2.7561    0.8481    2.5779 H   0  0  0  0  0  0  0  0  0  0  0  0
   -5.1366    0.2594    2.8787 H   0  0  0  0  0  0  0  0  0  0  0  0
   -5.7257    0.4725   -1.3796 H   0  0  0  0  0  0  0  0  0  0  0  0
   -2.6391    2.0907   -2.1129 H   0  0  0  0  0  0  0  0  0  0  0  0
   -2.5219    0.3283   -2.3830 H   0  0  0  0  0  0  0  0  0  0  0  0
   -3.9971    1.2101   -2.8107 H   0  0  0  0  0  0  0  0  0  0  0  0
   -2.8101   -1.8177    0.2646 H   0  0  0  0  0  0  0  0  0  0  0  0
    1.8800   -4.0417    0.1318 H   0  0  0  0  0  0  0  0  0  0  0  0
    0.4470   -5.0611    0.4245 H   0  0  0  0  0  0  0  0  0  0  0  0
    0.8577   -4.5580   -1.2489 H   0  0  0  0  0  0  0  0  0  0  0  0
  1  2  1  0
  2  3  2  3
  3  4  1  0
  4  5  1  0
  5  6  1  0
  6  7  1  0
  2  8  1  0
  8  9  1  0
  9 10  2  3
 10 11  1  0
 11 12  2  0
 12 13  1  0
 13 14  2  0
 14 15  1  0
 14 16  1  0
 16 17  2  0
 17 18  1  0
  9 19  1  0
 19 20  1  0
 20 21  2  0
 21 22  1  0
 22 23  1  0
 22 24  1  0
 24  1  1  0
 17 11  1  0
 24 19  2  0
  1 25  1  0
  4 26  1  0
  4 27  1  0
  5 28  1  0
  5 29  1  0
  7 30  1  0
  7 31  1  0
  7 32  1  0
  8 33  1  0
 12 34  1  0
 13 35  1  0
 16 36  1  0
 18 37  1  0
 18 38  1  0
 18 39  1  0
 20 40  1  0
 23 41  1  0
 23 42  1  0
 23 43  1  0
M  END
>  <ScrubInfo>  (9) 
{"isomerGroup": 0, "isomerId": 8, "confId": 0, "nr_conformers:": 1, "nr_isomers:": 9}

$$$$
