_i0
     RDKit          3D

 48 50  0  0  0  0  0  0  0  0999 V2000
    3.6138    0.7065   -0.2657 C   0  0  0  0  0  0  0  0  0  0  0  0
    3.5587   -0.3650   -1.3480 N   0  0  0  0  0  4  0  0  0  0  0  0
    4.1677   -1.6606   -0.9247 C   0  0  0  0  0  0  0  0  0  0  0  0
    4.0458    0.1024   -2.6815 C   0  0  0  0  0  0  0  0  0  0  0  0
    2.3521    1.5923   -0.3738 C   0  0  0  0  0  0  0  0  0  0  0  0
    1.2099    0.7992   -0.8504 N   0  0  0  0  0  0  0  0  0  0  0  0
    0.5075    0.1735    0.1871 C   0  0  0  0  0  0  0  0  0  0  0  0
   -0.8197    0.2837    0.0885 N   0  0  0  0  0  0  0  0  0  0  0  0
    1.1870   -0.4878    1.1345 N   0  0  0  0  0  0  0  0  0  0  0  0
   -1.6356   -0.2904    1.0130 C   0  0  0  0  0  0  0  0  0  0  0  0
    0.3675   -1.0481    2.0436 C   0  0  0  0  0  0  0  0  0  0  0  0
   -3.0331   -0.1567    0.9326 N   0  0  0  0  0  0  0  0  0  0  0  0
   -1.0156   -0.9966    2.0489 C   0  0  0  0  0  0  0  0  0  0  0  0
    0.7156   -1.7791    3.1491 N   0  0  0  0  0  0  0  0  0  0  0  0
   -3.7386    0.6912    0.0503 C   0  0  0  0  0  0  0  0  0  0  0  0
   -1.3936   -1.7391    3.1859 C   0  0  0  0  0  0  0  0  0  0  0  0
   -0.3437   -2.2142    3.8628 N   0  0  0  0  0  0  0  0  0  0  0  0
    2.0449   -2.1062    3.5998 C   0  0  0  0  0  0  0  0  0  0  0  0
   -4.4375    1.7831    0.5946 C   0  0  0  0  0  0  0  0  0  0  0  0
   -3.7156    0.5277   -1.3490 C   0  0  0  0  0  0  0  0  0  0  0  0
   -5.0990    2.6984   -0.2251 C   0  0  0  0  0  0  0  0  0  0  0  0
   -3.0180   -0.6241   -2.0189 C   0  0  0  0  0  0  0  0  0  0  0  0
   -4.3732    1.4673   -2.1637 C   0  0  0  0  0  0  0  0  0  0  0  0
   -5.0631    2.5423   -1.6054 C   0  0  0  0  0  0  0  0  0  0  0  0
    4.5408    1.2772   -0.3819 H   0  0  0  0  0  0  0  0  0  0  0  0
    3.6373    0.1946    0.7015 H   0  0  0  0  0  0  0  0  0  0  0  0
    2.5365   -0.5276   -1.4460 H   0  0  0  0  0  0  0  0  0  0  0  0
    5.2344   -1.5006   -0.7470 H   0  0  0  0  0  0  0  0  0  0  0  0
    3.6649   -1.9966   -0.0139 H   0  0  0  0  0  0  0  0  0  0  0  0
    4.0093   -2.3907   -1.7228 H   0  0  0  0  0  0  0  0  0  0  0  0
    5.1179    0.3031   -2.6087 H   0  0  0  0  0  0  0  0  0  0  0  0
    3.4984    1.0075   -2.9553 H   0  0  0  0  0  0  0  0  0  0  0  0
    3.8459   -0.6856   -3.4124 H   0  0  0  0  0  0  0  0  0  0  0  0
    2.1480    2.1122    0.5704 H   0  0  0  0  0  0  0  0  0  0  0  0
    2.5434    2.3707   -1.1219 H   0  0  0  0  0  0  0  0  0  0  0  0
    0.4712    1.3774   -1.2669 H   0  0  0  0  0  0  0  0  0  0  0  0
   -3.4779   -0.2306    1.8402 H   0  0  0  0  0  0  0  0  0  0  0  0
   -2.3895   -1.9567    3.5517 H   0  0  0  0  0  0  0  0  0  0  0  0
    2.1397   -3.1946    3.6319 H   0  0  0  0  0  0  0  0  0  0  0  0
    2.1854   -1.6797    4.5961 H   0  0  0  0  0  0  0  0  0  0  0  0
    2.7841   -1.6908    2.9111 H   0  0  0  0  0  0  0  0  0  0  0  0
   -4.4611    1.9393    1.6702 H   0  0  0  0  0  0  0  0  0  0  0  0
   -5.6359    3.5351    0.2144 H   0  0  0  0  0  0  0  0  0  0  0  0
   -3.5547   -0.9234   -2.9263 H   0  0  0  0  0  0  0  0  0  0  0  0
   -1.9997   -0.3400   -2.2998 H   0  0  0  0  0  0  0  0  0  0  0  0
   -2.9839   -1.5082   -1.3751 H   0  0  0  0  0  0  0  0  0  0  0  0
   -4.3624    1.3549   -3.2460 H   0  0  0  0  0  0  0  0  0  0  0  0
   -5.5760    3.2533   -2.2483 H   0  0  0  0  0  0  0  0  0  0  0  0
  1  2  1  0
  2  3  1  0
  2  4  1  0
  5  1  1  0
  6  5  1  0
  7  6  1  0
  8  7  2  0
  7  9  1  0
 10  8  1  0
  9 11  2  0
 12 10  1  0
 13 10  2  0
 11 13  1  0
 14 11  1  0
 15 12  1  0
 13 16  1  0
 17 14  1  0
 14 18  1  0
 19 15  2  0
 15 20  1  0
 16 17  2  0
 21 19  1  0
 22 20  1  0
 20 23  2  0
 24 21  2  0
 23 24  1  0
  1 25  1  0
  1 26  1  0
  2 27  1  0
  3 28  1  0
  3 29  1  0
  3 30  1  0
  4 31  1  0
  4 32  1  0
  4 33  1  0
  5 34  1  0
  5 35  1  0
  6 36  1  0
 12 37  1  0
 16 38  1  0
 18 39  1  0
 18 40  1  0
 18 41  1  0
 19 42  1  0
 21 43  1  0
 22 44  1  0
 22 45  1  0
 22 46  1  0
 23 47  1  0
 24 48  1  0
M  CHG  1   2   1
M  END
>  <ScrubInfo>  (1) 
{"isomerGroup": 0, "isomerId": 0, "confId": 0, "nr_conformers:": 1, "nr_isomers:": 9}

$$$$
_i1
     RDKit          3D

 48 50  0  0  0  0  0  0  0  0999 V2000
   -0.2769    1.4307   -0.4440 N   0  0  0  0  0  0  0  0  0  0  0  0
   -1.3944    0.6445   -0.6455 C   0  0  0  0  0  0  0  0  0  0  0  0
   -2.6515    1.2061   -0.7425 N   0  0  0  0  0  0  0  0  0  0  0  0
   -3.8297    0.7898   -0.0722 C   0  0  0  0  0  0  0  0  0  0  0  0
   -3.7916   -0.0407    1.0599 C   0  0  0  0  0  0  0  0  0  0  0  0
   -4.9660   -0.4465    1.6970 C   0  0  0  0  0  0  0  0  0  0  0  0
   -6.1993   -0.0273    1.2130 C   0  0  0  0  0  0  0  0  0  0  0  0
   -6.2600    0.7977    0.0921 C   0  0  0  0  0  0  0  0  0  0  0  0
   -5.0864    1.2095   -0.5613 C   0  0  0  0  0  0  0  0  0  0  0  0
   -5.2030    2.0863   -1.7797 C   0  0  0  0  0  0  0  0  0  0  0  0
   -1.1448   -0.6610   -0.8104 C   0  0  0  0  0  0  0  0  0  0  0  0
   -1.8990   -1.8797   -1.1228 C   0  0  0  0  0  0  0  0  0  0  0  0
   -1.1346   -2.9404   -1.2028 N   0  0  0  0  0  0  0  0  0  0  0  0
    0.1682   -2.5015   -0.9088 N   0  0  0  0  0  0  0  0  0  0  0  0
    1.2641   -3.3389   -1.3374 C   0  0  0  0  0  0  0  0  0  0  0  0
    0.2560   -1.1305   -0.7210 C   0  0  0  0  0  0  0  0  0  0  0  0
    1.2910   -0.3815   -0.5176 N   0  0  0  0  0  0  0  0  0  0  0  0
    1.0073    0.9613   -0.3809 C   0  0  0  0  0  0  0  0  0  0  0  0
    1.9720    1.7949   -0.1644 N   0  0  0  0  0  0  0  0  0  0  0  0
    3.3386    1.2718   -0.1403 C   0  0  0  0  0  0  0  0  0  0  0  0
    3.6678    0.6800    1.2365 C   0  0  0  0  0  0  0  0  0  0  0  0
    4.9515   -0.1326    1.2053 N   0  0  0  0  0  4  0  0  0  0  0  0
    6.1763    0.6966    0.9446 C   0  0  0  0  0  0  0  0  0  0  0  0
    5.1005   -0.9548    2.4553 C   0  0  0  0  0  0  0  0  0  0  0  0
   -0.4060    2.4242   -0.3246 H   0  0  0  0  0  0  0  0  0  0  0  0
   -2.6491    2.2158   -0.8560 H   0  0  0  0  0  0  0  0  0  0  0  0
   -2.8465   -0.3667    1.4845 H   0  0  0  0  0  0  0  0  0  0  0  0
   -4.9173   -1.0853    2.5754 H   0  0  0  0  0  0  0  0  0  0  0  0
   -7.1155   -0.3407    1.7079 H   0  0  0  0  0  0  0  0  0  0  0  0
   -7.2350    1.1144   -0.2741 H   0  0  0  0  0  0  0  0  0  0  0  0
   -4.7679    3.0706   -1.5799 H   0  0  0  0  0  0  0  0  0  0  0  0
   -4.6913    1.6261   -2.6313 H   0  0  0  0  0  0  0  0  0  0  0  0
   -6.2484    2.2366   -2.0697 H   0  0  0  0  0  0  0  0  0  0  0  0
   -2.9835   -1.8561   -1.2908 H   0  0  0  0  0  0  0  0  0  0  0  0
    1.4560   -3.2004   -2.4060 H   0  0  0  0  0  0  0  0  0  0  0  0
    2.1776   -3.0957   -0.7852 H   0  0  0  0  0  0  0  0  0  0  0  0
    1.0376   -4.3950   -1.1586 H   0  0  0  0  0  0  0  0  0  0  0  0
    3.5130    0.5472   -0.9457 H   0  0  0  0  0  0  0  0  0  0  0  0
    4.0123    2.1109   -0.3474 H   0  0  0  0  0  0  0  0  0  0  0  0
    2.8778   -0.0008    1.5701 H   0  0  0  0  0  0  0  0  0  0  0  0
    3.7866    1.4647    1.9926 H   0  0  0  0  0  0  0  0  0  0  0  0
    4.8528   -0.7988    0.4272 H   0  0  0  0  0  0  0  0  0  0  0  0
    6.0836    1.1537   -0.0428 H   0  0  0  0  0  0  0  0  0  0  0  0
    7.0449    0.0325    0.9548 H   0  0  0  0  0  0  0  0  0  0  0  0
    6.2577    1.4560    1.7266 H   0  0  0  0  0  0  0  0  0  0  0  0
    5.1803   -0.2782    3.3104 H   0  0  0  0  0  0  0  0  0  0  0  0
    4.2236   -1.6014    2.5455 H   0  0  0  0  0  0  0  0  0  0  0  0
    6.0005   -1.5672    2.3543 H   0  0  0  0  0  0  0  0  0  0  0  0
  1  2  1  0
  2  3  1  0
  3  4  1  0
  4  5  2  0
  5  6  1  0
  6  7  2  0
  7  8  1  0
  8  9  2  0
  9 10  1  0
  2 11  2  0
 11 12  1  0
 12 13  2  0
 13 14  1  0
 14 15  1  0
 14 16  1  0
 16 17  2  0
 17 18  1  0
 18 19  2  3
 19 20  1  0
 20 21  1  0
 21 22  1  0
 22 23  1  0
 22 24  1  0
 18  1  1  0
  9  4  1  0
 16 11  1  0
  1 25  1  0
  3 26  1  0
  5 27  1  0
  6 28  1  0
  7 29  1  0
  8 30  1  0
 10 31  1  0
 10 32  1  0
 10 33  1  0
 12 34  1  0
 15 35  1  0
 15 36  1  0
 15 37  1  0
 20 38  1  0
 20 39  1  0
 21 40  1  0
 21 41  1  0
 22 42  1  0
 23 43  1  0
 23 44  1  0
 23 45  1  0
 24 46  1  0
 24 47  1  0
 24 48  1  0
M  CHG  1  22   1
M  END
>  <ScrubInfo>  (2) 
{"isomerGroup": 0, "isomerId": 1, "confId": 0, "nr_conformers:": 1, "nr_isomers:": 9}

$$$$
_i2
     RDKit          3D

 48 50  0  0  0  0  0  0  0  0999 V2000
   -0.7683   -0.2402    0.5690 N   0  0  0  0  0  0  0  0  0  0  0  0
    0.5575    0.1237    0.5183 C   0  0  0  0  0  0  0  0  0  0  0  0
    1.3894   -0.7890    1.1095 N   0  0  0  0  0  0  0  0  0  0  0  0
    2.8203   -0.5622    1.3153 C   0  0  0  0  0  0  0  0  0  0  0  0
    3.6341   -0.7807    0.0203 C   0  0  0  0  0  0  0  0  0  0  0  0
    3.4258    0.3404   -0.9792 N   0  0  0  0  0  4  0  0  0  0  0  0
    3.4156   -0.1345   -2.3987 C   0  0  0  0  0  0  0  0  0  0  0  0
    4.3472    1.5008   -0.7704 C   0  0  0  0  0  0  0  0  0  0  0  0
    1.0108    1.1998   -0.0854 N   0  0  0  0  0  0  0  0  0  0  0  0
   -0.0138    1.9414   -0.6065 C   0  0  0  0  0  0  0  0  0  0  0  0
   -1.3639    1.6420   -0.6114 C   0  0  0  0  0  0  0  0  0  0  0  0
   -1.9823    2.6970   -1.2948 C   0  0  0  0  0  0  0  0  0  0  0  0
   -1.0974    3.6194   -1.6916 N   0  0  0  0  0  0  0  0  0  0  0  0
    0.0816    3.1642   -1.2175 N   0  0  0  0  0  0  0  0  0  0  0  0
    1.2637    3.9679   -1.3964 C   0  0  0  0  0  0  0  0  0  0  0  0
   -1.8357    0.4353    0.0136 C   0  0  0  0  0  0  0  0  0  0  0  0
   -3.0937    0.1589   -0.0303 N   0  0  0  0  0  0  0  0  0  0  0  0
   -3.5247   -1.0237    0.5897 C   0  0  0  0  0  0  0  0  0  0  0  0
   -3.8578   -0.9985    1.9494 C   0  0  0  0  0  0  0  0  0  0  0  0
   -4.2622   -2.1612    2.6042 C   0  0  0  0  0  0  0  0  0  0  0  0
   -4.3448   -3.3589    1.8996 C   0  0  0  0  0  0  0  0  0  0  0  0
   -4.0367   -3.3918    0.5389 C   0  0  0  0  0  0  0  0  0  0  0  0
   -3.6362   -2.2258   -0.1311 C   0  0  0  0  0  0  0  0  0  0  0  0
   -3.3336   -2.2742   -1.6023 C   0  0  0  0  0  0  0  0  0  0  0  0
   -1.0067   -1.1339    0.9714 H   0  0  0  0  0  0  0  0  0  0  0  0
    0.9641   -1.2748    1.8972 H   0  0  0  0  0  0  0  0  0  0  0  0
    3.1682   -1.2925    2.0549 H   0  0  0  0  0  0  0  0  0  0  0  0
    2.9962    0.4311    1.7425 H   0  0  0  0  0  0  0  0  0  0  0  0
    3.3211   -1.7156   -0.4585 H   0  0  0  0  0  0  0  0  0  0  0  0
    4.7076   -0.8375    0.2299 H   0  0  0  0  0  0  0  0  0  0  0  0
    2.4652    0.7030   -0.7993 H   0  0  0  0  0  0  0  0  0  0  0  0
    2.6289   -0.8867   -2.5014 H   0  0  0  0  0  0  0  0  0  0  0  0
    3.1941    0.7200   -3.0437 H   0  0  0  0  0  0  0  0  0  0  0  0
    4.3968   -0.5569   -2.6304 H   0  0  0  0  0  0  0  0  0  0  0  0
    4.0586    2.2951   -1.4636 H   0  0  0  0  0  0  0  0  0  0  0  0
    4.2363    1.8495    0.2591 H   0  0  0  0  0  0  0  0  0  0  0  0
    5.3718    1.1717   -0.9631 H   0  0  0  0  0  0  0  0  0  0  0  0
   -3.0330    2.8332   -1.5208 H   0  0  0  0  0  0  0  0  0  0  0  0
    1.6925    3.7296   -2.3726 H   0  0  0  0  0  0  0  0  0  0  0  0
    1.9783    3.7426   -0.6012 H   0  0  0  0  0  0  0  0  0  0  0  0
    0.9892    5.0250   -1.3476 H   0  0  0  0  0  0  0  0  0  0  0  0
   -3.8146   -0.0602    2.4972 H   0  0  0  0  0  0  0  0  0  0  0  0
   -4.5301   -2.1287    3.6575 H   0  0  0  0  0  0  0  0  0  0  0  0
   -4.6737   -4.2649    2.4040 H   0  0  0  0  0  0  0  0  0  0  0  0
   -4.1332   -4.3321   -0.0007 H   0  0  0  0  0  0  0  0  0  0  0  0
   -2.2645   -2.1133   -1.7737 H   0  0  0  0  0  0  0  0  0  0  0  0
   -3.9070   -1.5099   -2.1369 H   0  0  0  0  0  0  0  0  0  0  0  0
   -3.6012   -3.2442   -2.0344 H   0  0  0  0  0  0  0  0  0  0  0  0
  1  2  1  0
  2  3  1  0
  3  4  1  0
  4  5  1  0
  5  6  1  0
  6  7  1  0
  6  8  1  0
  2  9  2  0
  9 10  1  0
 10 11  2  0
 11 12  1  0
 12 13  2  0
 13 14  1  0
 14 15  1  0
 11 16  1  0
 16 17  2  3
 17 18  1  0
 18 19  2  0
 19 20  1  0
 20 21  2  0
 21 22  1  0
 22 23  2  0
 23 24  1  0
 16  1  1  0
 23 18  1  0
 14 10  1  0
  1 25  1  0
  3 26  1  0
  4 27  1  0
  4 28  1  0
  5 29  1  0
  5 30  1  0
  6 31  1  0
  7 32  1  0
  7 33  1  0
  7 34  1  0
  8 35  1  0
  8 36  1  0
  8 37  1  0
 12 38  1  0
 15 39  1  0
 15 40  1  0
 15 41  1  0
 19 42  1  0
 20 43  1  0
 21 44  1  0
 22 45  1  0
 24 46  1  0
 24 47  1  0
 24 48  1  0
M  CHG  1   6   1
M  END
>  <ScrubInfo>  (3) 
{"isomerGroup": 0, "isomerId": 2, "confId": 0, "nr_conformers:": 1, "nr_isomers:": 9}

$$$$
_i3
     RDKit          3D

 48 50  0  0  0  0  0  0  0  0999 V2000
    1.0100    0.7313   -1.7786 N   0  0  0  0  0  0  0  0  0  0  0  0
    1.2393    0.4396   -0.4514 C   0  0  0  0  0  0  0  0  0  0  0  0
    2.4223    0.6548    0.0393 N   0  0  0  0  0  0  0  0  0  0  0  0
    2.5886    0.3560    1.4683 C   0  0  0  0  0  0  0  0  0  0  0  0
    4.0228    0.6724    1.9139 C   0  0  0  0  0  0  0  0  0  0  0  0
    5.0860   -0.2428    1.3241 N   0  0  0  0  0  4  0  0  0  0  0  0
    5.2434   -0.1129   -0.1642 C   0  0  0  0  0  0  0  0  0  0  0  0
    4.9572   -1.6744    1.7502 C   0  0  0  0  0  0  0  0  0  0  0  0
    0.2494   -0.0810    0.3689 N   0  0  0  0  0  0  0  0  0  0  0  0
   -0.9475   -0.2715   -0.1211 C   0  0  0  0  0  0  0  0  0  0  0  0
   -1.9808   -0.7965    0.6119 N   0  0  0  0  0  0  0  0  0  0  0  0
   -3.2290   -0.1423    0.8179 C   0  0  0  0  0  0  0  0  0  0  0  0
   -3.3675    1.2491    0.6866 C   0  0  0  0  0  0  0  0  0  0  0  0
   -4.5893    1.8740    0.9409 C   0  0  0  0  0  0  0  0  0  0  0  0
   -5.6847    1.1201    1.3470 C   0  0  0  0  0  0  0  0  0  0  0  0
   -5.5597   -0.2590    1.5041 C   0  0  0  0  0  0  0  0  0  0  0  0
   -4.3378   -0.9016    1.2490 C   0  0  0  0  0  0  0  0  0  0  0  0
   -4.2438   -2.3938    1.4208 C   0  0  0  0  0  0  0  0  0  0  0  0
   -1.2257    0.0022   -1.5131 C   0  0  0  0  0  0  0  0  0  0  0  0
   -2.3075   -0.1163   -2.3990 C   0  0  0  0  0  0  0  0  0  0  0  0
   -1.9964    0.3007   -3.6360 N   0  0  0  0  0  0  0  0  0  0  0  0
   -0.7026    0.6863   -3.5388 N   0  0  0  0  0  0  0  0  0  0  0  0
   -0.0382    1.2010   -4.7092 C   0  0  0  0  0  0  0  0  0  0  0  0
   -0.2134    0.5048   -2.2837 C   0  0  0  0  0  0  0  0  0  0  0  0
    1.7815    1.1340   -2.2919 H   0  0  0  0  0  0  0  0  0  0  0  0
    2.3517   -0.6911    1.6863 H   0  0  0  0  0  0  0  0  0  0  0  0
    1.9155    0.9909    2.0583 H   0  0  0  0  0  0  0  0  0  0  0  0
    4.3064    1.6944    1.6378 H   0  0  0  0  0  0  0  0  0  0  0  0
    4.1113    0.5784    3.0019 H   0  0  0  0  0  0  0  0  0  0  0  0
    5.9694    0.0970    1.7225 H   0  0  0  0  0  0  0  0  0  0  0  0
    5.2456    0.9485   -0.4245 H   0  0  0  0  0  0  0  0  0  0  0  0
    4.4385   -0.6551   -0.6648 H   0  0  0  0  0  0  0  0  0  0  0  0
    6.2073   -0.5565   -0.4303 H   0  0  0  0  0  0  0  0  0  0  0  0
    5.8650   -2.1989    1.4394 H   0  0  0  0  0  0  0  0  0  0  0  0
    4.0793   -2.1147    1.2716 H   0  0  0  0  0  0  0  0  0  0  0  0
    4.8683   -1.7010    2.8392 H   0  0  0  0  0  0  0  0  0  0  0  0
   -1.6475   -1.0864    1.5279 H   0  0  0  0  0  0  0  0  0  0  0  0
   -2.5275    1.8721    0.3904 H   0  0  0  0  0  0  0  0  0  0  0  0
   -4.6851    2.9509    0.8250 H   0  0  0  0  0  0  0  0  0  0  0  0
   -6.6377    1.6056    1.5442 H   0  0  0  0  0  0  0  0  0  0  0  0
   -6.4280   -0.8317    1.8250 H   0  0  0  0  0  0  0  0  0  0  0  0
   -3.5152   -2.6406    2.1997 H   0  0  0  0  0  0  0  0  0  0  0  0
   -5.2052   -2.8267    1.7171 H   0  0  0  0  0  0  0  0  0  0  0  0
   -3.9461   -2.8663    0.4791 H   0  0  0  0  0  0  0  0  0  0  0  0
   -3.3081   -0.4837   -2.2072 H   0  0  0  0  0  0  0  0  0  0  0  0
    0.9838    1.4924   -4.4580 H   0  0  0  0  0  0  0  0  0  0  0  0
   -0.5937    2.0718   -5.0665 H   0  0  0  0  0  0  0  0  0  0  0  0
   -0.0245    0.4166   -5.4701 H   0  0  0  0  0  0  0  0  0  0  0  0
  1  2  1  0
  2  3  2  3
  3  4  1  0
  4  5  1  0
  5  6  1  0
  6  7  1  0
  6  8  1  0
  2  9  1  0
  9 10  2  0
 10 11  1  0
 11 12  1  0
 12 13  2  0
 13 14  1  0
 14 15  2  0
 15 16  1  0
 16 17  2  0
 17 18  1  0
 10 19  1  0
 19 20  1  0
 20 21  2  0
 21 22  1  0
 22 23  1  0
 22 24  1  0
 24  1  1  0
 17 12  1  0
 24 19  2  0
  1 25  1  0
  4 26  1  0
  4 27  1  0
  5 28  1  0
  5 29  1  0
  6 30  1  0
  7 31  1  0
  7 32  1  0
  7 33  1  0
  8 34  1  0
  8 35  1  0
  8 36  1  0
 11 37  1  0
 13 38  1  0
 14 39  1  0
 15 40  1  0
 16 41  1  0
 18 42  1  0
 18 43  1  0
 18 44  1  0
 20 45  1  0
 23 46  1  0
 23 47  1  0
 23 48  1  0
M  CHG  1   6   1
M  END
>  <ScrubInfo>  (4) 
{"isomerGroup": 0, "isomerId": 3, "confId": 0, "nr_conformers:": 1, "nr_isomers:": 9}

$$$$
_i4
     RDKit          3D

 48 50  0  0  0  0  0  0  0  0999 V2000
   -0.6882    0.1377   -2.0262 N   0  0  0  0  0  0  0  0  0  0  0  0
   -0.3175    0.1951   -0.7046 C   0  0  0  0  0  0  0  0  0  0  0  0
   -1.3200    0.2612    0.2223 N   0  0  0  0  0  0  0  0  0  0  0  0
   -2.3890    1.2483    0.1187 C   0  0  0  0  0  0  0  0  0  0  0  0
   -3.2951    1.2333    1.3689 C   0  0  0  0  0  0  0  0  0  0  0  0
   -4.1631   -0.0195    1.4809 N   0  0  0  0  0  4  0  0  0  0  0  0
   -3.3882   -1.2975    1.6910 C   0  0  0  0  0  0  0  0  0  0  0  0
   -5.2076    0.1510    2.5558 C   0  0  0  0  0  0  0  0  0  0  0  0
    0.9020    0.1964   -0.2448 N   0  0  0  0  0  0  0  0  0  0  0  0
    1.9632    0.1380   -1.1416 C   0  0  0  0  0  0  0  0  0  0  0  0
    3.2092    0.1508   -0.7975 N   0  0  0  0  0  0  0  0  0  0  0  0
    3.5226    0.2314    0.5689 C   0  0  0  0  0  0  0  0  0  0  0  0
    3.6682    1.4910    1.1638 C   0  0  0  0  0  0  0  0  0  0  0  0
    4.0053    1.6094    2.5123 C   0  0  0  0  0  0  0  0  0  0  0  0
    4.2098    0.4645    3.2774 C   0  0  0  0  0  0  0  0  0  0  0  0
    4.0865   -0.7967    2.6927 C   0  0  0  0  0  0  0  0  0  0  0  0
    3.7543   -0.9257    1.3347 C   0  0  0  0  0  0  0  0  0  0  0  0
    3.6474   -2.2903    0.7157 C   0  0  0  0  0  0  0  0  0  0  0  0
    1.6277    0.0520   -2.5390 C   0  0  0  0  0  0  0  0  0  0  0  0
    2.3459   -0.0551   -3.7366 C   0  0  0  0  0  0  0  0  0  0  0  0
    1.5357   -0.1272   -4.8048 N   0  0  0  0  0  0  0  0  0  0  0  0
    0.2900   -0.0635   -4.2785 N   0  0  0  0  0  0  0  0  0  0  0  0
   -0.8422   -0.1086   -5.1681 C   0  0  0  0  0  0  0  0  0  0  0  0
    0.3136    0.0501   -2.9233 C   0  0  0  0  0  0  0  0  0  0  0  0
   -1.6479   -0.0660   -2.2613 H   0  0  0  0  0  0  0  0  0  0  0  0
   -0.8225    0.3381    1.1143 H   0  0  0  0  0  0  0  0  0  0  0  0
   -1.9463    2.2464    0.0213 H   0  0  0  0  0  0  0  0  0  0  0  0
   -2.9962    1.0601   -0.7736 H   0  0  0  0  0  0  0  0  0  0  0  0
   -2.7128    1.3071    2.2943 H   0  0  0  0  0  0  0  0  0  0  0  0
   -3.9869    2.0808    1.3114 H   0  0  0  0  0  0  0  0  0  0  0  0
   -4.6718   -0.1312    0.5948 H   0  0  0  0  0  0  0  0  0  0  0  0
   -2.6671   -1.1435    2.4976 H   0  0  0  0  0  0  0  0  0  0  0  0
   -2.9059   -1.5680    0.7506 H   0  0  0  0  0  0  0  0  0  0  0  0
   -4.0967   -2.0883    1.9542 H   0  0  0  0  0  0  0  0  0  0  0  0
   -4.7010    0.2499    3.5195 H   0  0  0  0  0  0  0  0  0  0  0  0
   -5.7914    1.0456    2.3237 H   0  0  0  0  0  0  0  0  0  0  0  0
   -5.8591   -0.7268    2.5405 H   0  0  0  0  0  0  0  0  0  0  0  0
    3.5270    2.3849    0.5626 H   0  0  0  0  0  0  0  0  0  0  0  0
    4.1235    2.5929    2.9586 H   0  0  0  0  0  0  0  0  0  0  0  0
    4.4850    0.5523    4.3255 H   0  0  0  0  0  0  0  0  0  0  0  0
    4.2699   -1.6808    3.2993 H   0  0  0  0  0  0  0  0  0  0  0  0
    2.6106   -2.4973    0.4324 H   0  0  0  0  0  0  0  0  0  0  0  0
    3.9668   -3.0724    1.4126 H   0  0  0  0  0  0  0  0  0  0  0  0
    4.2878   -2.3609   -0.1696 H   0  0  0  0  0  0  0  0  0  0  0  0
    3.4190   -0.0893   -3.8800 H   0  0  0  0  0  0  0  0  0  0  0  0
   -1.7656    0.0219   -4.5998 H   0  0  0  0  0  0  0  0  0  0  0  0
   -0.7415    0.6984   -5.8983 H   0  0  0  0  0  0  0  0  0  0  0  0
   -0.8475   -1.0800   -5.6687 H   0  0  0  0  0  0  0  0  0  0  0  0
  1  2  1  0
  2  3  1  0
  3  4  1  0
  4  5  1  0
  5  6  1  0
  6  7  1  0
  6  8  1  0
  2  9  2  0
  9 10  1  0
 10 11  2  3
 11 12  1  0
 12 13  2  0
 13 14  1  0
 14 15  2  0
 15 16  1  0
 16 17  2  0
 17 18  1  0
 10 19  1  0
 19 20  1  0
 20 21  2  0
 21 22  1  0
 22 23  1  0
 22 24  1  0
 24  1  1  0
 17 12  1  0
 24 19  2  0
  1 25  1  0
  3 26  1  0
  4 27  1  0
  4 28  1  0
  5 29  1  0
  5 30  1  0
  6 31  1  0
  7 32  1  0
  7 33  1  0
  7 34  1  0
  8 35  1  0
  8 36  1  0
  8 37  1  0
 13 38  1  0
 14 39  1  0
 15 40  1  0
 16 41  1  0
 18 42  1  0
 18 43  1  0
 18 44  1  0
 20 45  1  0
 23 46  1  0
 23 47  1  0
 23 48  1  0
M  CHG  1   6   1
M  END
>  <ScrubInfo>  (5) 
{"isomerGroup": 0, "isomerId": 4, "confId": 0, "nr_conformers:": 1, "nr_isomers:": 9}

$$$$
_i5
     RDKit          3D

 48 50  0  0  0  0  0  0  0  0999 V2000
   -2.8101   -2.8436   -1.2267 N   0  0  0  0  0  0  0  0  0  0  0  0
   -2.4360   -1.9048   -0.2729 C   0  0  0  0  0  0  0  0  0  0  0  0
   -1.2683   -1.3055   -0.5502 C   0  0  0  0  0  0  0  0  0  0  0  0
   -0.3722   -0.3133    0.0253 C   0  0  0  0  0  0  0  0  0  0  0  0
   -0.4694    0.4368    1.0710 N   0  0  0  0  0  0  0  0  0  0  0  0
   -1.6120    0.3645    1.8783 C   0  0  0  0  0  0  0  0  0  0  0  0
   -1.6208   -0.5193    2.9646 C   0  0  0  0  0  0  0  0  0  0  0  0
   -2.7373   -0.6157    3.7946 C   0  0  0  0  0  0  0  0  0  0  0  0
   -3.8514    0.1821    3.5510 C   0  0  0  0  0  0  0  0  0  0  0  0
   -3.8452    1.0844    2.4867 C   0  0  0  0  0  0  0  0  0  0  0  0
   -2.7231    1.1969    1.6511 C   0  0  0  0  0  0  0  0  0  0  0  0
   -2.7388    2.1789    0.5141 C   0  0  0  0  0  0  0  0  0  0  0  0
    0.7917   -0.1397   -0.6763 N   0  0  0  0  0  0  0  0  0  0  0  0
    1.0452   -0.7490   -1.7928 C   0  0  0  0  0  0  0  0  0  0  0  0
    2.2306   -0.5057   -2.4293 N   0  0  0  0  0  0  0  0  0  0  0  0
    3.0166    0.6841   -2.1585 C   0  0  0  0  0  0  0  0  0  0  0  0
    3.7401    0.5941   -0.7929 C   0  0  0  0  0  0  0  0  0  0  0  0
    3.7194    1.9110   -0.0214 N   0  0  0  0  0  4  0  0  0  0  0  0
    2.3669    2.1876    0.6006 C   0  0  0  0  0  0  0  0  0  0  0  0
    4.7928    1.9407    1.0313 C   0  0  0  0  0  0  0  0  0  0  0  0
    0.2185   -1.6275   -2.4248 N   0  0  0  0  0  0  0  0  0  0  0  0
   -0.9016   -1.9059   -1.8504 C   0  0  0  0  0  0  0  0  0  0  0  0
   -1.9160   -2.7583   -2.2828 N   0  0  0  0  0  0  0  0  0  0  0  0
   -1.6258   -3.9506   -3.0573 C   0  0  0  0  0  0  0  0  0  0  0  0
   -3.8058   -2.8216   -1.4632 H   0  0  0  0  0  0  0  0  0  0  0  0
   -3.0908   -1.7436    0.5717 H   0  0  0  0  0  0  0  0  0  0  0  0
   -0.7511   -1.1400    3.1634 H   0  0  0  0  0  0  0  0  0  0  0  0
   -2.7364   -1.3089    4.6322 H   0  0  0  0  0  0  0  0  0  0  0  0
   -4.7236    0.1103    4.1971 H   0  0  0  0  0  0  0  0  0  0  0  0
   -4.7216    1.7079    2.3197 H   0  0  0  0  0  0  0  0  0  0  0  0
   -3.5736    2.8818    0.6053 H   0  0  0  0  0  0  0  0  0  0  0  0
   -2.8419    1.6511   -0.4391 H   0  0  0  0  0  0  0  0  0  0  0  0
   -1.8182    2.7717    0.5030 H   0  0  0  0  0  0  0  0  0  0  0  0
    2.1940   -0.8118   -3.3981 H   0  0  0  0  0  0  0  0  0  0  0  0
    2.3806    1.5728   -2.2342 H   0  0  0  0  0  0  0  0  0  0  0  0
    3.7743    0.7832   -2.9446 H   0  0  0  0  0  0  0  0  0  0  0  0
    3.3429   -0.1782   -0.1255 H   0  0  0  0  0  0  0  0  0  0  0  0
    4.7952    0.3603   -0.9784 H   0  0  0  0  0  0  0  0  0  0  0  0
    3.9139    2.6775   -0.6760 H   0  0  0  0  0  0  0  0  0  0  0  0
    2.1298    1.3741    1.2892 H   0  0  0  0  0  0  0  0  0  0  0  0
    2.4375    3.1367    1.1396 H   0  0  0  0  0  0  0  0  0  0  0  0
    1.6327    2.2892   -0.1995 H   0  0  0  0  0  0  0  0  0  0  0  0
    4.6114    1.1284    1.7403 H   0  0  0  0  0  0  0  0  0  0  0  0
    4.7551    2.9132    1.5294 H   0  0  0  0  0  0  0  0  0  0  0  0
    5.7588    1.8198    0.5340 H   0  0  0  0  0  0  0  0  0  0  0  0
   -2.5552   -4.4307   -3.3803 H   0  0  0  0  0  0  0  0  0  0  0  0
   -1.0516   -3.6964   -3.9540 H   0  0  0  0  0  0  0  0  0  0  0  0
   -1.0502   -4.6688   -2.4641 H   0  0  0  0  0  0  0  0  0  0  0  0
  1  2  1  0
  2  3  2  0
  3  4  1  0
  4  5  2  3
  5  6  1  0
  6  7  2  0
  7  8  1  0
  8  9  2  0
  9 10  1  0
 10 11  2  0
 11 12  1  0
  4 13  1  0
 13 14  2  0
 14 15  1  0
 15 16  1  0
 16 17  1  0
 17 18  1  0
 18 19  1  0
 18 20  1  0
 14 21  1  0
 21 22  2  0
 22 23  1  0
 23 24  1  0
 23  1  1  0
 22  3  1  0
 11  6  1  0
  1 25  1  0
  2 26  1  0
  7 27  1  0
  8 28  1  0
  9 29  1  0
 10 30  1  0
 12 31  1  0
 12 32  1  0
 12 33  1  0
 15 34  1  0
 16 35  1  0
 16 36  1  0
 17 37  1  0
 17 38  1  0
 18 39  1  0
 19 40  1  0
 19 41  1  0
 19 42  1  0
 20 43  1  0
 20 44  1  0
 20 45  1  0
 24 46  1  0
 24 47  1  0
 24 48  1  0
M  CHG  1  18   1
M  END
>  <ScrubInfo>  (6) 
{"isomerGroup": 0, "isomerId": 5, "confId": 0, "nr_conformers:": 1, "nr_isomers:": 9}

$$$$
_i6
     RDKit          3D

 48 50  0  0  0  0  0  0  0  0999 V2000
   -1.2311   -4.3074   -0.7837 N   0  0  0  0  0  0  0  0  0  0  0  0
   -2.0837   -3.2488   -0.4955 C   0  0  0  0  0  0  0  0  0  0  0  0
   -1.4361   -2.0845   -0.3504 C   0  0  0  0  0  0  0  0  0  0  0  0
   -1.7604   -0.6775   -0.0907 C   0  0  0  0  0  0  0  0  0  0  0  0
   -3.0773   -0.3191    0.1280 N   0  0  0  0  0  0  0  0  0  0  0  0
   -3.6652    0.9612    0.2443 C   0  0  0  0  0  0  0  0  0  0  0  0
   -2.9857    2.1404   -0.0967 C   0  0  0  0  0  0  0  0  0  0  0  0
   -3.5782    3.3982    0.0505 C   0  0  0  0  0  0  0  0  0  0  0  0
   -4.8664    3.5060    0.5550 C   0  0  0  0  0  0  0  0  0  0  0  0
   -5.5600    2.3559    0.9181 C   0  0  0  0  0  0  0  0  0  0  0  0
   -4.9726    1.0844    0.7791 C   0  0  0  0  0  0  0  0  0  0  0  0
   -5.7760   -0.1152    1.2100 C   0  0  0  0  0  0  0  0  0  0  0  0
   -0.7582    0.1547   -0.0684 N   0  0  0  0  0  0  0  0  0  0  0  0
    0.5183   -0.2917   -0.2884 C   0  0  0  0  0  0  0  0  0  0  0  0
    1.3986    0.6479   -0.2809 N   0  0  0  0  0  0  0  0  0  0  0  0
    2.7928    0.2837   -0.4840 C   0  0  0  0  0  0  0  0  0  0  0  0
    3.6232    1.5680   -0.3719 C   0  0  0  0  0  0  0  0  0  0  0  0
    5.0787    1.3429   -0.7446 N   0  0  0  0  0  4  0  0  0  0  0  0
    5.7859    2.6543   -0.9527 C   0  0  0  0  0  0  0  0  0  0  0  0
    5.8139    0.4773    0.2389 C   0  0  0  0  0  0  0  0  0  0  0  0
    0.9270   -1.5873   -0.4992 N   0  0  0  0  0  0  0  0  0  0  0  0
   -0.0148   -2.4680   -0.5138 C   0  0  0  0  0  0  0  0  0  0  0  0
    0.0770   -3.8502   -0.6803 N   0  0  0  0  0  0  0  0  0  0  0  0
    1.0932   -4.4463   -1.5266 C   0  0  0  0  0  0  0  0  0  0  0  0
   -1.4553   -5.1725   -0.2840 H   0  0  0  0  0  0  0  0  0  0  0  0
   -3.1439   -3.4430   -0.4211 H   0  0  0  0  0  0  0  0  0  0  0  0
   -3.7579   -1.0656    0.1340 H   0  0  0  0  0  0  0  0  0  0  0  0
   -1.9815    2.1105   -0.5077 H   0  0  0  0  0  0  0  0  0  0  0  0
   -3.0276    4.2914   -0.2325 H   0  0  0  0  0  0  0  0  0  0  0  0
   -5.3295    4.4826    0.6697 H   0  0  0  0  0  0  0  0  0  0  0  0
   -6.5666    2.4577    1.3194 H   0  0  0  0  0  0  0  0  0  0  0  0
   -6.0185   -0.7382    0.3432 H   0  0  0  0  0  0  0  0  0  0  0  0
   -6.7196    0.1776    1.6829 H   0  0  0  0  0  0  0  0  0  0  0  0
   -5.2167   -0.7059    1.9428 H   0  0  0  0  0  0  0  0  0  0  0  0
    3.1179   -0.4330    0.2782 H   0  0  0  0  0  0  0  0  0  0  0  0
    2.9371   -0.1580   -1.4774 H   0  0  0  0  0  0  0  0  0  0  0  0
    3.5971    1.9828    0.6425 H   0  0  0  0  0  0  0  0  0  0  0  0
    3.2321    2.3212   -1.0663 H   0  0  0  0  0  0  0  0  0  0  0  0
    5.0831    0.8588   -1.6519 H   0  0  0  0  0  0  0  0  0  0  0  0
    5.2590    3.2059   -1.7359 H   0  0  0  0  0  0  0  0  0  0  0  0
    6.8081    2.4415   -1.2769 H   0  0  0  0  0  0  0  0  0  0  0  0
    5.7805    3.2075   -0.0097 H   0  0  0  0  0  0  0  0  0  0  0  0
    5.3577   -0.5146    0.2392 H   0  0  0  0  0  0  0  0  0  0  0  0
    6.8531    0.3952   -0.0913 H   0  0  0  0  0  0  0  0  0  0  0  0
    5.7555    0.9414    1.2270 H   0  0  0  0  0  0  0  0  0  0  0  0
    0.9397   -4.1669   -2.5742 H   0  0  0  0  0  0  0  0  0  0  0  0
    2.0910   -4.1173   -1.2191 H   0  0  0  0  0  0  0  0  0  0  0  0
    1.0622   -5.5379   -1.4487 H   0  0  0  0  0  0  0  0  0  0  0  0
  1  2  1  0
  2  3  2  0
  3  4  1  0
  4  5  1  0
  5  6  1  0
  6  7  2  0
  7  8  1  0
  8  9  2  0
  9 10  1  0
 10 11  2  0
 11 12  1  0
  4 13  2  0
 13 14  1  0
 14 15  2  3
 15 16  1  0
 16 17  1  0
 17 18  1  0
 18 19  1  0
 18 20  1  0
 14 21  1  0
 21 22  2  0
 22 23  1  0
 23 24  1  0
 23  1  1  0
 22  3  1  0
 11  6  1  0
  1 25  1  0
  2 26  1  0
  5 27  1  0
  7 28  1  0
  8 29  1  0
  9 30  1  0
 10 31  1  0
 12 32  1  0
 12 33  1  0
 12 34  1  0
 16 35  1  0
 16 36  1  0
 17 37  1  0
 17 38  1  0
 18 39  1  0
 19 40  1  0
 19 41  1  0
 19 42  1  0
 20 43  1  0
 20 44  1  0
 20 45  1  0
 24 46  1  0
 24 47  1  0
 24 48  1  0
M  CHG  1  18   1
M  END
>  <ScrubInfo>  (7) 
{"isomerGroup": 0, "isomerId": 6, "confId": 0, "nr_conformers:": 1, "nr_isomers:": 9}

$$$$
_i7
     RDKit          3D

 48 50  0  0  0  0  0  0  0  0999 V2000
   -1.6764   -0.1241   -3.9300 N   0  0  0  0  0  0  0  0  0  0  0  0
   -2.1695   -0.2696   -2.6394 C   0  0  0  0  0  0  0  0  0  0  0  0
   -1.2118   -0.2712   -1.7017 C   0  0  0  0  0  0  0  0  0  0  0  0
   -1.0588   -0.3401   -0.2386 C   0  0  0  0  0  0  0  0  0  0  0  0
   -1.9571   -0.4857    0.6896 N   0  0  0  0  0  0  0  0  0  0  0  0
   -3.3110   -0.6186    0.3511 C   0  0  0  0  0  0  0  0  0  0  0  0
   -3.8315   -1.8980    0.1195 C   0  0  0  0  0  0  0  0  0  0  0  0
   -5.1752   -2.0710   -0.2117 C   0  0  0  0  0  0  0  0  0  0  0  0
   -6.0135   -0.9636   -0.3019 C   0  0  0  0  0  0  0  0  0  0  0  0
   -5.5124    0.3140   -0.0490 C   0  0  0  0  0  0  0  0  0  0  0  0
   -4.1639    0.4983    0.2942 C   0  0  0  0  0  0  0  0  0  0  0  0
   -3.6477    1.8820    0.5688 C   0  0  0  0  0  0  0  0  0  0  0  0
    0.2466   -0.2238    0.1643 N   0  0  0  0  0  0  0  0  0  0  0  0
    1.3472   -0.0722   -0.6368 C   0  0  0  0  0  0  0  0  0  0  0  0
    2.5661    0.0566   -0.2467 N   0  0  0  0  0  0  0  0  0  0  0  0
    2.8998    0.0521    1.1667 C   0  0  0  0  0  0  0  0  0  0  0  0
    4.4247    0.2166    1.2713 C   0  0  0  0  0  0  0  0  0  0  0  0
    4.9502    0.2261    2.6927 N   0  0  0  0  0  4  0  0  0  0  0  0
    4.4939    1.4051    3.5010 C   0  0  0  0  0  0  0  0  0  0  0  0
    4.7723   -1.0776    3.4142 C   0  0  0  0  0  0  0  0  0  0  0  0
    1.2310   -0.0509   -2.0072 N   0  0  0  0  0  0  0  0  0  0  0  0
    0.0452   -0.1587   -2.5220 C   0  0  0  0  0  0  0  0  0  0  0  0
   -0.2922   -0.1815   -3.8761 N   0  0  0  0  0  0  0  0  0  0  0  0
    0.4837    0.5467   -4.8619 C   0  0  0  0  0  0  0  0  0  0  0  0
   -2.1342   -0.7288   -4.6170 H   0  0  0  0  0  0  0  0  0  0  0  0
   -3.2382   -0.3606   -2.5076 H   0  0  0  0  0  0  0  0  0  0  0  0
   -3.1832   -2.7664    0.1993 H   0  0  0  0  0  0  0  0  0  0  0  0
   -5.5685   -3.0683   -0.3918 H   0  0  0  0  0  0  0  0  0  0  0  0
   -7.0627   -1.0945   -0.5570 H   0  0  0  0  0  0  0  0  0  0  0  0
   -6.1861    1.1664   -0.1117 H   0  0  0  0  0  0  0  0  0  0  0  0
   -3.0926    1.9058    1.5122 H   0  0  0  0  0  0  0  0  0  0  0  0
   -4.4665    2.6039    0.6572 H   0  0  0  0  0  0  0  0  0  0  0  0
   -2.9942    2.2100   -0.2455 H   0  0  0  0  0  0  0  0  0  0  0  0
    0.3608   -0.2567    1.1623 H   0  0  0  0  0  0  0  0  0  0  0  0
    2.5908   -0.8926    1.6263 H   0  0  0  0  0  0  0  0  0  0  0  0
    2.3956    0.8789    1.6780 H   0  0  0  0  0  0  0  0  0  0  0  0
    4.9426   -0.5978    0.7509 H   0  0  0  0  0  0  0  0  0  0  0  0
    4.7488    1.1576    0.8108 H   0  0  0  0  0  0  0  0  0  0  0  0
    5.9669    0.3436    2.5841 H   0  0  0  0  0  0  0  0  0  0  0  0
    5.0784    1.4243    4.4248 H   0  0  0  0  0  0  0  0  0  0  0  0
    4.6839    2.3122    2.9217 H   0  0  0  0  0  0  0  0  0  0  0  0
    3.4300    1.2932    3.7230 H   0  0  0  0  0  0  0  0  0  0  0  0
    5.1533   -1.8782    2.7751 H   0  0  0  0  0  0  0  0  0  0  0  0
    5.3541   -1.0308    4.3387 H   0  0  0  0  0  0  0  0  0  0  0  0
    3.7118   -1.2192    3.6358 H   0  0  0  0  0  0  0  0  0  0  0  0
    0.1211    0.3260   -5.8712 H   0  0  0  0  0  0  0  0  0  0  0  0
    0.4102    1.6262   -4.6940 H   0  0  0  0  0  0  0  0  0  0  0  0
    1.5378    0.2553   -4.8149 H   0  0  0  0  0  0  0  0  0  0  0  0
  1  2  1  0
  2  3  2  0
  3  4  1  0
  4  5  2  3
  5  6  1  0
  6  7  2  0
  7  8  1  0
  8  9  2  0
  9 10  1  0
 10 11  2  0
 11 12  1  0
  4 13  1  0
 13 14  1  0
 14 15  2  3
 15 16  1  0
 16 17  1  0
 17 18  1  0
 18 19  1  0
 18 20  1  0
 14 21  1  0
 21 22  2  0
 22 23  1  0
 23 24  1  0
 23  1  1  0
 22  3  1  0
 11  6  1  0
  1 25  1  0
  2 26  1  0
  7 27  1  0
  8 28  1  0
  9 29  1  0
 10 30  1  0
 12 31  1  0
 12 32  1  0
 12 33  1  0
 13 34  1  0
 16 35  1  0
 16 36  1  0
 17 37  1  0
 17 38  1  0
 18 39  1  0
 19 40  1  0
 19 41  1  0
 19 42  1  0
 20 43  1  0
 20 44  1  0
 20 45  1  0
 24 46  1  0
 24 47  1  0
 24 48  1  0
M  CHG  1  18   1
M  END
>  <ScrubInfo>  (8) 
{"isomerGroup": 0, "isomerId": 7, "confId": 0, "nr_conformers:": 1, "nr_isomers:": 9}

$$$$
_i8
     RDKit          3D

 48 50  0  0  0  0  0  0  0  0999 V2000
    0.9204    0.6969   -1.5496 N   0  0  0  0  0  0  0  0  0  0  0  0
    1.2496    0.6086   -0.2112 C   0  0  0  0  0  0  0  0  0  0  0  0
    2.5004    0.6431    0.1241 N   0  0  0  0  0  0  0  0  0  0  0  0
    2.8254    0.5676    1.5502 C   0  0  0  0  0  0  0  0  0  0  0  0
    4.3433    0.7071    1.7584 C   0  0  0  0  0  0  0  0  0  0  0  0
    5.1670   -0.4522    1.2197 N   0  0  0  0  0  4  0  0  0  0  0  0
    5.1195   -0.5939   -0.2762 C   0  0  0  0  0  0  0  0  0  0  0  0
    4.9143   -1.7566    1.9142 C   0  0  0  0  0  0  0  0  0  0  0  0
    0.1484    0.4863    0.6141 N   0  0  0  0  0  0  0  0  0  0  0  0
   -1.2028    0.4365    0.3277 C   0  0  0  0  0  0  0  0  0  0  0  0
   -2.0630    0.3115    1.2923 N   0  0  0  0  0  0  0  0  0  0  0  0
   -3.4416    0.2665    1.0542 C   0  0  0  0  0  0  0  0  0  0  0  0
   -4.1700    1.4628    1.0518 C   0  0  0  0  0  0  0  0  0  0  0  0
   -5.5477    1.4572    0.8350 C   0  0  0  0  0  0  0  0  0  0  0  0
   -6.2113    0.2506    0.6328 C   0  0  0  0  0  0  0  0  0  0  0  0
   -5.5011   -0.9502    0.6602 C   0  0  0  0  0  0  0  0  0  0  0  0
   -4.1158   -0.9567    0.8865 C   0  0  0  0  0  0  0  0  0  0  0  0
   -3.3731   -2.2619    0.9176 C   0  0  0  0  0  0  0  0  0  0  0  0
   -1.4438    0.5370   -1.0981 C   0  0  0  0  0  0  0  0  0  0  0  0
   -2.5556    0.5386   -1.9598 C   0  0  0  0  0  0  0  0  0  0  0  0
   -2.2094    0.6604   -3.2491 N   0  0  0  0  0  0  0  0  0  0  0  0
   -0.8639    0.7516   -3.2203 N   0  0  0  0  0  0  0  0  0  0  0  0
   -0.1514    0.9037   -4.4641 C   0  0  0  0  0  0  0  0  0  0  0  0
   -0.3700    0.6662   -1.9536 C   0  0  0  0  0  0  0  0  0  0  0  0
    1.6968    0.8207   -2.1873 H   0  0  0  0  0  0  0  0  0  0  0  0
    2.4668   -0.3725    1.9826 H   0  0  0  0  0  0  0  0  0  0  0  0
    2.3414    1.3949    2.0836 H   0  0  0  0  0  0  0  0  0  0  0  0
    4.7257    1.6111    1.2710 H   0  0  0  0  0  0  0  0  0  0  0  0
    4.5741    0.7742    2.8273 H   0  0  0  0  0  0  0  0  0  0  0  0
    6.1395   -0.1994    1.4346 H   0  0  0  0  0  0  0  0  0  0  0  0
    5.2261    0.3969   -0.7249 H   0  0  0  0  0  0  0  0  0  0  0  0
    4.1838   -1.0764   -0.5664 H   0  0  0  0  0  0  0  0  0  0  0  0
    5.9650   -1.2221   -0.5714 H   0  0  0  0  0  0  0  0  0  0  0  0
    5.6807   -2.4646    1.5873 H   0  0  0  0  0  0  0  0  0  0  0  0
    3.9191   -2.1187    1.6455 H   0  0  0  0  0  0  0  0  0  0  0  0
    4.9964   -1.5920    2.9915 H   0  0  0  0  0  0  0  0  0  0  0  0
    0.3015    0.4321    1.6080 H   0  0  0  0  0  0  0  0  0  0  0  0
   -3.6583    2.4068    1.2179 H   0  0  0  0  0  0  0  0  0  0  0  0
   -6.1023    2.3920    0.8274 H   0  0  0  0  0  0  0  0  0  0  0  0
   -7.2855    0.2425    0.4627 H   0  0  0  0  0  0  0  0  0  0  0  0
   -6.0394   -1.8840    0.5108 H   0  0  0  0  0  0  0  0  0  0  0  0
   -2.7507   -2.3638    0.0232 H   0  0  0  0  0  0  0  0  0  0  0  0
   -2.7408   -2.3241    1.8093 H   0  0  0  0  0  0  0  0  0  0  0  0
   -4.0615   -3.1130    0.9496 H   0  0  0  0  0  0  0  0  0  0  0  0
   -3.6086    0.4551   -1.7254 H   0  0  0  0  0  0  0  0  0  0  0  0
    0.8649    1.2520   -4.2683 H   0  0  0  0  0  0  0  0  0  0  0  0
   -0.6744    1.6391   -5.0812 H   0  0  0  0  0  0  0  0  0  0  0  0
   -0.1283   -0.0675   -4.9642 H   0  0  0  0  0  0  0  0  0  0  0  0
  1  2  1  0
  2  3  2  3
  3  4  1  0
  4  5  1  0
  5  6  1  0
  6  7  1  0
  6  8  1  0
  2  9  1  0
  9 10  1  0
 10 11  2  3
 11 12  1  0
 12 13  2  0
 13 14  1  0
 14 15  2  0
 15 16  1  0
 16 17  2  0
 17 18  1  0
 10 19  1  0
 19 20  1  0
 20 21  2  0
 21 22  1  0
 22 23  1  0
 22 24  1  0
 24  1  1  0
 17 12  1  0
 24 19  2  0
  1 25  1  0
  4 26  1  0
  4 27  1  0
  5 28  1  0
  5 29  1  0
  6 30  1  0
  7 31  1  0
  7 32  1  0
  7 33  1  0
  8 34  1  0
  8 35  1  0
  8 36  1  0
  9 37  1  0
 13 38  1  0
 14 39  1  0
 15 40  1  0
 16 41  1  0
 18 42  1  0
 18 43  1  0
 18 44  1  0
 20 45  1  0
 23 46  1  0
 23 47  1  0
 23 48  1  0
M  CHG  1   6   1
M  END
>  <ScrubInfo>  (9) 
{"isomerGroup": 0, "isomerId": 8, "confId": 0, "nr_conformers:": 1, "nr_isomers:": 9}

$$$$
