REMARK SMILES Cc1ccccc1Nc1nc(NCC[NH+](C)C)nc2c1cnn2C
REMARK SMILES IDX 12 1 13 3 14 4 15 5 16 6 17 7 11 9 10 10 18 11 9 12 19 13
REMARK SMILES IDX 20 14 23 15 21 16 22 17 24 18 8 19 7 21 6 22 2 23 5 24 3 25
REMARK SMILES IDX 4 26 1 27
REMARK H PARENT 12 2 15 8 8 20
ROOT
ATOM      1  N   UNL     1       1.210   0.799  -0.850  1.00  0.00    -0.348 N 
ATOM      2  H   UNL     1       0.471   1.377  -1.267  1.00  0.00     0.163 HD
ENDROOT
BRANCH   1   3
ATOM      3  C   UNL     1       2.352   1.592  -0.374  1.00  0.00     0.177 C 
BRANCH   3   4
ATOM      4  C   UNL     1       3.614   0.707  -0.266  1.00  0.00     0.283 C 
BRANCH   4   5
ATOM      5  N   UNL     1       3.559  -0.365  -1.348  1.00  0.00    -0.338 N 
ATOM      6  C   UNL     1       4.168  -1.661  -0.925  1.00  0.00     0.332 C 
ATOM      7  C   UNL     1       4.046   0.102  -2.682  1.00  0.00     0.332 C 
ATOM      8  H   UNL     1       2.537  -0.528  -1.446  1.00  0.00     0.347 HD
ENDBRANCH   4   5
ENDBRANCH   3   4
ENDBRANCH   1   3
BRANCH   1   9
ATOM      9  C   UNL     1       0.507   0.173   0.187  1.00  0.00     0.226 A 
ATOM     10  N   UNL     1      -0.820   0.284   0.088  1.00  0.00    -0.195 NA
ATOM     11  N   UNL     1       1.187  -0.488   1.135  1.00  0.00    -0.193 NA
ATOM     12  C   UNL     1      -1.636  -0.290   1.013  1.00  0.00     0.147 A 
ATOM     13  C   UNL     1       0.367  -1.048   2.044  1.00  0.00     0.165 A 
ATOM     14  C   UNL     1      -1.016  -0.997   2.049  1.00  0.00     0.082 A 
ATOM     15  N   UNL     1       0.716  -1.779   3.149  1.00  0.00    -0.250 N 
ATOM     16  C   UNL     1      -1.394  -1.739   3.186  1.00  0.00     0.149 A 
ATOM     17  N   UNL     1      -0.344  -2.214   3.863  1.00  0.00    -0.179 NA
ATOM     18  C   UNL     1       2.045  -2.106   3.600  1.00  0.00     0.176 C 
BRANCH  12  19
ATOM     19  N   UNL     1      -3.033  -0.157   0.933  1.00  0.00    -0.339 N 
ATOM     20  H   UNL     1      -3.478  -0.231   1.840  1.00  0.00     0.168 HD
BRANCH  19  21
ATOM     21  C   UNL     1      -3.739   0.691   0.050  1.00  0.00     0.043 A 
ATOM     22  C   UNL     1      -4.438   1.783   0.595  1.00  0.00     0.026 A 
ATOM     23  C   UNL     1      -3.716   0.528  -1.349  1.00  0.00    -0.028 A 
ATOM     24  C   UNL     1      -5.099   2.698  -0.225  1.00  0.00     0.002 A 
ATOM     25  C   UNL     1      -4.373   1.467  -2.164  1.00  0.00     0.005 A 
ATOM     26  C   UNL     1      -5.063   2.542  -1.605  1.00  0.00     0.000 A 
ATOM     27  C   UNL     1      -3.018  -0.624  -2.019  1.00  0.00     0.046 C 
ENDBRANCH  19  21
ENDBRANCH  12  19
ENDBRANCH   1   9
TORSDOF 6
