_i0
     RDKit          3D

 53 56  0  0  0  0  0  0  0  0999 V2000
    7.8276    2.0739    2.5425 C   0  0  0  0  0  0  0  0  0  0  0  0
    6.6598    1.3016    2.0044 C   0  0  0  0  0  0  0  0  0  0  0  0
    6.2559    1.4614    0.6740 C   0  0  0  0  0  0  0  0  0  0  0  0
    5.1481    0.7673    0.1803 C   0  0  0  0  0  0  0  0  0  0  0  0
    4.4217   -0.0960    1.0111 C   0  0  0  0  0  0  0  0  0  0  0  0
    3.2152   -0.8415    0.4888 C   0  0  0  0  0  0  0  0  0  0  0  0
    2.0155   -0.2371    1.0285 N   0  0  0  0  0  0  0  0  0  0  0  0
    0.8323   -0.7065    0.4756 C   0  0  0  0  0  0  0  0  0  0  0  0
   -0.1489    0.1762    0.3961 N   0  0  0  0  0  0  0  0  0  0  0  0
   -1.2892   -0.2757   -0.1093 C   0  0  0  0  0  0  0  0  0  0  0  0
   -2.3083    0.6731   -0.1986 N   0  0  0  0  0  0  0  0  0  0  0  0
   -3.7038    0.5779   -0.3820 C   0  0  0  0  0  0  0  0  0  0  0  0
   -4.3655   -0.6587   -0.3251 C   0  0  0  0  0  0  0  0  0  0  0  0
   -5.7410   -0.7566   -0.5205 C   0  0  0  0  0  0  0  0  0  0  0  0
   -6.4856    0.3839   -0.7949 C   0  0  0  0  0  0  0  0  0  0  0  0
   -5.8655    1.6352   -0.8926 C   0  0  0  0  0  0  0  0  0  0  0  0
   -6.6357    2.7725   -1.1891 C   0  0  0  0  0  0  0  0  0  0  0  0
   -6.0454    4.0281   -1.3136 C   0  0  0  0  0  0  0  0  0  0  0  0
   -4.6744    4.1611   -1.1491 C   0  0  0  0  0  0  0  0  0  0  0  0
   -3.8958    3.0393   -0.8504 C   0  0  0  0  0  0  0  0  0  0  0  0
   -4.4628    1.7491   -0.7008 C   0  0  0  0  0  0  0  0  0  0  0  0
   -1.4577   -1.5146   -0.5503 N   0  0  0  0  0  0  0  0  0  0  0  0
   -0.4236   -2.3406   -0.4495 C   0  0  0  0  0  0  0  0  0  0  0  0
   -0.5747   -3.6626   -0.8811 N   0  0  0  0  0  0  0  0  0  0  0  0
   -1.6472   -3.8649   -1.8435 C   0  0  0  0  0  0  0  0  0  0  0  0
    0.6711   -4.3704   -1.1285 C   0  0  0  0  0  0  0  0  0  0  0  0
    0.7418   -1.9617    0.0631 N   0  0  0  0  0  0  0  0  0  0  0  0
    4.8149   -0.2364    2.3493 C   0  0  0  0  0  0  0  0  0  0  0  0
    5.9218    0.4582    2.8419 C   0  0  0  0  0  0  0  0  0  0  0  0
    8.5717    2.2529    1.7592 H   0  0  0  0  0  0  0  0  0  0  0  0
    7.4896    3.0372    2.9365 H   0  0  0  0  0  0  0  0  0  0  0  0
    8.3271    1.5190    3.3436 H   0  0  0  0  0  0  0  0  0  0  0  0
    6.8022    2.1298    0.0123 H   0  0  0  0  0  0  0  0  0  0  0  0
    4.8560    0.9090   -0.8578 H   0  0  0  0  0  0  0  0  0  0  0  0
    3.2142   -0.8104   -0.6089 H   0  0  0  0  0  0  0  0  0  0  0  0
    3.2983   -1.8947    0.7868 H   0  0  0  0  0  0  0  0  0  0  0  0
    1.9917    0.7750    0.9909 H   0  0  0  0  0  0  0  0  0  0  0  0
   -1.9863    1.5310    0.2243 H   0  0  0  0  0  0  0  0  0  0  0  0
   -3.8227   -1.5708   -0.0947 H   0  0  0  0  0  0  0  0  0  0  0  0
   -6.2295   -1.7250   -0.4533 H   0  0  0  0  0  0  0  0  0  0  0  0
   -7.5590    0.2852   -0.9414 H   0  0  0  0  0  0  0  0  0  0  0  0
   -7.7111    2.6863   -1.3316 H   0  0  0  0  0  0  0  0  0  0  0  0
   -6.6556    4.8965   -1.5463 H   0  0  0  0  0  0  0  0  0  0  0  0
   -4.2044    5.1352   -1.2565 H   0  0  0  0  0  0  0  0  0  0  0  0
   -2.8246    3.1906   -0.7502 H   0  0  0  0  0  0  0  0  0  0  0  0
   -2.6223   -3.5868   -1.4275 H   0  0  0  0  0  0  0  0  0  0  0  0
   -1.4714   -3.2963   -2.7641 H   0  0  0  0  0  0  0  0  0  0  0  0
   -1.7200   -4.9242   -2.1150 H   0  0  0  0  0  0  0  0  0  0  0  0
    0.4683   -5.4067   -1.4218 H   0  0  0  0  0  0  0  0  0  0  0  0
    1.2932   -4.4215   -0.2274 H   0  0  0  0  0  0  0  0  0  0  0  0
    1.2442   -3.9011   -1.9366 H   0  0  0  0  0  0  0  0  0  0  0  0
    4.2483   -0.8834    3.0166 H   0  0  0  0  0  0  0  0  0  0  0  0
    6.2015    0.3380    3.8862 H   0  0  0  0  0  0  0  0  0  0  0  0
  1  2  1  0
  2  3  2  0
  3  4  1  0
  4  5  2  0
  5  6  1  0
  6  7  1  0
  7  8  1  0
  8  9  2  0
  9 10  1  0
 10 11  1  0
 11 12  1  0
 12 13  2  0
 13 14  1  0
 14 15  2  0
 15 16  1  0
 16 17  2  0
 17 18  1  0
 18 19  2  0
 19 20  1  0
 20 21  2  0
 10 22  2  0
 22 23  1  0
 23 24  1  0
 24 25  1  0
 24 26  1  0
 23 27  2  0
  5 28  1  0
 28 29  2  0
 29  2  1  0
 27  8  1  0
 21 12  1  0
 21 16  1  0
  1 30  1  0
  1 31  1  0
  1 32  1  0
  3 33  1  0
  4 34  1  0
  6 35  1  0
  6 36  1  0
  7 37  1  0
 11 38  1  0
 13 39  1  0
 14 40  1  0
 15 41  1  0
 17 42  1  0
 18 43  1  0
 19 44  1  0
 20 45  1  0
 25 46  1  0
 25 47  1  0
 25 48  1  0
 26 49  1  0
 26 50  1  0
 26 51  1  0
 28 52  1  0
 29 53  1  0
M  END
>  <ScrubInfo>  (1) 
{"isomerGroup": 0, "isomerId": 0, "confId": 0, "nr_conformers:": 1, "nr_isomers:": 9}

$$$$
_i1
     RDKit          3D

 53 56  0  0  0  0  0  0  0  0999 V2000
   -0.0484   -0.4284    0.0461 N   0  0  0  0  0  0  0  0  0  0  0  0
   -1.3027    0.0714    0.0117 C   0  0  0  0  0  0  0  0  0  0  0  0
   -2.2822   -0.8865    0.0187 N   0  0  0  0  0  0  0  0  0  0  0  0
   -3.6660   -0.7381   -0.2480 C   0  0  0  0  0  0  0  0  0  0  0  0
   -4.1406    0.3455   -1.0052 C   0  0  0  0  0  0  0  0  0  0  0  0
   -5.4966    0.5014   -1.2782 C   0  0  0  0  0  0  0  0  0  0  0  0
   -6.4121   -0.4209   -0.7867 C   0  0  0  0  0  0  0  0  0  0  0  0
   -5.9892   -1.5014   -0.0029 C   0  0  0  0  0  0  0  0  0  0  0  0
   -6.9385   -2.4092    0.4961 C   0  0  0  0  0  0  0  0  0  0  0  0
   -6.5560   -3.4817    1.2978 C   0  0  0  0  0  0  0  0  0  0  0  0
   -5.2177   -3.6558    1.6176 C   0  0  0  0  0  0  0  0  0  0  0  0
   -4.2608   -2.7631    1.1256 C   0  0  0  0  0  0  0  0  0  0  0  0
   -4.6098   -1.6702    0.2918 C   0  0  0  0  0  0  0  0  0  0  0  0
   -1.4794    1.3553   -0.0014 N   0  0  0  0  0  0  0  0  0  0  0  0
   -0.3700    2.1746    0.0227 C   0  0  0  0  0  0  0  0  0  0  0  0
   -0.5896    3.5437    0.0380 N   0  0  0  0  0  0  0  0  0  0  0  0
    0.5142    4.4566   -0.2175 C   0  0  0  0  0  0  0  0  0  0  0  0
   -1.9238    4.0699   -0.2054 C   0  0  0  0  0  0  0  0  0  0  0  0
    0.8532    1.7200    0.0296 N   0  0  0  0  0  0  0  0  0  0  0  0
    1.0364    0.3724    0.0241 C   0  0  0  0  0  0  0  0  0  0  0  0
    2.2155   -0.1523   -0.0087 N   0  0  0  0  0  0  0  0  0  0  0  0
    3.3394    0.7837   -0.0303 C   0  0  0  0  0  0  0  0  0  0  0  0
    4.6521    0.0357   -0.0677 C   0  0  0  0  0  0  0  0  0  0  0  0
    5.3054   -0.3162    1.1200 C   0  0  0  0  0  0  0  0  0  0  0  0
    6.5121   -1.0196    1.0853 C   0  0  0  0  0  0  0  0  0  0  0  0
    7.0760   -1.4019   -0.1371 C   0  0  0  0  0  0  0  0  0  0  0  0
    8.3872   -2.1283   -0.1753 C   0  0  0  0  0  0  0  0  0  0  0  0
    6.4235   -1.0528   -1.3249 C   0  0  0  0  0  0  0  0  0  0  0  0
    5.2168   -0.3493   -1.2901 C   0  0  0  0  0  0  0  0  0  0  0  0
    0.1477   -1.4100   -0.0325 H   0  0  0  0  0  0  0  0  0  0  0  0
   -2.0028   -1.8384    0.1898 H   0  0  0  0  0  0  0  0  0  0  0  0
   -3.4506    1.0739   -1.4227 H   0  0  0  0  0  0  0  0  0  0  0  0
   -5.8357    1.3413   -1.8786 H   0  0  0  0  0  0  0  0  0  0  0  0
   -7.4670   -0.2818   -1.0142 H   0  0  0  0  0  0  0  0  0  0  0  0
   -7.9947   -2.2819    0.2666 H   0  0  0  0  0  0  0  0  0  0  0  0
   -7.3043   -4.1714    1.6788 H   0  0  0  0  0  0  0  0  0  0  0  0
   -4.9138   -4.4814    2.2561 H   0  0  0  0  0  0  0  0  0  0  0  0
   -3.2315   -2.9309    1.4278 H   0  0  0  0  0  0  0  0  0  0  0  0
    0.2400    5.4907    0.0171 H   0  0  0  0  0  0  0  0  0  0  0  0
    1.3825    4.2135    0.4043 H   0  0  0  0  0  0  0  0  0  0  0  0
    0.8101    4.4120   -1.2708 H   0  0  0  0  0  0  0  0  0  0  0  0
   -1.9742    5.1444    0.0010 H   0  0  0  0  0  0  0  0  0  0  0  0
   -2.2136    3.9098   -1.2492 H   0  0  0  0  0  0  0  0  0  0  0  0
   -2.6633    3.5910    0.4455 H   0  0  0  0  0  0  0  0  0  0  0  0
    3.2871    1.4392   -0.9098 H   0  0  0  0  0  0  0  0  0  0  0  0
    3.3290    1.4288    0.8583 H   0  0  0  0  0  0  0  0  0  0  0  0
    4.8728   -0.0437    2.0798 H   0  0  0  0  0  0  0  0  0  0  0  0
    7.0052   -1.2718    2.0209 H   0  0  0  0  0  0  0  0  0  0  0  0
    8.5102   -2.7597    0.7110 H   0  0  0  0  0  0  0  0  0  0  0  0
    9.2118   -1.4100   -0.2153 H   0  0  0  0  0  0  0  0  0  0  0  0
    8.4456   -2.7837   -1.0507 H   0  0  0  0  0  0  0  0  0  0  0  0
    6.8468   -1.3312   -2.2869 H   0  0  0  0  0  0  0  0  0  0  0  0
    4.7142   -0.1029   -2.2224 H   0  0  0  0  0  0  0  0  0  0  0  0
  1  2  1  0
  2  3  1  0
  3  4  1  0
  4  5  2  0
  5  6  1  0
  6  7  2  0
  7  8  1  0
  8  9  2  0
  9 10  1  0
 10 11  2  0
 11 12  1  0
 12 13  2  0
  2 14  2  0
 14 15  1  0
 15 16  1  0
 16 17  1  0
 16 18  1  0
 15 19  2  0
 19 20  1  0
 20 21  2  3
 21 22  1  0
 22 23  1  0
 23 24  2  0
 24 25  1  0
 25 26  2  0
 26 27  1  0
 26 28  1  0
 28 29  2  0
 20  1  1  0
 29 23  1  0
 13  4  1  0
 13  8  1  0
  1 30  1  0
  3 31  1  0
  5 32  1  0
  6 33  1  0
  7 34  1  0
  9 35  1  0
 10 36  1  0
 11 37  1  0
 12 38  1  0
 17 39  1  0
 17 40  1  0
 17 41  1  0
 18 42  1  0
 18 43  1  0
 18 44  1  0
 22 45  1  0
 22 46  1  0
 24 47  1  0
 25 48  1  0
 27 49  1  0
 27 50  1  0
 27 51  1  0
 28 52  1  0
 29 53  1  0
M  END
>  <ScrubInfo>  (2) 
{"isomerGroup": 0, "isomerId": 1, "confId": 0, "nr_conformers:": 1, "nr_isomers:": 9}

$$$$
_i2
     RDKit          3D

 53 56  0  0  0  0  0  0  0  0999 V2000
    0.0232    0.5367   -0.5946 N   0  0  0  0  0  0  0  0  0  0  0  0
    0.9713   -0.3404   -0.2254 C   0  0  0  0  0  0  0  0  0  0  0  0
    2.2705    0.0625   -0.2944 N   0  0  0  0  0  0  0  0  0  0  0  0
    2.7107    1.3624    0.1765 C   0  0  0  0  0  0  0  0  0  0  0  0
    4.2159    1.4373    0.1208 C   0  0  0  0  0  0  0  0  0  0  0  0
    4.8750    1.5657   -1.1097 C   0  0  0  0  0  0  0  0  0  0  0  0
    6.2694    1.6219   -1.1665 C   0  0  0  0  0  0  0  0  0  0  0  0
    7.0302    1.5560    0.0057 C   0  0  0  0  0  0  0  0  0  0  0  0
    8.5286    1.5815   -0.0587 C   0  0  0  0  0  0  0  0  0  0  0  0
    6.3757    1.4038    1.2330 C   0  0  0  0  0  0  0  0  0  0  0  0
    4.9809    1.3470    1.2912 C   0  0  0  0  0  0  0  0  0  0  0  0
    0.6661   -1.5345    0.1708 N   0  0  0  0  0  0  0  0  0  0  0  0
   -0.6768   -1.8615    0.2260 C   0  0  0  0  0  0  0  0  0  0  0  0
   -1.0119   -3.1165    0.7128 N   0  0  0  0  0  0  0  0  0  0  0  0
   -2.3830   -3.5903    0.5799 C   0  0  0  0  0  0  0  0  0  0  0  0
    0.0082   -4.1449    0.8353 C   0  0  0  0  0  0  0  0  0  0  0  0
   -1.6248   -1.0498   -0.1538 N   0  0  0  0  0  0  0  0  0  0  0  0
   -1.2796    0.1801   -0.6276 C   0  0  0  0  0  0  0  0  0  0  0  0
   -2.1633    1.0026   -1.1155 N   0  0  0  0  0  0  0  0  0  0  0  0
   -3.5145    0.5961   -1.1476 C   0  0  0  0  0  0  0  0  0  0  0  0
   -3.9783   -0.0691   -2.2904 C   0  0  0  0  0  0  0  0  0  0  0  0
   -5.3059   -0.4744   -2.3898 C   0  0  0  0  0  0  0  0  0  0  0  0
   -6.1905   -0.2067   -1.3472 C   0  0  0  0  0  0  0  0  0  0  0  0
   -5.7621    0.4736   -0.1962 C   0  0  0  0  0  0  0  0  0  0  0  0
   -6.6615    0.7499    0.8476 C   0  0  0  0  0  0  0  0  0  0  0  0
   -6.2455    1.4314    1.9915 C   0  0  0  0  0  0  0  0  0  0  0  0
   -4.9246    1.8472    2.1071 C   0  0  0  0  0  0  0  0  0  0  0  0
   -4.0193    1.5795    1.0786 C   0  0  0  0  0  0  0  0  0  0  0  0
   -4.4114    0.8887   -0.0882 C   0  0  0  0  0  0  0  0  0  0  0  0
    0.2580    1.3664   -1.1090 H   0  0  0  0  0  0  0  0  0  0  0  0
    2.8774   -0.6809    0.0447 H   0  0  0  0  0  0  0  0  0  0  0  0
    2.3611    1.5289    1.2026 H   0  0  0  0  0  0  0  0  0  0  0  0
    2.2909    2.1647   -0.4417 H   0  0  0  0  0  0  0  0  0  0  0  0
    4.3026    1.6121   -2.0342 H   0  0  0  0  0  0  0  0  0  0  0  0
    6.7583    1.7143   -2.1339 H   0  0  0  0  0  0  0  0  0  0  0  0
    8.9158    0.5639   -0.1682 H   0  0  0  0  0  0  0  0  0  0  0  0
    8.9510    2.0256    0.8488 H   0  0  0  0  0  0  0  0  0  0  0  0
    8.8730    2.1847   -0.9054 H   0  0  0  0  0  0  0  0  0  0  0  0
    6.9496    1.3268    2.1540 H   0  0  0  0  0  0  0  0  0  0  0  0
    4.4981    1.2276    2.2590 H   0  0  0  0  0  0  0  0  0  0  0  0
   -3.0974   -2.8470    0.9503 H   0  0  0  0  0  0  0  0  0  0  0  0
   -2.6119   -3.8103   -0.4682 H   0  0  0  0  0  0  0  0  0  0  0  0
   -2.5473   -4.5018    1.1646 H   0  0  0  0  0  0  0  0  0  0  0  0
    0.3426   -4.4723   -0.1546 H   0  0  0  0  0  0  0  0  0  0  0  0
   -0.3698   -5.0204    1.3741 H   0  0  0  0  0  0  0  0  0  0  0  0
    0.8735   -3.7801    1.3991 H   0  0  0  0  0  0  0  0  0  0  0  0
   -3.2875   -0.2753   -3.1030 H   0  0  0  0  0  0  0  0  0  0  0  0
   -5.6497   -0.9961   -3.2783 H   0  0  0  0  0  0  0  0  0  0  0  0
   -7.2248   -0.5298   -1.4416 H   0  0  0  0  0  0  0  0  0  0  0  0
   -7.7001    0.4350    0.7753 H   0  0  0  0  0  0  0  0  0  0  0  0
   -6.9534    1.6372    2.7896 H   0  0  0  0  0  0  0  0  0  0  0  0
   -4.5936    2.3785    2.9950 H   0  0  0  0  0  0  0  0  0  0  0  0
   -2.9895    1.9121    1.1881 H   0  0  0  0  0  0  0  0  0  0  0  0
  1  2  1  0
  2  3  1  0
  3  4  1  0
  4  5  1  0
  5  6  2  0
  6  7  1  0
  7  8  2  0
  8  9  1  0
  8 10  1  0
 10 11  2  0
  2 12  2  0
 12 13  1  0
 13 14  1  0
 14 15  1  0
 14 16  1  0
 13 17  2  0
 17 18  1  0
 18 19  2  3
 19 20  1  0
 20 21  2  0
 21 22  1  0
 22 23  2  0
 23 24  1  0
 24 25  2  0
 25 26  1  0
 26 27  2  0
 27 28  1  0
 28 29  2  0
 18  1  1  0
 29 20  1  0
 11  5  1  0
 29 24  1  0
  1 30  1  0
  3 31  1  0
  4 32  1  0
  4 33  1  0
  6 34  1  0
  7 35  1  0
  9 36  1  0
  9 37  1  0
  9 38  1  0
 10 39  1  0
 11 40  1  0
 15 41  1  0
 15 42  1  0
 15 43  1  0
 16 44  1  0
 16 45  1  0
 16 46  1  0
 21 47  1  0
 22 48  1  0
 23 49  1  0
 25 50  1  0
 26 51  1  0
 27 52  1  0
 28 53  1  0
M  END
>  <ScrubInfo>  (3) 
{"isomerGroup": 0, "isomerId": 2, "confId": 0, "nr_conformers:": 1, "nr_isomers:": 9}

$$$$
_i3
     RDKit          3D

 53 56  0  0  0  0  0  0  0  0999 V2000
   -1.5643    2.9567    0.8739 N   0  0  0  0  0  0  0  0  0  0  0  0
   -0.6791    3.4158   -0.0362 C   0  0  0  0  0  0  0  0  0  0  0  0
   -0.8244    4.7322   -0.4415 N   0  0  0  0  0  0  0  0  0  0  0  0
    0.0870    5.2228   -1.4788 C   0  0  0  0  0  0  0  0  0  0  0  0
   -1.2523    5.7667    0.4989 C   0  0  0  0  0  0  0  0  0  0  0  0
    0.2401    2.6222   -0.5014 N   0  0  0  0  0  0  0  0  0  0  0  0
    0.2882    1.3431   -0.0027 C   0  0  0  0  0  0  0  0  0  0  0  0
    1.3097    0.5785   -0.4839 N   0  0  0  0  0  0  0  0  0  0  0  0
    1.2589   -0.8638   -0.4302 C   0  0  0  0  0  0  0  0  0  0  0  0
    2.4839   -1.4343   -1.1036 C   0  0  0  0  0  0  0  0  0  0  0  0
    3.7270   -1.4018   -0.4570 C   0  0  0  0  0  0  0  0  0  0  0  0
    4.8668   -1.9122   -1.0823 C   0  0  0  0  0  0  0  0  0  0  0  0
    4.7837   -2.4687   -2.3633 C   0  0  0  0  0  0  0  0  0  0  0  0
    6.0137   -2.9863   -3.0479 C   0  0  0  0  0  0  0  0  0  0  0  0
    3.5481   -2.4808   -3.0204 C   0  0  0  0  0  0  0  0  0  0  0  0
    2.4074   -1.9700   -2.3958 C   0  0  0  0  0  0  0  0  0  0  0  0
   -0.5567    0.8550    0.8539 N   0  0  0  0  0  0  0  0  0  0  0  0
   -1.5672    1.6659    1.2753 C   0  0  0  0  0  0  0  0  0  0  0  0
   -2.5334    1.2217    2.0271 N   0  0  0  0  0  0  0  0  0  0  0  0
   -2.5102   -0.1355    2.4148 C   0  0  0  0  0  0  0  0  0  0  0  0
   -1.8959   -0.4644    3.6301 C   0  0  0  0  0  0  0  0  0  0  0  0
   -1.8524   -1.7831    4.0724 C   0  0  0  0  0  0  0  0  0  0  0  0
   -2.4351   -2.7896    3.3052 C   0  0  0  0  0  0  0  0  0  0  0  0
   -3.0740   -2.4913    2.0913 C   0  0  0  0  0  0  0  0  0  0  0  0
   -3.6674   -3.5099    1.3262 C   0  0  0  0  0  0  0  0  0  0  0  0
   -4.3102   -3.2212    0.1223 C   0  0  0  0  0  0  0  0  0  0  0  0
   -4.3701   -1.9097   -0.3328 C   0  0  0  0  0  0  0  0  0  0  0  0
   -3.7844   -0.8871    0.4158 C   0  0  0  0  0  0  0  0  0  0  0  0
   -3.1234   -1.1505    1.6352 C   0  0  0  0  0  0  0  0  0  0  0  0
   -2.4122    3.4592    1.0607 H   0  0  0  0  0  0  0  0  0  0  0  0
   -0.2637    6.1758   -1.8895 H   0  0  0  0  0  0  0  0  0  0  0  0
    0.1424    4.5198   -2.3172 H   0  0  0  0  0  0  0  0  0  0  0  0
    1.0924    5.3695   -1.0699 H   0  0  0  0  0  0  0  0  0  0  0  0
   -1.3403    6.7416    0.0069 H   0  0  0  0  0  0  0  0  0  0  0  0
   -0.5300    5.8607    1.3165 H   0  0  0  0  0  0  0  0  0  0  0  0
   -2.2368    5.5419    0.9198 H   0  0  0  0  0  0  0  0  0  0  0  0
    1.7250    0.9693   -1.3191 H   0  0  0  0  0  0  0  0  0  0  0  0
    1.2231   -1.2154    0.6083 H   0  0  0  0  0  0  0  0  0  0  0  0
    0.3530   -1.2321   -0.9272 H   0  0  0  0  0  0  0  0  0  0  0  0
    3.8105   -0.9685    0.5380 H   0  0  0  0  0  0  0  0  0  0  0  0
    5.8209   -1.8700   -0.5618 H   0  0  0  0  0  0  0  0  0  0  0  0
    5.7643   -3.8007   -3.7362 H   0  0  0  0  0  0  0  0  0  0  0  0
    6.4950   -2.1812   -3.6116 H   0  0  0  0  0  0  0  0  0  0  0  0
    6.7278   -3.3847   -2.3195 H   0  0  0  0  0  0  0  0  0  0  0  0
    3.4654   -2.8887   -4.0253 H   0  0  0  0  0  0  0  0  0  0  0  0
    1.4579   -1.9917   -2.9266 H   0  0  0  0  0  0  0  0  0  0  0  0
   -1.4405    0.3216    4.2259 H   0  0  0  0  0  0  0  0  0  0  0  0
   -1.3644   -2.0250    5.0122 H   0  0  0  0  0  0  0  0  0  0  0  0
   -2.3907   -3.8150    3.6657 H   0  0  0  0  0  0  0  0  0  0  0  0
   -3.6340   -4.5424    1.6670 H   0  0  0  0  0  0  0  0  0  0  0  0
   -4.7649   -4.0204   -0.4565 H   0  0  0  0  0  0  0  0  0  0  0  0
   -4.8712   -1.6771   -1.2682 H   0  0  0  0  0  0  0  0  0  0  0  0
   -3.8431    0.1330    0.0431 H   0  0  0  0  0  0  0  0  0  0  0  0
  1  2  1  0
  2  3  1  0
  3  4  1  0
  3  5  1  0
  2  6  2  0
  6  7  1  0
  7  8  1  0
  8  9  1  0
  9 10  1  0
 10 11  2  0
 11 12  1  0
 12 13  2  0
 13 14  1  0
 13 15  1  0
 15 16  2  0
  7 17  2  0
 17 18  1  0
 18 19  2  3
 19 20  1  0
 20 21  2  0
 21 22  1  0
 22 23  2  0
 23 24  1  0
 24 25  2  0
 25 26  1  0
 26 27  2  0
 27 28  1  0
 28 29  2  0
 18  1  1  0
 29 20  1  0
 16 10  1  0
 29 24  1  0
  1 30  1  0
  4 31  1  0
  4 32  1  0
  4 33  1  0
  5 34  1  0
  5 35  1  0
  5 36  1  0
  8 37  1  0
  9 38  1  0
  9 39  1  0
 11 40  1  0
 12 41  1  0
 14 42  1  0
 14 43  1  0
 14 44  1  0
 15 45  1  0
 16 46  1  0
 21 47  1  0
 22 48  1  0
 23 49  1  0
 25 50  1  0
 26 51  1  0
 27 52  1  0
 28 53  1  0
M  END
>  <ScrubInfo>  (4) 
{"isomerGroup": 0, "isomerId": 3, "confId": 0, "nr_conformers:": 1, "nr_isomers:": 9}

$$$$
_i4
     RDKit          3D

 53 56  0  0  0  0  0  0  0  0999 V2000
    0.9507   -2.0445   -0.5696 N   0  0  0  0  0  0  0  0  0  0  0  0
   -0.2972   -2.4784   -0.8364 C   0  0  0  0  0  0  0  0  0  0  0  0
   -0.4296   -3.7701   -1.3138 N   0  0  0  0  0  0  0  0  0  0  0  0
   -1.7762   -4.2298   -1.6628 C   0  0  0  0  0  0  0  0  0  0  0  0
    0.4712   -4.8380   -0.8875 C   0  0  0  0  0  0  0  0  0  0  0  0
   -1.3063   -1.6823   -0.6495 N   0  0  0  0  0  0  0  0  0  0  0  0
   -1.0583   -0.4188   -0.1612 C   0  0  0  0  0  0  0  0  0  0  0  0
   -2.0831    0.4582    0.0745 N   0  0  0  0  0  0  0  0  0  0  0  0
   -3.4493    0.2181    0.3477 C   0  0  0  0  0  0  0  0  0  0  0  0
   -3.9171   -1.0591    0.6935 C   0  0  0  0  0  0  0  0  0  0  0  0
   -5.2642   -1.2904    0.9612 C   0  0  0  0  0  0  0  0  0  0  0  0
   -6.1779   -0.2466    0.8759 C   0  0  0  0  0  0  0  0  0  0  0  0
   -5.7620    1.0389    0.5086 C   0  0  0  0  0  0  0  0  0  0  0  0
   -6.7045    2.0767    0.4128 C   0  0  0  0  0  0  0  0  0  0  0  0
   -6.3231    3.3607    0.0298 C   0  0  0  0  0  0  0  0  0  0  0  0
   -4.9937    3.6219   -0.2693 C   0  0  0  0  0  0  0  0  0  0  0  0
   -4.0443    2.6005   -0.1752 C   0  0  0  0  0  0  0  0  0  0  0  0
   -4.3927    1.2872    0.2265 C   0  0  0  0  0  0  0  0  0  0  0  0
    0.1414    0.0468    0.0731 N   0  0  0  0  0  0  0  0  0  0  0  0
    1.1971   -0.7794   -0.1715 C   0  0  0  0  0  0  0  0  0  0  0  0
    2.4152   -0.3723   -0.0426 N   0  0  0  0  0  0  0  0  0  0  0  0
    2.5999    1.0128    0.3871 C   0  0  0  0  0  0  0  0  0  0  0  0
    4.0701    1.3454    0.4936 C   0  0  0  0  0  0  0  0  0  0  0  0
    4.7776    1.8056   -0.6241 C   0  0  0  0  0  0  0  0  0  0  0  0
    6.1401    2.1006   -0.5303 C   0  0  0  0  0  0  0  0  0  0  0  0
    6.8190    1.9407    0.6829 C   0  0  0  0  0  0  0  0  0  0  0  0
    8.2888    2.2235    0.7742 C   0  0  0  0  0  0  0  0  0  0  0  0
    6.1206    1.4512    1.7924 C   0  0  0  0  0  0  0  0  0  0  0  0
    4.7581    1.1561    1.6986 C   0  0  0  0  0  0  0  0  0  0  0  0
    1.7542   -2.5476   -0.8992 H   0  0  0  0  0  0  0  0  0  0  0  0
   -2.3609   -4.4266   -0.7579 H   0  0  0  0  0  0  0  0  0  0  0  0
   -2.3013   -3.4846   -2.2704 H   0  0  0  0  0  0  0  0  0  0  0  0
   -1.7358   -5.1488   -2.2574 H   0  0  0  0  0  0  0  0  0  0  0  0
    0.4066   -4.9810    0.1962 H   0  0  0  0  0  0  0  0  0  0  0  0
    0.2243   -5.7892   -1.3716 H   0  0  0  0  0  0  0  0  0  0  0  0
    1.5082   -4.6134   -1.1549 H   0  0  0  0  0  0  0  0  0  0  0  0
   -1.7515    1.3497    0.4130 H   0  0  0  0  0  0  0  0  0  0  0  0
   -3.2306   -1.8951    0.7912 H   0  0  0  0  0  0  0  0  0  0  0  0
   -5.5977   -2.2861    1.2408 H   0  0  0  0  0  0  0  0  0  0  0  0
   -7.2248   -0.4485    1.0916 H   0  0  0  0  0  0  0  0  0  0  0  0
   -7.7535    1.8888    0.6326 H   0  0  0  0  0  0  0  0  0  0  0  0
   -7.0655    4.1509   -0.0428 H   0  0  0  0  0  0  0  0  0  0  0  0
   -4.6905    4.6177   -0.5822 H   0  0  0  0  0  0  0  0  0  0  0  0
   -3.0195    2.8465   -0.4410 H   0  0  0  0  0  0  0  0  0  0  0  0
    2.1366    1.7092   -0.3244 H   0  0  0  0  0  0  0  0  0  0  0  0
    2.1301    1.1853    1.3645 H   0  0  0  0  0  0  0  0  0  0  0  0
    4.2682    1.9278   -1.5771 H   0  0  0  0  0  0  0  0  0  0  0  0
    6.6680    2.4519   -1.4135 H   0  0  0  0  0  0  0  0  0  0  0  0
    8.8593    1.3229    0.5271 H   0  0  0  0  0  0  0  0  0  0  0  0
    8.5618    2.5501    1.7832 H   0  0  0  0  0  0  0  0  0  0  0  0
    8.5759    3.0248    0.0852 H   0  0  0  0  0  0  0  0  0  0  0  0
    6.6334    1.2914    2.7378 H   0  0  0  0  0  0  0  0  0  0  0  0
    4.2341    0.7689    2.5691 H   0  0  0  0  0  0  0  0  0  0  0  0
  1  2  1  0
  2  3  1  0
  3  4  1  0
  3  5  1  0
  2  6  2  0
  6  7  1  0
  7  8  1  0
  8  9  1  0
  9 10  2  0
 10 11  1  0
 11 12  2  0
 12 13  1  0
 13 14  2  0
 14 15  1  0
 15 16  2  0
 16 17  1  0
 17 18  2  0
  7 19  2  0
 19 20  1  0
 20 21  2  3
 21 22  1  0
 22 23  1  0
 23 24  2  0
 24 25  1  0
 25 26  2  0
 26 27  1  0
 26 28  1  0
 28 29  2  0
 20  1  1  0
 29 23  1  0
 18  9  1  0
 18 13  1  0
  1 30  1  0
  4 31  1  0
  4 32  1  0
  4 33  1  0
  5 34  1  0
  5 35  1  0
  5 36  1  0
  8 37  1  0
 10 38  1  0
 11 39  1  0
 12 40  1  0
 14 41  1  0
 15 42  1  0
 16 43  1  0
 17 44  1  0
 22 45  1  0
 22 46  1  0
 24 47  1  0
 25 48  1  0
 27 49  1  0
 27 50  1  0
 27 51  1  0
 28 52  1  0
 29 53  1  0
M  END
>  <ScrubInfo>  (5) 
{"isomerGroup": 0, "isomerId": 4, "confId": 0, "nr_conformers:": 1, "nr_isomers:": 9}

$$$$
_i5
     RDKit          3D

 53 56  0  0  0  0  0  0  0  0999 V2000
    1.3875   -1.0732   -0.9304 N   0  0  0  0  0  0  0  0  0  0  0  0
    0.9890    0.0767   -0.3302 C   0  0  0  0  0  0  0  0  0  0  0  0
    1.9732    0.9555    0.0299 N   0  0  0  0  0  0  0  0  0  0  0  0
    3.1879    0.6059    0.6850 C   0  0  0  0  0  0  0  0  0  0  0  0
    3.2596   -0.5295    1.5095 C   0  0  0  0  0  0  0  0  0  0  0  0
    4.4315   -0.8427    2.1920 C   0  0  0  0  0  0  0  0  0  0  0  0
    5.5454   -0.0163    2.0745 C   0  0  0  0  0  0  0  0  0  0  0  0
    5.5038    1.1373    1.2785 C   0  0  0  0  0  0  0  0  0  0  0  0
    6.6308    1.9697    1.1773 C   0  0  0  0  0  0  0  0  0  0  0  0
    6.6049    3.1195    0.3892 C   0  0  0  0  0  0  0  0  0  0  0  0
    5.4522    3.4509   -0.3109 C   0  0  0  0  0  0  0  0  0  0  0  0
    4.3236    2.6334   -0.2207 C   0  0  0  0  0  0  0  0  0  0  0  0
    4.3174    1.4648    0.5748 C   0  0  0  0  0  0  0  0  0  0  0  0
   -0.2647    0.3519   -0.1511 N   0  0  0  0  0  0  0  0  0  0  0  0
   -1.1360   -0.6171   -0.6068 C   0  0  0  0  0  0  0  0  0  0  0  0
   -2.4011   -0.4882   -0.4125 N   0  0  0  0  0  0  0  0  0  0  0  0
   -2.8447    0.7104    0.2973 C   0  0  0  0  0  0  0  0  0  0  0  0
   -4.3501    0.7689    0.4632 C   0  0  0  0  0  0  0  0  0  0  0  0
   -4.9080    1.4303    1.5663 C   0  0  0  0  0  0  0  0  0  0  0  0
   -6.2946    1.5308    1.7126 C   0  0  0  0  0  0  0  0  0  0  0  0
   -7.1514    0.9716    0.7587 C   0  0  0  0  0  0  0  0  0  0  0  0
   -8.6380    1.1063    0.8982 C   0  0  0  0  0  0  0  0  0  0  0  0
   -6.5989    0.3356   -0.3579 C   0  0  0  0  0  0  0  0  0  0  0  0
   -5.2126    0.2362   -0.5037 C   0  0  0  0  0  0  0  0  0  0  0  0
   -0.7802   -1.7599   -1.2851 N   0  0  0  0  0  0  0  0  0  0  0  0
    0.4932   -1.9646   -1.4263 C   0  0  0  0  0  0  0  0  0  0  0  0
    1.0267   -3.0599   -2.0843 N   0  0  0  0  0  0  0  0  0  0  0  0
    0.0784   -3.9651   -2.7439 C   0  0  0  0  0  0  0  0  0  0  0  0
    2.2057   -3.7443   -1.5543 C   0  0  0  0  0  0  0  0  0  0  0  0
    2.3164   -1.0757   -1.3198 H   0  0  0  0  0  0  0  0  0  0  0  0
    1.5786    1.7853    0.4683 H   0  0  0  0  0  0  0  0  0  0  0  0
    2.3923   -1.1714    1.6492 H   0  0  0  0  0  0  0  0  0  0  0  0
    4.4721   -1.7230    2.8287 H   0  0  0  0  0  0  0  0  0  0  0  0
    6.4500   -0.2754    2.6214 H   0  0  0  0  0  0  0  0  0  0  0  0
    7.5446    1.7275    1.7163 H   0  0  0  0  0  0  0  0  0  0  0  0
    7.4855    3.7531    0.3217 H   0  0  0  0  0  0  0  0  0  0  0  0
    5.4282    4.3435   -0.9310 H   0  0  0  0  0  0  0  0  0  0  0  0
    3.4418    2.9161   -0.7922 H   0  0  0  0  0  0  0  0  0  0  0  0
   -2.3898    0.7326    1.2962 H   0  0  0  0  0  0  0  0  0  0  0  0
   -2.5460    1.6154   -0.2474 H   0  0  0  0  0  0  0  0  0  0  0  0
   -4.2628    1.8736    2.3209 H   0  0  0  0  0  0  0  0  0  0  0  0
   -6.7003    2.0496    2.5777 H   0  0  0  0  0  0  0  0  0  0  0  0
   -8.9776    2.0273    0.4146 H   0  0  0  0  0  0  0  0  0  0  0  0
   -9.1523    0.2551    0.4396 H   0  0  0  0  0  0  0  0  0  0  0  0
   -8.9307    1.1317    1.9532 H   0  0  0  0  0  0  0  0  0  0  0  0
   -7.2415   -0.0900   -1.1247 H   0  0  0  0  0  0  0  0  0  0  0  0
   -4.8020   -0.2661   -1.3776 H   0  0  0  0  0  0  0  0  0  0  0  0
   -0.4734   -4.5534   -2.0030 H   0  0  0  0  0  0  0  0  0  0  0  0
   -0.6350   -3.4043   -3.3579 H   0  0  0  0  0  0  0  0  0  0  0  0
    0.6013   -4.6544   -3.4157 H   0  0  0  0  0  0  0  0  0  0  0  0
    2.5437   -4.5328   -2.2355 H   0  0  0  0  0  0  0  0  0  0  0  0
    3.0488   -3.0584   -1.4283 H   0  0  0  0  0  0  0  0  0  0  0  0
    1.9771   -4.2011   -0.5856 H   0  0  0  0  0  0  0  0  0  0  0  0
  1  2  1  0
  2  3  1  0
  3  4  1  0
  4  5  2  0
  5  6  1  0
  6  7  2  0
  7  8  1  0
  8  9  2  0
  9 10  1  0
 10 11  2  0
 11 12  1  0
 12 13  2  0
  2 14  2  0
 14 15  1  0
 15 16  2  3
 16 17  1  0
 17 18  1  0
 18 19  2  0
 19 20  1  0
 20 21  2  0
 21 22  1  0
 21 23  1  0
 23 24  2  0
 15 25  1  0
 25 26  2  0
 26 27  1  0
 27 28  1  0
 27 29  1  0
 26  1  1  0
 13  4  1  0
 24 18  1  0
 13  8  1  0
  1 30  1  0
  3 31  1  0
  5 32  1  0
  6 33  1  0
  7 34  1  0
  9 35  1  0
 10 36  1  0
 11 37  1  0
 12 38  1  0
 17 39  1  0
 17 40  1  0
 19 41  1  0
 20 42  1  0
 22 43  1  0
 22 44  1  0
 22 45  1  0
 23 46  1  0
 24 47  1  0
 28 48  1  0
 28 49  1  0
 28 50  1  0
 29 51  1  0
 29 52  1  0
 29 53  1  0
M  END
>  <ScrubInfo>  (6) 
{"isomerGroup": 0, "isomerId": 5, "confId": 0, "nr_conformers:": 1, "nr_isomers:": 9}

$$$$
_i6
     RDKit          3D

 53 56  0  0  0  0  0  0  0  0999 V2000
    0.4583   -1.1931    0.2428 N   0  0  0  0  0  0  0  0  0  0  0  0
    0.8357    0.0977    0.0794 C   0  0  0  0  0  0  0  0  0  0  0  0
    2.1581    0.3215   -0.1653 N   0  0  0  0  0  0  0  0  0  0  0  0
    3.1924   -0.2563    0.6749 C   0  0  0  0  0  0  0  0  0  0  0  0
    4.5422    0.2621    0.2473 C   0  0  0  0  0  0  0  0  0  0  0  0
    5.1212   -0.1699   -0.9540 C   0  0  0  0  0  0  0  0  0  0  0  0
    6.3671    0.3158   -1.3577 C   0  0  0  0  0  0  0  0  0  0  0  0
    7.0498    1.2538   -0.5760 C   0  0  0  0  0  0  0  0  0  0  0  0
    8.4011    1.7528   -0.9944 C   0  0  0  0  0  0  0  0  0  0  0  0
    6.4769    1.6820    0.6266 C   0  0  0  0  0  0  0  0  0  0  0  0
    5.2306    1.1973    1.0313 C   0  0  0  0  0  0  0  0  0  0  0  0
   -0.0062    1.0763    0.1377 N   0  0  0  0  0  0  0  0  0  0  0  0
   -1.3123    0.6998    0.3715 C   0  0  0  0  0  0  0  0  0  0  0  0
   -2.1408    1.6911    0.4929 N   0  0  0  0  0  0  0  0  0  0  0  0
   -3.5036    1.4153    0.7233 C   0  0  0  0  0  0  0  0  0  0  0  0
   -3.9512    1.3535    2.0495 C   0  0  0  0  0  0  0  0  0  0  0  0
   -5.2882    1.0982    2.3394 C   0  0  0  0  0  0  0  0  0  0  0  0
   -6.1979    0.9126    1.3004 C   0  0  0  0  0  0  0  0  0  0  0  0
   -5.7860    0.9890   -0.0397 C   0  0  0  0  0  0  0  0  0  0  0  0
   -6.7100    0.8142   -1.0842 C   0  0  0  0  0  0  0  0  0  0  0  0
   -6.3098    0.8999   -2.4180 C   0  0  0  0  0  0  0  0  0  0  0  0
   -4.9807    1.1639   -2.7261 C   0  0  0  0  0  0  0  0  0  0  0  0
   -4.0510    1.3384   -1.6995 C   0  0  0  0  0  0  0  0  0  0  0  0
   -4.4264    1.2509   -0.3416 C   0  0  0  0  0  0  0  0  0  0  0  0
   -1.7615   -0.6011    0.4696 N   0  0  0  0  0  0  0  0  0  0  0  0
   -0.8518   -1.5219    0.3978 C   0  0  0  0  0  0  0  0  0  0  0  0
   -1.1309   -2.8771    0.4497 N   0  0  0  0  0  0  0  0  0  0  0  0
   -2.5482   -3.2609    0.4446 C   0  0  0  0  0  0  0  0  0  0  0  0
   -0.2936   -3.7715    1.2476 C   0  0  0  0  0  0  0  0  0  0  0  0
    1.0247   -1.8766   -0.2318 H   0  0  0  0  0  0  0  0  0  0  0  0
    2.3063    1.3241   -0.2771 H   0  0  0  0  0  0  0  0  0  0  0  0
    3.1915   -1.3503    0.5996 H   0  0  0  0  0  0  0  0  0  0  0  0
    3.0043   -0.0055    1.7259 H   0  0  0  0  0  0  0  0  0  0  0  0
    4.5987   -0.8837   -1.5874 H   0  0  0  0  0  0  0  0  0  0  0  0
    6.7982   -0.0379   -2.2918 H   0  0  0  0  0  0  0  0  0  0  0  0
    9.1820    1.1023   -0.5888 H   0  0  0  0  0  0  0  0  0  0  0  0
    8.5688    2.7738   -0.6358 H   0  0  0  0  0  0  0  0  0  0  0  0
    8.4891    1.7739   -2.0858 H   0  0  0  0  0  0  0  0  0  0  0  0
    6.9965    2.4024    1.2550 H   0  0  0  0  0  0  0  0  0  0  0  0
    4.8029    1.5586    1.9643 H   0  0  0  0  0  0  0  0  0  0  0  0
   -3.2396    1.5034    2.8565 H   0  0  0  0  0  0  0  0  0  0  0  0
   -5.6197    1.0473    3.3724 H   0  0  0  0  0  0  0  0  0  0  0  0
   -7.2393    0.7154    1.5446 H   0  0  0  0  0  0  0  0  0  0  0  0
   -7.7558    0.6130   -0.8639 H   0  0  0  0  0  0  0  0  0  0  0  0
   -7.0369    0.7654   -3.2140 H   0  0  0  0  0  0  0  0  0  0  0  0
   -4.6617    1.2379   -3.7619 H   0  0  0  0  0  0  0  0  0  0  0  0
   -3.0154    1.5501   -1.9596 H   0  0  0  0  0  0  0  0  0  0  0  0
   -3.0890   -2.7469   -0.3578 H   0  0  0  0  0  0  0  0  0  0  0  0
   -3.0182   -3.0185    1.4038 H   0  0  0  0  0  0  0  0  0  0  0  0
   -2.6585   -4.3357    0.2650 H   0  0  0  0  0  0  0  0  0  0  0  0
   -0.5730   -4.8183    1.0862 H   0  0  0  0  0  0  0  0  0  0  0  0
    0.7634   -3.6833    0.9777 H   0  0  0  0  0  0  0  0  0  0  0  0
   -0.4025   -3.5453    2.3135 H   0  0  0  0  0  0  0  0  0  0  0  0
  1  2  1  0
  2  3  1  0
  3  4  1  0
  4  5  1  0
  5  6  2  0
  6  7  1  0
  7  8  2  0
  8  9  1  0
  8 10  1  0
 10 11  2  0
  2 12  2  0
 12 13  1  0
 13 14  2  3
 14 15  1  0
 15 16  2  0
 16 17  1  0
 17 18  2  0
 18 19  1  0
 19 20  2  0
 20 21  1  0
 21 22  2  0
 22 23  1  0
 23 24  2  0
 13 25  1  0
 25 26  2  0
 26 27  1  0
 27 28  1  0
 27 29  1  0
 26  1  1  0
 11  5  1  0
 24 15  1  0
 24 19  1  0
  1 30  1  0
  3 31  1  0
  4 32  1  0
  4 33  1  0
  6 34  1  0
  7 35  1  0
  9 36  1  0
  9 37  1  0
  9 38  1  0
 10 39  1  0
 11 40  1  0
 16 41  1  0
 17 42  1  0
 18 43  1  0
 20 44  1  0
 21 45  1  0
 22 46  1  0
 23 47  1  0
 28 48  1  0
 28 49  1  0
 28 50  1  0
 29 51  1  0
 29 52  1  0
 29 53  1  0
M  END
>  <ScrubInfo>  (7) 
{"isomerGroup": 0, "isomerId": 6, "confId": 0, "nr_conformers:": 1, "nr_isomers:": 9}

$$$$
_i7
     RDKit          3D

 53 56  0  0  0  0  0  0  0  0999 V2000
   -1.4682   -0.9153    0.5894 N   0  0  0  0  0  0  0  0  0  0  0  0
   -0.5515   -1.8649    0.2342 C   0  0  0  0  0  0  0  0  0  0  0  0
   -1.0685   -3.1428    0.0814 N   0  0  0  0  0  0  0  0  0  0  0  0
   -2.2402   -3.3483   -0.7744 C   0  0  0  0  0  0  0  0  0  0  0  0
   -0.0947   -4.2374   -0.0206 C   0  0  0  0  0  0  0  0  0  0  0  0
    0.7115   -1.5885    0.0762 N   0  0  0  0  0  0  0  0  0  0  0  0
    1.0810   -0.2729    0.2538 C   0  0  0  0  0  0  0  0  0  0  0  0
    2.3371   -0.0675    0.0717 N   0  0  0  0  0  0  0  0  0  0  0  0
    2.8593    1.2812    0.2273 C   0  0  0  0  0  0  0  0  0  0  0  0
    4.3448    1.3297   -0.0342 C   0  0  0  0  0  0  0  0  0  0  0  0
    4.8328    1.5312   -1.3314 C   0  0  0  0  0  0  0  0  0  0  0  0
    6.2081    1.5703   -1.5751 C   0  0  0  0  0  0  0  0  0  0  0  0
    7.1198    1.3865   -0.5296 C   0  0  0  0  0  0  0  0  0  0  0  0
    8.5954    1.4566   -0.7863 C   0  0  0  0  0  0  0  0  0  0  0  0
    6.6340    1.1803    0.7664 C   0  0  0  0  0  0  0  0  0  0  0  0
    5.2587    1.1412    1.0101 C   0  0  0  0  0  0  0  0  0  0  0  0
    0.1284    0.6539    0.5895 N   0  0  0  0  0  0  0  0  0  0  0  0
   -1.1958    0.4082    0.8017 C   0  0  0  0  0  0  0  0  0  0  0  0
   -2.0025    1.3625    1.1553 N   0  0  0  0  0  0  0  0  0  0  0  0
   -3.3587    1.0409    1.3661 C   0  0  0  0  0  0  0  0  0  0  0  0
   -3.7791    0.8256    2.6839 C   0  0  0  0  0  0  0  0  0  0  0  0
   -5.0961    0.4728    2.9608 C   0  0  0  0  0  0  0  0  0  0  0  0
   -6.0101    0.3369    1.9181 C   0  0  0  0  0  0  0  0  0  0  0  0
   -5.6241    0.5633    0.5877 C   0  0  0  0  0  0  0  0  0  0  0  0
   -6.5523    0.4306   -0.4584 C   0  0  0  0  0  0  0  0  0  0  0  0
   -6.1783    0.6605   -1.7824 C   0  0  0  0  0  0  0  0  0  0  0  0
   -4.8723    1.0311   -2.0783 C   0  0  0  0  0  0  0  0  0  0  0  0
   -3.9385    1.1670   -1.0497 C   0  0  0  0  0  0  0  0  0  0  0  0
   -4.2869    0.9311    0.2982 C   0  0  0  0  0  0  0  0  0  0  0  0
   -2.3891   -1.2387    0.8353 H   0  0  0  0  0  0  0  0  0  0  0  0
   -3.0804   -2.7147   -0.4748 H   0  0  0  0  0  0  0  0  0  0  0  0
   -2.5907   -4.3844   -0.7132 H   0  0  0  0  0  0  0  0  0  0  0  0
   -1.9926   -3.1281   -1.8183 H   0  0  0  0  0  0  0  0  0  0  0  0
    0.4188   -4.2132   -0.9879 H   0  0  0  0  0  0  0  0  0  0  0  0
   -0.5921   -5.2076    0.0848 H   0  0  0  0  0  0  0  0  0  0  0  0
    0.6494   -4.1721    0.7809 H   0  0  0  0  0  0  0  0  0  0  0  0
    2.6700    1.6546    1.2422 H   0  0  0  0  0  0  0  0  0  0  0  0
    2.3609    1.9725   -0.4649 H   0  0  0  0  0  0  0  0  0  0  0  0
    4.1406    1.6510   -2.1613 H   0  0  0  0  0  0  0  0  0  0  0  0
    6.5618    1.7350   -2.5900 H   0  0  0  0  0  0  0  0  0  0  0  0
    9.1450    0.8206   -0.0844 H   0  0  0  0  0  0  0  0  0  0  0  0
    8.8337    1.1060   -1.7960 H   0  0  0  0  0  0  0  0  0  0  0  0
    8.9453    2.4878   -0.6780 H   0  0  0  0  0  0  0  0  0  0  0  0
    7.3232    1.0379    1.5953 H   0  0  0  0  0  0  0  0  0  0  0  0
    4.9017    0.9548    2.0201 H   0  0  0  0  0  0  0  0  0  0  0  0
    0.4100    1.6075    0.7358 H   0  0  0  0  0  0  0  0  0  0  0  0
   -3.0661    0.9337    3.4976 H   0  0  0  0  0  0  0  0  0  0  0  0
   -5.4107    0.3073    3.9880 H   0  0  0  0  0  0  0  0  0  0  0  0
   -7.0362    0.0612    2.1540 H   0  0  0  0  0  0  0  0  0  0  0  0
   -7.5825    0.1506   -0.2478 H   0  0  0  0  0  0  0  0  0  0  0  0
   -6.9099    0.5589   -2.5799 H   0  0  0  0  0  0  0  0  0  0  0  0
   -4.5779    1.2231   -3.1069 H   0  0  0  0  0  0  0  0  0  0  0  0
   -2.9254    1.4725   -1.3047 H   0  0  0  0  0  0  0  0  0  0  0  0
  1  2  1  0
  2  3  1  0
  3  4  1  0
  3  5  1  0
  2  6  2  0
  6  7  1  0
  7  8  2  3
  8  9  1  0
  9 10  1  0
 10 11  2  0
 11 12  1  0
 12 13  2  0
 13 14  1  0
 13 15  1  0
 15 16  2  0
  7 17  1  0
 17 18  1  0
 18 19  2  3
 19 20  1  0
 20 21  2  0
 21 22  1  0
 22 23  2  0
 23 24  1  0
 24 25  2  0
 25 26  1  0
 26 27  2  0
 27 28  1  0
 28 29  2  0
 18  1  1  0
 29 20  1  0
 16 10  1  0
 29 24  1  0
  1 30  1  0
  4 31  1  0
  4 32  1  0
  4 33  1  0
  5 34  1  0
  5 35  1  0
  5 36  1  0
  9 37  1  0
  9 38  1  0
 11 39  1  0
 12 40  1  0
 14 41  1  0
 14 42  1  0
 14 43  1  0
 15 44  1  0
 16 45  1  0
 17 46  1  0
 21 47  1  0
 22 48  1  0
 23 49  1  0
 25 50  1  0
 26 51  1  0
 27 52  1  0
 28 53  1  0
M  END
>  <ScrubInfo>  (8) 
{"isomerGroup": 0, "isomerId": 7, "confId": 0, "nr_conformers:": 1, "nr_isomers:": 9}

$$$$
_i8
     RDKit          3D

 53 56  0  0  0  0  0  0  0  0999 V2000
    0.4978   -1.5654    0.0966 N   0  0  0  0  0  0  0  0  0  0  0  0
   -0.8296   -1.8530   -0.0639 C   0  0  0  0  0  0  0  0  0  0  0  0
   -1.1954   -3.1592    0.2222 N   0  0  0  0  0  0  0  0  0  0  0  0
   -2.6344   -3.4420    0.2945 C   0  0  0  0  0  0  0  0  0  0  0  0
   -0.4206   -4.2734   -0.3252 C   0  0  0  0  0  0  0  0  0  0  0  0
   -1.6934   -0.9510   -0.4384 N   0  0  0  0  0  0  0  0  0  0  0  0
   -1.1849    0.3052   -0.6787 C   0  0  0  0  0  0  0  0  0  0  0  0
   -1.9575    1.2841   -1.0584 N   0  0  0  0  0  0  0  0  0  0  0  0
   -3.3360    1.0308   -1.2247 C   0  0  0  0  0  0  0  0  0  0  0  0
   -3.7880    0.6424   -2.4928 C   0  0  0  0  0  0  0  0  0  0  0  0
   -5.1386    0.4003   -2.7247 C   0  0  0  0  0  0  0  0  0  0  0  0
   -6.0570    0.5564   -1.6886 C   0  0  0  0  0  0  0  0  0  0  0  0
   -5.6394    0.9619   -0.4112 C   0  0  0  0  0  0  0  0  0  0  0  0
   -6.5720    1.1279    0.6269 C   0  0  0  0  0  0  0  0  0  0  0  0
   -6.1666    1.5383    1.8970 C   0  0  0  0  0  0  0  0  0  0  0  0
   -4.8230    1.7897    2.1465 C   0  0  0  0  0  0  0  0  0  0  0  0
   -3.8845    1.6284    1.1255 C   0  0  0  0  0  0  0  0  0  0  0  0
   -4.2655    1.2103   -0.1679 C   0  0  0  0  0  0  0  0  0  0  0  0
    0.1499    0.5529   -0.5168 N   0  0  0  0  0  0  0  0  0  0  0  0
    1.0840   -0.3461   -0.0922 C   0  0  0  0  0  0  0  0  0  0  0  0
    2.3398   -0.1892    0.1401 N   0  0  0  0  0  0  0  0  0  0  0  0
    2.9083    1.1382   -0.0739 C   0  0  0  0  0  0  0  0  0  0  0  0
    4.3836    1.1511    0.2410 C   0  0  0  0  0  0  0  0  0  0  0  0
    5.3301    0.9157   -0.7640 C   0  0  0  0  0  0  0  0  0  0  0  0
    6.6956    0.9174   -0.4679 C   0  0  0  0  0  0  0  0  0  0  0  0
    7.1388    1.1544    0.8381 C   0  0  0  0  0  0  0  0  0  0  0  0
    8.6025    1.1202    1.1620 C   0  0  0  0  0  0  0  0  0  0  0  0
    6.1932    1.3580    1.8492 C   0  0  0  0  0  0  0  0  0  0  0  0
    4.8278    1.3565    1.5534 C   0  0  0  0  0  0  0  0  0  0  0  0
    1.0879   -2.2518    0.5371 H   0  0  0  0  0  0  0  0  0  0  0  0
   -2.8140   -4.4249    0.7434 H   0  0  0  0  0  0  0  0  0  0  0  0
   -3.1456   -2.7063    0.9254 H   0  0  0  0  0  0  0  0  0  0  0  0
   -3.0833   -3.4288   -0.7046 H   0  0  0  0  0  0  0  0  0  0  0  0
    0.6368   -4.2056   -0.0534 H   0  0  0  0  0  0  0  0  0  0  0  0
   -0.7826   -5.2314    0.0635 H   0  0  0  0  0  0  0  0  0  0  0  0
   -0.5009   -4.2924   -1.4173 H   0  0  0  0  0  0  0  0  0  0  0  0
   -3.0708    0.5233   -3.2998 H   0  0  0  0  0  0  0  0  0  0  0  0
   -5.4741    0.0925   -3.7108 H   0  0  0  0  0  0  0  0  0  0  0  0
   -7.1090    0.3638   -1.8876 H   0  0  0  0  0  0  0  0  0  0  0  0
   -7.6288    0.9396    0.4508 H   0  0  0  0  0  0  0  0  0  0  0  0
   -6.9004    1.6629    2.6884 H   0  0  0  0  0  0  0  0  0  0  0  0
   -4.5000    2.1111    3.1328 H   0  0  0  0  0  0  0  0  0  0  0  0
   -2.8377    1.8305    1.3410 H   0  0  0  0  0  0  0  0  0  0  0  0
    0.4108    1.5069   -0.6989 H   0  0  0  0  0  0  0  0  0  0  0  0
    2.7639    1.4566   -1.1145 H   0  0  0  0  0  0  0  0  0  0  0  0
    2.4073    1.8806    0.5610 H   0  0  0  0  0  0  0  0  0  0  0  0
    5.0071    0.7203   -1.7837 H   0  0  0  0  0  0  0  0  0  0  0  0
    7.4111    0.7270   -1.2643 H   0  0  0  0  0  0  0  0  0  0  0  0
    8.8319    1.7828    2.0033 H   0  0  0  0  0  0  0  0  0  0  0  0
    9.1993    1.4606    0.3092 H   0  0  0  0  0  0  0  0  0  0  0  0
    8.9049    0.1010    1.4215 H   0  0  0  0  0  0  0  0  0  0  0  0
    6.5129    1.5143    2.8768 H   0  0  0  0  0  0  0  0  0  0  0  0
    4.1084    1.5067    2.3550 H   0  0  0  0  0  0  0  0  0  0  0  0
  1  2  1  0
  2  3  1  0
  3  4  1  0
  3  5  1  0
  2  6  2  0
  6  7  1  0
  7  8  2  3
  8  9  1  0
  9 10  2  0
 10 11  1  0
 11 12  2  0
 12 13  1  0
 13 14  2  0
 14 15  1  0
 15 16  2  0
 16 17  1  0
 17 18  2  0
  7 19  1  0
 19 20  1  0
 20 21  2  3
 21 22  1  0
 22 23  1  0
 23 24  2  0
 24 25  1  0
 25 26  2  0
 26 27  1  0
 26 28  1  0
 28 29  2  0
 20  1  1  0
 29 23  1  0
 18  9  1  0
 18 13  1  0
  1 30  1  0
  4 31  1  0
  4 32  1  0
  4 33  1  0
  5 34  1  0
  5 35  1  0
  5 36  1  0
 10 37  1  0
 11 38  1  0
 12 39  1  0
 14 40  1  0
 15 41  1  0
 16 42  1  0
 17 43  1  0
 19 44  1  0
 22 45  1  0
 22 46  1  0
 24 47  1  0
 25 48  1  0
 27 49  1  0
 27 50  1  0
 27 51  1  0
 28 52  1  0
 29 53  1  0
M  END
>  <ScrubInfo>  (9) 
{"isomerGroup": 0, "isomerId": 8, "confId": 0, "nr_conformers:": 1, "nr_isomers:": 9}

$$$$
