REMARK SMILES Cc1ccc(CNc2nc(Nc3cccc4ccccc34)nc(N(C)C)n2)cc1
REMARK SMILES IDX 7 1 6 3 5 4 2 5 3 6 29 7 4 8 28 9 1 10 8 11 9 12 27 13 10 14
REMARK SMILES IDX 23 15 22 16 11 17 12 19 13 20 21 21 14 22 20 23 16 24 15 25
REMARK SMILES IDX 19 26 17 27 18 28 24 29 25 30 26 31
REMARK H PARENT 7 2 11 18
ROOT
ATOM      1  N   UNL     1       2.015  -0.237   1.028  1.00  0.00    -0.350 N 
ATOM      2  H   UNL     1       1.992   0.775   0.991  1.00  0.00     0.164 HD
ENDROOT
BRANCH   1   3
ATOM      3  C   UNL     1       3.215  -0.842   0.489  1.00  0.00     0.152 C 
BRANCH   3   4
ATOM      4  C   UNL     1       4.422  -0.096   1.011  1.00  0.00    -0.029 A 
ATOM      5  C   UNL     1       6.660   1.302   2.004  1.00  0.00    -0.051 A 
ATOM      6  C   UNL     1       6.256   1.461   0.674  1.00  0.00     0.004 A 
ATOM      7  C   UNL     1       5.922   0.458   2.842  1.00  0.00     0.004 A 
ATOM      8  C   UNL     1       5.148   0.767   0.180  1.00  0.00     0.006 A 
ATOM      9  C   UNL     1       4.815  -0.236   2.349  1.00  0.00     0.006 A 
ATOM     10  C   UNL     1       7.828   2.074   2.542  1.00  0.00     0.044 C 
ENDBRANCH   3   4
ENDBRANCH   1   3
BRANCH   1  11
ATOM     11  C   UNL     1       0.832  -0.707   0.476  1.00  0.00     0.229 A 
ATOM     12  N   UNL     1      -0.149   0.176   0.396  1.00  0.00    -0.177 NA
ATOM     13  N   UNL     1       0.742  -1.962   0.063  1.00  0.00    -0.177 NA
ATOM     14  C   UNL     1      -1.289  -0.276  -0.109  1.00  0.00     0.233 A 
ATOM     15  C   UNL     1      -0.424  -2.341  -0.450  1.00  0.00     0.231 A 
ATOM     16  N   UNL     1      -1.458  -1.515  -0.550  1.00  0.00    -0.176 NA
BRANCH  14  17
ATOM     17  N   UNL     1      -2.308   0.673  -0.199  1.00  0.00    -0.323 N 
ATOM     18  H   UNL     1      -1.986   1.531   0.224  1.00  0.00     0.170 HD
BRANCH  17  19
ATOM     19  C   UNL     1      -3.704   0.578  -0.382  1.00  0.00     0.049 A 
ATOM     20  C   UNL     1      -4.365  -0.659  -0.325  1.00  0.00     0.027 A 
ATOM     21  C   UNL     1      -4.463   1.749  -0.701  1.00  0.00     0.005 A 
ATOM     22  C   UNL     1      -5.741  -0.757  -0.520  1.00  0.00     0.003 A 
ATOM     23  C   UNL     1      -3.896   3.039  -0.850  1.00  0.00     0.011 A 
ATOM     24  C   UNL     1      -5.865   1.635  -0.893  1.00  0.00    -0.016 A 
ATOM     25  C   UNL     1      -6.486   0.384  -0.795  1.00  0.00     0.009 A 
ATOM     26  C   UNL     1      -4.674   4.161  -1.149  1.00  0.00     0.001 A 
ATOM     27  C   UNL     1      -6.636   2.772  -1.189  1.00  0.00     0.009 A 
ATOM     28  C   UNL     1      -6.045   4.028  -1.314  1.00  0.00     0.001 A 
ENDBRANCH  17  19
ENDBRANCH  14  17
BRANCH  15  29
ATOM     29  N   UNL     1      -0.575  -3.663  -0.881  1.00  0.00    -0.347 N 
ATOM     30  C   UNL     1      -1.647  -3.865  -1.843  1.00  0.00     0.146 C 
ATOM     31  C   UNL     1       0.671  -4.370  -1.129  1.00  0.00     0.146 C 
ENDBRANCH  15  29
ENDBRANCH   1  11
TORSDOF 6
