_i0
     RDKit          3D

 54 57  0  0  0  0  0  0  0  0999 V2000
    7.0751    2.6077    3.0416 C   0  0  0  0  0  0  0  0  0  0  0  0
    6.0406    1.8239    3.6215 O   0  0  0  0  0  0  0  0  0  0  0  0
    5.2723    1.0837    2.7655 C   0  0  0  0  0  0  0  0  0  0  0  0
    4.2656    0.3375    3.3808 C   0  0  0  0  0  0  0  0  0  0  0  0
    3.4084   -0.4652    2.6239 C   0  0  0  0  0  0  0  0  0  0  0  0
    3.5406   -0.5308    1.2308 C   0  0  0  0  0  0  0  0  0  0  0  0
    2.6398   -1.4207    0.4030 C   0  0  0  0  0  0  0  0  0  0  0  0
    1.2355   -1.2337    0.7176 N   0  0  0  0  0  0  0  0  0  0  0  0
    0.5893   -0.2485   -0.0206 C   0  0  0  0  0  0  0  0  0  0  0  0
   -0.6824   -0.5468   -0.3454 N   0  0  0  0  0  0  0  0  0  0  0  0
   -1.4465    0.3251   -1.0573 C   0  0  0  0  0  0  0  0  0  0  0  0
   -2.7664    0.0355   -1.4154 N   0  0  0  0  0  0  0  0  0  0  0  0
   -3.6326   -1.0459   -1.1515 C   0  0  0  0  0  0  0  0  0  0  0  0
   -3.3051   -2.1128   -0.3065 C   0  0  0  0  0  0  0  0  0  0  0  0
   -4.1972   -3.1756   -0.0800 C   0  0  0  0  0  0  0  0  0  0  0  0
   -3.7941   -4.2926    0.8413 C   0  0  0  0  0  0  0  0  0  0  0  0
   -5.4413   -3.1551   -0.7220 C   0  0  0  0  0  0  0  0  0  0  0  0
   -6.5934   -4.4244   -0.4964 Cl  0  0  0  0  0  0  0  0  0  0  0  0
   -5.7926   -2.1004   -1.5687 C   0  0  0  0  0  0  0  0  0  0  0  0
   -4.8982   -1.0500   -1.7853 C   0  0  0  0  0  0  0  0  0  0  0  0
   -5.1422    0.0378   -2.5962 O   0  0  0  0  0  0  0  0  0  0  0  0
   -6.3994    0.0806   -3.2613 C   0  0  0  0  0  0  0  0  0  0  0  0
   -0.8421    1.5316   -1.4317 C   0  0  0  0  0  0  0  0  0  0  0  0
   -1.1779    2.7077   -2.1353 C   0  0  0  0  0  0  0  0  0  0  0  0
   -0.1693    3.5851   -2.1975 N   0  0  0  0  0  0  0  0  0  0  0  0
    0.8197    2.9653   -1.5108 N   0  0  0  0  0  0  0  0  0  0  0  0
    2.0874    3.6275   -1.3339 C   0  0  0  0  0  0  0  0  0  0  0  0
    0.4688    1.7272   -1.0484 C   0  0  0  0  0  0  0  0  0  0  0  0
    1.2340    0.8730   -0.3582 N   0  0  0  0  0  0  0  0  0  0  0  0
    4.5564    0.2173    0.6189 C   0  0  0  0  0  0  0  0  0  0  0  0
    5.4149    1.0205    1.3797 C   0  0  0  0  0  0  0  0  0  0  0  0
    6.6656    3.3607    2.3602 H   0  0  0  0  0  0  0  0  0  0  0  0
    7.5885    3.1356    3.8511 H   0  0  0  0  0  0  0  0  0  0  0  0
    7.8130    1.9760    2.5361 H   0  0  0  0  0  0  0  0  0  0  0  0
    4.1440    0.3829    4.4602 H   0  0  0  0  0  0  0  0  0  0  0  0
    2.6263   -1.0314    3.1250 H   0  0  0  0  0  0  0  0  0  0  0  0
    2.8316   -1.3013   -0.6718 H   0  0  0  0  0  0  0  0  0  0  0  0
    2.9104   -2.4578    0.6390 H   0  0  0  0  0  0  0  0  0  0  0  0
    0.6655   -2.0630    0.5972 H   0  0  0  0  0  0  0  0  0  0  0  0
   -3.2161    0.7287   -2.0044 H   0  0  0  0  0  0  0  0  0  0  0  0
   -2.3454   -2.1246    0.2008 H   0  0  0  0  0  0  0  0  0  0  0  0
   -2.7879   -4.1377    1.2454 H   0  0  0  0  0  0  0  0  0  0  0  0
   -3.7873   -5.2466    0.3045 H   0  0  0  0  0  0  0  0  0  0  0  0
   -4.4819   -4.3535    1.6908 H   0  0  0  0  0  0  0  0  0  0  0  0
   -6.7669   -2.1235   -2.0438 H   0  0  0  0  0  0  0  0  0  0  0  0
   -6.4291    0.9969   -3.8587 H   0  0  0  0  0  0  0  0  0  0  0  0
   -7.2243    0.1254   -2.5428 H   0  0  0  0  0  0  0  0  0  0  0  0
   -6.5127   -0.7663   -3.9459 H   0  0  0  0  0  0  0  0  0  0  0  0
   -2.1174    2.9644   -2.6069 H   0  0  0  0  0  0  0  0  0  0  0  0
    2.7452    3.0189   -0.7092 H   0  0  0  0  0  0  0  0  0  0  0  0
    1.9082    4.5913   -0.8503 H   0  0  0  0  0  0  0  0  0  0  0  0
    2.5388    3.7720   -2.3187 H   0  0  0  0  0  0  0  0  0  0  0  0
    4.6820    0.1865   -0.4611 H   0  0  0  0  0  0  0  0  0  0  0  0
    6.1818    1.5821    0.8578 H   0  0  0  0  0  0  0  0  0  0  0  0
  1  2  1  0
  2  3  1  0
  3  4  2  0
  4  5  1  0
  5  6  2  0
  6  7  1  0
  7  8  1  0
  8  9  1  0
  9 10  2  0
 10 11  1  0
 11 12  1  0
 12 13  1  0
 13 14  2  0
 14 15  1  0
 15 16  1  0
 15 17  2  0
 17 18  1  0
 17 19  1  0
 19 20  2  0
 20 21  1  0
 21 22  1  0
 11 23  2  0
 23 24  1  0
 24 25  2  0
 25 26  1  0
 26 27  1  0
 26 28  1  0
 28 29  2  0
  6 30  1  0
 30 31  2  0
 31  3  1  0
 29  9  1  0
 20 13  1  0
 28 23  1  0
  1 32  1  0
  1 33  1  0
  1 34  1  0
  4 35  1  0
  5 36  1  0
  7 37  1  0
  7 38  1  0
  8 39  1  0
 12 40  1  0
 14 41  1  0
 16 42  1  0
 16 43  1  0
 16 44  1  0
 19 45  1  0
 22 46  1  0
 22 47  1  0
 22 48  1  0
 24 49  1  0
 27 50  1  0
 27 51  1  0
 27 52  1  0
 30 53  1  0
 31 54  1  0
M  END
>  <ScrubInfo>  (1) 
{"isomerGroup": 0, "isomerId": 0, "confId": 0, "nr_conformers:": 1, "nr_isomers:": 9}

$$$$
_i1
     RDKit          3D

 54 57  0  0  0  0  0  0  0  0999 V2000
   -0.1931   -0.8670    0.3044 N   0  0  0  0  0  0  0  0  0  0  0  0
   -1.2100   -0.1409   -0.2774 C   0  0  0  0  0  0  0  0  0  0  0  0
   -2.1637   -0.7466   -1.0676 N   0  0  0  0  0  0  0  0  0  0  0  0
   -3.5472   -0.8935   -0.7653 C   0  0  0  0  0  0  0  0  0  0  0  0
   -4.1861   -0.1920    0.2680 C   0  0  0  0  0  0  0  0  0  0  0  0
   -5.5697   -0.3080    0.4868 C   0  0  0  0  0  0  0  0  0  0  0  0
   -6.2059    0.4563    1.6147 C   0  0  0  0  0  0  0  0  0  0  0  0
   -6.3158   -1.1391   -0.3588 C   0  0  0  0  0  0  0  0  0  0  0  0
   -8.0208   -1.3364   -0.1528 Cl  0  0  0  0  0  0  0  0  0  0  0  0
   -5.7010   -1.8404   -1.3999 C   0  0  0  0  0  0  0  0  0  0  0  0
   -4.3266   -1.7168   -1.6115 C   0  0  0  0  0  0  0  0  0  0  0  0
   -3.6206   -2.3734   -2.5940 O   0  0  0  0  0  0  0  0  0  0  0  0
   -4.3747   -3.0953   -3.5612 C   0  0  0  0  0  0  0  0  0  0  0  0
   -1.1458    1.1812   -0.0846 C   0  0  0  0  0  0  0  0  0  0  0  0
   -1.8732    2.3764   -0.5200 C   0  0  0  0  0  0  0  0  0  0  0  0
   -1.3671    3.4845   -0.0386 N   0  0  0  0  0  0  0  0  0  0  0  0
   -0.2948    3.0840    0.7802 N   0  0  0  0  0  0  0  0  0  0  0  0
    0.6870    4.0700    1.1643 C   0  0  0  0  0  0  0  0  0  0  0  0
   -0.0559    1.7185    0.7551 C   0  0  0  0  0  0  0  0  0  0  0  0
    0.8820    1.0225    1.3030 N   0  0  0  0  0  0  0  0  0  0  0  0
    0.8170   -0.3333    1.0651 C   0  0  0  0  0  0  0  0  0  0  0  0
    1.7015   -1.1372    1.5531 N   0  0  0  0  0  0  0  0  0  0  0  0
    2.7881   -0.5709    2.3513 C   0  0  0  0  0  0  0  0  0  0  0  0
    4.0131   -0.2736    1.5197 C   0  0  0  0  0  0  0  0  0  0  0  0
    4.3502    1.0430    1.1886 C   0  0  0  0  0  0  0  0  0  0  0  0
    5.4786    1.3080    0.4089 C   0  0  0  0  0  0  0  0  0  0  0  0
    6.2832    0.2664   -0.0585 C   0  0  0  0  0  0  0  0  0  0  0  0
    7.3554    0.6645   -0.8095 O   0  0  0  0  0  0  0  0  0  0  0  0
    8.2049   -0.3613   -1.3065 C   0  0  0  0  0  0  0  0  0  0  0  0
    5.9453   -1.0494    0.2579 C   0  0  0  0  0  0  0  0  0  0  0  0
    4.8151   -1.3166    1.0389 C   0  0  0  0  0  0  0  0  0  0  0  0
   -0.1904   -1.8698    0.2035 H   0  0  0  0  0  0  0  0  0  0  0  0
   -1.8414   -1.6053   -1.5149 H   0  0  0  0  0  0  0  0  0  0  0  0
   -3.6111    0.4446    0.9347 H   0  0  0  0  0  0  0  0  0  0  0  0
   -5.4687    1.0535    2.1619 H   0  0  0  0  0  0  0  0  0  0  0  0
   -6.9634    1.1460    1.2288 H   0  0  0  0  0  0  0  0  0  0  0  0
   -6.6657   -0.2324    2.3307 H   0  0  0  0  0  0  0  0  0  0  0  0
   -6.3158   -2.4776   -2.0262 H   0  0  0  0  0  0  0  0  0  0  0  0
   -4.8823   -3.9503   -3.1032 H   0  0  0  0  0  0  0  0  0  0  0  0
   -5.0845   -2.4424   -4.0797 H   0  0  0  0  0  0  0  0  0  0  0  0
   -3.6747   -3.4847   -4.3067 H   0  0  0  0  0  0  0  0  0  0  0  0
   -2.7338    2.3033   -1.1974 H   0  0  0  0  0  0  0  0  0  0  0  0
    1.4140    4.2179    0.3595 H   0  0  0  0  0  0  0  0  0  0  0  0
    1.2238    3.7555    2.0651 H   0  0  0  0  0  0  0  0  0  0  0  0
    0.2074    5.0303    1.3798 H   0  0  0  0  0  0  0  0  0  0  0  0
    3.0654   -1.3119    3.1124 H   0  0  0  0  0  0  0  0  0  0  0  0
    2.4865    0.3085    2.9346 H   0  0  0  0  0  0  0  0  0  0  0  0
    3.7298    1.8679    1.5304 H   0  0  0  0  0  0  0  0  0  0  0  0
    5.7299    2.3355    0.1597 H   0  0  0  0  0  0  0  0  0  0  0  0
    7.6639   -1.0272   -1.9870 H   0  0  0  0  0  0  0  0  0  0  0  0
    9.0071    0.1164   -1.8773 H   0  0  0  0  0  0  0  0  0  0  0  0
    8.6679   -0.9223   -0.4880 H   0  0  0  0  0  0  0  0  0  0  0  0
    6.5334   -1.8918   -0.0886 H   0  0  0  0  0  0  0  0  0  0  0  0
    4.5535   -2.3473    1.2686 H   0  0  0  0  0  0  0  0  0  0  0  0
  1  2  1  0
  2  3  1  0
  3  4  1  0
  4  5  2  0
  5  6  1  0
  6  7  1  0
  6  8  2  0
  8  9  1  0
  8 10  1  0
 10 11  2  0
 11 12  1  0
 12 13  1  0
  2 14  2  0
 14 15  1  0
 15 16  2  0
 16 17  1  0
 17 18  1  0
 17 19  1  0
 19 20  2  0
 20 21  1  0
 21 22  2  3
 22 23  1  0
 23 24  1  0
 24 25  2  0
 25 26  1  0
 26 27  2  0
 27 28  1  0
 28 29  1  0
 27 30  1  0
 30 31  2  0
 21  1  1  0
 31 24  1  0
 11  4  1  0
 19 14  1  0
  1 32  1  0
  3 33  1  0
  5 34  1  0
  7 35  1  0
  7 36  1  0
  7 37  1  0
 10 38  1  0
 13 39  1  0
 13 40  1  0
 13 41  1  0
 15 42  1  0
 18 43  1  0
 18 44  1  0
 18 45  1  0
 23 46  1  0
 23 47  1  0
 25 48  1  0
 26 49  1  0
 29 50  1  0
 29 51  1  0
 29 52  1  0
 30 53  1  0
 31 54  1  0
M  END
>  <ScrubInfo>  (2) 
{"isomerGroup": 0, "isomerId": 1, "confId": 0, "nr_conformers:": 1, "nr_isomers:": 9}

$$$$
_i2
     RDKit          3D

 54 57  0  0  0  0  0  0  0  0999 V2000
   -0.0577   -0.2992    0.2412 N   0  0  0  0  0  0  0  0  0  0  0  0
    0.7963    0.6083   -0.3371 C   0  0  0  0  0  0  0  0  0  0  0  0
    2.1108    0.2505   -0.2237 N   0  0  0  0  0  0  0  0  0  0  0  0
    3.1427    1.0224   -0.8924 C   0  0  0  0  0  0  0  0  0  0  0  0
    4.4901    0.4167   -0.5830 C   0  0  0  0  0  0  0  0  0  0  0  0
    5.0903    0.6236    0.6672 C   0  0  0  0  0  0  0  0  0  0  0  0
    6.3287    0.0472    0.9714 C   0  0  0  0  0  0  0  0  0  0  0  0
    6.9809   -0.7489    0.0305 C   0  0  0  0  0  0  0  0  0  0  0  0
    8.1878   -1.3697    0.1982 O   0  0  0  0  0  0  0  0  0  0  0  0
    8.8480   -1.1660    1.4411 C   0  0  0  0  0  0  0  0  0  0  0  0
    6.3818   -0.9644   -1.2127 C   0  0  0  0  0  0  0  0  0  0  0  0
    5.1455   -0.3907   -1.5200 C   0  0  0  0  0  0  0  0  0  0  0  0
    0.3981    1.7078   -0.9232 N   0  0  0  0  0  0  0  0  0  0  0  0
   -0.9596    1.8279   -0.9022 C   0  0  0  0  0  0  0  0  0  0  0  0
   -1.8956    0.9656   -0.3509 C   0  0  0  0  0  0  0  0  0  0  0  0
   -3.1301    1.5901   -0.5997 C   0  0  0  0  0  0  0  0  0  0  0  0
   -3.0042    2.7467   -1.2631 N   0  0  0  0  0  0  0  0  0  0  0  0
   -1.6684    2.8666   -1.4369 N   0  0  0  0  0  0  0  0  0  0  0  0
   -1.1465    4.0227   -2.1209 C   0  0  0  0  0  0  0  0  0  0  0  0
   -1.4308   -0.2399    0.3069 C   0  0  0  0  0  0  0  0  0  0  0  0
   -2.1186   -1.1624    0.9076 N   0  0  0  0  0  0  0  0  0  0  0  0
   -3.5195   -1.1442    0.9364 C   0  0  0  0  0  0  0  0  0  0  0  0
   -4.1565   -0.6910    2.0989 C   0  0  0  0  0  0  0  0  0  0  0  0
   -5.5546   -0.6840    2.2078 C   0  0  0  0  0  0  0  0  0  0  0  0
   -6.1962   -0.1788    3.4686 C   0  0  0  0  0  0  0  0  0  0  0  0
   -6.3083   -1.1615    1.1269 C   0  0  0  0  0  0  0  0  0  0  0  0
   -8.0362   -1.1924    1.1805 Cl  0  0  0  0  0  0  0  0  0  0  0  0
   -5.6846   -1.6343   -0.0343 C   0  0  0  0  0  0  0  0  0  0  0  0
   -4.2912   -1.6333   -0.1374 C   0  0  0  0  0  0  0  0  0  0  0  0
   -3.5870   -2.0725   -1.2310 O   0  0  0  0  0  0  0  0  0  0  0  0
   -4.3307   -2.4680   -2.3752 C   0  0  0  0  0  0  0  0  0  0  0  0
    0.3409   -1.0680    0.7536 H   0  0  0  0  0  0  0  0  0  0  0  0
    2.2911   -0.7453   -0.2603 H   0  0  0  0  0  0  0  0  0  0  0  0
    3.1292    2.0659   -0.5548 H   0  0  0  0  0  0  0  0  0  0  0  0
    2.9721    1.0271   -1.9758 H   0  0  0  0  0  0  0  0  0  0  0  0
    4.5893    1.2354    1.4156 H   0  0  0  0  0  0  0  0  0  0  0  0
    6.7521    0.2386    1.9517 H   0  0  0  0  0  0  0  0  0  0  0  0
    9.0825   -0.1075    1.5952 H   0  0  0  0  0  0  0  0  0  0  0  0
    8.2571   -1.5658    2.2718 H   0  0  0  0  0  0  0  0  0  0  0  0
    9.7939   -1.7153    1.4111 H   0  0  0  0  0  0  0  0  0  0  0  0
    6.8847   -1.5866   -1.9495 H   0  0  0  0  0  0  0  0  0  0  0  0
    4.7033   -0.5793   -2.4957 H   0  0  0  0  0  0  0  0  0  0  0  0
   -4.1268    1.2718   -0.3308 H   0  0  0  0  0  0  0  0  0  0  0  0
   -1.6497    4.1089   -3.0875 H   0  0  0  0  0  0  0  0  0  0  0  0
   -1.3479    4.9036   -1.5061 H   0  0  0  0  0  0  0  0  0  0  0  0
   -0.0709    3.9148   -2.2764 H   0  0  0  0  0  0  0  0  0  0  0  0
   -3.5405   -0.3419    2.9252 H   0  0  0  0  0  0  0  0  0  0  0  0
   -6.7777   -0.9739    3.9461 H   0  0  0  0  0  0  0  0  0  0  0  0
   -5.4468    0.1596    4.1923 H   0  0  0  0  0  0  0  0  0  0  0  0
   -6.8479    0.6734    3.2508 H   0  0  0  0  0  0  0  0  0  0  0  0
   -6.3097   -2.0014   -0.8412 H   0  0  0  0  0  0  0  0  0  0  0  0
   -4.9433   -1.6433   -2.7541 H   0  0  0  0  0  0  0  0  0  0  0  0
   -3.6177   -2.7399   -3.1595 H   0  0  0  0  0  0  0  0  0  0  0  0
   -4.9419   -3.3507   -2.1611 H   0  0  0  0  0  0  0  0  0  0  0  0
  1  2  1  0
  2  3  1  0
  3  4  1  0
  4  5  1  0
  5  6  2  0
  6  7  1  0
  7  8  2  0
  8  9  1  0
  9 10  1  0
  8 11  1  0
 11 12  2  0
  2 13  2  0
 13 14  1  0
 14 15  2  0
 15 16  1  0
 16 17  2  0
 17 18  1  0
 18 19  1  0
 15 20  1  0
 20 21  2  3
 21 22  1  0
 22 23  2  0
 23 24  1  0
 24 25  1  0
 24 26  2  0
 26 27  1  0
 26 28  1  0
 28 29  2  0
 29 30  1  0
 30 31  1  0
 20  1  1  0
 29 22  1  0
 12  5  1  0
 18 14  1  0
  1 32  1  0
  3 33  1  0
  4 34  1  0
  4 35  1  0
  6 36  1  0
  7 37  1  0
 10 38  1  0
 10 39  1  0
 10 40  1  0
 11 41  1  0
 12 42  1  0
 16 43  1  0
 19 44  1  0
 19 45  1  0
 19 46  1  0
 23 47  1  0
 25 48  1  0
 25 49  1  0
 25 50  1  0
 28 51  1  0
 31 52  1  0
 31 53  1  0
 31 54  1  0
M  END
>  <ScrubInfo>  (3) 
{"isomerGroup": 0, "isomerId": 2, "confId": 0, "nr_conformers:": 1, "nr_isomers:": 9}

$$$$
_i3
     RDKit          3D

 54 57  0  0  0  0  0  0  0  0999 V2000
    0.2831    0.2721   -2.0320 N   0  0  0  0  0  0  0  0  0  0  0  0
    0.6514   -0.4387   -0.8988 C   0  0  0  0  0  0  0  0  0  0  0  0
    1.8512   -0.6981   -0.5166 N   0  0  0  0  0  0  0  0  0  0  0  0
    2.9741   -0.2169   -1.3114 C   0  0  0  0  0  0  0  0  0  0  0  0
    4.3196   -0.5588   -0.7095 C   0  0  0  0  0  0  0  0  0  0  0  0
    5.4506   -0.6456   -1.5319 C   0  0  0  0  0  0  0  0  0  0  0  0
    6.7069   -0.9204   -0.9844 C   0  0  0  0  0  0  0  0  0  0  0  0
    6.8612   -1.1054    0.3908 C   0  0  0  0  0  0  0  0  0  0  0  0
    8.1419   -1.3680    0.7933 O   0  0  0  0  0  0  0  0  0  0  0  0
    8.3395   -1.6031    2.1817 C   0  0  0  0  0  0  0  0  0  0  0  0
    5.7436   -1.0075    1.2181 C   0  0  0  0  0  0  0  0  0  0  0  0
    4.4848   -0.7308    0.6713 C   0  0  0  0  0  0  0  0  0  0  0  0
   -0.3034   -0.9581   -0.0368 N   0  0  0  0  0  0  0  0  0  0  0  0
   -1.5702   -0.7567   -0.2722 C   0  0  0  0  0  0  0  0  0  0  0  0
   -2.5556   -1.2628    0.5412 N   0  0  0  0  0  0  0  0  0  0  0  0
   -3.6173   -0.4821    1.0836 C   0  0  0  0  0  0  0  0  0  0  0  0
   -4.8447   -1.1371    1.2866 C   0  0  0  0  0  0  0  0  0  0  0  0
   -5.9410   -0.4802    1.8635 C   0  0  0  0  0  0  0  0  0  0  0  0
   -7.2409   -1.2146    2.0326 C   0  0  0  0  0  0  0  0  0  0  0  0
   -5.7794    0.8500    2.2689 C   0  0  0  0  0  0  0  0  0  0  0  0
   -7.0772    1.7344    2.9915 Cl  0  0  0  0  0  0  0  0  0  0  0  0
   -4.5514    1.5035    2.1158 C   0  0  0  0  0  0  0  0  0  0  0  0
   -3.4618    0.8434    1.5399 C   0  0  0  0  0  0  0  0  0  0  0  0
   -2.2133    1.3920    1.4083 O   0  0  0  0  0  0  0  0  0  0  0  0
   -2.0551    2.7709    1.7131 C   0  0  0  0  0  0  0  0  0  0  0  0
   -1.9947   -0.0456   -1.4562 C   0  0  0  0  0  0  0  0  0  0  0  0
   -3.1975    0.3149   -2.0816 C   0  0  0  0  0  0  0  0  0  0  0  0
   -2.9972    0.9988   -3.2199 N   0  0  0  0  0  0  0  0  0  0  0  0
   -1.6474    1.0661   -3.3229 N   0  0  0  0  0  0  0  0  0  0  0  0
   -1.0663    1.7391   -4.4562 C   0  0  0  0  0  0  0  0  0  0  0  0
   -1.0256    0.4441   -2.2873 C   0  0  0  0  0  0  0  0  0  0  0  0
    1.0171    0.6130   -2.6325 H   0  0  0  0  0  0  0  0  0  0  0  0
    2.9316    0.8752   -1.4094 H   0  0  0  0  0  0  0  0  0  0  0  0
    2.9226   -0.6617   -2.3133 H   0  0  0  0  0  0  0  0  0  0  0  0
    5.3641   -0.5037   -2.6062 H   0  0  0  0  0  0  0  0  0  0  0  0
    7.5742   -0.9915   -1.6358 H   0  0  0  0  0  0  0  0  0  0  0  0
    9.4018   -1.8152    2.3366 H   0  0  0  0  0  0  0  0  0  0  0  0
    7.7732   -2.4773    2.5197 H   0  0  0  0  0  0  0  0  0  0  0  0
    8.0883   -0.7156    2.7717 H   0  0  0  0  0  0  0  0  0  0  0  0
    5.8101   -1.1394    2.2924 H   0  0  0  0  0  0  0  0  0  0  0  0
    3.6233   -0.6576    1.3334 H   0  0  0  0  0  0  0  0  0  0  0  0
   -2.0907   -1.7246    1.3216 H   0  0  0  0  0  0  0  0  0  0  0  0
   -4.9441   -2.1741    0.9675 H   0  0  0  0  0  0  0  0  0  0  0  0
   -7.1749   -2.2399    1.6529 H   0  0  0  0  0  0  0  0  0  0  0  0
   -8.0390   -0.7113    1.4775 H   0  0  0  0  0  0  0  0  0  0  0  0
   -7.5108   -1.2743    3.0918 H   0  0  0  0  0  0  0  0  0  0  0  0
   -4.4676    2.5255    2.4703 H   0  0  0  0  0  0  0  0  0  0  0  0
   -2.7177    3.3913    1.1006 H   0  0  0  0  0  0  0  0  0  0  0  0
   -2.2112    2.9570    2.7805 H   0  0  0  0  0  0  0  0  0  0  0  0
   -1.0241    3.0492    1.4740 H   0  0  0  0  0  0  0  0  0  0  0  0
   -4.2132    0.1142   -1.7676 H   0  0  0  0  0  0  0  0  0  0  0  0
   -1.4603    2.7580   -4.4927 H   0  0  0  0  0  0  0  0  0  0  0  0
    0.0206    1.7687   -4.3554 H   0  0  0  0  0  0  0  0  0  0  0  0
   -1.3415    1.1899   -5.3600 H   0  0  0  0  0  0  0  0  0  0  0  0
  1  2  1  0
  2  3  2  3
  3  4  1  0
  4  5  1  0
  5  6  2  0
  6  7  1  0
  7  8  2  0
  8  9  1  0
  9 10  1  0
  8 11  1  0
 11 12  2  0
  2 13  1  0
 13 14  2  0
 14 15  1  0
 15 16  1  0
 16 17  2  0
 17 18  1  0
 18 19  1  0
 18 20  2  0
 20 21  1  0
 20 22  1  0
 22 23  2  0
 23 24  1  0
 24 25  1  0
 14 26  1  0
 26 27  1  0
 27 28  2  0
 28 29  1  0
 29 30  1  0
 29 31  1  0
 31  1  1  0
 12  5  1  0
 23 16  1  0
 31 26  2  0
  1 32  1  0
  4 33  1  0
  4 34  1  0
  6 35  1  0
  7 36  1  0
 10 37  1  0
 10 38  1  0
 10 39  1  0
 11 40  1  0
 12 41  1  0
 15 42  1  0
 17 43  1  0
 19 44  1  0
 19 45  1  0
 19 46  1  0
 22 47  1  0
 25 48  1  0
 25 49  1  0
 25 50  1  0
 27 51  1  0
 30 52  1  0
 30 53  1  0
 30 54  1  0
M  END
>  <ScrubInfo>  (4) 
{"isomerGroup": 0, "isomerId": 3, "confId": 0, "nr_conformers:": 1, "nr_isomers:": 9}

$$$$
_i4
     RDKit          3D

 54 57  0  0  0  0  0  0  0  0999 V2000
   -1.3701   -5.1700    1.0042 N   0  0  0  0  0  0  0  0  0  0  0  0
   -2.0091   -4.1359    0.3270 C   0  0  0  0  0  0  0  0  0  0  0  0
   -1.4468   -2.9420    0.5531 C   0  0  0  0  0  0  0  0  0  0  0  0
   -1.6696   -1.5698    0.1645 C   0  0  0  0  0  0  0  0  0  0  0  0
   -2.5801   -1.2314   -0.6948 N   0  0  0  0  0  0  0  0  0  0  0  0
   -2.7294    0.1372   -0.9873 C   0  0  0  0  0  0  0  0  0  0  0  0
   -2.1332    0.6368   -2.1533 C   0  0  0  0  0  0  0  0  0  0  0  0
   -2.2304    1.9917   -2.4997 C   0  0  0  0  0  0  0  0  0  0  0  0
   -1.5533    2.4873   -3.7451 C   0  0  0  0  0  0  0  0  0  0  0  0
   -2.9618    2.8403   -1.6582 C   0  0  0  0  0  0  0  0  0  0  0  0
   -3.1332    4.5248   -2.0108 Cl  0  0  0  0  0  0  0  0  0  0  0  0
   -3.5833    2.3510   -0.5026 C   0  0  0  0  0  0  0  0  0  0  0  0
   -3.4732    1.0009   -0.1591 C   0  0  0  0  0  0  0  0  0  0  0  0
   -4.0562    0.4271    0.9444 O   0  0  0  0  0  0  0  0  0  0  0  0
   -4.6276    1.2989    1.9084 C   0  0  0  0  0  0  0  0  0  0  0  0
   -0.8262   -0.6721    0.7639 N   0  0  0  0  0  0  0  0  0  0  0  0
    0.1319   -1.0332    1.5637 C   0  0  0  0  0  0  0  0  0  0  0  0
    0.9448   -0.1024    2.1419 N   0  0  0  0  0  0  0  0  0  0  0  0
    1.0810    1.2461    1.6448 C   0  0  0  0  0  0  0  0  0  0  0  0
    2.1204    1.3087    0.5525 C   0  0  0  0  0  0  0  0  0  0  0  0
    1.7496    1.1460   -0.7876 C   0  0  0  0  0  0  0  0  0  0  0  0
    2.7118    1.1880   -1.7986 C   0  0  0  0  0  0  0  0  0  0  0  0
    4.0592    1.3861   -1.4916 C   0  0  0  0  0  0  0  0  0  0  0  0
    4.8952    1.4070   -2.5740 O   0  0  0  0  0  0  0  0  0  0  0  0
    6.2790    1.6022   -2.3134 C   0  0  0  0  0  0  0  0  0  0  0  0
    4.4380    1.5391   -0.1577 C   0  0  0  0  0  0  0  0  0  0  0  0
    3.4752    1.4971    0.8580 C   0  0  0  0  0  0  0  0  0  0  0  0
    0.4355   -2.3264    1.9091 N   0  0  0  0  0  0  0  0  0  0  0  0
   -0.3103   -3.2584    1.4254 C   0  0  0  0  0  0  0  0  0  0  0  0
   -0.2284   -4.6413    1.6054 N   0  0  0  0  0  0  0  0  0  0  0  0
    0.2232   -5.2002    2.8650 C   0  0  0  0  0  0  0  0  0  0  0  0
   -1.2287   -6.0011    0.4255 H   0  0  0  0  0  0  0  0  0  0  0  0
   -2.8607   -4.3499   -0.3035 H   0  0  0  0  0  0  0  0  0  0  0  0
   -1.5764   -0.0534   -2.7834 H   0  0  0  0  0  0  0  0  0  0  0  0
   -1.0343    1.6774   -4.2690 H   0  0  0  0  0  0  0  0  0  0  0  0
   -0.8056    3.2472   -3.4961 H   0  0  0  0  0  0  0  0  0  0  0  0
   -2.2884    2.9078   -4.4387 H   0  0  0  0  0  0  0  0  0  0  0  0
   -4.1523    3.0422    0.1090 H   0  0  0  0  0  0  0  0  0  0  0  0
   -3.8930    2.0231    2.2763 H   0  0  0  0  0  0  0  0  0  0  0  0
   -4.9497    0.6912    2.7596 H   0  0  0  0  0  0  0  0  0  0  0  0
   -5.5127    1.8019    1.5061 H   0  0  0  0  0  0  0  0  0  0  0  0
    1.7935   -0.5167    2.5029 H   0  0  0  0  0  0  0  0  0  0  0  0
    1.3910    1.8962    2.4718 H   0  0  0  0  0  0  0  0  0  0  0  0
    0.1257    1.6563    1.2946 H   0  0  0  0  0  0  0  0  0  0  0  0
    0.7069    0.9788   -1.0496 H   0  0  0  0  0  0  0  0  0  0  0  0
    2.4078    1.0604   -2.8345 H   0  0  0  0  0  0  0  0  0  0  0  0
    6.4592    2.5751   -1.8443 H   0  0  0  0  0  0  0  0  0  0  0  0
    6.8044    1.5934   -3.2732 H   0  0  0  0  0  0  0  0  0  0  0  0
    6.6850    0.7876   -1.7044 H   0  0  0  0  0  0  0  0  0  0  0  0
    5.4733    1.6908    0.1281 H   0  0  0  0  0  0  0  0  0  0  0  0
    3.7924    1.6144    1.8920 H   0  0  0  0  0  0  0  0  0  0  0  0
   -0.4763   -4.9579    3.6719 H   0  0  0  0  0  0  0  0  0  0  0  0
    1.2111   -4.8086    3.1279 H   0  0  0  0  0  0  0  0  0  0  0  0
    0.3048   -6.2895    2.7905 H   0  0  0  0  0  0  0  0  0  0  0  0
  1  2  1  0
  2  3  2  0
  3  4  1  0
  4  5  2  3
  5  6  1  0
  6  7  2  0
  7  8  1  0
  8  9  1  0
  8 10  2  0
 10 11  1  0
 10 12  1  0
 12 13  2  0
 13 14  1  0
 14 15  1  0
  4 16  1  0
 16 17  2  0
 17 18  1  0
 18 19  1  0
 19 20  1  0
 20 21  2  0
 21 22  1  0
 22 23  2  0
 23 24  1  0
 24 25  1  0
 23 26  1  0
 26 27  2  0
 17 28  1  0
 28 29  2  0
 29 30  1  0
 30 31  1  0
 30  1  1  0
 29  3  1  0
 13  6  1  0
 27 20  1  0
  1 32  1  0
  2 33  1  0
  7 34  1  0
  9 35  1  0
  9 36  1  0
  9 37  1  0
 12 38  1  0
 15 39  1  0
 15 40  1  0
 15 41  1  0
 18 42  1  0
 19 43  1  0
 19 44  1  0
 21 45  1  0
 22 46  1  0
 25 47  1  0
 25 48  1  0
 25 49  1  0
 26 50  1  0
 27 51  1  0
 31 52  1  0
 31 53  1  0
 31 54  1  0
M  END
>  <ScrubInfo>  (5) 
{"isomerGroup": 0, "isomerId": 4, "confId": 0, "nr_conformers:": 1, "nr_isomers:": 9}

$$$$
_i5
     RDKit          3D

 54 57  0  0  0  0  0  0  0  0999 V2000
   -0.1016   -2.6712    0.8590 N   0  0  0  0  0  0  0  0  0  0  0  0
   -0.1563   -1.3258    0.5707 C   0  0  0  0  0  0  0  0  0  0  0  0
    1.0375   -0.6699    0.6545 N   0  0  0  0  0  0  0  0  0  0  0  0
    2.1776   -1.1061   -0.1368 C   0  0  0  0  0  0  0  0  0  0  0  0
    3.3106   -0.1218    0.0179 C   0  0  0  0  0  0  0  0  0  0  0  0
    3.9488    0.0420    1.2560 C   0  0  0  0  0  0  0  0  0  0  0  0
    4.9988    0.9551    1.4067 C   0  0  0  0  0  0  0  0  0  0  0  0
    5.4246    1.7184    0.3206 C   0  0  0  0  0  0  0  0  0  0  0  0
    6.4337    2.6412    0.3301 O   0  0  0  0  0  0  0  0  0  0  0  0
    7.0912    2.8620    1.5714 C   0  0  0  0  0  0  0  0  0  0  0  0
    4.7900    1.5605   -0.9134 C   0  0  0  0  0  0  0  0  0  0  0  0
    3.7403    0.6512   -1.0671 C   0  0  0  0  0  0  0  0  0  0  0  0
   -1.2288   -0.6563    0.2501 N   0  0  0  0  0  0  0  0  0  0  0  0
   -2.4431   -1.3285    0.1617 C   0  0  0  0  0  0  0  0  0  0  0  0
   -3.5647   -0.7754   -0.1718 N   0  0  0  0  0  0  0  0  0  0  0  0
   -3.5426    0.5861   -0.5233 C   0  0  0  0  0  0  0  0  0  0  0  0
   -3.9251    1.5303    0.4394 C   0  0  0  0  0  0  0  0  0  0  0  0
   -3.9450    2.9018    0.1489 C   0  0  0  0  0  0  0  0  0  0  0  0
   -4.3512    3.8782    1.2151 C   0  0  0  0  0  0  0  0  0  0  0  0
   -3.5811    3.3121   -1.1405 C   0  0  0  0  0  0  0  0  0  0  0  0
   -3.5740    4.9843   -1.5826 Cl  0  0  0  0  0  0  0  0  0  0  0  0
   -3.2135    2.3793   -2.1181 C   0  0  0  0  0  0  0  0  0  0  0  0
   -3.1982    1.0136   -1.8215 C   0  0  0  0  0  0  0  0  0  0  0  0
   -2.8615    0.0242   -2.7131 O   0  0  0  0  0  0  0  0  0  0  0  0
   -2.5832    0.4122   -4.0501 C   0  0  0  0  0  0  0  0  0  0  0  0
   -2.4397   -2.7311    0.4915 C   0  0  0  0  0  0  0  0  0  0  0  0
   -3.4012   -3.7463    0.5786 C   0  0  0  0  0  0  0  0  0  0  0  0
   -2.8691   -4.9187    0.9641 N   0  0  0  0  0  0  0  0  0  0  0  0
   -1.5501   -4.6405    1.1172 N   0  0  0  0  0  0  0  0  0  0  0  0
   -0.6560   -5.6929    1.5261 C   0  0  0  0  0  0  0  0  0  0  0  0
   -1.2658   -3.3430    0.8331 C   0  0  0  0  0  0  0  0  0  0  0  0
    0.7357   -3.0141    1.3093 H   0  0  0  0  0  0  0  0  0  0  0  0
    0.8619    0.3192    0.4794 H   0  0  0  0  0  0  0  0  0  0  0  0
    2.5239   -2.0948    0.1863 H   0  0  0  0  0  0  0  0  0  0  0  0
    1.8874   -1.1911   -1.1911 H   0  0  0  0  0  0  0  0  0  0  0  0
    3.6220   -0.5376    2.1174 H   0  0  0  0  0  0  0  0  0  0  0  0
    5.4578    1.0465    2.3854 H   0  0  0  0  0  0  0  0  0  0  0  0
    7.5976    1.9544    1.9164 H   0  0  0  0  0  0  0  0  0  0  0  0
    6.3934    3.2377    2.3271 H   0  0  0  0  0  0  0  0  0  0  0  0
    7.8551    3.6293    1.4132 H   0  0  0  0  0  0  0  0  0  0  0  0
    5.1154    2.1557   -1.7636 H   0  0  0  0  0  0  0  0  0  0  0  0
    3.2639    0.5573   -2.0406 H   0  0  0  0  0  0  0  0  0  0  0  0
   -4.2046    1.1738    1.4283 H   0  0  0  0  0  0  0  0  0  0  0  0
   -4.6002    3.3687    2.1522 H   0  0  0  0  0  0  0  0  0  0  0  0
   -3.5330    4.5735    1.4281 H   0  0  0  0  0  0  0  0  0  0  0  0
   -5.2378    4.4389    0.9020 H   0  0  0  0  0  0  0  0  0  0  0  0
   -2.9438    2.7451   -3.1025 H   0  0  0  0  0  0  0  0  0  0  0  0
   -3.4471    0.9048   -4.5085 H   0  0  0  0  0  0  0  0  0  0  0  0
   -1.6926    1.0473   -4.0984 H   0  0  0  0  0  0  0  0  0  0  0  0
   -2.3747   -0.4951   -4.6252 H   0  0  0  0  0  0  0  0  0  0  0  0
   -4.4645   -3.6832    0.3847 H   0  0  0  0  0  0  0  0  0  0  0  0
   -0.9389   -6.0122    2.5322 H   0  0  0  0  0  0  0  0  0  0  0  0
   -0.7513   -6.5220    0.8204 H   0  0  0  0  0  0  0  0  0  0  0  0
    0.3731   -5.3273    1.5275 H   0  0  0  0  0  0  0  0  0  0  0  0
  1  2  1  0
  2  3  1  0
  3  4  1  0
  4  5  1  0
  5  6  2  0
  6  7  1  0
  7  8  2  0
  8  9  1  0
  9 10  1  0
  8 11  1  0
 11 12  2  0
  2 13  2  0
 13 14  1  0
 14 15  2  3
 15 16  1  0
 16 17  2  0
 17 18  1  0
 18 19  1  0
 18 20  2  0
 20 21  1  0
 20 22  1  0
 22 23  2  0
 23 24  1  0
 24 25  1  0
 14 26  1  0
 26 27  1  0
 27 28  2  0
 28 29  1  0
 29 30  1  0
 29 31  1  0
 31  1  1  0
 12  5  1  0
 23 16  1  0
 31 26  2  0
  1 32  1  0
  3 33  1  0
  4 34  1  0
  4 35  1  0
  6 36  1  0
  7 37  1  0
 10 38  1  0
 10 39  1  0
 10 40  1  0
 11 41  1  0
 12 42  1  0
 17 43  1  0
 19 44  1  0
 19 45  1  0
 19 46  1  0
 22 47  1  0
 25 48  1  0
 25 49  1  0
 25 50  1  0
 27 51  1  0
 30 52  1  0
 30 53  1  0
 30 54  1  0
M  END
>  <ScrubInfo>  (6) 
{"isomerGroup": 0, "isomerId": 5, "confId": 0, "nr_conformers:": 1, "nr_isomers:": 9}

$$$$
_i6
     RDKit          3D

 54 57  0  0  0  0  0  0  0  0999 V2000
   -0.3736   -1.2962   -3.0582 N   0  0  0  0  0  0  0  0  0  0  0  0
   -1.1738   -1.3733   -1.9231 C   0  0  0  0  0  0  0  0  0  0  0  0
   -0.7694   -0.5565   -0.9412 C   0  0  0  0  0  0  0  0  0  0  0  0
   -1.1756   -0.1737    0.4089 C   0  0  0  0  0  0  0  0  0  0  0  0
   -2.2688   -0.7006    1.0528 N   0  0  0  0  0  0  0  0  0  0  0  0
   -3.6246   -0.6222    0.6346 C   0  0  0  0  0  0  0  0  0  0  0  0
   -4.0247   -0.0195   -0.5669 C   0  0  0  0  0  0  0  0  0  0  0  0
   -5.3697   -0.0149   -0.9745 C   0  0  0  0  0  0  0  0  0  0  0  0
   -5.7481    0.6548   -2.2663 C   0  0  0  0  0  0  0  0  0  0  0  0
   -6.3217   -0.6313   -0.1527 C   0  0  0  0  0  0  0  0  0  0  0  0
   -7.9953   -0.6684   -0.5841 Cl  0  0  0  0  0  0  0  0  0  0  0  0
   -5.9460   -1.2347    1.0506 C   0  0  0  0  0  0  0  0  0  0  0  0
   -4.6069   -1.2349    1.4470 C   0  0  0  0  0  0  0  0  0  0  0  0
   -4.1351   -1.7877    2.6147 O   0  0  0  0  0  0  0  0  0  0  0  0
   -5.0752   -2.4467    3.4544 C   0  0  0  0  0  0  0  0  0  0  0  0
   -0.4248    0.6720    1.0582 N   0  0  0  0  0  0  0  0  0  0  0  0
    0.6839    1.2080    0.4381 C   0  0  0  0  0  0  0  0  0  0  0  0
    1.3088    2.0629    1.1650 N   0  0  0  0  0  0  0  0  0  0  0  0
    2.5112    2.6954    0.6359 C   0  0  0  0  0  0  0  0  0  0  0  0
    3.7687    1.9330    0.9814 C   0  0  0  0  0  0  0  0  0  0  0  0
    4.5007    1.2675   -0.0093 C   0  0  0  0  0  0  0  0  0  0  0  0
    5.6630    0.5579    0.3149 C   0  0  0  0  0  0  0  0  0  0  0  0
    6.1046    0.5007    1.6371 C   0  0  0  0  0  0  0  0  0  0  0  0
    7.2188   -0.1541    2.0865 O   0  0  0  0  0  0  0  0  0  0  0  0
    7.9934   -0.8422    1.1135 C   0  0  0  0  0  0  0  0  0  0  0  0
    5.3705    1.1538    2.6293 C   0  0  0  0  0  0  0  0  0  0  0  0
    4.2101    1.8616    2.3076 C   0  0  0  0  0  0  0  0  0  0  0  0
    1.1439    0.9114   -0.8261 N   0  0  0  0  0  0  0  0  0  0  0  0
    0.4681    0.0377   -1.4871 C   0  0  0  0  0  0  0  0  0  0  0  0
    0.7216   -0.4947   -2.7515 N   0  0  0  0  0  0  0  0  0  0  0  0
    1.3314    0.3056   -3.7950 C   0  0  0  0  0  0  0  0  0  0  0  0
   -0.1574   -2.2117   -3.4608 H   0  0  0  0  0  0  0  0  0  0  0  0
   -2.0170   -2.0496   -1.9154 H   0  0  0  0  0  0  0  0  0  0  0  0
   -2.2367   -0.5497    2.0610 H   0  0  0  0  0  0  0  0  0  0  0  0
   -3.2955    0.4873   -1.1933 H   0  0  0  0  0  0  0  0  0  0  0  0
   -6.2160   -0.0640   -2.9467 H   0  0  0  0  0  0  0  0  0  0  0  0
   -4.8711    1.0647   -2.7787 H   0  0  0  0  0  0  0  0  0  0  0  0
   -6.4362    1.4851   -2.0780 H   0  0  0  0  0  0  0  0  0  0  0  0
   -6.7169   -1.6944    1.6596 H   0  0  0  0  0  0  0  0  0  0  0  0
   -5.5401   -3.2932    2.9385 H   0  0  0  0  0  0  0  0  0  0  0  0
   -5.8291   -1.7457    3.8272 H   0  0  0  0  0  0  0  0  0  0  0  0
   -4.5319   -2.8412    4.3184 H   0  0  0  0  0  0  0  0  0  0  0  0
    2.5906    3.6940    1.0850 H   0  0  0  0  0  0  0  0  0  0  0  0
    2.4539    2.8934   -0.4422 H   0  0  0  0  0  0  0  0  0  0  0  0
    4.1608    1.2909   -1.0422 H   0  0  0  0  0  0  0  0  0  0  0  0
    6.1938    0.0592   -0.4882 H   0  0  0  0  0  0  0  0  0  0  0  0
    7.4129   -1.6397    0.6379 H   0  0  0  0  0  0  0  0  0  0  0  0
    8.8389   -1.3087    1.6283 H   0  0  0  0  0  0  0  0  0  0  0  0
    8.3989   -0.1493    0.3688 H   0  0  0  0  0  0  0  0  0  0  0  0
    5.7004    1.1071    3.6637 H   0  0  0  0  0  0  0  0  0  0  0  0
    3.6418    2.3512    3.0955 H   0  0  0  0  0  0  0  0  0  0  0  0
    0.6692    1.1249   -4.0935 H   0  0  0  0  0  0  0  0  0  0  0  0
    1.5408   -0.3111   -4.6751 H   0  0  0  0  0  0  0  0  0  0  0  0
    2.2802    0.7296   -3.4506 H   0  0  0  0  0  0  0  0  0  0  0  0
  1  2  1  0
  2  3  2  0
  3  4  1  0
  4  5  1  0
  5  6  1  0
  6  7  2  0
  7  8  1  0
  8  9  1  0
  8 10  2  0
 10 11  1  0
 10 12  1  0
 12 13  2  0
 13 14  1  0
 14 15  1  0
  4 16  2  0
 16 17  1  0
 17 18  2  3
 18 19  1  0
 19 20  1  0
 20 21  2  0
 21 22  1  0
 22 23  2  0
 23 24  1  0
 24 25  1  0
 23 26  1  0
 26 27  2  0
 17 28  1  0
 28 29  2  0
 29 30  1  0
 30 31  1  0
 30  1  1  0
 29  3  1  0
 13  6  1  0
 27 20  1  0
  1 32  1  0
  2 33  1  0
  5 34  1  0
  7 35  1  0
  9 36  1  0
  9 37  1  0
  9 38  1  0
 12 39  1  0
 15 40  1  0
 15 41  1  0
 15 42  1  0
 19 43  1  0
 19 44  1  0
 21 45  1  0
 22 46  1  0
 25 47  1  0
 25 48  1  0
 25 49  1  0
 26 50  1  0
 27 51  1  0
 31 52  1  0
 31 53  1  0
 31 54  1  0
M  END
>  <ScrubInfo>  (7) 
{"isomerGroup": 0, "isomerId": 6, "confId": 0, "nr_conformers:": 1, "nr_isomers:": 9}

$$$$
_i7
     RDKit          3D

 54 57  0  0  0  0  0  0  0  0999 V2000
   -2.1657   -3.7323    0.2097 N   0  0  0  0  0  0  0  0  0  0  0  0
   -2.1810   -2.3597   -0.0125 C   0  0  0  0  0  0  0  0  0  0  0  0
   -1.0706   -1.7353    0.4053 C   0  0  0  0  0  0  0  0  0  0  0  0
   -0.4898   -0.3830    0.4888 C   0  0  0  0  0  0  0  0  0  0  0  0
   -0.9720    0.7534    0.0798 N   0  0  0  0  0  0  0  0  0  0  0  0
   -2.2453    0.8268   -0.5040 C   0  0  0  0  0  0  0  0  0  0  0  0
   -2.3326    0.8977   -1.9004 C   0  0  0  0  0  0  0  0  0  0  0  0
   -3.5713    1.0080   -2.5482 C   0  0  0  0  0  0  0  0  0  0  0  0
   -3.6184    1.0751   -4.0483 C   0  0  0  0  0  0  0  0  0  0  0  0
   -4.7302    1.0611   -1.7619 C   0  0  0  0  0  0  0  0  0  0  0  0
   -6.2976    1.1901   -2.4800 Cl  0  0  0  0  0  0  0  0  0  0  0  0
   -4.6569    1.0099   -0.3645 C   0  0  0  0  0  0  0  0  0  0  0  0
   -3.4187    0.9005    0.2736 C   0  0  0  0  0  0  0  0  0  0  0  0
   -3.2434    0.8309    1.6333 O   0  0  0  0  0  0  0  0  0  0  0  0
   -4.3896    1.0074    2.4541 C   0  0  0  0  0  0  0  0  0  0  0  0
    0.7425   -0.3770    1.0871 N   0  0  0  0  0  0  0  0  0  0  0  0
    1.4401   -1.4532    1.5744 C   0  0  0  0  0  0  0  0  0  0  0  0
    2.5835   -1.4309    2.1618 N   0  0  0  0  0  0  0  0  0  0  0  0
    3.2609   -0.1608    2.4060 C   0  0  0  0  0  0  0  0  0  0  0  0
    3.8068    0.5118    1.1672 C   0  0  0  0  0  0  0  0  0  0  0  0
    3.7563    1.9062    1.0373 C   0  0  0  0  0  0  0  0  0  0  0  0
    4.2667    2.5377   -0.1033 C   0  0  0  0  0  0  0  0  0  0  0  0
    4.8448    1.7838   -1.1244 C   0  0  0  0  0  0  0  0  0  0  0  0
    5.3762    2.2737   -2.2855 O   0  0  0  0  0  0  0  0  0  0  0  0
    5.3335    3.6831   -2.4671 C   0  0  0  0  0  0  0  0  0  0  0  0
    4.9128    0.3960   -0.9904 C   0  0  0  0  0  0  0  0  0  0  0  0
    4.4048   -0.2364    0.1466 C   0  0  0  0  0  0  0  0  0  0  0  0
    0.9324   -2.7311    1.4578 N   0  0  0  0  0  0  0  0  0  0  0  0
   -0.2286   -2.8779    0.9024 C   0  0  0  0  0  0  0  0  0  0  0  0
   -0.9038   -4.0786    0.6693 N   0  0  0  0  0  0  0  0  0  0  0  0
   -0.7607   -5.2015    1.5760 C   0  0  0  0  0  0  0  0  0  0  0  0
   -2.5193   -4.2754   -0.5811 H   0  0  0  0  0  0  0  0  0  0  0  0
   -3.0509   -1.9319   -0.4868 H   0  0  0  0  0  0  0  0  0  0  0  0
   -1.4108    0.8707   -2.4785 H   0  0  0  0  0  0  0  0  0  0  0  0
   -2.6154    1.0141   -4.4842 H   0  0  0  0  0  0  0  0  0  0  0  0
   -4.2006    0.2397   -4.4500 H   0  0  0  0  0  0  0  0  0  0  0  0
   -4.0606    2.0220   -4.3743 H   0  0  0  0  0  0  0  0  0  0  0  0
   -5.5810    1.0561    0.2018 H   0  0  0  0  0  0  0  0  0  0  0  0
   -4.8592    1.9806    2.2765 H   0  0  0  0  0  0  0  0  0  0  0  0
   -4.0608    0.9821    3.4975 H   0  0  0  0  0  0  0  0  0  0  0  0
   -5.1041    0.1903    2.3110 H   0  0  0  0  0  0  0  0  0  0  0  0
    1.1810    0.5288    1.1218 H   0  0  0  0  0  0  0  0  0  0  0  0
    4.1060   -0.3502    3.0790 H   0  0  0  0  0  0  0  0  0  0  0  0
    2.5914    0.5168    2.9516 H   0  0  0  0  0  0  0  0  0  0  0  0
    3.3199    2.5171    1.8250 H   0  0  0  0  0  0  0  0  0  0  0  0
    4.1996    3.6189   -0.1595 H   0  0  0  0  0  0  0  0  0  0  0  0
    4.3010    4.0467   -2.4949 H   0  0  0  0  0  0  0  0  0  0  0  0
    5.7919    3.9095   -3.4347 H   0  0  0  0  0  0  0  0  0  0  0  0
    5.9144    4.1986   -1.6951 H   0  0  0  0  0  0  0  0  0  0  0  0
    5.3676   -0.2006   -1.7772 H   0  0  0  0  0  0  0  0  0  0  0  0
    4.4723   -1.3200    0.2313 H   0  0  0  0  0  0  0  0  0  0  0  0
   -1.1715   -4.9600    2.5619 H   0  0  0  0  0  0  0  0  0  0  0  0
    0.2935   -5.4730    1.6917 H   0  0  0  0  0  0  0  0  0  0  0  0
   -1.2891   -6.0768    1.1843 H   0  0  0  0  0  0  0  0  0  0  0  0
  1  2  1  0
  2  3  2  0
  3  4  1  0
  4  5  2  3
  5  6  1  0
  6  7  2  0
  7  8  1  0
  8  9  1  0
  8 10  2  0
 10 11  1  0
 10 12  1  0
 12 13  2  0
 13 14  1  0
 14 15  1  0
  4 16  1  0
 16 17  1  0
 17 18  2  3
 18 19  1  0
 19 20  1  0
 20 21  2  0
 21 22  1  0
 22 23  2  0
 23 24  1  0
 24 25  1  0
 23 26  1  0
 26 27  2  0
 17 28  1  0
 28 29  2  0
 29 30  1  0
 30 31  1  0
 30  1  1  0
 29  3  1  0
 13  6  1  0
 27 20  1  0
  1 32  1  0
  2 33  1  0
  7 34  1  0
  9 35  1  0
  9 36  1  0
  9 37  1  0
 12 38  1  0
 15 39  1  0
 15 40  1  0
 15 41  1  0
 16 42  1  0
 19 43  1  0
 19 44  1  0
 21 45  1  0
 22 46  1  0
 25 47  1  0
 25 48  1  0
 25 49  1  0
 26 50  1  0
 27 51  1  0
 31 52  1  0
 31 53  1  0
 31 54  1  0
M  END
>  <ScrubInfo>  (8) 
{"isomerGroup": 0, "isomerId": 7, "confId": 0, "nr_conformers:": 1, "nr_isomers:": 9}

$$$$
_i8
     RDKit          3D

 54 57  0  0  0  0  0  0  0  0999 V2000
    1.0361    0.9398    0.4990 N   0  0  0  0  0  0  0  0  0  0  0  0
    0.9179    0.2700    1.7054 C   0  0  0  0  0  0  0  0  0  0  0  0
    1.7997    0.1469    2.6392 N   0  0  0  0  0  0  0  0  0  0  0  0
    3.0957    0.8155    2.5057 C   0  0  0  0  0  0  0  0  0  0  0  0
    3.9964    0.2808    1.4151 C   0  0  0  0  0  0  0  0  0  0  0  0
    4.8676    1.1462    0.7383 C   0  0  0  0  0  0  0  0  0  0  0  0
    5.7148    0.6680   -0.2685 C   0  0  0  0  0  0  0  0  0  0  0  0
    5.7101   -0.6851   -0.6050 C   0  0  0  0  0  0  0  0  0  0  0  0
    6.4804   -1.2788   -1.5660 O   0  0  0  0  0  0  0  0  0  0  0  0
    7.4082   -0.4485   -2.2522 C   0  0  0  0  0  0  0  0  0  0  0  0
    4.8569   -1.5531    0.0787 C   0  0  0  0  0  0  0  0  0  0  0  0
    4.0136   -1.0791    1.0863 C   0  0  0  0  0  0  0  0  0  0  0  0
   -0.3136   -0.3246    1.8772 N   0  0  0  0  0  0  0  0  0  0  0  0
   -1.4374   -0.3632    1.0794 C   0  0  0  0  0  0  0  0  0  0  0  0
   -2.5154   -0.9728    1.4716 N   0  0  0  0  0  0  0  0  0  0  0  0
   -3.6908   -0.9804    0.7091 C   0  0  0  0  0  0  0  0  0  0  0  0
   -4.0009   -2.1347   -0.0219 C   0  0  0  0  0  0  0  0  0  0  0  0
   -5.1811   -2.2260   -0.7736 C   0  0  0  0  0  0  0  0  0  0  0  0
   -5.4684   -3.4791   -1.5507 C   0  0  0  0  0  0  0  0  0  0  0  0
   -6.0611   -1.1353   -0.7647 C   0  0  0  0  0  0  0  0  0  0  0  0
   -7.5381   -1.1654   -1.6630 Cl  0  0  0  0  0  0  0  0  0  0  0  0
   -5.7736    0.0173   -0.0234 C   0  0  0  0  0  0  0  0  0  0  0  0
   -4.5944    0.1018    0.7215 C   0  0  0  0  0  0  0  0  0  0  0  0
   -4.2207    1.1868    1.4749 O   0  0  0  0  0  0  0  0  0  0  0  0
   -5.1017    2.3006    1.5072 C   0  0  0  0  0  0  0  0  0  0  0  0
   -1.2003    0.3271   -0.1777 C   0  0  0  0  0  0  0  0  0  0  0  0
   -1.8971    0.5640   -1.3771 C   0  0  0  0  0  0  0  0  0  0  0  0
   -1.1806    1.2647   -2.2696 N   0  0  0  0  0  0  0  0  0  0  0  0
   -0.0058    1.4796   -1.6387 N   0  0  0  0  0  0  0  0  0  0  0  0
    1.0446    2.1933   -2.3202 C   0  0  0  0  0  0  0  0  0  0  0  0
    0.0184    0.9346   -0.3920 C   0  0  0  0  0  0  0  0  0  0  0  0
    1.9472    1.3159    0.2718 H   0  0  0  0  0  0  0  0  0  0  0  0
    2.9327    1.8929    2.3716 H   0  0  0  0  0  0  0  0  0  0  0  0
    3.6297    0.7064    3.4574 H   0  0  0  0  0  0  0  0  0  0  0  0
    4.8998    2.2034    0.9946 H   0  0  0  0  0  0  0  0  0  0  0  0
    6.3698    1.3768   -0.7639 H   0  0  0  0  0  0  0  0  0  0  0  0
    8.1384   -0.0154   -1.5606 H   0  0  0  0  0  0  0  0  0  0  0  0
    7.9547   -1.0747   -2.9640 H   0  0  0  0  0  0  0  0  0  0  0  0
    6.8924    0.3311   -2.8225 H   0  0  0  0  0  0  0  0  0  0  0  0
    4.8519   -2.6116   -0.1706 H   0  0  0  0  0  0  0  0  0  0  0  0
    3.3652   -1.7785    1.6110 H   0  0  0  0  0  0  0  0  0  0  0  0
   -0.4239   -0.7955    2.7633 H   0  0  0  0  0  0  0  0  0  0  0  0
   -3.3028   -2.9690    0.0070 H   0  0  0  0  0  0  0  0  0  0  0  0
   -5.5613   -3.2540   -2.6180 H   0  0  0  0  0  0  0  0  0  0  0  0
   -4.6628   -4.2131   -1.4405 H   0  0  0  0  0  0  0  0  0  0  0  0
   -6.3904   -3.9477   -1.1921 H   0  0  0  0  0  0  0  0  0  0  0  0
   -6.4877    0.8335   -0.0437 H   0  0  0  0  0  0  0  0  0  0  0  0
   -4.6529    3.0633    2.1508 H   0  0  0  0  0  0  0  0  0  0  0  0
   -6.0691    2.0269    1.9408 H   0  0  0  0  0  0  0  0  0  0  0  0
   -5.2228    2.7367    0.5101 H   0  0  0  0  0  0  0  0  0  0  0  0
   -2.8927    0.2564   -1.6633 H   0  0  0  0  0  0  0  0  0  0  0  0
    0.6003    2.8839   -3.0418 H   0  0  0  0  0  0  0  0  0  0  0  0
    1.6292    2.7588   -1.5906 H   0  0  0  0  0  0  0  0  0  0  0  0
    1.6753    1.4626   -2.8320 H   0  0  0  0  0  0  0  0  0  0  0  0
  1  2  1  0
  2  3  2  3
  3  4  1  0
  4  5  1  0
  5  6  2  0
  6  7  1  0
  7  8  2  0
  8  9  1  0
  9 10  1  0
  8 11  1  0
 11 12  2  0
  2 13  1  0
 13 14  1  0
 14 15  2  3
 15 16  1  0
 16 17  2  0
 17 18  1  0
 18 19  1  0
 18 20  2  0
 20 21  1  0
 20 22  1  0
 22 23  2  0
 23 24  1  0
 24 25  1  0
 14 26  1  0
 26 27  1  0
 27 28  2  0
 28 29  1  0
 29 30  1  0
 29 31  1  0
 31  1  1  0
 12  5  1  0
 23 16  1  0
 31 26  2  0
  1 32  1  0
  4 33  1  0
  4 34  1  0
  6 35  1  0
  7 36  1  0
 10 37  1  0
 10 38  1  0
 10 39  1  0
 11 40  1  0
 12 41  1  0
 13 42  1  0
 17 43  1  0
 19 44  1  0
 19 45  1  0
 19 46  1  0
 22 47  1  0
 25 48  1  0
 25 49  1  0
 25 50  1  0
 27 51  1  0
 30 52  1  0
 30 53  1  0
 30 54  1  0
M  END
>  <ScrubInfo>  (9) 
{"isomerGroup": 0, "isomerId": 8, "confId": 0, "nr_conformers:": 1, "nr_isomers:": 9}

$$$$
