REMARK SMILES COc1ccc(CNc2nc(Nc3cc(C)c(Cl)cc3OC)c3cnn(C)c3n2)cc1
REMARK SMILES IDX 9 1 10 2 11 3 23 4 24 5 25 6 26 7 27 8 28 9 29 10 8 11 7 13
REMARK SMILES IDX 6 14 3 15 4 16 31 17 5 18 30 19 2 20 1 21 12 22 13 24 14 25
REMARK SMILES IDX 20 26 15 27 19 28 17 29 16 30 18 31 21 32 22 33
REMARK H PARENT 8 12 12 23
ROOT
ATOM      1  C   UNL     1       0.589  -0.248  -0.021  1.00  0.00     0.227 A 
ATOM      2  N   UNL     1      -0.682  -0.547  -0.345  1.00  0.00    -0.195 NA
ATOM      3  C   UNL     1      -1.446   0.325  -1.057  1.00  0.00     0.147 A 
ATOM      4  C   UNL     1      -0.842   1.532  -1.432  1.00  0.00     0.082 A 
ATOM      5  C   UNL     1      -1.178   2.708  -2.135  1.00  0.00     0.149 A 
ATOM      6  N   UNL     1      -0.169   3.585  -2.197  1.00  0.00    -0.179 NA
ATOM      7  N   UNL     1       0.820   2.965  -1.511  1.00  0.00    -0.250 N 
ATOM      8  C   UNL     1       2.087   3.627  -1.334  1.00  0.00     0.176 C 
ATOM      9  C   UNL     1       0.469   1.727  -1.048  1.00  0.00     0.165 A 
ATOM     10  N   UNL     1       1.234   0.873  -0.358  1.00  0.00    -0.193 NA
ENDROOT
BRANCH   1  11
ATOM     11  N   UNL     1       1.236  -1.234   0.718  1.00  0.00    -0.350 N 
ATOM     12  H   UNL     1       0.665  -2.063   0.597  1.00  0.00     0.164 HD
BRANCH  11  13
ATOM     13  C   UNL     1       2.640  -1.421   0.403  1.00  0.00     0.152 C 
BRANCH  13  14
ATOM     14  C   UNL     1       3.541  -0.531   1.231  1.00  0.00    -0.029 A 
ATOM     15  C   UNL     1       5.272   1.084   2.765  1.00  0.00     0.118 A 
ATOM     16  C   UNL     1       4.266   0.338   3.381  1.00  0.00     0.047 A 
ATOM     17  C   UNL     1       5.415   1.020   1.380  1.00  0.00     0.047 A 
ATOM     18  C   UNL     1       3.408  -0.465   2.624  1.00  0.00     0.009 A 
ATOM     19  C   UNL     1       4.556   0.217   0.619  1.00  0.00     0.009 A 
BRANCH  15  20
ATOM     20  O   UNL     1       6.041   1.824   3.622  1.00  0.00    -0.497 OA
ATOM     21  C   UNL     1       7.075   2.608   3.042  1.00  0.00     0.278 C 
ENDBRANCH  15  20
ENDBRANCH  13  14
ENDBRANCH  11  13
ENDBRANCH   1  11
BRANCH   3  22
ATOM     22  N   UNL     1      -2.766   0.035  -1.415  1.00  0.00    -0.336 N 
ATOM     23  H   UNL     1      -3.216   0.729  -2.004  1.00  0.00     0.168 HD
BRANCH  22  24
ATOM     24  C   UNL     1      -3.633  -1.046  -1.151  1.00  0.00     0.083 A 
ATOM     25  C   UNL     1      -3.305  -2.113  -0.306  1.00  0.00     0.035 A 
ATOM     26  C   UNL     1      -4.898  -1.050  -1.785  1.00  0.00     0.143 A 
ATOM     27  C   UNL     1      -4.197  -3.176  -0.080  1.00  0.00    -0.030 A 
ATOM     28  C   UNL     1      -5.793  -2.100  -1.569  1.00  0.00     0.069 A 
ATOM     29  C   UNL     1      -5.441  -3.155  -0.722  1.00  0.00     0.047 A 
ATOM     30  C   UNL     1      -3.794  -4.293   0.841  1.00  0.00     0.046 C 
ATOM     31  Cl  UNL     1      -6.593  -4.424  -0.496  1.00  0.00    -0.084 Cl
BRANCH  26  32
ATOM     32  O   UNL     1      -5.142   0.038  -2.596  1.00  0.00    -0.495 OA
ATOM     33  C   UNL     1      -6.399   0.081  -3.261  1.00  0.00     0.278 C 
ENDBRANCH  26  32
ENDBRANCH  22  24
ENDBRANCH   3  22
TORSDOF 7
