REMARK SMILES Cc1cccc(Nc2nc(NCCC[NH+](C)C)nc3c2cnn3C)c1
REMARK SMILES IDX 12 1 13 2 14 3 15 4 16 5 17 6 11 8 10 10 9 11 18 12 8 13
REMARK SMILES IDX 19 14 20 15 23 16 21 17 22 18 24 19 7 20 6 22 5 23 25 24
REMARK SMILES IDX 4 25 2 26 3 27 1 28
REMARK H PARENT 15 7 11 9 7 21
ROOT
ATOM      1  C   UNL     1      -2.397   0.408  -1.126  1.00  0.00     0.122 C 
ENDROOT
BRANCH   1   2
ATOM      2  C   UNL     1      -3.443  -0.620  -0.694  1.00  0.00     0.083 C 
BRANCH   2   3
ATOM      3  C   UNL     1      -3.616  -0.866   0.804  1.00  0.00     0.263 C 
BRANCH   3   4
ATOM      4  N   UNL     1      -4.240   0.261   1.599  1.00  0.00    -0.340 N 
ATOM      5  C   UNL     1      -3.289   1.367   1.960  1.00  0.00     0.332 C 
ATOM      6  C   UNL     1      -5.544   0.769   1.064  1.00  0.00     0.332 C 
ATOM      7  H   UNL     1      -4.467  -0.176   2.502  1.00  0.00     0.347 HD
ENDBRANCH   3   4
ENDBRANCH   2   3
ENDBRANCH   1   2
BRANCH   1   8
ATOM      8  N   UNL     1      -1.235   0.460  -0.254  1.00  0.00    -0.354 N 
ATOM      9  H   UNL     1      -0.673   1.305  -0.388  1.00  0.00     0.163 HD
BRANCH   8  10
ATOM     10  C   UNL     1      -0.276  -0.531  -0.489  1.00  0.00     0.226 A 
ATOM     11  N   UNL     1       0.985  -0.081  -0.441  1.00  0.00    -0.195 NA
ATOM     12  N   UNL     1      -0.659  -1.795  -0.702  1.00  0.00    -0.193 NA
ATOM     13  C   UNL     1       2.036  -0.923  -0.640  1.00  0.00     0.147 A 
ATOM     14  C   UNL     1       0.385  -2.616  -0.906  1.00  0.00     0.165 A 
ATOM     15  C   UNL     1       1.723  -2.266  -0.892  1.00  0.00     0.082 A 
ATOM     16  N   UNL     1       0.351  -3.958  -1.174  1.00  0.00    -0.250 N 
ATOM     17  C   UNL     1       2.404  -3.473  -1.153  1.00  0.00     0.149 A 
ATOM     18  N   UNL     1       1.575  -4.508  -1.324  1.00  0.00    -0.179 NA
ATOM     19  C   UNL     1      -0.815  -4.794  -1.308  1.00  0.00     0.176 C 
BRANCH  13  20
ATOM     20  N   UNL     1       3.362  -0.471  -0.626  1.00  0.00    -0.339 N 
ATOM     21  H   UNL     1       4.041  -1.177  -0.876  1.00  0.00     0.168 HD
BRANCH  20  22
ATOM     22  C   UNL     1       3.938   0.771  -0.303  1.00  0.00     0.040 A 
ATOM     23  C   UNL     1       5.286   0.987  -0.633  1.00  0.00     0.026 A 
ATOM     24  C   UNL     1       3.238   1.825   0.295  1.00  0.00     0.029 A 
ATOM     25  C   UNL     1       5.915   2.203  -0.359  1.00  0.00     0.002 A 
ATOM     26  C   UNL     1       3.854   3.060   0.565  1.00  0.00    -0.049 A 
ATOM     27  C   UNL     1       5.202   3.235   0.244  1.00  0.00     0.003 A 
ATOM     28  C   UNL     1       3.089   4.155   1.248  1.00  0.00     0.044 C 
ENDBRANCH  20  22
ENDBRANCH  13  20
ENDBRANCH   8  10
ENDBRANCH   1   8
TORSDOF 7
