_i0
     RDKit          3D

 51 53  0  0  0  0  0  0  0  0999 V2000
   -3.6165   -0.8660    0.8039 C   0  0  0  0  0  0  0  0  0  0  0  0
   -4.2401    0.2611    1.5986 N   0  0  0  0  0  4  0  0  0  0  0  0
   -3.2891    1.3670    1.9604 C   0  0  0  0  0  0  0  0  0  0  0  0
   -5.5439    0.7688    1.0643 C   0  0  0  0  0  0  0  0  0  0  0  0
   -3.4434   -0.6199   -0.6935 C   0  0  0  0  0  0  0  0  0  0  0  0
   -2.3972    0.4079   -1.1259 C   0  0  0  0  0  0  0  0  0  0  0  0
   -1.2348    0.4599   -0.2539 N   0  0  0  0  0  0  0  0  0  0  0  0
   -0.2763   -0.5306   -0.4886 C   0  0  0  0  0  0  0  0  0  0  0  0
    0.9851   -0.0814   -0.4414 N   0  0  0  0  0  0  0  0  0  0  0  0
   -0.6594   -1.7950   -0.7017 N   0  0  0  0  0  0  0  0  0  0  0  0
    2.0356   -0.9235   -0.6399 C   0  0  0  0  0  0  0  0  0  0  0  0
    0.3846   -2.6157   -0.9057 C   0  0  0  0  0  0  0  0  0  0  0  0
    3.3616   -0.4713   -0.6258 N   0  0  0  0  0  0  0  0  0  0  0  0
    1.7226   -2.2657   -0.8916 C   0  0  0  0  0  0  0  0  0  0  0  0
    0.3515   -3.9583   -1.1739 N   0  0  0  0  0  0  0  0  0  0  0  0
    3.9379    0.7706   -0.3026 C   0  0  0  0  0  0  0  0  0  0  0  0
    2.4037   -3.4729   -1.1535 C   0  0  0  0  0  0  0  0  0  0  0  0
    1.5755   -4.5080   -1.3242 N   0  0  0  0  0  0  0  0  0  0  0  0
   -0.8152   -4.7937   -1.3085 C   0  0  0  0  0  0  0  0  0  0  0  0
    5.2856    0.9866   -0.6326 C   0  0  0  0  0  0  0  0  0  0  0  0
    3.2381    1.8250    0.2953 C   0  0  0  0  0  0  0  0  0  0  0  0
    5.9147    2.2032   -0.3586 C   0  0  0  0  0  0  0  0  0  0  0  0
    3.8538    3.0596    0.5651 C   0  0  0  0  0  0  0  0  0  0  0  0
    5.2020    3.2351    0.2443 C   0  0  0  0  0  0  0  0  0  0  0  0
    3.0894    4.1549    1.2479 C   0  0  0  0  0  0  0  0  0  0  0  0
   -2.6803   -1.1374    1.3024 H   0  0  0  0  0  0  0  0  0  0  0  0
   -4.2965   -1.7163    0.9388 H   0  0  0  0  0  0  0  0  0  0  0  0
   -4.4667   -0.1758    2.5019 H   0  0  0  0  0  0  0  0  0  0  0  0
   -2.3656    0.9235    2.3404 H   0  0  0  0  0  0  0  0  0  0  0  0
   -3.7599    1.9603    2.7496 H   0  0  0  0  0  0  0  0  0  0  0  0
   -3.1122    1.9915    1.0840 H   0  0  0  0  0  0  0  0  0  0  0  0
   -5.9963    1.4051    1.8297 H   0  0  0  0  0  0  0  0  0  0  0  0
   -6.1899   -0.0901    0.8650 H   0  0  0  0  0  0  0  0  0  0  0  0
   -5.3549    1.3421    0.1534 H   0  0  0  0  0  0  0  0  0  0  0  0
   -4.4038   -0.3643   -1.1567 H   0  0  0  0  0  0  0  0  0  0  0  0
   -3.1746   -1.5846   -1.1432 H   0  0  0  0  0  0  0  0  0  0  0  0
   -2.8663    1.3985   -1.1068 H   0  0  0  0  0  0  0  0  0  0  0  0
   -2.1082    0.2425   -2.1721 H   0  0  0  0  0  0  0  0  0  0  0  0
   -0.6732    1.3050   -0.3879 H   0  0  0  0  0  0  0  0  0  0  0  0
    4.0412   -1.1773   -0.8760 H   0  0  0  0  0  0  0  0  0  0  0  0
    3.4698   -3.6464   -1.2266 H   0  0  0  0  0  0  0  0  0  0  0  0
   -0.8195   -5.2191   -2.3152 H   0  0  0  0  0  0  0  0  0  0  0  0
   -1.7190   -4.2002   -1.1533 H   0  0  0  0  0  0  0  0  0  0  0  0
   -0.7596   -5.5863   -0.5581 H   0  0  0  0  0  0  0  0  0  0  0  0
    5.8681    0.2044   -1.1133 H   0  0  0  0  0  0  0  0  0  0  0  0
    2.2000    1.6957    0.5817 H   0  0  0  0  0  0  0  0  0  0  0  0
    6.9613    2.3444   -0.6167 H   0  0  0  0  0  0  0  0  0  0  0  0
    5.7042    4.1755    0.4602 H   0  0  0  0  0  0  0  0  0  0  0  0
    3.4746    5.1390    0.9611 H   0  0  0  0  0  0  0  0  0  0  0  0
    2.0316    4.1263    0.9660 H   0  0  0  0  0  0  0  0  0  0  0  0
    3.1698    4.0463    2.3338 H   0  0  0  0  0  0  0  0  0  0  0  0
  1  2  1  0
  2  3  1  0
  2  4  1  0
  5  1  1  0
  6  5  1  0
  7  6  1  0
  8  7  1  0
  9  8  2  0
  8 10  1  0
 11  9  1  0
 10 12  2  0
 13 11  1  0
 14 11  2  0
 12 14  1  0
 15 12  1  0
 16 13  1  0
 14 17  1  0
 18 15  1  0
 15 19  1  0
 20 16  2  0
 16 21  1  0
 17 18  2  0
 22 20  1  0
 21 23  2  0
 24 22  2  0
 25 23  1  0
 23 24  1  0
  1 26  1  0
  1 27  1  0
  2 28  1  0
  3 29  1  0
  3 30  1  0
  3 31  1  0
  4 32  1  0
  4 33  1  0
  4 34  1  0
  5 35  1  0
  5 36  1  0
  6 37  1  0
  6 38  1  0
  7 39  1  0
 13 40  1  0
 17 41  1  0
 19 42  1  0
 19 43  1  0
 19 44  1  0
 20 45  1  0
 21 46  1  0
 22 47  1  0
 24 48  1  0
 25 49  1  0
 25 50  1  0
 25 51  1  0
M  CHG  1   2   1
M  END
>  <ScrubInfo>  (1) 
{"isomerGroup": 0, "isomerId": 0, "confId": 0, "nr_conformers:": 1, "nr_isomers:": 9}

$$$$
_i1
     RDKit          3D

 51 53  0  0  0  0  0  0  0  0999 V2000
   -0.7539   -0.0293   -0.1252 N   0  0  0  0  0  0  0  0  0  0  0  0
   -1.0486   -1.2019    0.5475 C   0  0  0  0  0  0  0  0  0  0  0  0
   -2.2220   -1.8996    0.3433 N   0  0  0  0  0  0  0  0  0  0  0  0
   -3.4975   -1.3910    0.0182 C   0  0  0  0  0  0  0  0  0  0  0  0
   -4.4192   -2.2516   -0.5937 C   0  0  0  0  0  0  0  0  0  0  0  0
   -5.6845   -1.7985   -0.9711 C   0  0  0  0  0  0  0  0  0  0  0  0
   -6.0455   -0.4721   -0.7479 C   0  0  0  0  0  0  0  0  0  0  0  0
   -5.1414    0.4121   -0.1528 C   0  0  0  0  0  0  0  0  0  0  0  0
   -5.5450    1.8291    0.1338 C   0  0  0  0  0  0  0  0  0  0  0  0
   -3.8766   -0.0587    0.2342 C   0  0  0  0  0  0  0  0  0  0  0  0
   -0.0829   -1.6311    1.3690 C   0  0  0  0  0  0  0  0  0  0  0  0
    0.1501   -2.7491    2.2874 C   0  0  0  0  0  0  0  0  0  0  0  0
    1.3128   -2.6808    2.8838 N   0  0  0  0  0  0  0  0  0  0  0  0
    1.9495   -1.5328    2.3752 N   0  0  0  0  0  0  0  0  0  0  0  0
    2.9444   -0.9122    3.2275 C   0  0  0  0  0  0  0  0  0  0  0  0
    1.1512   -0.8213    1.4910 C   0  0  0  0  0  0  0  0  0  0  0  0
    1.3960    0.2880    0.8699 N   0  0  0  0  0  0  0  0  0  0  0  0
    0.3636    0.7311    0.0664 C   0  0  0  0  0  0  0  0  0  0  0  0
    0.4965    1.8442   -0.5635 N   0  0  0  0  0  0  0  0  0  0  0  0
    1.6087    2.7520   -0.2912 C   0  0  0  0  0  0  0  0  0  0  0  0
    2.5881    2.7718   -1.4629 C   0  0  0  0  0  0  0  0  0  0  0  0
    3.7901    1.8441   -1.2942 C   0  0  0  0  0  0  0  0  0  0  0  0
    3.4154    0.3942   -1.1524 N   0  0  0  0  0  4  0  0  0  0  0  0
    2.7901   -0.1956   -2.3824 C   0  0  0  0  0  0  0  0  0  0  0  0
    4.5615   -0.4413   -0.6647 C   0  0  0  0  0  0  0  0  0  0  0  0
   -1.4649    0.3272   -0.7513 H   0  0  0  0  0  0  0  0  0  0  0  0
   -2.2803   -2.8277    0.7539 H   0  0  0  0  0  0  0  0  0  0  0  0
   -4.1573   -3.2879   -0.7933 H   0  0  0  0  0  0  0  0  0  0  0  0
   -6.3899   -2.4804   -1.4400 H   0  0  0  0  0  0  0  0  0  0  0  0
   -7.0386   -0.1337   -1.0375 H   0  0  0  0  0  0  0  0  0  0  0  0
   -6.2725    2.1854   -0.6030 H   0  0  0  0  0  0  0  0  0  0  0  0
   -4.6794    2.4981    0.0846 H   0  0  0  0  0  0  0  0  0  0  0  0
   -5.9894    1.8968    1.1315 H   0  0  0  0  0  0  0  0  0  0  0  0
   -3.2074    0.6267    0.7483 H   0  0  0  0  0  0  0  0  0  0  0  0
   -0.6062   -3.5294    2.4424 H   0  0  0  0  0  0  0  0  0  0  0  0
    3.5675   -0.2191    2.6535 H   0  0  0  0  0  0  0  0  0  0  0  0
    2.4617   -0.3581    4.0388 H   0  0  0  0  0  0  0  0  0  0  0  0
    3.6026   -1.6697    3.6649 H   0  0  0  0  0  0  0  0  0  0  0  0
    1.1712    3.7534   -0.1962 H   0  0  0  0  0  0  0  0  0  0  0  0
    2.1185    2.5679    0.6612 H   0  0  0  0  0  0  0  0  0  0  0  0
    2.9914    3.7899   -1.5426 H   0  0  0  0  0  0  0  0  0  0  0  0
    2.0726    2.5799   -2.4105 H   0  0  0  0  0  0  0  0  0  0  0  0
    4.3424    2.1224   -0.3891 H   0  0  0  0  0  0  0  0  0  0  0  0
    4.4688    1.9242   -2.1508 H   0  0  0  0  0  0  0  0  0  0  0  0
    2.7018    0.3537   -0.4002 H   0  0  0  0  0  0  0  0  0  0  0  0
    3.5122   -0.1387   -3.2012 H   0  0  0  0  0  0  0  0  0  0  0  0
    1.8817    0.3588   -2.6230 H   0  0  0  0  0  0  0  0  0  0  0  0
    2.5302   -1.2355   -2.1656 H   0  0  0  0  0  0  0  0  0  0  0  0
    4.1974   -1.4593   -0.5018 H   0  0  0  0  0  0  0  0  0  0  0  0
    5.3523   -0.4232   -1.4192 H   0  0  0  0  0  0  0  0  0  0  0  0
    4.9129   -0.0215    0.2816 H   0  0  0  0  0  0  0  0  0  0  0  0
  1  2  1  0
  2  3  1  0
  3  4  1  0
  4  5  2  0
  5  6  1  0
  6  7  2  0
  7  8  1  0
  8  9  1  0
  8 10  2  0
  2 11  2  0
 11 12  1  0
 12 13  2  0
 13 14  1  0
 14 15  1  0
 14 16  1  0
 16 17  2  0
 17 18  1  0
 18 19  2  3
 19 20  1  0
 20 21  1  0
 21 22  1  0
 22 23  1  0
 23 24  1  0
 23 25  1  0
 18  1  1  0
 10  4  1  0
 16 11  1  0
  1 26  1  0
  3 27  1  0
  5 28  1  0
  6 29  1  0
  7 30  1  0
  9 31  1  0
  9 32  1  0
  9 33  1  0
 10 34  1  0
 12 35  1  0
 15 36  1  0
 15 37  1  0
 15 38  1  0
 20 39  1  0
 20 40  1  0
 21 41  1  0
 21 42  1  0
 22 43  1  0
 22 44  1  0
 23 45  1  0
 24 46  1  0
 24 47  1  0
 24 48  1  0
 25 49  1  0
 25 50  1  0
 25 51  1  0
M  CHG  1  23   1
M  END
>  <ScrubInfo>  (2) 
{"isomerGroup": 0, "isomerId": 1, "confId": 0, "nr_conformers:": 1, "nr_isomers:": 9}

$$$$
_i2
     RDKit          3D

 51 53  0  0  0  0  0  0  0  0999 V2000
   -1.1399   -0.0006   -0.3286 N   0  0  0  0  0  0  0  0  0  0  0  0
    0.1801    0.3847   -0.4142 C   0  0  0  0  0  0  0  0  0  0  0  0
    0.4683    1.4697    0.3742 N   0  0  0  0  0  0  0  0  0  0  0  0
    1.7721    2.1116    0.3657 C   0  0  0  0  0  0  0  0  0  0  0  0
    2.5291    1.8005    1.6580 C   0  0  0  0  0  0  0  0  0  0  0  0
    2.8493    0.3215    1.8846 C   0  0  0  0  0  0  0  0  0  0  0  0
    4.2316   -0.1048    1.4316 N   0  0  0  0  0  4  0  0  0  0  0  0
    5.3606    0.5028    2.2132 C   0  0  0  0  0  0  0  0  0  0  0  0
    4.4534   -0.0389   -0.0492 C   0  0  0  0  0  0  0  0  0  0  0  0
    1.0885   -0.2436   -1.1224 N   0  0  0  0  0  0  0  0  0  0  0  0
    0.5471   -1.2959   -1.8042 C   0  0  0  0  0  0  0  0  0  0  0  0
   -0.7549   -1.7582   -1.7627 C   0  0  0  0  0  0  0  0  0  0  0  0
   -0.7859   -2.8723   -2.6115 C   0  0  0  0  0  0  0  0  0  0  0  0
    0.4069   -3.1060   -3.1731 N   0  0  0  0  0  0  0  0  0  0  0  0
    1.1852   -2.1045   -2.7058 N   0  0  0  0  0  0  0  0  0  0  0  0
    2.5405   -1.9921   -3.1803 C   0  0  0  0  0  0  0  0  0  0  0  0
   -1.7293   -1.0844   -0.9464 C   0  0  0  0  0  0  0  0  0  0  0  0
   -2.9316   -1.5478   -0.8972 N   0  0  0  0  0  0  0  0  0  0  0  0
   -3.8602   -0.8686   -0.0992 C   0  0  0  0  0  0  0  0  0  0  0  0
   -4.0758   -1.2682    1.2208 C   0  0  0  0  0  0  0  0  0  0  0  0
   -4.9914   -0.5859    2.0217 C   0  0  0  0  0  0  0  0  0  0  0  0
   -5.7010    0.4978    1.5023 C   0  0  0  0  0  0  0  0  0  0  0  0
   -5.5014    0.9075    0.1787 C   0  0  0  0  0  0  0  0  0  0  0  0
   -6.3128    2.0284   -0.4011 C   0  0  0  0  0  0  0  0  0  0  0  0
   -4.5892    0.2051   -0.6203 C   0  0  0  0  0  0  0  0  0  0  0  0
   -1.7410    0.4988    0.3076 H   0  0  0  0  0  0  0  0  0  0  0  0
   -0.2969    2.1334    0.4683 H   0  0  0  0  0  0  0  0  0  0  0  0
    1.6175    3.1957    0.3080 H   0  0  0  0  0  0  0  0  0  0  0  0
    2.3589    1.8441   -0.5177 H   0  0  0  0  0  0  0  0  0  0  0  0
    3.4318    2.4176    1.7000 H   0  0  0  0  0  0  0  0  0  0  0  0
    1.8987    2.1310    2.4948 H   0  0  0  0  0  0  0  0  0  0  0  0
    2.1380   -0.3605    1.4127 H   0  0  0  0  0  0  0  0  0  0  0  0
    2.8241    0.1073    2.9598 H   0  0  0  0  0  0  0  0  0  0  0  0
    4.2625   -1.1101    1.6520 H   0  0  0  0  0  0  0  0  0  0  0  0
    5.4613    1.5549    1.9382 H   0  0  0  0  0  0  0  0  0  0  0  0
    6.2732   -0.0456    1.9642 H   0  0  0  0  0  0  0  0  0  0  0  0
    5.1407    0.3915    3.2780 H   0  0  0  0  0  0  0  0  0  0  0  0
    5.4059   -0.5300   -0.2678 H   0  0  0  0  0  0  0  0  0  0  0  0
    3.6451   -0.5808   -0.5401 H   0  0  0  0  0  0  0  0  0  0  0  0
    4.4881    1.0081   -0.3567 H   0  0  0  0  0  0  0  0  0  0  0  0
   -1.6212   -3.5212   -2.8447 H   0  0  0  0  0  0  0  0  0  0  0  0
    2.8923   -0.9667   -3.0448 H   0  0  0  0  0  0  0  0  0  0  0  0
    3.1607   -2.6849   -2.6066 H   0  0  0  0  0  0  0  0  0  0  0  0
    2.5672   -2.2464   -4.2432 H   0  0  0  0  0  0  0  0  0  0  0  0
   -3.5418   -2.1265    1.6194 H   0  0  0  0  0  0  0  0  0  0  0  0
   -5.1693   -0.9115    3.0437 H   0  0  0  0  0  0  0  0  0  0  0  0
   -6.4293    1.0074    2.1309 H   0  0  0  0  0  0  0  0  0  0  0  0
   -5.7508    2.5541   -1.1802 H   0  0  0  0  0  0  0  0  0  0  0  0
   -7.2375    1.6357   -0.8350 H   0  0  0  0  0  0  0  0  0  0  0  0
   -6.5670    2.7648    0.3685 H   0  0  0  0  0  0  0  0  0  0  0  0
   -4.4504    0.4821   -1.6632 H   0  0  0  0  0  0  0  0  0  0  0  0
  1  2  1  0
  2  3  1  0
  3  4  1  0
  4  5  1  0
  5  6  1  0
  6  7  1  0
  7  8  1  0
  7  9  1  0
  2 10  2  0
 10 11  1  0
 11 12  2  0
 12 13  1  0
 13 14  2  0
 14 15  1  0
 15 16  1  0
 12 17  1  0
 17 18  2  3
 18 19  1  0
 19 20  2  0
 20 21  1  0
 21 22  2  0
 22 23  1  0
 23 24  1  0
 23 25  2  0
 17  1  1  0
 25 19  1  0
 15 11  1  0
  1 26  1  0
  3 27  1  0
  4 28  1  0
  4 29  1  0
  5 30  1  0
  5 31  1  0
  6 32  1  0
  6 33  1  0
  7 34  1  0
  8 35  1  0
  8 36  1  0
  8 37  1  0
  9 38  1  0
  9 39  1  0
  9 40  1  0
 13 41  1  0
 16 42  1  0
 16 43  1  0
 16 44  1  0
 20 45  1  0
 21 46  1  0
 22 47  1  0
 24 48  1  0
 24 49  1  0
 24 50  1  0
 25 51  1  0
M  CHG  1   7   1
M  END
>  <ScrubInfo>  (3) 
{"isomerGroup": 0, "isomerId": 2, "confId": 0, "nr_conformers:": 1, "nr_isomers:": 9}

$$$$
_i3
     RDKit          3D

 51 53  0  0  0  0  0  0  0  0999 V2000
    0.4380    2.6350   -0.7378 N   0  0  0  0  0  0  0  0  0  0  0  0
    0.4871    1.3161   -0.3271 C   0  0  0  0  0  0  0  0  0  0  0  0
    1.5444    0.5977   -0.1819 N   0  0  0  0  0  0  0  0  0  0  0  0
    2.8555    1.1463   -0.4634 C   0  0  0  0  0  0  0  0  0  0  0  0
    3.8838    0.0934   -0.0433 C   0  0  0  0  0  0  0  0  0  0  0  0
    3.6575   -1.2231   -0.7857 C   0  0  0  0  0  0  0  0  0  0  0  0
    4.5728   -2.3351   -0.3075 N   0  0  0  0  0  4  0  0  0  0  0  0
    6.0320   -2.0751   -0.5258 C   0  0  0  0  0  0  0  0  0  0  0  0
    4.2696   -2.7942    1.0922 C   0  0  0  0  0  0  0  0  0  0  0  0
   -0.6629    0.6100   -0.0286 N   0  0  0  0  0  0  0  0  0  0  0  0
   -1.8348    1.1703   -0.1191 C   0  0  0  0  0  0  0  0  0  0  0  0
   -3.0636    0.6098    0.1310 N   0  0  0  0  0  0  0  0  0  0  0  0
   -3.3747   -0.6693    0.6345 C   0  0  0  0  0  0  0  0  0  0  0  0
   -2.4242   -1.5836    1.0973 C   0  0  0  0  0  0  0  0  0  0  0  0
   -2.8044   -2.8411    1.5775 C   0  0  0  0  0  0  0  0  0  0  0  0
   -4.1461   -3.2124    1.5922 C   0  0  0  0  0  0  0  0  0  0  0  0
   -5.1191   -2.3326    1.1158 C   0  0  0  0  0  0  0  0  0  0  0  0
   -6.5709   -2.7097    1.1551 C   0  0  0  0  0  0  0  0  0  0  0  0
   -4.7252   -1.0673    0.6523 C   0  0  0  0  0  0  0  0  0  0  0  0
   -1.9249    2.5565   -0.5427 C   0  0  0  0  0  0  0  0  0  0  0  0
   -2.9305    3.5131   -0.7615 C   0  0  0  0  0  0  0  0  0  0  0  0
   -2.4354    4.6919   -1.1639 N   0  0  0  0  0  0  0  0  0  0  0  0
   -1.0975    4.4922   -1.1975 N   0  0  0  0  0  0  0  0  0  0  0  0
   -0.2400    5.5817   -1.5905 C   0  0  0  0  0  0  0  0  0  0  0  0
   -0.7658    3.2250   -0.8333 C   0  0  0  0  0  0  0  0  0  0  0  0
    1.3064    3.1098   -0.9301 H   0  0  0  0  0  0  0  0  0  0  0  0
    2.9638    1.3674   -1.5314 H   0  0  0  0  0  0  0  0  0  0  0  0
    3.0360    2.0641    0.1078 H   0  0  0  0  0  0  0  0  0  0  0  0
    4.8876    0.4818   -0.2474 H   0  0  0  0  0  0  0  0  0  0  0  0
    3.8062   -0.0583    1.0389 H   0  0  0  0  0  0  0  0  0  0  0  0
    2.6386   -1.6059   -0.6663 H   0  0  0  0  0  0  0  0  0  0  0  0
    3.8473   -1.1045   -1.8587 H   0  0  0  0  0  0  0  0  0  0  0  0
    4.3350   -3.1349   -0.9091 H   0  0  0  0  0  0  0  0  0  0  0  0
    6.3627   -1.2953    0.1644 H   0  0  0  0  0  0  0  0  0  0  0  0
    6.1731   -1.7684   -1.5654 H   0  0  0  0  0  0  0  0  0  0  0  0
    6.5709   -3.0074   -0.3366 H   0  0  0  0  0  0  0  0  0  0  0  0
    4.5935   -2.0266    1.7986 H   0  0  0  0  0  0  0  0  0  0  0  0
    3.1948   -2.9773    1.1696 H   0  0  0  0  0  0  0  0  0  0  0  0
    4.8176   -3.7248    1.2628 H   0  0  0  0  0  0  0  0  0  0  0  0
   -3.8845    1.1725   -0.0417 H   0  0  0  0  0  0  0  0  0  0  0  0
   -1.3679   -1.3362    1.1136 H   0  0  0  0  0  0  0  0  0  0  0  0
   -2.0489   -3.5294    1.9464 H   0  0  0  0  0  0  0  0  0  0  0  0
   -4.4272   -4.1904    1.9764 H   0  0  0  0  0  0  0  0  0  0  0  0
   -7.0171   -2.3814    2.0988 H   0  0  0  0  0  0  0  0  0  0  0  0
   -7.1160   -2.2482    0.3250 H   0  0  0  0  0  0  0  0  0  0  0  0
   -6.6967   -3.7936    1.0627 H   0  0  0  0  0  0  0  0  0  0  0  0
   -5.4950   -0.3850    0.2967 H   0  0  0  0  0  0  0  0  0  0  0  0
   -4.0031    3.4223   -0.6505 H   0  0  0  0  0  0  0  0  0  0  0  0
   -0.3827    6.4040   -0.8848 H   0  0  0  0  0  0  0  0  0  0  0  0
   -0.5179    5.8917   -2.6011 H   0  0  0  0  0  0  0  0  0  0  0  0
    0.8028    5.2585   -1.5766 H   0  0  0  0  0  0  0  0  0  0  0  0
  1  2  1  0
  2  3  2  3
  3  4  1  0
  4  5  1  0
  5  6  1  0
  6  7  1  0
  7  8  1  0
  7  9  1  0
  2 10  1  0
 10 11  2  0
 11 12  1  0
 12 13  1  0
 13 14  2  0
 14 15  1  0
 15 16  2  0
 16 17  1  0
 17 18  1  0
 17 19  2  0
 11 20  1  0
 20 21  1  0
 21 22  2  0
 22 23  1  0
 23 24  1  0
 23 25  1  0
 25  1  1  0
 19 13  1  0
 25 20  2  0
  1 26  1  0
  4 27  1  0
  4 28  1  0
  5 29  1  0
  5 30  1  0
  6 31  1  0
  6 32  1  0
  7 33  1  0
  8 34  1  0
  8 35  1  0
  8 36  1  0
  9 37  1  0
  9 38  1  0
  9 39  1  0
 12 40  1  0
 14 41  1  0
 15 42  1  0
 16 43  1  0
 18 44  1  0
 18 45  1  0
 18 46  1  0
 19 47  1  0
 21 48  1  0
 24 49  1  0
 24 50  1  0
 24 51  1  0
M  CHG  1   7   1
M  END
>  <ScrubInfo>  (4) 
{"isomerGroup": 0, "isomerId": 3, "confId": 0, "nr_conformers:": 1, "nr_isomers:": 9}

$$$$
_i4
     RDKit          3D

 51 53  0  0  0  0  0  0  0  0999 V2000
    0.0581   -1.1199   -2.6866 N   0  0  0  0  0  0  0  0  0  0  0  0
    0.6781   -0.0485   -2.0929 C   0  0  0  0  0  0  0  0  0  0  0  0
    1.7273    0.4510   -2.8209 N   0  0  0  0  0  0  0  0  0  0  0  0
    2.2902    1.7682   -2.5361 C   0  0  0  0  0  0  0  0  0  0  0  0
    3.3701    1.7335   -1.4470 C   0  0  0  0  0  0  0  0  0  0  0  0
    2.8039    1.4964   -0.0486 C   0  0  0  0  0  0  0  0  0  0  0  0
    3.8147    1.8429    1.0350 N   0  0  0  0  0  4  0  0  0  0  0  0
    3.1287    1.8643    2.3811 C   0  0  0  0  0  0  0  0  0  0  0  0
    5.0080    0.9326    1.0539 C   0  0  0  0  0  0  0  0  0  0  0  0
    0.3455    0.4563   -0.9400 N   0  0  0  0  0  0  0  0  0  0  0  0
   -0.6823   -0.1031   -0.1946 C   0  0  0  0  0  0  0  0  0  0  0  0
   -0.8238    0.3991    0.9908 N   0  0  0  0  0  0  0  0  0  0  0  0
   -1.7998   -0.0673    1.8732 C   0  0  0  0  0  0  0  0  0  0  0  0
   -1.5229   -1.1272    2.7403 C   0  0  0  0  0  0  0  0  0  0  0  0
   -2.4904   -1.5691    3.6427 C   0  0  0  0  0  0  0  0  0  0  0  0
   -3.7369   -0.9440    3.6908 C   0  0  0  0  0  0  0  0  0  0  0  0
   -4.0269    0.1262    2.8365 C   0  0  0  0  0  0  0  0  0  0  0  0
   -5.3506    0.8277    2.9187 C   0  0  0  0  0  0  0  0  0  0  0  0
   -3.0419    0.5712    1.9445 C   0  0  0  0  0  0  0  0  0  0  0  0
   -1.4167   -1.1861   -0.8164 C   0  0  0  0  0  0  0  0  0  0  0  0
   -2.5242   -1.9983   -0.5183 C   0  0  0  0  0  0  0  0  0  0  0  0
   -2.7695   -2.9072   -1.4742 N   0  0  0  0  0  0  0  0  0  0  0  0
   -1.8177   -2.6716   -2.4031 N   0  0  0  0  0  0  0  0  0  0  0  0
   -1.7962   -3.4774   -3.5979 C   0  0  0  0  0  0  0  0  0  0  0  0
   -0.9967   -1.6507   -2.0393 C   0  0  0  0  0  0  0  0  0  0  0  0
    0.4356   -1.5037   -3.5424 H   0  0  0  0  0  0  0  0  0  0  0  0
    1.6270    0.2975   -3.8202 H   0  0  0  0  0  0  0  0  0  0  0  0
    1.5013    2.4899   -2.2923 H   0  0  0  0  0  0  0  0  0  0  0  0
    2.7607    2.1293   -3.4587 H   0  0  0  0  0  0  0  0  0  0  0  0
    4.1078    0.9600   -1.6905 H   0  0  0  0  0  0  0  0  0  0  0  0
    3.8954    2.6965   -1.4642 H   0  0  0  0  0  0  0  0  0  0  0  0
    2.5389    0.4482    0.1139 H   0  0  0  0  0  0  0  0  0  0  0  0
    1.9445    2.1514    0.1273 H   0  0  0  0  0  0  0  0  0  0  0  0
    4.1450    2.8000    0.8618 H   0  0  0  0  0  0  0  0  0  0  0  0
    2.7400    0.8641    2.5911 H   0  0  0  0  0  0  0  0  0  0  0  0
    3.8657    2.1648    3.1305 H   0  0  0  0  0  0  0  0  0  0  0  0
    2.3223    2.6014    2.3411 H   0  0  0  0  0  0  0  0  0  0  0  0
    5.5468    1.0479    0.1111 H   0  0  0  0  0  0  0  0  0  0  0  0
    5.6558    1.2388    1.8799 H   0  0  0  0  0  0  0  0  0  0  0  0
    4.6641   -0.0962    1.1898 H   0  0  0  0  0  0  0  0  0  0  0  0
   -0.5527   -1.6138    2.7120 H   0  0  0  0  0  0  0  0  0  0  0  0
   -2.2744   -2.3981    4.3121 H   0  0  0  0  0  0  0  0  0  0  0  0
   -4.4812   -1.2944    4.4038 H   0  0  0  0  0  0  0  0  0  0  0  0
   -5.6367    1.2363    1.9438 H   0  0  0  0  0  0  0  0  0  0  0  0
   -6.1415    0.1348    3.2248 H   0  0  0  0  0  0  0  0  0  0  0  0
   -5.2961    1.6456    3.6436 H   0  0  0  0  0  0  0  0  0  0  0  0
   -3.2404    1.4199    1.2940 H   0  0  0  0  0  0  0  0  0  0  0  0
   -3.1738   -1.9877    0.3471 H   0  0  0  0  0  0  0  0  0  0  0  0
   -2.7724   -3.4015   -4.0838 H   0  0  0  0  0  0  0  0  0  0  0  0
   -1.0190   -3.1185   -4.2755 H   0  0  0  0  0  0  0  0  0  0  0  0
   -1.5909   -4.5116   -3.3105 H   0  0  0  0  0  0  0  0  0  0  0  0
  1  2  1  0
  2  3  1  0
  3  4  1  0
  4  5  1  0
  5  6  1  0
  6  7  1  0
  7  8  1  0
  7  9  1  0
  2 10  2  0
 10 11  1  0
 11 12  2  3
 12 13  1  0
 13 14  2  0
 14 15  1  0
 15 16  2  0
 16 17  1  0
 17 18  1  0
 17 19  2  0
 11 20  1  0
 20 21  1  0
 21 22  2  0
 22 23  1  0
 23 24  1  0
 23 25  1  0
 25  1  1  0
 19 13  1  0
 25 20  2  0
  1 26  1  0
  3 27  1  0
  4 28  1  0
  4 29  1  0
  5 30  1  0
  5 31  1  0
  6 32  1  0
  6 33  1  0
  7 34  1  0
  8 35  1  0
  8 36  1  0
  8 37  1  0
  9 38  1  0
  9 39  1  0
  9 40  1  0
 14 41  1  0
 15 42  1  0
 16 43  1  0
 18 44  1  0
 18 45  1  0
 18 46  1  0
 19 47  1  0
 21 48  1  0
 24 49  1  0
 24 50  1  0
 24 51  1  0
M  CHG  1   7   1
M  END
>  <ScrubInfo>  (5) 
{"isomerGroup": 0, "isomerId": 4, "confId": 0, "nr_conformers:": 1, "nr_isomers:": 9}

$$$$
_i5
     RDKit          3D

 51 53  0  0  0  0  0  0  0  0999 V2000
   -4.0588   -3.2952    0.0323 N   0  0  0  0  0  0  0  0  0  0  0  0
   -3.7567   -1.9677   -0.2439 C   0  0  0  0  0  0  0  0  0  0  0  0
   -2.4417   -1.7186   -0.1914 C   0  0  0  0  0  0  0  0  0  0  0  0
   -1.5614   -0.5975   -0.4306 C   0  0  0  0  0  0  0  0  0  0  0  0
   -2.0167    0.5577   -0.7928 N   0  0  0  0  0  0  0  0  0  0  0  0
   -1.1790    1.6323   -1.1117 C   0  0  0  0  0  0  0  0  0  0  0  0
   -0.1812    1.5465   -2.0880 C   0  0  0  0  0  0  0  0  0  0  0  0
    0.5743    2.6685   -2.4340 C   0  0  0  0  0  0  0  0  0  0  0  0
    0.3247    3.8950   -1.8181 C   0  0  0  0  0  0  0  0  0  0  0  0
   -0.6803    4.0081   -0.8510 C   0  0  0  0  0  0  0  0  0  0  0  0
   -1.0103    5.3421   -0.2481 C   0  0  0  0  0  0  0  0  0  0  0  0
   -1.4354    2.8733   -0.5187 C   0  0  0  0  0  0  0  0  0  0  0  0
   -0.2229   -0.8652   -0.2447 N   0  0  0  0  0  0  0  0  0  0  0  0
    0.1931   -2.0705    0.0252 C   0  0  0  0  0  0  0  0  0  0  0  0
    1.5319   -2.3104    0.1414 N   0  0  0  0  0  0  0  0  0  0  0  0
    2.5394   -1.6083   -0.6309 C   0  0  0  0  0  0  0  0  0  0  0  0
    3.4844   -0.8511    0.2993 C   0  0  0  0  0  0  0  0  0  0  0  0
    3.0031    0.5404    0.7102 C   0  0  0  0  0  0  0  0  0  0  0  0
    1.7045    0.5554    1.4665 N   0  0  0  0  0  4  0  0  0  0  0  0
    1.2130    1.9588    1.6833 C   0  0  0  0  0  0  0  0  0  0  0  0
    1.7145   -0.2050    2.7593 C   0  0  0  0  0  0  0  0  0  0  0  0
   -0.5886   -3.1595    0.2765 N   0  0  0  0  0  0  0  0  0  0  0  0
   -1.8658   -3.0103    0.2000 C   0  0  0  0  0  0  0  0  0  0  0  0
   -2.8873   -3.9302    0.4314 N   0  0  0  0  0  0  0  0  0  0  0  0
   -2.7185   -5.3398    0.1283 C   0  0  0  0  0  0  0  0  0  0  0  0
   -4.8833   -3.4243    0.6248 H   0  0  0  0  0  0  0  0  0  0  0  0
   -4.5529   -1.2747   -0.4792 H   0  0  0  0  0  0  0  0  0  0  0  0
   -0.0170    0.6095   -2.6137 H   0  0  0  0  0  0  0  0  0  0  0  0
    1.3277    2.5969   -3.2150 H   0  0  0  0  0  0  0  0  0  0  0  0
    0.8939    4.7713   -2.1244 H   0  0  0  0  0  0  0  0  0  0  0  0
   -0.1183    5.9746   -0.1889 H   0  0  0  0  0  0  0  0  0  0  0  0
   -1.3928    5.2245    0.7712 H   0  0  0  0  0  0  0  0  0  0  0  0
   -1.7660    5.8507   -0.8544 H   0  0  0  0  0  0  0  0  0  0  0  0
   -2.2592    2.9558    0.1879 H   0  0  0  0  0  0  0  0  0  0  0  0
    1.6962   -3.3140    0.2103 H   0  0  0  0  0  0  0  0  0  0  0  0
    3.1172   -2.3585   -1.1836 H   0  0  0  0  0  0  0  0  0  0  0  0
    2.1035   -0.9391   -1.3814 H   0  0  0  0  0  0  0  0  0  0  0  0
    3.7292   -1.4535    1.1818 H   0  0  0  0  0  0  0  0  0  0  0  0
    4.4317   -0.7084   -0.2371 H   0  0  0  0  0  0  0  0  0  0  0  0
    2.8573    1.1547   -0.1860 H   0  0  0  0  0  0  0  0  0  0  0  0
    3.7511    1.0287    1.3453 H   0  0  0  0  0  0  0  0  0  0  0  0
    0.9960    0.1050    0.8521 H   0  0  0  0  0  0  0  0  0  0  0  0
    0.1837    1.9065    2.0468 H   0  0  0  0  0  0  0  0  0  0  0  0
    1.8628    2.4448    2.4166 H   0  0  0  0  0  0  0  0  0  0  0  0
    1.2572    2.4890    0.7324 H   0  0  0  0  0  0  0  0  0  0  0  0
    0.7165   -0.1363    3.2012 H   0  0  0  0  0  0  0  0  0  0  0  0
    1.9500   -1.2515    2.5639 H   0  0  0  0  0  0  0  0  0  0  0  0
    2.4628    0.2422    3.4192 H   0  0  0  0  0  0  0  0  0  0  0  0
   -3.5907   -5.9088    0.4659 H   0  0  0  0  0  0  0  0  0  0  0  0
   -1.8384   -5.7401    0.6415 H   0  0  0  0  0  0  0  0  0  0  0  0
   -2.5967   -5.4940   -0.9489 H   0  0  0  0  0  0  0  0  0  0  0  0
  1  2  1  0
  2  3  2  0
  3  4  1  0
  4  5  2  3
  5  6  1  0
  6  7  2  0
  7  8  1  0
  8  9  2  0
  9 10  1  0
 10 11  1  0
 10 12  2  0
  4 13  1  0
 13 14  2  0
 14 15  1  0
 15 16  1  0
 16 17  1  0
 17 18  1  0
 18 19  1  0
 19 20  1  0
 19 21  1  0
 14 22  1  0
 22 23  2  0
 23 24  1  0
 24 25  1  0
 24  1  1  0
 23  3  1  0
 12  6  1  0
  1 26  1  0
  2 27  1  0
  7 28  1  0
  8 29  1  0
  9 30  1  0
 11 31  1  0
 11 32  1  0
 11 33  1  0
 12 34  1  0
 15 35  1  0
 16 36  1  0
 16 37  1  0
 17 38  1  0
 17 39  1  0
 18 40  1  0
 18 41  1  0
 19 42  1  0
 20 43  1  0
 20 44  1  0
 20 45  1  0
 21 46  1  0
 21 47  1  0
 21 48  1  0
 25 49  1  0
 25 50  1  0
 25 51  1  0
M  CHG  1  19   1
M  END
>  <ScrubInfo>  (6) 
{"isomerGroup": 0, "isomerId": 5, "confId": 0, "nr_conformers:": 1, "nr_isomers:": 9}

$$$$
_i6
     RDKit          3D

 51 53  0  0  0  0  0  0  0  0999 V2000
    1.2598    1.3536    2.5521 N   0  0  0  0  0  0  0  0  0  0  0  0
    2.0797    0.6366    1.6900 C   0  0  0  0  0  0  0  0  0  0  0  0
    1.4170    0.1368    0.6394 C   0  0  0  0  0  0  0  0  0  0  0  0
    1.6881   -0.7026   -0.5244 C   0  0  0  0  0  0  0  0  0  0  0  0
    2.9306   -1.2118   -0.8317 N   0  0  0  0  0  0  0  0  0  0  0  0
    4.1195   -0.4462   -0.8607 C   0  0  0  0  0  0  0  0  0  0  0  0
    4.1337    0.9225   -1.1534 C   0  0  0  0  0  0  0  0  0  0  0  0
    5.3400    1.6229   -1.2126 C   0  0  0  0  0  0  0  0  0  0  0  0
    6.5472    0.9576   -1.0046 C   0  0  0  0  0  0  0  0  0  0  0  0
    6.5603   -0.4183   -0.7575 C   0  0  0  0  0  0  0  0  0  0  0  0
    7.8561   -1.1358   -0.5173 C   0  0  0  0  0  0  0  0  0  0  0  0
    5.3424   -1.1092   -0.6862 C   0  0  0  0  0  0  0  0  0  0  0  0
    0.6815   -1.0256   -1.2881 N   0  0  0  0  0  0  0  0  0  0  0  0
   -0.5680   -0.5306   -1.0020 C   0  0  0  0  0  0  0  0  0  0  0  0
   -1.4600   -0.8876   -1.8550 N   0  0  0  0  0  0  0  0  0  0  0  0
   -2.8308   -0.4291   -1.7335 C   0  0  0  0  0  0  0  0  0  0  0  0
   -3.6480   -1.4971   -1.0141 C   0  0  0  0  0  0  0  0  0  0  0  0
   -5.1416   -1.1993   -0.9879 C   0  0  0  0  0  0  0  0  0  0  0  0
   -5.4851    0.0733   -0.2396 N   0  0  0  0  0  4  0  0  0  0  0  0
   -5.1219    0.0291    1.2192 C   0  0  0  0  0  0  0  0  0  0  0  0
   -6.9357    0.4333   -0.4270 C   0  0  0  0  0  0  0  0  0  0  0  0
   -0.9300    0.2709    0.0622 N   0  0  0  0  0  0  0  0  0  0  0  0
    0.0342    0.6212    0.8468 C   0  0  0  0  0  0  0  0  0  0  0  0
   -0.0017    1.4466    1.9734 N   0  0  0  0  0  0  0  0  0  0  0  0
   -1.1559    1.4963    2.8468 C   0  0  0  0  0  0  0  0  0  0  0  0
    1.6825    2.2249    2.8845 H   0  0  0  0  0  0  0  0  0  0  0  0
    3.1323    0.5375    1.9190 H   0  0  0  0  0  0  0  0  0  0  0  0
    2.8850   -1.7914   -1.6685 H   0  0  0  0  0  0  0  0  0  0  0  0
    3.2122    1.4615   -1.3558 H   0  0  0  0  0  0  0  0  0  0  0  0
    5.3409    2.6877   -1.4331 H   0  0  0  0  0  0  0  0  0  0  0  0
    7.4797    1.5168   -1.0513 H   0  0  0  0  0  0  0  0  0  0  0  0
    7.7967   -2.1738   -0.8611 H   0  0  0  0  0  0  0  0  0  0  0  0
    8.6749   -0.6588   -1.0660 H   0  0  0  0  0  0  0  0  0  0  0  0
    8.0947   -1.1292    0.5507 H   0  0  0  0  0  0  0  0  0  0  0  0
    5.3458   -2.1781   -0.4791 H   0  0  0  0  0  0  0  0  0  0  0  0
   -2.9119    0.5462   -1.2424 H   0  0  0  0  0  0  0  0  0  0  0  0
   -3.2284   -0.2854   -2.7451 H   0  0  0  0  0  0  0  0  0  0  0  0
   -3.5065   -2.4558   -1.5308 H   0  0  0  0  0  0  0  0  0  0  0  0
   -3.2617   -1.6537   -0.0008 H   0  0  0  0  0  0  0  0  0  0  0  0
   -5.5179   -1.0791   -2.0102 H   0  0  0  0  0  0  0  0  0  0  0  0
   -5.6921   -2.0152   -0.5061 H   0  0  0  0  0  0  0  0  0  0  0  0
   -4.9459    0.8415   -0.6592 H   0  0  0  0  0  0  0  0  0  0  0  0
   -5.4586    0.9608    1.6823 H   0  0  0  0  0  0  0  0  0  0  0  0
   -4.0357   -0.0398    1.3066 H   0  0  0  0  0  0  0  0  0  0  0  0
   -5.6144   -0.8327    1.6768 H   0  0  0  0  0  0  0  0  0  0  0  0
   -7.1149    1.3915    0.0680 H   0  0  0  0  0  0  0  0  0  0  0  0
   -7.5506   -0.3569    0.0121 H   0  0  0  0  0  0  0  0  0  0  0  0
   -7.1264    0.5308   -1.4990 H   0  0  0  0  0  0  0  0  0  0  0  0
   -2.0584    1.7402    2.2771 H   0  0  0  0  0  0  0  0  0  0  0  0
   -1.3083    0.5339    3.3465 H   0  0  0  0  0  0  0  0  0  0  0  0
   -1.0246    2.2691    3.6111 H   0  0  0  0  0  0  0  0  0  0  0  0
  1  2  1  0
  2  3  2  0
  3  4  1  0
  4  5  1  0
  5  6  1  0
  6  7  2  0
  7  8  1  0
  8  9  2  0
  9 10  1  0
 10 11  1  0
 10 12  2  0
  4 13  2  0
 13 14  1  0
 14 15  2  3
 15 16  1  0
 16 17  1  0
 17 18  1  0
 18 19  1  0
 19 20  1  0
 19 21  1  0
 14 22  1  0
 22 23  2  0
 23 24  1  0
 24 25  1  0
 24  1  1  0
 23  3  1  0
 12  6  1  0
  1 26  1  0
  2 27  1  0
  5 28  1  0
  7 29  1  0
  8 30  1  0
  9 31  1  0
 11 32  1  0
 11 33  1  0
 11 34  1  0
 12 35  1  0
 16 36  1  0
 16 37  1  0
 17 38  1  0
 17 39  1  0
 18 40  1  0
 18 41  1  0
 19 42  1  0
 20 43  1  0
 20 44  1  0
 20 45  1  0
 21 46  1  0
 21 47  1  0
 21 48  1  0
 25 49  1  0
 25 50  1  0
 25 51  1  0
M  CHG  1  19   1
M  END
>  <ScrubInfo>  (7) 
{"isomerGroup": 0, "isomerId": 6, "confId": 0, "nr_conformers:": 1, "nr_isomers:": 9}

$$$$
_i7
     RDKit          3D

 51 53  0  0  0  0  0  0  0  0999 V2000
    2.0459   -4.2638   -2.5004 N   0  0  0  0  0  0  0  0  0  0  0  0
    2.8984   -3.3918   -1.8345 C   0  0  0  0  0  0  0  0  0  0  0  0
    2.2440   -2.4183   -1.1914 C   0  0  0  0  0  0  0  0  0  0  0  0
    2.5694   -1.2389   -0.3876 C   0  0  0  0  0  0  0  0  0  0  0  0
    3.8114   -0.9693   -0.1208 N   0  0  0  0  0  0  0  0  0  0  0  0
    4.1014    0.1653    0.6475 C   0  0  0  0  0  0  0  0  0  0  0  0
    4.1896    0.0706    2.0374 C   0  0  0  0  0  0  0  0  0  0  0  0
    4.4775    1.2004    2.8029 C   0  0  0  0  0  0  0  0  0  0  0  0
    4.6848    2.4315    2.1792 C   0  0  0  0  0  0  0  0  0  0  0  0
    4.6042    2.5428    0.7860 C   0  0  0  0  0  0  0  0  0  0  0  0
    4.8873    3.8515    0.1096 C   0  0  0  0  0  0  0  0  0  0  0  0
    4.3279    1.3975    0.0270 C   0  0  0  0  0  0  0  0  0  0  0  0
    1.4469   -0.5436   -0.0120 N   0  0  0  0  0  0  0  0  0  0  0  0
    0.1503   -0.8660   -0.3087 C   0  0  0  0  0  0  0  0  0  0  0  0
   -0.7938   -0.0865    0.1165 N   0  0  0  0  0  0  0  0  0  0  0  0
   -2.1635   -0.4694   -0.2120 C   0  0  0  0  0  0  0  0  0  0  0  0
   -3.0915    0.5729    0.4110 C   0  0  0  0  0  0  0  0  0  0  0  0
   -4.5450    0.2342    0.1158 C   0  0  0  0  0  0  0  0  0  0  0  0
   -5.5160    1.2328    0.7146 N   0  0  0  0  0  4  0  0  0  0  0  0
   -5.5191    1.2531    2.2178 C   0  0  0  0  0  0  0  0  0  0  0  0
   -5.4079    2.6135    0.1300 C   0  0  0  0  0  0  0  0  0  0  0  0
   -0.1771   -1.9938   -1.0371 N   0  0  0  0  0  0  0  0  0  0  0  0
    0.8040   -2.7418   -1.4430 C   0  0  0  0  0  0  0  0  0  0  0  0
    0.7338   -3.9359   -2.1666 N   0  0  0  0  0  0  0  0  0  0  0  0
   -0.3099   -4.1642   -3.1470 C   0  0  0  0  0  0  0  0  0  0  0  0
    2.3119   -5.2471   -2.4025 H   0  0  0  0  0  0  0  0  0  0  0  0
    3.9678   -3.5472   -1.8774 H   0  0  0  0  0  0  0  0  0  0  0  0
    4.0478   -0.8912    2.5227 H   0  0  0  0  0  0  0  0  0  0  0  0
    4.5584    1.1182    3.8839 H   0  0  0  0  0  0  0  0  0  0  0  0
    4.9281    3.3011    2.7866 H   0  0  0  0  0  0  0  0  0  0  0  0
    5.9556    3.9347   -0.1126 H   0  0  0  0  0  0  0  0  0  0  0  0
    4.5912    4.6920    0.7461 H   0  0  0  0  0  0  0  0  0  0  0  0
    4.3229    3.9376   -0.8249 H   0  0  0  0  0  0  0  0  0  0  0  0
    4.2975    1.4550   -1.0586 H   0  0  0  0  0  0  0  0  0  0  0  0
    1.5682    0.2961    0.5345 H   0  0  0  0  0  0  0  0  0  0  0  0
   -2.4027   -1.4578    0.1993 H   0  0  0  0  0  0  0  0  0  0  0  0
   -2.3133   -0.4859   -1.2985 H   0  0  0  0  0  0  0  0  0  0  0  0
   -2.9126    0.6080    1.4918 H   0  0  0  0  0  0  0  0  0  0  0  0
   -2.8343    1.5615    0.0140 H   0  0  0  0  0  0  0  0  0  0  0  0
   -4.7406    0.2189   -0.9623 H   0  0  0  0  0  0  0  0  0  0  0  0
   -4.8177   -0.7462    0.5226 H   0  0  0  0  0  0  0  0  0  0  0  0
   -6.4472    0.8909    0.4425 H   0  0  0  0  0  0  0  0  0  0  0  0
   -4.5936    1.7136    2.5713 H   0  0  0  0  0  0  0  0  0  0  0  0
   -5.6113    0.2238    2.5737 H   0  0  0  0  0  0  0  0  0  0  0  0
   -6.3847    1.8374    2.5416 H   0  0  0  0  0  0  0  0  0  0  0  0
   -4.4819    3.0776    0.4775 H   0  0  0  0  0  0  0  0  0  0  0  0
   -5.4234    2.5260   -0.9593 H   0  0  0  0  0  0  0  0  0  0  0  0
   -6.2742    3.1880    0.4693 H   0  0  0  0  0  0  0  0  0  0  0  0
   -1.2983   -4.0336   -2.6947 H   0  0  0  0  0  0  0  0  0  0  0  0
   -0.2141   -3.4678   -3.9865 H   0  0  0  0  0  0  0  0  0  0  0  0
   -0.2525   -5.1867   -3.5342 H   0  0  0  0  0  0  0  0  0  0  0  0
  1  2  1  0
  2  3  2  0
  3  4  1  0
  4  5  2  3
  5  6  1  0
  6  7  2  0
  7  8  1  0
  8  9  2  0
  9 10  1  0
 10 11  1  0
 10 12  2  0
  4 13  1  0
 13 14  1  0
 14 15  2  3
 15 16  1  0
 16 17  1  0
 17 18  1  0
 18 19  1  0
 19 20  1  0
 19 21  1  0
 14 22  1  0
 22 23  2  0
 23 24  1  0
 24 25  1  0
 24  1  1  0
 23  3  1  0
 12  6  1  0
  1 26  1  0
  2 27  1  0
  7 28  1  0
  8 29  1  0
  9 30  1  0
 11 31  1  0
 11 32  1  0
 11 33  1  0
 12 34  1  0
 13 35  1  0
 16 36  1  0
 16 37  1  0
 17 38  1  0
 17 39  1  0
 18 40  1  0
 18 41  1  0
 19 42  1  0
 20 43  1  0
 20 44  1  0
 20 45  1  0
 21 46  1  0
 21 47  1  0
 21 48  1  0
 25 49  1  0
 25 50  1  0
 25 51  1  0
M  CHG  1  19   1
M  END
>  <ScrubInfo>  (8) 
{"isomerGroup": 0, "isomerId": 7, "confId": 0, "nr_conformers:": 1, "nr_isomers:": 9}

$$$$
_i8
     RDKit          3D

 51 53  0  0  0  0  0  0  0  0999 V2000
   -0.3114   -1.5391   -0.7820 N   0  0  0  0  0  0  0  0  0  0  0  0
   -0.7315   -0.3168   -0.2837 C   0  0  0  0  0  0  0  0  0  0  0  0
   -1.9415    0.1301   -0.1861 N   0  0  0  0  0  0  0  0  0  0  0  0
   -3.0352   -0.7115   -0.6498 C   0  0  0  0  0  0  0  0  0  0  0  0
   -4.3258    0.1055   -0.5694 C   0  0  0  0  0  0  0  0  0  0  0  0
   -4.6248    0.5387    0.8639 C   0  0  0  0  0  0  0  0  0  0  0  0
   -5.8196    1.4772    0.9077 N   0  0  0  0  0  4  0  0  0  0  0  0
   -7.1291    0.8097    0.5961 C   0  0  0  0  0  0  0  0  0  0  0  0
   -5.8842    2.2074    2.2243 C   0  0  0  0  0  0  0  0  0  0  0  0
    0.3035    0.4791    0.1535 N   0  0  0  0  0  0  0  0  0  0  0  0
    1.6677    0.2821    0.1823 C   0  0  0  0  0  0  0  0  0  0  0  0
    2.4572    1.1994    0.6527 N   0  0  0  0  0  0  0  0  0  0  0  0
    3.8432    1.0342    0.6950 C   0  0  0  0  0  0  0  0  0  0  0  0
    4.4546    0.5070    1.8346 C   0  0  0  0  0  0  0  0  0  0  0  0
    5.8418    0.3715    1.8904 C   0  0  0  0  0  0  0  0  0  0  0  0
    6.6263    0.7746    0.8092 C   0  0  0  0  0  0  0  0  0  0  0  0
    6.0307    1.3162   -0.3360 C   0  0  0  0  0  0  0  0  0  0  0  0
    6.8761    1.7956   -1.4785 C   0  0  0  0  0  0  0  0  0  0  0  0
    4.6372    1.4618   -0.3742 C   0  0  0  0  0  0  0  0  0  0  0  0
    2.0128   -1.0190   -0.3604 C   0  0  0  0  0  0  0  0  0  0  0  0
    3.1852   -1.7606   -0.5950 C   0  0  0  0  0  0  0  0  0  0  0  0
    2.9385   -2.9582   -1.1449 N   0  0  0  0  0  0  0  0  0  0  0  0
    1.5958   -2.9934   -1.2631 N   0  0  0  0  0  0  0  0  0  0  0  0
    0.9778   -4.1616   -1.8387 C   0  0  0  0  0  0  0  0  0  0  0  0
    1.0074   -1.8516   -0.8081 C   0  0  0  0  0  0  0  0  0  0  0  0
   -1.0127   -2.1737   -1.1374 H   0  0  0  0  0  0  0  0  0  0  0  0
   -2.8811   -1.0175   -1.6911 H   0  0  0  0  0  0  0  0  0  0  0  0
   -3.1241   -1.6093   -0.0272 H   0  0  0  0  0  0  0  0  0  0  0  0
   -4.2382    0.9890   -1.2141 H   0  0  0  0  0  0  0  0  0  0  0  0
   -5.1444   -0.5059   -0.9637 H   0  0  0  0  0  0  0  0  0  0  0  0
   -3.7826    1.0969    1.2856 H   0  0  0  0  0  0  0  0  0  0  0  0
   -4.8490   -0.3141    1.5141 H   0  0  0  0  0  0  0  0  0  0  0  0
   -5.6600    2.1972    0.1899 H   0  0  0  0  0  0  0  0  0  0  0  0
   -7.9209    1.5599    0.6738 H   0  0  0  0  0  0  0  0  0  0  0  0
   -7.0927    0.4303   -0.4269 H   0  0  0  0  0  0  0  0  0  0  0  0
   -7.2882    0.0001    1.3132 H   0  0  0  0  0  0  0  0  0  0  0  0
   -4.9473    2.7549    2.3571 H   0  0  0  0  0  0  0  0  0  0  0  0
   -6.0288    1.4738    3.0219 H   0  0  0  0  0  0  0  0  0  0  0  0
   -6.7191    2.9120    2.1819 H   0  0  0  0  0  0  0  0  0  0  0  0
    0.0279    1.3818    0.5100 H   0  0  0  0  0  0  0  0  0  0  0  0
    3.8482    0.2046    2.6834 H   0  0  0  0  0  0  0  0  0  0  0  0
    6.3129   -0.0401    2.7795 H   0  0  0  0  0  0  0  0  0  0  0  0
    7.7081    0.6720    0.8694 H   0  0  0  0  0  0  0  0  0  0  0  0
    7.1442    2.8462   -1.3305 H   0  0  0  0  0  0  0  0  0  0  0  0
    7.7938    1.2038   -1.5607 H   0  0  0  0  0  0  0  0  0  0  0  0
    6.3403    1.6968   -2.4284 H   0  0  0  0  0  0  0  0  0  0  0  0
    4.1599    1.9094   -1.2423 H   0  0  0  0  0  0  0  0  0  0  0  0
    4.2164   -1.4982   -0.3989 H   0  0  0  0  0  0  0  0  0  0  0  0
    1.0153   -4.0647   -2.9263 H   0  0  0  0  0  0  0  0  0  0  0  0
   -0.0576   -4.2336   -1.4986 H   0  0  0  0  0  0  0  0  0  0  0  0
    1.5271   -5.0499   -1.5155 H   0  0  0  0  0  0  0  0  0  0  0  0
  1  2  1  0
  2  3  2  3
  3  4  1  0
  4  5  1  0
  5  6  1  0
  6  7  1  0
  7  8  1  0
  7  9  1  0
  2 10  1  0
 10 11  1  0
 11 12  2  3
 12 13  1  0
 13 14  2  0
 14 15  1  0
 15 16  2  0
 16 17  1  0
 17 18  1  0
 17 19  2  0
 11 20  1  0
 20 21  1  0
 21 22  2  0
 22 23  1  0
 23 24  1  0
 23 25  1  0
 25  1  1  0
 19 13  1  0
 25 20  2  0
  1 26  1  0
  4 27  1  0
  4 28  1  0
  5 29  1  0
  5 30  1  0
  6 31  1  0
  6 32  1  0
  7 33  1  0
  8 34  1  0
  8 35  1  0
  8 36  1  0
  9 37  1  0
  9 38  1  0
  9 39  1  0
 10 40  1  0
 14 41  1  0
 15 42  1  0
 16 43  1  0
 18 44  1  0
 18 45  1  0
 18 46  1  0
 19 47  1  0
 21 48  1  0
 24 49  1  0
 24 50  1  0
 24 51  1  0
M  CHG  1   7   1
M  END
>  <ScrubInfo>  (9) 
{"isomerGroup": 0, "isomerId": 8, "confId": 0, "nr_conformers:": 1, "nr_isomers:": 9}

$$$$
