REMARK SMILES CCc1ccc(Nc2nc(NC[C@H](C)O)nc3c2cnn3C)cc1
REMARK SMILES IDX 8 1 9 2 10 3 16 4 17 5 18 6 19 7 20 8 21 9 22 10 7 11 6 13
REMARK SMILES IDX 3 14 4 15 24 16 5 17 23 18 2 19 1 20 11 21 12 23 13 24 14 25
REMARK SMILES IDX 15 26
REMARK H PARENT 7 12 11 22 15 27
ROOT
ATOM      1  C   UNL     1      -0.074  -1.902   0.099  1.00  0.00     0.147 A 
ATOM      2  N   UNL     1      -0.858  -0.843  -0.230  1.00  0.00    -0.195 NA
ATOM      3  C   UNL     1      -2.192  -0.977  -0.357  1.00  0.00     0.226 A 
ATOM      4  N   UNL     1      -2.882  -2.108  -0.171  1.00  0.00    -0.193 NA
ATOM      5  C   UNL     1      -2.098  -3.145   0.153  1.00  0.00     0.165 A 
ATOM      6  C   UNL     1      -0.725  -3.125   0.307  1.00  0.00     0.082 A 
ATOM      7  C   UNL     1      -0.394  -4.452   0.652  1.00  0.00     0.149 A 
ATOM      8  N   UNL     1      -1.460  -5.256   0.718  1.00  0.00    -0.179 NA
ATOM      9  N   UNL     1      -2.487  -4.433   0.400  1.00  0.00    -0.250 N 
ATOM     10  C   UNL     1      -3.829  -4.957   0.355  1.00  0.00     0.176 C 
ENDROOT
BRANCH   1  11
ATOM     11  N   UNL     1       1.314  -1.776   0.260  1.00  0.00    -0.339 N 
ATOM     12  H   UNL     1       1.769  -2.621   0.571  1.00  0.00     0.168 HD
BRANCH  11  13
ATOM     13  C   UNL     1       2.202  -0.721  -0.017  1.00  0.00     0.040 A 
ATOM     14  C   UNL     1       4.074   1.370  -0.446  1.00  0.00    -0.048 A 
ATOM     15  C   UNL     1       2.769   1.466  -0.935  1.00  0.00     0.006 A 
ATOM     16  C   UNL     1       4.437   0.229   0.274  1.00  0.00     0.006 A 
ATOM     17  C   UNL     1       1.847   0.433  -0.719  1.00  0.00     0.026 A 
ATOM     18  C   UNL     1       3.511  -0.800   0.484  1.00  0.00     0.026 A 
BRANCH  14  19
ATOM     19  C   UNL     1       5.060   2.488  -0.662  1.00  0.00     0.032 C 
ATOM     20  C   UNL     1       5.003   3.518   0.456  1.00  0.00     0.009 C 
ENDBRANCH  14  19
ENDBRANCH  11  13
ENDBRANCH   1  11
BRANCH   3  21
ATOM     21  N   UNL     1      -2.955   0.132  -0.696  1.00  0.00    -0.352 N 
ATOM     22  H   UNL     1      -3.918  -0.073  -0.441  1.00  0.00     0.163 HD
BRANCH  21  23
ATOM     23  C   UNL     1      -2.456   1.397  -0.177  1.00  0.00     0.147 C 
BRANCH  23  24
ATOM     24  C   UNL     1      -3.553   2.470  -0.317  1.00  0.00     0.130 C 
ATOM     25  C   UNL     1      -3.067   3.833   0.153  1.00  0.00     0.040 C 
BRANCH  24  26
ATOM     26  O   UNL     1      -4.703   2.097   0.456  1.00  0.00    -0.392 OA
ATOM     27  H   UNL     1      -4.430   2.042   1.388  1.00  0.00     0.211 HD
ENDBRANCH  24  26
ENDBRANCH  23  24
ENDBRANCH  21  23
ENDBRANCH   3  21
TORSDOF 7
