_i0
     RDKit          3D

 46 48  0  0  0  0  0  0  0  0999 V2000
    5.0028    3.5177    0.4558 C   0  0  0  0  0  0  0  0  0  0  0  0
    5.0598    2.4884   -0.6625 C   0  0  0  0  0  0  0  0  0  0  0  0
    4.0743    1.3699   -0.4455 C   0  0  0  0  0  0  0  0  0  0  0  0
    2.7687    1.4658   -0.9350 C   0  0  0  0  0  0  0  0  0  0  0  0
    1.8472    0.4335   -0.7188 C   0  0  0  0  0  0  0  0  0  0  0  0
    2.2021   -0.7214   -0.0174 C   0  0  0  0  0  0  0  0  0  0  0  0
    1.3140   -1.7755    0.2595 N   0  0  0  0  0  0  0  0  0  0  0  0
   -0.0739   -1.9022    0.0990 C   0  0  0  0  0  0  0  0  0  0  0  0
   -0.8583   -0.8425   -0.2299 N   0  0  0  0  0  0  0  0  0  0  0  0
   -2.1921   -0.9765   -0.3569 C   0  0  0  0  0  0  0  0  0  0  0  0
   -2.9554    0.1316   -0.6960 N   0  0  0  0  0  0  0  0  0  0  0  0
   -2.4559    1.3973   -0.1767 C   0  0  0  0  0  0  0  0  0  0  0  0
   -3.5532    2.4696   -0.3168 C   0  0  0  0  0  0  0  0  0  0  0  0
   -3.0670    3.8330    0.1531 C   0  0  0  0  0  0  0  0  0  0  0  0
   -4.7032    2.0970    0.4561 O   0  0  0  0  0  0  0  0  0  0  0  0
   -2.8816   -2.1076   -0.1714 N   0  0  0  0  0  0  0  0  0  0  0  0
   -2.0976   -3.1451    0.1533 C   0  0  0  0  0  0  0  0  0  0  0  0
   -0.7253   -3.1246    0.3070 C   0  0  0  0  0  0  0  0  0  0  0  0
   -0.3937   -4.4516    0.6525 C   0  0  0  0  0  0  0  0  0  0  0  0
   -1.4600   -5.2564    0.7179 N   0  0  0  0  0  0  0  0  0  0  0  0
   -2.4871   -4.4332    0.4002 N   0  0  0  0  0  0  0  0  0  0  0  0
   -3.8289   -4.9573    0.3546 C   0  0  0  0  0  0  0  0  0  0  0  0
    3.5113   -0.7996    0.4841 C   0  0  0  0  0  0  0  0  0  0  0  0
    4.4369    0.2288    0.2739 C   0  0  0  0  0  0  0  0  0  0  0  0
    4.0087    3.9719    0.5276 H   0  0  0  0  0  0  0  0  0  0  0  0
    5.2355    3.0644    1.4253 H   0  0  0  0  0  0  0  0  0  0  0  0
    5.7281    4.3166    0.2721 H   0  0  0  0  0  0  0  0  0  0  0  0
    6.0741    2.0774   -0.7364 H   0  0  0  0  0  0  0  0  0  0  0  0
    4.8594    2.9751   -1.6248 H   0  0  0  0  0  0  0  0  0  0  0  0
    2.4529    2.3449   -1.4921 H   0  0  0  0  0  0  0  0  0  0  0  0
    0.8500    0.5486   -1.1320 H   0  0  0  0  0  0  0  0  0  0  0  0
    1.7693   -2.6213    0.5712 H   0  0  0  0  0  0  0  0  0  0  0  0
   -3.9181   -0.0728   -0.4405 H   0  0  0  0  0  0  0  0  0  0  0  0
   -1.5626    1.7081   -0.7310 H   0  0  0  0  0  0  0  0  0  0  0  0
   -2.1967    1.2928    0.8852 H   0  0  0  0  0  0  0  0  0  0  0  0
   -3.8782    2.5378   -1.3611 H   0  0  0  0  0  0  0  0  0  0  0  0
   -2.7771    3.8048    1.2092 H   0  0  0  0  0  0  0  0  0  0  0  0
   -2.2105    4.1739   -0.4363 H   0  0  0  0  0  0  0  0  0  0  0  0
   -3.8687    4.5742    0.0668 H   0  0  0  0  0  0  0  0  0  0  0  0
   -4.4300    2.0418    1.3882 H   0  0  0  0  0  0  0  0  0  0  0  0
    0.5821   -4.8702    0.8605 H   0  0  0  0  0  0  0  0  0  0  0  0
   -4.0838   -5.3350    1.3480 H   0  0  0  0  0  0  0  0  0  0  0  0
   -4.5294   -4.1706    0.0661 H   0  0  0  0  0  0  0  0  0  0  0  0
   -3.8575   -5.7657   -0.3805 H   0  0  0  0  0  0  0  0  0  0  0  0
    3.8278   -1.6674    1.0571 H   0  0  0  0  0  0  0  0  0  0  0  0
    5.4408    0.1316    0.6806 H   0  0  0  0  0  0  0  0  0  0  0  0
  1  2  1  0
  2  3  1  0
  3  4  2  0
  4  5  1  0
  5  6  2  0
  6  7  1  0
  7  8  1  0
  8  9  2  0
  9 10  1  0
 10 11  1  0
 11 12  1  0
 12 13  1  0
 13 14  1  0
 13 15  1  0
 10 16  2  0
 16 17  1  0
 17 18  2  0
 18 19  1  0
 19 20  2  0
 20 21  1  0
 21 22  1  0
  6 23  1  0
 23 24  2  0
 24  3  1  0
 18  8  1  0
 21 17  1  0
  1 25  1  0
  1 26  1  0
  1 27  1  0
  2 28  1  0
  2 29  1  0
  4 30  1  0
  5 31  1  0
  7 32  1  0
 11 33  1  0
 12 34  1  0
 12 35  1  0
 13 36  1  0
 14 37  1  0
 14 38  1  0
 14 39  1  0
 15 40  1  0
 19 41  1  0
 22 42  1  0
 22 43  1  0
 22 44  1  0
 23 45  1  0
 24 46  1  0
M  END
>  <ScrubInfo>  (1) 
{"isomerGroup": 0, "isomerId": 0, "confId": 0, "nr_conformers:": 1, "nr_isomers:": 9}

$$$$
_i1
     RDKit          3D

 46 48  0  0  0  0  0  0  0  0999 V2000
    1.3650    1.1022    0.8997 N   0  0  0  0  0  0  0  0  0  0  0  0
    2.5073    0.3854    0.6364 C   0  0  0  0  0  0  0  0  0  0  0  0
    3.6494    1.0578    0.9875 N   0  0  0  0  0  0  0  0  0  0  0  0
    4.9603    0.4014    0.9177 C   0  0  0  0  0  0  0  0  0  0  0  0
    5.4672    0.3458   -0.5337 C   0  0  0  0  0  0  0  0  0  0  0  0
    6.8600   -0.2592   -0.6116 C   0  0  0  0  0  0  0  0  0  0  0  0
    5.5273    1.6750   -1.0636 O   0  0  0  0  0  0  0  0  0  0  0  0
    2.5082   -0.8044    0.0952 N   0  0  0  0  0  0  0  0  0  0  0  0
    1.2441   -1.2467   -0.1576 C   0  0  0  0  0  0  0  0  0  0  0  0
    0.0399   -0.5985    0.0717 C   0  0  0  0  0  0  0  0  0  0  0  0
   -0.9355   -1.5118   -0.3659 C   0  0  0  0  0  0  0  0  0  0  0  0
   -0.4067   -2.6489   -0.8368 N   0  0  0  0  0  0  0  0  0  0  0  0
    0.9251   -2.4578   -0.7045 N   0  0  0  0  0  0  0  0  0  0  0  0
    1.8319   -3.4960   -1.1248 C   0  0  0  0  0  0  0  0  0  0  0  0
    0.0636    0.7318    0.6464 C   0  0  0  0  0  0  0  0  0  0  0  0
   -0.9283    1.5275    0.9079 N   0  0  0  0  0  0  0  0  0  0  0  0
   -2.2515    1.1677    0.6462 C   0  0  0  0  0  0  0  0  0  0  0  0
   -3.0266    0.5649    1.6388 C   0  0  0  0  0  0  0  0  0  0  0  0
   -4.3588    0.2263    1.3888 C   0  0  0  0  0  0  0  0  0  0  0  0
   -4.9372    0.4988    0.1424 C   0  0  0  0  0  0  0  0  0  0  0  0
   -6.3788    0.1484   -0.1247 C   0  0  0  0  0  0  0  0  0  0  0  0
   -7.3171    1.2832    0.2565 C   0  0  0  0  0  0  0  0  0  0  0  0
   -4.1668    1.1339   -0.8401 C   0  0  0  0  0  0  0  0  0  0  0  0
   -2.8350    1.4709   -0.5856 C   0  0  0  0  0  0  0  0  0  0  0  0
    1.4603    2.0567    1.2048 H   0  0  0  0  0  0  0  0  0  0  0  0
    3.5548    1.6134    1.8306 H   0  0  0  0  0  0  0  0  0  0  0  0
    5.6547    1.0025    1.5171 H   0  0  0  0  0  0  0  0  0  0  0  0
    4.9187   -0.5976    1.3665 H   0  0  0  0  0  0  0  0  0  0  0  0
    4.7879   -0.2301   -1.1702 H   0  0  0  0  0  0  0  0  0  0  0  0
    7.5800    0.3357   -0.0389 H   0  0  0  0  0  0  0  0  0  0  0  0
    7.2147   -0.2676   -1.6479 H   0  0  0  0  0  0  0  0  0  0  0  0
    6.8693   -1.2850   -0.2311 H   0  0  0  0  0  0  0  0  0  0  0  0
    4.6309    2.0376   -0.9284 H   0  0  0  0  0  0  0  0  0  0  0  0
   -2.0126   -1.4169   -0.3696 H   0  0  0  0  0  0  0  0  0  0  0  0
    1.6737   -4.3681   -0.4853 H   0  0  0  0  0  0  0  0  0  0  0  0
    1.6150   -3.7427   -2.1673 H   0  0  0  0  0  0  0  0  0  0  0  0
    2.8648   -3.1525   -1.0364 H   0  0  0  0  0  0  0  0  0  0  0  0
   -2.5899    0.3568    2.6116 H   0  0  0  0  0  0  0  0  0  0  0  0
   -4.9429   -0.2472    2.1746 H   0  0  0  0  0  0  0  0  0  0  0  0
   -6.6472   -0.7576    0.4324 H   0  0  0  0  0  0  0  0  0  0  0  0
   -6.5077   -0.0989   -1.1855 H   0  0  0  0  0  0  0  0  0  0  0  0
   -8.3547    1.0010    0.0521 H   0  0  0  0  0  0  0  0  0  0  0  0
   -7.0939    2.1916   -0.3133 H   0  0  0  0  0  0  0  0  0  0  0  0
   -7.2349    1.5261    1.3213 H   0  0  0  0  0  0  0  0  0  0  0  0
   -4.5995    1.3745   -1.8086 H   0  0  0  0  0  0  0  0  0  0  0  0
   -2.2487    1.9706   -1.3517 H   0  0  0  0  0  0  0  0  0  0  0  0
  1  2  1  0
  2  3  1  0
  3  4  1  0
  4  5  1  0
  5  6  1  0
  5  7  1  0
  2  8  2  0
  8  9  1  0
  9 10  2  0
 10 11  1  0
 11 12  2  0
 12 13  1  0
 13 14  1  0
 10 15  1  0
 15 16  2  3
 16 17  1  0
 17 18  2  0
 18 19  1  0
 19 20  2  0
 20 21  1  0
 21 22  1  0
 20 23  1  0
 23 24  2  0
 15  1  1  0
 24 17  1  0
 13  9  1  0
  1 25  1  0
  3 26  1  0
  4 27  1  0
  4 28  1  0
  5 29  1  0
  6 30  1  0
  6 31  1  0
  6 32  1  0
  7 33  1  0
 11 34  1  0
 14 35  1  0
 14 36  1  0
 14 37  1  0
 18 38  1  0
 19 39  1  0
 21 40  1  0
 21 41  1  0
 22 42  1  0
 22 43  1  0
 22 44  1  0
 23 45  1  0
 24 46  1  0
M  END
>  <ScrubInfo>  (2) 
{"isomerGroup": 0, "isomerId": 1, "confId": 0, "nr_conformers:": 1, "nr_isomers:": 9}

$$$$
_i2
     RDKit          3D

 46 48  0  0  0  0  0  0  0  0999 V2000
   -1.3509    0.6737    0.8120 N   0  0  0  0  0  0  0  0  0  0  0  0
   -0.2328   -0.1031    1.0402 C   0  0  0  0  0  0  0  0  0  0  0  0
    0.9101    0.4401    1.5945 N   0  0  0  0  0  0  0  0  0  0  0  0
    2.2173    0.3893    1.0568 C   0  0  0  0  0  0  0  0  0  0  0  0
    2.5108   -0.0823   -0.2276 C   0  0  0  0  0  0  0  0  0  0  0  0
    3.8311   -0.1409   -0.6874 C   0  0  0  0  0  0  0  0  0  0  0  0
    4.8899    0.2604    0.1335 C   0  0  0  0  0  0  0  0  0  0  0  0
    6.3102    0.2116   -0.3682 C   0  0  0  0  0  0  0  0  0  0  0  0
    6.7122    1.5077   -1.0552 C   0  0  0  0  0  0  0  0  0  0  0  0
    4.6043    0.7329    1.4179 C   0  0  0  0  0  0  0  0  0  0  0  0
    3.2836    0.7912    1.8731 C   0  0  0  0  0  0  0  0  0  0  0  0
   -0.3720   -1.4012    0.7419 C   0  0  0  0  0  0  0  0  0  0  0  0
    0.4326   -2.6264    0.8068 C   0  0  0  0  0  0  0  0  0  0  0  0
   -0.2007   -3.6781    0.3492 N   0  0  0  0  0  0  0  0  0  0  0  0
   -1.4840   -3.2223    0.0061 N   0  0  0  0  0  0  0  0  0  0  0  0
   -2.3377   -4.0683   -0.7911 C   0  0  0  0  0  0  0  0  0  0  0  0
   -1.6584   -1.8588    0.1739 C   0  0  0  0  0  0  0  0  0  0  0  0
   -2.6731   -1.1065   -0.0896 N   0  0  0  0  0  0  0  0  0  0  0  0
   -2.5058    0.2236    0.2238 C   0  0  0  0  0  0  0  0  0  0  0  0
   -3.4385    1.0815   -0.0378 N   0  0  0  0  0  0  0  0  0  0  0  0
   -4.6618    0.5461   -0.6637 C   0  0  0  0  0  0  0  0  0  0  0  0
   -5.6767    1.6909   -0.8151 C   0  0  0  0  0  0  0  0  0  0  0  0
   -6.2043    2.1882    0.5240 C   0  0  0  0  0  0  0  0  0  0  0  0
   -5.0527    2.7851   -1.4930 O   0  0  0  0  0  0  0  0  0  0  0  0
   -1.2788    1.6715    0.9335 H   0  0  0  0  0  0  0  0  0  0  0  0
    0.7489    1.3308    2.0565 H   0  0  0  0  0  0  0  0  0  0  0  0
    1.7212   -0.3870   -0.9088 H   0  0  0  0  0  0  0  0  0  0  0  0
    4.0252   -0.5000   -1.6961 H   0  0  0  0  0  0  0  0  0  0  0  0
    6.4271   -0.6284   -1.0637 H   0  0  0  0  0  0  0  0  0  0  0  0
    6.9902    0.0091    0.4683 H   0  0  0  0  0  0  0  0  0  0  0  0
    6.0709    1.7153   -1.9184 H   0  0  0  0  0  0  0  0  0  0  0  0
    6.6397    2.3594   -0.3704 H   0  0  0  0  0  0  0  0  0  0  0  0
    7.7462    1.4437   -1.4085 H   0  0  0  0  0  0  0  0  0  0  0  0
    5.4083    1.0547    2.0761 H   0  0  0  0  0  0  0  0  0  0  0  0
    3.0950    1.1441    2.8844 H   0  0  0  0  0  0  0  0  0  0  0  0
    1.4605   -2.6145    1.1911 H   0  0  0  0  0  0  0  0  0  0  0  0
   -3.3922   -3.8238   -0.6277 H   0  0  0  0  0  0  0  0  0  0  0  0
   -2.1118   -3.9428   -1.8545 H   0  0  0  0  0  0  0  0  0  0  0  0
   -2.1952   -5.1216   -0.5286 H   0  0  0  0  0  0  0  0  0  0  0  0
   -5.1037   -0.2609   -0.0675 H   0  0  0  0  0  0  0  0  0  0  0  0
   -4.4150    0.1683   -1.6636 H   0  0  0  0  0  0  0  0  0  0  0  0
   -6.5181    1.3538   -1.4297 H   0  0  0  0  0  0  0  0  0  0  0  0
   -6.9320    2.9921    0.3683 H   0  0  0  0  0  0  0  0  0  0  0  0
   -5.4024    2.6110    1.1387 H   0  0  0  0  0  0  0  0  0  0  0  0
   -6.6900    1.3830    1.0832 H   0  0  0  0  0  0  0  0  0  0  0  0
   -4.1467    2.8079   -1.1244 H   0  0  0  0  0  0  0  0  0  0  0  0
  1  2  1  0
  2  3  1  0
  3  4  1  0
  4  5  2  0
  5  6  1  0
  6  7  2  0
  7  8  1  0
  8  9  1  0
  7 10  1  0
 10 11  2  0
  2 12  2  0
 12 13  1  0
 13 14  2  0
 14 15  1  0
 15 16  1  0
 15 17  1  0
 17 18  2  0
 18 19  1  0
 19 20  2  3
 20 21  1  0
 21 22  1  0
 22 23  1  0
 22 24  1  0
 19  1  1  0
 11  4  1  0
 17 12  1  0
  1 25  1  0
  3 26  1  0
  5 27  1  0
  6 28  1  0
  8 29  1  0
  8 30  1  0
  9 31  1  0
  9 32  1  0
  9 33  1  0
 10 34  1  0
 11 35  1  0
 13 36  1  0
 16 37  1  0
 16 38  1  0
 16 39  1  0
 21 40  1  0
 21 41  1  0
 22 42  1  0
 23 43  1  0
 23 44  1  0
 23 45  1  0
 24 46  1  0
M  END
>  <ScrubInfo>  (3) 
{"isomerGroup": 0, "isomerId": 2, "confId": 0, "nr_conformers:": 1, "nr_isomers:": 9}

$$$$
_i3
     RDKit          3D

 46 48  0  0  0  0  0  0  0  0999 V2000
    2.5852   -1.6230   -0.0696 N   0  0  0  0  0  0  0  0  0  0  0  0
    1.9481   -0.3942   -0.0754 C   0  0  0  0  0  0  0  0  0  0  0  0
    2.5158    0.7566   -0.1610 N   0  0  0  0  0  0  0  0  0  0  0  0
    3.9663    0.8354   -0.2607 C   0  0  0  0  0  0  0  0  0  0  0  0
    4.4075    2.3060   -0.2225 C   0  0  0  0  0  0  0  0  0  0  0  0
    4.2867    2.9036    1.1727 C   0  0  0  0  0  0  0  0  0  0  0  0
    5.7775    2.3969   -0.6247 O   0  0  0  0  0  0  0  0  0  0  0  0
    0.5702   -0.3047    0.0129 N   0  0  0  0  0  0  0  0  0  0  0  0
   -0.1685   -1.3704    0.1102 C   0  0  0  0  0  0  0  0  0  0  0  0
   -1.5375   -1.4492    0.2057 N   0  0  0  0  0  0  0  0  0  0  0  0
   -2.4894   -0.4109    0.2418 C   0  0  0  0  0  0  0  0  0  0  0  0
   -2.1742    0.9495    0.1926 C   0  0  0  0  0  0  0  0  0  0  0  0
   -3.1743    1.9302    0.2285 C   0  0  0  0  0  0  0  0  0  0  0  0
   -4.5223    1.5736    0.3180 C   0  0  0  0  0  0  0  0  0  0  0  0
   -5.5959    2.6300    0.3387 C   0  0  0  0  0  0  0  0  0  0  0  0
   -6.0655    2.9872   -1.0632 C   0  0  0  0  0  0  0  0  0  0  0  0
   -4.8532    0.2177    0.3589 C   0  0  0  0  0  0  0  0  0  0  0  0
   -3.8496   -0.7572    0.3229 C   0  0  0  0  0  0  0  0  0  0  0  0
    0.4701   -2.6754    0.1231 C   0  0  0  0  0  0  0  0  0  0  0  0
    0.0835   -4.0238    0.2090 C   0  0  0  0  0  0  0  0  0  0  0  0
    1.1302   -4.8619    0.1737 N   0  0  0  0  0  0  0  0  0  0  0  0
    2.2014   -4.0390    0.0656 N   0  0  0  0  0  0  0  0  0  0  0  0
    3.5217   -4.6127    0.0040 C   0  0  0  0  0  0  0  0  0  0  0  0
    1.8343   -2.7314    0.0314 C   0  0  0  0  0  0  0  0  0  0  0  0
    3.5915   -1.6270   -0.1335 H   0  0  0  0  0  0  0  0  0  0  0  0
    4.4599    0.2879    0.5522 H   0  0  0  0  0  0  0  0  0  0  0  0
    4.3020    0.3879   -1.2048 H   0  0  0  0  0  0  0  0  0  0  0  0
    3.8128    2.9051   -0.9222 H   0  0  0  0  0  0  0  0  0  0  0  0
    4.6386    3.9411    1.1733 H   0  0  0  0  0  0  0  0  0  0  0  0
    4.9140    2.3606    1.8883 H   0  0  0  0  0  0  0  0  0  0  0  0
    3.2526    2.8881    1.5295 H   0  0  0  0  0  0  0  0  0  0  0  0
    5.7926    2.2842   -1.5909 H   0  0  0  0  0  0  0  0  0  0  0  0
   -1.9523   -2.3659    0.2765 H   0  0  0  0  0  0  0  0  0  0  0  0
   -1.1447    1.2894    0.1252 H   0  0  0  0  0  0  0  0  0  0  0  0
   -2.8828    2.9775    0.1846 H   0  0  0  0  0  0  0  0  0  0  0  0
   -6.4464    2.2800    0.9363 H   0  0  0  0  0  0  0  0  0  0  0  0
   -5.2202    3.5283    0.8438 H   0  0  0  0  0  0  0  0  0  0  0  0
   -5.2414    3.3752   -1.6715 H   0  0  0  0  0  0  0  0  0  0  0  0
   -6.8440    3.7552   -1.0173 H   0  0  0  0  0  0  0  0  0  0  0  0
   -6.4803    2.1138   -1.5779 H   0  0  0  0  0  0  0  0  0  0  0  0
   -5.8941   -0.0917    0.4179 H   0  0  0  0  0  0  0  0  0  0  0  0
   -4.1515   -1.8011    0.3577 H   0  0  0  0  0  0  0  0  0  0  0  0
   -0.9071   -4.4494    0.2960 H   0  0  0  0  0  0  0  0  0  0  0  0
    3.6907   -5.1866    0.9186 H   0  0  0  0  0  0  0  0  0  0  0  0
    3.5732   -5.2645   -0.8718 H   0  0  0  0  0  0  0  0  0  0  0  0
    4.2692   -3.8213   -0.0794 H   0  0  0  0  0  0  0  0  0  0  0  0
  1  2  1  0
  2  3  2  3
  3  4  1  0
  4  5  1  0
  5  6  1  0
  5  7  1  0
  2  8  1  0
  8  9  2  0
  9 10  1  0
 10 11  1  0
 11 12  2  0
 12 13  1  0
 13 14  2  0
 14 15  1  0
 15 16  1  0
 14 17  1  0
 17 18  2  0
  9 19  1  0
 19 20  1  0
 20 21  2  0
 21 22  1  0
 22 23  1  0
 22 24  1  0
 24  1  1  0
 18 11  1  0
 24 19  2  0
  1 25  1  0
  4 26  1  0
  4 27  1  0
  5 28  1  0
  6 29  1  0
  6 30  1  0
  6 31  1  0
  7 32  1  0
 10 33  1  0
 12 34  1  0
 13 35  1  0
 15 36  1  0
 15 37  1  0
 16 38  1  0
 16 39  1  0
 16 40  1  0
 17 41  1  0
 18 42  1  0
 20 43  1  0
 23 44  1  0
 23 45  1  0
 23 46  1  0
M  END
>  <ScrubInfo>  (4) 
{"isomerGroup": 0, "isomerId": 3, "confId": 0, "nr_conformers:": 1, "nr_isomers:": 9}

$$$$
_i4
     RDKit          3D

 46 48  0  0  0  0  0  0  0  0999 V2000
    2.5305   -1.3503    0.2499 N   0  0  0  0  0  0  0  0  0  0  0  0
    2.5869   -0.2209    1.0254 C   0  0  0  0  0  0  0  0  0  0  0  0
    3.8271    0.1335    1.4706 N   0  0  0  0  0  0  0  0  0  0  0  0
    5.0054    0.1730    0.6152 C   0  0  0  0  0  0  0  0  0  0  0  0
    4.8578    1.1231   -0.5882 C   0  0  0  0  0  0  0  0  0  0  0  0
    4.6904    2.5822   -0.1796 C   0  0  0  0  0  0  0  0  0  0  0  0
    6.0156    1.0021   -1.4225 O   0  0  0  0  0  0  0  0  0  0  0  0
    1.5689    0.5197    1.3593 N   0  0  0  0  0  0  0  0  0  0  0  0
    0.2939    0.1887    0.9131 C   0  0  0  0  0  0  0  0  0  0  0  0
   -0.6524    1.0040    1.2553 N   0  0  0  0  0  0  0  0  0  0  0  0
   -1.9802    0.8087    0.8783 C   0  0  0  0  0  0  0  0  0  0  0  0
   -2.4645    1.3535   -0.3129 C   0  0  0  0  0  0  0  0  0  0  0  0
   -3.8010    1.1780   -0.6801 C   0  0  0  0  0  0  0  0  0  0  0  0
   -4.6759    0.4647    0.1496 C   0  0  0  0  0  0  0  0  0  0  0  0
   -6.1227    0.2898   -0.2357 C   0  0  0  0  0  0  0  0  0  0  0  0
   -6.9880    1.4286    0.2818 C   0  0  0  0  0  0  0  0  0  0  0  0
   -4.1961   -0.0499    1.3610 C   0  0  0  0  0  0  0  0  0  0  0  0
   -2.8587    0.1280    1.7237 C   0  0  0  0  0  0  0  0  0  0  0  0
    0.1783   -1.0245    0.1196 C   0  0  0  0  0  0  0  0  0  0  0  0
   -0.8401   -1.7768   -0.4941 C   0  0  0  0  0  0  0  0  0  0  0  0
   -0.3769   -2.8743   -1.1149 N   0  0  0  0  0  0  0  0  0  0  0  0
    0.9569   -2.8252   -0.9005 N   0  0  0  0  0  0  0  0  0  0  0  0
    1.7928   -3.8645   -1.4449 C   0  0  0  0  0  0  0  0  0  0  0  0
    1.3146   -1.7375   -0.1708 C   0  0  0  0  0  0  0  0  0  0  0  0
    3.3487   -1.9428    0.2257 H   0  0  0  0  0  0  0  0  0  0  0  0
    3.7368    0.9772    2.0346 H   0  0  0  0  0  0  0  0  0  0  0  0
    5.8683    0.4788    1.2195 H   0  0  0  0  0  0  0  0  0  0  0  0
    5.2508   -0.8351    0.2602 H   0  0  0  0  0  0  0  0  0  0  0  0
    3.9997    0.8230   -1.1991 H   0  0  0  0  0  0  0  0  0  0  0  0
    5.5353    2.9181    0.4316 H   0  0  0  0  0  0  0  0  0  0  0  0
    4.6686    3.2249   -1.0663 H   0  0  0  0  0  0  0  0  0  0  0  0
    3.7668    2.7413    0.3843 H   0  0  0  0  0  0  0  0  0  0  0  0
    6.7360    1.5212   -1.0244 H   0  0  0  0  0  0  0  0  0  0  0  0
   -1.7959    1.9193   -0.9558 H   0  0  0  0  0  0  0  0  0  0  0  0
   -4.1555    1.6083   -1.6138 H   0  0  0  0  0  0  0  0  0  0  0  0
   -6.2082    0.2255   -1.3273 H   0  0  0  0  0  0  0  0  0  0  0  0
   -6.4949   -0.6655    0.1541 H   0  0  0  0  0  0  0  0  0  0  0  0
   -6.6598    2.3923   -0.1223 H   0  0  0  0  0  0  0  0  0  0  0  0
   -6.9495    1.4921    1.3745 H   0  0  0  0  0  0  0  0  0  0  0  0
   -8.0311    1.2750   -0.0125 H   0  0  0  0  0  0  0  0  0  0  0  0
   -4.8614   -0.5859    2.0338 H   0  0  0  0  0  0  0  0  0  0  0  0
   -2.4973   -0.2630    2.6711 H   0  0  0  0  0  0  0  0  0  0  0  0
   -1.9056   -1.5935   -0.5231 H   0  0  0  0  0  0  0  0  0  0  0  0
    1.5897   -4.7883   -0.8975 H   0  0  0  0  0  0  0  0  0  0  0  0
    1.5515   -3.9867   -2.5040 H   0  0  0  0  0  0  0  0  0  0  0  0
    2.8444   -3.5901   -1.3392 H   0  0  0  0  0  0  0  0  0  0  0  0
  1  2  1  0
  2  3  1  0
  3  4  1  0
  4  5  1  0
  5  6  1  0
  5  7  1  0
  2  8  2  0
  8  9  1  0
  9 10  2  3
 10 11  1  0
 11 12  2  0
 12 13  1  0
 13 14  2  0
 14 15  1  0
 15 16  1  0
 14 17  1  0
 17 18  2  0
  9 19  1  0
 19 20  1  0
 20 21  2  0
 21 22  1  0
 22 23  1  0
 22 24  1  0
 24  1  1  0
 18 11  1  0
 24 19  2  0
  1 25  1  0
  3 26  1  0
  4 27  1  0
  4 28  1  0
  5 29  1  0
  6 30  1  0
  6 31  1  0
  6 32  1  0
  7 33  1  0
 12 34  1  0
 13 35  1  0
 15 36  1  0
 15 37  1  0
 16 38  1  0
 16 39  1  0
 16 40  1  0
 17 41  1  0
 18 42  1  0
 20 43  1  0
 23 44  1  0
 23 45  1  0
 23 46  1  0
M  END
>  <ScrubInfo>  (5) 
{"isomerGroup": 0, "isomerId": 4, "confId": 0, "nr_conformers:": 1, "nr_isomers:": 9}

$$$$
_i5
     RDKit          3D

 46 48  0  0  0  0  0  0  0  0999 V2000
    0.7581    2.7794    0.5061 N   0  0  0  0  0  0  0  0  0  0  0  0
    1.1251    1.4669    0.2264 C   0  0  0  0  0  0  0  0  0  0  0  0
    0.0794    0.6424    0.0591 C   0  0  0  0  0  0  0  0  0  0  0  0
   -0.1857   -0.7670   -0.2028 C   0  0  0  0  0  0  0  0  0  0  0  0
    0.6218   -1.7487   -0.4304 N   0  0  0  0  0  0  0  0  0  0  0  0
    2.0018   -1.5398   -0.4664 C   0  0  0  0  0  0  0  0  0  0  0  0
    2.6350   -1.2092   -1.6663 C   0  0  0  0  0  0  0  0  0  0  0  0
    4.0169   -1.0077   -1.7059 C   0  0  0  0  0  0  0  0  0  0  0  0
    4.7877   -1.1555   -0.5455 C   0  0  0  0  0  0  0  0  0  0  0  0
    6.2770   -0.9255   -0.5824 C   0  0  0  0  0  0  0  0  0  0  0  0
    6.6303    0.5257   -0.2951 C   0  0  0  0  0  0  0  0  0  0  0  0
    4.1527   -1.5078    0.6525 C   0  0  0  0  0  0  0  0  0  0  0  0
    2.7705   -1.7086    0.6869 C   0  0  0  0  0  0  0  0  0  0  0  0
   -1.5174   -1.0910   -0.1969 N   0  0  0  0  0  0  0  0  0  0  0  0
   -2.4630   -0.2174   -0.0196 C   0  0  0  0  0  0  0  0  0  0  0  0
   -3.7365   -0.7103   -0.0477 N   0  0  0  0  0  0  0  0  0  0  0  0
   -4.8342   -0.0628    0.6568 C   0  0  0  0  0  0  0  0  0  0  0  0
   -6.1822   -0.6588    0.2117 C   0  0  0  0  0  0  0  0  0  0  0  0
   -6.3800   -2.1002    0.6616 C   0  0  0  0  0  0  0  0  0  0  0  0
   -6.2941   -0.6076   -1.2133 O   0  0  0  0  0  0  0  0  0  0  0  0
   -2.2809    1.1219    0.1872 N   0  0  0  0  0  0  0  0  0  0  0  0
   -1.0694    1.5560    0.2076 C   0  0  0  0  0  0  0  0  0  0  0  0
   -0.6199    2.8662    0.3766 N   0  0  0  0  0  0  0  0  0  0  0  0
   -1.3503    3.8098    1.1998 C   0  0  0  0  0  0  0  0  0  0  0  0
    1.3044    3.4694   -0.0152 H   0  0  0  0  0  0  0  0  0  0  0  0
    2.1780    1.2324    0.1692 H   0  0  0  0  0  0  0  0  0  0  0  0
    2.0462   -1.1123   -2.5746 H   0  0  0  0  0  0  0  0  0  0  0  0
    4.4877   -0.7448   -2.6504 H   0  0  0  0  0  0  0  0  0  0  0  0
    6.7699   -1.5788    0.1479 H   0  0  0  0  0  0  0  0  0  0  0  0
    6.6714   -1.2160   -1.5637 H   0  0  0  0  0  0  0  0  0  0  0  0
    6.2788    0.8314    0.6963 H   0  0  0  0  0  0  0  0  0  0  0  0
    7.7155    0.6647   -0.3280 H   0  0  0  0  0  0  0  0  0  0  0  0
    6.1794    1.1980   -1.0330 H   0  0  0  0  0  0  0  0  0  0  0  0
    4.7302   -1.6376    1.5649 H   0  0  0  0  0  0  0  0  0  0  0  0
    2.2873   -1.9997    1.6157 H   0  0  0  0  0  0  0  0  0  0  0  0
   -3.7118   -1.7230    0.0166 H   0  0  0  0  0  0  0  0  0  0  0  0
   -4.8423    1.0051    0.4088 H   0  0  0  0  0  0  0  0  0  0  0  0
   -4.7040   -0.1635    1.7397 H   0  0  0  0  0  0  0  0  0  0  0  0
   -6.9929   -0.0491    0.6256 H   0  0  0  0  0  0  0  0  0  0  0  0
   -7.3783   -2.4492    0.3752 H   0  0  0  0  0  0  0  0  0  0  0  0
   -5.6689   -2.7768    0.1766 H   0  0  0  0  0  0  0  0  0  0  0  0
   -6.2780   -2.1960    1.7467 H   0  0  0  0  0  0  0  0  0  0  0  0
   -5.3834   -0.6974   -1.5595 H   0  0  0  0  0  0  0  0  0  0  0  0
   -1.3479    3.4946    2.2485 H   0  0  0  0  0  0  0  0  0  0  0  0
   -2.3880    3.8941    0.8615 H   0  0  0  0  0  0  0  0  0  0  0  0
   -0.8961    4.8039    1.1343 H   0  0  0  0  0  0  0  0  0  0  0  0
  1  2  1  0
  2  3  2  0
  3  4  1  0
  4  5  2  3
  5  6  1  0
  6  7  2  0
  7  8  1  0
  8  9  2  0
  9 10  1  0
 10 11  1  0
  9 12  1  0
 12 13  2  0
  4 14  1  0
 14 15  2  0
 15 16  1  0
 16 17  1  0
 17 18  1  0
 18 19  1  0
 18 20  1  0
 15 21  1  0
 21 22  2  0
 22 23  1  0
 23 24  1  0
 23  1  1  0
 22  3  1  0
 13  6  1  0
  1 25  1  0
  2 26  1  0
  7 27  1  0
  8 28  1  0
 10 29  1  0
 10 30  1  0
 11 31  1  0
 11 32  1  0
 11 33  1  0
 12 34  1  0
 13 35  1  0
 16 36  1  0
 17 37  1  0
 17 38  1  0
 18 39  1  0
 19 40  1  0
 19 41  1  0
 19 42  1  0
 20 43  1  0
 24 44  1  0
 24 45  1  0
 24 46  1  0
M  END
>  <ScrubInfo>  (6) 
{"isomerGroup": 0, "isomerId": 5, "confId": 0, "nr_conformers:": 1, "nr_isomers:": 9}

$$$$
_i6
     RDKit          3D

 46 48  0  0  0  0  0  0  0  0999 V2000
    0.4491    3.5070    0.5907 N   0  0  0  0  0  0  0  0  0  0  0  0
    0.7844    2.1963    0.9119 C   0  0  0  0  0  0  0  0  0  0  0  0
   -0.2167    1.3335    0.6925 C   0  0  0  0  0  0  0  0  0  0  0  0
   -0.4936   -0.0934    0.8458 C   0  0  0  0  0  0  0  0  0  0  0  0
    0.4341   -1.0085    1.2957 N   0  0  0  0  0  0  0  0  0  0  0  0
    1.7483   -1.1253    0.7876 C   0  0  0  0  0  0  0  0  0  0  0  0
    2.1001   -0.7408   -0.5112 C   0  0  0  0  0  0  0  0  0  0  0  0
    3.4054   -0.9194   -0.9802 C   0  0  0  0  0  0  0  0  0  0  0  0
    4.3795   -1.5079   -0.1661 C   0  0  0  0  0  0  0  0  0  0  0  0
    5.7906   -1.6853   -0.6657 C   0  0  0  0  0  0  0  0  0  0  0  0
    6.6556   -0.4730   -0.3567 C   0  0  0  0  0  0  0  0  0  0  0  0
    4.0260   -1.9131    1.1252 C   0  0  0  0  0  0  0  0  0  0  0  0
    2.7202   -1.7343    1.5902 C   0  0  0  0  0  0  0  0  0  0  0  0
   -1.6986   -0.5209    0.5809 N   0  0  0  0  0  0  0  0  0  0  0  0
   -2.6460    0.3844    0.1465 C   0  0  0  0  0  0  0  0  0  0  0  0
   -3.8530   -0.0122   -0.0569 N   0  0  0  0  0  0  0  0  0  0  0  0
   -4.1539   -1.4277    0.1937 C   0  0  0  0  0  0  0  0  0  0  0  0
   -5.6292   -1.6786   -0.1574 C   0  0  0  0  0  0  0  0  0  0  0  0
   -5.9043   -1.5700   -1.6513 C   0  0  0  0  0  0  0  0  0  0  0  0
   -6.4415   -0.7209    0.5269 O   0  0  0  0  0  0  0  0  0  0  0  0
   -2.4562    1.7199   -0.1137 N   0  0  0  0  0  0  0  0  0  0  0  0
   -1.2858    2.1909    0.1410 C   0  0  0  0  0  0  0  0  0  0  0  0
   -0.8056    3.4923   -0.0114 N   0  0  0  0  0  0  0  0  0  0  0  0
   -1.6857    4.6330    0.1614 C   0  0  0  0  0  0  0  0  0  0  0  0
    1.1860    4.0060    0.0869 H   0  0  0  0  0  0  0  0  0  0  0  0
    1.7739    1.9808    1.2899 H   0  0  0  0  0  0  0  0  0  0  0  0
    0.0169   -1.9344    1.3663 H   0  0  0  0  0  0  0  0  0  0  0  0
    1.3637   -0.3123   -1.1865 H   0  0  0  0  0  0  0  0  0  0  0  0
    3.6533   -0.6044   -1.9917 H   0  0  0  0  0  0  0  0  0  0  0  0
    6.2327   -2.5813   -0.2131 H   0  0  0  0  0  0  0  0  0  0  0  0
    5.7790   -1.8666   -1.7474 H   0  0  0  0  0  0  0  0  0  0  0  0
    7.6728   -0.6290   -0.7297 H   0  0  0  0  0  0  0  0  0  0  0  0
    6.2560    0.4310   -0.8287 H   0  0  0  0  0  0  0  0  0  0  0  0
    6.7138   -0.2910    0.7218 H   0  0  0  0  0  0  0  0  0  0  0  0
    4.7642   -2.3734    1.7784 H   0  0  0  0  0  0  0  0  0  0  0  0
    2.4686   -2.0605    2.5970 H   0  0  0  0  0  0  0  0  0  0  0  0
   -4.0120   -1.6427    1.2601 H   0  0  0  0  0  0  0  0  0  0  0  0
   -3.5140   -2.0916   -0.3992 H   0  0  0  0  0  0  0  0  0  0  0  0
   -5.9227   -2.6749    0.1899 H   0  0  0  0  0  0  0  0  0  0  0  0
   -6.9623   -1.7672   -1.8559 H   0  0  0  0  0  0  0  0  0  0  0  0
   -5.6994   -0.5608   -2.0244 H   0  0  0  0  0  0  0  0  0  0  0  0
   -5.3012   -2.2848   -2.2191 H   0  0  0  0  0  0  0  0  0  0  0  0
   -5.9411    0.1180    0.4411 H   0  0  0  0  0  0  0  0  0  0  0  0
   -2.0421    4.6965    1.1948 H   0  0  0  0  0  0  0  0  0  0  0  0
   -2.5513    4.5561   -0.5044 H   0  0  0  0  0  0  0  0  0  0  0  0
   -1.1580    5.5607   -0.0824 H   0  0  0  0  0  0  0  0  0  0  0  0
  1  2  1  0
  2  3  2  0
  3  4  1  0
  4  5  1  0
  5  6  1  0
  6  7  2  0
  7  8  1  0
  8  9  2  0
  9 10  1  0
 10 11  1  0
  9 12  1  0
 12 13  2  0
  4 14  2  0
 14 15  1  0
 15 16  2  3
 16 17  1  0
 17 18  1  0
 18 19  1  0
 18 20  1  0
 15 21  1  0
 21 22  2  0
 22 23  1  0
 23 24  1  0
 23  1  1  0
 22  3  1  0
 13  6  1  0
  1 25  1  0
  2 26  1  0
  5 27  1  0
  7 28  1  0
  8 29  1  0
 10 30  1  0
 10 31  1  0
 11 32  1  0
 11 33  1  0
 11 34  1  0
 12 35  1  0
 13 36  1  0
 17 37  1  0
 17 38  1  0
 18 39  1  0
 19 40  1  0
 19 41  1  0
 19 42  1  0
 20 43  1  0
 24 44  1  0
 24 45  1  0
 24 46  1  0
M  END
>  <ScrubInfo>  (7) 
{"isomerGroup": 0, "isomerId": 6, "confId": 0, "nr_conformers:": 1, "nr_isomers:": 9}

$$$$
_i7
     RDKit          3D

 46 48  0  0  0  0  0  0  0  0999 V2000
   -2.3576   -1.2552    0.2786 N   0  0  0  0  0  0  0  0  0  0  0  0
   -2.6752    0.0776    0.1128 C   0  0  0  0  0  0  0  0  0  0  0  0
   -3.9233    0.4097    0.0886 N   0  0  0  0  0  0  0  0  0  0  0  0
   -4.2500    1.8309   -0.0995 C   0  0  0  0  0  0  0  0  0  0  0  0
   -5.7792    1.9911   -0.0993 C   0  0  0  0  0  0  0  0  0  0  0  0
   -6.4401    1.3382   -1.3056 C   0  0  0  0  0  0  0  0  0  0  0  0
   -6.3085    1.3996    1.0893 O   0  0  0  0  0  0  0  0  0  0  0  0
   -1.5661    0.8925   -0.0082 N   0  0  0  0  0  0  0  0  0  0  0  0
   -0.2161    0.5988    0.0063 C   0  0  0  0  0  0  0  0  0  0  0  0
    0.6646    1.5452   -0.1264 N   0  0  0  0  0  0  0  0  0  0  0  0
    2.0365    1.2887   -0.1149 C   0  0  0  0  0  0  0  0  0  0  0  0
    2.7185    1.0484   -1.3094 C   0  0  0  0  0  0  0  0  0  0  0  0
    4.0955    0.8124   -1.3031 C   0  0  0  0  0  0  0  0  0  0  0  0
    4.8128    0.8360   -0.1001 C   0  0  0  0  0  0  0  0  0  0  0  0
    6.2946    0.5598   -0.0880 C   0  0  0  0  0  0  0  0  0  0  0  0
    6.5906   -0.9220    0.0851 C   0  0  0  0  0  0  0  0  0  0  0  0
    4.1295    1.0993    1.0941 C   0  0  0  0  0  0  0  0  0  0  0  0
    2.7525    1.3348    1.0831 C   0  0  0  0  0  0  0  0  0  0  0  0
    0.0111   -0.8256    0.1799 C   0  0  0  0  0  0  0  0  0  0  0  0
    1.1133   -1.6972    0.2613 C   0  0  0  0  0  0  0  0  0  0  0  0
    0.7531   -2.9793    0.4259 N   0  0  0  0  0  0  0  0  0  0  0  0
   -0.5966   -2.9334    0.4599 N   0  0  0  0  0  0  0  0  0  0  0  0
   -1.3381   -4.1580    0.6259 C   0  0  0  0  0  0  0  0  0  0  0  0
   -1.0725   -1.6676    0.3085 C   0  0  0  0  0  0  0  0  0  0  0  0
   -3.1571   -1.8717    0.3618 H   0  0  0  0  0  0  0  0  0  0  0  0
   -3.8406    2.4064    0.7396 H   0  0  0  0  0  0  0  0  0  0  0  0
   -3.8343    2.2137   -1.0384 H   0  0  0  0  0  0  0  0  0  0  0  0
   -6.0333    3.0563   -0.0832 H   0  0  0  0  0  0  0  0  0  0  0  0
   -6.0600    1.7577   -2.2419 H   0  0  0  0  0  0  0  0  0  0  0  0
   -7.5243    1.4906   -1.2706 H   0  0  0  0  0  0  0  0  0  0  0  0
   -6.2799    0.2548   -1.3134 H   0  0  0  0  0  0  0  0  0  0  0  0
   -5.8046    0.5671    1.1922 H   0  0  0  0  0  0  0  0  0  0  0  0
   -1.7346    1.8794   -0.1215 H   0  0  0  0  0  0  0  0  0  0  0  0
    2.1735    1.0407   -2.2492 H   0  0  0  0  0  0  0  0  0  0  0  0
    4.6044    0.6132   -2.2435 H   0  0  0  0  0  0  0  0  0  0  0  0
    6.7452    0.9216   -1.0203 H   0  0  0  0  0  0  0  0  0  0  0  0
    6.7699    1.1299    0.7195 H   0  0  0  0  0  0  0  0  0  0  0  0
    6.1820   -1.3013    1.0280 H   0  0  0  0  0  0  0  0  0  0  0  0
    6.1571   -1.5117   -0.7298 H   0  0  0  0  0  0  0  0  0  0  0  0
    7.6716   -1.0940    0.0904 H   0  0  0  0  0  0  0  0  0  0  0  0
    4.6651    1.1259    2.0403 H   0  0  0  0  0  0  0  0  0  0  0  0
    2.2341    1.5508    2.0131 H   0  0  0  0  0  0  0  0  0  0  0  0
    2.1702   -1.4740    0.2076 H   0  0  0  0  0  0  0  0  0  0  0  0
   -0.7918   -4.8137    1.3091 H   0  0  0  0  0  0  0  0  0  0  0  0
   -1.4398   -4.6292   -0.3546 H   0  0  0  0  0  0  0  0  0  0  0  0
   -2.3218   -3.9373    1.0461 H   0  0  0  0  0  0  0  0  0  0  0  0
  1  2  1  0
  2  3  2  3
  3  4  1  0
  4  5  1  0
  5  6  1  0
  5  7  1  0
  2  8  1  0
  8  9  1  0
  9 10  2  3
 10 11  1  0
 11 12  2  0
 12 13  1  0
 13 14  2  0
 14 15  1  0
 15 16  1  0
 14 17  1  0
 17 18  2  0
  9 19  1  0
 19 20  1  0
 20 21  2  0
 21 22  1  0
 22 23  1  0
 22 24  1  0
 24  1  1  0
 18 11  1  0
 24 19  2  0
  1 25  1  0
  4 26  1  0
  4 27  1  0
  5 28  1  0
  6 29  1  0
  6 30  1  0
  6 31  1  0
  7 32  1  0
  8 33  1  0
 12 34  1  0
 13 35  1  0
 15 36  1  0
 15 37  1  0
 16 38  1  0
 16 39  1  0
 16 40  1  0
 17 41  1  0
 18 42  1  0
 20 43  1  0
 23 44  1  0
 23 45  1  0
 23 46  1  0
M  END
>  <ScrubInfo>  (8) 
{"isomerGroup": 0, "isomerId": 7, "confId": 0, "nr_conformers:": 1, "nr_isomers:": 9}

$$$$
_i8
     RDKit          3D

 46 48  0  0  0  0  0  0  0  0999 V2000
    0.8676    3.0905    0.1119 N   0  0  0  0  0  0  0  0  0  0  0  0
    1.1478    1.7290    0.0797 C   0  0  0  0  0  0  0  0  0  0  0  0
    0.0518    0.9578    0.0403 C   0  0  0  0  0  0  0  0  0  0  0  0
   -0.3347   -0.4648    0.0304 C   0  0  0  0  0  0  0  0  0  0  0  0
    0.4174   -1.5259    0.0112 N   0  0  0  0  0  0  0  0  0  0  0  0
    1.8102   -1.4107   -0.0121 C   0  0  0  0  0  0  0  0  0  0  0  0
    2.4931   -1.3540   -1.2287 C   0  0  0  0  0  0  0  0  0  0  0  0
    3.8861   -1.2512   -1.2544 C   0  0  0  0  0  0  0  0  0  0  0  0
    4.6166   -1.2244   -0.0594 C   0  0  0  0  0  0  0  0  0  0  0  0
    6.1186   -1.0979   -0.0839 C   0  0  0  0  0  0  0  0  0  0  0  0
    6.5620    0.3568   -0.0618 C   0  0  0  0  0  0  0  0  0  0  0  0
    3.9299   -1.3011    1.1593 C   0  0  0  0  0  0  0  0  0  0  0  0
    2.5368   -1.4041    1.1801 C   0  0  0  0  0  0  0  0  0  0  0  0
   -1.6937   -0.6416    0.0482 N   0  0  0  0  0  0  0  0  0  0  0  0
   -2.6576    0.3342    0.0619 C   0  0  0  0  0  0  0  0  0  0  0  0
   -3.9304    0.1540    0.1061 N   0  0  0  0  0  0  0  0  0  0  0  0
   -4.4581   -1.2115    0.1488 C   0  0  0  0  0  0  0  0  0  0  0  0
   -5.9908   -1.1160    0.1679 C   0  0  0  0  0  0  0  0  0  0  0  0
   -6.6442   -2.4870    0.1391 C   0  0  0  0  0  0  0  0  0  0  0  0
   -6.4199   -0.3826   -0.9819 O   0  0  0  0  0  0  0  0  0  0  0  0
   -2.3144    1.6686    0.0210 N   0  0  0  0  0  0  0  0  0  0  0  0
   -1.0556    1.9741   -0.0045 C   0  0  0  0  0  0  0  0  0  0  0  0
   -0.4986    3.2535   -0.0645 N   0  0  0  0  0  0  0  0  0  0  0  0
   -1.1634    4.3869    0.5498 C   0  0  0  0  0  0  0  0  0  0  0  0
    1.4705    3.6435   -0.5015 H   0  0  0  0  0  0  0  0  0  0  0  0
    2.1831    1.4212    0.0900 H   0  0  0  0  0  0  0  0  0  0  0  0
    1.9362   -1.3906   -2.1609 H   0  0  0  0  0  0  0  0  0  0  0  0
    4.3971   -1.2005   -2.2132 H   0  0  0  0  0  0  0  0  0  0  0  0
    6.5163   -1.5935   -0.9778 H   0  0  0  0  0  0  0  0  0  0  0  0
    6.5480   -1.6297    0.7740 H   0  0  0  0  0  0  0  0  0  0  0  0
    7.6546    0.4197   -0.0803 H   0  0  0  0  0  0  0  0  0  0  0  0
    6.1759    0.9031   -0.9292 H   0  0  0  0  0  0  0  0  0  0  0  0
    6.2079    0.8665    0.8406 H   0  0  0  0  0  0  0  0  0  0  0  0
    4.4752   -1.2884    2.1003 H   0  0  0  0  0  0  0  0  0  0  0  0
    2.0140   -1.4780    2.1297 H   0  0  0  0  0  0  0  0  0  0  0  0
   -1.9877   -1.6044    0.0507 H   0  0  0  0  0  0  0  0  0  0  0  0
   -4.1386   -1.7566   -0.7478 H   0  0  0  0  0  0  0  0  0  0  0  0
   -4.1077   -1.7399    1.0426 H   0  0  0  0  0  0  0  0  0  0  0  0
   -6.3246   -0.5636    1.0537 H   0  0  0  0  0  0  0  0  0  0  0  0
   -7.7351   -2.3895    0.1310 H   0  0  0  0  0  0  0  0  0  0  0  0
   -6.3715   -3.0333   -0.7705 H   0  0  0  0  0  0  0  0  0  0  0  0
   -6.3532   -3.0843    1.0084 H   0  0  0  0  0  0  0  0  0  0  0  0
   -5.8202    0.3925   -1.0070 H   0  0  0  0  0  0  0  0  0  0  0  0
   -1.2072    4.2692    1.6376 H   0  0  0  0  0  0  0  0  0  0  0  0
   -2.1835    4.4907    0.1664 H   0  0  0  0  0  0  0  0  0  0  0  0
   -0.6258    5.3130    0.3217 H   0  0  0  0  0  0  0  0  0  0  0  0
  1  2  1  0
  2  3  2  0
  3  4  1  0
  4  5  2  3
  5  6  1  0
  6  7  2  0
  7  8  1  0
  8  9  2  0
  9 10  1  0
 10 11  1  0
  9 12  1  0
 12 13  2  0
  4 14  1  0
 14 15  1  0
 15 16  2  3
 16 17  1  0
 17 18  1  0
 18 19  1  0
 18 20  1  0
 15 21  1  0
 21 22  2  0
 22 23  1  0
 23 24  1  0
 23  1  1  0
 22  3  1  0
 13  6  1  0
  1 25  1  0
  2 26  1  0
  7 27  1  0
  8 28  1  0
 10 29  1  0
 10 30  1  0
 11 31  1  0
 11 32  1  0
 11 33  1  0
 12 34  1  0
 13 35  1  0
 14 36  1  0
 17 37  1  0
 17 38  1  0
 18 39  1  0
 19 40  1  0
 19 41  1  0
 19 42  1  0
 20 43  1  0
 24 44  1  0
 24 45  1  0
 24 46  1  0
M  END
>  <ScrubInfo>  (9) 
{"isomerGroup": 0, "isomerId": 8, "confId": 0, "nr_conformers:": 1, "nr_isomers:": 9}

$$$$
