_i0
     RDKit          3D

 56 59  0  0  0  0  0  0  0  0999 V2000
    7.9911    1.9957    0.0597 C   0  0  0  0  0  0  0  0  0  0  0  0
    7.6263    0.6743   -0.5904 C   0  0  0  0  0  0  0  0  0  0  0  0
    6.5005    0.0886    0.0802 O   0  0  0  0  0  0  0  0  0  0  0  0
    5.2718    0.4871   -0.3575 C   0  0  0  0  0  0  0  0  0  0  0  0
    5.0741    1.2915   -1.2571 O   0  0  0  0  0  0  0  0  0  0  0  0
    4.1924   -0.2039    0.4451 C   0  0  0  0  0  0  0  0  0  0  0  0
    4.1059    0.3955    1.8489 C   0  0  0  0  0  0  0  0  0  0  0  0
    2.9764   -0.2622    2.6336 C   0  0  0  0  0  0  0  0  0  0  0  0
    1.6417   -0.1659    1.8940 C   0  0  0  0  0  0  0  0  0  0  0  0
    1.7775   -0.6860    0.5300 N   0  0  0  0  0  0  0  0  0  0  0  0
    0.5522   -0.7970   -0.1518 C   0  0  0  0  0  0  0  0  0  0  0  0
   -0.5775   -0.9077    0.5838 N   0  0  0  0  0  0  0  0  0  0  0  0
   -1.7947   -1.0243   -0.0047 C   0  0  0  0  0  0  0  0  0  0  0  0
   -2.9021   -1.1459    0.8473 N   0  0  0  0  0  0  0  0  0  0  0  0
   -4.1549   -0.5088    0.7574 C   0  0  0  0  0  0  0  0  0  0  0  0
   -4.3830    0.6372   -0.0087 C   0  0  0  0  0  0  0  0  0  0  0  0
   -5.6491    1.2313   -0.0425 C   0  0  0  0  0  0  0  0  0  0  0  0
   -6.7086    0.6990    0.6931 C   0  0  0  0  0  0  0  0  0  0  0  0
   -7.8897    1.3758    0.5693 O   0  0  0  0  0  0  0  0  0  0  0  0
   -9.0064    0.8552    1.2793 C   0  0  0  0  0  0  0  0  0  0  0  0
   -6.4883   -0.4341    1.4726 C   0  0  0  0  0  0  0  0  0  0  0  0
   -5.2196   -1.0268    1.5060 C   0  0  0  0  0  0  0  0  0  0  0  0
   -1.8395   -1.0774   -1.3962 C   0  0  0  0  0  0  0  0  0  0  0  0
   -2.7897   -1.2448   -2.4241 C   0  0  0  0  0  0  0  0  0  0  0  0
   -2.2443   -1.2133   -3.6464 N   0  0  0  0  0  0  0  0  0  0  0  0
   -0.9258   -1.0446   -3.3898 N   0  0  0  0  0  0  0  0  0  0  0  0
    0.0072   -0.9771   -4.4859 C   0  0  0  0  0  0  0  0  0  0  0  0
   -0.6343   -0.9657   -2.0555 C   0  0  0  0  0  0  0  0  0  0  0  0
    0.5725   -0.8182   -1.4938 N   0  0  0  0  0  0  0  0  0  0  0  0
    2.8495   -0.0872   -0.2816 C   0  0  0  0  0  0  0  0  0  0  0  0
    8.8838    2.4233   -0.4053 H   0  0  0  0  0  0  0  0  0  0  0  0
    7.1719    2.7163   -0.0281 H   0  0  0  0  0  0  0  0  0  0  0  0
    8.1808    1.8583    1.1293 H   0  0  0  0  0  0  0  0  0  0  0  0
    7.4339    0.7934   -1.6628 H   0  0  0  0  0  0  0  0  0  0  0  0
    8.4598   -0.0284   -0.4892 H   0  0  0  0  0  0  0  0  0  0  0  0
    4.4527   -1.2692    0.5115 H   0  0  0  0  0  0  0  0  0  0  0  0
    3.9367    1.4784    1.7895 H   0  0  0  0  0  0  0  0  0  0  0  0
    5.0528    0.2570    2.3842 H   0  0  0  0  0  0  0  0  0  0  0  0
    2.8868    0.2070    3.6198 H   0  0  0  0  0  0  0  0  0  0  0  0
    3.2235   -1.3182    2.8019 H   0  0  0  0  0  0  0  0  0  0  0  0
    1.3072    0.8796    1.8701 H   0  0  0  0  0  0  0  0  0  0  0  0
    0.9121   -0.7428    2.4758 H   0  0  0  0  0  0  0  0  0  0  0  0
   -2.5495   -1.1315    1.8015 H   0  0  0  0  0  0  0  0  0  0  0  0
   -3.5815    1.1021   -0.5760 H   0  0  0  0  0  0  0  0  0  0  0  0
   -5.8072    2.1221   -0.6461 H   0  0  0  0  0  0  0  0  0  0  0  0
   -8.8331    0.8809    2.3602 H   0  0  0  0  0  0  0  0  0  0  0  0
   -9.2526   -0.1570    0.9416 H   0  0  0  0  0  0  0  0  0  0  0  0
   -9.8671    1.4961    1.0650 H   0  0  0  0  0  0  0  0  0  0  0  0
   -7.2767   -0.8847    2.0656 H   0  0  0  0  0  0  0  0  0  0  0  0
   -5.0696   -1.9158    2.1150 H   0  0  0  0  0  0  0  0  0  0  0  0
   -3.8590   -1.3869   -2.3307 H   0  0  0  0  0  0  0  0  0  0  0  0
    1.0167   -0.7989   -4.1087 H   0  0  0  0  0  0  0  0  0  0  0  0
   -0.0259   -1.9279   -5.0237 H   0  0  0  0  0  0  0  0  0  0  0  0
   -0.2917   -0.1560   -5.1424 H   0  0  0  0  0  0  0  0  0  0  0  0
    2.6103    0.9645   -0.4922 H   0  0  0  0  0  0  0  0  0  0  0  0
    2.9535   -0.6021   -1.2460 H   0  0  0  0  0  0  0  0  0  0  0  0
  1  2  1  0
  2  3  1  0
  3  4  1  0
  4  5  2  0
  4  6  1  0
  6  7  1  0
  7  8  1  0
  8  9  1  0
  9 10  1  0
 10 11  1  0
 11 12  2  0
 12 13  1  0
 13 14  1  0
 14 15  1  0
 15 16  2  0
 16 17  1  0
 17 18  2  0
 18 19  1  0
 19 20  1  0
 18 21  1  0
 21 22  2  0
 13 23  2  0
 23 24  1  0
 24 25  2  0
 25 26  1  0
 26 27  1  0
 26 28  1  0
 28 29  2  0
 10 30  1  0
 30  6  1  0
 29 11  1  0
 22 15  1  0
 28 23  1  0
  1 31  1  0
  1 32  1  0
  1 33  1  0
  2 34  1  0
  2 35  1  0
  6 36  1  0
  7 37  1  0
  7 38  1  0
  8 39  1  0
  8 40  1  0
  9 41  1  0
  9 42  1  0
 14 43  1  0
 16 44  1  0
 17 45  1  0
 20 46  1  0
 20 47  1  0
 20 48  1  0
 21 49  1  0
 22 50  1  0
 24 51  1  0
 27 52  1  0
 27 53  1  0
 27 54  1  0
 30 55  1  0
 30 56  1  0
M  END
>  <ScrubInfo>  (1) 
{"isomerGroup": 0, "isomerId": 0, "confId": 0, "nr_conformers:": 1, "nr_isomers:": 4}

$$$$
_i1
     RDKit          3D

 56 59  0  0  0  0  0  0  0  0999 V2000
   -2.1136   -3.3268   -2.5643 N   0  0  0  0  0  0  0  0  0  0  0  0
   -1.6923   -3.0998   -1.2734 C   0  0  0  0  0  0  0  0  0  0  0  0
   -2.4959   -2.2161   -0.5662 N   0  0  0  0  0  0  0  0  0  0  0  0
   -2.3640   -2.2395    0.9041 C   0  0  0  0  0  0  0  0  0  0  0  0
   -3.5888   -1.5989    1.5519 C   0  0  0  0  0  0  0  0  0  0  0  0
   -3.8217   -0.1839    1.0323 C   0  0  0  0  0  0  0  0  0  0  0  0
   -3.8897   -0.1772   -0.4965 C   0  0  0  0  0  0  0  0  0  0  0  0
   -4.0124    1.2368   -1.0192 C   0  0  0  0  0  0  0  0  0  0  0  0
   -3.1531    1.8237   -1.6615 O   0  0  0  0  0  0  0  0  0  0  0  0
   -5.2259    1.7567   -0.6821 O   0  0  0  0  0  0  0  0  0  0  0  0
   -5.4422    3.0982   -1.1382 C   0  0  0  0  0  0  0  0  0  0  0  0
   -6.8196    3.5367   -0.6809 C   0  0  0  0  0  0  0  0  0  0  0  0
   -2.6465   -0.8404   -1.0936 C   0  0  0  0  0  0  0  0  0  0  0  0
   -0.6445   -3.6888   -0.7497 N   0  0  0  0  0  0  0  0  0  0  0  0
   -0.0233   -4.5128   -1.6394 C   0  0  0  0  0  0  0  0  0  0  0  0
   -0.3786   -4.7969   -2.9491 C   0  0  0  0  0  0  0  0  0  0  0  0
    0.6073   -5.6977   -3.3891 C   0  0  0  0  0  0  0  0  0  0  0  0
    1.5212   -5.9673   -2.4477 N   0  0  0  0  0  0  0  0  0  0  0  0
    1.1098   -5.2341   -1.3886 N   0  0  0  0  0  0  0  0  0  0  0  0
    1.8678   -5.2771   -0.1638 C   0  0  0  0  0  0  0  0  0  0  0  0
   -1.5625   -4.1691   -3.5002 C   0  0  0  0  0  0  0  0  0  0  0  0
   -2.0978   -4.3242   -4.6730 N   0  0  0  0  0  0  0  0  0  0  0  0
   -1.5525   -5.1820   -5.6285 C   0  0  0  0  0  0  0  0  0  0  0  0
   -0.6448   -4.6980   -6.5732 C   0  0  0  0  0  0  0  0  0  0  0  0
   -0.1165   -5.5448   -7.5547 C   0  0  0  0  0  0  0  0  0  0  0  0
   -0.5076   -6.8830   -7.6074 C   0  0  0  0  0  0  0  0  0  0  0  0
   -0.0709   -7.8142   -8.5082 O   0  0  0  0  0  0  0  0  0  0  0  0
    0.9027   -7.3875   -9.4527 C   0  0  0  0  0  0  0  0  0  0  0  0
   -1.4360   -7.3600   -6.6784 C   0  0  0  0  0  0  0  0  0  0  0  0
   -1.9622   -6.5136   -5.6993 C   0  0  0  0  0  0  0  0  0  0  0  0
   -3.0088   -2.9488   -2.8248 H   0  0  0  0  0  0  0  0  0  0  0  0
   -2.2913   -3.2734    1.2630 H   0  0  0  0  0  0  0  0  0  0  0  0
   -1.4502   -1.7139    1.2082 H   0  0  0  0  0  0  0  0  0  0  0  0
   -4.4752   -2.2101    1.3400 H   0  0  0  0  0  0  0  0  0  0  0  0
   -3.4645   -1.5785    2.6404 H   0  0  0  0  0  0  0  0  0  0  0  0
   -3.0131    0.4739    1.3765 H   0  0  0  0  0  0  0  0  0  0  0  0
   -4.7494    0.2144    1.4601 H   0  0  0  0  0  0  0  0  0  0  0  0
   -4.7733   -0.7361   -0.8328 H   0  0  0  0  0  0  0  0  0  0  0  0
   -4.6816    3.7610   -0.7107 H   0  0  0  0  0  0  0  0  0  0  0  0
   -5.3876    3.1293   -2.2321 H   0  0  0  0  0  0  0  0  0  0  0  0
   -7.5897    2.8702   -1.0832 H   0  0  0  0  0  0  0  0  0  0  0  0
   -7.0318    4.5589   -1.0064 H   0  0  0  0  0  0  0  0  0  0  0  0
   -6.8964    3.4897    0.4104 H   0  0  0  0  0  0  0  0  0  0  0  0
   -2.7391   -0.8490   -2.1863 H   0  0  0  0  0  0  0  0  0  0  0  0
   -1.7392   -0.2663   -0.8620 H   0  0  0  0  0  0  0  0  0  0  0  0
    0.7175   -6.1793   -4.3506 H   0  0  0  0  0  0  0  0  0  0  0  0
    2.8661   -4.8801   -0.3645 H   0  0  0  0  0  0  0  0  0  0  0  0
    1.3775   -4.6760    0.6049 H   0  0  0  0  0  0  0  0  0  0  0  0
    1.9301   -6.3172    0.1665 H   0  0  0  0  0  0  0  0  0  0  0  0
   -0.3457   -3.6536   -6.5438 H   0  0  0  0  0  0  0  0  0  0  0  0
    0.5908   -5.1251   -8.2617 H   0  0  0  0  0  0  0  0  0  0  0  0
    1.1586   -8.2466  -10.0803 H   0  0  0  0  0  0  0  0  0  0  0  0
    1.8190   -7.0549   -8.9537 H   0  0  0  0  0  0  0  0  0  0  0  0
    0.5015   -6.6057  -10.1062 H   0  0  0  0  0  0  0  0  0  0  0  0
   -1.7549   -8.3986   -6.7192 H   0  0  0  0  0  0  0  0  0  0  0  0
   -2.6912   -6.8949   -4.9900 H   0  0  0  0  0  0  0  0  0  0  0  0
  1  2  1  0
  2  3  1  0
  3  4  1  0
  4  5  1  0
  5  6  1  0
  6  7  1  0
  7  8  1  0
  8  9  2  0
  8 10  1  0
 10 11  1  0
 11 12  1  0
  7 13  1  0
  2 14  2  0
 14 15  1  0
 15 16  2  0
 16 17  1  0
 17 18  2  0
 18 19  1  0
 19 20  1  0
 16 21  1  0
 21 22  2  3
 22 23  1  0
 23 24  2  0
 24 25  1  0
 25 26  2  0
 26 27  1  0
 27 28  1  0
 26 29  1  0
 29 30  2  0
 21  1  1  0
 30 23  1  0
 13  3  1  0
 19 15  1  0
  1 31  1  0
  4 32  1  0
  4 33  1  0
  5 34  1  0
  5 35  1  0
  6 36  1  0
  6 37  1  0
  7 38  1  0
 11 39  1  0
 11 40  1  0
 12 41  1  0
 12 42  1  0
 12 43  1  0
 13 44  1  0
 13 45  1  0
 17 46  1  0
 20 47  1  0
 20 48  1  0
 20 49  1  0
 24 50  1  0
 25 51  1  0
 28 52  1  0
 28 53  1  0
 28 54  1  0
 29 55  1  0
 30 56  1  0
M  END
>  <ScrubInfo>  (2) 
{"isomerGroup": 0, "isomerId": 1, "confId": 0, "nr_conformers:": 1, "nr_isomers:": 4}

$$$$
_i2
     RDKit          3D

 56 59  0  0  0  0  0  0  0  0999 V2000
   -2.1325   -4.9121    3.3193 N   0  0  0  0  0  0  0  0  0  0  0  0
   -1.6775   -3.7265    3.8883 C   0  0  0  0  0  0  0  0  0  0  0  0
   -1.5215   -2.7463    2.9895 C   0  0  0  0  0  0  0  0  0  0  0  0
   -1.1399   -1.3557    2.9869 C   0  0  0  0  0  0  0  0  0  0  0  0
   -0.7894   -0.7335    4.0692 N   0  0  0  0  0  0  0  0  0  0  0  0
   -0.4542    0.6244    3.9824 C   0  0  0  0  0  0  0  0  0  0  0  0
   -1.4028    1.6001    4.2886 C   0  0  0  0  0  0  0  0  0  0  0  0
   -1.0626    2.9544    4.2421 C   0  0  0  0  0  0  0  0  0  0  0  0
    0.2321    3.3507    3.8986 C   0  0  0  0  0  0  0  0  0  0  0  0
    0.4325    4.7041    3.8890 O   0  0  0  0  0  0  0  0  0  0  0  0
    1.7485    5.1535    3.5921 C   0  0  0  0  0  0  0  0  0  0  0  0
    1.1866    2.3773    3.6019 C   0  0  0  0  0  0  0  0  0  0  0  0
    0.8435    1.0208    3.6512 C   0  0  0  0  0  0  0  0  0  0  0  0
   -1.1948   -0.7589    1.7581 N   0  0  0  0  0  0  0  0  0  0  0  0
   -1.5502   -1.3823    0.6694 C   0  0  0  0  0  0  0  0  0  0  0  0
   -1.5795   -0.6784   -0.5272 N   0  0  0  0  0  0  0  0  0  0  0  0
   -2.3964   -1.1486   -1.6470 C   0  0  0  0  0  0  0  0  0  0  0  0
   -3.7936   -0.5382   -1.5265 C   0  0  0  0  0  0  0  0  0  0  0  0
   -3.7209    0.9905   -1.4612 C   0  0  0  0  0  0  0  0  0  0  0  0
   -2.7411    1.4745   -0.3751 C   0  0  0  0  0  0  0  0  0  0  0  0
   -2.5390    2.9725   -0.4507 C   0  0  0  0  0  0  0  0  0  0  0  0
   -2.9538    3.6893   -1.3516 O   0  0  0  0  0  0  0  0  0  0  0  0
   -1.8397    3.4084    0.6321 O   0  0  0  0  0  0  0  0  0  0  0  0
   -1.5783    4.8179    0.6945 C   0  0  0  0  0  0  0  0  0  0  0  0
   -2.7159    5.5251    1.4052 C   0  0  0  0  0  0  0  0  0  0  0  0
   -1.3877    0.7797   -0.5324 C   0  0  0  0  0  0  0  0  0  0  0  0
   -1.8998   -2.7141    0.6232 N   0  0  0  0  0  0  0  0  0  0  0  0
   -1.8688   -3.3876    1.7189 C   0  0  0  0  0  0  0  0  0  0  0  0
   -2.1457   -4.7389    1.9363 N   0  0  0  0  0  0  0  0  0  0  0  0
   -3.1474   -5.4308    1.1492 C   0  0  0  0  0  0  0  0  0  0  0  0
   -1.6369   -5.7380    3.6632 H   0  0  0  0  0  0  0  0  0  0  0  0
   -1.4925   -3.6768    4.9522 H   0  0  0  0  0  0  0  0  0  0  0  0
   -2.4100    1.3030    4.5643 H   0  0  0  0  0  0  0  0  0  0  0  0
   -1.8126    3.7040    4.4790 H   0  0  0  0  0  0  0  0  0  0  0  0
    1.7477    6.2465    3.6443 H   0  0  0  0  0  0  0  0  0  0  0  0
    2.0417    4.8696    2.5760 H   0  0  0  0  0  0  0  0  0  0  0  0
    2.4687    4.7855    4.3303 H   0  0  0  0  0  0  0  0  0  0  0  0
    2.2047    2.6331    3.3313 H   0  0  0  0  0  0  0  0  0  0  0  0
    1.5904    0.2651    3.4258 H   0  0  0  0  0  0  0  0  0  0  0  0
   -2.4593   -2.2410   -1.6917 H   0  0  0  0  0  0  0  0  0  0  0  0
   -1.9332   -0.8338   -2.5906 H   0  0  0  0  0  0  0  0  0  0  0  0
   -4.4079   -0.8427   -2.3810 H   0  0  0  0  0  0  0  0  0  0  0  0
   -4.2866   -0.9148   -0.6218 H   0  0  0  0  0  0  0  0  0  0  0  0
   -4.7205    1.4009   -1.2740 H   0  0  0  0  0  0  0  0  0  0  0  0
   -3.4094    1.3692   -2.4437 H   0  0  0  0  0  0  0  0  0  0  0  0
   -3.1809    1.2435    0.6040 H   0  0  0  0  0  0  0  0  0  0  0  0
   -0.6494    4.9494    1.2572 H   0  0  0  0  0  0  0  0  0  0  0  0
   -1.4082    5.2384   -0.3032 H   0  0  0  0  0  0  0  0  0  0  0  0
   -3.6546    5.4067    0.8548 H   0  0  0  0  0  0  0  0  0  0  0  0
   -2.5040    6.5928    1.5101 H   0  0  0  0  0  0  0  0  0  0  0  0
   -2.8745    5.0971    2.4002 H   0  0  0  0  0  0  0  0  0  0  0  0
   -0.9207    1.0733   -1.4825 H   0  0  0  0  0  0  0  0  0  0  0  0
   -0.6785    1.0951    0.2421 H   0  0  0  0  0  0  0  0  0  0  0  0
   -3.1578   -6.4969    1.3981 H   0  0  0  0  0  0  0  0  0  0  0  0
   -4.1443   -5.0192    1.3391 H   0  0  0  0  0  0  0  0  0  0  0  0
   -2.9284   -5.3393    0.0806 H   0  0  0  0  0  0  0  0  0  0  0  0
  1  2  1  0
  2  3  2  0
  3  4  1  0
  4  5  2  3
  5  6  1  0
  6  7  2  0
  7  8  1  0
  8  9  2  0
  9 10  1  0
 10 11  1  0
  9 12  1  0
 12 13  2  0
  4 14  1  0
 14 15  2  0
 15 16  1  0
 16 17  1  0
 17 18  1  0
 18 19  1  0
 19 20  1  0
 20 21  1  0
 21 22  2  0
 21 23  1  0
 23 24  1  0
 24 25  1  0
 20 26  1  0
 15 27  1  0
 27 28  2  0
 28 29  1  0
 29 30  1  0
 29  1  1  0
 28  3  1  0
 13  6  1  0
 26 16  1  0
  1 31  1  0
  2 32  1  0
  7 33  1  0
  8 34  1  0
 11 35  1  0
 11 36  1  0
 11 37  1  0
 12 38  1  0
 13 39  1  0
 17 40  1  0
 17 41  1  0
 18 42  1  0
 18 43  1  0
 19 44  1  0
 19 45  1  0
 20 46  1  0
 24 47  1  0
 24 48  1  0
 25 49  1  0
 25 50  1  0
 25 51  1  0
 26 52  1  0
 26 53  1  0
 30 54  1  0
 30 55  1  0
 30 56  1  0
M  END
>  <ScrubInfo>  (3) 
{"isomerGroup": 0, "isomerId": 2, "confId": 0, "nr_conformers:": 1, "nr_isomers:": 4}

$$$$
_i3
     RDKit          3D

 56 59  0  0  0  0  0  0  0  0999 V2000
   -1.2588   -1.7616    0.9305 N   0  0  0  0  0  0  0  0  0  0  0  0
   -1.1016   -0.9503   -0.1726 C   0  0  0  0  0  0  0  0  0  0  0  0
   -1.8627    0.2070   -0.1166 N   0  0  0  0  0  0  0  0  0  0  0  0
   -1.5238    1.3115   -1.0343 C   0  0  0  0  0  0  0  0  0  0  0  0
   -2.2352    1.1375   -2.3761 C   0  0  0  0  0  0  0  0  0  0  0  0
   -3.7441    0.9710   -2.1940 C   0  0  0  0  0  0  0  0  0  0  0  0
   -4.0633   -0.1308   -1.1760 C   0  0  0  0  0  0  0  0  0  0  0  0
   -5.5491   -0.1961   -0.9016 C   0  0  0  0  0  0  0  0  0  0  0  0
   -6.0700    0.0484    0.1781 O   0  0  0  0  0  0  0  0  0  0  0  0
   -6.2176   -0.5795   -2.0248 O   0  0  0  0  0  0  0  0  0  0  0  0
   -7.6438   -0.6881   -1.9045 C   0  0  0  0  0  0  0  0  0  0  0  0
   -8.2927    0.6594   -2.1588 C   0  0  0  0  0  0  0  0  0  0  0  0
   -3.3150    0.1272    0.1362 C   0  0  0  0  0  0  0  0  0  0  0  0
   -0.3045   -1.2173   -1.1705 N   0  0  0  0  0  0  0  0  0  0  0  0
    0.4407   -2.3881   -1.1911 C   0  0  0  0  0  0  0  0  0  0  0  0
    1.1546   -2.5843   -2.2540 N   0  0  0  0  0  0  0  0  0  0  0  0
    1.9510   -3.7147   -2.4245 C   0  0  0  0  0  0  0  0  0  0  0  0
    1.4315   -4.8643   -3.0206 C   0  0  0  0  0  0  0  0  0  0  0  0
    2.2438   -5.9843   -3.2146 C   0  0  0  0  0  0  0  0  0  0  0  0
    3.5880   -5.9630   -2.8335 C   0  0  0  0  0  0  0  0  0  0  0  0
    4.2688   -7.1238   -3.0760 O   0  0  0  0  0  0  0  0  0  0  0  0
    5.6407   -7.1539   -2.7029 C   0  0  0  0  0  0  0  0  0  0  0  0
    4.1170   -4.8045   -2.2636 C   0  0  0  0  0  0  0  0  0  0  0  0
    3.3014   -3.6837   -2.0692 C   0  0  0  0  0  0  0  0  0  0  0  0
    0.3344   -3.2453   -0.0237 C   0  0  0  0  0  0  0  0  0  0  0  0
    0.8986   -4.4450    0.4469 C   0  0  0  0  0  0  0  0  0  0  0  0
    0.4435   -4.7946    1.6614 N   0  0  0  0  0  0  0  0  0  0  0  0
   -0.4282   -3.8093    1.9726 N   0  0  0  0  0  0  0  0  0  0  0  0
   -1.1275   -3.8634    3.2309 C   0  0  0  0  0  0  0  0  0  0  0  0
   -0.5157   -2.8788    0.9878 C   0  0  0  0  0  0  0  0  0  0  0  0
   -1.6931   -1.3389    1.7397 H   0  0  0  0  0  0  0  0  0  0  0  0
   -1.8332    2.2582   -0.5739 H   0  0  0  0  0  0  0  0  0  0  0  0
   -0.4396    1.3844   -1.1797 H   0  0  0  0  0  0  0  0  0  0  0  0
   -2.0345    2.0045   -3.0154 H   0  0  0  0  0  0  0  0  0  0  0  0
   -1.8405    0.2586   -2.8993 H   0  0  0  0  0  0  0  0  0  0  0  0
   -4.1789    1.9229   -1.8617 H   0  0  0  0  0  0  0  0  0  0  0  0
   -4.2043    0.7436   -3.1629 H   0  0  0  0  0  0  0  0  0  0  0  0
   -3.7542   -1.1072   -1.5720 H   0  0  0  0  0  0  0  0  0  0  0  0
   -7.9312   -1.0947   -0.9281 H   0  0  0  0  0  0  0  0  0  0  0  0
   -7.9751   -1.4056   -2.6623 H   0  0  0  0  0  0  0  0  0  0  0  0
   -7.9760    1.3951   -1.4127 H   0  0  0  0  0  0  0  0  0  0  0  0
   -7.9956    1.0505   -3.1374 H   0  0  0  0  0  0  0  0  0  0  0  0
   -9.3828    0.5771   -2.1274 H   0  0  0  0  0  0  0  0  0  0  0  0
   -3.5527   -0.6526    0.8690 H   0  0  0  0  0  0  0  0  0  0  0  0
   -3.6433    1.0716    0.5908 H   0  0  0  0  0  0  0  0  0  0  0  0
    0.3923   -4.8870   -3.3362 H   0  0  0  0  0  0  0  0  0  0  0  0
    1.8269   -6.8777   -3.6727 H   0  0  0  0  0  0  0  0  0  0  0  0
    6.2188   -6.4133   -3.2653 H   0  0  0  0  0  0  0  0  0  0  0  0
    5.7598   -7.0130   -1.6235 H   0  0  0  0  0  0  0  0  0  0  0  0
    6.0338   -8.1436   -2.9545 H   0  0  0  0  0  0  0  0  0  0  0  0
    5.1574   -4.7341   -1.9655 H   0  0  0  0  0  0  0  0  0  0  0  0
    3.7205   -2.7773   -1.6397 H   0  0  0  0  0  0  0  0  0  0  0  0
    1.6278   -5.0911   -0.0225 H   0  0  0  0  0  0  0  0  0  0  0  0
   -1.9145   -3.1066    3.2522 H   0  0  0  0  0  0  0  0  0  0  0  0
   -1.5720   -4.8561    3.3402 H   0  0  0  0  0  0  0  0  0  0  0  0
   -0.4067   -3.6773    4.0308 H   0  0  0  0  0  0  0  0  0  0  0  0
  1  2  1  0
  2  3  1  0
  3  4  1  0
  4  5  1  0
  5  6  1  0
  6  7  1  0
  7  8  1  0
  8  9  2  0
  8 10  1  0
 10 11  1  0
 11 12  1  0
  7 13  1  0
  2 14  2  0
 14 15  1  0
 15 16  2  3
 16 17  1  0
 17 18  2  0
 18 19  1  0
 19 20  2  0
 20 21  1  0
 21 22  1  0
 20 23  1  0
 23 24  2  0
 15 25  1  0
 25 26  1  0
 26 27  2  0
 27 28  1  0
 28 29  1  0
 28 30  1  0
 30  1  1  0
 13  3  1  0
 24 17  1  0
 30 25  2  0
  1 31  1  0
  4 32  1  0
  4 33  1  0
  5 34  1  0
  5 35  1  0
  6 36  1  0
  6 37  1  0
  7 38  1  0
 11 39  1  0
 11 40  1  0
 12 41  1  0
 12 42  1  0
 12 43  1  0
 13 44  1  0
 13 45  1  0
 18 46  1  0
 19 47  1  0
 22 48  1  0
 22 49  1  0
 22 50  1  0
 23 51  1  0
 24 52  1  0
 26 53  1  0
 29 54  1  0
 29 55  1  0
 29 56  1  0
M  END
>  <ScrubInfo>  (4) 
{"isomerGroup": 0, "isomerId": 3, "confId": 0, "nr_conformers:": 1, "nr_isomers:": 4}

$$$$
