REMARK SMILES CCOC(=O)[C@H]1CCCN(c2nc(Nc3ccc(OC)cc3)c3cnn(C)c3n2)C1
REMARK SMILES IDX 11 1 12 2 13 3 23 4 24 5 25 6 26 7 27 8 28 9 29 10 10 11
REMARK SMILES IDX 6 12 7 13 30 14 8 15 9 16 4 17 5 18 3 19 2 20 1 21 14 22
REMARK SMILES IDX 15 24 16 25 22 26 17 27 21 28 18 29 19 30 20 31
REMARK H PARENT 14 23
ROOT
ATOM      1  C   UNL     1       0.552  -0.797  -0.152  1.00  0.00     0.229 A 
ATOM      2  N   UNL     1      -0.578  -0.908   0.584  1.00  0.00    -0.195 NA
ATOM      3  C   UNL     1      -1.795  -1.024  -0.005  1.00  0.00     0.147 A 
ATOM      4  C   UNL     1      -1.839  -1.077  -1.396  1.00  0.00     0.082 A 
ATOM      5  C   UNL     1      -2.790  -1.245  -2.424  1.00  0.00     0.149 A 
ATOM      6  N   UNL     1      -2.244  -1.213  -3.646  1.00  0.00    -0.179 NA
ATOM      7  N   UNL     1      -0.926  -1.045  -3.390  1.00  0.00    -0.250 N 
ATOM      8  C   UNL     1       0.007  -0.977  -4.486  1.00  0.00     0.176 C 
ATOM      9  C   UNL     1      -0.634  -0.966  -2.055  1.00  0.00     0.165 A 
ATOM     10  N   UNL     1       0.573  -0.818  -1.494  1.00  0.00    -0.193 NA
ENDROOT
BRANCH   1  11
ATOM     11  N   UNL     1       1.778  -0.686   0.530  1.00  0.00    -0.340 N 
ATOM     12  C   UNL     1       4.192  -0.204   0.445  1.00  0.00     0.119 C 
ATOM     13  C   UNL     1       4.106   0.396   1.849  1.00  0.00     0.019 C 
ATOM     14  C   UNL     1       2.849  -0.087  -0.282  1.00  0.00     0.135 C 
ATOM     15  C   UNL     1       2.976  -0.262   2.634  1.00  0.00     0.022 C 
ATOM     16  C   UNL     1       1.642  -0.166   1.894  1.00  0.00     0.120 C 
BRANCH  12  17
ATOM     17  C   UNL     1       5.272   0.487  -0.357  1.00  0.00     0.310 C 
ATOM     18  O   UNL     1       5.074   1.292  -1.257  1.00  0.00    -0.252 OA
BRANCH  17  19
ATOM     19  O   UNL     1       6.500   0.089   0.080  1.00  0.00    -0.466 OA
BRANCH  19  20
ATOM     20  C   UNL     1       7.626   0.674  -0.590  1.00  0.00     0.229 C 
ATOM     21  C   UNL     1       7.991   1.996   0.060  1.00  0.00     0.049 C 
ENDBRANCH  19  20
ENDBRANCH  17  19
ENDBRANCH  12  17
ENDBRANCH   1  11
BRANCH   3  22
ATOM     22  N   UNL     1      -2.902  -1.146   0.847  1.00  0.00    -0.339 N 
ATOM     23  H   UNL     1      -2.550  -1.131   1.802  1.00  0.00     0.168 HD
BRANCH  22  24
ATOM     24  C   UNL     1      -4.155  -0.509   0.757  1.00  0.00     0.040 A 
ATOM     25  C   UNL     1      -4.383   0.637  -0.009  1.00  0.00     0.030 A 
ATOM     26  C   UNL     1      -5.220  -1.027   1.506  1.00  0.00     0.030 A 
ATOM     27  C   UNL     1      -5.649   1.231  -0.043  1.00  0.00     0.048 A 
ATOM     28  C   UNL     1      -6.488  -0.434   1.473  1.00  0.00     0.048 A 
ATOM     29  C   UNL     1      -6.709   0.699   0.693  1.00  0.00     0.119 A 
BRANCH  29  30
ATOM     30  O   UNL     1      -7.890   1.376   0.569  1.00  0.00    -0.497 OA
ATOM     31  C   UNL     1      -9.006   0.855   1.279  1.00  0.00     0.278 C 
ENDBRANCH  29  30
ENDBRANCH  22  24
ENDBRANCH   3  22
TORSDOF 7
