REMARK SMILES Cc1cccc(Nc2nc(NCCCCCO)nc3c2cnn3C)c1
REMARK SMILES IDX 12 1 11 2 10 4 8 5 9 6 20 7 19 8 21 9 18 10 23 11 22 12
REMARK SMILES IDX 24 13 7 14 6 16 2 17 3 18 25 19 4 20 5 21 1 22 13 23 14 24
REMARK SMILES IDX 15 25 16 26 17 27
REMARK H PARENT 11 3 7 15 17 28
ROOT
ATOM      1  C   UNL     1       2.841  -1.839  -1.777  1.00  0.00     0.116 C 
ENDROOT
BRANCH   1   2
ATOM      2  N   UNL     1       1.759  -0.894  -1.991  1.00  0.00    -0.354 N 
ATOM      3  H   UNL     1       2.029   0.078  -2.091  1.00  0.00     0.163 HD
BRANCH   2   4
ATOM      4  C   UNL     1       0.703  -0.924  -1.093  1.00  0.00     0.226 A 
ATOM      5  C   UNL     1      -0.923   0.376  -0.018  1.00  0.00     0.147 A 
ATOM      6  N   UNL     1       0.133   0.273  -0.864  1.00  0.00    -0.195 NA
ATOM      7  C   UNL     1      -1.355  -0.783   0.628  1.00  0.00     0.082 A 
ATOM      8  C   UNL     1      -0.691  -1.953   0.318  1.00  0.00     0.165 A 
ATOM      9  C   UNL     1      -2.316  -1.169   1.586  1.00  0.00     0.149 A 
ATOM     10  N   UNL     1       0.335  -2.086  -0.535  1.00  0.00    -0.193 NA
ATOM     11  N   UNL     1      -1.289  -2.934   1.059  1.00  0.00    -0.250 N 
ATOM     12  N   UNL     1      -2.291  -2.481   1.849  1.00  0.00    -0.179 NA
ATOM     13  C   UNL     1      -0.953  -4.335   1.074  1.00  0.00     0.176 C 
BRANCH   5  14
ATOM     14  N   UNL     1      -1.455   1.659   0.183  1.00  0.00    -0.339 N 
ATOM     15  H   UNL     1      -0.926   2.295  -0.410  1.00  0.00     0.168 HD
BRANCH  14  16
ATOM     16  C   UNL     1      -2.812   2.039   0.241  1.00  0.00     0.040 A 
ATOM     17  C   UNL     1      -5.179   1.714  -0.267  1.00  0.00    -0.049 A 
ATOM     18  C   UNL     1      -5.477   2.926   0.363  1.00  0.00     0.003 A 
ATOM     19  C   UNL     1      -3.846   1.278  -0.319  1.00  0.00     0.029 A 
ATOM     20  C   UNL     1      -4.455   3.705   0.902  1.00  0.00     0.002 A 
ATOM     21  C   UNL     1      -3.132   3.268   0.831  1.00  0.00     0.026 A 
ATOM     22  C   UNL     1      -6.275   0.860  -0.834  1.00  0.00     0.044 C 
ENDBRANCH  14  16
ENDBRANCH   5  14
ENDBRANCH   2   4
ENDBRANCH   1   2
BRANCH   1  23
ATOM     23  C   UNL     1       3.700  -1.498  -0.555  1.00  0.00     0.021 C 
BRANCH  23  24
ATOM     24  C   UNL     1       4.496  -0.201  -0.729  1.00  0.00     0.004 C 
BRANCH  24  25
ATOM     25  C   UNL     1       5.386   0.071   0.489  1.00  0.00     0.028 C 
BRANCH  25  26
ATOM     26  C   UNL     1       6.233   1.326   0.317  1.00  0.00     0.156 C 
BRANCH  26  27
ATOM     27  O   UNL     1       5.394   2.464   0.185  1.00  0.00    -0.396 OA
ATOM     28  H   UNL     1       5.975   3.240   0.110  1.00  0.00     0.210 HD
ENDBRANCH  26  27
ENDBRANCH  25  26
ENDBRANCH  24  25
ENDBRANCH  23  24
ENDBRANCH   1  23
TORSDOF 9
