_i0
     RDKit          3D

 49 51  0  0  0  0  0  0  0  0999 V2000
   -6.2753    0.8604   -0.8340 C   0  0  0  0  0  0  0  0  0  0  0  0
   -5.1792    1.7136   -0.2671 C   0  0  0  0  0  0  0  0  0  0  0  0
   -5.4767    2.9259    0.3630 C   0  0  0  0  0  0  0  0  0  0  0  0
   -4.4552    3.7053    0.9019 C   0  0  0  0  0  0  0  0  0  0  0  0
   -3.1318    3.2678    0.8314 C   0  0  0  0  0  0  0  0  0  0  0  0
   -2.8117    2.0393    0.2408 C   0  0  0  0  0  0  0  0  0  0  0  0
   -1.4550    1.6588    0.1827 N   0  0  0  0  0  0  0  0  0  0  0  0
   -0.9227    0.3762   -0.0178 C   0  0  0  0  0  0  0  0  0  0  0  0
    0.1330    0.2734   -0.8638 N   0  0  0  0  0  0  0  0  0  0  0  0
    0.7033   -0.9244   -1.0929 C   0  0  0  0  0  0  0  0  0  0  0  0
    1.7587   -0.8940   -1.9913 N   0  0  0  0  0  0  0  0  0  0  0  0
    2.8405   -1.8389   -1.7772 C   0  0  0  0  0  0  0  0  0  0  0  0
    3.7001   -1.4983   -0.5552 C   0  0  0  0  0  0  0  0  0  0  0  0
    4.4961   -0.2006   -0.7289 C   0  0  0  0  0  0  0  0  0  0  0  0
    5.3859    0.0706    0.4886 C   0  0  0  0  0  0  0  0  0  0  0  0
    6.2333    1.3258    0.3166 C   0  0  0  0  0  0  0  0  0  0  0  0
    5.3941    2.4636    0.1848 O   0  0  0  0  0  0  0  0  0  0  0  0
    0.3351   -2.0863   -0.5351 N   0  0  0  0  0  0  0  0  0  0  0  0
   -0.6907   -1.9527    0.3179 C   0  0  0  0  0  0  0  0  0  0  0  0
   -1.3549   -0.7835    0.6284 C   0  0  0  0  0  0  0  0  0  0  0  0
   -2.3157   -1.1688    1.5860 C   0  0  0  0  0  0  0  0  0  0  0  0
   -2.2908   -2.4813    1.8494 N   0  0  0  0  0  0  0  0  0  0  0  0
   -1.2894   -2.9341    1.0591 N   0  0  0  0  0  0  0  0  0  0  0  0
   -0.9531   -4.3351    1.0742 C   0  0  0  0  0  0  0  0  0  0  0  0
   -3.8459    1.2779   -0.3191 C   0  0  0  0  0  0  0  0  0  0  0  0
   -7.1277    1.4731   -1.1460 H   0  0  0  0  0  0  0  0  0  0  0  0
   -5.9271    0.3153   -1.7177 H   0  0  0  0  0  0  0  0  0  0  0  0
   -6.6144    0.1402   -0.0832 H   0  0  0  0  0  0  0  0  0  0  0  0
   -6.5051    3.2734    0.4309 H   0  0  0  0  0  0  0  0  0  0  0  0
   -4.6885    4.6526    1.3807 H   0  0  0  0  0  0  0  0  0  0  0  0
   -2.3456    3.8840    1.2613 H   0  0  0  0  0  0  0  0  0  0  0  0
   -0.9264    2.2954   -0.4103 H   0  0  0  0  0  0  0  0  0  0  0  0
    2.0293    0.0780   -2.0910 H   0  0  0  0  0  0  0  0  0  0  0  0
    3.4738   -1.8361   -2.6723 H   0  0  0  0  0  0  0  0  0  0  0  0
    2.4556   -2.8624   -1.6897 H   0  0  0  0  0  0  0  0  0  0  0  0
    4.4037   -2.3245   -0.3934 H   0  0  0  0  0  0  0  0  0  0  0  0
    3.0796   -1.4325    0.3463 H   0  0  0  0  0  0  0  0  0  0  0  0
    3.8101    0.6413   -0.8736 H   0  0  0  0  0  0  0  0  0  0  0  0
    5.1189   -0.2708   -1.6289 H   0  0  0  0  0  0  0  0  0  0  0  0
    6.0474   -0.7857    0.6633 H   0  0  0  0  0  0  0  0  0  0  0  0
    4.7475    0.1840    1.3732 H   0  0  0  0  0  0  0  0  0  0  0  0
    6.8673    1.2509   -0.5727 H   0  0  0  0  0  0  0  0  0  0  0  0
    6.8733    1.4681    1.1932 H   0  0  0  0  0  0  0  0  0  0  0  0
    5.9747    3.2402    0.1098 H   0  0  0  0  0  0  0  0  0  0  0  0
   -3.0345   -0.5437    2.1008 H   0  0  0  0  0  0  0  0  0  0  0  0
   -0.6345   -4.6009    2.0853 H   0  0  0  0  0  0  0  0  0  0  0  0
   -1.8414   -4.9054    0.7912 H   0  0  0  0  0  0  0  0  0  0  0  0
   -0.1453   -4.5346    0.3666 H   0  0  0  0  0  0  0  0  0  0  0  0
   -3.6226    0.3396   -0.8216 H   0  0  0  0  0  0  0  0  0  0  0  0
  1  2  1  0
  2  3  2  0
  3  4  1  0
  4  5  2  0
  5  6  1  0
  6  7  1  0
  7  8  1  0
  8  9  2  0
  9 10  1  0
 10 11  1  0
 11 12  1  0
 12 13  1  0
 13 14  1  0
 14 15  1  0
 15 16  1  0
 16 17  1  0
 10 18  2  0
 18 19  1  0
 19 20  2  0
 20 21  1  0
 21 22  2  0
 22 23  1  0
 23 24  1  0
  6 25  2  0
 25  2  1  0
 20  8  1  0
 23 19  1  0
  1 26  1  0
  1 27  1  0
  1 28  1  0
  3 29  1  0
  4 30  1  0
  5 31  1  0
  7 32  1  0
 11 33  1  0
 12 34  1  0
 12 35  1  0
 13 36  1  0
 13 37  1  0
 14 38  1  0
 14 39  1  0
 15 40  1  0
 15 41  1  0
 16 42  1  0
 16 43  1  0
 17 44  1  0
 21 45  1  0
 24 46  1  0
 24 47  1  0
 24 48  1  0
 25 49  1  0
M  END
>  <ScrubInfo>  (1) 
{"isomerGroup": 0, "isomerId": 0, "confId": 0, "nr_conformers:": 1, "nr_isomers:": 9}

$$$$
_i1
     RDKit          3D

 49 51  0  0  0  0  0  0  0  0999 V2000
   -1.1821   -0.0319   -0.2949 N   0  0  0  0  0  0  0  0  0  0  0  0
   -0.0013   -0.6726   -0.6079 C   0  0  0  0  0  0  0  0  0  0  0  0
    0.6189   -1.1978    0.4962 N   0  0  0  0  0  0  0  0  0  0  0  0
    1.9454   -1.7946    0.4101 C   0  0  0  0  0  0  0  0  0  0  0  0
    3.0258   -0.7141    0.4711 C   0  0  0  0  0  0  0  0  0  0  0  0
    4.4250   -1.3248    0.3738 C   0  0  0  0  0  0  0  0  0  0  0  0
    5.5551   -0.2894    0.3188 C   0  0  0  0  0  0  0  0  0  0  0  0
    5.8655    0.3760    1.6556 C   0  0  0  0  0  0  0  0  0  0  0  0
    4.8223    1.2596    2.0334 O   0  0  0  0  0  0  0  0  0  0  0  0
    0.4695   -0.7828   -1.8250 N   0  0  0  0  0  0  0  0  0  0  0  0
   -0.3373   -0.1710   -2.7362 C   0  0  0  0  0  0  0  0  0  0  0  0
   -1.5285    0.4893   -2.5114 C   0  0  0  0  0  0  0  0  0  0  0  0
   -1.9531    0.9293   -3.7721 C   0  0  0  0  0  0  0  0  0  0  0  0
   -1.0979    0.5832   -4.7441 N   0  0  0  0  0  0  0  0  0  0  0  0
   -0.1207   -0.0880   -4.0834 N   0  0  0  0  0  0  0  0  0  0  0  0
    0.9938   -0.6226   -4.8236 C   0  0  0  0  0  0  0  0  0  0  0  0
   -2.0514    0.5810   -1.1734 C   0  0  0  0  0  0  0  0  0  0  0  0
   -3.1843    1.1716   -0.9849 N   0  0  0  0  0  0  0  0  0  0  0  0
   -3.6683    1.2414    0.3270 C   0  0  0  0  0  0  0  0  0  0  0  0
   -3.3404    2.3264    1.1419 C   0  0  0  0  0  0  0  0  0  0  0  0
   -3.8025    2.3840    2.4567 C   0  0  0  0  0  0  0  0  0  0  0  0
   -4.6080    1.3609    2.9586 C   0  0  0  0  0  0  0  0  0  0  0  0
   -4.9736    0.2826    2.1441 C   0  0  0  0  0  0  0  0  0  0  0  0
   -5.8287   -0.8253    2.6837 C   0  0  0  0  0  0  0  0  0  0  0  0
   -4.4912    0.2288    0.8294 C   0  0  0  0  0  0  0  0  0  0  0  0
   -1.5135   -0.1215    0.6507 H   0  0  0  0  0  0  0  0  0  0  0  0
    0.4905   -0.6689    1.3503 H   0  0  0  0  0  0  0  0  0  0  0  0
    2.0655   -2.4783    1.2583 H   0  0  0  0  0  0  0  0  0  0  0  0
    2.0424   -2.4010   -0.4979 H   0  0  0  0  0  0  0  0  0  0  0  0
    2.9139   -0.1608    1.4092 H   0  0  0  0  0  0  0  0  0  0  0  0
    2.8818    0.0068   -0.3426 H   0  0  0  0  0  0  0  0  0  0  0  0
    4.4772   -1.9258   -0.5432 H   0  0  0  0  0  0  0  0  0  0  0  0
    4.5926   -2.0142    1.2100 H   0  0  0  0  0  0  0  0  0  0  0  0
    5.3122    0.4733   -0.4306 H   0  0  0  0  0  0  0  0  0  0  0  0
    6.4632   -0.8025   -0.0203 H   0  0  0  0  0  0  0  0  0  0  0  0
    6.7870    0.9608    1.5673 H   0  0  0  0  0  0  0  0  0  0  0  0
    6.0021   -0.3698    2.4451 H   0  0  0  0  0  0  0  0  0  0  0  0
    5.1185    1.7238    2.8353 H   0  0  0  0  0  0  0  0  0  0  0  0
   -2.8466    1.4855   -4.0244 H   0  0  0  0  0  0  0  0  0  0  0  0
    1.6988   -1.1075   -4.1448 H   0  0  0  0  0  0  0  0  0  0  0  0
    1.4892    0.2018   -5.3429 H   0  0  0  0  0  0  0  0  0  0  0  0
    0.6106   -1.3512   -5.5424 H   0  0  0  0  0  0  0  0  0  0  0  0
   -2.7232    3.1290    0.7470 H   0  0  0  0  0  0  0  0  0  0  0  0
   -3.5409    3.2301    3.0869 H   0  0  0  0  0  0  0  0  0  0  0  0
   -4.9622    1.4181    3.9858 H   0  0  0  0  0  0  0  0  0  0  0  0
   -5.1977   -1.6069    3.1177 H   0  0  0  0  0  0  0  0  0  0  0  0
   -6.4436   -1.2651    1.8914 H   0  0  0  0  0  0  0  0  0  0  0  0
   -6.5110   -0.4524    3.4547 H   0  0  0  0  0  0  0  0  0  0  0  0
   -4.7588   -0.6026    0.1808 H   0  0  0  0  0  0  0  0  0  0  0  0
  1  2  1  0
  2  3  1  0
  3  4  1  0
  4  5  1  0
  5  6  1  0
  6  7  1  0
  7  8  1  0
  8  9  1  0
  2 10  2  0
 10 11  1  0
 11 12  2  0
 12 13  1  0
 13 14  2  0
 14 15  1  0
 15 16  1  0
 12 17  1  0
 17 18  2  3
 18 19  1  0
 19 20  2  0
 20 21  1  0
 21 22  2  0
 22 23  1  0
 23 24  1  0
 23 25  2  0
 17  1  1  0
 25 19  1  0
 15 11  1  0
  1 26  1  0
  3 27  1  0
  4 28  1  0
  4 29  1  0
  5 30  1  0
  5 31  1  0
  6 32  1  0
  6 33  1  0
  7 34  1  0
  7 35  1  0
  8 36  1  0
  8 37  1  0
  9 38  1  0
 13 39  1  0
 16 40  1  0
 16 41  1  0
 16 42  1  0
 20 43  1  0
 21 44  1  0
 22 45  1  0
 24 46  1  0
 24 47  1  0
 24 48  1  0
 25 49  1  0
M  END
>  <ScrubInfo>  (2) 
{"isomerGroup": 0, "isomerId": 1, "confId": 0, "nr_conformers:": 1, "nr_isomers:": 9}

$$$$
_i2
     RDKit          3D

 49 51  0  0  0  0  0  0  0  0999 V2000
   -0.0331    0.2086    0.2629 N   0  0  0  0  0  0  0  0  0  0  0  0
   -1.3188   -0.2641    0.4283 C   0  0  0  0  0  0  0  0  0  0  0  0
   -2.1376    0.2353    1.4226 N   0  0  0  0  0  0  0  0  0  0  0  0
   -3.4530    0.7328    1.2703 C   0  0  0  0  0  0  0  0  0  0  0  0
   -4.0561    0.9634    0.0288 C   0  0  0  0  0  0  0  0  0  0  0  0
   -5.3754    1.4157   -0.0520 C   0  0  0  0  0  0  0  0  0  0  0  0
   -6.1120    1.6420    1.1089 C   0  0  0  0  0  0  0  0  0  0  0  0
   -5.5320    1.4285    2.3620 C   0  0  0  0  0  0  0  0  0  0  0  0
   -6.3319    1.6308    3.6148 C   0  0  0  0  0  0  0  0  0  0  0  0
   -4.2109    0.9616    2.4302 C   0  0  0  0  0  0  0  0  0  0  0  0
   -1.6591   -1.2738   -0.3829 C   0  0  0  0  0  0  0  0  0  0  0  0
   -2.7994   -2.1762   -0.5767 C   0  0  0  0  0  0  0  0  0  0  0  0
   -2.6031   -3.0495   -1.5334 N   0  0  0  0  0  0  0  0  0  0  0  0
   -1.3353   -2.7501   -2.0610 N   0  0  0  0  0  0  0  0  0  0  0  0
   -0.6856   -3.7244   -2.9039 C   0  0  0  0  0  0  0  0  0  0  0  0
   -0.6751   -1.7360   -1.3855 C   0  0  0  0  0  0  0  0  0  0  0  0
    0.5175   -1.2682   -1.5387 N   0  0  0  0  0  0  0  0  0  0  0  0
    0.8502   -0.2388   -0.6864 C   0  0  0  0  0  0  0  0  0  0  0  0
    2.0066    0.3340   -0.7662 N   0  0  0  0  0  0  0  0  0  0  0  0
    2.9210   -0.1656   -1.7949 C   0  0  0  0  0  0  0  0  0  0  0  0
    4.2299    0.6227   -1.7211 C   0  0  0  0  0  0  0  0  0  0  0  0
    5.0022    0.3537   -0.4256 C   0  0  0  0  0  0  0  0  0  0  0  0
    6.3283    1.1195   -0.4023 C   0  0  0  0  0  0  0  0  0  0  0  0
    7.0803    0.9517    0.9136 C   0  0  0  0  0  0  0  0  0  0  0  0
    7.5122   -0.3899    1.0911 O   0  0  0  0  0  0  0  0  0  0  0  0
    0.2673    1.0088    0.7964 H   0  0  0  0  0  0  0  0  0  0  0  0
   -1.6352    0.7623    2.1314 H   0  0  0  0  0  0  0  0  0  0  0  0
   -3.5084    0.8198   -0.8984 H   0  0  0  0  0  0  0  0  0  0  0  0
   -5.8283    1.5922   -1.0246 H   0  0  0  0  0  0  0  0  0  0  0  0
   -7.1409    1.9862    1.0288 H   0  0  0  0  0  0  0  0  0  0  0  0
   -6.8355    0.6995    3.8915 H   0  0  0  0  0  0  0  0  0  0  0  0
   -7.0855    2.4130    3.4757 H   0  0  0  0  0  0  0  0  0  0  0  0
   -5.6874    1.9451    4.4424 H   0  0  0  0  0  0  0  0  0  0  0  0
   -3.7706    0.7599    3.4049 H   0  0  0  0  0  0  0  0  0  0  0  0
   -3.6943   -2.1086    0.0550 H   0  0  0  0  0  0  0  0  0  0  0  0
   -0.1806   -4.4798   -2.2940 H   0  0  0  0  0  0  0  0  0  0  0  0
   -1.4147   -4.2285   -3.5465 H   0  0  0  0  0  0  0  0  0  0  0  0
    0.0560   -3.2468   -3.5522 H   0  0  0  0  0  0  0  0  0  0  0  0
    2.4866   -0.0187   -2.7912 H   0  0  0  0  0  0  0  0  0  0  0  0
    3.1300   -1.2331   -1.6550 H   0  0  0  0  0  0  0  0  0  0  0  0
    4.8551    0.3438   -2.5779 H   0  0  0  0  0  0  0  0  0  0  0  0
    4.0201    1.6959   -1.8090 H   0  0  0  0  0  0  0  0  0  0  0  0
    4.3967    0.6512    0.4387 H   0  0  0  0  0  0  0  0  0  0  0  0
    5.1899   -0.7224   -0.3356 H   0  0  0  0  0  0  0  0  0  0  0  0
    6.9572    0.7642   -1.2275 H   0  0  0  0  0  0  0  0  0  0  0  0
    6.1368    2.1865   -0.5654 H   0  0  0  0  0  0  0  0  0  0  0  0
    7.9718    1.5865    0.9119 H   0  0  0  0  0  0  0  0  0  0  0  0
    6.4630    1.2417    1.7701 H   0  0  0  0  0  0  0  0  0  0  0  0
    6.7207   -0.9375    1.2278 H   0  0  0  0  0  0  0  0  0  0  0  0
  1  2  1  0
  2  3  1  0
  3  4  1  0
  4  5  2  0
  5  6  1  0
  6  7  2  0
  7  8  1  0
  8  9  1  0
  8 10  2  0
  2 11  2  0
 11 12  1  0
 12 13  2  0
 13 14  1  0
 14 15  1  0
 14 16  1  0
 16 17  2  0
 17 18  1  0
 18 19  2  3
 19 20  1  0
 20 21  1  0
 21 22  1  0
 22 23  1  0
 23 24  1  0
 24 25  1  0
 18  1  1  0
 10  4  1  0
 16 11  1  0
  1 26  1  0
  3 27  1  0
  5 28  1  0
  6 29  1  0
  7 30  1  0
  9 31  1  0
  9 32  1  0
  9 33  1  0
 10 34  1  0
 12 35  1  0
 15 36  1  0
 15 37  1  0
 15 38  1  0
 20 39  1  0
 20 40  1  0
 21 41  1  0
 21 42  1  0
 22 43  1  0
 22 44  1  0
 23 45  1  0
 23 46  1  0
 24 47  1  0
 24 48  1  0
 25 49  1  0
M  END
>  <ScrubInfo>  (3) 
{"isomerGroup": 0, "isomerId": 2, "confId": 0, "nr_conformers:": 1, "nr_isomers:": 9}

$$$$
_i3
     RDKit          3D

 49 51  0  0  0  0  0  0  0  0999 V2000
    0.5429   -2.2711   -0.7467 N   0  0  0  0  0  0  0  0  0  0  0  0
    1.0472   -1.0001   -0.5701 C   0  0  0  0  0  0  0  0  0  0  0  0
    2.2544   -0.7674   -0.9724 N   0  0  0  0  0  0  0  0  0  0  0  0
    2.7725    0.5882   -0.7705 C   0  0  0  0  0  0  0  0  0  0  0  0
    4.2136    0.6498   -1.2802 C   0  0  0  0  0  0  0  0  0  0  0  0
    5.1978   -0.2597   -0.5364 C   0  0  0  0  0  0  0  0  0  0  0  0
    5.3449   -0.0221    0.9719 C   0  0  0  0  0  0  0  0  0  0  0  0
    5.9260    1.3391    1.3382 C   0  0  0  0  0  0  0  0  0  0  0  0
    4.9516    2.3596    1.1835 O   0  0  0  0  0  0  0  0  0  0  0  0
    0.2970    0.0083    0.0179 N   0  0  0  0  0  0  0  0  0  0  0  0
   -0.9220   -0.2504    0.4037 C   0  0  0  0  0  0  0  0  0  0  0  0
   -1.7205    0.6820    1.0158 N   0  0  0  0  0  0  0  0  0  0  0  0
   -2.9688    1.1225    0.5019 C   0  0  0  0  0  0  0  0  0  0  0  0
   -3.3766    0.9025   -0.8187 C   0  0  0  0  0  0  0  0  0  0  0  0
   -4.6085    1.3807   -1.2698 C   0  0  0  0  0  0  0  0  0  0  0  0
   -5.4394    2.0993   -0.4116 C   0  0  0  0  0  0  0  0  0  0  0  0
   -5.0390    2.3606    0.9020 C   0  0  0  0  0  0  0  0  0  0  0  0
   -5.9414    3.1083    1.8383 C   0  0  0  0  0  0  0  0  0  0  0  0
   -3.8067    1.8634    1.3496 C   0  0  0  0  0  0  0  0  0  0  0  0
   -1.4763   -1.5791    0.2676 C   0  0  0  0  0  0  0  0  0  0  0  0
   -2.6631   -2.2516    0.5960 C   0  0  0  0  0  0  0  0  0  0  0  0
   -2.6366   -3.5430    0.2267 N   0  0  0  0  0  0  0  0  0  0  0  0
   -1.4104   -3.6951   -0.3334 N   0  0  0  0  0  0  0  0  0  0  0  0
   -1.0257   -4.9864   -0.8426 C   0  0  0  0  0  0  0  0  0  0  0  0
   -0.6982   -2.5397   -0.3165 C   0  0  0  0  0  0  0  0  0  0  0  0
    1.1873   -2.9250   -1.1699 H   0  0  0  0  0  0  0  0  0  0  0  0
    2.7301    0.8787    0.2845 H   0  0  0  0  0  0  0  0  0  0  0  0
    2.1767    1.3059   -1.3480 H   0  0  0  0  0  0  0  0  0  0  0  0
    4.5655    1.6864   -1.2432 H   0  0  0  0  0  0  0  0  0  0  0  0
    4.2256    0.3645   -2.3403 H   0  0  0  0  0  0  0  0  0  0  0  0
    4.9019   -1.3050   -0.6900 H   0  0  0  0  0  0  0  0  0  0  0  0
    6.1839   -0.1555   -1.0067 H   0  0  0  0  0  0  0  0  0  0  0  0
    4.3792   -0.1656    1.4684 H   0  0  0  0  0  0  0  0  0  0  0  0
    6.0205   -0.7944    1.3602 H   0  0  0  0  0  0  0  0  0  0  0  0
    6.2379    1.3342    2.3877 H   0  0  0  0  0  0  0  0  0  0  0  0
    6.7959    1.5783    0.7183 H   0  0  0  0  0  0  0  0  0  0  0  0
    5.3748    3.1979    1.4351 H   0  0  0  0  0  0  0  0  0  0  0  0
   -1.1647    1.5132    1.2097 H   0  0  0  0  0  0  0  0  0  0  0  0
   -2.7442    0.3640   -1.5200 H   0  0  0  0  0  0  0  0  0  0  0  0
   -4.9189    1.1932   -2.2948 H   0  0  0  0  0  0  0  0  0  0  0  0
   -6.3993    2.4581   -0.7766 H   0  0  0  0  0  0  0  0  0  0  0  0
   -6.5917    2.4073    2.3704 H   0  0  0  0  0  0  0  0  0  0  0  0
   -6.5645    3.8245    1.2924 H   0  0  0  0  0  0  0  0  0  0  0  0
   -5.3588    3.6774    2.5703 H   0  0  0  0  0  0  0  0  0  0  0  0
   -3.4999    2.0432    2.3784 H   0  0  0  0  0  0  0  0  0  0  0  0
   -3.5480   -1.8647    1.0850 H   0  0  0  0  0  0  0  0  0  0  0  0
   -0.0344   -4.9277   -1.2969 H   0  0  0  0  0  0  0  0  0  0  0  0
   -1.7581   -5.2936   -1.5934 H   0  0  0  0  0  0  0  0  0  0  0  0
   -1.0116   -5.6940   -0.0098 H   0  0  0  0  0  0  0  0  0  0  0  0
  1  2  1  0
  2  3  2  3
  3  4  1  0
  4  5  1  0
  5  6  1  0
  6  7  1  0
  7  8  1  0
  8  9  1  0
  2 10  1  0
 10 11  2  0
 11 12  1  0
 12 13  1  0
 13 14  2  0
 14 15  1  0
 15 16  2  0
 16 17  1  0
 17 18  1  0
 17 19  2  0
 11 20  1  0
 20 21  1  0
 21 22  2  0
 22 23  1  0
 23 24  1  0
 23 25  1  0
 25  1  1  0
 19 13  1  0
 25 20  2  0
  1 26  1  0
  4 27  1  0
  4 28  1  0
  5 29  1  0
  5 30  1  0
  6 31  1  0
  6 32  1  0
  7 33  1  0
  7 34  1  0
  8 35  1  0
  8 36  1  0
  9 37  1  0
 12 38  1  0
 14 39  1  0
 15 40  1  0
 16 41  1  0
 18 42  1  0
 18 43  1  0
 18 44  1  0
 19 45  1  0
 21 46  1  0
 24 47  1  0
 24 48  1  0
 24 49  1  0
M  END
>  <ScrubInfo>  (4) 
{"isomerGroup": 0, "isomerId": 3, "confId": 0, "nr_conformers:": 1, "nr_isomers:": 9}

$$$$
_i4
     RDKit          3D

 49 51  0  0  0  0  0  0  0  0999 V2000
    0.4145   -2.1253    0.3984 N   0  0  0  0  0  0  0  0  0  0  0  0
    0.9822   -0.9879    0.9140 C   0  0  0  0  0  0  0  0  0  0  0  0
    2.2604   -1.1142    1.3752 N   0  0  0  0  0  0  0  0  0  0  0  0
    3.3218   -1.8124    0.6696 C   0  0  0  0  0  0  0  0  0  0  0  0
    3.6714   -1.1511   -0.6648 C   0  0  0  0  0  0  0  0  0  0  0  0
    4.1692    0.2970   -0.5781 C   0  0  0  0  0  0  0  0  0  0  0  0
    5.4182    0.4639    0.2930 C   0  0  0  0  0  0  0  0  0  0  0  0
    6.0390    1.8511    0.1551 C   0  0  0  0  0  0  0  0  0  0  0  0
    5.1157    2.8643    0.5199 O   0  0  0  0  0  0  0  0  0  0  0  0
    0.3987    0.1736    1.0042 N   0  0  0  0  0  0  0  0  0  0  0  0
   -0.9020    0.3364    0.5411 C   0  0  0  0  0  0  0  0  0  0  0  0
   -1.3887    1.5330    0.6328 N   0  0  0  0  0  0  0  0  0  0  0  0
   -2.6772    1.8518    0.2065 C   0  0  0  0  0  0  0  0  0  0  0  0
   -2.8996    2.2864   -1.1019 C   0  0  0  0  0  0  0  0  0  0  0  0
   -4.1865    2.6205   -1.5242 C   0  0  0  0  0  0  0  0  0  0  0  0
   -5.2561    2.5420   -0.6312 C   0  0  0  0  0  0  0  0  0  0  0  0
   -5.0439    2.1504    0.6961 C   0  0  0  0  0  0  0  0  0  0  0  0
   -6.1925    2.0502    1.6547 C   0  0  0  0  0  0  0  0  0  0  0  0
   -3.7485    1.8042    1.1045 C   0  0  0  0  0  0  0  0  0  0  0  0
   -1.5573   -0.8513    0.0165 C   0  0  0  0  0  0  0  0  0  0  0  0
   -2.8167   -1.2048   -0.5020 C   0  0  0  0  0  0  0  0  0  0  0  0
   -2.8996   -2.5045   -0.8316 N   0  0  0  0  0  0  0  0  0  0  0  0
   -1.6772   -2.9917   -0.5234 N   0  0  0  0  0  0  0  0  0  0  0  0
   -1.4007   -4.3861   -0.7564 C   0  0  0  0  0  0  0  0  0  0  0  0
   -0.8582   -2.0316   -0.0225 C   0  0  0  0  0  0  0  0  0  0  0  0
    0.8801   -3.0015    0.5851 H   0  0  0  0  0  0  0  0  0  0  0  0
    2.5646   -0.2052    1.7194 H   0  0  0  0  0  0  0  0  0  0  0  0
    3.0365   -2.8555    0.4937 H   0  0  0  0  0  0  0  0  0  0  0  0
    4.2044   -1.8510    1.3168 H   0  0  0  0  0  0  0  0  0  0  0  0
    2.7959   -1.1742   -1.3257 H   0  0  0  0  0  0  0  0  0  0  0  0
    4.4426   -1.7573   -1.1566 H   0  0  0  0  0  0  0  0  0  0  0  0
    4.3928    0.6366   -1.5973 H   0  0  0  0  0  0  0  0  0  0  0  0
    3.3664    0.9441   -0.2060 H   0  0  0  0  0  0  0  0  0  0  0  0
    6.1675   -0.2885    0.0222 H   0  0  0  0  0  0  0  0  0  0  0  0
    5.1464    0.3017    1.3423 H   0  0  0  0  0  0  0  0  0  0  0  0
    6.3532    2.0333   -0.8775 H   0  0  0  0  0  0  0  0  0  0  0  0
    6.9219    1.9404    0.7961 H   0  0  0  0  0  0  0  0  0  0  0  0
    4.8375    2.7052    1.4377 H   0  0  0  0  0  0  0  0  0  0  0  0
   -2.0641    2.3617   -1.7925 H   0  0  0  0  0  0  0  0  0  0  0  0
   -4.3537    2.9461   -2.5474 H   0  0  0  0  0  0  0  0  0  0  0  0
   -6.2554    2.8010   -0.9744 H   0  0  0  0  0  0  0  0  0  0  0  0
   -5.8667    2.2637    2.6782 H   0  0  0  0  0  0  0  0  0  0  0  0
   -6.9745    2.7751    1.4054 H   0  0  0  0  0  0  0  0  0  0  0  0
   -6.6202    1.0434    1.6217 H   0  0  0  0  0  0  0  0  0  0  0  0
   -3.5610    1.4945    2.1299 H   0  0  0  0  0  0  0  0  0  0  0  0
   -3.6922   -0.5889   -0.6563 H   0  0  0  0  0  0  0  0  0  0  0  0
   -0.3360   -4.5834   -0.6150 H   0  0  0  0  0  0  0  0  0  0  0  0
   -1.6847   -4.6306   -1.7833 H   0  0  0  0  0  0  0  0  0  0  0  0
   -1.9879   -4.9744   -0.0470 H   0  0  0  0  0  0  0  0  0  0  0  0
  1  2  1  0
  2  3  1  0
  3  4  1  0
  4  5  1  0
  5  6  1  0
  6  7  1  0
  7  8  1  0
  8  9  1  0
  2 10  2  0
 10 11  1  0
 11 12  2  3
 12 13  1  0
 13 14  2  0
 14 15  1  0
 15 16  2  0
 16 17  1  0
 17 18  1  0
 17 19  2  0
 11 20  1  0
 20 21  1  0
 21 22  2  0
 22 23  1  0
 23 24  1  0
 23 25  1  0
 25  1  1  0
 19 13  1  0
 25 20  2  0
  1 26  1  0
  3 27  1  0
  4 28  1  0
  4 29  1  0
  5 30  1  0
  5 31  1  0
  6 32  1  0
  6 33  1  0
  7 34  1  0
  7 35  1  0
  8 36  1  0
  8 37  1  0
  9 38  1  0
 14 39  1  0
 15 40  1  0
 16 41  1  0
 18 42  1  0
 18 43  1  0
 18 44  1  0
 19 45  1  0
 21 46  1  0
 24 47  1  0
 24 48  1  0
 24 49  1  0
M  END
>  <ScrubInfo>  (5) 
{"isomerGroup": 0, "isomerId": 4, "confId": 0, "nr_conformers:": 1, "nr_isomers:": 9}

$$$$
_i5
     RDKit          3D

 49 51  0  0  0  0  0  0  0  0999 V2000
   -1.5295    2.8226    0.1758 N   0  0  0  0  0  0  0  0  0  0  0  0
   -2.2768    1.6991    0.5141 C   0  0  0  0  0  0  0  0  0  0  0  0
   -1.5379    0.5886    0.6609 C   0  0  0  0  0  0  0  0  0  0  0  0
   -1.7148   -0.8254    0.9679 C   0  0  0  0  0  0  0  0  0  0  0  0
   -2.7716   -1.4883    1.3031 N   0  0  0  0  0  0  0  0  0  0  0  0
   -4.0046   -0.8448    1.4268 C   0  0  0  0  0  0  0  0  0  0  0  0
   -4.3996   -0.3064    2.6533 C   0  0  0  0  0  0  0  0  0  0  0  0
   -5.6398    0.3191    2.7818 C   0  0  0  0  0  0  0  0  0  0  0  0
   -6.4976    0.3996    1.6838 C   0  0  0  0  0  0  0  0  0  0  0  0
   -6.1224   -0.1449    0.4497 C   0  0  0  0  0  0  0  0  0  0  0  0
   -7.0638   -0.1107   -0.7171 C   0  0  0  0  0  0  0  0  0  0  0  0
   -4.8799   -0.7842    0.3379 C   0  0  0  0  0  0  0  0  0  0  0  0
   -0.5615   -1.5600    0.8811 N   0  0  0  0  0  0  0  0  0  0  0  0
    0.5999   -1.0374    0.6188 C   0  0  0  0  0  0  0  0  0  0  0  0
    1.6461   -1.9093    0.5575 N   0  0  0  0  0  0  0  0  0  0  0  0
    3.0358   -1.5304    0.6516 C   0  0  0  0  0  0  0  0  0  0  0  0
    3.5861   -1.1657   -0.7266 C   0  0  0  0  0  0  0  0  0  0  0  0
    5.0657   -0.7859   -0.6514 C   0  0  0  0  0  0  0  0  0  0  0  0
    5.6133   -0.4078   -2.0260 C   0  0  0  0  0  0  0  0  0  0  0  0
    7.0865   -0.0301   -1.9602 C   0  0  0  0  0  0  0  0  0  0  0  0
    7.5304    0.3173   -3.2642 O   0  0  0  0  0  0  0  0  0  0  0  0
    0.8421    0.2937    0.4122 N   0  0  0  0  0  0  0  0  0  0  0  0
   -0.1698    1.0881    0.4303 C   0  0  0  0  0  0  0  0  0  0  0  0
   -0.1886    2.4713    0.2402 N   0  0  0  0  0  0  0  0  0  0  0  0
    0.7480    3.1053   -0.6687 C   0  0  0  0  0  0  0  0  0  0  0  0
   -1.8024    3.6601    0.6952 H   0  0  0  0  0  0  0  0  0  0  0  0
   -3.3449    1.8115    0.6301 H   0  0  0  0  0  0  0  0  0  0  0  0
   -3.7389   -0.3866    3.5122 H   0  0  0  0  0  0  0  0  0  0  0  0
   -5.9428    0.7301    3.7411 H   0  0  0  0  0  0  0  0  0  0  0  0
   -7.4682    0.8770    1.8008 H   0  0  0  0  0  0  0  0  0  0  0  0
   -7.6965   -1.0035   -0.7140 H   0  0  0  0  0  0  0  0  0  0  0  0
   -6.5122   -0.0700   -1.6622 H   0  0  0  0  0  0  0  0  0  0  0  0
   -7.7038    0.7770   -0.6766 H   0  0  0  0  0  0  0  0  0  0  0  0
   -4.5818   -1.2451   -0.6011 H   0  0  0  0  0  0  0  0  0  0  0  0
    1.3995   -2.8352    0.8850 H   0  0  0  0  0  0  0  0  0  0  0  0
    3.6009   -2.3794    1.0535 H   0  0  0  0  0  0  0  0  0  0  0  0
    3.1670   -0.7030    1.3590 H   0  0  0  0  0  0  0  0  0  0  0  0
    3.0162   -0.3314   -1.1527 H   0  0  0  0  0  0  0  0  0  0  0  0
    3.4562   -2.0144   -1.4101 H   0  0  0  0  0  0  0  0  0  0  0  0
    5.1935    0.0571    0.0385 H   0  0  0  0  0  0  0  0  0  0  0  0
    5.6408   -1.6268   -0.2450 H   0  0  0  0  0  0  0  0  0  0  0  0
    5.0421    0.4302   -2.4448 H   0  0  0  0  0  0  0  0  0  0  0  0
    5.4830   -1.2401   -2.7291 H   0  0  0  0  0  0  0  0  0  0  0  0
    7.6889   -0.8697   -1.5990 H   0  0  0  0  0  0  0  0  0  0  0  0
    7.2405    0.8292   -1.2998 H   0  0  0  0  0  0  0  0  0  0  0  0
    8.4738    0.5425   -3.1947 H   0  0  0  0  0  0  0  0  0  0  0  0
    0.5740    2.7773   -1.6989 H   0  0  0  0  0  0  0  0  0  0  0  0
    1.7787    2.8608   -0.3924 H   0  0  0  0  0  0  0  0  0  0  0  0
    0.6405    4.1940   -0.6273 H   0  0  0  0  0  0  0  0  0  0  0  0
  1  2  1  0
  2  3  2  0
  3  4  1  0
  4  5  2  3
  5  6  1  0
  6  7  2  0
  7  8  1  0
  8  9  2  0
  9 10  1  0
 10 11  1  0
 10 12  2  0
  4 13  1  0
 13 14  2  0
 14 15  1  0
 15 16  1  0
 16 17  1  0
 17 18  1  0
 18 19  1  0
 19 20  1  0
 20 21  1  0
 14 22  1  0
 22 23  2  0
 23 24  1  0
 24 25  1  0
 24  1  1  0
 23  3  1  0
 12  6  1  0
  1 26  1  0
  2 27  1  0
  7 28  1  0
  8 29  1  0
  9 30  1  0
 11 31  1  0
 11 32  1  0
 11 33  1  0
 12 34  1  0
 15 35  1  0
 16 36  1  0
 16 37  1  0
 17 38  1  0
 17 39  1  0
 18 40  1  0
 18 41  1  0
 19 42  1  0
 19 43  1  0
 20 44  1  0
 20 45  1  0
 21 46  1  0
 25 47  1  0
 25 48  1  0
 25 49  1  0
M  END
>  <ScrubInfo>  (6) 
{"isomerGroup": 0, "isomerId": 5, "confId": 0, "nr_conformers:": 1, "nr_isomers:": 9}

$$$$
_i6
     RDKit          3D

 49 51  0  0  0  0  0  0  0  0999 V2000
   -2.5957    1.8551   -2.8332 N   0  0  0  0  0  0  0  0  0  0  0  0
   -2.4758    1.7492   -1.4514 C   0  0  0  0  0  0  0  0  0  0  0  0
   -1.4136    1.0259   -1.0724 C   0  0  0  0  0  0  0  0  0  0  0  0
   -0.7830    0.5543    0.1590 C   0  0  0  0  0  0  0  0  0  0  0  0
   -1.2461    0.8556    1.4223 N   0  0  0  0  0  0  0  0  0  0  0  0
   -2.5892    0.7012    1.8377 C   0  0  0  0  0  0  0  0  0  0  0  0
   -3.0313    1.4388    2.9424 C   0  0  0  0  0  0  0  0  0  0  0  0
   -4.3365    1.3014    3.4165 C   0  0  0  0  0  0  0  0  0  0  0  0
   -5.2098    0.4041    2.8049 C   0  0  0  0  0  0  0  0  0  0  0  0
   -4.7777   -0.3772    1.7286 C   0  0  0  0  0  0  0  0  0  0  0  0
   -5.7171   -1.3363    1.0583 C   0  0  0  0  0  0  0  0  0  0  0  0
   -3.4677   -0.2201    1.2509 C   0  0  0  0  0  0  0  0  0  0  0  0
    0.3030   -0.1635    0.0628 N   0  0  0  0  0  0  0  0  0  0  0  0
    0.7861   -0.4809   -1.1913 C   0  0  0  0  0  0  0  0  0  0  0  0
    1.8071   -1.2533   -1.3009 N   0  0  0  0  0  0  0  0  0  0  0  0
    2.4370   -1.7984   -0.1031 C   0  0  0  0  0  0  0  0  0  0  0  0
    3.5098   -0.8478    0.4321 C   0  0  0  0  0  0  0  0  0  0  0  0
    4.6695   -0.6564   -0.5512 C   0  0  0  0  0  0  0  0  0  0  0  0
    5.7297    0.3254   -0.0496 C   0  0  0  0  0  0  0  0  0  0  0  0
    6.4947   -0.1719    1.1692 C   0  0  0  0  0  0  0  0  0  0  0  0
    7.5108    0.7705    1.4904 O   0  0  0  0  0  0  0  0  0  0  0  0
    0.2929   -0.0457   -2.3983 N   0  0  0  0  0  0  0  0  0  0  0  0
   -0.7567    0.6971   -2.3543 C   0  0  0  0  0  0  0  0  0  0  0  0
   -1.4550    1.2977   -3.4019 N   0  0  0  0  0  0  0  0  0  0  0  0
   -1.5442    0.6614   -4.7018 C   0  0  0  0  0  0  0  0  0  0  0  0
   -2.8360    2.7984   -3.1471 H   0  0  0  0  0  0  0  0  0  0  0  0
   -3.2070    2.2335   -0.8195 H   0  0  0  0  0  0  0  0  0  0  0  0
   -0.6301    0.4557    2.1275 H   0  0  0  0  0  0  0  0  0  0  0  0
   -2.3617    2.1436    3.4303 H   0  0  0  0  0  0  0  0  0  0  0  0
   -4.6721    1.8949    4.2631 H   0  0  0  0  0  0  0  0  0  0  0  0
   -6.2266    0.3100    3.1803 H   0  0  0  0  0  0  0  0  0  0  0  0
   -6.2197   -0.8429    0.2207 H   0  0  0  0  0  0  0  0  0  0  0  0
   -5.1774   -2.2121    0.6829 H   0  0  0  0  0  0  0  0  0  0  0  0
   -6.4748   -1.6988    1.7609 H   0  0  0  0  0  0  0  0  0  0  0  0
   -3.1363   -0.8414    0.4215 H   0  0  0  0  0  0  0  0  0  0  0  0
    2.8981   -2.7573   -0.3678 H   0  0  0  0  0  0  0  0  0  0  0  0
    1.7096   -2.0324    0.6835 H   0  0  0  0  0  0  0  0  0  0  0  0
    3.8888   -1.2638    1.3721 H   0  0  0  0  0  0  0  0  0  0  0  0
    3.0658    0.1266    0.6673 H   0  0  0  0  0  0  0  0  0  0  0  0
    5.1376   -1.6248   -0.7656 H   0  0  0  0  0  0  0  0  0  0  0  0
    4.2814   -0.2754   -1.5034 H   0  0  0  0  0  0  0  0  0  0  0  0
    5.2714    1.2967    0.1747 H   0  0  0  0  0  0  0  0  0  0  0  0
    6.4449    0.5198   -0.8592 H   0  0  0  0  0  0  0  0  0  0  0  0
    5.8399   -0.2723    2.0393 H   0  0  0  0  0  0  0  0  0  0  0  0
    6.9691   -1.1369    0.9647 H   0  0  0  0  0  0  0  0  0  0  0  0
    7.9942    0.4164    2.2559 H   0  0  0  0  0  0  0  0  0  0  0  0
   -2.1100   -0.2739   -4.6388 H   0  0  0  0  0  0  0  0  0  0  0  0
   -0.5457    0.4418   -5.0931 H   0  0  0  0  0  0  0  0  0  0  0  0
   -2.0447    1.3233   -5.4159 H   0  0  0  0  0  0  0  0  0  0  0  0
  1  2  1  0
  2  3  2  0
  3  4  1  0
  4  5  1  0
  5  6  1  0
  6  7  2  0
  7  8  1  0
  8  9  2  0
  9 10  1  0
 10 11  1  0
 10 12  2  0
  4 13  2  0
 13 14  1  0
 14 15  2  3
 15 16  1  0
 16 17  1  0
 17 18  1  0
 18 19  1  0
 19 20  1  0
 20 21  1  0
 14 22  1  0
 22 23  2  0
 23 24  1  0
 24 25  1  0
 24  1  1  0
 23  3  1  0
 12  6  1  0
  1 26  1  0
  2 27  1  0
  5 28  1  0
  7 29  1  0
  8 30  1  0
  9 31  1  0
 11 32  1  0
 11 33  1  0
 11 34  1  0
 12 35  1  0
 16 36  1  0
 16 37  1  0
 17 38  1  0
 17 39  1  0
 18 40  1  0
 18 41  1  0
 19 42  1  0
 19 43  1  0
 20 44  1  0
 20 45  1  0
 21 46  1  0
 25 47  1  0
 25 48  1  0
 25 49  1  0
M  END
>  <ScrubInfo>  (7) 
{"isomerGroup": 0, "isomerId": 6, "confId": 0, "nr_conformers:": 1, "nr_isomers:": 9}

$$$$
_i7
     RDKit          3D

 49 51  0  0  0  0  0  0  0  0999 V2000
    0.3487   -2.0388   -0.9304 N   0  0  0  0  0  0  0  0  0  0  0  0
    1.0634   -0.8585   -0.9310 C   0  0  0  0  0  0  0  0  0  0  0  0
    2.3299   -0.9140   -1.1738 N   0  0  0  0  0  0  0  0  0  0  0  0
    3.0826    0.3396   -1.1709 C   0  0  0  0  0  0  0  0  0  0  0  0
    4.5673    0.0339   -1.3672 C   0  0  0  0  0  0  0  0  0  0  0  0
    5.2062   -0.7916   -0.2451 C   0  0  0  0  0  0  0  0  0  0  0  0
    5.1219   -0.2070    1.1707 C   0  0  0  0  0  0  0  0  0  0  0  0
    5.8348    1.1297    1.3422 C   0  0  0  0  0  0  0  0  0  0  0  0
    5.0706    2.1813    0.7699 O   0  0  0  0  0  0  0  0  0  0  0  0
    0.2854    0.2513   -0.6627 N   0  0  0  0  0  0  0  0  0  0  0  0
   -1.0645    0.3724   -0.3952 C   0  0  0  0  0  0  0  0  0  0  0  0
   -1.5918    1.5381   -0.1671 N   0  0  0  0  0  0  0  0  0  0  0  0
   -2.9510    1.6982    0.1071 C   0  0  0  0  0  0  0  0  0  0  0  0
   -3.8525    1.9527   -0.9285 C   0  0  0  0  0  0  0  0  0  0  0  0
   -5.2061    2.1464   -0.6523 C   0  0  0  0  0  0  0  0  0  0  0  0
   -5.6631    2.0984    0.6654 C   0  0  0  0  0  0  0  0  0  0  0  0
   -4.7710    1.8561    1.7168 C   0  0  0  0  0  0  0  0  0  0  0  0
   -5.2507    1.8516    3.1376 C   0  0  0  0  0  0  0  0  0  0  0  0
   -3.4110    1.6784    1.4277 C   0  0  0  0  0  0  0  0  0  0  0  0
   -1.7227   -0.9235   -0.4149 C   0  0  0  0  0  0  0  0  0  0  0  0
   -3.0215   -1.4301   -0.2198 C   0  0  0  0  0  0  0  0  0  0  0  0
   -3.0875   -2.7639   -0.3535 N   0  0  0  0  0  0  0  0  0  0  0  0
   -1.8176   -3.1208   -0.6463 N   0  0  0  0  0  0  0  0  0  0  0  0
   -1.5080   -4.5124   -0.8571 C   0  0  0  0  0  0  0  0  0  0  0  0
   -0.9778   -2.0514   -0.6838 C   0  0  0  0  0  0  0  0  0  0  0  0
    0.9079   -2.8611   -1.1240 H   0  0  0  0  0  0  0  0  0  0  0  0
    2.9272    0.8937   -0.2399 H   0  0  0  0  0  0  0  0  0  0  0  0
    2.7476    0.9718   -2.0020 H   0  0  0  0  0  0  0  0  0  0  0  0
    5.1154    0.9745   -1.4912 H   0  0  0  0  0  0  0  0  0  0  0  0
    4.6954   -0.5168   -2.3081 H   0  0  0  0  0  0  0  0  0  0  0  0
    4.7471   -1.7881   -0.2307 H   0  0  0  0  0  0  0  0  0  0  0  0
    6.2624   -0.9516   -0.4968 H   0  0  0  0  0  0  0  0  0  0  0  0
    4.0727   -0.1148    1.4722 H   0  0  0  0  0  0  0  0  0  0  0  0
    5.5863   -0.9307    1.8519 H   0  0  0  0  0  0  0  0  0  0  0  0
    5.9538    1.3479    2.4085 H   0  0  0  0  0  0  0  0  0  0  0  0
    6.8257    1.1135    0.8773 H   0  0  0  0  0  0  0  0  0  0  0  0
    5.5628    3.0056    0.9268 H   0  0  0  0  0  0  0  0  0  0  0  0
    0.7594    1.1409   -0.6484 H   0  0  0  0  0  0  0  0  0  0  0  0
   -3.4960    2.0025   -1.9535 H   0  0  0  0  0  0  0  0  0  0  0  0
   -5.9026    2.3424   -1.4632 H   0  0  0  0  0  0  0  0  0  0  0  0
   -6.7199    2.2596    0.8679 H   0  0  0  0  0  0  0  0  0  0  0  0
   -5.1919    2.8612    3.5556 H   0  0  0  0  0  0  0  0  0  0  0  0
   -6.2869    1.5027    3.1990 H   0  0  0  0  0  0  0  0  0  0  0  0
   -4.6446    1.1775    3.7518 H   0  0  0  0  0  0  0  0  0  0  0  0
   -2.6969    1.5195    2.2321 H   0  0  0  0  0  0  0  0  0  0  0  0
   -3.9350   -0.9019    0.0169 H   0  0  0  0  0  0  0  0  0  0  0  0
   -0.6125   -4.5994   -1.4764 H   0  0  0  0  0  0  0  0  0  0  0  0
   -2.3485   -4.9897   -1.3679 H   0  0  0  0  0  0  0  0  0  0  0  0
   -1.3426   -4.9753    0.1186 H   0  0  0  0  0  0  0  0  0  0  0  0
  1  2  1  0
  2  3  2  3
  3  4  1  0
  4  5  1  0
  5  6  1  0
  6  7  1  0
  7  8  1  0
  8  9  1  0
  2 10  1  0
 10 11  1  0
 11 12  2  3
 12 13  1  0
 13 14  2  0
 14 15  1  0
 15 16  2  0
 16 17  1  0
 17 18  1  0
 17 19  2  0
 11 20  1  0
 20 21  1  0
 21 22  2  0
 22 23  1  0
 23 24  1  0
 23 25  1  0
 25  1  1  0
 19 13  1  0
 25 20  2  0
  1 26  1  0
  4 27  1  0
  4 28  1  0
  5 29  1  0
  5 30  1  0
  6 31  1  0
  6 32  1  0
  7 33  1  0
  7 34  1  0
  8 35  1  0
  8 36  1  0
  9 37  1  0
 10 38  1  0
 14 39  1  0
 15 40  1  0
 16 41  1  0
 18 42  1  0
 18 43  1  0
 18 44  1  0
 19 45  1  0
 21 46  1  0
 24 47  1  0
 24 48  1  0
 24 49  1  0
M  END
>  <ScrubInfo>  (8) 
{"isomerGroup": 0, "isomerId": 7, "confId": 0, "nr_conformers:": 1, "nr_isomers:": 9}

$$$$
_i8
     RDKit          3D

 49 51  0  0  0  0  0  0  0  0999 V2000
   -2.5154    2.1090   -2.4637 N   0  0  0  0  0  0  0  0  0  0  0  0
   -2.5729    1.4876   -1.2213 C   0  0  0  0  0  0  0  0  0  0  0  0
   -1.4991    0.7319   -0.9506 C   0  0  0  0  0  0  0  0  0  0  0  0
   -0.9754   -0.1615    0.0982 C   0  0  0  0  0  0  0  0  0  0  0  0
   -1.4843   -0.4640    1.2565 N   0  0  0  0  0  0  0  0  0  0  0  0
   -2.7018    0.0878    1.6656 C   0  0  0  0  0  0  0  0  0  0  0  0
   -2.7262    1.2820    2.3889 C   0  0  0  0  0  0  0  0  0  0  0  0
   -3.9403    1.8286    2.8052 C   0  0  0  0  0  0  0  0  0  0  0  0
   -5.1370    1.1718    2.5153 C   0  0  0  0  0  0  0  0  0  0  0  0
   -5.1276   -0.0464    1.8254 C   0  0  0  0  0  0  0  0  0  0  0  0
   -6.4124   -0.7477    1.4987 C   0  0  0  0  0  0  0  0  0  0  0  0
   -3.9023   -0.5785    1.4006 C   0  0  0  0  0  0  0  0  0  0  0  0
    0.2222   -0.7317   -0.2453 N   0  0  0  0  0  0  0  0  0  0  0  0
    0.9357   -0.5374   -1.4008 C   0  0  0  0  0  0  0  0  0  0  0  0
    2.0479   -1.0953   -1.7195 N   0  0  0  0  0  0  0  0  0  0  0  0
    2.6904   -2.0671   -0.8462 C   0  0  0  0  0  0  0  0  0  0  0  0
    3.5919   -1.3697    0.1736 C   0  0  0  0  0  0  0  0  0  0  0  0
    4.7757   -0.6536   -0.4857 C   0  0  0  0  0  0  0  0  0  0  0  0
    5.6469    0.1162    0.5079 C   0  0  0  0  0  0  0  0  0  0  0  0
    6.3670   -0.7755    1.5116 C   0  0  0  0  0  0  0  0  0  0  0  0
    7.2377    0.0106    2.3163 O   0  0  0  0  0  0  0  0  0  0  0  0
    0.4867    0.3395   -2.3662 N   0  0  0  0  0  0  0  0  0  0  0  0
   -0.6391    0.9473   -2.1647 C   0  0  0  0  0  0  0  0  0  0  0  0
   -1.2589    1.8762   -3.0038 N   0  0  0  0  0  0  0  0  0  0  0  0
   -1.1093    1.7943   -4.4444 C   0  0  0  0  0  0  0  0  0  0  0  0
   -2.8241    3.0836   -2.4450 H   0  0  0  0  0  0  0  0  0  0  0  0
   -3.4431    1.6593   -0.6050 H   0  0  0  0  0  0  0  0  0  0  0  0
   -1.7942    1.7870    2.6267 H   0  0  0  0  0  0  0  0  0  0  0  0
   -3.9528    2.7626    3.3609 H   0  0  0  0  0  0  0  0  0  0  0  0
   -6.0773    1.6095    2.8440 H   0  0  0  0  0  0  0  0  0  0  0  0
   -6.2682   -1.8328    1.4690 H   0  0  0  0  0  0  0  0  0  0  0  0
   -7.1741   -0.5423    2.2582 H   0  0  0  0  0  0  0  0  0  0  0  0
   -6.7839   -0.4127    0.5255 H   0  0  0  0  0  0  0  0  0  0  0  0
   -3.8735   -1.5209    0.8589 H   0  0  0  0  0  0  0  0  0  0  0  0
    0.6031   -1.3498    0.4510 H   0  0  0  0  0  0  0  0  0  0  0  0
    3.2911   -2.7428   -1.4664 H   0  0  0  0  0  0  0  0  0  0  0  0
    1.9611   -2.7075   -0.3373 H   0  0  0  0  0  0  0  0  0  0  0  0
    3.9644   -2.1290    0.8701 H   0  0  0  0  0  0  0  0  0  0  0  0
    3.0093   -0.6506    0.7615 H   0  0  0  0  0  0  0  0  0  0  0  0
    5.3922   -1.3812   -1.0274 H   0  0  0  0  0  0  0  0  0  0  0  0
    4.4034    0.0606   -1.2300 H   0  0  0  0  0  0  0  0  0  0  0  0
    5.0413    0.8580    1.0434 H   0  0  0  0  0  0  0  0  0  0  0  0
    6.3943    0.6958   -0.0488 H   0  0  0  0  0  0  0  0  0  0  0  0
    6.9721   -1.5301    0.9998 H   0  0  0  0  0  0  0  0  0  0  0  0
    5.6658   -1.2881    2.1763 H   0  0  0  0  0  0  0  0  0  0  0  0
    6.6998    0.6981    2.7446 H   0  0  0  0  0  0  0  0  0  0  0  0
   -1.5666    0.8777   -4.8314 H   0  0  0  0  0  0  0  0  0  0  0  0
   -0.0510    1.8041   -4.7241 H   0  0  0  0  0  0  0  0  0  0  0  0
   -1.5893    2.6524   -4.9262 H   0  0  0  0  0  0  0  0  0  0  0  0
  1  2  1  0
  2  3  2  0
  3  4  1  0
  4  5  2  3
  5  6  1  0
  6  7  2  0
  7  8  1  0
  8  9  2  0
  9 10  1  0
 10 11  1  0
 10 12  2  0
  4 13  1  0
 13 14  1  0
 14 15  2  3
 15 16  1  0
 16 17  1  0
 17 18  1  0
 18 19  1  0
 19 20  1  0
 20 21  1  0
 14 22  1  0
 22 23  2  0
 23 24  1  0
 24 25  1  0
 24  1  1  0
 23  3  1  0
 12  6  1  0
  1 26  1  0
  2 27  1  0
  7 28  1  0
  8 29  1  0
  9 30  1  0
 11 31  1  0
 11 32  1  0
 11 33  1  0
 12 34  1  0
 13 35  1  0
 16 36  1  0
 16 37  1  0
 17 38  1  0
 17 39  1  0
 18 40  1  0
 18 41  1  0
 19 42  1  0
 19 43  1  0
 20 44  1  0
 20 45  1  0
 21 46  1  0
 25 47  1  0
 25 48  1  0
 25 49  1  0
M  END
>  <ScrubInfo>  (9) 
{"isomerGroup": 0, "isomerId": 8, "confId": 0, "nr_conformers:": 1, "nr_isomers:": 9}

$$$$
