REMARK SMILES Cc1ccc(Nc2nc(NCCOC(C)C)nc3c2cnn3C)c(C)c1
REMARK SMILES IDX 10 1 9 3 7 4 8 5 19 6 18 7 20 8 17 9 22 10 21 11 23 12 6 13
REMARK SMILES IDX 5 15 2 16 3 17 26 18 4 19 24 20 1 21 25 22 11 23 12 24 13 25
REMARK SMILES IDX 14 26 15 27 16 28
REMARK H PARENT 10 2 6 14
ROOT
ATOM      1  N   UNL     1      -2.345  -0.622   1.346  1.00  0.00    -0.352 N 
ATOM      2  H   UNL     1      -2.474  -1.288   0.585  1.00  0.00     0.163 HD
ENDROOT
BRANCH   1   3
ATOM      3  C   UNL     1      -1.173   0.058   1.036  1.00  0.00     0.226 A 
ATOM      4  C   UNL     1       0.805  -0.019  -0.217  1.00  0.00     0.147 A 
ATOM      5  N   UNL     1      -0.374  -0.576   0.158  1.00  0.00    -0.195 NA
ATOM      6  C   UNL     1       1.145   1.220   0.328  1.00  0.00     0.082 A 
ATOM      7  C   UNL     1       0.247   1.774   1.218  1.00  0.00     0.165 A 
ATOM      8  C   UNL     1       2.193   2.161   0.256  1.00  0.00     0.149 A 
ATOM      9  N   UNL     1      -0.923   1.244   1.608  1.00  0.00    -0.193 NA
ATOM     10  N   UNL     1       0.795   2.963   1.615  1.00  0.00    -0.250 N 
ATOM     11  N   UNL     1       1.988   3.230   1.036  1.00  0.00    -0.179 NA
ATOM     12  C   UNL     1       0.236   3.905   2.551  1.00  0.00     0.176 C 
BRANCH   4  13
ATOM     13  N   UNL     1       1.583  -0.742  -1.141  1.00  0.00    -0.339 N 
ATOM     14  H   UNL     1       1.172  -1.674  -1.168  1.00  0.00     0.168 HD
BRANCH  13  15
ATOM     15  C   UNL     1       2.993  -0.812  -1.127  1.00  0.00     0.043 A 
ATOM     16  C   UNL     1       5.808  -0.919  -1.266  1.00  0.00    -0.051 A 
ATOM     17  C   UNL     1       5.069  -0.406  -2.333  1.00  0.00     0.005 A 
ATOM     18  C   UNL     1       5.130  -1.380  -0.130  1.00  0.00     0.009 A 
ATOM     19  C   UNL     1       3.676  -0.365  -2.267  1.00  0.00     0.026 A 
ATOM     20  C   UNL     1       3.726  -1.358  -0.056  1.00  0.00    -0.027 A 
ATOM     21  C   UNL     1       7.307  -0.927  -1.312  1.00  0.00     0.044 C 
ATOM     22  C   UNL     1       3.062  -1.885   1.187  1.00  0.00     0.046 C 
ENDBRANCH  13  15
ENDBRANCH   4  13
ENDBRANCH   1   3
BRANCH   1  23
ATOM     23  C   UNL     1      -3.521   0.214   1.565  1.00  0.00     0.144 C 
BRANCH  23  24
ATOM     24  C   UNL     1      -4.073   0.779   0.246  1.00  0.00     0.181 C 
BRANCH  24  25
ATOM     25  O   UNL     1      -4.366  -0.273  -0.683  1.00  0.00    -0.377 OA
BRANCH  25  26
ATOM     26  C   UNL     1      -5.657  -0.865  -0.519  1.00  0.00     0.112 C 
ATOM     27  C   UNL     1      -6.697  -0.058  -1.290  1.00  0.00     0.038 C 
ATOM     28  C   UNL     1      -5.573  -2.285  -1.066  1.00  0.00     0.038 C 
ENDBRANCH  25  26
ENDBRANCH  24  25
ENDBRANCH  23  24
ENDBRANCH   1  23
TORSDOF 7
