_i0
     RDKit          3D

 52 54  0  0  0  0  0  0  0  0999 V2000
    7.3071   -0.9271   -1.3120 C   0  0  0  0  0  0  0  0  0  0  0  0
    5.8078   -0.9194   -1.2663 C   0  0  0  0  0  0  0  0  0  0  0  0
    5.0688   -0.4063   -2.3334 C   0  0  0  0  0  0  0  0  0  0  0  0
    3.6758   -0.3650   -2.2665 C   0  0  0  0  0  0  0  0  0  0  0  0
    2.9933   -0.8122   -1.1267 C   0  0  0  0  0  0  0  0  0  0  0  0
    1.5828   -0.7423   -1.1413 N   0  0  0  0  0  0  0  0  0  0  0  0
    0.8049   -0.0191   -0.2174 C   0  0  0  0  0  0  0  0  0  0  0  0
   -0.3740   -0.5756    0.1578 N   0  0  0  0  0  0  0  0  0  0  0  0
   -1.1729    0.0578    1.0359 C   0  0  0  0  0  0  0  0  0  0  0  0
   -2.3450   -0.6223    1.3456 N   0  0  0  0  0  0  0  0  0  0  0  0
   -3.5207    0.2145    1.5654 C   0  0  0  0  0  0  0  0  0  0  0  0
   -4.0729    0.7788    0.2461 C   0  0  0  0  0  0  0  0  0  0  0  0
   -4.3659   -0.2734   -0.6826 O   0  0  0  0  0  0  0  0  0  0  0  0
   -5.6572   -0.8652   -0.5191 C   0  0  0  0  0  0  0  0  0  0  0  0
   -6.6970   -0.0583   -1.2896 C   0  0  0  0  0  0  0  0  0  0  0  0
   -5.5732   -2.2849   -1.0662 C   0  0  0  0  0  0  0  0  0  0  0  0
   -0.9226    1.2444    1.6078 N   0  0  0  0  0  0  0  0  0  0  0  0
    0.2466    1.7739    1.2181 C   0  0  0  0  0  0  0  0  0  0  0  0
    1.1449    1.2201    0.3283 C   0  0  0  0  0  0  0  0  0  0  0  0
    2.1927    2.1608    0.2556 C   0  0  0  0  0  0  0  0  0  0  0  0
    1.9879    3.2297    1.0360 N   0  0  0  0  0  0  0  0  0  0  0  0
    0.7946    2.9626    1.6153 N   0  0  0  0  0  0  0  0  0  0  0  0
    0.2356    3.9052    2.5508 C   0  0  0  0  0  0  0  0  0  0  0  0
    3.7257   -1.3577   -0.0559 C   0  0  0  0  0  0  0  0  0  0  0  0
    3.0615   -1.8849    1.1869 C   0  0  0  0  0  0  0  0  0  0  0  0
    5.1304   -1.3799   -0.1300 C   0  0  0  0  0  0  0  0  0  0  0  0
    7.6670   -1.0225   -2.3419 H   0  0  0  0  0  0  0  0  0  0  0  0
    7.7103   -1.7748   -0.7480 H   0  0  0  0  0  0  0  0  0  0  0  0
    7.6989    0.0013   -0.8853 H   0  0  0  0  0  0  0  0  0  0  0  0
    5.5696   -0.0333   -3.2236 H   0  0  0  0  0  0  0  0  0  0  0  0
    3.1138    0.0362   -3.1071 H   0  0  0  0  0  0  0  0  0  0  0  0
    1.1721   -1.6740   -1.1684 H   0  0  0  0  0  0  0  0  0  0  0  0
   -2.4745   -1.2876    0.5853 H   0  0  0  0  0  0  0  0  0  0  0  0
   -3.3245    1.0228    2.2794 H   0  0  0  0  0  0  0  0  0  0  0  0
   -4.2799   -0.4249    2.0282 H   0  0  0  0  0  0  0  0  0  0  0  0
   -3.3249    1.4215   -0.2300 H   0  0  0  0  0  0  0  0  0  0  0  0
   -4.9588    1.3950    0.4326 H   0  0  0  0  0  0  0  0  0  0  0  0
   -5.9308   -0.9140    0.5408 H   0  0  0  0  0  0  0  0  0  0  0  0
   -6.7793    0.9586   -0.8934 H   0  0  0  0  0  0  0  0  0  0  0  0
   -7.6840   -0.5276   -1.2322 H   0  0  0  0  0  0  0  0  0  0  0  0
   -6.4145    0.0383   -2.3438 H   0  0  0  0  0  0  0  0  0  0  0  0
   -5.2727   -2.2846   -2.1199 H   0  0  0  0  0  0  0  0  0  0  0  0
   -4.8126   -2.8566   -0.5230 H   0  0  0  0  0  0  0  0  0  0  0  0
   -6.5314   -2.8051   -0.9740 H   0  0  0  0  0  0  0  0  0  0  0  0
    3.0994    2.1099   -0.3337 H   0  0  0  0  0  0  0  0  0  0  0  0
   -0.7249    3.5407    2.9218 H   0  0  0  0  0  0  0  0  0  0  0  0
    0.0955    4.8589    2.0358 H   0  0  0  0  0  0  0  0  0  0  0  0
    0.9348    4.0194    3.3831 H   0  0  0  0  0  0  0  0  0  0  0  0
    3.7355   -2.5431    1.7461 H   0  0  0  0  0  0  0  0  0  0  0  0
    2.1781   -2.4811    0.9375 H   0  0  0  0  0  0  0  0  0  0  0  0
    2.7736   -1.0582    1.8430 H   0  0  0  0  0  0  0  0  0  0  0  0
    5.7051   -1.7695    0.7090 H   0  0  0  0  0  0  0  0  0  0  0  0
  1  2  1  0
  2  3  2  0
  3  4  1  0
  4  5  2  0
  5  6  1  0
  6  7  1  0
  7  8  2  0
  8  9  1  0
  9 10  1  0
 10 11  1  0
 11 12  1  0
 12 13  1  0
 13 14  1  0
 14 15  1  0
 14 16  1  0
  9 17  2  0
 17 18  1  0
 18 19  2  0
 19 20  1  0
 20 21  2  0
 21 22  1  0
 22 23  1  0
  5 24  1  0
 24 25  1  0
 24 26  2  0
 26  2  1  0
 19  7  1  0
 22 18  1  0
  1 27  1  0
  1 28  1  0
  1 29  1  0
  3 30  1  0
  4 31  1  0
  6 32  1  0
 10 33  1  0
 11 34  1  0
 11 35  1  0
 12 36  1  0
 12 37  1  0
 14 38  1  0
 15 39  1  0
 15 40  1  0
 15 41  1  0
 16 42  1  0
 16 43  1  0
 16 44  1  0
 20 45  1  0
 23 46  1  0
 23 47  1  0
 23 48  1  0
 25 49  1  0
 25 50  1  0
 25 51  1  0
 26 52  1  0
M  END
>  <ScrubInfo>  (1) 
{"isomerGroup": 0, "isomerId": 0, "confId": 0, "nr_conformers:": 1, "nr_isomers:": 9}

$$$$
_i1
     RDKit          3D

 52 54  0  0  0  0  0  0  0  0999 V2000
   -0.9390   -0.4720   -0.7526 N   0  0  0  0  0  0  0  0  0  0  0  0
    0.4120   -0.6855   -0.9263 C   0  0  0  0  0  0  0  0  0  0  0  0
    1.1371    0.4760   -0.9054 N   0  0  0  0  0  0  0  0  0  0  0  0
    2.5948    0.4673   -0.9782 C   0  0  0  0  0  0  0  0  0  0  0  0
    3.2387   -0.0160    0.3278 C   0  0  0  0  0  0  0  0  0  0  0  0
    4.6484    0.2280    0.3239 O   0  0  0  0  0  0  0  0  0  0  0  0
    5.0248    1.5157    0.8191 C   0  0  0  0  0  0  0  0  0  0  0  0
    5.1497    1.4702    2.3386 C   0  0  0  0  0  0  0  0  0  0  0  0
    6.3655    1.8681    0.1863 C   0  0  0  0  0  0  0  0  0  0  0  0
    0.9497   -1.8661   -1.0990 N   0  0  0  0  0  0  0  0  0  0  0  0
    0.0148   -2.8564   -1.0700 C   0  0  0  0  0  0  0  0  0  0  0  0
   -1.3501   -2.7337   -0.9033 C   0  0  0  0  0  0  0  0  0  0  0  0
   -1.8491   -4.0420   -0.9495 C   0  0  0  0  0  0  0  0  0  0  0  0
   -0.8783   -4.9482   -1.1285 N   0  0  0  0  0  0  0  0  0  0  0  0
    0.2494   -4.1967   -1.2030 N   0  0  0  0  0  0  0  0  0  0  0  0
    1.5198   -4.8463   -1.4038 C   0  0  0  0  0  0  0  0  0  0  0  0
   -1.9338   -1.4282   -0.7404 C   0  0  0  0  0  0  0  0  0  0  0  0
   -3.2154   -1.3271   -0.6195 N   0  0  0  0  0  0  0  0  0  0  0  0
   -3.7530   -0.0405   -0.4637 C   0  0  0  0  0  0  0  0  0  0  0  0
   -4.1081    0.6904   -1.6022 C   0  0  0  0  0  0  0  0  0  0  0  0
   -4.6189    1.9841   -1.4889 C   0  0  0  0  0  0  0  0  0  0  0  0
   -4.8011    2.5609   -0.2290 C   0  0  0  0  0  0  0  0  0  0  0  0
   -5.3232    3.9618   -0.1022 C   0  0  0  0  0  0  0  0  0  0  0  0
   -4.4511    1.8286    0.9134 C   0  0  0  0  0  0  0  0  0  0  0  0
   -3.9450    0.5225    0.8090 C   0  0  0  0  0  0  0  0  0  0  0  0
   -3.5938   -0.2457    2.0523 C   0  0  0  0  0  0  0  0  0  0  0  0
   -1.2599    0.4816   -0.7713 H   0  0  0  0  0  0  0  0  0  0  0  0
    0.7723    1.2078   -0.3088 H   0  0  0  0  0  0  0  0  0  0  0  0
    2.9289    1.4858   -1.2047 H   0  0  0  0  0  0  0  0  0  0  0  0
    2.9417   -0.1454   -1.8192 H   0  0  0  0  0  0  0  0  0  0  0  0
    3.1028   -1.0978    0.4274 H   0  0  0  0  0  0  0  0  0  0  0  0
    2.7632    0.4458    1.2006 H   0  0  0  0  0  0  0  0  0  0  0  0
    4.2881    2.2722    0.5250 H   0  0  0  0  0  0  0  0  0  0  0  0
    5.4971    2.4290    2.7358 H   0  0  0  0  0  0  0  0  0  0  0  0
    5.8492    0.6866    2.6501 H   0  0  0  0  0  0  0  0  0  0  0  0
    4.1886    1.2355    2.8066 H   0  0  0  0  0  0  0  0  0  0  0  0
    6.2778    1.8830   -0.9056 H   0  0  0  0  0  0  0  0  0  0  0  0
    7.1262    1.1180    0.4301 H   0  0  0  0  0  0  0  0  0  0  0  0
    6.7187    2.8484    0.5204 H   0  0  0  0  0  0  0  0  0  0  0  0
   -2.8753   -4.3742   -0.8606 H   0  0  0  0  0  0  0  0  0  0  0  0
    1.6818   -5.5467   -0.5805 H   0  0  0  0  0  0  0  0  0  0  0  0
    2.3224   -4.1057   -1.4217 H   0  0  0  0  0  0  0  0  0  0  0  0
    1.4860   -5.3791   -2.3575 H   0  0  0  0  0  0  0  0  0  0  0  0
   -3.9852    0.2436   -2.5858 H   0  0  0  0  0  0  0  0  0  0  0  0
   -4.8823    2.5323   -2.3907 H   0  0  0  0  0  0  0  0  0  0  0  0
   -5.9031    4.0802    0.8192 H   0  0  0  0  0  0  0  0  0  0  0  0
   -4.4901    4.6714   -0.0906 H   0  0  0  0  0  0  0  0  0  0  0  0
   -5.9871    4.2094   -0.9372 H   0  0  0  0  0  0  0  0  0  0  0  0
   -4.5879    2.2751    1.8970 H   0  0  0  0  0  0  0  0  0  0  0  0
   -4.0333   -1.2481    2.0235 H   0  0  0  0  0  0  0  0  0  0  0  0
   -2.5068   -0.3278    2.1506 H   0  0  0  0  0  0  0  0  0  0  0  0
   -3.9787    0.2501    2.9498 H   0  0  0  0  0  0  0  0  0  0  0  0
  1  2  1  0
  2  3  1  0
  3  4  1  0
  4  5  1  0
  5  6  1  0
  6  7  1  0
  7  8  1  0
  7  9  1  0
  2 10  2  0
 10 11  1  0
 11 12  2  0
 12 13  1  0
 13 14  2  0
 14 15  1  0
 15 16  1  0
 12 17  1  0
 17 18  2  3
 18 19  1  0
 19 20  2  0
 20 21  1  0
 21 22  2  0
 22 23  1  0
 22 24  1  0
 24 25  2  0
 25 26  1  0
 17  1  1  0
 25 19  1  0
 15 11  1  0
  1 27  1  0
  3 28  1  0
  4 29  1  0
  4 30  1  0
  5 31  1  0
  5 32  1  0
  7 33  1  0
  8 34  1  0
  8 35  1  0
  8 36  1  0
  9 37  1  0
  9 38  1  0
  9 39  1  0
 13 40  1  0
 16 41  1  0
 16 42  1  0
 16 43  1  0
 20 44  1  0
 21 45  1  0
 23 46  1  0
 23 47  1  0
 23 48  1  0
 24 49  1  0
 26 50  1  0
 26 51  1  0
 26 52  1  0
M  END
>  <ScrubInfo>  (2) 
{"isomerGroup": 0, "isomerId": 1, "confId": 0, "nr_conformers:": 1, "nr_isomers:": 9}

$$$$
_i2
     RDKit          3D

 52 54  0  0  0  0  0  0  0  0999 V2000
    0.3736   -0.3517    0.2193 N   0  0  0  0  0  0  0  0  0  0  0  0
   -0.7732    0.4216    0.1915 C   0  0  0  0  0  0  0  0  0  0  0  0
   -1.8358    0.1467    1.0319 N   0  0  0  0  0  0  0  0  0  0  0  0
   -3.1878   -0.0482    0.6491 C   0  0  0  0  0  0  0  0  0  0  0  0
   -3.5609   -0.2837   -0.6830 C   0  0  0  0  0  0  0  0  0  0  0  0
   -4.9005   -0.4615   -1.0386 C   0  0  0  0  0  0  0  0  0  0  0  0
   -5.9033   -0.3973   -0.0709 C   0  0  0  0  0  0  0  0  0  0  0  0
   -7.3386   -0.6216   -0.4445 C   0  0  0  0  0  0  0  0  0  0  0  0
   -5.5427   -0.1772    1.2627 C   0  0  0  0  0  0  0  0  0  0  0  0
   -4.1984    0.0081    1.6324 C   0  0  0  0  0  0  0  0  0  0  0  0
   -3.8711    0.2690    3.0787 C   0  0  0  0  0  0  0  0  0  0  0  0
   -0.7471    1.4597   -0.6531 C   0  0  0  0  0  0  0  0  0  0  0  0
   -1.6285    2.5624   -1.0536 C   0  0  0  0  0  0  0  0  0  0  0  0
   -1.1049    3.3233   -1.9828 N   0  0  0  0  0  0  0  0  0  0  0  0
    0.1783    2.8006   -2.2119 N   0  0  0  0  0  0  0  0  0  0  0  0
    0.9196    3.2354   -3.3698 C   0  0  0  0  0  0  0  0  0  0  0  0
    0.4578    1.6570   -1.4825 C   0  0  0  0  0  0  0  0  0  0  0  0
    1.4972    0.8957   -1.4856 N   0  0  0  0  0  0  0  0  0  0  0  0
    1.4597   -0.1670   -0.6099 C   0  0  0  0  0  0  0  0  0  0  0  0
    2.5050   -0.9106   -0.6769 N   0  0  0  0  0  0  0  0  0  0  0  0
    2.6242   -2.0719    0.2020 C   0  0  0  0  0  0  0  0  0  0  0  0
    4.0550   -2.6221    0.1456 C   0  0  0  0  0  0  0  0  0  0  0  0
    4.9050   -1.9644    1.0915 O   0  0  0  0  0  0  0  0  0  0  0  0
    5.5176   -0.7693    0.5974 C   0  0  0  0  0  0  0  0  0  0  0  0
    6.7953   -1.1173   -0.1598 C   0  0  0  0  0  0  0  0  0  0  0  0
    5.8396    0.1005    1.8071 C   0  0  0  0  0  0  0  0  0  0  0  0
    0.3429   -1.1840    0.7827 H   0  0  0  0  0  0  0  0  0  0  0  0
   -1.5950   -0.4747    1.7983 H   0  0  0  0  0  0  0  0  0  0  0  0
   -2.8137   -0.3613   -1.4685 H   0  0  0  0  0  0  0  0  0  0  0  0
   -5.1520   -0.6545   -2.0794 H   0  0  0  0  0  0  0  0  0  0  0  0
   -8.0060   -0.0516    0.2104 H   0  0  0  0  0  0  0  0  0  0  0  0
   -7.5847   -1.6848   -0.3627 H   0  0  0  0  0  0  0  0  0  0  0  0
   -7.5320   -0.2916   -1.4706 H   0  0  0  0  0  0  0  0  0  0  0  0
   -6.3205   -0.1420    2.0240 H   0  0  0  0  0  0  0  0  0  0  0  0
   -4.7774    0.3766    3.6841 H   0  0  0  0  0  0  0  0  0  0  0  0
   -3.2917   -0.5631    3.4910 H   0  0  0  0  0  0  0  0  0  0  0  0
   -3.3003    1.1978    3.1795 H   0  0  0  0  0  0  0  0  0  0  0  0
   -2.6229    2.6893   -0.6070 H   0  0  0  0  0  0  0  0  0  0  0  0
    0.6368    2.6445   -4.2465 H   0  0  0  0  0  0  0  0  0  0  0  0
    1.9968    3.1257   -3.2082 H   0  0  0  0  0  0  0  0  0  0  0  0
    0.7207    4.2903   -3.5846 H   0  0  0  0  0  0  0  0  0  0  0  0
    2.3813   -1.8118    1.2387 H   0  0  0  0  0  0  0  0  0  0  0  0
    1.9351   -2.8484   -0.1491 H   0  0  0  0  0  0  0  0  0  0  0  0
    4.4734   -2.5909   -0.8661 H   0  0  0  0  0  0  0  0  0  0  0  0
    4.0269   -3.6721    0.4563 H   0  0  0  0  0  0  0  0  0  0  0  0
    4.8372   -0.2147   -0.0550 H   0  0  0  0  0  0  0  0  0  0  0  0
    7.3204   -0.2141   -0.4859 H   0  0  0  0  0  0  0  0  0  0  0  0
    6.5766   -1.7220   -1.0454 H   0  0  0  0  0  0  0  0  0  0  0  0
    7.4715   -1.7105    0.4657 H   0  0  0  0  0  0  0  0  0  0  0  0
    6.5016   -0.4238    2.5054 H   0  0  0  0  0  0  0  0  0  0  0  0
    4.9234    0.3364    2.3595 H   0  0  0  0  0  0  0  0  0  0  0  0
    6.3166    1.0388    1.5079 H   0  0  0  0  0  0  0  0  0  0  0  0
  1  2  1  0
  2  3  1  0
  3  4  1  0
  4  5  2  0
  5  6  1  0
  6  7  2  0
  7  8  1  0
  7  9  1  0
  9 10  2  0
 10 11  1  0
  2 12  2  0
 12 13  1  0
 13 14  2  0
 14 15  1  0
 15 16  1  0
 15 17  1  0
 17 18  2  0
 18 19  1  0
 19 20  2  3
 20 21  1  0
 21 22  1  0
 22 23  1  0
 23 24  1  0
 24 25  1  0
 24 26  1  0
 19  1  1  0
 10  4  1  0
 17 12  1  0
  1 27  1  0
  3 28  1  0
  5 29  1  0
  6 30  1  0
  8 31  1  0
  8 32  1  0
  8 33  1  0
  9 34  1  0
 11 35  1  0
 11 36  1  0
 11 37  1  0
 13 38  1  0
 16 39  1  0
 16 40  1  0
 16 41  1  0
 21 42  1  0
 21 43  1  0
 22 44  1  0
 22 45  1  0
 24 46  1  0
 25 47  1  0
 25 48  1  0
 25 49  1  0
 26 50  1  0
 26 51  1  0
 26 52  1  0
M  END
>  <ScrubInfo>  (3) 
{"isomerGroup": 0, "isomerId": 2, "confId": 0, "nr_conformers:": 1, "nr_isomers:": 9}

$$$$
_i3
     RDKit          3D

 52 54  0  0  0  0  0  0  0  0999 V2000
    0.6394   -0.2387    3.1843 N   0  0  0  0  0  0  0  0  0  0  0  0
    0.3331   -0.8058    1.9674 C   0  0  0  0  0  0  0  0  0  0  0  0
    0.9192   -1.9125    1.6500 N   0  0  0  0  0  0  0  0  0  0  0  0
    0.6001   -2.5178    0.3470 C   0  0  0  0  0  0  0  0  0  0  0  0
    1.3459   -1.8304   -0.8011 C   0  0  0  0  0  0  0  0  0  0  0  0
    2.7394   -2.1584   -0.7412 O   0  0  0  0  0  0  0  0  0  0  0  0
    3.5208   -1.4782   -1.7249 C   0  0  0  0  0  0  0  0  0  0  0  0
    3.8824   -0.0773   -1.2410 C   0  0  0  0  0  0  0  0  0  0  0  0
    4.7839   -2.3034   -1.9425 C   0  0  0  0  0  0  0  0  0  0  0  0
   -0.5639   -0.2128    1.0953 N   0  0  0  0  0  0  0  0  0  0  0  0
   -1.1268    0.9191    1.4106 C   0  0  0  0  0  0  0  0  0  0  0  0
   -2.0050    1.6559    0.6440 N   0  0  0  0  0  0  0  0  0  0  0  0
   -2.2916    1.3274   -0.7018 C   0  0  0  0  0  0  0  0  0  0  0  0
   -1.8137    2.1760   -1.7141 C   0  0  0  0  0  0  0  0  0  0  0  0
   -1.9992    1.8664   -3.0632 C   0  0  0  0  0  0  0  0  0  0  0  0
   -2.6670    0.6980   -3.4318 C   0  0  0  0  0  0  0  0  0  0  0  0
   -2.8288    0.3353   -4.8781 C   0  0  0  0  0  0  0  0  0  0  0  0
   -3.1300   -0.1620   -2.4292 C   0  0  0  0  0  0  0  0  0  0  0  0
   -2.9650    0.1461   -1.0659 C   0  0  0  0  0  0  0  0  0  0  0  0
   -3.5123   -0.8184   -0.0486 C   0  0  0  0  0  0  0  0  0  0  0  0
   -0.8352    1.5403    2.6880 C   0  0  0  0  0  0  0  0  0  0  0  0
   -1.2324    2.6793    3.4065 C   0  0  0  0  0  0  0  0  0  0  0  0
   -0.6156    2.7766    4.5944 N   0  0  0  0  0  0  0  0  0  0  0  0
    0.1701    1.6713    4.6443 N   0  0  0  0  0  0  0  0  0  0  0  0
    0.9825    1.4362    5.8106 C   0  0  0  0  0  0  0  0  0  0  0  0
    0.0527    0.9174    3.5217 C   0  0  0  0  0  0  0  0  0  0  0  0
    1.3140   -0.7579    3.7304 H   0  0  0  0  0  0  0  0  0  0  0  0
   -0.4802   -2.5150    0.1625 H   0  0  0  0  0  0  0  0  0  0  0  0
    0.9034   -3.5699    0.3968 H   0  0  0  0  0  0  0  0  0  0  0  0
    1.2094   -0.7461   -0.7689 H   0  0  0  0  0  0  0  0  0  0  0  0
    0.9493   -2.2024   -1.7527 H   0  0  0  0  0  0  0  0  0  0  0  0
    2.9714   -1.4230   -2.6726 H   0  0  0  0  0  0  0  0  0  0  0  0
    4.3648   -0.1159   -0.2580 H   0  0  0  0  0  0  0  0  0  0  0  0
    4.5559    0.4226   -1.9442 H   0  0  0  0  0  0  0  0  0  0  0  0
    2.9902    0.5461   -1.1282 H   0  0  0  0  0  0  0  0  0  0  0  0
    4.5249   -3.3151   -2.2736 H   0  0  0  0  0  0  0  0  0  0  0  0
    5.4338   -1.8469   -2.6953 H   0  0  0  0  0  0  0  0  0  0  0  0
    5.3486   -2.4131   -1.0099 H   0  0  0  0  0  0  0  0  0  0  0  0
   -1.9508    2.6571    0.7817 H   0  0  0  0  0  0  0  0  0  0  0  0
   -1.2665    3.0804   -1.4605 H   0  0  0  0  0  0  0  0  0  0  0  0
   -1.6065    2.5384   -3.8228 H   0  0  0  0  0  0  0  0  0  0  0  0
   -2.8905    1.2331   -5.5021 H   0  0  0  0  0  0  0  0  0  0  0  0
   -3.7508   -0.2338   -5.0369 H   0  0  0  0  0  0  0  0  0  0  0  0
   -1.9782   -0.2680   -5.2099 H   0  0  0  0  0  0  0  0  0  0  0  0
   -3.6329   -1.0865   -2.7093 H   0  0  0  0  0  0  0  0  0  0  0  0
   -3.7773   -0.3146    0.8860 H   0  0  0  0  0  0  0  0  0  0  0  0
   -4.4311   -1.2866   -0.4192 H   0  0  0  0  0  0  0  0  0  0  0  0
   -2.7839   -1.6065    0.1597 H   0  0  0  0  0  0  0  0  0  0  0  0
   -1.9419    3.4484    3.1312 H   0  0  0  0  0  0  0  0  0  0  0  0
    1.5654    0.5220    5.6809 H   0  0  0  0  0  0  0  0  0  0  0  0
    0.3218    1.3356    6.6753 H   0  0  0  0  0  0  0  0  0  0  0  0
    1.6547    2.2882    5.9397 H   0  0  0  0  0  0  0  0  0  0  0  0
  1  2  1  0
  2  3  2  3
  3  4  1  0
  4  5  1  0
  5  6  1  0
  6  7  1  0
  7  8  1  0
  7  9  1  0
  2 10  1  0
 10 11  2  0
 11 12  1  0
 12 13  1  0
 13 14  2  0
 14 15  1  0
 15 16  2  0
 16 17  1  0
 16 18  1  0
 18 19  2  0
 19 20  1  0
 11 21  1  0
 21 22  1  0
 22 23  2  0
 23 24  1  0
 24 25  1  0
 24 26  1  0
 26  1  1  0
 19 13  1  0
 26 21  2  0
  1 27  1  0
  4 28  1  0
  4 29  1  0
  5 30  1  0
  5 31  1  0
  7 32  1  0
  8 33  1  0
  8 34  1  0
  8 35  1  0
  9 36  1  0
  9 37  1  0
  9 38  1  0
 12 39  1  0
 14 40  1  0
 15 41  1  0
 17 42  1  0
 17 43  1  0
 17 44  1  0
 18 45  1  0
 20 46  1  0
 20 47  1  0
 20 48  1  0
 22 49  1  0
 25 50  1  0
 25 51  1  0
 25 52  1  0
M  END
>  <ScrubInfo>  (4) 
{"isomerGroup": 0, "isomerId": 3, "confId": 0, "nr_conformers:": 1, "nr_isomers:": 9}

$$$$
_i4
     RDKit          3D

 52 54  0  0  0  0  0  0  0  0999 V2000
    0.8184   -0.7049    0.1275 N   0  0  0  0  0  0  0  0  0  0  0  0
    0.9339    0.6619    0.1707 C   0  0  0  0  0  0  0  0  0  0  0  0
    2.1911    1.1620    0.3375 N   0  0  0  0  0  0  0  0  0  0  0  0
    3.4003    0.5910   -0.2265 C   0  0  0  0  0  0  0  0  0  0  0  0
    4.2371   -0.0910    0.8609 C   0  0  0  0  0  0  0  0  0  0  0  0
    5.2711   -0.8919    0.2858 O   0  0  0  0  0  0  0  0  0  0  0  0
    6.4680   -0.1725   -0.0274 C   0  0  0  0  0  0  0  0  0  0  0  0
    7.1777   -0.9419   -1.1351 C   0  0  0  0  0  0  0  0  0  0  0  0
    7.3577   -0.0789    1.2080 C   0  0  0  0  0  0  0  0  0  0  0  0
   -0.0577    1.5033    0.0790 N   0  0  0  0  0  0  0  0  0  0  0  0
   -1.3563    1.0357   -0.0894 C   0  0  0  0  0  0  0  0  0  0  0  0
   -2.2726    1.9437   -0.2055 N   0  0  0  0  0  0  0  0  0  0  0  0
   -3.6216    1.6278   -0.3849 C   0  0  0  0  0  0  0  0  0  0  0  0
   -4.1196    1.4795   -1.6840 C   0  0  0  0  0  0  0  0  0  0  0  0
   -5.4646    1.1776   -1.9033 C   0  0  0  0  0  0  0  0  0  0  0  0
   -6.3367    1.0241   -0.8221 C   0  0  0  0  0  0  0  0  0  0  0  0
   -7.7893    0.7293   -1.0531 C   0  0  0  0  0  0  0  0  0  0  0  0
   -5.8506    1.2166    0.4781 C   0  0  0  0  0  0  0  0  0  0  0  0
   -4.5003    1.5287    0.7075 C   0  0  0  0  0  0  0  0  0  0  0  0
   -4.0065    1.7327    2.1121 C   0  0  0  0  0  0  0  0  0  0  0  0
   -1.5285   -0.4079   -0.1122 C   0  0  0  0  0  0  0  0  0  0  0  0
   -2.5855   -1.3312   -0.2120 C   0  0  0  0  0  0  0  0  0  0  0  0
   -2.1701   -2.6078   -0.1638 N   0  0  0  0  0  0  0  0  0  0  0  0
   -0.8287   -2.5036   -0.0333 N   0  0  0  0  0  0  0  0  0  0  0  0
   -0.0379   -3.7050    0.0490 C   0  0  0  0  0  0  0  0  0  0  0  0
   -0.4203   -1.2091   -0.0000 C   0  0  0  0  0  0  0  0  0  0  0  0
    1.6314   -1.2639    0.3413 H   0  0  0  0  0  0  0  0  0  0  0  0
    2.1627    2.1787    0.2918 H   0  0  0  0  0  0  0  0  0  0  0  0
    3.9877    1.3899   -0.6931 H   0  0  0  0  0  0  0  0  0  0  0  0
    3.1738   -0.1146   -1.0351 H   0  0  0  0  0  0  0  0  0  0  0  0
    4.6394    0.6409    1.5702 H   0  0  0  0  0  0  0  0  0  0  0  0
    3.6037   -0.7731    1.4386 H   0  0  0  0  0  0  0  0  0  0  0  0
    6.2289    0.8314   -0.3963 H   0  0  0  0  0  0  0  0  0  0  0  0
    6.5308   -1.0235   -2.0154 H   0  0  0  0  0  0  0  0  0  0  0  0
    8.1077   -0.4471   -1.4315 H   0  0  0  0  0  0  0  0  0  0  0  0
    7.4087   -1.9653   -0.8190 H   0  0  0  0  0  0  0  0  0  0  0  0
    8.3094    0.4081    0.9740 H   0  0  0  0  0  0  0  0  0  0  0  0
    6.8698    0.4925    2.0037 H   0  0  0  0  0  0  0  0  0  0  0  0
    7.5634   -1.0740    1.6179 H   0  0  0  0  0  0  0  0  0  0  0  0
   -3.4495    1.6029   -2.5308 H   0  0  0  0  0  0  0  0  0  0  0  0
   -5.8246    1.0669   -2.9234 H   0  0  0  0  0  0  0  0  0  0  0  0
   -8.3511    1.6640   -1.1435 H   0  0  0  0  0  0  0  0  0  0  0  0
   -7.9284    0.1428   -1.9674 H   0  0  0  0  0  0  0  0  0  0  0  0
   -8.2048    0.1439   -0.2261 H   0  0  0  0  0  0  0  0  0  0  0  0
   -6.5325    1.1294    1.3221 H   0  0  0  0  0  0  0  0  0  0  0  0
   -3.3510    0.9071    2.4063 H   0  0  0  0  0  0  0  0  0  0  0  0
   -4.8365    1.7745    2.8254 H   0  0  0  0  0  0  0  0  0  0  0  0
   -3.4606    2.6781    2.1945 H   0  0  0  0  0  0  0  0  0  0  0  0
   -3.6469   -1.1498   -0.3133 H   0  0  0  0  0  0  0  0  0  0  0  0
    1.0235   -3.4581   -0.0210 H   0  0  0  0  0  0  0  0  0  0  0  0
   -0.2478   -4.1875    1.0067 H   0  0  0  0  0  0  0  0  0  0  0  0
   -0.3157   -4.3621   -0.7792 H   0  0  0  0  0  0  0  0  0  0  0  0
  1  2  1  0
  2  3  1  0
  3  4  1  0
  4  5  1  0
  5  6  1  0
  6  7  1  0
  7  8  1  0
  7  9  1  0
  2 10  2  0
 10 11  1  0
 11 12  2  3
 12 13  1  0
 13 14  2  0
 14 15  1  0
 15 16  2  0
 16 17  1  0
 16 18  1  0
 18 19  2  0
 19 20  1  0
 11 21  1  0
 21 22  1  0
 22 23  2  0
 23 24  1  0
 24 25  1  0
 24 26  1  0
 26  1  1  0
 19 13  1  0
 26 21  2  0
  1 27  1  0
  3 28  1  0
  4 29  1  0
  4 30  1  0
  5 31  1  0
  5 32  1  0
  7 33  1  0
  8 34  1  0
  8 35  1  0
  8 36  1  0
  9 37  1  0
  9 38  1  0
  9 39  1  0
 14 40  1  0
 15 41  1  0
 17 42  1  0
 17 43  1  0
 17 44  1  0
 18 45  1  0
 20 46  1  0
 20 47  1  0
 20 48  1  0
 22 49  1  0
 25 50  1  0
 25 51  1  0
 25 52  1  0
M  END
>  <ScrubInfo>  (5) 
{"isomerGroup": 0, "isomerId": 4, "confId": 0, "nr_conformers:": 1, "nr_isomers:": 9}

$$$$
_i5
     RDKit          3D

 52 54  0  0  0  0  0  0  0  0999 V2000
   -0.4447    3.7167    3.8420 N   0  0  0  0  0  0  0  0  0  0  0  0
   -1.4267    3.0877    3.0828 C   0  0  0  0  0  0  0  0  0  0  0  0
   -0.9787    1.9892    2.4619 C   0  0  0  0  0  0  0  0  0  0  0  0
   -1.4943    1.0005    1.5450 C   0  0  0  0  0  0  0  0  0  0  0  0
   -2.7195    1.0180    1.1206 N   0  0  0  0  0  0  0  0  0  0  0  0
   -3.1210    0.0270    0.2077 C   0  0  0  0  0  0  0  0  0  0  0  0
   -3.6311   -1.1828    0.6907 C   0  0  0  0  0  0  0  0  0  0  0  0
   -4.0521   -2.1837   -0.1868 C   0  0  0  0  0  0  0  0  0  0  0  0
   -3.9881   -1.9818   -1.5683 C   0  0  0  0  0  0  0  0  0  0  0  0
   -4.4056   -3.0671   -2.5154 C   0  0  0  0  0  0  0  0  0  0  0  0
   -3.4794   -0.7709   -2.0564 C   0  0  0  0  0  0  0  0  0  0  0  0
   -3.0608    0.2447   -1.1799 C   0  0  0  0  0  0  0  0  0  0  0  0
   -2.5214    1.5337   -1.7315 C   0  0  0  0  0  0  0  0  0  0  0  0
   -0.5760    0.0660    1.1522 N   0  0  0  0  0  0  0  0  0  0  0  0
    0.6544    0.0677    1.5704 C   0  0  0  0  0  0  0  0  0  0  0  0
    1.5303   -0.8829    1.1279 N   0  0  0  0  0  0  0  0  0  0  0  0
    1.2955   -1.6338   -0.0967 C   0  0  0  0  0  0  0  0  0  0  0  0
    1.5914   -0.7757   -1.3334 C   0  0  0  0  0  0  0  0  0  0  0  0
    2.9662   -0.3649   -1.3565 O   0  0  0  0  0  0  0  0  0  0  0  0
    3.8524   -1.3103   -1.9609 C   0  0  0  0  0  0  0  0  0  0  0  0
    3.8880   -1.0937   -3.4702 C   0  0  0  0  0  0  0  0  0  0  0  0
    5.2331   -1.0815   -1.3580 C   0  0  0  0  0  0  0  0  0  0  0  0
    1.1943    0.9699    2.4509 N   0  0  0  0  0  0  0  0  0  0  0  0
    0.4155    1.8873    2.9093 C   0  0  0  0  0  0  0  0  0  0  0  0
    0.6876    2.9035    3.8278 N   0  0  0  0  0  0  0  0  0  0  0  0
    1.9984    3.5207    3.8869 C   0  0  0  0  0  0  0  0  0  0  0  0
   -0.7759    4.0074    4.7648 H   0  0  0  0  0  0  0  0  0  0  0  0
   -2.4241    3.5026    3.0434 H   0  0  0  0  0  0  0  0  0  0  0  0
   -3.6883   -1.3460    1.7631 H   0  0  0  0  0  0  0  0  0  0  0  0
   -4.4302   -3.1188    0.2186 H   0  0  0  0  0  0  0  0  0  0  0  0
   -3.5482   -3.7026   -2.7573 H   0  0  0  0  0  0  0  0  0  0  0  0
   -5.1935   -3.6881   -2.0763 H   0  0  0  0  0  0  0  0  0  0  0  0
   -4.8058   -2.6434   -3.4425 H   0  0  0  0  0  0  0  0  0  0  0  0
   -3.4139   -0.6125   -3.1310 H   0  0  0  0  0  0  0  0  0  0  0  0
   -3.0092    2.3910   -1.2564 H   0  0  0  0  0  0  0  0  0  0  0  0
   -1.4410    1.5922   -1.5661 H   0  0  0  0  0  0  0  0  0  0  0  0
   -2.7035    1.6145   -2.8084 H   0  0  0  0  0  0  0  0  0  0  0  0
    2.4902   -0.5724    1.2359 H   0  0  0  0  0  0  0  0  0  0  0  0
    0.2675   -2.0113   -0.1332 H   0  0  0  0  0  0  0  0  0  0  0  0
    1.9559   -2.5066   -0.0789 H   0  0  0  0  0  0  0  0  0  0  0  0
    0.9878    0.1377   -1.3128 H   0  0  0  0  0  0  0  0  0  0  0  0
    1.3313   -1.3183   -2.2484 H   0  0  0  0  0  0  0  0  0  0  0  0
    3.5376   -2.3357   -1.7364 H   0  0  0  0  0  0  0  0  0  0  0  0
    4.1586   -0.0595   -3.7105 H   0  0  0  0  0  0  0  0  0  0  0  0
    4.6071   -1.7651   -3.9495 H   0  0  0  0  0  0  0  0  0  0  0  0
    2.9049   -1.2715   -3.9171 H   0  0  0  0  0  0  0  0  0  0  0  0
    5.2004   -1.2197   -0.2717 H   0  0  0  0  0  0  0  0  0  0  0  0
    5.5754   -0.0556   -1.5339 H   0  0  0  0  0  0  0  0  0  0  0  0
    5.9701   -1.7745   -1.7750 H   0  0  0  0  0  0  0  0  0  0  0  0
    2.2165    4.0611    2.9599 H   0  0  0  0  0  0  0  0  0  0  0  0
    2.7740    2.7640    4.0424 H   0  0  0  0  0  0  0  0  0  0  0  0
    2.0490    4.2273    4.7217 H   0  0  0  0  0  0  0  0  0  0  0  0
  1  2  1  0
  2  3  2  0
  3  4  1  0
  4  5  2  3
  5  6  1  0
  6  7  2  0
  7  8  1  0
  8  9  2  0
  9 10  1  0
  9 11  1  0
 11 12  2  0
 12 13  1  0
  4 14  1  0
 14 15  2  0
 15 16  1  0
 16 17  1  0
 17 18  1  0
 18 19  1  0
 19 20  1  0
 20 21  1  0
 20 22  1  0
 15 23  1  0
 23 24  2  0
 24 25  1  0
 25 26  1  0
 25  1  1  0
 24  3  1  0
 12  6  1  0
  1 27  1  0
  2 28  1  0
  7 29  1  0
  8 30  1  0
 10 31  1  0
 10 32  1  0
 10 33  1  0
 11 34  1  0
 13 35  1  0
 13 36  1  0
 13 37  1  0
 16 38  1  0
 17 39  1  0
 17 40  1  0
 18 41  1  0
 18 42  1  0
 20 43  1  0
 21 44  1  0
 21 45  1  0
 21 46  1  0
 22 47  1  0
 22 48  1  0
 22 49  1  0
 26 50  1  0
 26 51  1  0
 26 52  1  0
M  END
>  <ScrubInfo>  (6) 
{"isomerGroup": 0, "isomerId": 5, "confId": 0, "nr_conformers:": 1, "nr_isomers:": 9}

$$$$
_i6
     RDKit          3D

 52 54  0  0  0  0  0  0  0  0999 V2000
   -0.9199    4.4279    2.1381 N   0  0  0  0  0  0  0  0  0  0  0  0
   -1.7405    3.3185    1.9641 C   0  0  0  0  0  0  0  0  0  0  0  0
   -1.2370    2.4277    1.0988 C   0  0  0  0  0  0  0  0  0  0  0  0
   -1.5970    1.1248    0.5356 C   0  0  0  0  0  0  0  0  0  0  0  0
   -2.7930    0.5311    0.9134 N   0  0  0  0  0  0  0  0  0  0  0  0
   -3.1825   -0.7812    0.5594 C   0  0  0  0  0  0  0  0  0  0  0  0
   -3.3394   -1.7236    1.5910 C   0  0  0  0  0  0  0  0  0  0  0  0
   -3.6694   -3.0530    1.3171 C   0  0  0  0  0  0  0  0  0  0  0  0
   -3.8509   -3.4744    0.0003 C   0  0  0  0  0  0  0  0  0  0  0  0
   -4.1534   -4.9104   -0.3077 C   0  0  0  0  0  0  0  0  0  0  0  0
   -3.6794   -2.5481   -1.0345 C   0  0  0  0  0  0  0  0  0  0  0  0
   -3.3634   -1.2007   -0.7717 C   0  0  0  0  0  0  0  0  0  0  0  0
   -3.2249   -0.2720   -1.9476 C   0  0  0  0  0  0  0  0  0  0  0  0
   -0.7520    0.5872   -0.2961 N   0  0  0  0  0  0  0  0  0  0  0  0
    0.4273    1.2291   -0.5959 C   0  0  0  0  0  0  0  0  0  0  0  0
    1.2139    0.5447   -1.3464 N   0  0  0  0  0  0  0  0  0  0  0  0
    2.5038    1.1147   -1.7372 C   0  0  0  0  0  0  0  0  0  0  0  0
    3.5552    1.0033   -0.6232 C   0  0  0  0  0  0  0  0  0  0  0  0
    3.7182   -0.2926   -0.0421 O   0  0  0  0  0  0  0  0  0  0  0  0
    4.0074   -1.3652   -0.9391 C   0  0  0  0  0  0  0  0  0  0  0  0
    5.3773   -1.2027   -1.5904 C   0  0  0  0  0  0  0  0  0  0  0  0
    3.9691   -2.6472   -0.1122 C   0  0  0  0  0  0  0  0  0  0  0  0
    0.8073    2.4873   -0.1841 N   0  0  0  0  0  0  0  0  0  0  0  0
    0.0065    3.0761    0.6330 C   0  0  0  0  0  0  0  0  0  0  0  0
    0.1207    4.3379    1.2183 N   0  0  0  0  0  0  0  0  0  0  0  0
    1.4208    4.8789    1.5683 C   0  0  0  0  0  0  0  0  0  0  0  0
   -1.4280    5.3158    2.1513 H   0  0  0  0  0  0  0  0  0  0  0  0
   -2.6742    3.2716    2.5049 H   0  0  0  0  0  0  0  0  0  0  0  0
   -3.1264    0.7902    1.8330 H   0  0  0  0  0  0  0  0  0  0  0  0
   -3.1777   -1.4354    2.6265 H   0  0  0  0  0  0  0  0  0  0  0  0
   -3.7662   -3.7584    2.1388 H   0  0  0  0  0  0  0  0  0  0  0  0
   -4.7189   -5.3745    0.5072 H   0  0  0  0  0  0  0  0  0  0  0  0
   -4.7622   -4.9952   -1.2140 H   0  0  0  0  0  0  0  0  0  0  0  0
   -3.2221   -5.4664   -0.4530 H   0  0  0  0  0  0  0  0  0  0  0  0
   -3.7923   -2.8751   -2.0672 H   0  0  0  0  0  0  0  0  0  0  0  0
   -2.2213   -0.3472   -2.3761 H   0  0  0  0  0  0  0  0  0  0  0  0
   -3.9520   -0.5305   -2.7258 H   0  0  0  0  0  0  0  0  0  0  0  0
   -3.4263    0.7677   -1.6726 H   0  0  0  0  0  0  0  0  0  0  0  0
    2.4080    2.1566   -2.0669 H   0  0  0  0  0  0  0  0  0  0  0  0
    2.8475    0.5648   -2.6203 H   0  0  0  0  0  0  0  0  0  0  0  0
    3.2890    1.6706    0.2030 H   0  0  0  0  0  0  0  0  0  0  0  0
    4.5247    1.3559   -0.9917 H   0  0  0  0  0  0  0  0  0  0  0  0
    3.2301   -1.4409   -1.7061 H   0  0  0  0  0  0  0  0  0  0  0  0
    5.3917   -0.3427   -2.2672 H   0  0  0  0  0  0  0  0  0  0  0  0
    5.6467   -2.0890   -2.1734 H   0  0  0  0  0  0  0  0  0  0  0  0
    6.1518   -1.0277   -0.8357 H   0  0  0  0  0  0  0  0  0  0  0  0
    4.1606   -3.5283   -0.7324 H   0  0  0  0  0  0  0  0  0  0  0  0
    4.7100   -2.6171    0.6945 H   0  0  0  0  0  0  0  0  0  0  0  0
    2.9895   -2.7638    0.3644 H   0  0  0  0  0  0  0  0  0  0  0  0
    2.0796    4.8943    0.6941 H   0  0  0  0  0  0  0  0  0  0  0  0
    1.8934    4.2789    2.3530 H   0  0  0  0  0  0  0  0  0  0  0  0
    1.3202    5.9075    1.9293 H   0  0  0  0  0  0  0  0  0  0  0  0
  1  2  1  0
  2  3  2  0
  3  4  1  0
  4  5  1  0
  5  6  1  0
  6  7  2  0
  7  8  1  0
  8  9  2  0
  9 10  1  0
  9 11  1  0
 11 12  2  0
 12 13  1  0
  4 14  2  0
 14 15  1  0
 15 16  2  3
 16 17  1  0
 17 18  1  0
 18 19  1  0
 19 20  1  0
 20 21  1  0
 20 22  1  0
 15 23  1  0
 23 24  2  0
 24 25  1  0
 25 26  1  0
 25  1  1  0
 24  3  1  0
 12  6  1  0
  1 27  1  0
  2 28  1  0
  5 29  1  0
  7 30  1  0
  8 31  1  0
 10 32  1  0
 10 33  1  0
 10 34  1  0
 11 35  1  0
 13 36  1  0
 13 37  1  0
 13 38  1  0
 17 39  1  0
 17 40  1  0
 18 41  1  0
 18 42  1  0
 20 43  1  0
 21 44  1  0
 21 45  1  0
 21 46  1  0
 22 47  1  0
 22 48  1  0
 22 49  1  0
 26 50  1  0
 26 51  1  0
 26 52  1  0
M  END
>  <ScrubInfo>  (7) 
{"isomerGroup": 0, "isomerId": 6, "confId": 0, "nr_conformers:": 1, "nr_isomers:": 9}

$$$$
_i7
     RDKit          3D

 52 54  0  0  0  0  0  0  0  0999 V2000
    0.7168    1.9880    1.9656 N   0  0  0  0  0  0  0  0  0  0  0  0
    0.6501    1.2364    0.8070 C   0  0  0  0  0  0  0  0  0  0  0  0
    1.7534    0.7922    0.3065 N   0  0  0  0  0  0  0  0  0  0  0  0
    1.6884   -0.0187   -0.9145 C   0  0  0  0  0  0  0  0  0  0  0  0
    3.0706   -0.6123   -1.2031 C   0  0  0  0  0  0  0  0  0  0  0  0
    3.2882   -1.7424   -0.3524 O   0  0  0  0  0  0  0  0  0  0  0  0
    4.5971   -2.3022   -0.4780 C   0  0  0  0  0  0  0  0  0  0  0  0
    5.5906   -1.5301    0.3843 C   0  0  0  0  0  0  0  0  0  0  0  0
    4.5105   -3.7517   -0.0139 C   0  0  0  0  0  0  0  0  0  0  0  0
   -0.6390    1.0660    0.3292 N   0  0  0  0  0  0  0  0  0  0  0  0
   -1.8494    1.5149    0.8305 C   0  0  0  0  0  0  0  0  0  0  0  0
   -3.0557    1.3524    0.3950 N   0  0  0  0  0  0  0  0  0  0  0  0
   -3.2291    0.6048   -0.7798 C   0  0  0  0  0  0  0  0  0  0  0  0
   -3.2381    1.2693   -2.0104 C   0  0  0  0  0  0  0  0  0  0  0  0
   -3.3724    0.5592   -3.2041 C   0  0  0  0  0  0  0  0  0  0  0  0
   -3.5181   -0.8305   -3.1834 C   0  0  0  0  0  0  0  0  0  0  0  0
   -3.6293   -1.6033   -4.4647 C   0  0  0  0  0  0  0  0  0  0  0  0
   -3.5144   -1.4982   -1.9514 C   0  0  0  0  0  0  0  0  0  0  0  0
   -3.3917   -0.7903   -0.7444 C   0  0  0  0  0  0  0  0  0  0  0  0
   -3.4001   -1.5350    0.5613 C   0  0  0  0  0  0  0  0  0  0  0  0
   -1.6613    2.2799    2.0392 C   0  0  0  0  0  0  0  0  0  0  0  0
   -2.5070    2.9459    2.9379 C   0  0  0  0  0  0  0  0  0  0  0  0
   -1.8289    3.5246    3.9414 N   0  0  0  0  0  0  0  0  0  0  0  0
   -0.5340    3.2200    3.6762 N   0  0  0  0  0  0  0  0  0  0  0  0
    0.4902    3.6893    4.5744 C   0  0  0  0  0  0  0  0  0  0  0  0
   -0.4000    2.4771    2.5437 C   0  0  0  0  0  0  0  0  0  0  0  0
    1.6543    2.1048    2.3315 H   0  0  0  0  0  0  0  0  0  0  0  0
    1.3944    0.6214   -1.7539 H   0  0  0  0  0  0  0  0  0  0  0  0
    0.9632   -0.8333   -0.8028 H   0  0  0  0  0  0  0  0  0  0  0  0
    3.8492    0.1428   -1.0549 H   0  0  0  0  0  0  0  0  0  0  0  0
    3.1022   -0.9577   -2.2426 H   0  0  0  0  0  0  0  0  0  0  0  0
    4.9144   -2.2893   -1.5278 H   0  0  0  0  0  0  0  0  0  0  0  0
    5.2454   -1.4735    1.4226 H   0  0  0  0  0  0  0  0  0  0  0  0
    6.5786   -2.0006    0.3671 H   0  0  0  0  0  0  0  0  0  0  0  0
    5.7018   -0.4995    0.0339 H   0  0  0  0  0  0  0  0  0  0  0  0
    3.7846   -4.3029   -0.6216 H   0  0  0  0  0  0  0  0  0  0  0  0
    5.4800   -4.2535   -0.0901 H   0  0  0  0  0  0  0  0  0  0  0  0
    4.1628   -3.8133    1.0234 H   0  0  0  0  0  0  0  0  0  0  0  0
   -0.7243    0.5174   -0.5110 H   0  0  0  0  0  0  0  0  0  0  0  0
   -3.1372    2.3516   -2.0355 H   0  0  0  0  0  0  0  0  0  0  0  0
   -3.3693    1.1000   -4.1477 H   0  0  0  0  0  0  0  0  0  0  0  0
   -4.1009   -0.9989   -5.2467 H   0  0  0  0  0  0  0  0  0  0  0  0
   -4.2473   -2.4971   -4.3288 H   0  0  0  0  0  0  0  0  0  0  0  0
   -2.6349   -1.9079   -4.8048 H   0  0  0  0  0  0  0  0  0  0  0  0
   -3.6197   -2.5818   -1.9302 H   0  0  0  0  0  0  0  0  0  0  0  0
   -4.0638   -1.0459    1.2818 H   0  0  0  0  0  0  0  0  0  0  0  0
   -3.7645   -2.5597    0.4328 H   0  0  0  0  0  0  0  0  0  0  0  0
   -2.3876   -1.5829    0.9743 H   0  0  0  0  0  0  0  0  0  0  0  0
   -3.5854    3.0341    2.9060 H   0  0  0  0  0  0  0  0  0  0  0  0
    0.3284    3.2265    5.5511 H   0  0  0  0  0  0  0  0  0  0  0  0
    0.4120    4.7770    4.6492 H   0  0  0  0  0  0  0  0  0  0  0  0
    1.4764    3.4170    4.1935 H   0  0  0  0  0  0  0  0  0  0  0  0
  1  2  1  0
  2  3  2  3
  3  4  1  0
  4  5  1  0
  5  6  1  0
  6  7  1  0
  7  8  1  0
  7  9  1  0
  2 10  1  0
 10 11  1  0
 11 12  2  3
 12 13  1  0
 13 14  2  0
 14 15  1  0
 15 16  2  0
 16 17  1  0
 16 18  1  0
 18 19  2  0
 19 20  1  0
 11 21  1  0
 21 22  1  0
 22 23  2  0
 23 24  1  0
 24 25  1  0
 24 26  1  0
 26  1  1  0
 19 13  1  0
 26 21  2  0
  1 27  1  0
  4 28  1  0
  4 29  1  0
  5 30  1  0
  5 31  1  0
  7 32  1  0
  8 33  1  0
  8 34  1  0
  8 35  1  0
  9 36  1  0
  9 37  1  0
  9 38  1  0
 10 39  1  0
 14 40  1  0
 15 41  1  0
 17 42  1  0
 17 43  1  0
 17 44  1  0
 18 45  1  0
 20 46  1  0
 20 47  1  0
 20 48  1  0
 22 49  1  0
 25 50  1  0
 25 51  1  0
 25 52  1  0
M  END
>  <ScrubInfo>  (8) 
{"isomerGroup": 0, "isomerId": 7, "confId": 0, "nr_conformers:": 1, "nr_isomers:": 9}

$$$$
_i8
     RDKit          3D

 52 54  0  0  0  0  0  0  0  0999 V2000
   -1.9611    5.5018    0.5443 N   0  0  0  0  0  0  0  0  0  0  0  0
   -2.5648    4.2514    0.6175 C   0  0  0  0  0  0  0  0  0  0  0  0
   -1.6951    3.2451    0.4703 C   0  0  0  0  0  0  0  0  0  0  0  0
   -1.7094    1.7830    0.4858 C   0  0  0  0  0  0  0  0  0  0  0  0
   -2.8373    1.1531    0.6361 N   0  0  0  0  0  0  0  0  0  0  0  0
   -2.8185   -0.2509    0.6475 C   0  0  0  0  0  0  0  0  0  0  0  0
   -2.6401   -0.9179    1.8638 C   0  0  0  0  0  0  0  0  0  0  0  0
   -2.5705   -2.3108    1.9100 C   0  0  0  0  0  0  0  0  0  0  0  0
   -2.6984   -3.0609    0.7379 C   0  0  0  0  0  0  0  0  0  0  0  0
   -2.5871   -4.5568    0.7766 C   0  0  0  0  0  0  0  0  0  0  0  0
   -2.8851   -2.3952   -0.4809 C   0  0  0  0  0  0  0  0  0  0  0  0
   -2.9663   -0.9941   -0.5355 C   0  0  0  0  0  0  0  0  0  0  0  0
   -3.1722   -0.3090   -1.8571 C   0  0  0  0  0  0  0  0  0  0  0  0
   -0.4548    1.2431    0.3312 N   0  0  0  0  0  0  0  0  0  0  0  0
    0.7215    1.9373    0.1655 C   0  0  0  0  0  0  0  0  0  0  0  0
    1.8956    1.4244    0.0474 N   0  0  0  0  0  0  0  0  0  0  0  0
    2.0461   -0.0253    0.0921 C   0  0  0  0  0  0  0  0  0  0  0  0
    3.5314   -0.3839    0.0080 C   0  0  0  0  0  0  0  0  0  0  0  0
    3.7037   -1.8039    0.0292 O   0  0  0  0  0  0  0  0  0  0  0  0
    3.6604   -2.4127   -1.2645 C   0  0  0  0  0  0  0  0  0  0  0  0
    5.0461   -2.3745   -1.9005 C   0  0  0  0  0  0  0  0  0  0  0  0
    3.2042   -3.8536   -1.0692 C   0  0  0  0  0  0  0  0  0  0  0  0
    0.7329    3.3172    0.1023 N   0  0  0  0  0  0  0  0  0  0  0  0
   -0.3951    3.9414    0.2296 C   0  0  0  0  0  0  0  0  0  0  0  0
   -0.6274    5.3188    0.1833 N   0  0  0  0  0  0  0  0  0  0  0  0
    0.3698    6.2571    0.6618 C   0  0  0  0  0  0  0  0  0  0  0  0
   -2.4896    6.1741   -0.0161 H   0  0  0  0  0  0  0  0  0  0  0  0
   -3.6312    4.1783    0.7782 H   0  0  0  0  0  0  0  0  0  0  0  0
   -2.5486   -0.3434    2.7822 H   0  0  0  0  0  0  0  0  0  0  0  0
   -2.4200   -2.8043    2.8676 H   0  0  0  0  0  0  0  0  0  0  0  0
   -1.5456   -4.8579    0.6275 H   0  0  0  0  0  0  0  0  0  0  0  0
   -2.9352   -4.9506    1.7374 H   0  0  0  0  0  0  0  0  0  0  0  0
   -3.2040   -5.0142   -0.0040 H   0  0  0  0  0  0  0  0  0  0  0  0
   -2.9775   -2.9755   -1.3976 H   0  0  0  0  0  0  0  0  0  0  0  0
   -3.9570    0.4506   -1.7809 H   0  0  0  0  0  0  0  0  0  0  0  0
   -2.2409    0.1625   -2.1864 H   0  0  0  0  0  0  0  0  0  0  0  0
   -3.4857   -1.0193   -2.6296 H   0  0  0  0  0  0  0  0  0  0  0  0
   -0.3946    0.2384    0.3523 H   0  0  0  0  0  0  0  0  0  0  0  0
    1.6390   -0.4395    1.0230 H   0  0  0  0  0  0  0  0  0  0  0  0
    1.5060   -0.4940   -0.7387 H   0  0  0  0  0  0  0  0  0  0  0  0
    4.0491    0.0177    0.8863 H   0  0  0  0  0  0  0  0  0  0  0  0
    4.0027    0.0643   -0.8740 H   0  0  0  0  0  0  0  0  0  0  0  0
    2.9366   -1.9009   -1.9093 H   0  0  0  0  0  0  0  0  0  0  0  0
    5.7892   -2.8453   -1.2473 H   0  0  0  0  0  0  0  0  0  0  0  0
    5.0522   -2.8885   -2.8667 H   0  0  0  0  0  0  0  0  0  0  0  0
    5.3782   -1.3440   -2.0601 H   0  0  0  0  0  0  0  0  0  0  0  0
    2.2161   -3.8782   -0.5966 H   0  0  0  0  0  0  0  0  0  0  0  0
    3.8845   -4.3961   -0.4034 H   0  0  0  0  0  0  0  0  0  0  0  0
    3.1468   -4.3863   -2.0233 H   0  0  0  0  0  0  0  0  0  0  0  0
    1.3251    6.0990    0.1511 H   0  0  0  0  0  0  0  0  0  0  0  0
    0.5249    6.1437    1.7398 H   0  0  0  0  0  0  0  0  0  0  0  0
    0.0512    7.2855    0.4626 H   0  0  0  0  0  0  0  0  0  0  0  0
  1  2  1  0
  2  3  2  0
  3  4  1  0
  4  5  2  3
  5  6  1  0
  6  7  2  0
  7  8  1  0
  8  9  2  0
  9 10  1  0
  9 11  1  0
 11 12  2  0
 12 13  1  0
  4 14  1  0
 14 15  1  0
 15 16  2  3
 16 17  1  0
 17 18  1  0
 18 19  1  0
 19 20  1  0
 20 21  1  0
 20 22  1  0
 15 23  1  0
 23 24  2  0
 24 25  1  0
 25 26  1  0
 25  1  1  0
 24  3  1  0
 12  6  1  0
  1 27  1  0
  2 28  1  0
  7 29  1  0
  8 30  1  0
 10 31  1  0
 10 32  1  0
 10 33  1  0
 11 34  1  0
 13 35  1  0
 13 36  1  0
 13 37  1  0
 14 38  1  0
 17 39  1  0
 17 40  1  0
 18 41  1  0
 18 42  1  0
 20 43  1  0
 21 44  1  0
 21 45  1  0
 21 46  1  0
 22 47  1  0
 22 48  1  0
 22 49  1  0
 26 50  1  0
 26 51  1  0
 26 52  1  0
M  END
>  <ScrubInfo>  (9) 
{"isomerGroup": 0, "isomerId": 8, "confId": 0, "nr_conformers:": 1, "nr_isomers:": 9}

$$$$
