_i0
     RDKit          3D

 47 50  0  0  0  0  0  0  0  0999 V2000
    7.1476    1.8172    1.9055 C   0  0  0  0  0  0  0  0  0  0  0  0
    6.1004    2.6484    1.4216 O   0  0  0  0  0  0  0  0  0  0  0  0
    5.0777    2.0285    0.7578 C   0  0  0  0  0  0  0  0  0  0  0  0
    4.0668    2.8840    0.3136 C   0  0  0  0  0  0  0  0  0  0  0  0
    2.9604    2.3853   -0.3790 C   0  0  0  0  0  0  0  0  0  0  0  0
    2.8524    1.0150   -0.6438 C   0  0  0  0  0  0  0  0  0  0  0  0
    1.6572    0.4589   -1.3840 C   0  0  0  0  0  0  0  0  0  0  0  0
    0.8287   -0.2806   -0.4554 N   0  0  0  0  0  0  0  0  0  0  0  0
   -0.3941   -0.6744   -0.9830 C   0  0  0  0  0  0  0  0  0  0  0  0
   -1.4205   -0.6192   -0.1166 N   0  0  0  0  0  0  0  0  0  0  0  0
   -2.6756   -0.9848   -0.4900 C   0  0  0  0  0  0  0  0  0  0  0  0
   -3.7638   -0.9189    0.3930 N   0  0  0  0  0  0  0  0  0  0  0  0
   -3.8529   -0.6388    1.7681 C   0  0  0  0  0  0  0  0  0  0  0  0
   -2.7462   -0.4811    2.6078 C   0  0  0  0  0  0  0  0  0  0  0  0
   -2.9021   -0.1749    3.9648 C   0  0  0  0  0  0  0  0  0  0  0  0
   -4.1738   -0.0122    4.5050 C   0  0  0  0  0  0  0  0  0  0  0  0
   -5.2897   -0.1545    3.6877 C   0  0  0  0  0  0  0  0  0  0  0  0
   -5.1280   -0.4614    2.3330 C   0  0  0  0  0  0  0  0  0  0  0  0
   -2.8374   -1.4075   -1.8160 C   0  0  0  0  0  0  0  0  0  0  0  0
   -3.8731   -1.8624   -2.6592 C   0  0  0  0  0  0  0  0  0  0  0  0
   -3.4531   -2.1425   -3.8979 N   0  0  0  0  0  0  0  0  0  0  0  0
   -2.1283   -1.8700   -3.8429 N   0  0  0  0  0  0  0  0  0  0  0  0
   -1.3143   -2.0664   -5.0159 C   0  0  0  0  0  0  0  0  0  0  0  0
   -1.7140   -1.4202   -2.6190 C   0  0  0  0  0  0  0  0  0  0  0  0
   -0.4724   -1.0626   -2.2626 N   0  0  0  0  0  0  0  0  0  0  0  0
    3.8661    0.1589   -0.1902 C   0  0  0  0  0  0  0  0  0  0  0  0
    4.9722    0.6614    0.5042 C   0  0  0  0  0  0  0  0  0  0  0  0
    7.6627    1.3114    1.0822 H   0  0  0  0  0  0  0  0  0  0  0  0
    6.7730    1.0971    2.6405 H   0  0  0  0  0  0  0  0  0  0  0  0
    7.8770    2.4583    2.4101 H   0  0  0  0  0  0  0  0  0  0  0  0
    4.1411    3.9506    0.5121 H   0  0  0  0  0  0  0  0  0  0  0  0
    2.1869    3.0761   -0.7063 H   0  0  0  0  0  0  0  0  0  0  0  0
    1.0962    1.2826   -1.8451 H   0  0  0  0  0  0  0  0  0  0  0  0
    2.0205   -0.1858   -2.1949 H   0  0  0  0  0  0  0  0  0  0  0  0
    0.6135    0.2173    0.4022 H   0  0  0  0  0  0  0  0  0  0  0  0
   -4.6462   -1.1717   -0.0283 H   0  0  0  0  0  0  0  0  0  0  0  0
   -1.7366   -0.6084    2.2306 H   0  0  0  0  0  0  0  0  0  0  0  0
   -2.0235   -0.0651    4.5952 H   0  0  0  0  0  0  0  0  0  0  0  0
   -4.2928    0.2266    5.5582 H   0  0  0  0  0  0  0  0  0  0  0  0
   -6.2865   -0.0238    4.1002 H   0  0  0  0  0  0  0  0  0  0  0  0
   -6.0188   -0.5562    1.7172 H   0  0  0  0  0  0  0  0  0  0  0  0
   -4.9201   -2.0032   -2.4253 H   0  0  0  0  0  0  0  0  0  0  0  0
   -0.2754   -1.8078   -4.7992 H   0  0  0  0  0  0  0  0  0  0  0  0
   -1.6979   -1.4232   -5.8118 H   0  0  0  0  0  0  0  0  0  0  0  0
   -1.3807   -3.1174   -5.3083 H   0  0  0  0  0  0  0  0  0  0  0  0
    3.7898   -0.9122   -0.3705 H   0  0  0  0  0  0  0  0  0  0  0  0
    5.7277   -0.0431    0.8346 H   0  0  0  0  0  0  0  0  0  0  0  0
  1  2  1  0
  2  3  1  0
  3  4  2  0
  4  5  1  0
  5  6  2  0
  6  7  1  0
  7  8  1  0
  8  9  1  0
  9 10  2  0
 10 11  1  0
 11 12  1  0
 12 13  1  0
 13 14  2  0
 14 15  1  0
 15 16  2  0
 16 17  1  0
 17 18  2  0
 11 19  2  0
 19 20  1  0
 20 21  2  0
 21 22  1  0
 22 23  1  0
 22 24  1  0
 24 25  2  0
  6 26  1  0
 26 27  2  0
 27  3  1  0
 25  9  1  0
 18 13  1  0
 24 19  1  0
  1 28  1  0
  1 29  1  0
  1 30  1  0
  4 31  1  0
  5 32  1  0
  7 33  1  0
  7 34  1  0
  8 35  1  0
 12 36  1  0
 14 37  1  0
 15 38  1  0
 16 39  1  0
 17 40  1  0
 18 41  1  0
 20 42  1  0
 23 43  1  0
 23 44  1  0
 23 45  1  0
 26 46  1  0
 27 47  1  0
M  END
>  <ScrubInfo>  (1) 
{"isomerGroup": 0, "isomerId": 0, "confId": 0, "nr_conformers:": 1, "nr_isomers:": 9}

$$$$
_i1
     RDKit          3D

 47 50  0  0  0  0  0  0  0  0999 V2000
   -1.4357   -0.3305   -0.4241 N   0  0  0  0  0  0  0  0  0  0  0  0
   -2.6912   -0.8807   -0.5957 C   0  0  0  0  0  0  0  0  0  0  0  0
   -3.7320   -0.2001   -1.1995 N   0  0  0  0  0  0  0  0  0  0  0  0
   -3.9938    1.1845   -1.2119 C   0  0  0  0  0  0  0  0  0  0  0  0
   -3.4102    2.0920   -0.3196 C   0  0  0  0  0  0  0  0  0  0  0  0
   -3.6726    3.4626   -0.4120 C   0  0  0  0  0  0  0  0  0  0  0  0
   -4.5172    3.9477   -1.4064 C   0  0  0  0  0  0  0  0  0  0  0  0
   -5.1005    3.0627   -2.3078 C   0  0  0  0  0  0  0  0  0  0  0  0
   -4.8372    1.6935   -2.2116 C   0  0  0  0  0  0  0  0  0  0  0  0
   -2.8071   -2.1453   -0.1712 C   0  0  0  0  0  0  0  0  0  0  0  0
   -3.8514   -3.1714   -0.0788 C   0  0  0  0  0  0  0  0  0  0  0  0
   -3.4387   -4.2767    0.4875 N   0  0  0  0  0  0  0  0  0  0  0  0
   -2.0780   -4.0681    0.7639 N   0  0  0  0  0  0  0  0  0  0  0  0
   -1.3956   -4.9785    1.6511 C   0  0  0  0  0  0  0  0  0  0  0  0
   -1.6276   -2.7980    0.4417 C   0  0  0  0  0  0  0  0  0  0  0  0
   -0.4705   -2.2544    0.6141 N   0  0  0  0  0  0  0  0  0  0  0  0
   -0.3605   -0.9657    0.1386 C   0  0  0  0  0  0  0  0  0  0  0  0
    0.7648   -0.3359    0.2061 N   0  0  0  0  0  0  0  0  0  0  0  0
    1.8846   -1.0551    0.8180 C   0  0  0  0  0  0  0  0  0  0  0  0
    3.1409   -0.2110    0.8335 C   0  0  0  0  0  0  0  0  0  0  0  0
    3.6048    0.3976   -0.3408 C   0  0  0  0  0  0  0  0  0  0  0  0
    4.7803    1.1573   -0.3412 C   0  0  0  0  0  0  0  0  0  0  0  0
    5.5131    1.3138    0.8348 C   0  0  0  0  0  0  0  0  0  0  0  0
    6.6735    2.0253    0.9726 O   0  0  0  0  0  0  0  0  0  0  0  0
    7.1660    2.6771   -0.1909 C   0  0  0  0  0  0  0  0  0  0  0  0
    5.0592    0.7034    2.0060 C   0  0  0  0  0  0  0  0  0  0  0  0
    3.8852   -0.0550    2.0084 C   0  0  0  0  0  0  0  0  0  0  0  0
   -1.2617    0.5732   -0.8396 H   0  0  0  0  0  0  0  0  0  0  0  0
   -4.5424   -0.7551   -1.4535 H   0  0  0  0  0  0  0  0  0  0  0  0
   -2.7698    1.7493    0.4889 H   0  0  0  0  0  0  0  0  0  0  0  0
   -3.2178    4.1492    0.2980 H   0  0  0  0  0  0  0  0  0  0  0  0
   -4.7189    5.0134   -1.4784 H   0  0  0  0  0  0  0  0  0  0  0  0
   -5.7550    3.4368   -3.0908 H   0  0  0  0  0  0  0  0  0  0  0  0
   -5.2885    1.0244   -2.9404 H   0  0  0  0  0  0  0  0  0  0  0  0
   -4.8702   -2.9799   -0.4385 H   0  0  0  0  0  0  0  0  0  0  0  0
   -0.3189   -4.9826    1.4537 H   0  0  0  0  0  0  0  0  0  0  0  0
   -1.5578   -4.6871    2.6934 H   0  0  0  0  0  0  0  0  0  0  0  0
   -1.7633   -6.0008    1.5159 H   0  0  0  0  0  0  0  0  0  0  0  0
    2.1126   -1.9730    0.2608 H   0  0  0  0  0  0  0  0  0  0  0  0
    1.6293   -1.3330    1.8486 H   0  0  0  0  0  0  0  0  0  0  0  0
    3.0399    0.2844   -1.2640 H   0  0  0  0  0  0  0  0  0  0  0  0
    5.0907    1.6104   -1.2759 H   0  0  0  0  0  0  0  0  0  0  0  0
    8.0856    3.2025    0.0844 H   0  0  0  0  0  0  0  0  0  0  0  0
    6.4536    3.4236   -0.5575 H   0  0  0  0  0  0  0  0  0  0  0  0
    7.4183    1.9528   -0.9725 H   0  0  0  0  0  0  0  0  0  0  0  0
    5.6252    0.8196    2.9267 H   0  0  0  0  0  0  0  0  0  0  0  0
    3.5565   -0.5193    2.9348 H   0  0  0  0  0  0  0  0  0  0  0  0
  1  2  1  0
  2  3  1  0
  3  4  1  0
  4  5  2  0
  5  6  1  0
  6  7  2  0
  7  8  1  0
  8  9  2  0
  2 10  2  0
 10 11  1  0
 11 12  2  0
 12 13  1  0
 13 14  1  0
 13 15  1  0
 15 16  2  0
 16 17  1  0
 17 18  2  3
 18 19  1  0
 19 20  1  0
 20 21  2  0
 21 22  1  0
 22 23  2  0
 23 24  1  0
 24 25  1  0
 23 26  1  0
 26 27  2  0
 17  1  1  0
 27 20  1  0
  9  4  1  0
 15 10  1  0
  1 28  1  0
  3 29  1  0
  5 30  1  0
  6 31  1  0
  7 32  1  0
  8 33  1  0
  9 34  1  0
 11 35  1  0
 14 36  1  0
 14 37  1  0
 14 38  1  0
 19 39  1  0
 19 40  1  0
 21 41  1  0
 22 42  1  0
 25 43  1  0
 25 44  1  0
 25 45  1  0
 26 46  1  0
 27 47  1  0
M  END
>  <ScrubInfo>  (2) 
{"isomerGroup": 0, "isomerId": 1, "confId": 0, "nr_conformers:": 1, "nr_isomers:": 9}

$$$$
_i2
     RDKit          3D

 47 50  0  0  0  0  0  0  0  0999 V2000
    1.5842   -0.6115    0.2951 N   0  0  0  0  0  0  0  0  0  0  0  0
    0.4759   -1.4238    0.2226 C   0  0  0  0  0  0  0  0  0  0  0  0
   -0.7237   -0.7844    0.0953 N   0  0  0  0  0  0  0  0  0  0  0  0
   -0.9519    0.2001   -0.9497 C   0  0  0  0  0  0  0  0  0  0  0  0
   -2.3994    0.6241   -0.9371 C   0  0  0  0  0  0  0  0  0  0  0  0
   -3.2646    0.2499   -1.9719 C   0  0  0  0  0  0  0  0  0  0  0  0
   -4.6052    0.6428   -1.9463 C   0  0  0  0  0  0  0  0  0  0  0  0
   -5.1064    1.4079   -0.8909 C   0  0  0  0  0  0  0  0  0  0  0  0
   -6.4336    1.7210   -0.9923 O   0  0  0  0  0  0  0  0  0  0  0  0
   -6.9968    2.4848    0.0667 C   0  0  0  0  0  0  0  0  0  0  0  0
   -4.2515    1.7787    0.1461 C   0  0  0  0  0  0  0  0  0  0  0  0
   -2.9077    1.3881    0.1233 C   0  0  0  0  0  0  0  0  0  0  0  0
    0.5111   -2.7323    0.2814 N   0  0  0  0  0  0  0  0  0  0  0  0
    1.7895   -3.1900    0.4043 C   0  0  0  0  0  0  0  0  0  0  0  0
    2.9548   -2.4522    0.4835 C   0  0  0  0  0  0  0  0  0  0  0  0
    3.9846   -3.3952    0.5991 C   0  0  0  0  0  0  0  0  0  0  0  0
    3.5225   -4.6529    0.5911 N   0  0  0  0  0  0  0  0  0  0  0  0
    2.1793   -4.4987    0.4764 N   0  0  0  0  0  0  0  0  0  0  0  0
    1.3354   -5.6662    0.4428 C   0  0  0  0  0  0  0  0  0  0  0  0
    2.8944   -1.0136    0.4470 C   0  0  0  0  0  0  0  0  0  0  0  0
    3.9885   -0.3377    0.5628 N   0  0  0  0  0  0  0  0  0  0  0  0
    3.8930    1.0586    0.5258 C   0  0  0  0  0  0  0  0  0  0  0  0
    3.7270    1.7849    1.7077 C   0  0  0  0  0  0  0  0  0  0  0  0
    3.6134    3.1757    1.6714 C   0  0  0  0  0  0  0  0  0  0  0  0
    3.6760    3.8475    0.4509 C   0  0  0  0  0  0  0  0  0  0  0  0
    3.8602    3.1306   -0.7309 C   0  0  0  0  0  0  0  0  0  0  0  0
    3.9733    1.7398   -0.6915 C   0  0  0  0  0  0  0  0  0  0  0  0
    1.4155    0.3743    0.4079 H   0  0  0  0  0  0  0  0  0  0  0  0
   -1.4640   -1.4846    0.0853 H   0  0  0  0  0  0  0  0  0  0  0  0
   -0.3236    1.0860   -0.8000 H   0  0  0  0  0  0  0  0  0  0  0  0
   -0.6871   -0.2240   -1.9258 H   0  0  0  0  0  0  0  0  0  0  0  0
   -2.9080   -0.3504   -2.8061 H   0  0  0  0  0  0  0  0  0  0  0  0
   -5.2683    0.3475   -2.7564 H   0  0  0  0  0  0  0  0  0  0  0  0
   -6.5214    3.4685    0.1399 H   0  0  0  0  0  0  0  0  0  0  0  0
   -6.9382    1.9449    1.0176 H   0  0  0  0  0  0  0  0  0  0  0  0
   -8.0552    2.6429   -0.1614 H   0  0  0  0  0  0  0  0  0  0  0  0
   -4.5965    2.3678    0.9892 H   0  0  0  0  0  0  0  0  0  0  0  0
   -2.2573    1.6774    0.9469 H   0  0  0  0  0  0  0  0  0  0  0  0
    5.0491   -3.2214    0.6888 H   0  0  0  0  0  0  0  0  0  0  0  0
    0.2876   -5.3706    0.3562 H   0  0  0  0  0  0  0  0  0  0  0  0
    1.4862   -6.2262    1.3692 H   0  0  0  0  0  0  0  0  0  0  0  0
    1.6215   -6.2721   -0.4206 H   0  0  0  0  0  0  0  0  0  0  0  0
    3.6926    1.2623    2.6602 H   0  0  0  0  0  0  0  0  0  0  0  0
    3.4879    3.7342    2.5955 H   0  0  0  0  0  0  0  0  0  0  0  0
    3.5970    4.9316    0.4226 H   0  0  0  0  0  0  0  0  0  0  0  0
    3.9280    3.6541   -1.6811 H   0  0  0  0  0  0  0  0  0  0  0  0
    4.1319    1.1819   -1.6107 H   0  0  0  0  0  0  0  0  0  0  0  0
  1  2  1  0
  2  3  1  0
  3  4  1  0
  4  5  1  0
  5  6  2  0
  6  7  1  0
  7  8  2  0
  8  9  1  0
  9 10  1  0
  8 11  1  0
 11 12  2  0
  2 13  2  0
 13 14  1  0
 14 15  2  0
 15 16  1  0
 16 17  2  0
 17 18  1  0
 18 19  1  0
 15 20  1  0
 20 21  2  3
 21 22  1  0
 22 23  2  0
 23 24  1  0
 24 25  2  0
 25 26  1  0
 26 27  2  0
 20  1  1  0
 27 22  1  0
 12  5  1  0
 18 14  1  0
  1 28  1  0
  3 29  1  0
  4 30  1  0
  4 31  1  0
  6 32  1  0
  7 33  1  0
 10 34  1  0
 10 35  1  0
 10 36  1  0
 11 37  1  0
 12 38  1  0
 16 39  1  0
 19 40  1  0
 19 41  1  0
 19 42  1  0
 23 43  1  0
 24 44  1  0
 25 45  1  0
 26 46  1  0
 27 47  1  0
M  END
>  <ScrubInfo>  (3) 
{"isomerGroup": 0, "isomerId": 2, "confId": 0, "nr_conformers:": 1, "nr_isomers:": 9}

$$$$
_i3
     RDKit          3D

 47 50  0  0  0  0  0  0  0  0999 V2000
   -0.3501   -1.0184   -2.5360 N   0  0  0  0  0  0  0  0  0  0  0  0
   -0.1863   -0.4604   -1.2888 C   0  0  0  0  0  0  0  0  0  0  0  0
    1.0121   -0.1485   -0.9189 N   0  0  0  0  0  0  0  0  0  0  0  0
    1.1559    0.4449    0.4086 C   0  0  0  0  0  0  0  0  0  0  0  0
    2.6079    0.7458    0.7012 C   0  0  0  0  0  0  0  0  0  0  0  0
    3.4517   -0.2510    1.2079 C   0  0  0  0  0  0  0  0  0  0  0  0
    4.8008    0.0168    1.4674 C   0  0  0  0  0  0  0  0  0  0  0  0
    5.3253    1.2841    1.2139 C   0  0  0  0  0  0  0  0  0  0  0  0
    6.6194    1.6768    1.4218 O   0  0  0  0  0  0  0  0  0  0  0  0
    7.5081    0.6997    1.9475 C   0  0  0  0  0  0  0  0  0  0  0  0
    4.4903    2.2756    0.6938 C   0  0  0  0  0  0  0  0  0  0  0  0
    3.1435    2.0104    0.4334 C   0  0  0  0  0  0  0  0  0  0  0  0
   -1.2615   -0.2350   -0.4459 N   0  0  0  0  0  0  0  0  0  0  0  0
   -2.4688   -0.5491   -0.8217 C   0  0  0  0  0  0  0  0  0  0  0  0
   -3.6410   -0.3996   -0.1196 N   0  0  0  0  0  0  0  0  0  0  0  0
   -3.8544    0.1461    1.1619 C   0  0  0  0  0  0  0  0  0  0  0  0
   -2.8479    0.6922    1.9642 C   0  0  0  0  0  0  0  0  0  0  0  0
   -3.1318    1.2129    3.2325 C   0  0  0  0  0  0  0  0  0  0  0  0
   -4.4332    1.1950    3.7232 C   0  0  0  0  0  0  0  0  0  0  0  0
   -5.4516    0.6560    2.9456 C   0  0  0  0  0  0  0  0  0  0  0  0
   -5.1629    0.1372    1.6794 C   0  0  0  0  0  0  0  0  0  0  0  0
   -2.6768   -1.1392   -2.1355 C   0  0  0  0  0  0  0  0  0  0  0  0
   -3.7516   -1.6060   -2.9120 C   0  0  0  0  0  0  0  0  0  0  0  0
   -3.3598   -2.0704   -4.1082 N   0  0  0  0  0  0  0  0  0  0  0  0
   -2.0150   -1.8971   -4.0988 N   0  0  0  0  0  0  0  0  0  0  0  0
   -1.2459   -2.2930   -5.2510 C   0  0  0  0  0  0  0  0  0  0  0  0
   -1.5856   -1.3452   -2.9355 C   0  0  0  0  0  0  0  0  0  0  0  0
    0.5056   -1.1318   -3.0633 H   0  0  0  0  0  0  0  0  0  0  0  0
    0.5819    1.3778    0.4841 H   0  0  0  0  0  0  0  0  0  0  0  0
    0.7810   -0.2338    1.1862 H   0  0  0  0  0  0  0  0  0  0  0  0
    3.0583   -1.2475    1.3968 H   0  0  0  0  0  0  0  0  0  0  0  0
    5.4112   -0.7881    1.8614 H   0  0  0  0  0  0  0  0  0  0  0  0
    8.4918    1.1668    2.0561 H   0  0  0  0  0  0  0  0  0  0  0  0
    7.6159   -0.1465    1.2609 H   0  0  0  0  0  0  0  0  0  0  0  0
    7.1870    0.3664    2.9400 H   0  0  0  0  0  0  0  0  0  0  0  0
    4.8932    3.2631    0.4843 H   0  0  0  0  0  0  0  0  0  0  0  0
    2.5158    2.7936    0.0157 H   0  0  0  0  0  0  0  0  0  0  0  0
   -4.4935   -0.7137   -0.5591 H   0  0  0  0  0  0  0  0  0  0  0  0
   -1.8176    0.7324    1.6275 H   0  0  0  0  0  0  0  0  0  0  0  0
   -2.3287    1.6324    3.8334 H   0  0  0  0  0  0  0  0  0  0  0  0
   -4.6507    1.5997    4.7079 H   0  0  0  0  0  0  0  0  0  0  0  0
   -6.4710    0.6372    3.3220 H   0  0  0  0  0  0  0  0  0  0  0  0
   -5.9829   -0.2786    1.0989 H   0  0  0  0  0  0  0  0  0  0  0  0
   -4.8067   -1.6357   -2.6760 H   0  0  0  0  0  0  0  0  0  0  0  0
   -1.3964   -3.3632   -5.4142 H   0  0  0  0  0  0  0  0  0  0  0  0
   -1.5985   -1.7213   -6.1131 H   0  0  0  0  0  0  0  0  0  0  0  0
   -0.1867   -2.0901   -5.0803 H   0  0  0  0  0  0  0  0  0  0  0  0
  1  2  1  0
  2  3  2  3
  3  4  1  0
  4  5  1  0
  5  6  2  0
  6  7  1  0
  7  8  2  0
  8  9  1  0
  9 10  1  0
  8 11  1  0
 11 12  2  0
  2 13  1  0
 13 14  2  0
 14 15  1  0
 15 16  1  0
 16 17  2  0
 17 18  1  0
 18 19  2  0
 19 20  1  0
 20 21  2  0
 14 22  1  0
 22 23  1  0
 23 24  2  0
 24 25  1  0
 25 26  1  0
 25 27  1  0
 27  1  1  0
 12  5  1  0
 21 16  1  0
 27 22  2  0
  1 28  1  0
  4 29  1  0
  4 30  1  0
  6 31  1  0
  7 32  1  0
 10 33  1  0
 10 34  1  0
 10 35  1  0
 11 36  1  0
 12 37  1  0
 15 38  1  0
 17 39  1  0
 18 40  1  0
 19 41  1  0
 20 42  1  0
 21 43  1  0
 23 44  1  0
 26 45  1  0
 26 46  1  0
 26 47  1  0
M  END
>  <ScrubInfo>  (4) 
{"isomerGroup": 0, "isomerId": 3, "confId": 0, "nr_conformers:": 1, "nr_isomers:": 9}

$$$$
_i4
     RDKit          3D

 47 50  0  0  0  0  0  0  0  0999 V2000
   -3.8246    1.5841   -2.1155 N   0  0  0  0  0  0  0  0  0  0  0  0
   -3.8791    0.6966   -1.0457 C   0  0  0  0  0  0  0  0  0  0  0  0
   -2.6747    0.4025   -0.5324 C   0  0  0  0  0  0  0  0  0  0  0  0
   -2.0912   -0.4253    0.5155 C   0  0  0  0  0  0  0  0  0  0  0  0
   -2.6502   -1.1596    1.4190 N   0  0  0  0  0  0  0  0  0  0  0  0
   -4.0409   -1.2478    1.5040 C   0  0  0  0  0  0  0  0  0  0  0  0
   -4.7591   -0.3506    2.2994 C   0  0  0  0  0  0  0  0  0  0  0  0
   -6.1484   -0.4481    2.3969 C   0  0  0  0  0  0  0  0  0  0  0  0
   -6.8251   -1.4556    1.7099 C   0  0  0  0  0  0  0  0  0  0  0  0
   -6.1130   -2.3703    0.9348 C   0  0  0  0  0  0  0  0  0  0  0  0
   -4.7236   -2.2701    0.8395 C   0  0  0  0  0  0  0  0  0  0  0  0
   -0.7217   -0.4122    0.5321 N   0  0  0  0  0  0  0  0  0  0  0  0
   -0.0030    0.3178   -0.2640 C   0  0  0  0  0  0  0  0  0  0  0  0
    1.3574    0.2780   -0.2003 N   0  0  0  0  0  0  0  0  0  0  0  0
    2.0535   -0.2164    0.9632 C   0  0  0  0  0  0  0  0  0  0  0  0
    3.5424   -0.1089    0.7371 C   0  0  0  0  0  0  0  0  0  0  0  0
    4.2034   -1.0341   -0.0831 C   0  0  0  0  0  0  0  0  0  0  0  0
    5.5797   -0.9313   -0.3149 C   0  0  0  0  0  0  0  0  0  0  0  0
    6.3126    0.1030    0.2665 C   0  0  0  0  0  0  0  0  0  0  0  0
    7.6556    0.3186    0.1223 O   0  0  0  0  0  0  0  0  0  0  0  0
    8.3719   -0.6109   -0.6806 C   0  0  0  0  0  0  0  0  0  0  0  0
    5.6558    1.0324    1.0762 C   0  0  0  0  0  0  0  0  0  0  0  0
    4.2818    0.9328    1.3095 C   0  0  0  0  0  0  0  0  0  0  0  0
   -0.4936    1.1784   -1.2080 N   0  0  0  0  0  0  0  0  0  0  0  0
   -1.7719    1.2358   -1.3483 C   0  0  0  0  0  0  0  0  0  0  0  0
   -2.5131    2.0216   -2.2327 N   0  0  0  0  0  0  0  0  0  0  0  0
   -1.9958    2.3502   -3.5476 C   0  0  0  0  0  0  0  0  0  0  0  0
   -4.5415    2.3121   -2.0734 H   0  0  0  0  0  0  0  0  0  0  0  0
   -4.8472    0.3377   -0.7281 H   0  0  0  0  0  0  0  0  0  0  0  0
   -4.2285    0.4219    2.8495 H   0  0  0  0  0  0  0  0  0  0  0  0
   -6.6990    0.2533    3.0181 H   0  0  0  0  0  0  0  0  0  0  0  0
   -7.9060   -1.5382    1.7918 H   0  0  0  0  0  0  0  0  0  0  0  0
   -6.6356   -3.1682    0.4139 H   0  0  0  0  0  0  0  0  0  0  0  0
   -4.1653   -2.9926    0.2501 H   0  0  0  0  0  0  0  0  0  0  0  0
    1.7942    1.0587   -0.6727 H   0  0  0  0  0  0  0  0  0  0  0  0
    1.7670    0.3593    1.8517 H   0  0  0  0  0  0  0  0  0  0  0  0
    1.7949   -1.2642    1.1595 H   0  0  0  0  0  0  0  0  0  0  0  0
    3.6420   -1.8407   -0.5518 H   0  0  0  0  0  0  0  0  0  0  0  0
    6.0439   -1.6728   -0.9560 H   0  0  0  0  0  0  0  0  0  0  0  0
    8.0148   -0.5957   -1.7156 H   0  0  0  0  0  0  0  0  0  0  0  0
    8.3204   -1.6200   -0.2584 H   0  0  0  0  0  0  0  0  0  0  0  0
    9.4230   -0.3065   -0.6870 H   0  0  0  0  0  0  0  0  0  0  0  0
    6.2209    1.8435    1.5293 H   0  0  0  0  0  0  0  0  0  0  0  0
    3.7967    1.6738    1.9408 H   0  0  0  0  0  0  0  0  0  0  0  0
   -1.0206    2.8408   -3.4665 H   0  0  0  0  0  0  0  0  0  0  0  0
   -2.6740    3.0387   -4.0621 H   0  0  0  0  0  0  0  0  0  0  0  0
   -1.8853    1.4486   -4.1592 H   0  0  0  0  0  0  0  0  0  0  0  0
  1  2  1  0
  2  3  2  0
  3  4  1  0
  4  5  2  3
  5  6  1  0
  6  7  2  0
  7  8  1  0
  8  9  2  0
  9 10  1  0
 10 11  2  0
  4 12  1  0
 12 13  2  0
 13 14  1  0
 14 15  1  0
 15 16  1  0
 16 17  2  0
 17 18  1  0
 18 19  2  0
 19 20  1  0
 20 21  1  0
 19 22  1  0
 22 23  2  0
 13 24  1  0
 24 25  2  0
 25 26  1  0
 26 27  1  0
 26  1  1  0
 25  3  1  0
 11  6  1  0
 23 16  1  0
  1 28  1  0
  2 29  1  0
  7 30  1  0
  8 31  1  0
  9 32  1  0
 10 33  1  0
 11 34  1  0
 14 35  1  0
 15 36  1  0
 15 37  1  0
 17 38  1  0
 18 39  1  0
 21 40  1  0
 21 41  1  0
 21 42  1  0
 22 43  1  0
 23 44  1  0
 27 45  1  0
 27 46  1  0
 27 47  1  0
M  END
>  <ScrubInfo>  (5) 
{"isomerGroup": 0, "isomerId": 4, "confId": 0, "nr_conformers:": 1, "nr_isomers:": 9}

$$$$
_i5
     RDKit          3D

 47 50  0  0  0  0  0  0  0  0999 V2000
    0.1186   -0.1773    0.7182 N   0  0  0  0  0  0  0  0  0  0  0  0
   -0.6329    0.6792   -0.0503 C   0  0  0  0  0  0  0  0  0  0  0  0
    0.0637    1.6873   -0.6571 N   0  0  0  0  0  0  0  0  0  0  0  0
    1.0931    1.3962   -1.6510 C   0  0  0  0  0  0  0  0  0  0  0  0
    2.3970    0.9838   -1.0113 C   0  0  0  0  0  0  0  0  0  0  0  0
    3.0590    1.8395   -0.1215 C   0  0  0  0  0  0  0  0  0  0  0  0
    4.2487    1.4386    0.4902 C   0  0  0  0  0  0  0  0  0  0  0  0
    4.8026    0.1854    0.2209 C   0  0  0  0  0  0  0  0  0  0  0  0
    5.9638   -0.0823    0.8908 O   0  0  0  0  0  0  0  0  0  0  0  0
    6.6121   -1.3122    0.5911 C   0  0  0  0  0  0  0  0  0  0  0  0
    4.1530   -0.6691   -0.6692 C   0  0  0  0  0  0  0  0  0  0  0  0
    2.9590   -0.2719   -1.2820 C   0  0  0  0  0  0  0  0  0  0  0  0
   -1.9262    0.6149   -0.2157 N   0  0  0  0  0  0  0  0  0  0  0  0
   -2.6366   -0.4048    0.4088 C   0  0  0  0  0  0  0  0  0  0  0  0
   -3.9135   -0.5843    0.2921 N   0  0  0  0  0  0  0  0  0  0  0  0
   -4.6364    0.3044   -0.5146 C   0  0  0  0  0  0  0  0  0  0  0  0
   -5.1441    1.4941    0.0154 C   0  0  0  0  0  0  0  0  0  0  0  0
   -5.8934    2.3620   -0.7819 C   0  0  0  0  0  0  0  0  0  0  0  0
   -6.1494    2.0375   -2.1137 C   0  0  0  0  0  0  0  0  0  0  0  0
   -5.6609    0.8449   -2.6460 C   0  0  0  0  0  0  0  0  0  0  0  0
   -4.9117   -0.0204   -1.8457 C   0  0  0  0  0  0  0  0  0  0  0  0
   -1.8875   -1.3150    1.2381 C   0  0  0  0  0  0  0  0  0  0  0  0
   -2.1808   -2.4234    2.0435 C   0  0  0  0  0  0  0  0  0  0  0  0
   -1.0846   -2.9255    2.6385 N   0  0  0  0  0  0  0  0  0  0  0  0
   -0.0833   -2.1171    2.2063 N   0  0  0  0  0  0  0  0  0  0  0  0
    1.2635   -2.3610    2.6552 C   0  0  0  0  0  0  0  0  0  0  0  0
   -0.5360   -1.1562    1.3612 C   0  0  0  0  0  0  0  0  0  0  0  0
    1.0792    0.0833    0.9053 H   0  0  0  0  0  0  0  0  0  0  0  0
   -0.6305    2.2988   -1.0843 H   0  0  0  0  0  0  0  0  0  0  0  0
    1.2776    2.2979   -2.2474 H   0  0  0  0  0  0  0  0  0  0  0  0
    0.7322    0.6298   -2.3477 H   0  0  0  0  0  0  0  0  0  0  0  0
    2.6429    2.8184    0.1099 H   0  0  0  0  0  0  0  0  0  0  0  0
    4.7502    2.1109    1.1829 H   0  0  0  0  0  0  0  0  0  0  0  0
    7.5354   -1.3548    1.1767 H   0  0  0  0  0  0  0  0  0  0  0  0
    6.8859   -1.3678   -0.4677 H   0  0  0  0  0  0  0  0  0  0  0  0
    5.9917   -2.1652    0.8850 H   0  0  0  0  0  0  0  0  0  0  0  0
    4.5460   -1.6519   -0.9082 H   0  0  0  0  0  0  0  0  0  0  0  0
    2.4649   -0.9590   -1.9670 H   0  0  0  0  0  0  0  0  0  0  0  0
   -4.9506    1.7425    1.0548 H   0  0  0  0  0  0  0  0  0  0  0  0
   -6.2790    3.2864   -0.3611 H   0  0  0  0  0  0  0  0  0  0  0  0
   -6.7351    2.7106   -2.7342 H   0  0  0  0  0  0  0  0  0  0  0  0
   -5.8663    0.5843   -3.6804 H   0  0  0  0  0  0  0  0  0  0  0  0
   -4.5389   -0.9540   -2.2563 H   0  0  0  0  0  0  0  0  0  0  0  0
   -3.1425   -2.8856    2.2267 H   0  0  0  0  0  0  0  0  0  0  0  0
    1.5311   -3.3901    2.4027 H   0  0  0  0  0  0  0  0  0  0  0  0
    1.2969   -2.2115    3.7372 H   0  0  0  0  0  0  0  0  0  0  0  0
    1.9518   -1.6705    2.1631 H   0  0  0  0  0  0  0  0  0  0  0  0
  1  2  1  0
  2  3  1  0
  3  4  1  0
  4  5  1  0
  5  6  2  0
  6  7  1  0
  7  8  2  0
  8  9  1  0
  9 10  1  0
  8 11  1  0
 11 12  2  0
  2 13  2  0
 13 14  1  0
 14 15  2  3
 15 16  1  0
 16 17  2  0
 17 18  1  0
 18 19  2  0
 19 20  1  0
 20 21  2  0
 14 22  1  0
 22 23  1  0
 23 24  2  0
 24 25  1  0
 25 26  1  0
 25 27  1  0
 27  1  1  0
 12  5  1  0
 21 16  1  0
 27 22  2  0
  1 28  1  0
  3 29  1  0
  4 30  1  0
  4 31  1  0
  6 32  1  0
  7 33  1  0
 10 34  1  0
 10 35  1  0
 10 36  1  0
 11 37  1  0
 12 38  1  0
 17 39  1  0
 18 40  1  0
 19 41  1  0
 20 42  1  0
 21 43  1  0
 23 44  1  0
 26 45  1  0
 26 46  1  0
 26 47  1  0
M  END
>  <ScrubInfo>  (6) 
{"isomerGroup": 0, "isomerId": 5, "confId": 0, "nr_conformers:": 1, "nr_isomers:": 9}

$$$$
_i6
     RDKit          3D

 47 50  0  0  0  0  0  0  0  0999 V2000
   -3.4244    3.0556   -0.7354 N   0  0  0  0  0  0  0  0  0  0  0  0
   -3.6707    1.8676   -0.0554 C   0  0  0  0  0  0  0  0  0  0  0  0
   -2.5512    1.1974    0.2479 C   0  0  0  0  0  0  0  0  0  0  0  0
   -2.1554   -0.0499    0.8981 C   0  0  0  0  0  0  0  0  0  0  0  0
   -3.0449   -0.9388    1.4632 N   0  0  0  0  0  0  0  0  0  0  0  0
   -4.1964   -1.4355    0.8100 C   0  0  0  0  0  0  0  0  0  0  0  0
   -5.2415   -1.9389    1.5958 C   0  0  0  0  0  0  0  0  0  0  0  0
   -6.3832   -2.4845    1.0047 C   0  0  0  0  0  0  0  0  0  0  0  0
   -6.4831   -2.5525   -0.3826 C   0  0  0  0  0  0  0  0  0  0  0  0
   -5.4385   -2.0847   -1.1764 C   0  0  0  0  0  0  0  0  0  0  0  0
   -4.2970   -1.5387   -0.5832 C   0  0  0  0  0  0  0  0  0  0  0  0
   -0.8829   -0.3238    0.9826 N   0  0  0  0  0  0  0  0  0  0  0  0
    0.0305    0.5457    0.4263 C   0  0  0  0  0  0  0  0  0  0  0  0
    1.2436    0.1249    0.4914 N   0  0  0  0  0  0  0  0  0  0  0  0
    2.2797    0.9890   -0.0734 C   0  0  0  0  0  0  0  0  0  0  0  0
    3.6670    0.3896    0.0414 C   0  0  0  0  0  0  0  0  0  0  0  0
    3.8726   -0.9961    0.0047 C   0  0  0  0  0  0  0  0  0  0  0  0
    5.1630   -1.5352    0.0708 C   0  0  0  0  0  0  0  0  0  0  0  0
    6.2706   -0.6936    0.1628 C   0  0  0  0  0  0  0  0  0  0  0  0
    7.5789   -1.0877    0.2325 O   0  0  0  0  0  0  0  0  0  0  0  0
    7.8238   -2.4881    0.2487 C   0  0  0  0  0  0  0  0  0  0  0  0
    6.0743    0.6885    0.1838 C   0  0  0  0  0  0  0  0  0  0  0  0
    4.7865    1.2280    0.1193 C   0  0  0  0  0  0  0  0  0  0  0  0
   -0.2390    1.7621   -0.1610 N   0  0  0  0  0  0  0  0  0  0  0  0
   -1.4810    2.0947   -0.2361 C   0  0  0  0  0  0  0  0  0  0  0  0
   -2.0484    3.2615   -0.7491 N   0  0  0  0  0  0  0  0  0  0  0  0
   -1.4476    3.9568   -1.8709 C   0  0  0  0  0  0  0  0  0  0  0  0
   -3.9923    3.8381   -0.4014 H   0  0  0  0  0  0  0  0  0  0  0  0
   -4.6907    1.5886    0.1689 H   0  0  0  0  0  0  0  0  0  0  0  0
   -2.5355   -1.7163    1.8811 H   0  0  0  0  0  0  0  0  0  0  0  0
   -5.1757   -1.8955    2.6808 H   0  0  0  0  0  0  0  0  0  0  0  0
   -7.1909   -2.8598    1.6279 H   0  0  0  0  0  0  0  0  0  0  0  0
   -7.3690   -2.9806   -0.8449 H   0  0  0  0  0  0  0  0  0  0  0  0
   -5.5053   -2.1548   -2.2594 H   0  0  0  0  0  0  0  0  0  0  0  0
   -3.4843   -1.2130   -1.2277 H   0  0  0  0  0  0  0  0  0  0  0  0
    2.2792    1.9521    0.4536 H   0  0  0  0  0  0  0  0  0  0  0  0
    2.0946    1.1683   -1.1404 H   0  0  0  0  0  0  0  0  0  0  0  0
    3.0187   -1.6673   -0.0685 H   0  0  0  0  0  0  0  0  0  0  0  0
    5.2615   -2.6147    0.0468 H   0  0  0  0  0  0  0  0  0  0  0  0
    8.9053   -2.6373    0.3236 H   0  0  0  0  0  0  0  0  0  0  0  0
    7.3618   -2.9608    1.1218 H   0  0  0  0  0  0  0  0  0  0  0  0
    7.4871   -2.9583   -0.6812 H   0  0  0  0  0  0  0  0  0  0  0  0
    6.9323    1.3523    0.2508 H   0  0  0  0  0  0  0  0  0  0  0  0
    4.6638    2.3082    0.1328 H   0  0  0  0  0  0  0  0  0  0  0  0
   -0.4019    4.2005   -1.6578 H   0  0  0  0  0  0  0  0  0  0  0  0
   -1.9768    4.8953   -2.0649 H   0  0  0  0  0  0  0  0  0  0  0  0
   -1.4869    3.3415   -2.7758 H   0  0  0  0  0  0  0  0  0  0  0  0
  1  2  1  0
  2  3  2  0
  3  4  1  0
  4  5  1  0
  5  6  1  0
  6  7  2  0
  7  8  1  0
  8  9  2  0
  9 10  1  0
 10 11  2  0
  4 12  2  0
 12 13  1  0
 13 14  2  3
 14 15  1  0
 15 16  1  0
 16 17  2  0
 17 18  1  0
 18 19  2  0
 19 20  1  0
 20 21  1  0
 19 22  1  0
 22 23  2  0
 13 24  1  0
 24 25  2  0
 25 26  1  0
 26 27  1  0
 26  1  1  0
 25  3  1  0
 11  6  1  0
 23 16  1  0
  1 28  1  0
  2 29  1  0
  5 30  1  0
  7 31  1  0
  8 32  1  0
  9 33  1  0
 10 34  1  0
 11 35  1  0
 15 36  1  0
 15 37  1  0
 17 38  1  0
 18 39  1  0
 21 40  1  0
 21 41  1  0
 21 42  1  0
 22 43  1  0
 23 44  1  0
 27 45  1  0
 27 46  1  0
 27 47  1  0
M  END
>  <ScrubInfo>  (7) 
{"isomerGroup": 0, "isomerId": 6, "confId": 0, "nr_conformers:": 1, "nr_isomers:": 9}

$$$$
_i7
     RDKit          3D

 47 50  0  0  0  0  0  0  0  0999 V2000
   -3.7851    2.1409   -0.8152 N   0  0  0  0  0  0  0  0  0  0  0  0
   -3.8625    0.8286   -0.3627 C   0  0  0  0  0  0  0  0  0  0  0  0
   -2.6694    0.2892   -0.0755 C   0  0  0  0  0  0  0  0  0  0  0  0
   -2.0809   -0.9857    0.3806 C   0  0  0  0  0  0  0  0  0  0  0  0
   -2.6738   -2.0925    0.7188 N   0  0  0  0  0  0  0  0  0  0  0  0
   -4.0670   -2.1959    0.6890 C   0  0  0  0  0  0  0  0  0  0  0  0
   -4.8221   -1.8835    1.8227 C   0  0  0  0  0  0  0  0  0  0  0  0
   -6.2129   -2.0052    1.8008 C   0  0  0  0  0  0  0  0  0  0  0  0
   -6.8539   -2.4554    0.6470 C   0  0  0  0  0  0  0  0  0  0  0  0
   -6.1050   -2.7923   -0.4801 C   0  0  0  0  0  0  0  0  0  0  0  0
   -4.7144   -2.6698   -0.4551 C   0  0  0  0  0  0  0  0  0  0  0  0
   -0.7144   -0.9334    0.4302 N   0  0  0  0  0  0  0  0  0  0  0  0
    0.0896    0.1285    0.1278 C   0  0  0  0  0  0  0  0  0  0  0  0
    1.3697   -0.0256    0.2135 N   0  0  0  0  0  0  0  0  0  0  0  0
    2.1978    1.1396   -0.1089 C   0  0  0  0  0  0  0  0  0  0  0  0
    3.6728    0.8220    0.0111 C   0  0  0  0  0  0  0  0  0  0  0  0
    4.2138   -0.3067   -0.6199 C   0  0  0  0  0  0  0  0  0  0  0  0
    5.5820   -0.5903   -0.5373 C   0  0  0  0  0  0  0  0  0  0  0  0
    6.4311    0.2571    0.1734 C   0  0  0  0  0  0  0  0  0  0  0  0
    7.7807    0.0984    0.3313 O   0  0  0  0  0  0  0  0  0  0  0  0
    8.3628   -1.0549   -0.2624 C   0  0  0  0  0  0  0  0  0  0  0  0
    5.8987    1.3879    0.7964 C   0  0  0  0  0  0  0  0  0  0  0  0
    4.5327    1.6721    0.7159 C   0  0  0  0  0  0  0  0  0  0  0  0
   -0.4362    1.3437   -0.2574 N   0  0  0  0  0  0  0  0  0  0  0  0
   -1.7275    1.4346   -0.3407 C   0  0  0  0  0  0  0  0  0  0  0  0
   -2.4703    2.5652   -0.6895 N   0  0  0  0  0  0  0  0  0  0  0  0
   -1.9511    3.5417   -1.6281 C   0  0  0  0  0  0  0  0  0  0  0  0
   -4.4981    2.7519   -0.4102 H   0  0  0  0  0  0  0  0  0  0  0  0
   -4.8386    0.3726   -0.2856 H   0  0  0  0  0  0  0  0  0  0  0  0
   -4.3211   -1.5492    2.7270 H   0  0  0  0  0  0  0  0  0  0  0  0
   -6.7929   -1.7600    2.6865 H   0  0  0  0  0  0  0  0  0  0  0  0
   -7.9361   -2.5581    0.6311 H   0  0  0  0  0  0  0  0  0  0  0  0
   -6.6010   -3.1601   -1.3746 H   0  0  0  0  0  0  0  0  0  0  0  0
   -4.1297   -2.9471   -1.3278 H   0  0  0  0  0  0  0  0  0  0  0  0
   -0.2351   -1.7720    0.7226 H   0  0  0  0  0  0  0  0  0  0  0  0
    1.9549    1.9658    0.5714 H   0  0  0  0  0  0  0  0  0  0  0  0
    2.0180    1.4760   -1.1382 H   0  0  0  0  0  0  0  0  0  0  0  0
    3.5612   -0.9767   -1.1760 H   0  0  0  0  0  0  0  0  0  0  0  0
    5.9466   -1.4795   -1.0393 H   0  0  0  0  0  0  0  0  0  0  0  0
    9.4335   -1.0426   -0.0365 H   0  0  0  0  0  0  0  0  0  0  0  0
    7.9438   -1.9730    0.1627 H   0  0  0  0  0  0  0  0  0  0  0  0
    8.2527   -1.0362   -1.3517 H   0  0  0  0  0  0  0  0  0  0  0  0
    6.5542    2.0544    1.3512 H   0  0  0  0  0  0  0  0  0  0  0  0
    4.1468    2.5600    1.2106 H   0  0  0  0  0  0  0  0  0  0  0  0
   -0.9790    3.9188   -1.2944 H   0  0  0  0  0  0  0  0  0  0  0  0
   -2.6317    4.3959   -1.7045 H   0  0  0  0  0  0  0  0  0  0  0  0
   -1.8335    3.1003   -2.6232 H   0  0  0  0  0  0  0  0  0  0  0  0
  1  2  1  0
  2  3  2  0
  3  4  1  0
  4  5  2  3
  5  6  1  0
  6  7  2  0
  7  8  1  0
  8  9  2  0
  9 10  1  0
 10 11  2  0
  4 12  1  0
 12 13  1  0
 13 14  2  3
 14 15  1  0
 15 16  1  0
 16 17  2  0
 17 18  1  0
 18 19  2  0
 19 20  1  0
 20 21  1  0
 19 22  1  0
 22 23  2  0
 13 24  1  0
 24 25  2  0
 25 26  1  0
 26 27  1  0
 26  1  1  0
 25  3  1  0
 11  6  1  0
 23 16  1  0
  1 28  1  0
  2 29  1  0
  7 30  1  0
  8 31  1  0
  9 32  1  0
 10 33  1  0
 11 34  1  0
 12 35  1  0
 15 36  1  0
 15 37  1  0
 17 38  1  0
 18 39  1  0
 21 40  1  0
 21 41  1  0
 21 42  1  0
 22 43  1  0
 23 44  1  0
 27 45  1  0
 27 46  1  0
 27 47  1  0
M  END
>  <ScrubInfo>  (8) 
{"isomerGroup": 0, "isomerId": 7, "confId": 0, "nr_conformers:": 1, "nr_isomers:": 9}

$$$$
_i8
     RDKit          3D

 47 50  0  0  0  0  0  0  0  0999 V2000
   -0.5572   -1.6440   -2.0766 N   0  0  0  0  0  0  0  0  0  0  0  0
   -0.3995   -0.7456   -1.0371 C   0  0  0  0  0  0  0  0  0  0  0  0
    0.8009   -0.4036   -0.7106 N   0  0  0  0  0  0  0  0  0  0  0  0
    0.9775    0.5501    0.3835 C   0  0  0  0  0  0  0  0  0  0  0  0
    2.4371    0.8187    0.6660 C   0  0  0  0  0  0  0  0  0  0  0  0
    3.3388   -0.2414    0.8332 C   0  0  0  0  0  0  0  0  0  0  0  0
    4.6859   -0.0004    1.1274 C   0  0  0  0  0  0  0  0  0  0  0  0
    5.1493    1.3072    1.2657 C   0  0  0  0  0  0  0  0  0  0  0  0
    6.4334    1.6813    1.5519 O   0  0  0  0  0  0  0  0  0  0  0  0
    7.3872    0.6372    1.6991 C   0  0  0  0  0  0  0  0  0  0  0  0
    4.2534    2.3667    1.1084 C   0  0  0  0  0  0  0  0  0  0  0  0
    2.9081    2.1283    0.8140 C   0  0  0  0  0  0  0  0  0  0  0  0
   -1.5975   -0.3286   -0.4774 N   0  0  0  0  0  0  0  0  0  0  0  0
   -2.9029   -0.6684   -0.7943 C   0  0  0  0  0  0  0  0  0  0  0  0
   -4.0235   -0.2845   -0.2769 N   0  0  0  0  0  0  0  0  0  0  0  0
   -3.9741    0.6272    0.7843 C   0  0  0  0  0  0  0  0  0  0  0  0
   -4.0063    2.0015    0.5348 C   0  0  0  0  0  0  0  0  0  0  0  0
   -3.9337    2.9122    1.5902 C   0  0  0  0  0  0  0  0  0  0  0  0
   -3.8387    2.4504    2.9025 C   0  0  0  0  0  0  0  0  0  0  0  0
   -3.8250    1.0800    3.1602 C   0  0  0  0  0  0  0  0  0  0  0  0
   -3.8979    0.1715    2.1029 C   0  0  0  0  0  0  0  0  0  0  0  0
   -2.9466   -1.6070   -1.8890 C   0  0  0  0  0  0  0  0  0  0  0  0
   -3.9631   -2.2642   -2.5970 C   0  0  0  0  0  0  0  0  0  0  0  0
   -3.4777   -3.0619   -3.5611 N   0  0  0  0  0  0  0  0  0  0  0  0
   -2.1337   -2.9082   -3.4642 N   0  0  0  0  0  0  0  0  0  0  0  0
   -1.2825   -3.6350   -4.3715 C   0  0  0  0  0  0  0  0  0  0  0  0
   -1.7835   -2.0446   -2.4718 C   0  0  0  0  0  0  0  0  0  0  0  0
    0.3117   -1.9491   -2.4996 H   0  0  0  0  0  0  0  0  0  0  0  0
    0.4797    1.4938    0.1276 H   0  0  0  0  0  0  0  0  0  0  0  0
    0.5263    0.1675    1.3078 H   0  0  0  0  0  0  0  0  0  0  0  0
    2.9914   -1.2671    0.7261 H   0  0  0  0  0  0  0  0  0  0  0  0
    5.3417   -0.8565    1.2410 H   0  0  0  0  0  0  0  0  0  0  0  0
    7.4893    0.0614    0.7732 H   0  0  0  0  0  0  0  0  0  0  0  0
    8.3565    1.0977    1.9128 H   0  0  0  0  0  0  0  0  0  0  0  0
    7.1341   -0.0122    2.5437 H   0  0  0  0  0  0  0  0  0  0  0  0
    4.6073    3.3891    1.2158 H   0  0  0  0  0  0  0  0  0  0  0  0
    2.2361    2.9751    0.6984 H   0  0  0  0  0  0  0  0  0  0  0  0
   -1.5243    0.3270    0.2836 H   0  0  0  0  0  0  0  0  0  0  0  0
   -4.0935    2.3616   -0.4871 H   0  0  0  0  0  0  0  0  0  0  0  0
   -3.9619    3.9801    1.3889 H   0  0  0  0  0  0  0  0  0  0  0  0
   -3.7900    3.1588    3.7260 H   0  0  0  0  0  0  0  0  0  0  0  0
   -3.7680    0.7185    4.1838 H   0  0  0  0  0  0  0  0  0  0  0  0
   -3.9004   -0.8964    2.3050 H   0  0  0  0  0  0  0  0  0  0  0  0
   -5.0340   -2.1969   -2.4535 H   0  0  0  0  0  0  0  0  0  0  0  0
   -1.4729   -4.7034   -4.2413 H   0  0  0  0  0  0  0  0  0  0  0  0
   -1.5233   -3.3253   -5.3916 H   0  0  0  0  0  0  0  0  0  0  0  0
   -0.2342   -3.4184   -4.1570 H   0  0  0  0  0  0  0  0  0  0  0  0
  1  2  1  0
  2  3  2  3
  3  4  1  0
  4  5  1  0
  5  6  2  0
  6  7  1  0
  7  8  2  0
  8  9  1  0
  9 10  1  0
  8 11  1  0
 11 12  2  0
  2 13  1  0
 13 14  1  0
 14 15  2  3
 15 16  1  0
 16 17  2  0
 17 18  1  0
 18 19  2  0
 19 20  1  0
 20 21  2  0
 14 22  1  0
 22 23  1  0
 23 24  2  0
 24 25  1  0
 25 26  1  0
 25 27  1  0
 27  1  1  0
 12  5  1  0
 21 16  1  0
 27 22  2  0
  1 28  1  0
  4 29  1  0
  4 30  1  0
  6 31  1  0
  7 32  1  0
 10 33  1  0
 10 34  1  0
 10 35  1  0
 11 36  1  0
 12 37  1  0
 13 38  1  0
 17 39  1  0
 18 40  1  0
 19 41  1  0
 20 42  1  0
 21 43  1  0
 23 44  1  0
 26 45  1  0
 26 46  1  0
 26 47  1  0
M  END
>  <ScrubInfo>  (9) 
{"isomerGroup": 0, "isomerId": 8, "confId": 0, "nr_conformers:": 1, "nr_isomers:": 9}

$$$$
