REMARK SMILES COc1ccc(CNc2nc(Nc3ccccc3)c3cnn(C)c3n2)cc1
REMARK SMILES IDX 7 1 6 2 3 3 4 4 27 5 5 6 26 7 2 8 1 9 8 10 9 12 10 13 25 14
REMARK SMILES IDX 11 15 24 16 19 17 22 18 20 19 21 20 23 21 12 22 13 24 14 25
REMARK SMILES IDX 18 26 15 27 17 28 16 29
REMARK H PARENT 8 11 12 23
ROOT
ATOM      1  C   UNL     1       1.657   0.459  -1.384  1.00  0.00     0.152 C 
ENDROOT
BRANCH   1   2
ATOM      2  C   UNL     1       2.852   1.015  -0.644  1.00  0.00    -0.029 A 
ATOM      3  C   UNL     1       5.078   2.029   0.758  1.00  0.00     0.118 A 
ATOM      4  C   UNL     1       4.067   2.884   0.314  1.00  0.00     0.047 A 
ATOM      5  C   UNL     1       4.972   0.661   0.504  1.00  0.00     0.047 A 
ATOM      6  C   UNL     1       2.960   2.385  -0.379  1.00  0.00     0.009 A 
ATOM      7  C   UNL     1       3.866   0.159  -0.190  1.00  0.00     0.009 A 
BRANCH   3   8
ATOM      8  O   UNL     1       6.100   2.648   1.422  1.00  0.00    -0.497 OA
ATOM      9  C   UNL     1       7.148   1.817   1.905  1.00  0.00     0.278 C 
ENDBRANCH   3   8
ENDBRANCH   1   2
BRANCH   1  10
ATOM     10  N   UNL     1       0.829  -0.281  -0.455  1.00  0.00    -0.350 N 
ATOM     11  H   UNL     1       0.614   0.217   0.402  1.00  0.00     0.164 HD
BRANCH  10  12
ATOM     12  C   UNL     1      -0.394  -0.674  -0.983  1.00  0.00     0.227 A 
ATOM     13  N   UNL     1      -1.421  -0.619  -0.117  1.00  0.00    -0.195 NA
ATOM     14  N   UNL     1      -0.472  -1.063  -2.263  1.00  0.00    -0.193 NA
ATOM     15  C   UNL     1      -2.676  -0.985  -0.490  1.00  0.00     0.147 A 
ATOM     16  C   UNL     1      -1.714  -1.420  -2.619  1.00  0.00     0.165 A 
ATOM     17  C   UNL     1      -2.837  -1.407  -1.816  1.00  0.00     0.082 A 
ATOM     18  N   UNL     1      -2.128  -1.870  -3.843  1.00  0.00    -0.250 N 
ATOM     19  C   UNL     1      -3.873  -1.862  -2.659  1.00  0.00     0.149 A 
ATOM     20  N   UNL     1      -3.453  -2.143  -3.898  1.00  0.00    -0.179 NA
ATOM     21  C   UNL     1      -1.314  -2.066  -5.016  1.00  0.00     0.176 C 
BRANCH  15  22
ATOM     22  N   UNL     1      -3.764  -0.919   0.393  1.00  0.00    -0.339 N 
ATOM     23  H   UNL     1      -4.646  -1.172  -0.028  1.00  0.00     0.168 HD
BRANCH  22  24
ATOM     24  C   UNL     1      -3.853  -0.639   1.768  1.00  0.00     0.040 A 
ATOM     25  C   UNL     1      -2.746  -0.481   2.608  1.00  0.00     0.026 A 
ATOM     26  C   UNL     1      -5.128  -0.461   2.333  1.00  0.00     0.026 A 
ATOM     27  C   UNL     1      -2.902  -0.175   3.965  1.00  0.00     0.002 A 
ATOM     28  C   UNL     1      -5.290  -0.154   3.688  1.00  0.00     0.002 A 
ATOM     29  C   UNL     1      -4.174  -0.012   4.505  1.00  0.00     0.000 A 
ENDBRANCH  22  24
ENDBRANCH  15  22
ENDBRANCH  10  12
ENDBRANCH   1  10
TORSDOF 6
