REMARK SMILES c1ccc(Nc2nc(NCc3cccnc3)nc(N3CCCCCC3)n2)cc1
REMARK SMILES IDX 6 1 7 2 8 3 17 4 18 5 26 6 5 7 4 9 1 10 2 11 28 12 3 13
REMARK SMILES IDX 27 14 9 15 10 17 11 18 12 19 16 20 13 21 15 22 14 23 19 24
REMARK SMILES IDX 20 25 21 26 22 27 25 29 24 30 23 31
REMARK H PARENT 5 8 9 16
REMARK Flexibility Score:   44.900
ROOT
ATOM      1  C   UNL     1      -0.764   1.536   0.236  1.00  0.00     0.233 A 
ATOM      2  N   UNL     1       0.441   1.204  -0.199  1.00  0.00    -0.177 NA
ATOM      3  C   UNL     1       0.508   0.104  -0.927  1.00  0.00     0.229 A 
ATOM      4  N   UNL     1      -0.530  -0.664  -1.214  1.00  0.00    -0.177 NA
ATOM      5  C   UNL     1      -1.709  -0.279  -0.741  1.00  0.00     0.231 A 
ATOM      6  N   UNL     1      -1.855   0.818  -0.004  1.00  0.00    -0.176 NA
ENDROOT
BRANCH   1   7
ATOM      7  N   UNL     1      -0.973   2.668   1.024  1.00  0.00    -0.324 N 
ATOM      8  H   UNL     1      -1.956   2.740   1.242  1.00  0.00     0.170 HD
BRANCH   7   9
ATOM      9  C   UNL     1      -0.166   3.743   1.412  1.00  0.00     0.041 A 
ATOM     10  C   UNL     1       1.383   5.918   2.337  1.00  0.00     0.000 A 
ATOM     11  C   UNL     1       0.077   5.752   2.786  1.00  0.00     0.002 A 
ATOM     12  C   UNL     1       1.921   5.004   1.438  1.00  0.00     0.002 A 
ATOM     13  C   UNL     1      -0.685   4.672   2.330  1.00  0.00     0.026 A 
ATOM     14  C   UNL     1       1.154   3.925   0.985  1.00  0.00     0.026 A 
ENDBRANCH   7   9
ENDBRANCH   1   7
BRANCH   3  15
ATOM     15  N   UNL     1       1.729  -0.323  -1.436  1.00  0.00    -0.350 N 
ATOM     16  H   UNL     1       1.609  -1.296  -1.696  1.00  0.00     0.164 HD
BRANCH  15  17
ATOM     17  C   UNL     1       2.858  -0.048  -0.574  1.00  0.00     0.153 C 
BRANCH  17  18
ATOM     18  C   UNL     1       4.084  -0.716  -1.133  1.00  0.00    -0.010 A 
ATOM     19  C   UNL     1       4.584  -1.907  -0.600  1.00  0.00     0.009 A 
ATOM     20  C   UNL     1       4.750  -0.175  -2.229  1.00  0.00     0.116 A 
ATOM     21  C   UNL     1       5.718  -2.490  -1.159  1.00  0.00     0.020 A 
ATOM     22  N   UNL     1       5.856  -0.718  -2.789  1.00  0.00    -0.264 NA
ATOM     23  C   UNL     1       6.314  -1.862  -2.240  1.00  0.00     0.111 A 
ENDBRANCH  17  18
ENDBRANCH  15  17
ENDBRANCH   3  15
BRANCH   5  24
ATOM     24  N   UNL     1      -2.833  -1.044  -1.025  1.00  0.00    -0.341 N 
BRANCH  24  25
ATOM     25  C   UNL     1      -4.026  -0.850  -0.208  1.00  0.00     0.119 C 
BRANCH  25  26
ATOM     26  C   UNL     1      -3.864  -1.484   1.174  1.00  0.00     0.021 C 
BRANCH  26  27
ATOM     27  C   UNL     1      -4.124  -2.990   1.243  1.00  0.00     0.002 CG0
ATOM     28  G   UNL     1      -3.743  -3.848   0.037  1.00  0.00     0.000 G0
ENDBRANCH  26  27
ENDBRANCH  25  26
ENDBRANCH  24  25
BRANCH  24  29
ATOM     29  C   UNL     1      -2.648  -2.330  -1.681  1.00  0.00     0.119 C 
BRANCH  29  30
ATOM     30  C   UNL     1      -2.446  -3.465  -0.675  1.00  0.00     0.021 C 
BRANCH  30  31
ATOM     31  C   UNL     1      -3.743  -3.848   0.037  1.00  0.00     0.002 CG0
ATOM     32  G   UNL     1      -4.124  -2.990   1.243  1.00  0.00     0.000 G0
ENDBRANCH  30  31
ENDBRANCH  29  30
ENDBRANCH  24  29
ENDBRANCH   5  24
TORSDOF 6
