_i0
     RDKit          3D

 53 56  0  0  0  0  0  0  0  0999 V2000
    1.3829    5.9183    2.3375 C   0  0  0  0  0  0  0  0  0  0  0  0
    0.0774    5.7517    2.7863 C   0  0  0  0  0  0  0  0  0  0  0  0
   -0.6849    4.6721    2.3298 C   0  0  0  0  0  0  0  0  0  0  0  0
   -0.1656    3.7433    1.4119 C   0  0  0  0  0  0  0  0  0  0  0  0
   -0.9725    2.6676    1.0245 N   0  0  0  0  0  0  0  0  0  0  0  0
   -0.7641    1.5362    0.2365 C   0  0  0  0  0  0  0  0  0  0  0  0
    0.4407    1.2045   -0.1991 N   0  0  0  0  0  0  0  0  0  0  0  0
    0.5078    0.1037   -0.9267 C   0  0  0  0  0  0  0  0  0  0  0  0
    1.7288   -0.3227   -1.4362 N   0  0  0  0  0  0  0  0  0  0  0  0
    2.8582   -0.0476   -0.5735 C   0  0  0  0  0  0  0  0  0  0  0  0
    4.0836   -0.7157   -1.1335 C   0  0  0  0  0  0  0  0  0  0  0  0
    4.5841   -1.9071   -0.6001 C   0  0  0  0  0  0  0  0  0  0  0  0
    5.7181   -2.4900   -1.1589 C   0  0  0  0  0  0  0  0  0  0  0  0
    6.3142   -1.8624   -2.2401 C   0  0  0  0  0  0  0  0  0  0  0  0
    5.8564   -0.7175   -2.7886 N   0  0  0  0  0  0  0  0  0  0  0  0
    4.7503   -0.1749   -2.2289 C   0  0  0  0  0  0  0  0  0  0  0  0
   -0.5296   -0.6641   -1.2144 N   0  0  0  0  0  0  0  0  0  0  0  0
   -1.7087   -0.2790   -0.7407 C   0  0  0  0  0  0  0  0  0  0  0  0
   -2.8327   -1.0444   -1.0251 N   0  0  0  0  0  0  0  0  0  0  0  0
   -4.0260   -0.8501   -0.2077 C   0  0  0  0  0  0  0  0  0  0  0  0
   -3.8637   -1.4836    1.1742 C   0  0  0  0  0  0  0  0  0  0  0  0
   -4.1239   -2.9895    1.2431 C   0  0  0  0  0  0  0  0  0  0  0  0
   -3.7434   -3.8480    0.0370 C   0  0  0  0  0  0  0  0  0  0  0  0
   -2.4465   -3.4654   -0.6751 C   0  0  0  0  0  0  0  0  0  0  0  0
   -2.6483   -2.3302   -1.6813 C   0  0  0  0  0  0  0  0  0  0  0  0
   -1.8547    0.8177   -0.0039 N   0  0  0  0  0  0  0  0  0  0  0  0
    1.1539    3.9245    0.9853 C   0  0  0  0  0  0  0  0  0  0  0  0
    1.9215    5.0040    1.4377 C   0  0  0  0  0  0  0  0  0  0  0  0
    1.9798    6.7558    2.6882 H   0  0  0  0  0  0  0  0  0  0  0  0
   -0.3499    6.4578    3.4932 H   0  0  0  0  0  0  0  0  0  0  0  0
   -1.6996    4.5605    2.7046 H   0  0  0  0  0  0  0  0  0  0  0  0
   -1.9558    2.7398    1.2417 H   0  0  0  0  0  0  0  0  0  0  0  0
    1.6093   -1.2956   -1.6962 H   0  0  0  0  0  0  0  0  0  0  0  0
    3.0491    1.0310   -0.4994 H   0  0  0  0  0  0  0  0  0  0  0  0
    2.6766   -0.4164    0.4449 H   0  0  0  0  0  0  0  0  0  0  0  0
    4.0985   -2.3831    0.2480 H   0  0  0  0  0  0  0  0  0  0  0  0
    6.1278   -3.4118   -0.7615 H   0  0  0  0  0  0  0  0  0  0  0  0
    7.2013   -2.2776   -2.7096 H   0  0  0  0  0  0  0  0  0  0  0  0
    4.3986    0.7377   -2.7047 H   0  0  0  0  0  0  0  0  0  0  0  0
   -4.9028   -1.2704   -0.7161 H   0  0  0  0  0  0  0  0  0  0  0  0
   -4.2459    0.2196   -0.0999 H   0  0  0  0  0  0  0  0  0  0  0  0
   -2.8628   -1.2825    1.5754 H   0  0  0  0  0  0  0  0  0  0  0  0
   -4.5623   -0.9960    1.8662 H   0  0  0  0  0  0  0  0  0  0  0  0
   -3.6045   -3.3774    2.1292 H   0  0  0  0  0  0  0  0  0  0  0  0
   -5.1918   -3.1512    1.4405 H   0  0  0  0  0  0  0  0  0  0  0  0
   -3.6567   -4.8854    0.3853 H   0  0  0  0  0  0  0  0  0  0  0  0
   -4.5725   -3.8489   -0.6819 H   0  0  0  0  0  0  0  0  0  0  0  0
   -2.1044   -4.3437   -1.2369 H   0  0  0  0  0  0  0  0  0  0  0  0
   -1.6598   -3.2278    0.0502 H   0  0  0  0  0  0  0  0  0  0  0  0
   -3.5282   -2.5398   -2.3032 H   0  0  0  0  0  0  0  0  0  0  0  0
   -1.8099   -2.3116   -2.3887 H   0  0  0  0  0  0  0  0  0  0  0  0
    1.6113    3.2395    0.2787 H   0  0  0  0  0  0  0  0  0  0  0  0
    2.9413    5.1261    1.0821 H   0  0  0  0  0  0  0  0  0  0  0  0
  1  2  2  0
  2  3  1  0
  3  4  2  0
  4  5  1  0
  5  6  1  0
  6  7  2  0
  7  8  1  0
  8  9  1  0
  9 10  1  0
 10 11  1  0
 11 12  2  0
 12 13  1  0
 13 14  2  0
 14 15  1  0
 15 16  2  0
  8 17  2  0
 17 18  1  0
 18 19  1  0
 19 20  1  0
 20 21  1  0
 21 22  1  0
 22 23  1  0
 23 24  1  0
 24 25  1  0
 18 26  2  0
  4 27  1  0
 27 28  2  0
 28  1  1  0
 26  6  1  0
 16 11  1  0
 25 19  1  0
  1 29  1  0
  2 30  1  0
  3 31  1  0
  5 32  1  0
  9 33  1  0
 10 34  1  0
 10 35  1  0
 12 36  1  0
 13 37  1  0
 14 38  1  0
 16 39  1  0
 20 40  1  0
 20 41  1  0
 21 42  1  0
 21 43  1  0
 22 44  1  0
 22 45  1  0
 23 46  1  0
 23 47  1  0
 24 48  1  0
 24 49  1  0
 25 50  1  0
 25 51  1  0
 27 52  1  0
 28 53  1  0
M  END
>  <ScrubInfo>  (1) 
{"isomerGroup": 0, "isomerId": 0, "confId": 0, "nr_conformers:": 1, "nr_isomers:": 9}

$$$$
_i1
     RDKit          3D

 53 56  0  0  0  0  0  0  0  0999 V2000
    0.0184    1.3463    0.0415 N   0  0  0  0  0  0  0  0  0  0  0  0
    0.5812    0.1942    0.4467 C   0  0  0  0  0  0  0  0  0  0  0  0
    1.9192    0.1029    0.1915 N   0  0  0  0  0  0  0  0  0  0  0  0
    2.6258   -1.1422    0.4404 C   0  0  0  0  0  0  0  0  0  0  0  0
    4.0880   -0.9591    0.1480 C   0  0  0  0  0  0  0  0  0  0  0  0
    4.8879   -0.1138    0.9243 C   0  0  0  0  0  0  0  0  0  0  0  0
    6.2376    0.0337    0.6193 C   0  0  0  0  0  0  0  0  0  0  0  0
    6.7459   -0.6709   -0.4587 C   0  0  0  0  0  0  0  0  0  0  0  0
    6.0063   -1.4939   -1.2327 N   0  0  0  0  0  0  0  0  0  0  0  0
    4.6990   -1.6213   -0.9114 C   0  0  0  0  0  0  0  0  0  0  0  0
   -0.1146   -0.7214    1.0356 N   0  0  0  0  0  0  0  0  0  0  0  0
   -1.4633   -0.4809    1.2163 C   0  0  0  0  0  0  0  0  0  0  0  0
   -2.2128   -1.4829    1.8112 N   0  0  0  0  0  0  0  0  0  0  0  0
   -1.6670   -2.8096    2.0575 C   0  0  0  0  0  0  0  0  0  0  0  0
   -1.5419   -3.6339    0.7780 C   0  0  0  0  0  0  0  0  0  0  0  0
   -2.6611   -3.4820   -0.2565 C   0  0  0  0  0  0  0  0  0  0  0  0
   -4.0711   -3.3028    0.3074 C   0  0  0  0  0  0  0  0  0  0  0  0
   -4.3865   -1.8540    0.6966 C   0  0  0  0  0  0  0  0  0  0  0  0
   -3.6617   -1.3663    1.9482 C   0  0  0  0  0  0  0  0  0  0  0  0
   -2.0438    0.6287    0.8537 N   0  0  0  0  0  0  0  0  0  0  0  0
   -1.2933    1.6077    0.2740 C   0  0  0  0  0  0  0  0  0  0  0  0
   -1.9323    2.7053    0.0099 N   0  0  0  0  0  0  0  0  0  0  0  0
   -1.2415    3.7655   -0.5866 C   0  0  0  0  0  0  0  0  0  0  0  0
   -1.1565    3.8604   -1.9780 C   0  0  0  0  0  0  0  0  0  0  0  0
   -0.4542    4.9101   -2.5726 C   0  0  0  0  0  0  0  0  0  0  0  0
    0.1581    5.8771   -1.7758 C   0  0  0  0  0  0  0  0  0  0  0  0
    0.0607    5.7998   -0.3868 C   0  0  0  0  0  0  0  0  0  0  0  0
   -0.6425    4.7489    0.2047 C   0  0  0  0  0  0  0  0  0  0  0  0
    0.5985    2.1134   -0.2480 H   0  0  0  0  0  0  0  0  0  0  0  0
    2.2252    0.5655   -0.6564 H   0  0  0  0  0  0  0  0  0  0  0  0
    2.5096   -1.4524    1.4861 H   0  0  0  0  0  0  0  0  0  0  0  0
    2.2068   -1.9386   -0.1864 H   0  0  0  0  0  0  0  0  0  0  0  0
    4.4596    0.4292    1.7640 H   0  0  0  0  0  0  0  0  0  0  0  0
    6.8770    0.6819    1.2079 H   0  0  0  0  0  0  0  0  0  0  0  0
    7.7928   -0.5899   -0.7371 H   0  0  0  0  0  0  0  0  0  0  0  0
    4.1416   -2.2944   -1.5581 H   0  0  0  0  0  0  0  0  0  0  0  0
   -0.6904   -2.7411    2.5527 H   0  0  0  0  0  0  0  0  0  0  0  0
   -2.3036   -3.3527    2.7678 H   0  0  0  0  0  0  0  0  0  0  0  0
   -1.4646   -4.6904    1.0655 H   0  0  0  0  0  0  0  0  0  0  0  0
   -0.5918   -3.3971    0.2825 H   0  0  0  0  0  0  0  0  0  0  0  0
   -2.4252   -2.6433   -0.9239 H   0  0  0  0  0  0  0  0  0  0  0  0
   -2.6478   -4.3771   -0.8914 H   0  0  0  0  0  0  0  0  0  0  0  0
   -4.7831   -3.5913   -0.4763 H   0  0  0  0  0  0  0  0  0  0  0  0
   -4.2445   -3.9809    1.1509 H   0  0  0  0  0  0  0  0  0  0  0  0
   -5.4658   -1.7712    0.8751 H   0  0  0  0  0  0  0  0  0  0  0  0
   -4.1617   -1.1915   -0.1483 H   0  0  0  0  0  0  0  0  0  0  0  0
   -3.9530   -0.3312    2.1634 H   0  0  0  0  0  0  0  0  0  0  0  0
   -4.0036   -1.9444    2.8161 H   0  0  0  0  0  0  0  0  0  0  0  0
   -1.6483    3.1145   -2.5970 H   0  0  0  0  0  0  0  0  0  0  0  0
   -0.3960    4.9789   -3.6558 H   0  0  0  0  0  0  0  0  0  0  0  0
    0.6974    6.7003   -2.2379 H   0  0  0  0  0  0  0  0  0  0  0  0
    0.5207    6.5628    0.2358 H   0  0  0  0  0  0  0  0  0  0  0  0
   -0.7336    4.6952    1.2866 H   0  0  0  0  0  0  0  0  0  0  0  0
  1  2  1  0
  2  3  1  0
  3  4  1  0
  4  5  1  0
  5  6  2  0
  6  7  1  0
  7  8  2  0
  8  9  1  0
  9 10  2  0
  2 11  2  0
 11 12  1  0
 12 13  1  0
 13 14  1  0
 14 15  1  0
 15 16  1  0
 16 17  1  0
 17 18  1  0
 18 19  1  0
 12 20  2  0
 20 21  1  0
 21 22  2  3
 22 23  1  0
 23 24  2  0
 24 25  1  0
 25 26  2  0
 26 27  1  0
 27 28  2  0
 21  1  1  0
 28 23  1  0
 10  5  1  0
 19 13  1  0
  1 29  1  0
  3 30  1  0
  4 31  1  0
  4 32  1  0
  6 33  1  0
  7 34  1  0
  8 35  1  0
 10 36  1  0
 14 37  1  0
 14 38  1  0
 15 39  1  0
 15 40  1  0
 16 41  1  0
 16 42  1  0
 17 43  1  0
 17 44  1  0
 18 45  1  0
 18 46  1  0
 19 47  1  0
 19 48  1  0
 24 49  1  0
 25 50  1  0
 26 51  1  0
 27 52  1  0
 28 53  1  0
M  END
>  <ScrubInfo>  (2) 
{"isomerGroup": 0, "isomerId": 1, "confId": 0, "nr_conformers:": 1, "nr_isomers:": 9}

$$$$
_i2
     RDKit          3D

 53 56  0  0  0  0  0  0  0  0999 V2000
    0.5823    0.6404   -1.0845 N   0  0  0  0  0  0  0  0  0  0  0  0
   -0.5933    1.1948   -0.7297 C   0  0  0  0  0  0  0  0  0  0  0  0
   -0.6254    2.5380   -0.4929 N   0  0  0  0  0  0  0  0  0  0  0  0
    0.3482    3.3559    0.1134 C   0  0  0  0  0  0  0  0  0  0  0  0
    0.2703    4.7419   -0.0923 C   0  0  0  0  0  0  0  0  0  0  0  0
    1.2346    5.6054    0.4339 C   0  0  0  0  0  0  0  0  0  0  0  0
    2.2964    5.0931    1.1729 C   0  0  0  0  0  0  0  0  0  0  0  0
    2.3869    3.7215    1.3917 C   0  0  0  0  0  0  0  0  0  0  0  0
    1.4175    2.8604    0.8690 C   0  0  0  0  0  0  0  0  0  0  0  0
   -1.6781    0.4855   -0.6913 N   0  0  0  0  0  0  0  0  0  0  0  0
   -1.5712   -0.8614   -0.9785 C   0  0  0  0  0  0  0  0  0  0  0  0
   -2.7271   -1.6292   -0.9071 N   0  0  0  0  0  0  0  0  0  0  0  0
   -3.9792   -1.0800   -0.4057 C   0  0  0  0  0  0  0  0  0  0  0  0
   -4.1532   -1.3653    1.0864 C   0  0  0  0  0  0  0  0  0  0  0  0
   -4.5171   -2.8236    1.3626 C   0  0  0  0  0  0  0  0  0  0  0  0
   -3.3479   -3.8078    1.4087 C   0  0  0  0  0  0  0  0  0  0  0  0
   -2.2304   -3.6635    0.3728 C   0  0  0  0  0  0  0  0  0  0  0  0
   -2.6520   -3.0892   -0.9778 C   0  0  0  0  0  0  0  0  0  0  0  0
   -0.4437   -1.4289   -1.3072 N   0  0  0  0  0  0  0  0  0  0  0  0
    0.6890   -0.6758   -1.3750 C   0  0  0  0  0  0  0  0  0  0  0  0
    1.7408   -1.3352   -1.7063 N   0  0  0  0  0  0  0  0  0  0  0  0
    3.0273   -0.6511   -1.8023 C   0  0  0  0  0  0  0  0  0  0  0  0
    3.6465   -0.3061   -0.4733 C   0  0  0  0  0  0  0  0  0  0  0  0
    3.4855   -1.1186    0.6530 C   0  0  0  0  0  0  0  0  0  0  0  0
    4.0948   -0.7697    1.8541 C   0  0  0  0  0  0  0  0  0  0  0  0
    4.8590    0.3834    1.8891 C   0  0  0  0  0  0  0  0  0  0  0  0
    5.0490    1.1902    0.8231 N   0  0  0  0  0  0  0  0  0  0  0  0
    4.4525    0.8195   -0.3335 C   0  0  0  0  0  0  0  0  0  0  0  0
    1.3831    1.2373   -1.1810 H   0  0  0  0  0  0  0  0  0  0  0  0
   -1.5673    2.8858   -0.3441 H   0  0  0  0  0  0  0  0  0  0  0  0
   -0.5396    5.1614   -0.6852 H   0  0  0  0  0  0  0  0  0  0  0  0
    1.1602    6.6755    0.2587 H   0  0  0  0  0  0  0  0  0  0  0  0
    3.0530    5.7595    1.5791 H   0  0  0  0  0  0  0  0  0  0  0  0
    3.2150    3.3156    1.9691 H   0  0  0  0  0  0  0  0  0  0  0  0
    1.5070    1.8005    1.0948 H   0  0  0  0  0  0  0  0  0  0  0  0
   -4.8189   -1.4996   -0.9740 H   0  0  0  0  0  0  0  0  0  0  0  0
   -4.0358    0.0012   -0.5758 H   0  0  0  0  0  0  0  0  0  0  0  0
   -4.9811   -0.7415    1.4462 H   0  0  0  0  0  0  0  0  0  0  0  0
   -3.2635   -1.0726    1.6560 H   0  0  0  0  0  0  0  0  0  0  0  0
   -5.2518   -3.1674    0.6237 H   0  0  0  0  0  0  0  0  0  0  0  0
   -5.0291   -2.8761    2.3322 H   0  0  0  0  0  0  0  0  0  0  0  0
   -2.8886   -3.7634    2.4049 H   0  0  0  0  0  0  0  0  0  0  0  0
   -3.7668   -4.8196    1.3293 H   0  0  0  0  0  0  0  0  0  0  0  0
   -1.4266   -3.0563    0.8079 H   0  0  0  0  0  0  0  0  0  0  0  0
   -1.7960   -4.6584    0.2119 H   0  0  0  0  0  0  0  0  0  0  0  0
   -1.9290   -3.3891   -1.7460 H   0  0  0  0  0  0  0  0  0  0  0  0
   -3.6102   -3.5150   -1.2997 H   0  0  0  0  0  0  0  0  0  0  0  0
    3.7229   -1.3146   -2.3304 H   0  0  0  0  0  0  0  0  0  0  0  0
    2.9330    0.2438   -2.4307 H   0  0  0  0  0  0  0  0  0  0  0  0
    2.8848   -2.0247    0.5945 H   0  0  0  0  0  0  0  0  0  0  0  0
    3.9789   -1.3870    2.7377 H   0  0  0  0  0  0  0  0  0  0  0  0
    5.3569    0.6963    2.8023 H   0  0  0  0  0  0  0  0  0  0  0  0
    4.6476    1.4839   -1.1715 H   0  0  0  0  0  0  0  0  0  0  0  0
  1  2  1  0
  2  3  1  0
  3  4  1  0
  4  5  2  0
  5  6  1  0
  6  7  2  0
  7  8  1  0
  8  9  2  0
  2 10  2  0
 10 11  1  0
 11 12  1  0
 12 13  1  0
 13 14  1  0
 14 15  1  0
 15 16  1  0
 16 17  1  0
 17 18  1  0
 11 19  2  0
 19 20  1  0
 20 21  2  3
 21 22  1  0
 22 23  1  0
 23 24  2  0
 24 25  1  0
 25 26  2  0
 26 27  1  0
 27 28  2  0
 20  1  1  0
 28 23  1  0
  9  4  1  0
 18 12  1  0
  1 29  1  0
  3 30  1  0
  5 31  1  0
  6 32  1  0
  7 33  1  0
  8 34  1  0
  9 35  1  0
 13 36  1  0
 13 37  1  0
 14 38  1  0
 14 39  1  0
 15 40  1  0
 15 41  1  0
 16 42  1  0
 16 43  1  0
 17 44  1  0
 17 45  1  0
 18 46  1  0
 18 47  1  0
 22 48  1  0
 22 49  1  0
 24 50  1  0
 25 51  1  0
 26 52  1  0
 28 53  1  0
M  END
>  <ScrubInfo>  (3) 
{"isomerGroup": 0, "isomerId": 2, "confId": 0, "nr_conformers:": 1, "nr_isomers:": 9}

$$$$
_i3
     RDKit          3D

 53 56  0  0  0  0  0  0  0  0999 V2000
    0.1837   -0.7853   -0.5033 N   0  0  0  0  0  0  0  0  0  0  0  0
   -0.8430    0.0714   -0.3144 C   0  0  0  0  0  0  0  0  0  0  0  0
   -2.1286   -0.3902   -0.5340 N   0  0  0  0  0  0  0  0  0  0  0  0
   -2.5079   -1.7648   -0.8499 C   0  0  0  0  0  0  0  0  0  0  0  0
   -2.6330   -2.6134    0.4118 C   0  0  0  0  0  0  0  0  0  0  0  0
   -3.6659   -2.0920    1.4181 C   0  0  0  0  0  0  0  0  0  0  0  0
   -3.2286   -0.8085    2.1250 C   0  0  0  0  0  0  0  0  0  0  0  0
   -3.4791    0.4943    1.3593 C   0  0  0  0  0  0  0  0  0  0  0  0
   -3.2654    0.4590   -0.1530 C   0  0  0  0  0  0  0  0  0  0  0  0
   -0.5980    1.2891    0.0657 N   0  0  0  0  0  0  0  0  0  0  0  0
    0.7087    1.6616    0.2732 C   0  0  0  0  0  0  0  0  0  0  0  0
    1.0434    2.9181    0.6996 N   0  0  0  0  0  0  0  0  0  0  0  0
    0.2938    4.0923    0.8523 C   0  0  0  0  0  0  0  0  0  0  0  0
   -1.0362    4.2398    0.4479 C   0  0  0  0  0  0  0  0  0  0  0  0
   -1.7350    5.4336    0.6646 C   0  0  0  0  0  0  0  0  0  0  0  0
   -1.1147    6.5031    1.3023 C   0  0  0  0  0  0  0  0  0  0  0  0
    0.2038    6.3780    1.7247 C   0  0  0  0  0  0  0  0  0  0  0  0
    0.8961    5.1832    1.5042 C   0  0  0  0  0  0  0  0  0  0  0  0
    1.7210    0.8528    0.1080 N   0  0  0  0  0  0  0  0  0  0  0  0
    1.4733   -0.4226   -0.2982 C   0  0  0  0  0  0  0  0  0  0  0  0
    2.5302   -1.1397   -0.4358 N   0  0  0  0  0  0  0  0  0  0  0  0
    2.3967   -2.5256   -0.8690 C   0  0  0  0  0  0  0  0  0  0  0  0
    3.7205   -3.2274   -1.0254 C   0  0  0  0  0  0  0  0  0  0  0  0
    4.9141   -2.5446   -1.2735 C   0  0  0  0  0  0  0  0  0  0  0  0
    6.0979   -3.2558   -1.4491 C   0  0  0  0  0  0  0  0  0  0  0  0
    6.0486   -4.6377   -1.3835 C   0  0  0  0  0  0  0  0  0  0  0  0
    4.9166   -5.3391   -1.1616 N   0  0  0  0  0  0  0  0  0  0  0  0
    3.7846   -4.6182   -0.9895 C   0  0  0  0  0  0  0  0  0  0  0  0
    0.0009   -1.7244   -0.7875 H   0  0  0  0  0  0  0  0  0  0  0  0
   -1.7900   -2.2213   -1.5401 H   0  0  0  0  0  0  0  0  0  0  0  0
   -3.4606   -1.7816   -1.3947 H   0  0  0  0  0  0  0  0  0  0  0  0
   -2.9245   -3.6277    0.1126 H   0  0  0  0  0  0  0  0  0  0  0  0
   -1.6565   -2.7040    0.9031 H   0  0  0  0  0  0  0  0  0  0  0  0
   -3.7947   -2.8679    2.1834 H   0  0  0  0  0  0  0  0  0  0  0  0
   -4.6435   -1.9601    0.9403 H   0  0  0  0  0  0  0  0  0  0  0  0
   -3.7611   -0.7363    3.0819 H   0  0  0  0  0  0  0  0  0  0  0  0
   -2.1644   -0.8782    2.3839 H   0  0  0  0  0  0  0  0  0  0  0  0
   -4.5089    0.8251    1.5459 H   0  0  0  0  0  0  0  0  0  0  0  0
   -2.8402    1.2706    1.7992 H   0  0  0  0  0  0  0  0  0  0  0  0
   -3.1307    1.4778   -0.5363 H   0  0  0  0  0  0  0  0  0  0  0  0
   -4.1850    0.1004   -0.6329 H   0  0  0  0  0  0  0  0  0  0  0  0
    2.0389    3.0151    0.8397 H   0  0  0  0  0  0  0  0  0  0  0  0
   -1.5565    3.4364   -0.0621 H   0  0  0  0  0  0  0  0  0  0  0  0
   -2.7656    5.5218    0.3314 H   0  0  0  0  0  0  0  0  0  0  0  0
   -1.6581    7.4287    1.4710 H   0  0  0  0  0  0  0  0  0  0  0  0
    0.6957    7.2052    2.2292 H   0  0  0  0  0  0  0  0  0  0  0  0
    1.9229    5.1096    1.8556 H   0  0  0  0  0  0  0  0  0  0  0  0
    1.7986   -3.0766   -0.1319 H   0  0  0  0  0  0  0  0  0  0  0  0
    1.8851   -2.5712   -1.8387 H   0  0  0  0  0  0  0  0  0  0  0  0
    4.9253   -1.4578   -1.3233 H   0  0  0  0  0  0  0  0  0  0  0  0
    7.0341   -2.7414   -1.6327 H   0  0  0  0  0  0  0  0  0  0  0  0
    6.9460   -5.2353   -1.5134 H   0  0  0  0  0  0  0  0  0  0  0  0
    2.8954   -5.2184   -0.8166 H   0  0  0  0  0  0  0  0  0  0  0  0
  1  2  1  0
  2  3  1  0
  3  4  1  0
  4  5  1  0
  5  6  1  0
  6  7  1  0
  7  8  1  0
  8  9  1  0
  2 10  2  0
 10 11  1  0
 11 12  1  0
 12 13  1  0
 13 14  2  0
 14 15  1  0
 15 16  2  0
 16 17  1  0
 17 18  2  0
 11 19  2  0
 19 20  1  0
 20 21  2  3
 21 22  1  0
 22 23  1  0
 23 24  2  0
 24 25  1  0
 25 26  2  0
 26 27  1  0
 27 28  2  0
 20  1  1  0
 28 23  1  0
  9  3  1  0
 18 13  1  0
  1 29  1  0
  4 30  1  0
  4 31  1  0
  5 32  1  0
  5 33  1  0
  6 34  1  0
  6 35  1  0
  7 36  1  0
  7 37  1  0
  8 38  1  0
  8 39  1  0
  9 40  1  0
  9 41  1  0
 12 42  1  0
 14 43  1  0
 15 44  1  0
 16 45  1  0
 17 46  1  0
 18 47  1  0
 22 48  1  0
 22 49  1  0
 24 50  1  0
 25 51  1  0
 26 52  1  0
 28 53  1  0
M  END
>  <ScrubInfo>  (4) 
{"isomerGroup": 0, "isomerId": 3, "confId": 0, "nr_conformers:": 1, "nr_isomers:": 9}

$$$$
_i4
     RDKit          3D

 53 56  0  0  0  0  0  0  0  0999 V2000
   -1.3123    1.3101    1.2431 N   0  0  0  0  0  0  0  0  0  0  0  0
   -1.3399   -0.0342    1.1285 C   0  0  0  0  0  0  0  0  0  0  0  0
   -2.4699   -0.6913    1.5859 N   0  0  0  0  0  0  0  0  0  0  0  0
   -2.4636   -2.1573    1.6330 C   0  0  0  0  0  0  0  0  0  0  0  0
   -2.9746   -2.7724    0.3313 C   0  0  0  0  0  0  0  0  0  0  0  0
   -4.0965   -2.0055   -0.3671 C   0  0  0  0  0  0  0  0  0  0  0  0
   -5.2920   -1.6460    0.5115 C   0  0  0  0  0  0  0  0  0  0  0  0
   -4.9882   -0.9101    1.8204 C   0  0  0  0  0  0  0  0  0  0  0  0
   -3.7553   -0.0048    1.7949 C   0  0  0  0  0  0  0  0  0  0  0  0
   -0.3191   -0.6531    0.6120 N   0  0  0  0  0  0  0  0  0  0  0  0
    0.7368    0.1092    0.1752 C   0  0  0  0  0  0  0  0  0  0  0  0
    1.7955   -0.5158   -0.4153 N   0  0  0  0  0  0  0  0  0  0  0  0
    2.0885   -1.9087   -0.1821 C   0  0  0  0  0  0  0  0  0  0  0  0
    3.2835   -2.3298   -0.9916 C   0  0  0  0  0  0  0  0  0  0  0  0
    3.2983   -2.2256   -2.3868 C   0  0  0  0  0  0  0  0  0  0  0  0
    4.4188   -2.6398   -3.1004 C   0  0  0  0  0  0  0  0  0  0  0  0
    5.4925   -3.1529   -2.3929 C   0  0  0  0  0  0  0  0  0  0  0  0
    5.5155   -3.2761   -1.0484 N   0  0  0  0  0  0  0  0  0  0  0  0
    4.4137   -2.8630   -0.3809 C   0  0  0  0  0  0  0  0  0  0  0  0
    0.8143    1.4026    0.2892 N   0  0  0  0  0  0  0  0  0  0  0  0
   -0.2367    2.0424    0.8777 C   0  0  0  0  0  0  0  0  0  0  0  0
   -0.2246    3.3243    1.1052 N   0  0  0  0  0  0  0  0  0  0  0  0
    0.9016    4.0688    0.7249 C   0  0  0  0  0  0  0  0  0  0  0  0
    0.9941    4.6111   -0.5600 C   0  0  0  0  0  0  0  0  0  0  0  0
    2.0994    5.3824   -0.9258 C   0  0  0  0  0  0  0  0  0  0  0  0
    3.1149    5.6256   -0.0017 C   0  0  0  0  0  0  0  0  0  0  0  0
    3.0233    5.1016    1.2873 C   0  0  0  0  0  0  0  0  0  0  0  0
    1.9165    4.3305    1.6493 C   0  0  0  0  0  0  0  0  0  0  0  0
   -2.0004    1.8063    1.7776 H   0  0  0  0  0  0  0  0  0  0  0  0
   -1.4554   -2.5390    1.8407 H   0  0  0  0  0  0  0  0  0  0  0  0
   -3.0519   -2.5159    2.4841 H   0  0  0  0  0  0  0  0  0  0  0  0
   -3.2997   -3.8004    0.5325 H   0  0  0  0  0  0  0  0  0  0  0  0
   -2.1377   -2.8529   -0.3742 H   0  0  0  0  0  0  0  0  0  0  0  0
   -4.4526   -2.6042   -1.2150 H   0  0  0  0  0  0  0  0  0  0  0  0
   -3.6872   -1.0890   -0.8111 H   0  0  0  0  0  0  0  0  0  0  0  0
   -5.8591   -2.5554    0.7463 H   0  0  0  0  0  0  0  0  0  0  0  0
   -5.9662   -1.0203   -0.0876 H   0  0  0  0  0  0  0  0  0  0  0  0
   -4.9170   -1.6332    2.6406 H   0  0  0  0  0  0  0  0  0  0  0  0
   -5.8629   -0.2955    2.0709 H   0  0  0  0  0  0  0  0  0  0  0  0
   -3.9047    0.7467    1.0094 H   0  0  0  0  0  0  0  0  0  0  0  0
   -3.7023    0.5317    2.7498 H   0  0  0  0  0  0  0  0  0  0  0  0
    2.5974    0.0992   -0.4879 H   0  0  0  0  0  0  0  0  0  0  0  0
    2.2762   -2.0698    0.8862 H   0  0  0  0  0  0  0  0  0  0  0  0
    1.2387   -2.5416   -0.4654 H   0  0  0  0  0  0  0  0  0  0  0  0
    2.4390   -1.8175   -2.9151 H   0  0  0  0  0  0  0  0  0  0  0  0
    4.4530   -2.5633   -4.1812 H   0  0  0  0  0  0  0  0  0  0  0  0
    6.3900   -3.4892   -2.9040 H   0  0  0  0  0  0  0  0  0  0  0  0
    4.4740   -2.9789    0.6983 H   0  0  0  0  0  0  0  0  0  0  0  0
    0.2013    4.4235   -1.2779 H   0  0  0  0  0  0  0  0  0  0  0  0
    2.1652    5.7920   -1.9298 H   0  0  0  0  0  0  0  0  0  0  0  0
    3.9757    6.2254   -0.2850 H   0  0  0  0  0  0  0  0  0  0  0  0
    3.8102    5.2930    2.0113 H   0  0  0  0  0  0  0  0  0  0  0  0
    1.8418    3.9263    2.6542 H   0  0  0  0  0  0  0  0  0  0  0  0
  1  2  1  0
  2  3  1  0
  3  4  1  0
  4  5  1  0
  5  6  1  0
  6  7  1  0
  7  8  1  0
  8  9  1  0
  2 10  2  0
 10 11  1  0
 11 12  1  0
 12 13  1  0
 13 14  1  0
 14 15  2  0
 15 16  1  0
 16 17  2  0
 17 18  1  0
 18 19  2  0
 11 20  2  0
 20 21  1  0
 21 22  2  3
 22 23  1  0
 23 24  2  0
 24 25  1  0
 25 26  2  0
 26 27  1  0
 27 28  2  0
 21  1  1  0
 28 23  1  0
  9  3  1  0
 19 14  1  0
  1 29  1  0
  4 30  1  0
  4 31  1  0
  5 32  1  0
  5 33  1  0
  6 34  1  0
  6 35  1  0
  7 36  1  0
  7 37  1  0
  8 38  1  0
  8 39  1  0
  9 40  1  0
  9 41  1  0
 12 42  1  0
 13 43  1  0
 13 44  1  0
 15 45  1  0
 16 46  1  0
 17 47  1  0
 19 48  1  0
 24 49  1  0
 25 50  1  0
 26 51  1  0
 27 52  1  0
 28 53  1  0
M  END
>  <ScrubInfo>  (5) 
{"isomerGroup": 0, "isomerId": 4, "confId": 0, "nr_conformers:": 1, "nr_isomers:": 9}

$$$$
_i5
     RDKit          3D

 53 56  0  0  0  0  0  0  0  0999 V2000
    0.7548   -0.7098   -0.2740 N   0  0  0  0  0  0  0  0  0  0  0  0
    1.8086    0.1243   -0.4430 C   0  0  0  0  0  0  0  0  0  0  0  0
    3.0428   -0.3941   -0.1787 N   0  0  0  0  0  0  0  0  0  0  0  0
    3.3326   -0.9801    1.1196 C   0  0  0  0  0  0  0  0  0  0  0  0
    4.7838   -1.3547    1.1949 C   0  0  0  0  0  0  0  0  0  0  0  0
    5.7392   -0.4870    1.7331 C   0  0  0  0  0  0  0  0  0  0  0  0
    7.0767   -0.8711    1.7706 C   0  0  0  0  0  0  0  0  0  0  0  0
    7.4174   -2.1135    1.2628 C   0  0  0  0  0  0  0  0  0  0  0  0
    6.5259   -2.9745    0.7276 N   0  0  0  0  0  0  0  0  0  0  0  0
    5.2354   -2.5725    0.6966 C   0  0  0  0  0  0  0  0  0  0  0  0
    1.6719    1.3444   -0.8434 N   0  0  0  0  0  0  0  0  0  0  0  0
    0.3678    1.7269   -1.0784 C   0  0  0  0  0  0  0  0  0  0  0  0
    0.2236    2.9794   -1.3840 N   0  0  0  0  0  0  0  0  0  0  0  0
   -1.0624    3.4737   -1.6412 C   0  0  0  0  0  0  0  0  0  0  0  0
   -1.8416    3.9959   -0.6047 C   0  0  0  0  0  0  0  0  0  0  0  0
   -3.1128    4.5127   -0.8641 C   0  0  0  0  0  0  0  0  0  0  0  0
   -3.6073    4.5217   -2.1679 C   0  0  0  0  0  0  0  0  0  0  0  0
   -2.8299    4.0193   -3.2110 C   0  0  0  0  0  0  0  0  0  0  0  0
   -1.5594    3.5029   -2.9472 C   0  0  0  0  0  0  0  0  0  0  0  0
   -0.7298    0.8946   -1.0092 N   0  0  0  0  0  0  0  0  0  0  0  0
   -0.5057   -0.3171   -0.6028 C   0  0  0  0  0  0  0  0  0  0  0  0
   -1.5050   -1.2679   -0.4806 N   0  0  0  0  0  0  0  0  0  0  0  0
   -1.3796   -2.4356    0.4055 C   0  0  0  0  0  0  0  0  0  0  0  0
   -2.7000   -3.0487    0.8749 C   0  0  0  0  0  0  0  0  0  0  0  0
   -3.5710   -2.1431    1.7506 C   0  0  0  0  0  0  0  0  0  0  0  0
   -3.4921   -0.6430    1.4782 C   0  0  0  0  0  0  0  0  0  0  0  0
   -3.7070   -0.2270    0.0239 C   0  0  0  0  0  0  0  0  0  0  0  0
   -2.8389   -0.9477   -1.0069 C   0  0  0  0  0  0  0  0  0  0  0  0
    0.9586   -1.6889   -0.3809 H   0  0  0  0  0  0  0  0  0  0  0  0
    3.7359    0.3200   -0.4041 H   0  0  0  0  0  0  0  0  0  0  0  0
    3.0895   -0.2682    1.9183 H   0  0  0  0  0  0  0  0  0  0  0  0
    2.7156   -1.8706    1.2897 H   0  0  0  0  0  0  0  0  0  0  0  0
    5.4503    0.4869    2.1218 H   0  0  0  0  0  0  0  0  0  0  0  0
    7.8361   -0.2163    2.1835 H   0  0  0  0  0  0  0  0  0  0  0  0
    8.4476   -2.4581    1.2699 H   0  0  0  0  0  0  0  0  0  0  0  0
    4.5523   -3.2841    0.2398 H   0  0  0  0  0  0  0  0  0  0  0  0
   -1.4509    3.9935    0.4085 H   0  0  0  0  0  0  0  0  0  0  0  0
   -3.7114    4.9106   -0.0499 H   0  0  0  0  0  0  0  0  0  0  0  0
   -4.5950    4.9262   -2.3721 H   0  0  0  0  0  0  0  0  0  0  0  0
   -3.2075    4.0321   -4.2294 H   0  0  0  0  0  0  0  0  0  0  0  0
   -0.9486    3.1172   -3.7581 H   0  0  0  0  0  0  0  0  0  0  0  0
   -0.7965   -2.1655    1.2950 H   0  0  0  0  0  0  0  0  0  0  0  0
   -0.8118   -3.2066   -0.1288 H   0  0  0  0  0  0  0  0  0  0  0  0
   -2.4744   -3.9563    1.4502 H   0  0  0  0  0  0  0  0  0  0  0  0
   -3.2846   -3.4041    0.0189 H   0  0  0  0  0  0  0  0  0  0  0  0
   -4.6133   -2.4746    1.6655 H   0  0  0  0  0  0  0  0  0  0  0  0
   -3.2913   -2.3039    2.7998 H   0  0  0  0  0  0  0  0  0  0  0  0
   -2.5218   -0.2645    1.8242 H   0  0  0  0  0  0  0  0  0  0  0  0
   -4.2397   -0.1349    2.1003 H   0  0  0  0  0  0  0  0  0  0  0  0
   -3.5158    0.8516   -0.0448 H   0  0  0  0  0  0  0  0  0  0  0  0
   -4.7609   -0.3630   -0.2477 H   0  0  0  0  0  0  0  0  0  0  0  0
   -3.3373   -1.8570   -1.3592 H   0  0  0  0  0  0  0  0  0  0  0  0
   -2.7629   -0.3300   -1.9115 H   0  0  0  0  0  0  0  0  0  0  0  0
  1  2  1  0
  2  3  1  0
  3  4  1  0
  4  5  1  0
  5  6  2  0
  6  7  1  0
  7  8  2  0
  8  9  1  0
  9 10  2  0
  2 11  2  0
 11 12  1  0
 12 13  2  3
 13 14  1  0
 14 15  2  0
 15 16  1  0
 16 17  2  0
 17 18  1  0
 18 19  2  0
 12 20  1  0
 20 21  2  0
 21 22  1  0
 22 23  1  0
 23 24  1  0
 24 25  1  0
 25 26  1  0
 26 27  1  0
 27 28  1  0
 21  1  1  0
 28 22  1  0
 10  5  1  0
 19 14  1  0
  1 29  1  0
  3 30  1  0
  4 31  1  0
  4 32  1  0
  6 33  1  0
  7 34  1  0
  8 35  1  0
 10 36  1  0
 15 37  1  0
 16 38  1  0
 17 39  1  0
 18 40  1  0
 19 41  1  0
 23 42  1  0
 23 43  1  0
 24 44  1  0
 24 45  1  0
 25 46  1  0
 25 47  1  0
 26 48  1  0
 26 49  1  0
 27 50  1  0
 27 51  1  0
 28 52  1  0
 28 53  1  0
M  END
>  <ScrubInfo>  (6) 
{"isomerGroup": 0, "isomerId": 5, "confId": 0, "nr_conformers:": 1, "nr_isomers:": 9}

$$$$
_i6
     RDKit          3D

 53 56  0  0  0  0  0  0  0  0999 V2000
    0.2352   -1.0999    0.1841 N   0  0  0  0  0  0  0  0  0  0  0  0
   -1.0630   -0.9390   -0.1751 C   0  0  0  0  0  0  0  0  0  0  0  0
   -1.6971   -2.0201   -0.7195 N   0  0  0  0  0  0  0  0  0  0  0  0
   -1.6225   -3.3631   -0.2913 C   0  0  0  0  0  0  0  0  0  0  0  0
   -2.0674   -4.3645   -1.1667 C   0  0  0  0  0  0  0  0  0  0  0  0
   -1.9965   -5.7139   -0.8119 C   0  0  0  0  0  0  0  0  0  0  0  0
   -1.4808   -6.0808    0.4279 C   0  0  0  0  0  0  0  0  0  0  0  0
   -1.0401   -5.0993    1.3118 C   0  0  0  0  0  0  0  0  0  0  0  0
   -1.1099   -3.7498    0.9537 C   0  0  0  0  0  0  0  0  0  0  0  0
   -1.6568    0.2091   -0.0745 N   0  0  0  0  0  0  0  0  0  0  0  0
   -0.8738    1.2145    0.4535 C   0  0  0  0  0  0  0  0  0  0  0  0
   -1.3765    2.3819    0.6547 N   0  0  0  0  0  0  0  0  0  0  0  0
   -2.7835    2.5678    0.3048 C   0  0  0  0  0  0  0  0  0  0  0  0
   -3.2754    3.9697    0.5703 C   0  0  0  0  0  0  0  0  0  0  0  0
   -2.4217    5.0731    0.6463 C   0  0  0  0  0  0  0  0  0  0  0  0
   -2.9475    6.3448    0.8562 C   0  0  0  0  0  0  0  0  0  0  0  0
   -4.3210    6.4757    0.9722 C   0  0  0  0  0  0  0  0  0  0  0  0
   -5.1844    5.4413    0.8904 N   0  0  0  0  0  0  0  0  0  0  0  0
   -4.6406    4.2176    0.6900 C   0  0  0  0  0  0  0  0  0  0  0  0
    0.4524    1.1026    0.7961 N   0  0  0  0  0  0  0  0  0  0  0  0
    0.9889   -0.0717    0.6468 C   0  0  0  0  0  0  0  0  0  0  0  0
    2.3111   -0.3300    0.9531 N   0  0  0  0  0  0  0  0  0  0  0  0
    3.2090    0.7911    1.2538 C   0  0  0  0  0  0  0  0  0  0  0  0
    3.6543    1.5158   -0.0146 C   0  0  0  0  0  0  0  0  0  0  0  0
    3.9455    0.6438   -1.2405 C   0  0  0  0  0  0  0  0  0  0  0  0
    4.5970   -0.7110   -0.9578 C   0  0  0  0  0  0  0  0  0  0  0  0
    3.5899   -1.7975   -0.5609 C   0  0  0  0  0  0  0  0  0  0  0  0
    2.9881   -1.6167    0.8298 C   0  0  0  0  0  0  0  0  0  0  0  0
    0.6873   -1.9309   -0.1539 H   0  0  0  0  0  0  0  0  0  0  0  0
   -2.6322   -1.7906   -1.0455 H   0  0  0  0  0  0  0  0  0  0  0  0
   -2.4642   -4.0990   -2.1443 H   0  0  0  0  0  0  0  0  0  0  0  0
   -2.3441   -6.4767   -1.5041 H   0  0  0  0  0  0  0  0  0  0  0  0
   -1.4297   -7.1300    0.7083 H   0  0  0  0  0  0  0  0  0  0  0  0
   -0.6521   -5.3819    2.2875 H   0  0  0  0  0  0  0  0  0  0  0  0
   -0.7902   -3.0088    1.6827 H   0  0  0  0  0  0  0  0  0  0  0  0
   -2.9412    2.3672   -0.7628 H   0  0  0  0  0  0  0  0  0  0  0  0
   -3.4013    1.8764    0.8927 H   0  0  0  0  0  0  0  0  0  0  0  0
   -1.3464    4.9418    0.5481 H   0  0  0  0  0  0  0  0  0  0  0  0
   -2.2990    7.2101    0.9266 H   0  0  0  0  0  0  0  0  0  0  0  0
   -4.7772    7.4472    1.1372 H   0  0  0  0  0  0  0  0  0  0  0  0
   -5.3644    3.4094    0.6245 H   0  0  0  0  0  0  0  0  0  0  0  0
    4.0973    0.4339    1.7902 H   0  0  0  0  0  0  0  0  0  0  0  0
    2.7317    1.4995    1.9422 H   0  0  0  0  0  0  0  0  0  0  0  0
    4.5509    2.1003    0.2284 H   0  0  0  0  0  0  0  0  0  0  0  0
    2.8923    2.2524   -0.2994 H   0  0  0  0  0  0  0  0  0  0  0  0
    4.6032    1.2179   -1.9055 H   0  0  0  0  0  0  0  0  0  0  0  0
    3.0163    0.4910   -1.8042 H   0  0  0  0  0  0  0  0  0  0  0  0
    5.3858   -0.6153   -0.2029 H   0  0  0  0  0  0  0  0  0  0  0  0
    5.0876   -1.0445   -1.8811 H   0  0  0  0  0  0  0  0  0  0  0  0
    2.7921   -1.8469   -1.3120 H   0  0  0  0  0  0  0  0  0  0  0  0
    4.1003   -2.7681   -0.5874 H   0  0  0  0  0  0  0  0  0  0  0  0
    2.3035   -2.4433    1.0519 H   0  0  0  0  0  0  0  0  0  0  0  0
    3.7811   -1.7026    1.5836 H   0  0  0  0  0  0  0  0  0  0  0  0
  1  2  1  0
  2  3  1  0
  3  4  1  0
  4  5  2  0
  5  6  1  0
  6  7  2  0
  7  8  1  0
  8  9  2  0
  2 10  2  0
 10 11  1  0
 11 12  2  3
 12 13  1  0
 13 14  1  0
 14 15  2  0
 15 16  1  0
 16 17  2  0
 17 18  1  0
 18 19  2  0
 11 20  1  0
 20 21  2  0
 21 22  1  0
 22 23  1  0
 23 24  1  0
 24 25  1  0
 25 26  1  0
 26 27  1  0
 27 28  1  0
 21  1  1  0
 28 22  1  0
  9  4  1  0
 19 14  1  0
  1 29  1  0
  3 30  1  0
  5 31  1  0
  6 32  1  0
  7 33  1  0
  8 34  1  0
  9 35  1  0
 13 36  1  0
 13 37  1  0
 15 38  1  0
 16 39  1  0
 17 40  1  0
 19 41  1  0
 23 42  1  0
 23 43  1  0
 24 44  1  0
 24 45  1  0
 25 46  1  0
 25 47  1  0
 26 48  1  0
 26 49  1  0
 27 50  1  0
 27 51  1  0
 28 52  1  0
 28 53  1  0
M  END
>  <ScrubInfo>  (7) 
{"isomerGroup": 0, "isomerId": 6, "confId": 0, "nr_conformers:": 1, "nr_isomers:": 9}

$$$$
_i7
     RDKit          3D

 53 56  0  0  0  0  0  0  0  0999 V2000
   -0.3362   -0.8541    0.2921 N   0  0  0  0  0  0  0  0  0  0  0  0
   -1.5765   -0.2780    0.2849 C   0  0  0  0  0  0  0  0  0  0  0  0
   -2.6422   -1.1467    0.4760 N   0  0  0  0  0  0  0  0  0  0  0  0
   -2.6723   -2.4663   -0.1663 C   0  0  0  0  0  0  0  0  0  0  0  0
   -3.8573   -2.6749   -1.1079 C   0  0  0  0  0  0  0  0  0  0  0  0
   -5.0940   -3.2143   -0.3943 C   0  0  0  0  0  0  0  0  0  0  0  0
   -5.7937   -2.2068    0.5077 C   0  0  0  0  0  0  0  0  0  0  0  0
   -4.8870   -1.5456    1.5420 C   0  0  0  0  0  0  0  0  0  0  0  0
   -3.9115   -0.5477    0.9219 C   0  0  0  0  0  0  0  0  0  0  0  0
   -1.7404    1.0078    0.1441 N   0  0  0  0  0  0  0  0  0  0  0  0
   -0.5965    1.7538   -0.0315 C   0  0  0  0  0  0  0  0  0  0  0  0
   -0.8114    3.0251   -0.1877 N   0  0  0  0  0  0  0  0  0  0  0  0
    0.2763    3.8852   -0.3717 C   0  0  0  0  0  0  0  0  0  0  0  0
    0.8927    4.4870    0.7283 C   0  0  0  0  0  0  0  0  0  0  0  0
    1.9940    5.3257    0.5491 C   0  0  0  0  0  0  0  0  0  0  0  0
    2.4770    5.5749   -0.7352 C   0  0  0  0  0  0  0  0  0  0  0  0
    1.8539    4.9942   -1.8395 C   0  0  0  0  0  0  0  0  0  0  0  0
    0.7527    4.1560   -1.6569 C   0  0  0  0  0  0  0  0  0  0  0  0
    0.6310    1.1341   -0.0262 N   0  0  0  0  0  0  0  0  0  0  0  0
    0.8536   -0.1993    0.1617 C   0  0  0  0  0  0  0  0  0  0  0  0
    1.9631   -0.8492    0.2330 N   0  0  0  0  0  0  0  0  0  0  0  0
    3.2069   -0.0894    0.0971 C   0  0  0  0  0  0  0  0  0  0  0  0
    4.4237   -0.9733    0.1533 C   0  0  0  0  0  0  0  0  0  0  0  0
    4.4706   -2.2126   -0.4917 C   0  0  0  0  0  0  0  0  0  0  0  0
    5.6347   -2.9744   -0.4477 C   0  0  0  0  0  0  0  0  0  0  0  0
    6.7264   -2.4639    0.2337 C   0  0  0  0  0  0  0  0  0  0  0  0
    6.7294   -1.2665    0.8568 N   0  0  0  0  0  0  0  0  0  0  0  0
    5.5816   -0.5519    0.8006 C   0  0  0  0  0  0  0  0  0  0  0  0
   -0.2604   -1.8195    0.5676 H   0  0  0  0  0  0  0  0  0  0  0  0
   -2.6383   -3.2436    0.6060 H   0  0  0  0  0  0  0  0  0  0  0  0
   -1.7695   -2.6071   -0.7729 H   0  0  0  0  0  0  0  0  0  0  0  0
   -3.5644   -3.4276   -1.8514 H   0  0  0  0  0  0  0  0  0  0  0  0
   -4.0937   -1.7617   -1.6663 H   0  0  0  0  0  0  0  0  0  0  0  0
   -4.8232   -4.1018    0.1913 H   0  0  0  0  0  0  0  0  0  0  0  0
   -5.8136   -3.5548   -1.1492 H   0  0  0  0  0  0  0  0  0  0  0  0
   -6.2720   -1.4357   -0.1091 H   0  0  0  0  0  0  0  0  0  0  0  0
   -6.6059   -2.7244    1.0332 H   0  0  0  0  0  0  0  0  0  0  0  0
   -5.5380   -0.9920    2.2310 H   0  0  0  0  0  0  0  0  0  0  0  0
   -4.3650   -2.2986    2.1437 H   0  0  0  0  0  0  0  0  0  0  0  0
   -3.6828    0.1911    1.7016 H   0  0  0  0  0  0  0  0  0  0  0  0
   -4.3805    0.0007    0.0957 H   0  0  0  0  0  0  0  0  0  0  0  0
    0.5051    4.3036    1.7273 H   0  0  0  0  0  0  0  0  0  0  0  0
    2.4659    5.7932    1.4095 H   0  0  0  0  0  0  0  0  0  0  0  0
    3.3290    6.2355   -0.8769 H   0  0  0  0  0  0  0  0  0  0  0  0
    2.2168    5.2027   -2.8426 H   0  0  0  0  0  0  0  0  0  0  0  0
    0.2563    3.7145   -2.5173 H   0  0  0  0  0  0  0  0  0  0  0  0
    1.4223    1.7433   -0.1398 H   0  0  0  0  0  0  0  0  0  0  0  0
    3.2648    0.6519    0.9043 H   0  0  0  0  0  0  0  0  0  0  0  0
    3.2285    0.4440   -0.8617 H   0  0  0  0  0  0  0  0  0  0  0  0
    3.5988   -2.5865   -1.0229 H   0  0  0  0  0  0  0  0  0  0  0  0
    5.6879   -3.9415   -0.9341 H   0  0  0  0  0  0  0  0  0  0  0  0
    7.6568   -3.0207    0.2965 H   0  0  0  0  0  0  0  0  0  0  0  0
    5.6264    0.4067    1.3108 H   0  0  0  0  0  0  0  0  0  0  0  0
  1  2  1  0
  2  3  1  0
  3  4  1  0
  4  5  1  0
  5  6  1  0
  6  7  1  0
  7  8  1  0
  8  9  1  0
  2 10  2  0
 10 11  1  0
 11 12  2  3
 12 13  1  0
 13 14  2  0
 14 15  1  0
 15 16  2  0
 16 17  1  0
 17 18  2  0
 11 19  1  0
 19 20  1  0
 20 21  2  3
 21 22  1  0
 22 23  1  0
 23 24  2  0
 24 25  1  0
 25 26  2  0
 26 27  1  0
 27 28  2  0
 20  1  1  0
 28 23  1  0
  9  3  1  0
 18 13  1  0
  1 29  1  0
  4 30  1  0
  4 31  1  0
  5 32  1  0
  5 33  1  0
  6 34  1  0
  6 35  1  0
  7 36  1  0
  7 37  1  0
  8 38  1  0
  8 39  1  0
  9 40  1  0
  9 41  1  0
 14 42  1  0
 15 43  1  0
 16 44  1  0
 17 45  1  0
 18 46  1  0
 19 47  1  0
 22 48  1  0
 22 49  1  0
 24 50  1  0
 25 51  1  0
 26 52  1  0
 28 53  1  0
M  END
>  <ScrubInfo>  (8) 
{"isomerGroup": 0, "isomerId": 7, "confId": 0, "nr_conformers:": 1, "nr_isomers:": 9}

$$$$
_i8
     RDKit          3D

 53 56  0  0  0  0  0  0  0  0999 V2000
    0.9357   -1.4850    0.6640 N   0  0  0  0  0  0  0  0  0  0  0  0
    1.6087   -0.3256    0.3971 C   0  0  0  0  0  0  0  0  0  0  0  0
    2.9528   -0.3041    0.7274 N   0  0  0  0  0  0  0  0  0  0  0  0
    3.6388    1.0032    0.7479 C   0  0  0  0  0  0  0  0  0  0  0  0
    5.0209    0.9864    1.4068 C   0  0  0  0  0  0  0  0  0  0  0  0
    5.0584    0.4998    2.8567 C   0  0  0  0  0  0  0  0  0  0  0  0
    4.1567   -0.6808    3.2143 C   0  0  0  0  0  0  0  0  0  0  0  0
    4.1610   -1.8468    2.2233 C   0  0  0  0  0  0  0  0  0  0  0  0
    3.8009   -1.4911    0.7787 C   0  0  0  0  0  0  0  0  0  0  0  0
    1.0100    0.7142   -0.1168 N   0  0  0  0  0  0  0  0  0  0  0  0
   -0.3290    0.5790   -0.4056 C   0  0  0  0  0  0  0  0  0  0  0  0
   -0.8461    1.6354   -0.9260 N   0  0  0  0  0  0  0  0  0  0  0  0
   -2.2593    1.6317   -1.2874 C   0  0  0  0  0  0  0  0  0  0  0  0
   -2.7203    2.9242   -1.9102 C   0  0  0  0  0  0  0  0  0  0  0  0
   -1.8411    3.8667   -2.4496 C   0  0  0  0  0  0  0  0  0  0  0  0
   -2.3404    5.0247   -3.0393 C   0  0  0  0  0  0  0  0  0  0  0  0
   -3.7131    5.2004   -3.0812 C   0  0  0  0  0  0  0  0  0  0  0  0
   -4.5995    4.3119   -2.5842 N   0  0  0  0  0  0  0  0  0  0  0  0
   -4.0820    3.1990   -2.0143 C   0  0  0  0  0  0  0  0  0  0  0  0
   -0.9647   -0.6032   -0.1286 N   0  0  0  0  0  0  0  0  0  0  0  0
   -0.3928   -1.7043    0.4461 C   0  0  0  0  0  0  0  0  0  0  0  0
   -0.9478   -2.8290    0.7820 N   0  0  0  0  0  0  0  0  0  0  0  0
   -2.3181   -2.9897    0.5387 C   0  0  0  0  0  0  0  0  0  0  0  0
   -2.7618   -3.5177   -0.6763 C   0  0  0  0  0  0  0  0  0  0  0  0
   -4.1277   -3.6567   -0.9286 C   0  0  0  0  0  0  0  0  0  0  0  0
   -5.0565   -3.2774    0.0400 C   0  0  0  0  0  0  0  0  0  0  0  0
   -4.6203   -2.7674    1.2624 C   0  0  0  0  0  0  0  0  0  0  0  0
   -3.2537   -2.6289    1.5117 C   0  0  0  0  0  0  0  0  0  0  0  0
    1.3976   -2.2071    1.1898 H   0  0  0  0  0  0  0  0  0  0  0  0
    3.7473    1.3613   -0.2831 H   0  0  0  0  0  0  0  0  0  0  0  0
    3.0164    1.7303    1.2848 H   0  0  0  0  0  0  0  0  0  0  0  0
    5.4302    2.0046    1.3780 H   0  0  0  0  0  0  0  0  0  0  0  0
    5.7200    0.3896    0.8098 H   0  0  0  0  0  0  0  0  0  0  0  0
    6.0966    0.2437    3.1033 H   0  0  0  0  0  0  0  0  0  0  0  0
    4.7929    1.3367    3.5153 H   0  0  0  0  0  0  0  0  0  0  0  0
    3.1281   -0.3189    3.3413 H   0  0  0  0  0  0  0  0  0  0  0  0
    4.4531   -1.0582    4.2011 H   0  0  0  0  0  0  0  0  0  0  0  0
    3.4395   -2.5899    2.5866 H   0  0  0  0  0  0  0  0  0  0  0  0
    5.1379   -2.3448    2.2357 H   0  0  0  0  0  0  0  0  0  0  0  0
    4.7089   -1.3385    0.1842 H   0  0  0  0  0  0  0  0  0  0  0  0
    3.3248   -2.3547    0.2984 H   0  0  0  0  0  0  0  0  0  0  0  0
   -2.4595    0.8302   -2.0098 H   0  0  0  0  0  0  0  0  0  0  0  0
   -2.8618    1.4539   -0.3874 H   0  0  0  0  0  0  0  0  0  0  0  0
   -0.7661    3.7039   -2.4068 H   0  0  0  0  0  0  0  0  0  0  0  0
   -1.6719    5.7696   -3.4553 H   0  0  0  0  0  0  0  0  0  0  0  0
   -4.1490    6.0876   -3.5307 H   0  0  0  0  0  0  0  0  0  0  0  0
   -4.8260    2.5061   -1.6300 H   0  0  0  0  0  0  0  0  0  0  0  0
   -1.9478   -0.6636   -0.3277 H   0  0  0  0  0  0  0  0  0  0  0  0
   -2.0380   -3.8235   -1.4270 H   0  0  0  0  0  0  0  0  0  0  0  0
   -4.4660   -4.0688   -1.8760 H   0  0  0  0  0  0  0  0  0  0  0  0
   -6.1206   -3.3919   -0.1527 H   0  0  0  0  0  0  0  0  0  0  0  0
   -5.3426   -2.4859    2.0245 H   0  0  0  0  0  0  0  0  0  0  0  0
   -2.9139   -2.2407    2.4683 H   0  0  0  0  0  0  0  0  0  0  0  0
  1  2  1  0
  2  3  1  0
  3  4  1  0
  4  5  1  0
  5  6  1  0
  6  7  1  0
  7  8  1  0
  8  9  1  0
  2 10  2  0
 10 11  1  0
 11 12  2  3
 12 13  1  0
 13 14  1  0
 14 15  2  0
 15 16  1  0
 16 17  2  0
 17 18  1  0
 18 19  2  0
 11 20  1  0
 20 21  1  0
 21 22  2  3
 22 23  1  0
 23 24  2  0
 24 25  1  0
 25 26  2  0
 26 27  1  0
 27 28  2  0
 21  1  1  0
 28 23  1  0
  9  3  1  0
 19 14  1  0
  1 29  1  0
  4 30  1  0
  4 31  1  0
  5 32  1  0
  5 33  1  0
  6 34  1  0
  6 35  1  0
  7 36  1  0
  7 37  1  0
  8 38  1  0
  8 39  1  0
  9 40  1  0
  9 41  1  0
 13 42  1  0
 13 43  1  0
 15 44  1  0
 16 45  1  0
 17 46  1  0
 19 47  1  0
 20 48  1  0
 24 49  1  0
 25 50  1  0
 26 51  1  0
 27 52  1  0
 28 53  1  0
M  END
>  <ScrubInfo>  (9) 
{"isomerGroup": 0, "isomerId": 8, "confId": 0, "nr_conformers:": 1, "nr_isomers:": 9}

$$$$
