_i0
     RDKit          3D

 43 45  0  0  0  0  0  0  0  0999 V2000
   -6.1638   -0.8481    1.5177 C   0  0  0  0  0  0  0  0  0  0  0  0
   -5.0734   -1.7381    1.3172 O   0  0  0  0  0  0  0  0  0  0  0  0
   -4.9060   -2.1257   -0.0449 C   0  0  0  0  0  0  0  0  0  0  0  0
   -4.1686   -1.0686   -0.8610 C   0  0  0  0  0  0  0  0  0  0  0  0
   -2.7921   -0.7550   -0.2721 C   0  0  0  0  0  0  0  0  0  0  0  0
   -2.1129    0.1961   -1.1398 N   0  0  0  0  0  0  0  0  0  0  0  0
   -0.8593    0.5963   -0.6857 C   0  0  0  0  0  0  0  0  0  0  0  0
   -0.0677   -0.2892   -0.0496 N   0  0  0  0  0  0  0  0  0  0  0  0
    1.1656    0.0815    0.3736 C   0  0  0  0  0  0  0  0  0  0  0  0
    1.9240   -0.8962    1.0424 N   0  0  0  0  0  0  0  0  0  0  0  0
    3.3002   -1.1718    0.8658 C   0  0  0  0  0  0  0  0  0  0  0  0
    3.9820   -1.8065    1.9121 C   0  0  0  0  0  0  0  0  0  0  0  0
    5.3248   -2.1502    1.7707 C   0  0  0  0  0  0  0  0  0  0  0  0
    5.9630   -2.7401    2.7895 F   0  0  0  0  0  0  0  0  0  0  0  0
    6.0128   -1.8972    0.5897 C   0  0  0  0  0  0  0  0  0  0  0  0
    5.3417   -1.2993   -0.4737 C   0  0  0  0  0  0  0  0  0  0  0  0
    3.9968   -0.9537   -0.3355 C   0  0  0  0  0  0  0  0  0  0  0  0
    3.3755   -0.4203   -1.3972 F   0  0  0  0  0  0  0  0  0  0  0  0
    1.5538    1.4070    0.1732 C   0  0  0  0  0  0  0  0  0  0  0  0
    2.6481    2.2472    0.4626 C   0  0  0  0  0  0  0  0  0  0  0  0
    2.4768    3.4982    0.0181 N   0  0  0  0  0  0  0  0  0  0  0  0
    1.2566    3.4515   -0.5662 N   0  0  0  0  0  0  0  0  0  0  0  0
    0.7200    4.6393   -1.1806 C   0  0  0  0  0  0  0  0  0  0  0  0
    0.6557    2.2251   -0.4826 C   0  0  0  0  0  0  0  0  0  0  0  0
   -0.5582    1.8775   -0.9368 N   0  0  0  0  0  0  0  0  0  0  0  0
   -6.2438   -0.6427    2.5887 H   0  0  0  0  0  0  0  0  0  0  0  0
   -7.0998   -1.3043    1.1816 H   0  0  0  0  0  0  0  0  0  0  0  0
   -5.9968    0.0991    0.9982 H   0  0  0  0  0  0  0  0  0  0  0  0
   -5.8770   -2.3600   -0.4969 H   0  0  0  0  0  0  0  0  0  0  0  0
   -4.3229   -3.0533   -0.0436 H   0  0  0  0  0  0  0  0  0  0  0  0
   -4.7580   -0.1455   -0.9076 H   0  0  0  0  0  0  0  0  0  0  0  0
   -4.0599   -1.4255   -1.8926 H   0  0  0  0  0  0  0  0  0  0  0  0
   -2.2177   -1.6867   -0.1985 H   0  0  0  0  0  0  0  0  0  0  0  0
   -2.9020   -0.3358    0.7357 H   0  0  0  0  0  0  0  0  0  0  0  0
   -2.6203    1.0570   -1.3152 H   0  0  0  0  0  0  0  0  0  0  0  0
    1.3771   -1.7536    0.9628 H   0  0  0  0  0  0  0  0  0  0  0  0
    3.4787   -2.0236    2.8499 H   0  0  0  0  0  0  0  0  0  0  0  0
    7.0581   -2.1765    0.5032 H   0  0  0  0  0  0  0  0  0  0  0  0
    5.8492   -1.1077   -1.4142 H   0  0  0  0  0  0  0  0  0  0  0  0
    3.5640    1.9987    0.9824 H   0  0  0  0  0  0  0  0  0  0  0  0
   -0.2416    4.4175   -1.6488 H   0  0  0  0  0  0  0  0  0  0  0  0
    0.5896    5.3979   -0.4048 H   0  0  0  0  0  0  0  0  0  0  0  0
    1.4277    4.9852   -1.9383 H   0  0  0  0  0  0  0  0  0  0  0  0
  1  2  1  0
  2  3  1  0
  3  4  1  0
  4  5  1  0
  5  6  1  0
  6  7  1  0
  7  8  2  0
  8  9  1  0
  9 10  1  0
 10 11  1  0
 11 12  2  0
 12 13  1  0
 13 14  1  0
 13 15  2  0
 15 16  1  0
 16 17  2  0
 17 18  1  0
  9 19  2  0
 19 20  1  0
 20 21  2  0
 21 22  1  0
 22 23  1  0
 22 24  1  0
 24 25  2  0
 25  7  1  0
 17 11  1  0
 24 19  1  0
  1 26  1  0
  1 27  1  0
  1 28  1  0
  3 29  1  0
  3 30  1  0
  4 31  1  0
  4 32  1  0
  5 33  1  0
  5 34  1  0
  6 35  1  0
 10 36  1  0
 12 37  1  0
 15 38  1  0
 16 39  1  0
 20 40  1  0
 23 41  1  0
 23 42  1  0
 23 43  1  0
M  END
>  <ScrubInfo>  (1) 
{"isomerGroup": 0, "isomerId": 0, "confId": 0, "nr_conformers:": 1, "nr_isomers:": 9}

$$$$
_i1
     RDKit          3D

 43 45  0  0  0  0  0  0  0  0999 V2000
   -0.7145    0.3985    0.5510 N   0  0  0  0  0  0  0  0  0  0  0  0
   -1.8332   -0.3551    0.8419 C   0  0  0  0  0  0  0  0  0  0  0  0
   -3.1121    0.1540    1.0110 N   0  0  0  0  0  0  0  0  0  0  0  0
   -3.6636    1.4383    0.8105 C   0  0  0  0  0  0  0  0  0  0  0  0
   -4.8877    1.7189    1.4457 C   0  0  0  0  0  0  0  0  0  0  0  0
   -5.4872    2.9734    1.3338 C   0  0  0  0  0  0  0  0  0  0  0  0
   -6.6536    3.1996    1.9515 F   0  0  0  0  0  0  0  0  0  0  0  0
   -4.8955    3.9892    0.5986 C   0  0  0  0  0  0  0  0  0  0  0  0
   -3.6823    3.7416   -0.0336 C   0  0  0  0  0  0  0  0  0  0  0  0
   -3.0796    2.4844    0.0777 C   0  0  0  0  0  0  0  0  0  0  0  0
   -1.9239    2.3094   -0.5772 F   0  0  0  0  0  0  0  0  0  0  0  0
   -1.5795   -1.6628    1.0043 C   0  0  0  0  0  0  0  0  0  0  0  0
   -2.3232   -2.8809    1.3504 C   0  0  0  0  0  0  0  0  0  0  0  0
   -1.5697   -3.9490    1.4095 N   0  0  0  0  0  0  0  0  0  0  0  0
   -0.2831   -3.5155    1.0550 N   0  0  0  0  0  0  0  0  0  0  0  0
    0.8437   -4.3780    1.3179 C   0  0  0  0  0  0  0  0  0  0  0  0
   -0.1898   -2.1493    0.8432 C   0  0  0  0  0  0  0  0  0  0  0  0
    0.8368   -1.4176    0.5758 N   0  0  0  0  0  0  0  0  0  0  0  0
    0.5623   -0.0787    0.4101 C   0  0  0  0  0  0  0  0  0  0  0  0
    1.5037    0.7514    0.1057 N   0  0  0  0  0  0  0  0  0  0  0  0
    2.8726    0.2454   -0.0301 C   0  0  0  0  0  0  0  0  0  0  0  0
    3.1232   -0.1734   -1.4770 C   0  0  0  0  0  0  0  0  0  0  0  0
    4.5170   -0.7642   -1.6708 C   0  0  0  0  0  0  0  0  0  0  0  0
    5.5661    0.1093   -1.2559 O   0  0  0  0  0  0  0  0  0  0  0  0
    5.7794    1.1960   -2.1465 C   0  0  0  0  0  0  0  0  0  0  0  0
   -0.8408    1.3792    0.3461 H   0  0  0  0  0  0  0  0  0  0  0  0
   -3.7956   -0.5227    1.3340 H   0  0  0  0  0  0  0  0  0  0  0  0
   -5.3926    0.9688    2.0477 H   0  0  0  0  0  0  0  0  0  0  0  0
   -5.3781    4.9584    0.5243 H   0  0  0  0  0  0  0  0  0  0  0  0
   -3.1949    4.5160   -0.6190 H   0  0  0  0  0  0  0  0  0  0  0  0
   -3.4010   -2.8512    1.5532 H   0  0  0  0  0  0  0  0  0  0  0  0
    1.1798   -4.2606    2.3527 H   0  0  0  0  0  0  0  0  0  0  0  0
    0.5745   -5.4271    1.1579 H   0  0  0  0  0  0  0  0  0  0  0  0
    1.6793   -4.1429    0.6509 H   0  0  0  0  0  0  0  0  0  0  0  0
    3.5528    1.0606    0.2426 H   0  0  0  0  0  0  0  0  0  0  0  0
    3.0939   -0.5712    0.6674 H   0  0  0  0  0  0  0  0  0  0  0  0
    2.3802   -0.9164   -1.7904 H   0  0  0  0  0  0  0  0  0  0  0  0
    2.9838    0.6965   -2.1290 H   0  0  0  0  0  0  0  0  0  0  0  0
    4.6076   -1.6754   -1.0690 H   0  0  0  0  0  0  0  0  0  0  0  0
    4.6693   -1.0586   -2.7159 H   0  0  0  0  0  0  0  0  0  0  0  0
    6.6603    1.7472   -1.8059 H   0  0  0  0  0  0  0  0  0  0  0  0
    4.9268    1.8801   -2.1396 H   0  0  0  0  0  0  0  0  0  0  0  0
    5.9682    0.8345   -3.1618 H   0  0  0  0  0  0  0  0  0  0  0  0
  1  2  1  0
  2  3  1  0
  3  4  1  0
  4  5  2  0
  5  6  1  0
  6  7  1  0
  6  8  2  0
  8  9  1  0
  9 10  2  0
 10 11  1  0
  2 12  2  0
 12 13  1  0
 13 14  2  0
 14 15  1  0
 15 16  1  0
 15 17  1  0
 17 18  2  0
 18 19  1  0
 19 20  2  3
 20 21  1  0
 21 22  1  0
 22 23  1  0
 23 24  1  0
 24 25  1  0
 19  1  1  0
 10  4  1  0
 17 12  1  0
  1 26  1  0
  3 27  1  0
  5 28  1  0
  8 29  1  0
  9 30  1  0
 13 31  1  0
 16 32  1  0
 16 33  1  0
 16 34  1  0
 21 35  1  0
 21 36  1  0
 22 37  1  0
 22 38  1  0
 23 39  1  0
 23 40  1  0
 25 41  1  0
 25 42  1  0
 25 43  1  0
M  END
>  <ScrubInfo>  (2) 
{"isomerGroup": 0, "isomerId": 1, "confId": 0, "nr_conformers:": 1, "nr_isomers:": 9}

$$$$
_i2
     RDKit          3D

 43 45  0  0  0  0  0  0  0  0999 V2000
    0.0425   -0.3950    0.6131 N   0  0  0  0  0  0  0  0  0  0  0  0
   -0.8863   -0.4278   -0.3948 C   0  0  0  0  0  0  0  0  0  0  0  0
   -2.1672   -0.7239   -0.0189 N   0  0  0  0  0  0  0  0  0  0  0  0
   -2.8694    0.0714    0.9844 C   0  0  0  0  0  0  0  0  0  0  0  0
   -4.0871   -0.6843    1.5169 C   0  0  0  0  0  0  0  0  0  0  0  0
   -5.1799   -0.9078    0.4740 C   0  0  0  0  0  0  0  0  0  0  0  0
   -5.5680    0.3059   -0.1651 O   0  0  0  0  0  0  0  0  0  0  0  0
   -6.5078    1.0609    0.5890 C   0  0  0  0  0  0  0  0  0  0  0  0
   -0.6062   -0.2263   -1.6567 N   0  0  0  0  0  0  0  0  0  0  0  0
    0.7168    0.0508   -1.8357 C   0  0  0  0  0  0  0  0  0  0  0  0
    1.7245    0.1132   -0.8835 C   0  0  0  0  0  0  0  0  0  0  0  0
    2.8796    0.4198   -1.6239 C   0  0  0  0  0  0  0  0  0  0  0  0
    2.6390    0.5511   -2.9344 N   0  0  0  0  0  0  0  0  0  0  0  0
    1.3095    0.3244   -3.0362 N   0  0  0  0  0  0  0  0  0  0  0  0
    0.6803    0.3800   -4.3316 C   0  0  0  0  0  0  0  0  0  0  0  0
    1.3903   -0.1460    0.5044 C   0  0  0  0  0  0  0  0  0  0  0  0
    2.1724   -0.1792    1.5403 N   0  0  0  0  0  0  0  0  0  0  0  0
    3.5395    0.1072    1.4531 C   0  0  0  0  0  0  0  0  0  0  0  0
    4.4611   -0.9378    1.3613 C   0  0  0  0  0  0  0  0  0  0  0  0
    5.8237   -0.6558    1.3216 C   0  0  0  0  0  0  0  0  0  0  0  0
    6.7009   -1.6631    1.2251 F   0  0  0  0  0  0  0  0  0  0  0  0
    6.2935    0.6534    1.3836 C   0  0  0  0  0  0  0  0  0  0  0  0
    5.3838    1.7029    1.4963 C   0  0  0  0  0  0  0  0  0  0  0  0
    4.0187    1.4240    1.5388 C   0  0  0  0  0  0  0  0  0  0  0  0
    3.1566    2.4460    1.6503 F   0  0  0  0  0  0  0  0  0  0  0  0
   -0.2564   -0.6913    1.5269 H   0  0  0  0  0  0  0  0  0  0  0  0
   -2.7278   -0.7624   -0.8713 H   0  0  0  0  0  0  0  0  0  0  0  0
   -3.1592    1.0364    0.5539 H   0  0  0  0  0  0  0  0  0  0  0  0
   -2.2096    0.2848    1.8327 H   0  0  0  0  0  0  0  0  0  0  0  0
   -3.7776   -1.6551    1.9224 H   0  0  0  0  0  0  0  0  0  0  0  0
   -4.5006   -0.1074    2.3523 H   0  0  0  0  0  0  0  0  0  0  0  0
   -4.8105   -1.5781   -0.3093 H   0  0  0  0  0  0  0  0  0  0  0  0
   -6.0503   -1.4008    0.9232 H   0  0  0  0  0  0  0  0  0  0  0  0
   -6.0778    1.3800    1.5422 H   0  0  0  0  0  0  0  0  0  0  0  0
   -7.4185    0.4792    0.7605 H   0  0  0  0  0  0  0  0  0  0  0  0
   -6.7695    1.9529    0.0134 H   0  0  0  0  0  0  0  0  0  0  0  0
    3.8973    0.5543   -1.2879 H   0  0  0  0  0  0  0  0  0  0  0  0
    1.0755   -0.4380   -4.9390 H   0  0  0  0  0  0  0  0  0  0  0  0
    0.9168    1.3440   -4.7894 H   0  0  0  0  0  0  0  0  0  0  0  0
   -0.4023    0.2787   -4.2294 H   0  0  0  0  0  0  0  0  0  0  0  0
    4.1242   -1.9684    1.3230 H   0  0  0  0  0  0  0  0  0  0  0  0
    7.3619    0.8439    1.3503 H   0  0  0  0  0  0  0  0  0  0  0  0
    5.7238    2.7320    1.5543 H   0  0  0  0  0  0  0  0  0  0  0  0
  1  2  1  0
  2  3  1  0
  3  4  1  0
  4  5  1  0
  5  6  1  0
  6  7  1  0
  7  8  1  0
  2  9  2  0
  9 10  1  0
 10 11  2  0
 11 12  1  0
 12 13  2  0
 13 14  1  0
 14 15  1  0
 11 16  1  0
 16 17  2  3
 17 18  1  0
 18 19  2  0
 19 20  1  0
 20 21  1  0
 20 22  2  0
 22 23  1  0
 23 24  2  0
 24 25  1  0
 16  1  1  0
 24 18  1  0
 14 10  1  0
  1 26  1  0
  3 27  1  0
  4 28  1  0
  4 29  1  0
  5 30  1  0
  5 31  1  0
  6 32  1  0
  6 33  1  0
  8 34  1  0
  8 35  1  0
  8 36  1  0
 12 37  1  0
 15 38  1  0
 15 39  1  0
 15 40  1  0
 19 41  1  0
 22 42  1  0
 23 43  1  0
M  END
>  <ScrubInfo>  (3) 
{"isomerGroup": 0, "isomerId": 2, "confId": 0, "nr_conformers:": 1, "nr_isomers:": 9}

$$$$
_i3
     RDKit          3D

 43 45  0  0  0  0  0  0  0  0999 V2000
    0.6620   -1.2650   -0.0383 N   0  0  0  0  0  0  0  0  0  0  0  0
    0.7765   -0.3930    1.0338 C   0  0  0  0  0  0  0  0  0  0  0  0
    1.8672    0.0532    1.5451 N   0  0  0  0  0  0  0  0  0  0  0  0
    3.1710   -0.3465    1.0312 C   0  0  0  0  0  0  0  0  0  0  0  0
    3.6246    0.6522   -0.0310 C   0  0  0  0  0  0  0  0  0  0  0  0
    4.9387    0.2433   -0.6914 C   0  0  0  0  0  0  0  0  0  0  0  0
    5.9764   -0.0388    0.2434 O   0  0  0  0  0  0  0  0  0  0  0  0
    6.5256    1.1285    0.8419 C   0  0  0  0  0  0  0  0  0  0  0  0
   -0.3501    0.1026    1.6767 N   0  0  0  0  0  0  0  0  0  0  0  0
   -1.5356   -0.2352    1.2563 C   0  0  0  0  0  0  0  0  0  0  0  0
   -2.6860    0.2074    1.8616 N   0  0  0  0  0  0  0  0  0  0  0  0
   -3.6940    0.9512    1.1869 C   0  0  0  0  0  0  0  0  0  0  0  0
   -4.9602    1.0276    1.7832 C   0  0  0  0  0  0  0  0  0  0  0  0
   -5.9718    1.7786    1.1885 C   0  0  0  0  0  0  0  0  0  0  0  0
   -7.1793    1.8266    1.7652 F   0  0  0  0  0  0  0  0  0  0  0  0
   -5.7497    2.4820    0.0103 C   0  0  0  0  0  0  0  0  0  0  0  0
   -4.4891    2.4414   -0.5799 C   0  0  0  0  0  0  0  0  0  0  0  0
   -3.4727    1.6906    0.0117 C   0  0  0  0  0  0  0  0  0  0  0  0
   -2.2636    1.7077   -0.5671 F   0  0  0  0  0  0  0  0  0  0  0  0
   -1.6964   -1.1689    0.1676 C   0  0  0  0  0  0  0  0  0  0  0  0
   -2.7436   -1.8143   -0.5059 C   0  0  0  0  0  0  0  0  0  0  0  0
   -2.3004   -2.6221   -1.4826 N   0  0  0  0  0  0  0  0  0  0  0  0
   -0.9517   -2.4931   -1.4224 N   0  0  0  0  0  0  0  0  0  0  0  0
   -0.1354   -3.2428   -2.3427 C   0  0  0  0  0  0  0  0  0  0  0  0
   -0.5654   -1.6399   -0.4383 C   0  0  0  0  0  0  0  0  0  0  0  0
    1.5127   -1.5886   -0.4700 H   0  0  0  0  0  0  0  0  0  0  0  0
    3.1792   -1.3725    0.6479 H   0  0  0  0  0  0  0  0  0  0  0  0
    3.8758   -0.3399    1.8707 H   0  0  0  0  0  0  0  0  0  0  0  0
    3.7285    1.6399    0.4336 H   0  0  0  0  0  0  0  0  0  0  0  0
    2.8576    0.7560   -0.8078 H   0  0  0  0  0  0  0  0  0  0  0  0
    4.7759   -0.6754   -1.2662 H   0  0  0  0  0  0  0  0  0  0  0  0
    5.2700    1.0079   -1.4038 H   0  0  0  0  0  0  0  0  0  0  0  0
    5.7863    1.6291    1.4728 H   0  0  0  0  0  0  0  0  0  0  0  0
    7.3643    0.8244    1.4742 H   0  0  0  0  0  0  0  0  0  0  0  0
    6.8992    1.8159    0.0770 H   0  0  0  0  0  0  0  0  0  0  0  0
   -2.4093    0.7455    2.6826 H   0  0  0  0  0  0  0  0  0  0  0  0
   -5.1752    0.4933    2.7043 H   0  0  0  0  0  0  0  0  0  0  0  0
   -6.5541    3.0613   -0.4325 H   0  0  0  0  0  0  0  0  0  0  0  0
   -4.2843    2.9944   -1.4916 H   0  0  0  0  0  0  0  0  0  0  0  0
   -3.8093   -1.7396   -0.3349 H   0  0  0  0  0  0  0  0  0  0  0  0
    0.9142   -2.9681   -2.2190 H   0  0  0  0  0  0  0  0  0  0  0  0
   -0.2694   -4.3067   -2.1321 H   0  0  0  0  0  0  0  0  0  0  0  0
   -0.4589   -3.0104   -3.3605 H   0  0  0  0  0  0  0  0  0  0  0  0
  1  2  1  0
  2  3  2  3
  3  4  1  0
  4  5  1  0
  5  6  1  0
  6  7  1  0
  7  8  1  0
  2  9  1  0
  9 10  2  0
 10 11  1  0
 11 12  1  0
 12 13  2  0
 13 14  1  0
 14 15  1  0
 14 16  2  0
 16 17  1  0
 17 18  2  0
 18 19  1  0
 10 20  1  0
 20 21  1  0
 21 22  2  0
 22 23  1  0
 23 24  1  0
 23 25  1  0
 25  1  1  0
 18 12  1  0
 25 20  2  0
  1 26  1  0
  4 27  1  0
  4 28  1  0
  5 29  1  0
  5 30  1  0
  6 31  1  0
  6 32  1  0
  8 33  1  0
  8 34  1  0
  8 35  1  0
 11 36  1  0
 13 37  1  0
 16 38  1  0
 17 39  1  0
 21 40  1  0
 24 41  1  0
 24 42  1  0
 24 43  1  0
M  END
>  <ScrubInfo>  (4) 
{"isomerGroup": 0, "isomerId": 3, "confId": 0, "nr_conformers:": 1, "nr_isomers:": 9}

$$$$
_i4
     RDKit          3D

 43 45  0  0  0  0  0  0  0  0999 V2000
   -2.7644   -4.2343   -1.3727 N   0  0  0  0  0  0  0  0  0  0  0  0
   -3.0918   -3.1069   -0.6264 C   0  0  0  0  0  0  0  0  0  0  0  0
   -2.1163   -2.1897   -0.6181 C   0  0  0  0  0  0  0  0  0  0  0  0
   -1.8924   -0.8765   -0.0624 C   0  0  0  0  0  0  0  0  0  0  0  0
   -2.7330   -0.2991    0.7388 N   0  0  0  0  0  0  0  0  0  0  0  0
   -2.4069    0.9896    1.2000 C   0  0  0  0  0  0  0  0  0  0  0  0
   -1.7909    1.1431    2.4443 C   0  0  0  0  0  0  0  0  0  0  0  0
   -1.4581    2.4154    2.8989 C   0  0  0  0  0  0  0  0  0  0  0  0
   -0.8509    2.5520    4.0851 F   0  0  0  0  0  0  0  0  0  0  0  0
   -1.7398    3.5502    2.1432 C   0  0  0  0  0  0  0  0  0  0  0  0
   -2.3704    3.4105    0.9086 C   0  0  0  0  0  0  0  0  0  0  0  0
   -2.7020    2.1368    0.4476 C   0  0  0  0  0  0  0  0  0  0  0  0
   -3.3112    2.0244   -0.7430 F   0  0  0  0  0  0  0  0  0  0  0  0
   -0.7085   -0.3017   -0.4368 N   0  0  0  0  0  0  0  0  0  0  0  0
    0.1687   -0.9141   -1.1746 C   0  0  0  0  0  0  0  0  0  0  0  0
    1.3334   -0.2918   -1.5149 N   0  0  0  0  0  0  0  0  0  0  0  0
    1.8053    0.9357   -0.9072 C   0  0  0  0  0  0  0  0  0  0  0  0
    2.3403    0.6747    0.5001 C   0  0  0  0  0  0  0  0  0  0  0  0
    2.7514    1.9710    1.1912 C   0  0  0  0  0  0  0  0  0  0  0  0
    3.7489    2.6778    0.4557 O   0  0  0  0  0  0  0  0  0  0  0  0
    5.0638    2.1880    0.6851 C   0  0  0  0  0  0  0  0  0  0  0  0
    0.0472   -2.1910   -1.6603 N   0  0  0  0  0  0  0  0  0  0  0  0
   -1.0457   -2.8212   -1.3999 C   0  0  0  0  0  0  0  0  0  0  0  0
   -1.4322   -4.1128   -1.7656 N   0  0  0  0  0  0  0  0  0  0  0  0
   -1.0242   -4.6751   -3.0391 C   0  0  0  0  0  0  0  0  0  0  0  0
   -3.0208   -5.1114   -0.9137 H   0  0  0  0  0  0  0  0  0  0  0  0
   -4.0494   -3.0510   -0.1281 H   0  0  0  0  0  0  0  0  0  0  0  0
   -1.5604    0.2752    3.0520 H   0  0  0  0  0  0  0  0  0  0  0  0
   -1.4692    4.5308    2.5217 H   0  0  0  0  0  0  0  0  0  0  0  0
   -2.6057    4.2777    0.3002 H   0  0  0  0  0  0  0  0  0  0  0  0
    2.0324   -0.9147   -1.8968 H   0  0  0  0  0  0  0  0  0  0  0  0
    2.5991    1.3476   -1.5402 H   0  0  0  0  0  0  0  0  0  0  0  0
    1.0018    1.6814   -0.8856 H   0  0  0  0  0  0  0  0  0  0  0  0
    1.5805    0.1774    1.1141 H   0  0  0  0  0  0  0  0  0  0  0  0
    3.1918   -0.0124    0.4365 H   0  0  0  0  0  0  0  0  0  0  0  0
    3.0958    1.7762    2.2136 H   0  0  0  0  0  0  0  0  0  0  0  0
    1.8811    2.6323    1.2682 H   0  0  0  0  0  0  0  0  0  0  0  0
    5.7621    2.8046    0.1126 H   0  0  0  0  0  0  0  0  0  0  0  0
    5.3230    2.2648    1.7454 H   0  0  0  0  0  0  0  0  0  0  0  0
    5.1612    1.1533    0.3461 H   0  0  0  0  0  0  0  0  0  0  0  0
   -1.3464   -5.7187   -3.1147 H   0  0  0  0  0  0  0  0  0  0  0  0
    0.0658   -4.6540   -3.1378 H   0  0  0  0  0  0  0  0  0  0  0  0
   -1.4627   -4.1142   -3.8711 H   0  0  0  0  0  0  0  0  0  0  0  0
  1  2  1  0
  2  3  2  0
  3  4  1  0
  4  5  2  3
  5  6  1  0
  6  7  2  0
  7  8  1  0
  8  9  1  0
  8 10  2  0
 10 11  1  0
 11 12  2  0
 12 13  1  0
  4 14  1  0
 14 15  2  0
 15 16  1  0
 16 17  1  0
 17 18  1  0
 18 19  1  0
 19 20  1  0
 20 21  1  0
 15 22  1  0
 22 23  2  0
 23 24  1  0
 24 25  1  0
 24  1  1  0
 23  3  1  0
 12  6  1  0
  1 26  1  0
  2 27  1  0
  7 28  1  0
 10 29  1  0
 11 30  1  0
 16 31  1  0
 17 32  1  0
 17 33  1  0
 18 34  1  0
 18 35  1  0
 19 36  1  0
 19 37  1  0
 21 38  1  0
 21 39  1  0
 21 40  1  0
 25 41  1  0
 25 42  1  0
 25 43  1  0
M  END
>  <ScrubInfo>  (5) 
{"isomerGroup": 0, "isomerId": 4, "confId": 0, "nr_conformers:": 1, "nr_isomers:": 9}

$$$$
_i5
     RDKit          3D

 43 45  0  0  0  0  0  0  0  0999 V2000
    0.5432    0.8421   -0.0502 N   0  0  0  0  0  0  0  0  0  0  0  0
    0.7124   -0.4947   -0.3044 C   0  0  0  0  0  0  0  0  0  0  0  0
    2.0036   -0.9060   -0.4731 N   0  0  0  0  0  0  0  0  0  0  0  0
    3.0587   -0.5578    0.4720 C   0  0  0  0  0  0  0  0  0  0  0  0
    4.3711   -1.2078    0.0364 C   0  0  0  0  0  0  0  0  0  0  0  0
    5.5039   -0.8911    1.0080 C   0  0  0  0  0  0  0  0  0  0  0  0
    5.7064    0.5139    1.1484 O   0  0  0  0  0  0  0  0  0  0  0  0
    6.5174    1.0652    0.1177 C   0  0  0  0  0  0  0  0  0  0  0  0
   -0.2459   -1.3715   -0.4039 N   0  0  0  0  0  0  0  0  0  0  0  0
   -1.5690   -0.9739   -0.2512 C   0  0  0  0  0  0  0  0  0  0  0  0
   -2.4539   -1.9132   -0.3601 N   0  0  0  0  0  0  0  0  0  0  0  0
   -3.8282   -1.6754   -0.2763 C   0  0  0  0  0  0  0  0  0  0  0  0
   -4.5032   -1.9542    0.9140 C   0  0  0  0  0  0  0  0  0  0  0  0
   -5.8804   -1.7669    0.9889 C   0  0  0  0  0  0  0  0  0  0  0  0
   -6.5184   -2.0268    2.1374 F   0  0  0  0  0  0  0  0  0  0  0  0
   -6.6093   -1.3162   -0.1084 C   0  0  0  0  0  0  0  0  0  0  0  0
   -5.9499   -1.0550   -1.3078 C   0  0  0  0  0  0  0  0  0  0  0  0
   -4.5707   -1.2434   -1.3867 C   0  0  0  0  0  0  0  0  0  0  0  0
   -3.9530   -0.9813   -2.5483 F   0  0  0  0  0  0  0  0  0  0  0  0
   -1.7981    0.4362    0.0221 C   0  0  0  0  0  0  0  0  0  0  0  0
   -2.8894    1.2910    0.2604 C   0  0  0  0  0  0  0  0  0  0  0  0
   -2.5225    2.5681    0.4527 N   0  0  0  0  0  0  0  0  0  0  0  0
   -1.1754    2.5348    0.3398 N   0  0  0  0  0  0  0  0  0  0  0  0
   -0.4291    3.7567    0.4990 C   0  0  0  0  0  0  0  0  0  0  0  0
   -0.7177    1.2794    0.0998 C   0  0  0  0  0  0  0  0  0  0  0  0
    1.3422    1.4458   -0.1843 H   0  0  0  0  0  0  0  0  0  0  0  0
    1.9821   -1.9088   -0.6548 H   0  0  0  0  0  0  0  0  0  0  0  0
    2.7809   -0.9071    1.4732 H   0  0  0  0  0  0  0  0  0  0  0  0
    3.1801    0.5296    0.5143 H   0  0  0  0  0  0  0  0  0  0  0  0
    4.2478   -2.2957   -0.0282 H   0  0  0  0  0  0  0  0  0  0  0  0
    4.6266   -0.8581   -0.9707 H   0  0  0  0  0  0  0  0  0  0  0  0
    5.2477   -1.2781    2.0005 H   0  0  0  0  0  0  0  0  0  0  0  0
    6.4330   -1.3856    0.7011 H   0  0  0  0  0  0  0  0  0  0  0  0
    7.5056    0.5954    0.1144 H   0  0  0  0  0  0  0  0  0  0  0  0
    6.0406    0.9502   -0.8593 H   0  0  0  0  0  0  0  0  0  0  0  0
    6.6422    2.1331    0.3166 H   0  0  0  0  0  0  0  0  0  0  0  0
   -3.9616   -2.3227    1.7792 H   0  0  0  0  0  0  0  0  0  0  0  0
   -7.6829   -1.1801   -0.0223 H   0  0  0  0  0  0  0  0  0  0  0  0
   -6.4951   -0.7108   -2.1809 H   0  0  0  0  0  0  0  0  0  0  0  0
   -3.9445    1.0627    0.3074 H   0  0  0  0  0  0  0  0  0  0  0  0
    0.6420    3.5478    0.4641 H   0  0  0  0  0  0  0  0  0  0  0  0
   -0.6868    4.1963    1.4660 H   0  0  0  0  0  0  0  0  0  0  0  0
   -0.7028    4.4339   -0.3139 H   0  0  0  0  0  0  0  0  0  0  0  0
  1  2  1  0
  2  3  1  0
  3  4  1  0
  4  5  1  0
  5  6  1  0
  6  7  1  0
  7  8  1  0
  2  9  2  0
  9 10  1  0
 10 11  2  3
 11 12  1  0
 12 13  2  0
 13 14  1  0
 14 15  1  0
 14 16  2  0
 16 17  1  0
 17 18  2  0
 18 19  1  0
 10 20  1  0
 20 21  1  0
 21 22  2  0
 22 23  1  0
 23 24  1  0
 23 25  1  0
 25  1  1  0
 18 12  1  0
 25 20  2  0
  1 26  1  0
  3 27  1  0
  4 28  1  0
  4 29  1  0
  5 30  1  0
  5 31  1  0
  6 32  1  0
  6 33  1  0
  8 34  1  0
  8 35  1  0
  8 36  1  0
 13 37  1  0
 16 38  1  0
 17 39  1  0
 21 40  1  0
 24 41  1  0
 24 42  1  0
 24 43  1  0
M  END
>  <ScrubInfo>  (6) 
{"isomerGroup": 0, "isomerId": 5, "confId": 0, "nr_conformers:": 1, "nr_isomers:": 9}

$$$$
_i6
     RDKit          3D

 43 45  0  0  0  0  0  0  0  0999 V2000
   -1.8214   -4.6182   -1.0395 N   0  0  0  0  0  0  0  0  0  0  0  0
   -2.2138   -3.5085   -0.2982 C   0  0  0  0  0  0  0  0  0  0  0  0
   -1.3430   -2.4931   -0.3791 C   0  0  0  0  0  0  0  0  0  0  0  0
   -1.2017   -1.1251    0.1181 C   0  0  0  0  0  0  0  0  0  0  0  0
   -2.1466   -0.5834    0.9773 N   0  0  0  0  0  0  0  0  0  0  0  0
   -2.4149    0.8067    1.0169 C   0  0  0  0  0  0  0  0  0  0  0  0
   -2.6577    1.4116    2.2549 C   0  0  0  0  0  0  0  0  0  0  0  0
   -2.9829    2.7649    2.3179 C   0  0  0  0  0  0  0  0  0  0  0  0
   -3.1955    3.3338    3.5114 F   0  0  0  0  0  0  0  0  0  0  0  0
   -3.1024    3.5338    1.1648 C   0  0  0  0  0  0  0  0  0  0  0  0
   -2.9072    2.9352   -0.0775 C   0  0  0  0  0  0  0  0  0  0  0  0
   -2.5809    1.5810   -0.1445 C   0  0  0  0  0  0  0  0  0  0  0  0
   -2.4746    1.0128   -1.3554 F   0  0  0  0  0  0  0  0  0  0  0  0
   -0.1467   -0.4545   -0.2533 N   0  0  0  0  0  0  0  0  0  0  0  0
    0.7632   -1.0320   -1.1115 C   0  0  0  0  0  0  0  0  0  0  0  0
    1.7546   -0.3377   -1.5468 N   0  0  0  0  0  0  0  0  0  0  0  0
    1.8721    1.0614   -1.1417 C   0  0  0  0  0  0  0  0  0  0  0  0
    2.6666    1.1665    0.1563 C   0  0  0  0  0  0  0  0  0  0  0  0
    2.8622    2.6239    0.5618 C   0  0  0  0  0  0  0  0  0  0  0  0
    3.4940    2.7490    1.8370 O   0  0  0  0  0  0  0  0  0  0  0  0
    4.8878    2.4743    1.8037 C   0  0  0  0  0  0  0  0  0  0  0  0
    0.7486   -2.3268   -1.5733 N   0  0  0  0  0  0  0  0  0  0  0  0
   -0.2575   -3.0450   -1.2180 C   0  0  0  0  0  0  0  0  0  0  0  0
   -0.5384   -4.3776   -1.5205 N   0  0  0  0  0  0  0  0  0  0  0  0
   -0.1340   -4.9524   -2.7897 C   0  0  0  0  0  0  0  0  0  0  0  0
   -1.9548   -5.5080   -0.5529 H   0  0  0  0  0  0  0  0  0  0  0  0
   -3.1402   -3.5562    0.2544 H   0  0  0  0  0  0  0  0  0  0  0  0
   -3.0067   -1.1126    1.0681 H   0  0  0  0  0  0  0  0  0  0  0  0
   -2.5693    0.8470    3.1780 H   0  0  0  0  0  0  0  0  0  0  0  0
   -3.3571    4.5861    1.2425 H   0  0  0  0  0  0  0  0  0  0  0  0
   -3.0170    3.5060   -0.9942 H   0  0  0  0  0  0  0  0  0  0  0  0
    2.4088    1.5909   -1.9381 H   0  0  0  0  0  0  0  0  0  0  0  0
    0.9004    1.5635   -1.0593 H   0  0  0  0  0  0  0  0  0  0  0  0
    2.1633    0.6268    0.9676 H   0  0  0  0  0  0  0  0  0  0  0  0
    3.6369    0.6721    0.0317 H   0  0  0  0  0  0  0  0  0  0  0  0
    1.8841    3.1094    0.6517 H   0  0  0  0  0  0  0  0  0  0  0  0
    3.4297    3.1790   -0.1946 H   0  0  0  0  0  0  0  0  0  0  0  0
    5.3024    2.6994    2.7903 H   0  0  0  0  0  0  0  0  0  0  0  0
    5.3908    3.1057    1.0651 H   0  0  0  0  0  0  0  0  0  0  0  0
    5.0738    1.4186    1.5904 H   0  0  0  0  0  0  0  0  0  0  0  0
   -0.3555   -6.0244   -2.8094 H   0  0  0  0  0  0  0  0  0  0  0  0
    0.9432   -4.8310   -2.9423 H   0  0  0  0  0  0  0  0  0  0  0  0
   -0.6626   -4.4725   -3.6199 H   0  0  0  0  0  0  0  0  0  0  0  0
  1  2  1  0
  2  3  2  0
  3  4  1  0
  4  5  1  0
  5  6  1  0
  6  7  2  0
  7  8  1  0
  8  9  1  0
  8 10  2  0
 10 11  1  0
 11 12  2  0
 12 13  1  0
  4 14  2  0
 14 15  1  0
 15 16  2  3
 16 17  1  0
 17 18  1  0
 18 19  1  0
 19 20  1  0
 20 21  1  0
 15 22  1  0
 22 23  2  0
 23 24  1  0
 24 25  1  0
 24  1  1  0
 23  3  1  0
 12  6  1  0
  1 26  1  0
  2 27  1  0
  5 28  1  0
  7 29  1  0
 10 30  1  0
 11 31  1  0
 17 32  1  0
 17 33  1  0
 18 34  1  0
 18 35  1  0
 19 36  1  0
 19 37  1  0
 21 38  1  0
 21 39  1  0
 21 40  1  0
 25 41  1  0
 25 42  1  0
 25 43  1  0
M  END
>  <ScrubInfo>  (7) 
{"isomerGroup": 0, "isomerId": 6, "confId": 0, "nr_conformers:": 1, "nr_isomers:": 9}

$$$$
_i7
     RDKit          3D

 43 45  0  0  0  0  0  0  0  0999 V2000
   -2.7322   -4.1842   -1.4465 N   0  0  0  0  0  0  0  0  0  0  0  0
   -3.0911   -2.9823   -0.8459 C   0  0  0  0  0  0  0  0  0  0  0  0
   -2.0845   -2.1014   -0.8019 C   0  0  0  0  0  0  0  0  0  0  0  0
   -1.8391   -0.7540   -0.2860 C   0  0  0  0  0  0  0  0  0  0  0  0
   -2.8088   -0.1145    0.2985 N   0  0  0  0  0  0  0  0  0  0  0  0
   -2.5957    1.1831    0.7929 C   0  0  0  0  0  0  0  0  0  0  0  0
   -2.6113    1.3904    2.1729 C   0  0  0  0  0  0  0  0  0  0  0  0
   -2.4227    2.6715    2.6842 C   0  0  0  0  0  0  0  0  0  0  0  0
   -2.4285    2.8573    4.0103 F   0  0  0  0  0  0  0  0  0  0  0  0
   -2.2249    3.7634    1.8438 C   0  0  0  0  0  0  0  0  0  0  0  0
   -2.2216    3.5727    0.4638 C   0  0  0  0  0  0  0  0  0  0  0  0
   -2.4131    2.2914   -0.0503 C   0  0  0  0  0  0  0  0  0  0  0  0
   -2.3871    2.1236   -1.3807 F   0  0  0  0  0  0  0  0  0  0  0  0
   -0.5431   -0.3442   -0.4882 N   0  0  0  0  0  0  0  0  0  0  0  0
    0.4605   -1.0633   -1.0973 C   0  0  0  0  0  0  0  0  0  0  0  0
    1.6792   -0.6869   -1.2537 N   0  0  0  0  0  0  0  0  0  0  0  0
    2.1393    0.6218   -0.8024 C   0  0  0  0  0  0  0  0  0  0  0  0
    2.6259    0.5248    0.6419 C   0  0  0  0  0  0  0  0  0  0  0  0
    2.9946    1.8874    1.2234 C   0  0  0  0  0  0  0  0  0  0  0  0
    3.8992    2.6225    0.4043 O   0  0  0  0  0  0  0  0  0  0  0  0
    5.2336    2.1343    0.4632 C   0  0  0  0  0  0  0  0  0  0  0  0
    0.2226   -2.3227   -1.6125 N   0  0  0  0  0  0  0  0  0  0  0  0
   -0.9709   -2.8121   -1.4988 C   0  0  0  0  0  0  0  0  0  0  0  0
   -1.4456   -4.0419   -1.9621 N   0  0  0  0  0  0  0  0  0  0  0  0
   -0.5756   -5.1999   -2.0294 C   0  0  0  0  0  0  0  0  0  0  0  0
   -3.4380   -4.5354   -2.0979 H   0  0  0  0  0  0  0  0  0  0  0  0
   -4.0980   -2.8474   -0.4768 H   0  0  0  0  0  0  0  0  0  0  0  0
   -2.7743    0.5594    2.8517 H   0  0  0  0  0  0  0  0  0  0  0  0
   -2.0815    4.7519    2.2698 H   0  0  0  0  0  0  0  0  0  0  0  0
   -2.0753    4.4084   -0.2138 H   0  0  0  0  0  0  0  0  0  0  0  0
   -0.2970    0.5678   -0.1501 H   0  0  0  0  0  0  0  0  0  0  0  0
    2.9683    0.9253   -1.4520 H   0  0  0  0  0  0  0  0  0  0  0  0
    1.3744    1.3975   -0.9195 H   0  0  0  0  0  0  0  0  0  0  0  0
    1.8556    0.0697    1.2759 H   0  0  0  0  0  0  0  0  0  0  0  0
    3.4914   -0.1473    0.6783 H   0  0  0  0  0  0  0  0  0  0  0  0
    3.4016    1.7811    2.2358 H   0  0  0  0  0  0  0  0  0  0  0  0
    2.0855    2.4934    1.3097 H   0  0  0  0  0  0  0  0  0  0  0  0
    5.3022    1.1312    0.0341 H   0  0  0  0  0  0  0  0  0  0  0  0
    5.8668    2.8024   -0.1269 H   0  0  0  0  0  0  0  0  0  0  0  0
    5.5988    2.1314    1.4946 H   0  0  0  0  0  0  0  0  0  0  0  0
   -0.2599   -5.5077   -1.0271 H   0  0  0  0  0  0  0  0  0  0  0  0
    0.3155   -4.9794   -2.6258 H   0  0  0  0  0  0  0  0  0  0  0  0
   -1.0949   -6.0392   -2.5034 H   0  0  0  0  0  0  0  0  0  0  0  0
  1  2  1  0
  2  3  2  0
  3  4  1  0
  4  5  2  3
  5  6  1  0
  6  7  2  0
  7  8  1  0
  8  9  1  0
  8 10  2  0
 10 11  1  0
 11 12  2  0
 12 13  1  0
  4 14  1  0
 14 15  1  0
 15 16  2  3
 16 17  1  0
 17 18  1  0
 18 19  1  0
 19 20  1  0
 20 21  1  0
 15 22  1  0
 22 23  2  0
 23 24  1  0
 24 25  1  0
 24  1  1  0
 23  3  1  0
 12  6  1  0
  1 26  1  0
  2 27  1  0
  7 28  1  0
 10 29  1  0
 11 30  1  0
 14 31  1  0
 17 32  1  0
 17 33  1  0
 18 34  1  0
 18 35  1  0
 19 36  1  0
 19 37  1  0
 21 38  1  0
 21 39  1  0
 21 40  1  0
 25 41  1  0
 25 42  1  0
 25 43  1  0
M  END
>  <ScrubInfo>  (8) 
{"isomerGroup": 0, "isomerId": 7, "confId": 0, "nr_conformers:": 1, "nr_isomers:": 9}

$$$$
_i8
     RDKit          3D

 43 45  0  0  0  0  0  0  0  0999 V2000
    0.6532   -0.8712    0.2940 N   0  0  0  0  0  0  0  0  0  0  0  0
    0.8991    0.3804    0.8331 C   0  0  0  0  0  0  0  0  0  0  0  0
    2.0264    0.8863    1.1994 N   0  0  0  0  0  0  0  0  0  0  0  0
    3.2596    0.1106    1.0882 C   0  0  0  0  0  0  0  0  0  0  0  0
    3.9167    0.3936   -0.2607 C   0  0  0  0  0  0  0  0  0  0  0  0
    5.1613   -0.4599   -0.4905 C   0  0  0  0  0  0  0  0  0  0  0  0
    6.1012   -0.3796    0.5774 O   0  0  0  0  0  0  0  0  0  0  0  0
    6.8387    0.8363    0.5860 C   0  0  0  0  0  0  0  0  0  0  0  0
   -0.2378    1.1473    0.9652 N   0  0  0  0  0  0  0  0  0  0  0  0
   -1.5569    0.9016    0.6520 C   0  0  0  0  0  0  0  0  0  0  0  0
   -2.4722    1.8019    0.8512 N   0  0  0  0  0  0  0  0  0  0  0  0
   -3.8116    1.6066    0.4972 C   0  0  0  0  0  0  0  0  0  0  0  0
   -4.7391    1.2508    1.4784 C   0  0  0  0  0  0  0  0  0  0  0  0
   -6.0812    1.1024    1.1397 C   0  0  0  0  0  0  0  0  0  0  0  0
   -6.9628    0.7511    2.0845 F   0  0  0  0  0  0  0  0  0  0  0  0
   -6.5261    1.3143   -0.1625 C   0  0  0  0  0  0  0  0  0  0  0  0
   -5.6129    1.6903   -1.1456 C   0  0  0  0  0  0  0  0  0  0  0  0
   -4.2685    1.8417   -0.8093 C   0  0  0  0  0  0  0  0  0  0  0  0
   -3.4029    2.2034   -1.7684 F   0  0  0  0  0  0  0  0  0  0  0  0
   -1.7176   -0.4394    0.1145 C   0  0  0  0  0  0  0  0  0  0  0  0
   -2.7729   -1.2600   -0.3251 C   0  0  0  0  0  0  0  0  0  0  0  0
   -2.3607   -2.4704   -0.7294 N   0  0  0  0  0  0  0  0  0  0  0  0
   -1.0228   -2.4308   -0.5518 N   0  0  0  0  0  0  0  0  0  0  0  0
   -0.2329   -3.5908   -0.8805 C   0  0  0  0  0  0  0  0  0  0  0  0
   -0.6058   -1.2416   -0.0366 C   0  0  0  0  0  0  0  0  0  0  0  0
    1.4462   -1.4839    0.1684 H   0  0  0  0  0  0  0  0  0  0  0  0
    3.0974   -0.9621    1.2388 H   0  0  0  0  0  0  0  0  0  0  0  0
    3.9252    0.4272    1.8995 H   0  0  0  0  0  0  0  0  0  0  0  0
    4.1750    1.4578   -0.3121 H   0  0  0  0  0  0  0  0  0  0  0  0
    3.2068    0.2082   -1.0758 H   0  0  0  0  0  0  0  0  0  0  0  0
    4.8616   -1.5111   -0.5671 H   0  0  0  0  0  0  0  0  0  0  0  0
    5.6431   -0.1977   -1.4397 H   0  0  0  0  0  0  0  0  0  0  0  0
    6.1852    1.6883    0.7908 H   0  0  0  0  0  0  0  0  0  0  0  0
    7.5835    0.7771    1.3844 H   0  0  0  0  0  0  0  0  0  0  0  0
    7.3604    0.9784   -0.3652 H   0  0  0  0  0  0  0  0  0  0  0  0
   -0.0654    2.0680    1.3428 H   0  0  0  0  0  0  0  0  0  0  0  0
   -4.4228    1.0931    2.5043 H   0  0  0  0  0  0  0  0  0  0  0  0
   -7.5789    1.1922   -0.3981 H   0  0  0  0  0  0  0  0  0  0  0  0
   -5.9347    1.8699   -2.1665 H   0  0  0  0  0  0  0  0  0  0  0  0
   -3.8323   -1.0524   -0.3711 H   0  0  0  0  0  0  0  0  0  0  0  0
    0.7658   -3.2737   -1.1894 H   0  0  0  0  0  0  0  0  0  0  0  0
   -0.1754   -4.2252    0.0071 H   0  0  0  0  0  0  0  0  0  0  0  0
   -0.7120   -4.1290   -1.7027 H   0  0  0  0  0  0  0  0  0  0  0  0
  1  2  1  0
  2  3  2  3
  3  4  1  0
  4  5  1  0
  5  6  1  0
  6  7  1  0
  7  8  1  0
  2  9  1  0
  9 10  1  0
 10 11  2  3
 11 12  1  0
 12 13  2  0
 13 14  1  0
 14 15  1  0
 14 16  2  0
 16 17  1  0
 17 18  2  0
 18 19  1  0
 10 20  1  0
 20 21  1  0
 21 22  2  0
 22 23  1  0
 23 24  1  0
 23 25  1  0
 25  1  1  0
 18 12  1  0
 25 20  2  0
  1 26  1  0
  4 27  1  0
  4 28  1  0
  5 29  1  0
  5 30  1  0
  6 31  1  0
  6 32  1  0
  8 33  1  0
  8 34  1  0
  8 35  1  0
  9 36  1  0
 13 37  1  0
 16 38  1  0
 17 39  1  0
 21 40  1  0
 24 41  1  0
 24 42  1  0
 24 43  1  0
M  END
>  <ScrubInfo>  (9) 
{"isomerGroup": 0, "isomerId": 8, "confId": 0, "nr_conformers:": 1, "nr_isomers:": 9}

$$$$
