REMARK SMILES Cc1ccc(Nc2nc(NCCC[NH+](C)C)nc3c2cnn3C)c(O)c1
REMARK SMILES IDX 10 1 11 3 12 4 13 5 14 6 15 7 16 8 9 10 8 11 17 12 7 13
REMARK SMILES IDX 18 14 19 15 22 16 20 17 21 18 23 19 6 20 5 22 4 23 24 24
REMARK SMILES IDX 3 25 26 26 2 27 1 28 25 29
REMARK H PARENT 10 2 14 9 6 21 25 30
ROOT
ATOM      1  N   UNL     1       1.714  -0.472  -0.429  1.00  0.00    -0.354 N 
ATOM      2  H   UNL     1       1.486  -1.448  -0.252  1.00  0.00     0.163 HD
ENDROOT
BRANCH   1   3
ATOM      3  C   UNL     1       2.905   0.044   0.212  1.00  0.00     0.122 C 
BRANCH   3   4
ATOM      4  C   UNL     1       4.112  -0.753  -0.289  1.00  0.00     0.083 C 
BRANCH   4   5
ATOM      5  C   UNL     1       5.405  -0.185   0.281  1.00  0.00     0.263 C 
BRANCH   5   6
ATOM      6  N   UNL     1       6.614  -0.870  -0.330  1.00  0.00    -0.340 N 
ATOM      7  C   UNL     1       6.789  -2.299   0.112  1.00  0.00     0.332 C 
ATOM      8  C   UNL     1       7.873  -0.076  -0.089  1.00  0.00     0.332 C 
ATOM      9  H   UNL     1       6.476  -0.886  -1.351  1.00  0.00     0.347 HD
ENDBRANCH   5   6
ENDBRANCH   4   5
ENDBRANCH   3   4
ENDBRANCH   1   3
BRANCH   1  10
ATOM     10  C   UNL     1       0.542   0.203  -0.085  1.00  0.00     0.226 A 
ATOM     11  N   UNL     1      -0.529  -0.596   0.046  1.00  0.00    -0.195 NA
ATOM     12  N   UNL     1       0.567   1.530   0.098  1.00  0.00    -0.193 NA
ATOM     13  C   UNL     1      -1.747  -0.069   0.343  1.00  0.00     0.147 A 
ATOM     14  C   UNL     1      -0.635   2.023   0.440  1.00  0.00     0.165 A 
ATOM     15  C   UNL     1      -1.808   1.306   0.590  1.00  0.00     0.082 A 
ATOM     16  N   UNL     1      -0.951   3.325   0.717  1.00  0.00    -0.250 N 
ATOM     17  C   UNL     1      -2.747   2.266   1.024  1.00  0.00     0.149 A 
ATOM     18  N   UNL     1      -2.237   3.501   1.091  1.00  0.00    -0.179 NA
ATOM     19  C   UNL     1      -0.070   4.465   0.668  1.00  0.00     0.176 C 
BRANCH  13  20
ATOM     20  N   UNL     1      -2.808  -0.964   0.463  1.00  0.00    -0.336 N 
ATOM     21  H   UNL     1      -2.487  -1.927   0.506  1.00  0.00     0.168 HD
BRANCH  20  22
ATOM     22  C   UNL     1      -4.153  -0.905   0.051  1.00  0.00     0.082 A 
ATOM     23  C   UNL     1      -4.694   0.136  -0.706  1.00  0.00     0.030 A 
ATOM     24  C   UNL     1      -5.022  -1.930   0.467  1.00  0.00     0.139 A 
ATOM     25  C   UNL     1      -6.056   0.158  -1.028  1.00  0.00     0.006 A 
ATOM     26  C   UNL     1      -6.382  -1.917   0.152  1.00  0.00     0.051 A 
ATOM     27  C   UNL     1      -6.913  -0.857  -0.589  1.00  0.00    -0.047 A 
ATOM     28  C   UNL     1      -8.365  -0.842  -0.967  1.00  0.00     0.044 C 
BRANCH  24  29
ATOM     29  O   UNL     1      -4.492  -2.971   1.189  1.00  0.00    -0.506 OA
ATOM     30  H   UNL     1      -5.222  -3.550   1.467  1.00  0.00     0.293 HD
ENDBRANCH  24  29
ENDBRANCH  20  22
ENDBRANCH  13  20
ENDBRANCH   1  10
TORSDOF 8
