_i0
     RDKit          3D

 52 54  0  0  0  0  0  0  0  0999 V2000
    5.4048   -0.1850    0.2815 C   0  0  0  0  0  0  0  0  0  0  0  0
    6.6138   -0.8701   -0.3300 N   0  0  0  0  0  4  0  0  0  0  0  0
    6.7886   -2.2990    0.1122 C   0  0  0  0  0  0  0  0  0  0  0  0
    7.8727   -0.0765   -0.0889 C   0  0  0  0  0  0  0  0  0  0  0  0
    4.1119   -0.7530   -0.2887 C   0  0  0  0  0  0  0  0  0  0  0  0
    2.9048    0.0439    0.2118 C   0  0  0  0  0  0  0  0  0  0  0  0
    1.7143   -0.4717   -0.4288 N   0  0  0  0  0  0  0  0  0  0  0  0
    0.5424    0.2030   -0.0853 C   0  0  0  0  0  0  0  0  0  0  0  0
   -0.5287   -0.5962    0.0459 N   0  0  0  0  0  0  0  0  0  0  0  0
    0.5667    1.5298    0.0978 N   0  0  0  0  0  0  0  0  0  0  0  0
   -1.7466   -0.0686    0.3434 C   0  0  0  0  0  0  0  0  0  0  0  0
   -0.6348    2.0227    0.4397 C   0  0  0  0  0  0  0  0  0  0  0  0
   -2.8075   -0.9638    0.4629 N   0  0  0  0  0  0  0  0  0  0  0  0
   -1.8076    1.3062    0.5902 C   0  0  0  0  0  0  0  0  0  0  0  0
   -0.9512    3.3252    0.7173 N   0  0  0  0  0  0  0  0  0  0  0  0
   -4.1529   -0.9052    0.0511 C   0  0  0  0  0  0  0  0  0  0  0  0
   -2.7472    2.2656    1.0236 C   0  0  0  0  0  0  0  0  0  0  0  0
   -2.2372    3.5006    1.0912 N   0  0  0  0  0  0  0  0  0  0  0  0
   -0.0705    4.4646    0.6684 C   0  0  0  0  0  0  0  0  0  0  0  0
   -4.6935    0.1363   -0.7057 C   0  0  0  0  0  0  0  0  0  0  0  0
   -5.0225   -1.9298    0.4669 C   0  0  0  0  0  0  0  0  0  0  0  0
   -6.0561    0.1584   -1.0284 C   0  0  0  0  0  0  0  0  0  0  0  0
   -4.4920   -2.9715    1.1887 O   0  0  0  0  0  0  0  0  0  0  0  0
   -6.3824   -1.9175    0.1523 C   0  0  0  0  0  0  0  0  0  0  0  0
   -6.9126   -0.8571   -0.5890 C   0  0  0  0  0  0  0  0  0  0  0  0
   -8.3646   -0.8419   -0.9669 C   0  0  0  0  0  0  0  0  0  0  0  0
    5.4680   -0.3060    1.3685 H   0  0  0  0  0  0  0  0  0  0  0  0
    5.4879    0.8792    0.0340 H   0  0  0  0  0  0  0  0  0  0  0  0
    6.4763   -0.8856   -1.3505 H   0  0  0  0  0  0  0  0  0  0  0  0
    7.6905   -2.6940   -0.3633 H   0  0  0  0  0  0  0  0  0  0  0  0
    5.9237   -2.8753   -0.2218 H   0  0  0  0  0  0  0  0  0  0  0  0
    6.8815   -2.3182    1.2012 H   0  0  0  0  0  0  0  0  0  0  0  0
    7.7313    0.9217   -0.5116 H   0  0  0  0  0  0  0  0  0  0  0  0
    8.6963   -0.5806   -0.6014 H   0  0  0  0  0  0  0  0  0  0  0  0
    8.0508   -0.0266    0.9886 H   0  0  0  0  0  0  0  0  0  0  0  0
    4.1425   -0.7239   -1.3854 H   0  0  0  0  0  0  0  0  0  0  0  0
    3.9893   -1.8039   -0.0027 H   0  0  0  0  0  0  0  0  0  0  0  0
    3.0562    1.1014   -0.0382 H   0  0  0  0  0  0  0  0  0  0  0  0
    2.8272   -0.0446    1.3027 H   0  0  0  0  0  0  0  0  0  0  0  0
    1.4865   -1.4477   -0.2524 H   0  0  0  0  0  0  0  0  0  0  0  0
   -2.4868   -1.9272    0.5059 H   0  0  0  0  0  0  0  0  0  0  0  0
   -3.7842    2.1138    1.2963 H   0  0  0  0  0  0  0  0  0  0  0  0
    0.0320    4.8628    1.6810 H   0  0  0  0  0  0  0  0  0  0  0  0
    0.9076    4.1647    0.2857 H   0  0  0  0  0  0  0  0  0  0  0  0
   -0.5114    5.2136    0.0056 H   0  0  0  0  0  0  0  0  0  0  0  0
   -4.0659    0.9327   -1.0929 H   0  0  0  0  0  0  0  0  0  0  0  0
   -6.4427    0.9777   -1.6321 H   0  0  0  0  0  0  0  0  0  0  0  0
   -5.2216   -3.5498    1.4674 H   0  0  0  0  0  0  0  0  0  0  0  0
   -7.0336   -2.7246    0.4750 H   0  0  0  0  0  0  0  0  0  0  0  0
   -8.7317    0.1851   -1.0654 H   0  0  0  0  0  0  0  0  0  0  0  0
   -8.5089   -1.3624   -1.9185 H   0  0  0  0  0  0  0  0  0  0  0  0
   -8.9729   -1.3315   -0.1991 H   0  0  0  0  0  0  0  0  0  0  0  0
  1  2  1  0
  2  3  1  0
  2  4  1  0
  5  1  1  0
  6  5  1  0
  7  6  1  0
  8  7  1  0
  9  8  2  0
  8 10  1  0
 11  9  1  0
 10 12  2  0
 13 11  1  0
 14 11  2  0
 12 14  1  0
 15 12  1  0
 16 13  1  0
 14 17  1  0
 18 15  1  0
 15 19  1  0
 20 16  2  0
 16 21  1  0
 17 18  2  0
 22 20  1  0
 21 23  1  0
 21 24  2  0
 25 22  2  0
 24 25  1  0
 26 25  1  0
  1 27  1  0
  1 28  1  0
  2 29  1  0
  3 30  1  0
  3 31  1  0
  3 32  1  0
  4 33  1  0
  4 34  1  0
  4 35  1  0
  5 36  1  0
  5 37  1  0
  6 38  1  0
  6 39  1  0
  7 40  1  0
 13 41  1  0
 17 42  1  0
 19 43  1  0
 19 44  1  0
 19 45  1  0
 20 46  1  0
 22 47  1  0
 23 48  1  0
 24 49  1  0
 26 50  1  0
 26 51  1  0
 26 52  1  0
M  CHG  1   2   1
M  END
>  <ScrubInfo>  (1) 
{"isomerGroup": 0, "isomerId": 0, "confId": 0, "nr_conformers:": 1, "nr_isomers:": 9}

$$$$
_i1
     RDKit          3D

 52 54  0  0  0  0  0  0  0  0999 V2000
   -1.0507    0.1113   -0.2295 N   0  0  0  0  0  0  0  0  0  0  0  0
   -2.0933   -0.4076   -0.9757 C   0  0  0  0  0  0  0  0  0  0  0  0
   -3.4164   -0.2984   -0.6118 N   0  0  0  0  0  0  0  0  0  0  0  0
   -4.0209   -0.0161    0.6283 C   0  0  0  0  0  0  0  0  0  0  0  0
   -3.3894   -0.1770    1.8631 C   0  0  0  0  0  0  0  0  0  0  0  0
   -4.0470    0.1615    3.0524 C   0  0  0  0  0  0  0  0  0  0  0  0
   -5.3480    0.6786    3.0299 C   0  0  0  0  0  0  0  0  0  0  0  0
   -6.0574    1.0050    4.3115 C   0  0  0  0  0  0  0  0  0  0  0  0
   -6.0014    0.8220    1.8016 C   0  0  0  0  0  0  0  0  0  0  0  0
   -5.3375    0.4793    0.6240 C   0  0  0  0  0  0  0  0  0  0  0  0
   -5.9643    0.6099   -0.5922 O   0  0  0  0  0  0  0  0  0  0  0  0
   -1.7229   -0.9834   -2.1260 C   0  0  0  0  0  0  0  0  0  0  0  0
   -2.3692   -1.6430   -3.2651 C   0  0  0  0  0  0  0  0  0  0  0  0
   -1.5158   -2.0457   -4.1723 N   0  0  0  0  0  0  0  0  0  0  0  0
   -0.2452   -1.7238   -3.6672 N   0  0  0  0  0  0  0  0  0  0  0  0
    0.8731   -1.7295   -4.5788 C   0  0  0  0  0  0  0  0  0  0  0  0
   -0.2830   -1.0325   -2.4665 C   0  0  0  0  0  0  0  0  0  0  0  0
    0.6741   -0.5162   -1.7688 N   0  0  0  0  0  0  0  0  0  0  0  0
    0.2626    0.1202   -0.6164 C   0  0  0  0  0  0  0  0  0  0  0  0
    1.1297    0.7452    0.1143 N   0  0  0  0  0  0  0  0  0  0  0  0
    2.5128    0.7297   -0.3469 C   0  0  0  0  0  0  0  0  0  0  0  0
    3.3533    1.4829    0.6809 C   0  0  0  0  0  0  0  0  0  0  0  0
    4.8305    1.5615    0.3147 C   0  0  0  0  0  0  0  0  0  0  0  0
    5.5075    0.2062    0.2526 N   0  0  0  0  0  4  0  0  0  0  0  0
    6.8990    0.3237   -0.3127 C   0  0  0  0  0  0  0  0  0  0  0  0
    5.5209   -0.5239    1.5693 C   0  0  0  0  0  0  0  0  0  0  0  0
   -1.3055    0.7336    0.5235 H   0  0  0  0  0  0  0  0  0  0  0  0
   -4.1154   -0.3660   -1.3510 H   0  0  0  0  0  0  0  0  0  0  0  0
   -2.3974   -0.6124    1.9315 H   0  0  0  0  0  0  0  0  0  0  0  0
   -3.5374    0.0072    4.0017 H   0  0  0  0  0  0  0  0  0  0  0  0
   -5.3472    1.3306    5.0788 H   0  0  0  0  0  0  0  0  0  0  0  0
   -6.7729    1.8209    4.1647 H   0  0  0  0  0  0  0  0  0  0  0  0
   -6.5943    0.1242    4.6767 H   0  0  0  0  0  0  0  0  0  0  0  0
   -7.0208    1.1963    1.7758 H   0  0  0  0  0  0  0  0  0  0  0  0
   -6.8525    0.9757   -0.4379 H   0  0  0  0  0  0  0  0  0  0  0  0
   -3.4603   -1.7504   -3.3179 H   0  0  0  0  0  0  0  0  0  0  0  0
    0.7906   -2.5585   -5.2891 H   0  0  0  0  0  0  0  0  0  0  0  0
    0.9103   -0.7921   -5.1425 H   0  0  0  0  0  0  0  0  0  0  0  0
    1.8168   -1.8476   -4.0368 H   0  0  0  0  0  0  0  0  0  0  0  0
    2.8688   -0.3029   -0.4318 H   0  0  0  0  0  0  0  0  0  0  0  0
    2.6051    1.2228   -1.3221 H   0  0  0  0  0  0  0  0  0  0  0  0
    3.2199    1.0419    1.6753 H   0  0  0  0  0  0  0  0  0  0  0  0
    2.9691    2.5083    0.7630 H   0  0  0  0  0  0  0  0  0  0  0  0
    5.3802    2.1620    1.0482 H   0  0  0  0  0  0  0  0  0  0  0  0
    4.9478    2.0213   -0.6732 H   0  0  0  0  0  0  0  0  0  0  0  0
    4.9829   -0.3812   -0.4085 H   0  0  0  0  0  0  0  0  0  0  0  0
    7.5002    0.9352    0.3654 H   0  0  0  0  0  0  0  0  0  0  0  0
    7.3142   -0.6832   -0.4067 H   0  0  0  0  0  0  0  0  0  0  0  0
    6.8267    0.7864   -1.3005 H   0  0  0  0  0  0  0  0  0  0  0  0
    6.0807   -1.4539    1.4372 H   0  0  0  0  0  0  0  0  0  0  0  0
    5.9972    0.1143    2.3180 H   0  0  0  0  0  0  0  0  0  0  0  0
    4.4919   -0.7629    1.8452 H   0  0  0  0  0  0  0  0  0  0  0  0
  1  2  1  0
  2  3  1  0
  3  4  1  0
  4  5  2  0
  5  6  1  0
  6  7  2  0
  7  8  1  0
  7  9  1  0
  9 10  2  0
 10 11  1  0
  2 12  2  0
 12 13  1  0
 13 14  2  0
 14 15  1  0
 15 16  1  0
 15 17  1  0
 17 18  2  0
 18 19  1  0
 19 20  2  3
 20 21  1  0
 21 22  1  0
 22 23  1  0
 23 24  1  0
 24 25  1  0
 24 26  1  0
 19  1  1  0
 10  4  1  0
 17 12  1  0
  1 27  1  0
  3 28  1  0
  5 29  1  0
  6 30  1  0
  8 31  1  0
  8 32  1  0
  8 33  1  0
  9 34  1  0
 11 35  1  0
 13 36  1  0
 16 37  1  0
 16 38  1  0
 16 39  1  0
 21 40  1  0
 21 41  1  0
 22 42  1  0
 22 43  1  0
 23 44  1  0
 23 45  1  0
 24 46  1  0
 25 47  1  0
 25 48  1  0
 25 49  1  0
 26 50  1  0
 26 51  1  0
 26 52  1  0
M  CHG  1  24   1
M  END
>  <ScrubInfo>  (2) 
{"isomerGroup": 0, "isomerId": 1, "confId": 0, "nr_conformers:": 1, "nr_isomers:": 9}

$$$$
_i2
     RDKit          3D

 52 54  0  0  0  0  0  0  0  0999 V2000
   -0.7673   -1.0055    1.3798 N   0  0  0  0  0  0  0  0  0  0  0  0
   -0.8002   -2.0914    0.5488 C   0  0  0  0  0  0  0  0  0  0  0  0
   -1.7957   -2.9915    0.7700 N   0  0  0  0  0  0  0  0  0  0  0  0
   -3.2003   -2.6257    0.8435 C   0  0  0  0  0  0  0  0  0  0  0  0
   -3.8358   -2.5181   -0.5480 C   0  0  0  0  0  0  0  0  0  0  0  0
   -3.4884   -1.2399   -1.3179 C   0  0  0  0  0  0  0  0  0  0  0  0
   -2.2691   -1.3781   -2.2022 N   0  0  0  0  0  4  0  0  0  0  0  0
   -2.4751   -2.2405   -3.4135 C   0  0  0  0  0  0  0  0  0  0  0  0
   -1.7249   -0.0264   -2.5985 C   0  0  0  0  0  0  0  0  0  0  0  0
   -0.0207   -2.2552   -0.4925 N   0  0  0  0  0  0  0  0  0  0  0  0
    0.8852   -1.2382   -0.5919 C   0  0  0  0  0  0  0  0  0  0  0  0
    1.0013   -0.1051    0.2021 C   0  0  0  0  0  0  0  0  0  0  0  0
    2.0106    0.6511   -0.4187 C   0  0  0  0  0  0  0  0  0  0  0  0
    2.4991    0.0522   -1.5124 N   0  0  0  0  0  0  0  0  0  0  0  0
    1.8801   -1.1447   -1.5261 N   0  0  0  0  0  0  0  0  0  0  0  0
    2.2661   -2.1300   -2.5056 C   0  0  0  0  0  0  0  0  0  0  0  0
    0.1241    0.0442    1.3477 C   0  0  0  0  0  0  0  0  0  0  0  0
    0.0907    0.9824    2.2397 N   0  0  0  0  0  0  0  0  0  0  0  0
    1.0594    1.9940    2.2851 C   0  0  0  0  0  0  0  0  0  0  0  0
    0.7082    3.2919    1.9090 C   0  0  0  0  0  0  0  0  0  0  0  0
    1.6419    4.3297    1.9812 C   0  0  0  0  0  0  0  0  0  0  0  0
    2.9433    4.0846    2.4374 C   0  0  0  0  0  0  0  0  0  0  0  0
    3.9319    5.2091    2.5478 C   0  0  0  0  0  0  0  0  0  0  0  0
    3.2912    2.7928    2.8530 C   0  0  0  0  0  0  0  0  0  0  0  0
    2.3536    1.7616    2.7782 C   0  0  0  0  0  0  0  0  0  0  0  0
    2.6958    0.4938    3.1718 O   0  0  0  0  0  0  0  0  0  0  0  0
   -1.2433   -1.0867    2.2679 H   0  0  0  0  0  0  0  0  0  0  0  0
   -1.6421   -3.8577    0.2554 H   0  0  0  0  0  0  0  0  0  0  0  0
   -3.3495   -1.7027    1.4147 H   0  0  0  0  0  0  0  0  0  0  0  0
   -3.7157   -3.4188    1.3974 H   0  0  0  0  0  0  0  0  0  0  0  0
   -4.9223   -2.5031   -0.3894 H   0  0  0  0  0  0  0  0  0  0  0  0
   -3.6272   -3.4202   -1.1310 H   0  0  0  0  0  0  0  0  0  0  0  0
   -3.3059   -0.4110   -0.6250 H   0  0  0  0  0  0  0  0  0  0  0  0
   -4.3147   -0.9563   -1.9798 H   0  0  0  0  0  0  0  0  0  0  0  0
   -1.5077   -1.8191   -1.6533 H   0  0  0  0  0  0  0  0  0  0  0  0
   -1.5363   -2.2708   -3.9736 H   0  0  0  0  0  0  0  0  0  0  0  0
   -2.7320   -3.2498   -3.0881 H   0  0  0  0  0  0  0  0  0  0  0  0
   -3.2754   -1.8074   -4.0193 H   0  0  0  0  0  0  0  0  0  0  0  0
   -2.4784    0.4849   -3.2035 H   0  0  0  0  0  0  0  0  0  0  0  0
   -0.8047   -0.1819   -3.1677 H   0  0  0  0  0  0  0  0  0  0  0  0
   -1.5093    0.5370   -1.6873 H   0  0  0  0  0  0  0  0  0  0  0  0
    2.4082    1.6209   -0.1494 H   0  0  0  0  0  0  0  0  0  0  0  0
    1.8685   -3.1071   -2.2218 H   0  0  0  0  0  0  0  0  0  0  0  0
    3.3575   -2.1769   -2.5433 H   0  0  0  0  0  0  0  0  0  0  0  0
    1.8619   -1.8241   -3.4736 H   0  0  0  0  0  0  0  0  0  0  0  0
   -0.3022    3.5009    1.5705 H   0  0  0  0  0  0  0  0  0  0  0  0
    1.3438    5.3349    1.6891 H   0  0  0  0  0  0  0  0  0  0  0  0
    4.9545    4.8450    2.4026 H   0  0  0  0  0  0  0  0  0  0  0  0
    3.8584    5.6760    3.5347 H   0  0  0  0  0  0  0  0  0  0  0  0
    3.7462    5.9688    1.7814 H   0  0  0  0  0  0  0  0  0  0  0  0
    4.2923    2.6035    3.2309 H   0  0  0  0  0  0  0  0  0  0  0  0
    3.5704    0.5248    3.5936 H   0  0  0  0  0  0  0  0  0  0  0  0
  1  2  1  0
  2  3  1  0
  3  4  1  0
  4  5  1  0
  5  6  1  0
  6  7  1  0
  7  8  1  0
  7  9  1  0
  2 10  2  0
 10 11  1  0
 11 12  2  0
 12 13  1  0
 13 14  2  0
 14 15  1  0
 15 16  1  0
 12 17  1  0
 17 18  2  3
 18 19  1  0
 19 20  2  0
 20 21  1  0
 21 22  2  0
 22 23  1  0
 22 24  1  0
 24 25  2  0
 25 26  1  0
 17  1  1  0
 25 19  1  0
 15 11  1  0
  1 27  1  0
  3 28  1  0
  4 29  1  0
  4 30  1  0
  5 31  1  0
  5 32  1  0
  6 33  1  0
  6 34  1  0
  7 35  1  0
  8 36  1  0
  8 37  1  0
  8 38  1  0
  9 39  1  0
  9 40  1  0
  9 41  1  0
 13 42  1  0
 16 43  1  0
 16 44  1  0
 16 45  1  0
 20 46  1  0
 21 47  1  0
 23 48  1  0
 23 49  1  0
 23 50  1  0
 24 51  1  0
 26 52  1  0
M  CHG  1   7   1
M  END
>  <ScrubInfo>  (3) 
{"isomerGroup": 0, "isomerId": 2, "confId": 0, "nr_conformers:": 1, "nr_isomers:": 9}

$$$$
_i3
     RDKit          3D

 52 54  0  0  0  0  0  0  0  0999 V2000
    0.5005   -2.1646   -0.6633 N   0  0  0  0  0  0  0  0  0  0  0  0
    0.8723   -0.8590   -0.9017 C   0  0  0  0  0  0  0  0  0  0  0  0
    2.1300   -0.5461   -0.8074 N   0  0  0  0  0  0  0  0  0  0  0  0
    2.4662    0.8467   -1.1054 C   0  0  0  0  0  0  0  0  0  0  0  0
    3.9778    1.0146   -0.9688 C   0  0  0  0  0  0  0  0  0  0  0  0
    4.4252    0.7763    0.4688 C   0  0  0  0  0  0  0  0  0  0  0  0
    5.9407    0.8369    0.5784 N   0  0  0  0  0  4  0  0  0  0  0  0
    6.4136    0.2222    1.8684 C   0  0  0  0  0  0  0  0  0  0  0  0
    6.5038    2.2188    0.3990 C   0  0  0  0  0  0  0  0  0  0  0  0
   -0.0508    0.1189   -1.2369 N   0  0  0  0  0  0  0  0  0  0  0  0
   -1.3168   -0.2009   -1.3189 C   0  0  0  0  0  0  0  0  0  0  0  0
   -2.2822    0.7074   -1.6792 N   0  0  0  0  0  0  0  0  0  0  0  0
   -3.4857    0.9178   -0.9540 C   0  0  0  0  0  0  0  0  0  0  0  0
   -4.6133    1.3341   -1.6738 C   0  0  0  0  0  0  0  0  0  0  0  0
   -5.8179    1.6133   -1.0229 C   0  0  0  0  0  0  0  0  0  0  0  0
   -5.9144    1.5002    0.3676 C   0  0  0  0  0  0  0  0  0  0  0  0
   -7.2008    1.8289    1.0675 C   0  0  0  0  0  0  0  0  0  0  0  0
   -4.7772    1.1431    1.1021 C   0  0  0  0  0  0  0  0  0  0  0  0
   -3.5749    0.8667    0.4455 C   0  0  0  0  0  0  0  0  0  0  0  0
   -2.4617    0.5641    1.1834 O   0  0  0  0  0  0  0  0  0  0  0  0
   -1.7451   -1.5687   -1.1167 C   0  0  0  0  0  0  0  0  0  0  0  0
   -2.9368   -2.3076   -1.1772 C   0  0  0  0  0  0  0  0  0  0  0  0
   -2.7466   -3.6063   -0.8945 N   0  0  0  0  0  0  0  0  0  0  0  0
   -1.4157   -3.6979   -0.6629 N   0  0  0  0  0  0  0  0  0  0  0  0
   -0.8506   -4.9826   -0.3380 C   0  0  0  0  0  0  0  0  0  0  0  0
   -0.7940   -2.4968   -0.7908 C   0  0  0  0  0  0  0  0  0  0  0  0
    1.2522   -2.8108   -0.4720 H   0  0  0  0  0  0  0  0  0  0  0  0
    2.1831    1.1011   -2.1341 H   0  0  0  0  0  0  0  0  0  0  0  0
    1.9604    1.5338   -0.4158 H   0  0  0  0  0  0  0  0  0  0  0  0
    4.2391    2.0287   -1.2886 H   0  0  0  0  0  0  0  0  0  0  0  0
    4.4899    0.3164   -1.6423 H   0  0  0  0  0  0  0  0  0  0  0  0
    4.1318   -0.2238    0.8049 H   0  0  0  0  0  0  0  0  0  0  0  0
    4.0138    1.5201    1.1601 H   0  0  0  0  0  0  0  0  0  0  0  0
    6.3161    0.2493   -0.1781 H   0  0  0  0  0  0  0  0  0  0  0  0
    6.0578   -0.8108    1.9050 H   0  0  0  0  0  0  0  0  0  0  0  0
    6.0121    0.8069    2.7005 H   0  0  0  0  0  0  0  0  0  0  0  0
    7.5068    0.2347    1.8708 H   0  0  0  0  0  0  0  0  0  0  0  0
    6.0631    2.8767    1.1526 H   0  0  0  0  0  0  0  0  0  0  0  0
    6.2724    2.5626   -0.6108 H   0  0  0  0  0  0  0  0  0  0  0  0
    7.5892    2.1620    0.5193 H   0  0  0  0  0  0  0  0  0  0  0  0
   -1.8428    1.6164   -1.7980 H   0  0  0  0  0  0  0  0  0  0  0  0
   -4.5644    1.4249   -2.7570 H   0  0  0  0  0  0  0  0  0  0  0  0
   -6.6812    1.9194   -1.6110 H   0  0  0  0  0  0  0  0  0  0  0  0
   -7.3066    1.2410    1.9853 H   0  0  0  0  0  0  0  0  0  0  0  0
   -7.2265    2.8926    1.3229 H   0  0  0  0  0  0  0  0  0  0  0  0
   -8.0618    1.5959    0.4321 H   0  0  0  0  0  0  0  0  0  0  0  0
   -4.8391    1.0958    2.1860 H   0  0  0  0  0  0  0  0  0  0  0  0
   -2.7287    0.4541    2.1111 H   0  0  0  0  0  0  0  0  0  0  0  0
   -3.9368   -1.9680   -1.4140 H   0  0  0  0  0  0  0  0  0  0  0  0
    0.2161   -4.8777   -0.1296 H   0  0  0  0  0  0  0  0  0  0  0  0
   -0.9992   -5.6493   -1.1911 H   0  0  0  0  0  0  0  0  0  0  0  0
   -1.3625   -5.3718    0.5458 H   0  0  0  0  0  0  0  0  0  0  0  0
  1  2  1  0
  2  3  2  3
  3  4  1  0
  4  5  1  0
  5  6  1  0
  6  7  1  0
  7  8  1  0
  7  9  1  0
  2 10  1  0
 10 11  2  0
 11 12  1  0
 12 13  1  0
 13 14  2  0
 14 15  1  0
 15 16  2  0
 16 17  1  0
 16 18  1  0
 18 19  2  0
 19 20  1  0
 11 21  1  0
 21 22  1  0
 22 23  2  0
 23 24  1  0
 24 25  1  0
 24 26  1  0
 26  1  1  0
 19 13  1  0
 26 21  2  0
  1 27  1  0
  4 28  1  0
  4 29  1  0
  5 30  1  0
  5 31  1  0
  6 32  1  0
  6 33  1  0
  7 34  1  0
  8 35  1  0
  8 36  1  0
  8 37  1  0
  9 38  1  0
  9 39  1  0
  9 40  1  0
 12 41  1  0
 14 42  1  0
 15 43  1  0
 17 44  1  0
 17 45  1  0
 17 46  1  0
 18 47  1  0
 20 48  1  0
 22 49  1  0
 25 50  1  0
 25 51  1  0
 25 52  1  0
M  CHG  1   7   1
M  END
>  <ScrubInfo>  (4) 
{"isomerGroup": 0, "isomerId": 3, "confId": 0, "nr_conformers:": 1, "nr_isomers:": 9}

$$$$
_i4
     RDKit          3D

 52 54  0  0  0  0  0  0  0  0999 V2000
   -0.3018   -3.3390   -1.9896 N   0  0  0  0  0  0  0  0  0  0  0  0
   -0.3818   -1.9915   -1.7120 C   0  0  0  0  0  0  0  0  0  0  0  0
   -1.1842   -1.3142   -2.5975 N   0  0  0  0  0  0  0  0  0  0  0  0
   -1.0678    0.1336   -2.7238 C   0  0  0  0  0  0  0  0  0  0  0  0
   -1.6870    0.8504   -1.5214 C   0  0  0  0  0  0  0  0  0  0  0  0
   -1.2187    2.2972   -1.4646 C   0  0  0  0  0  0  0  0  0  0  0  0
   -1.4708    2.9057   -0.1003 N   0  0  0  0  0  4  0  0  0  0  0  0
   -0.8910    4.2907   -0.0144 C   0  0  0  0  0  0  0  0  0  0  0  0
   -2.9070    2.8888    0.3361 C   0  0  0  0  0  0  0  0  0  0  0  0
    0.2419   -1.3843   -0.7373 N   0  0  0  0  0  0  0  0  0  0  0  0
    1.0595   -2.1159    0.1071 C   0  0  0  0  0  0  0  0  0  0  0  0
    1.6877   -1.6099    1.1183 N   0  0  0  0  0  0  0  0  0  0  0  0
    1.4654   -0.2711    1.4800 C   0  0  0  0  0  0  0  0  0  0  0  0
    0.6325    0.0165    2.5637 C   0  0  0  0  0  0  0  0  0  0  0  0
    0.4923    1.3286    3.0310 C   0  0  0  0  0  0  0  0  0  0  0  0
    1.1866    2.3800    2.4177 C   0  0  0  0  0  0  0  0  0  0  0  0
    1.1435    3.7587    3.0095 C   0  0  0  0  0  0  0  0  0  0  0  0
    2.0120    2.0997    1.3218 C   0  0  0  0  0  0  0  0  0  0  0  0
    2.1458    0.7880    0.8689 C   0  0  0  0  0  0  0  0  0  0  0  0
    3.0016    0.5595   -0.1730 O   0  0  0  0  0  0  0  0  0  0  0  0
    1.2112   -3.5175   -0.1753 C   0  0  0  0  0  0  0  0  0  0  0  0
    1.9206   -4.5867    0.3859 C   0  0  0  0  0  0  0  0  0  0  0  0
    1.6829   -5.7413   -0.2556 N   0  0  0  0  0  0  0  0  0  0  0  0
    0.8052   -5.4023   -1.2312 N   0  0  0  0  0  0  0  0  0  0  0  0
    0.3275   -6.4250   -2.1269 C   0  0  0  0  0  0  0  0  0  0  0  0
    0.5104   -4.0750   -1.2090 C   0  0  0  0  0  0  0  0  0  0  0  0
   -0.9450   -3.7452   -2.6560 H   0  0  0  0  0  0  0  0  0  0  0  0
   -1.2459   -1.7680   -3.5033 H   0  0  0  0  0  0  0  0  0  0  0  0
   -1.5856    0.4523   -3.6361 H   0  0  0  0  0  0  0  0  0  0  0  0
   -0.0117    0.4006   -2.8511 H   0  0  0  0  0  0  0  0  0  0  0  0
   -2.7798    0.8040   -1.6062 H   0  0  0  0  0  0  0  0  0  0  0  0
   -1.4374    0.3524   -0.5801 H   0  0  0  0  0  0  0  0  0  0  0  0
   -0.1374    2.3633   -1.6283 H   0  0  0  0  0  0  0  0  0  0  0  0
   -1.7346    2.9164   -2.2067 H   0  0  0  0  0  0  0  0  0  0  0  0
   -0.9416    2.3273    0.5735 H   0  0  0  0  0  0  0  0  0  0  0  0
    0.1733    4.2335   -0.2563 H   0  0  0  0  0  0  0  0  0  0  0  0
   -1.4187    4.9327   -0.7250 H   0  0  0  0  0  0  0  0  0  0  0  0
   -1.0222    4.6533    1.0081 H   0  0  0  0  0  0  0  0  0  0  0  0
   -3.2293    1.8504    0.4390 H   0  0  0  0  0  0  0  0  0  0  0  0
   -2.9739    3.3825    1.3096 H   0  0  0  0  0  0  0  0  0  0  0  0
   -3.5043    3.4177   -0.4111 H   0  0  0  0  0  0  0  0  0  0  0  0
    0.1309   -0.7984    3.0813 H   0  0  0  0  0  0  0  0  0  0  0  0
   -0.1156    1.5092    3.9164 H   0  0  0  0  0  0  0  0  0  0  0  0
    1.3896    4.5168    2.2587 H   0  0  0  0  0  0  0  0  0  0  0  0
    0.1409    3.9856    3.3868 H   0  0  0  0  0  0  0  0  0  0  0  0
    1.8604    3.8353    3.8327 H   0  0  0  0  0  0  0  0  0  0  0  0
    2.6067    2.8812    0.8543 H   0  0  0  0  0  0  0  0  0  0  0  0
    3.1341   -0.4095   -0.1853 H   0  0  0  0  0  0  0  0  0  0  0  0
    2.5939   -4.5826    1.2341 H   0  0  0  0  0  0  0  0  0  0  0  0
   -0.2319   -7.1596   -1.5423 H   0  0  0  0  0  0  0  0  0  0  0  0
   -0.3212   -5.9811   -2.8849 H   0  0  0  0  0  0  0  0  0  0  0  0
    1.1898   -6.8939   -2.6076 H   0  0  0  0  0  0  0  0  0  0  0  0
  1  2  1  0
  2  3  1  0
  3  4  1  0
  4  5  1  0
  5  6  1  0
  6  7  1  0
  7  8  1  0
  7  9  1  0
  2 10  2  0
 10 11  1  0
 11 12  2  3
 12 13  1  0
 13 14  2  0
 14 15  1  0
 15 16  2  0
 16 17  1  0
 16 18  1  0
 18 19  2  0
 19 20  1  0
 11 21  1  0
 21 22  1  0
 22 23  2  0
 23 24  1  0
 24 25  1  0
 24 26  1  0
 26  1  1  0
 19 13  1  0
 26 21  2  0
  1 27  1  0
  3 28  1  0
  4 29  1  0
  4 30  1  0
  5 31  1  0
  5 32  1  0
  6 33  1  0
  6 34  1  0
  7 35  1  0
  8 36  1  0
  8 37  1  0
  8 38  1  0
  9 39  1  0
  9 40  1  0
  9 41  1  0
 14 42  1  0
 15 43  1  0
 17 44  1  0
 17 45  1  0
 17 46  1  0
 18 47  1  0
 20 48  1  0
 22 49  1  0
 25 50  1  0
 25 51  1  0
 25 52  1  0
M  CHG  1   7   1
M  END
>  <ScrubInfo>  (5) 
{"isomerGroup": 0, "isomerId": 4, "confId": 0, "nr_conformers:": 1, "nr_isomers:": 9}

$$$$
_i5
     RDKit          3D

 52 54  0  0  0  0  0  0  0  0999 V2000
    1.6914   -2.5342   -0.2025 N   0  0  0  0  0  0  0  0  0  0  0  0
    2.2699   -1.2768   -0.0648 C   0  0  0  0  0  0  0  0  0  0  0  0
    1.4224   -0.3453    0.3977 C   0  0  0  0  0  0  0  0  0  0  0  0
    1.4117    1.0789    0.7057 C   0  0  0  0  0  0  0  0  0  0  0  0
    2.3252    1.9811    0.5982 N   0  0  0  0  0  0  0  0  0  0  0  0
    3.5819    1.6697    0.0636 C   0  0  0  0  0  0  0  0  0  0  0  0
    4.6751    1.5630    0.9261 C   0  0  0  0  0  0  0  0  0  0  0  0
    5.9541    1.2985    0.4279 C   0  0  0  0  0  0  0  0  0  0  0  0
    6.1614    1.1398   -0.9478 C   0  0  0  0  0  0  0  0  0  0  0  0
    7.5425    0.8955   -1.4820 C   0  0  0  0  0  0  0  0  0  0  0  0
    5.0762    1.2790   -1.8226 C   0  0  0  0  0  0  0  0  0  0  0  0
    3.8012    1.5421   -1.3167 C   0  0  0  0  0  0  0  0  0  0  0  0
    2.7409    1.6544   -2.1788 O   0  0  0  0  0  0  0  0  0  0  0  0
    0.2136    1.5221    1.2046 N   0  0  0  0  0  0  0  0  0  0  0  0
   -0.8269    0.7633    1.3473 C   0  0  0  0  0  0  0  0  0  0  0  0
   -1.9397    1.3770    1.8498 N   0  0  0  0  0  0  0  0  0  0  0  0
   -3.0192    0.6811    2.5059 C   0  0  0  0  0  0  0  0  0  0  0  0
   -4.2499    0.6599    1.5991 C   0  0  0  0  0  0  0  0  0  0  0  0
   -3.9863   -0.0983    0.3006 C   0  0  0  0  0  0  0  0  0  0  0  0
   -5.1990   -0.0358   -0.6179 N   0  0  0  0  0  4  0  0  0  0  0  0
   -4.8158   -0.3856   -2.0330 C   0  0  0  0  0  0  0  0  0  0  0  0
   -6.3581   -0.8681   -0.1496 C   0  0  0  0  0  0  0  0  0  0  0  0
   -0.8996   -0.5705    1.0390 N   0  0  0  0  0  0  0  0  0  0  0  0
    0.1904   -1.1273    0.6301 C   0  0  0  0  0  0  0  0  0  0  0  0
    0.4185   -2.4724    0.3388 N   0  0  0  0  0  0  0  0  0  0  0  0
   -0.6118   -3.3424   -0.1836 C   0  0  0  0  0  0  0  0  0  0  0  0
    2.2962   -3.2906    0.1301 H   0  0  0  0  0  0  0  0  0  0  0  0
    3.3111   -1.1605   -0.3290 H   0  0  0  0  0  0  0  0  0  0  0  0
    4.5296    1.7036    1.9941 H   0  0  0  0  0  0  0  0  0  0  0  0
    6.7892    1.2303    1.1223 H   0  0  0  0  0  0  0  0  0  0  0  0
    8.1455    0.3316   -0.7625 H   0  0  0  0  0  0  0  0  0  0  0  0
    7.5053    0.3076   -2.4052 H   0  0  0  0  0  0  0  0  0  0  0  0
    8.0377    1.8492   -1.6888 H   0  0  0  0  0  0  0  0  0  0  0  0
    5.2339    1.1759   -2.8926 H   0  0  0  0  0  0  0  0  0  0  0  0
    3.0933    1.8662   -3.0586 H   0  0  0  0  0  0  0  0  0  0  0  0
   -1.6967    2.2885    2.2331 H   0  0  0  0  0  0  0  0  0  0  0  0
   -3.2702    1.2139    3.4302 H   0  0  0  0  0  0  0  0  0  0  0  0
   -2.7381   -0.3365    2.8007 H   0  0  0  0  0  0  0  0  0  0  0  0
   -4.5553    1.6888    1.3707 H   0  0  0  0  0  0  0  0  0  0  0  0
   -5.0722    0.1956    2.1537 H   0  0  0  0  0  0  0  0  0  0  0  0
   -3.1682    0.3663   -0.2575 H   0  0  0  0  0  0  0  0  0  0  0  0
   -3.7568   -1.1553    0.4730 H   0  0  0  0  0  0  0  0  0  0  0  0
   -5.5078    0.9454   -0.6425 H   0  0  0  0  0  0  0  0  0  0  0  0
   -5.7025   -0.2745   -2.6627 H   0  0  0  0  0  0  0  0  0  0  0  0
   -4.0424    0.3143   -2.3604 H   0  0  0  0  0  0  0  0  0  0  0  0
   -4.4485   -1.4153   -2.0491 H   0  0  0  0  0  0  0  0  0  0  0  0
   -7.1653   -0.7693   -0.8806 H   0  0  0  0  0  0  0  0  0  0  0  0
   -6.0318   -1.9083   -0.0688 H   0  0  0  0  0  0  0  0  0  0  0  0
   -6.6969   -0.4846    0.8146 H   0  0  0  0  0  0  0  0  0  0  0  0
   -0.2553   -4.3767   -0.2265 H   0  0  0  0  0  0  0  0  0  0  0  0
   -1.4972   -3.3208    0.4599 H   0  0  0  0  0  0  0  0  0  0  0  0
   -0.9067   -3.0336   -1.1920 H   0  0  0  0  0  0  0  0  0  0  0  0
  1  2  1  0
  2  3  2  0
  3  4  1  0
  4  5  2  3
  5  6  1  0
  6  7  2  0
  7  8  1  0
  8  9  2  0
  9 10  1  0
  9 11  1  0
 11 12  2  0
 12 13  1  0
  4 14  1  0
 14 15  2  0
 15 16  1  0
 16 17  1  0
 17 18  1  0
 18 19  1  0
 19 20  1  0
 20 21  1  0
 20 22  1  0
 15 23  1  0
 23 24  2  0
 24 25  1  0
 25 26  1  0
 25  1  1  0
 24  3  1  0
 12  6  1  0
  1 27  1  0
  2 28  1  0
  7 29  1  0
  8 30  1  0
 10 31  1  0
 10 32  1  0
 10 33  1  0
 11 34  1  0
 13 35  1  0
 16 36  1  0
 17 37  1  0
 17 38  1  0
 18 39  1  0
 18 40  1  0
 19 41  1  0
 19 42  1  0
 20 43  1  0
 21 44  1  0
 21 45  1  0
 21 46  1  0
 22 47  1  0
 22 48  1  0
 22 49  1  0
 26 50  1  0
 26 51  1  0
 26 52  1  0
M  CHG  1  20   1
M  END
>  <ScrubInfo>  (6) 
{"isomerGroup": 0, "isomerId": 5, "confId": 0, "nr_conformers:": 1, "nr_isomers:": 9}

$$$$
_i6
     RDKit          3D

 52 54  0  0  0  0  0  0  0  0999 V2000
    2.6368    3.3040    1.4848 N   0  0  0  0  0  0  0  0  0  0  0  0
    2.8817    1.9437    1.3470 C   0  0  0  0  0  0  0  0  0  0  0  0
    1.7784    1.2440    1.0501 C   0  0  0  0  0  0  0  0  0  0  0  0
    1.3848   -0.1469    0.8296 C   0  0  0  0  0  0  0  0  0  0  0  0
    2.2682   -1.1964    0.8224 N   0  0  0  0  0  0  0  0  0  0  0  0
    3.4005   -1.3655   -0.0100 C   0  0  0  0  0  0  0  0  0  0  0  0
    3.8464   -0.4196   -0.9360 C   0  0  0  0  0  0  0  0  0  0  0  0
    5.0156   -0.6370   -1.6764 C   0  0  0  0  0  0  0  0  0  0  0  0
    5.7626   -1.8088   -1.5093 C   0  0  0  0  0  0  0  0  0  0  0  0
    7.0323   -2.0167   -2.2820 C   0  0  0  0  0  0  0  0  0  0  0  0
    5.3365   -2.7581   -0.5757 C   0  0  0  0  0  0  0  0  0  0  0  0
    4.1694   -2.5325    0.1545 C   0  0  0  0  0  0  0  0  0  0  0  0
    3.7269   -3.4689    1.0562 O   0  0  0  0  0  0  0  0  0  0  0  0
    0.1104   -0.4060    0.7005 N   0  0  0  0  0  0  0  0  0  0  0  0
   -0.7885    0.6338    0.7294 C   0  0  0  0  0  0  0  0  0  0  0  0
   -2.0156    0.2482    0.6449 N   0  0  0  0  0  0  0  0  0  0  0  0
   -3.0525    1.2707    0.6621 C   0  0  0  0  0  0  0  0  0  0  0  0
   -4.4031    0.5554    0.6553 C   0  0  0  0  0  0  0  0  0  0  0  0
   -4.5597   -0.3090   -0.5926 C   0  0  0  0  0  0  0  0  0  0  0  0
   -5.8173   -1.1591   -0.5046 N   0  0  0  0  0  4  0  0  0  0  0  0
   -5.7838   -2.2726   -1.5166 C   0  0  0  0  0  0  0  0  0  0  0  0
   -7.0899   -0.3697   -0.6028 C   0  0  0  0  0  0  0  0  0  0  0  0
   -0.5113    1.9769    0.8203 N   0  0  0  0  0  0  0  0  0  0  0  0
    0.7305    2.2853    0.9783 C   0  0  0  0  0  0  0  0  0  0  0  0
    1.3146    3.5442    1.1265 N   0  0  0  0  0  0  0  0  0  0  0  0
    0.6033    4.6295    1.7766 C   0  0  0  0  0  0  0  0  0  0  0  0
    3.3477    3.9014    1.0554 H   0  0  0  0  0  0  0  0  0  0  0  0
    3.8874    1.5701    1.4823 H   0  0  0  0  0  0  0  0  0  0  0  0
    1.8336   -2.1073    0.9629 H   0  0  0  0  0  0  0  0  0  0  0  0
    3.2899    0.4918   -1.1272 H   0  0  0  0  0  0  0  0  0  0  0  0
    5.3371    0.1178   -2.3920 H   0  0  0  0  0  0  0  0  0  0  0  0
    6.9786   -1.5284   -3.2607 H   0  0  0  0  0  0  0  0  0  0  0  0
    7.8798   -1.6039   -1.7263 H   0  0  0  0  0  0  0  0  0  0  0  0
    7.2107   -3.0823   -2.4606 H   0  0  0  0  0  0  0  0  0  0  0  0
    5.9155   -3.6656   -0.4300 H   0  0  0  0  0  0  0  0  0  0  0  0
    4.3972   -4.1700    1.1249 H   0  0  0  0  0  0  0  0  0  0  0  0
   -2.9895    1.8860    1.5676 H   0  0  0  0  0  0  0  0  0  0  0  0
   -2.9778    1.9216   -0.2173 H   0  0  0  0  0  0  0  0  0  0  0  0
   -4.4898   -0.0676    1.5543 H   0  0  0  0  0  0  0  0  0  0  0  0
   -5.1951    1.3101    0.7030 H   0  0  0  0  0  0  0  0  0  0  0  0
   -3.7259   -1.0113   -0.6923 H   0  0  0  0  0  0  0  0  0  0  0  0
   -4.6295    0.2932   -1.5052 H   0  0  0  0  0  0  0  0  0  0  0  0
   -5.7986   -1.6106    0.4199 H   0  0  0  0  0  0  0  0  0  0  0  0
   -6.6745   -2.8901   -1.3725 H   0  0  0  0  0  0  0  0  0  0  0  0
   -5.7689   -1.8329   -2.5175 H   0  0  0  0  0  0  0  0  0  0  0  0
   -4.8879   -2.8725   -1.3361 H   0  0  0  0  0  0  0  0  0  0  0  0
   -7.1416    0.3175    0.2439 H   0  0  0  0  0  0  0  0  0  0  0  0
   -7.0938    0.1714   -1.5527 H   0  0  0  0  0  0  0  0  0  0  0  0
   -7.9291   -1.0688   -0.5503 H   0  0  0  0  0  0  0  0  0  0  0  0
    1.1853    5.5550    1.7185 H   0  0  0  0  0  0  0  0  0  0  0  0
    0.4203    4.3984    2.8312 H   0  0  0  0  0  0  0  0  0  0  0  0
   -0.3583    4.8078    1.2848 H   0  0  0  0  0  0  0  0  0  0  0  0
  1  2  1  0
  2  3  2  0
  3  4  1  0
  4  5  1  0
  5  6  1  0
  6  7  2  0
  7  8  1  0
  8  9  2  0
  9 10  1  0
  9 11  1  0
 11 12  2  0
 12 13  1  0
  4 14  2  0
 14 15  1  0
 15 16  2  3
 16 17  1  0
 17 18  1  0
 18 19  1  0
 19 20  1  0
 20 21  1  0
 20 22  1  0
 15 23  1  0
 23 24  2  0
 24 25  1  0
 25 26  1  0
 25  1  1  0
 24  3  1  0
 12  6  1  0
  1 27  1  0
  2 28  1  0
  5 29  1  0
  7 30  1  0
  8 31  1  0
 10 32  1  0
 10 33  1  0
 10 34  1  0
 11 35  1  0
 13 36  1  0
 17 37  1  0
 17 38  1  0
 18 39  1  0
 18 40  1  0
 19 41  1  0
 19 42  1  0
 20 43  1  0
 21 44  1  0
 21 45  1  0
 21 46  1  0
 22 47  1  0
 22 48  1  0
 22 49  1  0
 26 50  1  0
 26 51  1  0
 26 52  1  0
M  CHG  1  20   1
M  END
>  <ScrubInfo>  (7) 
{"isomerGroup": 0, "isomerId": 6, "confId": 0, "nr_conformers:": 1, "nr_isomers:": 9}

$$$$
_i7
     RDKit          3D

 52 54  0  0  0  0  0  0  0  0999 V2000
   -1.5287    2.7972   -1.7248 N   0  0  0  0  0  0  0  0  0  0  0  0
   -2.1623    1.6368   -1.2983 C   0  0  0  0  0  0  0  0  0  0  0  0
   -1.3410    0.7789   -0.6773 C   0  0  0  0  0  0  0  0  0  0  0  0
   -1.3595   -0.5556   -0.0517 C   0  0  0  0  0  0  0  0  0  0  0  0
   -2.3468   -1.3885    0.1056 N   0  0  0  0  0  0  0  0  0  0  0  0
   -3.6226   -1.0745   -0.3912 C   0  0  0  0  0  0  0  0  0  0  0  0
   -3.9821   -1.3986   -1.6996 C   0  0  0  0  0  0  0  0  0  0  0  0
   -5.2558   -1.0752   -2.1795 C   0  0  0  0  0  0  0  0  0  0  0  0
   -6.1936   -0.4452   -1.3479 C   0  0  0  0  0  0  0  0  0  0  0  0
   -7.5483   -0.0733   -1.8759 C   0  0  0  0  0  0  0  0  0  0  0  0
   -5.8379   -0.1306   -0.0309 C   0  0  0  0  0  0  0  0  0  0  0  0
   -4.5719   -0.4631    0.4365 C   0  0  0  0  0  0  0  0  0  0  0  0
   -4.2593   -0.1793    1.7384 O   0  0  0  0  0  0  0  0  0  0  0  0
   -0.1284   -0.9349    0.4189 N   0  0  0  0  0  0  0  0  0  0  0  0
    1.0361   -0.2172    0.3538 C   0  0  0  0  0  0  0  0  0  0  0  0
    2.1942   -0.5864    0.7737 N   0  0  0  0  0  0  0  0  0  0  0  0
    2.3754   -1.8824    1.3999 C   0  0  0  0  0  0  0  0  0  0  0  0
    3.7729   -1.9075    2.0261 C   0  0  0  0  0  0  0  0  0  0  0  0
    4.8851   -1.6958    0.9949 C   0  0  0  0  0  0  0  0  0  0  0  0
    5.6503   -0.3974    1.1692 N   0  0  0  0  0  4  0  0  0  0  0  0
    6.4471   -0.3156    2.4365 C   0  0  0  0  0  0  0  0  0  0  0  0
    4.8118    0.8341    0.9378 C   0  0  0  0  0  0  0  0  0  0  0  0
    1.0722    1.0448   -0.1982 N   0  0  0  0  0  0  0  0  0  0  0  0
   -0.0365    1.5317   -0.6664 C   0  0  0  0  0  0  0  0  0  0  0  0
   -0.2332    2.7930   -1.2319 N   0  0  0  0  0  0  0  0  0  0  0  0
    0.8066    3.4572   -1.9933 C   0  0  0  0  0  0  0  0  0  0  0  0
   -2.0795    3.6451   -1.5633 H   0  0  0  0  0  0  0  0  0  0  0  0
   -3.2201    1.5339   -1.4941 H   0  0  0  0  0  0  0  0  0  0  0  0
   -3.2722   -1.9001   -2.3508 H   0  0  0  0  0  0  0  0  0  0  0  0
   -5.5162   -1.3256   -3.2063 H   0  0  0  0  0  0  0  0  0  0  0  0
   -8.2971   -0.0889   -1.0769 H   0  0  0  0  0  0  0  0  0  0  0  0
   -7.8769   -0.7828   -2.6425 H   0  0  0  0  0  0  0  0  0  0  0  0
   -7.5166    0.9299   -2.3119 H   0  0  0  0  0  0  0  0  0  0  0  0
   -6.5447    0.3560    0.6363 H   0  0  0  0  0  0  0  0  0  0  0  0
   -3.4290   -0.6651    1.9035 H   0  0  0  0  0  0  0  0  0  0  0  0
   -0.1092   -1.8581    0.8215 H   0  0  0  0  0  0  0  0  0  0  0  0
    2.2844   -2.6840    0.6580 H   0  0  0  0  0  0  0  0  0  0  0  0
    1.6370   -2.0529    2.1918 H   0  0  0  0  0  0  0  0  0  0  0  0
    3.8167   -1.1761    2.8393 H   0  0  0  0  0  0  0  0  0  0  0  0
    3.9102   -2.8932    2.4879 H   0  0  0  0  0  0  0  0  0  0  0  0
    4.5211   -1.7108   -0.0386 H   0  0  0  0  0  0  0  0  0  0  0  0
    5.6346   -2.4907    1.0851 H   0  0  0  0  0  0  0  0  0  0  0  0
    6.3364   -0.3939    0.4047 H   0  0  0  0  0  0  0  0  0  0  0  0
    7.1012    0.5578    2.3655 H   0  0  0  0  0  0  0  0  0  0  0  0
    7.0506   -1.2231    2.5202 H   0  0  0  0  0  0  0  0  0  0  0  0
    5.7681   -0.2155    3.2859 H   0  0  0  0  0  0  0  0  0  0  0  0
    4.3250    0.7382   -0.0353 H   0  0  0  0  0  0  0  0  0  0  0  0
    4.0970    0.9406    1.7561 H   0  0  0  0  0  0  0  0  0  0  0  0
    5.4887    1.6931    0.9182 H   0  0  0  0  0  0  0  0  0  0  0  0
    0.4933    4.4708   -2.2641 H   0  0  0  0  0  0  0  0  0  0  0  0
    1.0289    2.9043   -2.9120 H   0  0  0  0  0  0  0  0  0  0  0  0
    1.7246    3.5384   -1.4026 H   0  0  0  0  0  0  0  0  0  0  0  0
  1  2  1  0
  2  3  2  0
  3  4  1  0
  4  5  2  3
  5  6  1  0
  6  7  2  0
  7  8  1  0
  8  9  2  0
  9 10  1  0
  9 11  1  0
 11 12  2  0
 12 13  1  0
  4 14  1  0
 14 15  1  0
 15 16  2  3
 16 17  1  0
 17 18  1  0
 18 19  1  0
 19 20  1  0
 20 21  1  0
 20 22  1  0
 15 23  1  0
 23 24  2  0
 24 25  1  0
 25 26  1  0
 25  1  1  0
 24  3  1  0
 12  6  1  0
  1 27  1  0
  2 28  1  0
  7 29  1  0
  8 30  1  0
 10 31  1  0
 10 32  1  0
 10 33  1  0
 11 34  1  0
 13 35  1  0
 14 36  1  0
 17 37  1  0
 17 38  1  0
 18 39  1  0
 18 40  1  0
 19 41  1  0
 19 42  1  0
 20 43  1  0
 21 44  1  0
 21 45  1  0
 21 46  1  0
 22 47  1  0
 22 48  1  0
 22 49  1  0
 26 50  1  0
 26 51  1  0
 26 52  1  0
M  CHG  1  20   1
M  END
>  <ScrubInfo>  (8) 
{"isomerGroup": 0, "isomerId": 7, "confId": 0, "nr_conformers:": 1, "nr_isomers:": 9}

$$$$
_i8
     RDKit          3D

 52 54  0  0  0  0  0  0  0  0999 V2000
    1.0972   -2.1218   -0.4891 N   0  0  0  0  0  0  0  0  0  0  0  0
    0.6310   -0.8782   -0.0939 C   0  0  0  0  0  0  0  0  0  0  0  0
    1.4736   -0.0343    0.4261 N   0  0  0  0  0  0  0  0  0  0  0  0
    0.9113    1.2494    0.8796 C   0  0  0  0  0  0  0  0  0  0  0  0
    1.9905    2.0403    1.6229 C   0  0  0  0  0  0  0  0  0  0  0  0
    3.1912    2.3913    0.7457 C   0  0  0  0  0  0  0  0  0  0  0  0
    3.9101    1.1415    0.2943 N   0  0  0  0  0  4  0  0  0  0  0  0
    4.8350    0.5778    1.3305 C   0  0  0  0  0  0  0  0  0  0  0  0
    4.5846    1.3108   -1.0314 C   0  0  0  0  0  0  0  0  0  0  0  0
   -0.7253   -0.6974   -0.3207 N   0  0  0  0  0  0  0  0  0  0  0  0
   -1.6755   -1.5608   -0.8424 C   0  0  0  0  0  0  0  0  0  0  0  0
   -2.9447   -1.4039   -1.0314 N   0  0  0  0  0  0  0  0  0  0  0  0
   -3.5081   -0.1567   -0.7118 C   0  0  0  0  0  0  0  0  0  0  0  0
   -3.7542    0.7809   -1.7132 C   0  0  0  0  0  0  0  0  0  0  0  0
   -4.2741    2.0381   -1.3883 C   0  0  0  0  0  0  0  0  0  0  0  0
   -4.5683    2.3667   -0.0567 C   0  0  0  0  0  0  0  0  0  0  0  0
   -5.1088    3.7236    0.2890 C   0  0  0  0  0  0  0  0  0  0  0  0
   -4.3219    1.4259    0.9502 C   0  0  0  0  0  0  0  0  0  0  0  0
   -3.8167    0.1759    0.6130 C   0  0  0  0  0  0  0  0  0  0  0  0
   -3.6056   -0.7344    1.6123 O   0  0  0  0  0  0  0  0  0  0  0  0
   -1.0869   -2.8261   -1.1994 C   0  0  0  0  0  0  0  0  0  0  0  0
   -1.5677   -4.0241   -1.7463 C   0  0  0  0  0  0  0  0  0  0  0  0
   -0.5982   -4.9395   -1.8833 N   0  0  0  0  0  0  0  0  0  0  0  0
    0.5108   -4.3195   -1.4189 N   0  0  0  0  0  0  0  0  0  0  0  0
    1.7565   -5.0445   -1.4165 C   0  0  0  0  0  0  0  0  0  0  0  0
    0.2550   -3.0454   -1.0065 C   0  0  0  0  0  0  0  0  0  0  0  0
    2.0656   -2.3259   -0.2829 H   0  0  0  0  0  0  0  0  0  0  0  0
    0.5541    1.8313    0.0217 H   0  0  0  0  0  0  0  0  0  0  0  0
    0.0757    1.0837    1.5702 H   0  0  0  0  0  0  0  0  0  0  0  0
    1.5447    2.9738    1.9869 H   0  0  0  0  0  0  0  0  0  0  0  0
    2.3130    1.4822    2.5090 H   0  0  0  0  0  0  0  0  0  0  0  0
    3.9142    3.0202    1.2759 H   0  0  0  0  0  0  0  0  0  0  0  0
    2.8528    2.9249   -0.1497 H   0  0  0  0  0  0  0  0  0  0  0  0
    3.1505    0.4396    0.1619 H   0  0  0  0  0  0  0  0  0  0  0  0
    4.2670    0.3883    2.2436 H   0  0  0  0  0  0  0  0  0  0  0  0
    5.6371    1.2983    1.5109 H   0  0  0  0  0  0  0  0  0  0  0  0
    5.2377   -0.3643    0.9487 H   0  0  0  0  0  0  0  0  0  0  0  0
    3.8288    1.6040   -1.7649 H   0  0  0  0  0  0  0  0  0  0  0  0
    5.0214    0.3505   -1.3181 H   0  0  0  0  0  0  0  0  0  0  0  0
    5.3563    2.0790   -0.9335 H   0  0  0  0  0  0  0  0  0  0  0  0
   -1.1200    0.1810   -0.0218 H   0  0  0  0  0  0  0  0  0  0  0  0
   -3.5464    0.5326   -2.7509 H   0  0  0  0  0  0  0  0  0  0  0  0
   -4.4636    2.7560   -2.1845 H   0  0  0  0  0  0  0  0  0  0  0  0
   -5.7458    3.6757    1.1785 H   0  0  0  0  0  0  0  0  0  0  0  0
   -4.2837    4.4162    0.4813 H   0  0  0  0  0  0  0  0  0  0  0  0
   -5.7213    4.1196   -0.5278 H   0  0  0  0  0  0  0  0  0  0  0  0
   -4.5450    1.6518    1.9900 H   0  0  0  0  0  0  0  0  0  0  0  0
   -3.5881   -1.6047    1.1653 H   0  0  0  0  0  0  0  0  0  0  0  0
   -2.5777   -4.2726   -2.0490 H   0  0  0  0  0  0  0  0  0  0  0  0
    2.5701   -4.3866   -1.1047 H   0  0  0  0  0  0  0  0  0  0  0  0
    1.9468   -5.4096   -2.4291 H   0  0  0  0  0  0  0  0  0  0  0  0
    1.6652   -5.8806   -0.7188 H   0  0  0  0  0  0  0  0  0  0  0  0
  1  2  1  0
  2  3  2  3
  3  4  1  0
  4  5  1  0
  5  6  1  0
  6  7  1  0
  7  8  1  0
  7  9  1  0
  2 10  1  0
 10 11  1  0
 11 12  2  3
 12 13  1  0
 13 14  2  0
 14 15  1  0
 15 16  2  0
 16 17  1  0
 16 18  1  0
 18 19  2  0
 19 20  1  0
 11 21  1  0
 21 22  1  0
 22 23  2  0
 23 24  1  0
 24 25  1  0
 24 26  1  0
 26  1  1  0
 19 13  1  0
 26 21  2  0
  1 27  1  0
  4 28  1  0
  4 29  1  0
  5 30  1  0
  5 31  1  0
  6 32  1  0
  6 33  1  0
  7 34  1  0
  8 35  1  0
  8 36  1  0
  8 37  1  0
  9 38  1  0
  9 39  1  0
  9 40  1  0
 10 41  1  0
 14 42  1  0
 15 43  1  0
 17 44  1  0
 17 45  1  0
 17 46  1  0
 18 47  1  0
 20 48  1  0
 22 49  1  0
 25 50  1  0
 25 51  1  0
 25 52  1  0
M  CHG  1   7   1
M  END
>  <ScrubInfo>  (9) 
{"isomerGroup": 0, "isomerId": 8, "confId": 0, "nr_conformers:": 1, "nr_isomers:": 9}

$$$$
