_i0
     RDKit          3D

 54 56  0  0  0  0  0  0  0  0999 V2000
    7.4991    1.5701    0.4397 C   0  0  0  0  0  0  0  0  0  0  0  0
    7.2167    0.4586   -0.5609 C   0  0  0  0  0  0  0  0  0  0  0  0
    6.1827    0.8471   -1.6215 C   0  0  0  0  0  0  0  0  0  0  0  0
    4.7496    0.3941   -1.3177 C   0  0  0  0  0  0  0  0  0  0  0  0
    4.1373    1.0446   -0.0751 C   0  0  0  0  0  0  0  0  0  0  0  0
    2.6358    0.7696    0.0632 C   0  0  0  0  0  0  0  0  0  0  0  0
    2.4047   -0.6263    0.3920 N   0  0  0  0  0  0  0  0  0  0  0  0
    1.0643   -0.9864    0.4859 C   0  0  0  0  0  0  0  0  0  0  0  0
    0.1664   -0.0988    0.9551 N   0  0  0  0  0  0  0  0  0  0  0  0
   -1.1468   -0.4293    1.0399 C   0  0  0  0  0  0  0  0  0  0  0  0
   -2.0057    0.5474    1.5505 N   0  0  0  0  0  0  0  0  0  0  0  0
   -3.3002    0.9513    1.1651 C   0  0  0  0  0  0  0  0  0  0  0  0
   -3.9043    0.5095   -0.0203 C   0  0  0  0  0  0  0  0  0  0  0  0
   -5.2165    0.8793   -0.3739 C   0  0  0  0  0  0  0  0  0  0  0  0
   -5.7989    0.3705   -1.6655 C   0  0  0  0  0  0  0  0  0  0  0  0
   -5.9519    1.7215    0.4791 C   0  0  0  0  0  0  0  0  0  0  0  0
   -7.3564    2.1457    0.1476 C   0  0  0  0  0  0  0  0  0  0  0  0
   -5.3576    2.1751    1.6640 C   0  0  0  0  0  0  0  0  0  0  0  0
   -4.0540    1.7946    1.9998 C   0  0  0  0  0  0  0  0  0  0  0  0
   -3.3331    2.4631    3.6301 Br  0  0  0  0  0  0  0  0  0  0  0  0
   -1.5104   -1.7307    0.6860 C   0  0  0  0  0  0  0  0  0  0  0  0
   -2.6586   -2.5503    0.6853 C   0  0  0  0  0  0  0  0  0  0  0  0
   -2.4221   -3.7797    0.2119 N   0  0  0  0  0  0  0  0  0  0  0  0
   -1.0960   -3.7555   -0.0565 N   0  0  0  0  0  0  0  0  0  0  0  0
   -0.4544   -4.9418   -0.5642 C   0  0  0  0  0  0  0  0  0  0  0  0
   -0.5041   -2.5532    0.2190 C   0  0  0  0  0  0  0  0  0  0  0  0
    0.7909   -2.2325    0.0793 N   0  0  0  0  0  0  0  0  0  0  0  0
    8.2706    1.2498    1.1474 H   0  0  0  0  0  0  0  0  0  0  0  0
    6.6110    1.8411    1.0147 H   0  0  0  0  0  0  0  0  0  0  0  0
    7.8635    2.4687   -0.0687 H   0  0  0  0  0  0  0  0  0  0  0  0
    6.9130   -0.4534   -0.0348 H   0  0  0  0  0  0  0  0  0  0  0  0
    8.1614    0.2274   -1.0687 H   0  0  0  0  0  0  0  0  0  0  0  0
    6.2045    1.9272   -1.8093 H   0  0  0  0  0  0  0  0  0  0  0  0
    6.4742    0.3666   -2.5646 H   0  0  0  0  0  0  0  0  0  0  0  0
    4.7352   -0.6973   -1.2150 H   0  0  0  0  0  0  0  0  0  0  0  0
    4.1294    0.6340   -2.1905 H   0  0  0  0  0  0  0  0  0  0  0  0
    4.2836    2.1300   -0.1314 H   0  0  0  0  0  0  0  0  0  0  0  0
    4.6524    0.6885    0.8242 H   0  0  0  0  0  0  0  0  0  0  0  0
    2.1207    1.0443   -0.8658 H   0  0  0  0  0  0  0  0  0  0  0  0
    2.2525    1.4125    0.8655 H   0  0  0  0  0  0  0  0  0  0  0  0
    2.8240   -1.3035   -0.2350 H   0  0  0  0  0  0  0  0  0  0  0  0
   -1.4580    1.3149    1.9312 H   0  0  0  0  0  0  0  0  0  0  0  0
   -3.3419   -0.1130   -0.7121 H   0  0  0  0  0  0  0  0  0  0  0  0
   -6.0219    1.2064   -2.3360 H   0  0  0  0  0  0  0  0  0  0  0  0
   -6.7137   -0.1986   -1.4727 H   0  0  0  0  0  0  0  0  0  0  0  0
   -5.1032   -0.2956   -2.1868 H   0  0  0  0  0  0  0  0  0  0  0  0
   -7.3759    2.6887   -0.8026 H   0  0  0  0  0  0  0  0  0  0  0  0
   -8.0121    1.2716    0.0832 H   0  0  0  0  0  0  0  0  0  0  0  0
   -7.7677    2.8105    0.9146 H   0  0  0  0  0  0  0  0  0  0  0  0
   -5.9153    2.8280    2.3322 H   0  0  0  0  0  0  0  0  0  0  0  0
   -3.6605   -2.3000    1.0102 H   0  0  0  0  0  0  0  0  0  0  0  0
    0.5975   -4.7376   -0.7762 H   0  0  0  0  0  0  0  0  0  0  0  0
   -0.9639   -5.2426   -1.4832 H   0  0  0  0  0  0  0  0  0  0  0  0
   -0.5358   -5.7263    0.1923 H   0  0  0  0  0  0  0  0  0  0  0  0
  1  2  1  0
  2  3  1  0
  3  4  1  0
  4  5  1  0
  5  6  1  0
  6  7  1  0
  7  8  1  0
  8  9  2  0
  9 10  1  0
 10 11  1  0
 11 12  1  0
 12 13  2  0
 13 14  1  0
 14 15  1  0
 14 16  2  0
 16 17  1  0
 16 18  1  0
 18 19  2  0
 19 20  1  0
 10 21  2  0
 21 22  1  0
 22 23  2  0
 23 24  1  0
 24 25  1  0
 24 26  1  0
 26 27  2  0
 27  8  1  0
 19 12  1  0
 26 21  1  0
  1 28  1  0
  1 29  1  0
  1 30  1  0
  2 31  1  0
  2 32  1  0
  3 33  1  0
  3 34  1  0
  4 35  1  0
  4 36  1  0
  5 37  1  0
  5 38  1  0
  6 39  1  0
  6 40  1  0
  7 41  1  0
 11 42  1  0
 13 43  1  0
 15 44  1  0
 15 45  1  0
 15 46  1  0
 17 47  1  0
 17 48  1  0
 17 49  1  0
 18 50  1  0
 22 51  1  0
 25 52  1  0
 25 53  1  0
 25 54  1  0
M  END
>  <ScrubInfo>  (1) 
{"isomerGroup": 0, "isomerId": 0, "confId": 0, "nr_conformers:": 1, "nr_isomers:": 9}

$$$$
_i1
     RDKit          3D

 54 56  0  0  0  0  0  0  0  0999 V2000
   -0.1111    0.7225   -2.1664 N   0  0  0  0  0  0  0  0  0  0  0  0
    0.9121   -0.1955   -2.0512 C   0  0  0  0  0  0  0  0  0  0  0  0
    2.2048    0.1367   -2.3975 N   0  0  0  0  0  0  0  0  0  0  0  0
    3.3617    0.0945   -1.5780 C   0  0  0  0  0  0  0  0  0  0  0  0
    3.3219   -0.2954   -0.2307 C   0  0  0  0  0  0  0  0  0  0  0  0
    4.4885   -0.3934    0.5525 C   0  0  0  0  0  0  0  0  0  0  0  0
    4.3707   -0.8066    1.9956 C   0  0  0  0  0  0  0  0  0  0  0  0
    5.7371   -0.0971   -0.0235 C   0  0  0  0  0  0  0  0  0  0  0  0
    7.0116   -0.1868    0.7709 C   0  0  0  0  0  0  0  0  0  0  0  0
    5.7913    0.2879   -1.3695 C   0  0  0  0  0  0  0  0  0  0  0  0
    4.6231    0.3778   -2.1328 C   0  0  0  0  0  0  0  0  0  0  0  0
    4.7962    0.9085   -3.9529 Br  0  0  0  0  0  0  0  0  0  0  0  0
    0.5382   -1.4156   -1.6469 C   0  0  0  0  0  0  0  0  0  0  0  0
    1.1618   -2.7196   -1.3966 C   0  0  0  0  0  0  0  0  0  0  0  0
    0.3110   -3.6194   -0.9691 N   0  0  0  0  0  0  0  0  0  0  0  0
   -0.9396   -2.9799   -0.9682 N   0  0  0  0  0  0  0  0  0  0  0  0
   -2.0473   -3.6040   -0.2877 C   0  0  0  0  0  0  0  0  0  0  0  0
   -0.8865   -1.6425   -1.3241 C   0  0  0  0  0  0  0  0  0  0  0  0
   -1.8185   -0.7523   -1.3725 N   0  0  0  0  0  0  0  0  0  0  0  0
   -1.4098    0.4956   -1.7849 C   0  0  0  0  0  0  0  0  0  0  0  0
   -2.2317    1.4902   -1.8067 N   0  0  0  0  0  0  0  0  0  0  0  0
   -3.6245    1.2846   -1.4128 C   0  0  0  0  0  0  0  0  0  0  0  0
   -3.9030    1.9916   -0.0852 C   0  0  0  0  0  0  0  0  0  0  0  0
   -3.2210    1.3070    1.1031 C   0  0  0  0  0  0  0  0  0  0  0  0
   -3.4666    2.0172    2.4384 C   0  0  0  0  0  0  0  0  0  0  0  0
   -4.9273    2.1107    2.8855 C   0  0  0  0  0  0  0  0  0  0  0  0
   -5.6024    0.7578    3.0465 C   0  0  0  0  0  0  0  0  0  0  0  0
    0.1210    1.6844   -2.3600 H   0  0  0  0  0  0  0  0  0  0  0  0
    2.2673    0.8991   -3.0692 H   0  0  0  0  0  0  0  0  0  0  0  0
    2.3677   -0.5058    0.2463 H   0  0  0  0  0  0  0  0  0  0  0  0
    4.9588   -1.7108    2.1820 H   0  0  0  0  0  0  0  0  0  0  0  0
    3.3335   -1.0290    2.2681 H   0  0  0  0  0  0  0  0  0  0  0  0
    4.7192   -0.0015    2.6501 H   0  0  0  0  0  0  0  0  0  0  0  0
    6.9717    0.4871    1.6325 H   0  0  0  0  0  0  0  0  0  0  0  0
    7.8813    0.0998    0.1700 H   0  0  0  0  0  0  0  0  0  0  0  0
    7.1725   -1.2131    1.1158 H   0  0  0  0  0  0  0  0  0  0  0  0
    6.7518    0.5167   -1.8270 H   0  0  0  0  0  0  0  0  0  0  0  0
    2.2376   -2.8754   -1.5482 H   0  0  0  0  0  0  0  0  0  0  0  0
   -2.0294   -3.3532    0.7775 H   0  0  0  0  0  0  0  0  0  0  0  0
   -3.0017   -3.2709   -0.7078 H   0  0  0  0  0  0  0  0  0  0  0  0
   -2.0008   -4.6933   -0.3879 H   0  0  0  0  0  0  0  0  0  0  0  0
   -4.2525    1.7414   -2.1869 H   0  0  0  0  0  0  0  0  0  0  0  0
   -3.9366    0.2359   -1.3606 H   0  0  0  0  0  0  0  0  0  0  0  0
   -4.9877    2.0003    0.0686 H   0  0  0  0  0  0  0  0  0  0  0  0
   -3.5759    3.0368   -0.1452 H   0  0  0  0  0  0  0  0  0  0  0  0
   -2.1373    1.2834    0.9371 H   0  0  0  0  0  0  0  0  0  0  0  0
   -3.5452    0.2621    1.1676 H   0  0  0  0  0  0  0  0  0  0  0  0
   -2.8930    1.4964    3.2155 H   0  0  0  0  0  0  0  0  0  0  0  0
   -3.0549    3.0327    2.3818 H   0  0  0  0  0  0  0  0  0  0  0  0
   -4.9581    2.6318    3.8502 H   0  0  0  0  0  0  0  0  0  0  0  0
   -5.5029    2.7265    2.1860 H   0  0  0  0  0  0  0  0  0  0  0  0
   -5.0326    0.1119    3.7219 H   0  0  0  0  0  0  0  0  0  0  0  0
   -6.6052    0.8862    3.4664 H   0  0  0  0  0  0  0  0  0  0  0  0
   -5.7096    0.2465    2.0854 H   0  0  0  0  0  0  0  0  0  0  0  0
  1  2  1  0
  2  3  1  0
  3  4  1  0
  4  5  2  0
  5  6  1  0
  6  7  1  0
  6  8  2  0
  8  9  1  0
  8 10  1  0
 10 11  2  0
 11 12  1  0
  2 13  2  0
 13 14  1  0
 14 15  2  0
 15 16  1  0
 16 17  1  0
 16 18  1  0
 18 19  2  0
 19 20  1  0
 20 21  2  3
 21 22  1  0
 22 23  1  0
 23 24  1  0
 24 25  1  0
 25 26  1  0
 26 27  1  0
 20  1  1  0
 11  4  1  0
 18 13  1  0
  1 28  1  0
  3 29  1  0
  5 30  1  0
  7 31  1  0
  7 32  1  0
  7 33  1  0
  9 34  1  0
  9 35  1  0
  9 36  1  0
 10 37  1  0
 14 38  1  0
 17 39  1  0
 17 40  1  0
 17 41  1  0
 22 42  1  0
 22 43  1  0
 23 44  1  0
 23 45  1  0
 24 46  1  0
 24 47  1  0
 25 48  1  0
 25 49  1  0
 26 50  1  0
 26 51  1  0
 27 52  1  0
 27 53  1  0
 27 54  1  0
M  END
>  <ScrubInfo>  (2) 
{"isomerGroup": 0, "isomerId": 1, "confId": 0, "nr_conformers:": 1, "nr_isomers:": 9}

$$$$
_i2
     RDKit          3D

 54 56  0  0  0  0  0  0  0  0999 V2000
    0.0514    0.5046    1.1275 N   0  0  0  0  0  0  0  0  0  0  0  0
    1.1202   -0.2824    0.7692 C   0  0  0  0  0  0  0  0  0  0  0  0
    2.3126    0.1938    1.2456 N   0  0  0  0  0  0  0  0  0  0  0  0
    3.5842   -0.4158    0.8831 C   0  0  0  0  0  0  0  0  0  0  0  0
    4.0372    0.0637   -0.4975 C   0  0  0  0  0  0  0  0  0  0  0  0
    5.4118   -0.4792   -0.8947 C   0  0  0  0  0  0  0  0  0  0  0  0
    6.5883    0.4803   -0.6750 C   0  0  0  0  0  0  0  0  0  0  0  0
    6.9404    0.7709    0.7850 C   0  0  0  0  0  0  0  0  0  0  0  0
    6.3102    2.0510    1.3140 C   0  0  0  0  0  0  0  0  0  0  0  0
    1.0080   -1.3741    0.0578 N   0  0  0  0  0  0  0  0  0  0  0  0
   -0.2852   -1.6212   -0.2926 C   0  0  0  0  0  0  0  0  0  0  0  0
   -1.4211   -0.8926    0.0252 C   0  0  0  0  0  0  0  0  0  0  0  0
   -2.4674   -1.5901   -0.6038 C   0  0  0  0  0  0  0  0  0  0  0  0
   -2.0442   -2.6728   -1.2690 N   0  0  0  0  0  0  0  0  0  0  0  0
   -0.7089   -2.6738   -1.0535 N   0  0  0  0  0  0  0  0  0  0  0  0
    0.0979   -3.7226   -1.6240 C   0  0  0  0  0  0  0  0  0  0  0  0
   -1.2788    0.2947    0.8443 C   0  0  0  0  0  0  0  0  0  0  0  0
   -2.2001    1.0913    1.2950 N   0  0  0  0  0  0  0  0  0  0  0  0
   -3.5607    0.8683    1.0426 C   0  0  0  0  0  0  0  0  0  0  0  0
   -4.1510    1.5001   -0.0587 C   0  0  0  0  0  0  0  0  0  0  0  0
   -5.5150    1.3373   -0.3564 C   0  0  0  0  0  0  0  0  0  0  0  0
   -6.0904    2.0257   -1.5641 C   0  0  0  0  0  0  0  0  0  0  0  0
   -6.3111    0.5312    0.4801 C   0  0  0  0  0  0  0  0  0  0  0  0
   -7.7759    0.3226    0.2066 C   0  0  0  0  0  0  0  0  0  0  0  0
   -5.7283   -0.0785    1.6025 C   0  0  0  0  0  0  0  0  0  0  0  0
   -4.3700    0.0944    1.8849 C   0  0  0  0  0  0  0  0  0  0  0  0
   -3.6627   -0.7574    3.4286 Br  0  0  0  0  0  0  0  0  0  0  0  0
    0.2096    1.2338    1.8025 H   0  0  0  0  0  0  0  0  0  0  0  0
    2.3704    1.1990    1.3491 H   0  0  0  0  0  0  0  0  0  0  0  0
    4.3165   -0.1387    1.6460 H   0  0  0  0  0  0  0  0  0  0  0  0
    3.5103   -1.5095    0.9092 H   0  0  0  0  0  0  0  0  0  0  0  0
    4.0177    1.1580   -0.5598 H   0  0  0  0  0  0  0  0  0  0  0  0
    3.3067   -0.2885   -1.2374 H   0  0  0  0  0  0  0  0  0  0  0  0
    5.3815   -0.6961   -1.9708 H   0  0  0  0  0  0  0  0  0  0  0  0
    5.6106   -1.4375   -0.4002 H   0  0  0  0  0  0  0  0  0  0  0  0
    7.4662    0.0091   -1.1367 H   0  0  0  0  0  0  0  0  0  0  0  0
    6.4211    1.4127   -1.2274 H   0  0  0  0  0  0  0  0  0  0  0  0
    6.6805   -0.0774    1.4272 H   0  0  0  0  0  0  0  0  0  0  0  0
    8.0287    0.8909    0.8581 H   0  0  0  0  0  0  0  0  0  0  0  0
    5.2192    2.0123    1.2952 H   0  0  0  0  0  0  0  0  0  0  0  0
    6.6296    2.9151    0.7223 H   0  0  0  0  0  0  0  0  0  0  0  0
    6.6212    2.2214    2.3497 H   0  0  0  0  0  0  0  0  0  0  0  0
   -3.5258   -1.3719   -0.6218 H   0  0  0  0  0  0  0  0  0  0  0  0
    1.1350   -3.6208   -1.2975 H   0  0  0  0  0  0  0  0  0  0  0  0
    0.0416   -3.6442   -2.7127 H   0  0  0  0  0  0  0  0  0  0  0  0
   -0.2999   -4.6843   -1.2897 H   0  0  0  0  0  0  0  0  0  0  0  0
   -3.5268    2.1262   -0.6933 H   0  0  0  0  0  0  0  0  0  0  0  0
   -6.9073    2.6921   -1.2698 H   0  0  0  0  0  0  0  0  0  0  0  0
   -5.3383    2.6351   -2.0763 H   0  0  0  0  0  0  0  0  0  0  0  0
   -6.4611    1.2865   -2.2811 H   0  0  0  0  0  0  0  0  0  0  0  0
   -7.9205   -0.1067   -0.7898 H   0  0  0  0  0  0  0  0  0  0  0  0
   -8.3137    1.2733    0.2772 H   0  0  0  0  0  0  0  0  0  0  0  0
   -8.2256   -0.3677    0.9282 H   0  0  0  0  0  0  0  0  0  0  0  0
   -6.3390   -0.6917    2.2621 H   0  0  0  0  0  0  0  0  0  0  0  0
  1  2  1  0
  2  3  1  0
  3  4  1  0
  4  5  1  0
  5  6  1  0
  6  7  1  0
  7  8  1  0
  8  9  1  0
  2 10  2  0
 10 11  1  0
 11 12  2  0
 12 13  1  0
 13 14  2  0
 14 15  1  0
 15 16  1  0
 12 17  1  0
 17 18  2  3
 18 19  1  0
 19 20  2  0
 20 21  1  0
 21 22  1  0
 21 23  2  0
 23 24  1  0
 23 25  1  0
 25 26  2  0
 26 27  1  0
 17  1  1  0
 26 19  1  0
 15 11  1  0
  1 28  1  0
  3 29  1  0
  4 30  1  0
  4 31  1  0
  5 32  1  0
  5 33  1  0
  6 34  1  0
  6 35  1  0
  7 36  1  0
  7 37  1  0
  8 38  1  0
  8 39  1  0
  9 40  1  0
  9 41  1  0
  9 42  1  0
 13 43  1  0
 16 44  1  0
 16 45  1  0
 16 46  1  0
 20 47  1  0
 22 48  1  0
 22 49  1  0
 22 50  1  0
 24 51  1  0
 24 52  1  0
 24 53  1  0
 25 54  1  0
M  END
>  <ScrubInfo>  (3) 
{"isomerGroup": 0, "isomerId": 2, "confId": 0, "nr_conformers:": 1, "nr_isomers:": 9}

$$$$
_i3
     RDKit          3D

 54 56  0  0  0  0  0  0  0  0999 V2000
   -0.6224   -1.3245   -0.3044 N   0  0  0  0  0  0  0  0  0  0  0  0
   -0.9894   -0.0029   -0.0995 C   0  0  0  0  0  0  0  0  0  0  0  0
   -2.0980    0.4124    0.3992 N   0  0  0  0  0  0  0  0  0  0  0  0
   -3.1238   -0.5171    0.8513 C   0  0  0  0  0  0  0  0  0  0  0  0
   -4.0498   -0.8724   -0.3107 C   0  0  0  0  0  0  0  0  0  0  0  0
   -5.1289   -1.8886    0.0624 C   0  0  0  0  0  0  0  0  0  0  0  0
   -6.1241   -1.4651    1.1485 C   0  0  0  0  0  0  0  0  0  0  0  0
   -7.0426   -0.3020    0.7616 C   0  0  0  0  0  0  0  0  0  0  0  0
   -6.5337    1.0574    1.2169 C   0  0  0  0  0  0  0  0  0  0  0  0
   -0.1377    1.0381   -0.4438 N   0  0  0  0  0  0  0  0  0  0  0  0
    1.0331    0.7781   -0.9498 C   0  0  0  0  0  0  0  0  0  0  0  0
    1.9154    1.7496   -1.3383 N   0  0  0  0  0  0  0  0  0  0  0  0
    3.1785    2.0047   -0.7307 C   0  0  0  0  0  0  0  0  0  0  0  0
    3.6770    1.2368    0.3327 C   0  0  0  0  0  0  0  0  0  0  0  0
    4.9471    1.4765    0.8920 C   0  0  0  0  0  0  0  0  0  0  0  0
    5.4186    0.6178    2.0353 C   0  0  0  0  0  0  0  0  0  0  0  0
    5.7469    2.5133    0.3777 C   0  0  0  0  0  0  0  0  0  0  0  0
    7.1101    2.8088    0.9412 C   0  0  0  0  0  0  0  0  0  0  0  0
    5.2594    3.2863   -0.6845 C   0  0  0  0  0  0  0  0  0  0  0  0
    3.9970    3.0336   -1.2299 C   0  0  0  0  0  0  0  0  0  0  0  0
    3.4211    4.1363   -2.6702 Br  0  0  0  0  0  0  0  0  0  0  0  0
    1.4328   -0.5829   -1.2179 C   0  0  0  0  0  0  0  0  0  0  0  0
    2.5196   -1.2508   -1.8016 C   0  0  0  0  0  0  0  0  0  0  0  0
    2.3587   -2.5839   -1.7966 N   0  0  0  0  0  0  0  0  0  0  0  0
    1.1434   -2.7626   -1.2221 N   0  0  0  0  0  0  0  0  0  0  0  0
    0.6320   -4.1005   -1.0680 C   0  0  0  0  0  0  0  0  0  0  0  0
    0.5685   -1.5829   -0.8709 C   0  0  0  0  0  0  0  0  0  0  0  0
   -1.3056   -2.0337   -0.0894 H   0  0  0  0  0  0  0  0  0  0  0  0
   -3.6900   -0.0186    1.6448 H   0  0  0  0  0  0  0  0  0  0  0  0
   -2.6983   -1.4157    1.3123 H   0  0  0  0  0  0  0  0  0  0  0  0
   -4.5051    0.0333   -0.7254 H   0  0  0  0  0  0  0  0  0  0  0  0
   -3.4542   -1.2995   -1.1276 H   0  0  0  0  0  0  0  0  0  0  0  0
   -5.6874   -2.1500   -0.8453 H   0  0  0  0  0  0  0  0  0  0  0  0
   -4.6372   -2.8131    0.3913 H   0  0  0  0  0  0  0  0  0  0  0  0
   -6.7641   -2.3367    1.3405 H   0  0  0  0  0  0  0  0  0  0  0  0
   -5.6090   -1.2611    2.0936 H   0  0  0  0  0  0  0  0  0  0  0  0
   -8.0163   -0.4623    1.2414 H   0  0  0  0  0  0  0  0  0  0  0  0
   -7.2253   -0.2919   -0.3187 H   0  0  0  0  0  0  0  0  0  0  0  0
   -7.2738    1.8302    0.9847 H   0  0  0  0  0  0  0  0  0  0  0  0
   -5.6016    1.3347    0.7207 H   0  0  0  0  0  0  0  0  0  0  0  0
   -6.3642    1.0703    2.2984 H   0  0  0  0  0  0  0  0  0  0  0  0
    1.4351    2.6445   -1.4241 H   0  0  0  0  0  0  0  0  0  0  0  0
    3.0707    0.4422    0.7624 H   0  0  0  0  0  0  0  0  0  0  0  0
    4.6825   -0.1512    2.2927 H   0  0  0  0  0  0  0  0  0  0  0  0
    5.5817    1.2304    2.9275 H   0  0  0  0  0  0  0  0  0  0  0  0
    6.3479    0.1051    1.7679 H   0  0  0  0  0  0  0  0  0  0  0  0
    7.0356    3.0669    2.0023 H   0  0  0  0  0  0  0  0  0  0  0  0
    7.7672    1.9419    0.8204 H   0  0  0  0  0  0  0  0  0  0  0  0
    7.5823    3.6544    0.4298 H   0  0  0  0  0  0  0  0  0  0  0  0
    5.8695    4.0905   -1.0909 H   0  0  0  0  0  0  0  0  0  0  0  0
    3.4220   -0.8323   -2.2287 H   0  0  0  0  0  0  0  0  0  0  0  0
   -0.3144   -4.0773   -0.5238 H   0  0  0  0  0  0  0  0  0  0  0  0
    1.3641   -4.6883   -0.5085 H   0  0  0  0  0  0  0  0  0  0  0  0
    0.4792   -4.5262   -2.0628 H   0  0  0  0  0  0  0  0  0  0  0  0
  1  2  1  0
  2  3  2  3
  3  4  1  0
  4  5  1  0
  5  6  1  0
  6  7  1  0
  7  8  1  0
  8  9  1  0
  2 10  1  0
 10 11  2  0
 11 12  1  0
 12 13  1  0
 13 14  2  0
 14 15  1  0
 15 16  1  0
 15 17  2  0
 17 18  1  0
 17 19  1  0
 19 20  2  0
 20 21  1  0
 11 22  1  0
 22 23  1  0
 23 24  2  0
 24 25  1  0
 25 26  1  0
 25 27  1  0
 27  1  1  0
 20 13  1  0
 27 22  2  0
  1 28  1  0
  4 29  1  0
  4 30  1  0
  5 31  1  0
  5 32  1  0
  6 33  1  0
  6 34  1  0
  7 35  1  0
  7 36  1  0
  8 37  1  0
  8 38  1  0
  9 39  1  0
  9 40  1  0
  9 41  1  0
 12 42  1  0
 14 43  1  0
 16 44  1  0
 16 45  1  0
 16 46  1  0
 18 47  1  0
 18 48  1  0
 18 49  1  0
 19 50  1  0
 23 51  1  0
 26 52  1  0
 26 53  1  0
 26 54  1  0
M  END
>  <ScrubInfo>  (4) 
{"isomerGroup": 0, "isomerId": 3, "confId": 0, "nr_conformers:": 1, "nr_isomers:": 9}

$$$$
_i4
     RDKit          3D

 54 56  0  0  0  0  0  0  0  0999 V2000
   -1.5206   -5.5379   -1.1919 N   0  0  0  0  0  0  0  0  0  0  0  0
   -2.1933   -4.5461   -0.4846 C   0  0  0  0  0  0  0  0  0  0  0  0
   -1.5553   -3.3692   -0.5070 C   0  0  0  0  0  0  0  0  0  0  0  0
   -1.7637   -2.0351    0.0033 C   0  0  0  0  0  0  0  0  0  0  0  0
   -2.7738   -1.7283    0.7565 N   0  0  0  0  0  0  0  0  0  0  0  0
   -2.8722   -0.4020    1.2203 C   0  0  0  0  0  0  0  0  0  0  0  0
   -3.6823    0.4954    0.5137 C   0  0  0  0  0  0  0  0  0  0  0  0
   -3.8413    1.8298    0.9267 C   0  0  0  0  0  0  0  0  0  0  0  0
   -4.7147    2.7487    0.1175 C   0  0  0  0  0  0  0  0  0  0  0  0
   -3.1760    2.2759    2.0847 C   0  0  0  0  0  0  0  0  0  0  0  0
   -3.3120    3.6925    2.5716 C   0  0  0  0  0  0  0  0  0  0  0  0
   -2.3775    1.3741    2.8061 C   0  0  0  0  0  0  0  0  0  0  0  0
   -2.2309    0.0492    2.3813 C   0  0  0  0  0  0  0  0  0  0  0  0
   -1.1441   -1.1057    3.4296 Br  0  0  0  0  0  0  0  0  0  0  0  0
   -0.8092   -1.1316   -0.3773 N   0  0  0  0  0  0  0  0  0  0  0  0
    0.2269   -1.4623   -1.0879 C   0  0  0  0  0  0  0  0  0  0  0  0
    1.1559   -0.5231   -1.4360 N   0  0  0  0  0  0  0  0  0  0  0  0
    1.2855    0.7241   -0.7096 C   0  0  0  0  0  0  0  0  0  0  0  0
    2.3237    1.6371   -1.3639 C   0  0  0  0  0  0  0  0  0  0  0  0
    3.7683    1.1223   -1.3338 C   0  0  0  0  0  0  0  0  0  0  0  0
    4.3282    0.7883    0.0526 C   0  0  0  0  0  0  0  0  0  0  0  0
    4.2901    1.9282    1.0730 C   0  0  0  0  0  0  0  0  0  0  0  0
    5.0973    3.1462    0.6514 C   0  0  0  0  0  0  0  0  0  0  0  0
    0.5125   -2.7250   -1.5419 N   0  0  0  0  0  0  0  0  0  0  0  0
   -0.3312   -3.6576   -1.2635 C   0  0  0  0  0  0  0  0  0  0  0  0
   -0.2900   -5.0153   -1.5882 N   0  0  0  0  0  0  0  0  0  0  0  0
    0.2927   -5.4631   -2.8383 C   0  0  0  0  0  0  0  0  0  0  0  0
   -1.4890   -6.4317   -0.6959 H   0  0  0  0  0  0  0  0  0  0  0  0
   -3.1247   -4.7775    0.0130 H   0  0  0  0  0  0  0  0  0  0  0  0
   -4.1894    0.1366   -0.3793 H   0  0  0  0  0  0  0  0  0  0  0  0
   -5.5255    3.1464    0.7361 H   0  0  0  0  0  0  0  0  0  0  0  0
   -4.1230    3.5762   -0.2865 H   0  0  0  0  0  0  0  0  0  0  0  0
   -5.1737    2.2264   -0.7287 H   0  0  0  0  0  0  0  0  0  0  0  0
   -2.9823    4.3944    1.7991 H   0  0  0  0  0  0  0  0  0  0  0  0
   -2.6988    3.8729    3.4610 H   0  0  0  0  0  0  0  0  0  0  0  0
   -4.3523    3.9037    2.8382 H   0  0  0  0  0  0  0  0  0  0  0  0
   -1.8681    1.7060    3.7079 H   0  0  0  0  0  0  0  0  0  0  0  0
    2.0175   -0.9593   -1.7368 H   0  0  0  0  0  0  0  0  0  0  0  0
    0.3231    1.2502   -0.7138 H   0  0  0  0  0  0  0  0  0  0  0  0
    1.5409    0.5275    0.3369 H   0  0  0  0  0  0  0  0  0  0  0  0
    2.0435    1.8068   -2.4115 H   0  0  0  0  0  0  0  0  0  0  0  0
    2.2823    2.6179   -0.8755 H   0  0  0  0  0  0  0  0  0  0  0  0
    3.8481    0.2267   -1.9615 H   0  0  0  0  0  0  0  0  0  0  0  0
    4.4109    1.8711   -1.8126 H   0  0  0  0  0  0  0  0  0  0  0  0
    5.3677    0.4577   -0.0685 H   0  0  0  0  0  0  0  0  0  0  0  0
    3.7881   -0.0716    0.4660 H   0  0  0  0  0  0  0  0  0  0  0  0
    4.6952    1.5544    2.0212 H   0  0  0  0  0  0  0  0  0  0  0  0
    3.2561    2.2270    1.2759 H   0  0  0  0  0  0  0  0  0  0  0  0
    6.1329    2.8725    0.4265 H   0  0  0  0  0  0  0  0  0  0  0  0
    4.6664    3.6272   -0.2315 H   0  0  0  0  0  0  0  0  0  0  0  0
    5.1102    3.8857    1.4585 H   0  0  0  0  0  0  0  0  0  0  0  0
    1.3225   -5.1041   -2.9336 H   0  0  0  0  0  0  0  0  0  0  0  0
    0.3154   -6.5570   -2.8774 H   0  0  0  0  0  0  0  0  0  0  0  0
   -0.2870   -5.0962   -3.6918 H   0  0  0  0  0  0  0  0  0  0  0  0
  1  2  1  0
  2  3  2  0
  3  4  1  0
  4  5  2  3
  5  6  1  0
  6  7  2  0
  7  8  1  0
  8  9  1  0
  8 10  2  0
 10 11  1  0
 10 12  1  0
 12 13  2  0
 13 14  1  0
  4 15  1  0
 15 16  2  0
 16 17  1  0
 17 18  1  0
 18 19  1  0
 19 20  1  0
 20 21  1  0
 21 22  1  0
 22 23  1  0
 16 24  1  0
 24 25  2  0
 25 26  1  0
 26 27  1  0
 26  1  1  0
 25  3  1  0
 13  6  1  0
  1 28  1  0
  2 29  1  0
  7 30  1  0
  9 31  1  0
  9 32  1  0
  9 33  1  0
 11 34  1  0
 11 35  1  0
 11 36  1  0
 12 37  1  0
 17 38  1  0
 18 39  1  0
 18 40  1  0
 19 41  1  0
 19 42  1  0
 20 43  1  0
 20 44  1  0
 21 45  1  0
 21 46  1  0
 22 47  1  0
 22 48  1  0
 23 49  1  0
 23 50  1  0
 23 51  1  0
 27 52  1  0
 27 53  1  0
 27 54  1  0
M  END
>  <ScrubInfo>  (5) 
{"isomerGroup": 0, "isomerId": 4, "confId": 0, "nr_conformers:": 1, "nr_isomers:": 9}

$$$$
_i5
     RDKit          3D

 54 56  0  0  0  0  0  0  0  0999 V2000
   -0.7580    0.0161    1.8520 N   0  0  0  0  0  0  0  0  0  0  0  0
   -1.0570    0.8164    0.7784 C   0  0  0  0  0  0  0  0  0  0  0  0
   -2.3538    1.2382    0.7060 N   0  0  0  0  0  0  0  0  0  0  0  0
   -3.4881    0.3256    0.7844 C   0  0  0  0  0  0  0  0  0  0  0  0
   -3.5310   -0.5982   -0.4356 C   0  0  0  0  0  0  0  0  0  0  0  0
   -4.7494   -1.5272   -0.4383 C   0  0  0  0  0  0  0  0  0  0  0  0
   -5.9194   -1.0443   -1.3025 C   0  0  0  0  0  0  0  0  0  0  0  0
   -6.5489    0.2649   -0.8317 C   0  0  0  0  0  0  0  0  0  0  0  0
   -7.7959    0.6018   -1.6356 C   0  0  0  0  0  0  0  0  0  0  0  0
   -0.2139    1.2028   -0.1359 N   0  0  0  0  0  0  0  0  0  0  0  0
    1.1057    0.7692   -0.0876 C   0  0  0  0  0  0  0  0  0  0  0  0
    1.8523    1.1192   -1.0865 N   0  0  0  0  0  0  0  0  0  0  0  0
    3.1923    0.7304   -1.1956 C   0  0  0  0  0  0  0  0  0  0  0  0
    4.1821    1.6233   -0.7665 C   0  0  0  0  0  0  0  0  0  0  0  0
    5.5489    1.3114   -0.8653 C   0  0  0  0  0  0  0  0  0  0  0  0
    6.5660    2.3055   -0.3751 C   0  0  0  0  0  0  0  0  0  0  0  0
    5.9347    0.0772   -1.4230 C   0  0  0  0  0  0  0  0  0  0  0  0
    7.3836   -0.3057   -1.5553 C   0  0  0  0  0  0  0  0  0  0  0  0
    4.9456   -0.8066   -1.8833 C   0  0  0  0  0  0  0  0  0  0  0  0
    3.5897   -0.4804   -1.7783 C   0  0  0  0  0  0  0  0  0  0  0  0
    2.3189   -1.7320   -2.4329 Br  0  0  0  0  0  0  0  0  0  0  0  0
    1.4884   -0.0189    1.0733 C   0  0  0  0  0  0  0  0  0  0  0  0
    2.6593   -0.5822    1.6129 C   0  0  0  0  0  0  0  0  0  0  0  0
    2.4447   -1.2208    2.7748 N   0  0  0  0  0  0  0  0  0  0  0  0
    1.1175   -1.0695    2.9829 N   0  0  0  0  0  0  0  0  0  0  0  0
    0.5222   -1.6470    4.1606 C   0  0  0  0  0  0  0  0  0  0  0  0
    0.5252   -0.3573    1.9904 C   0  0  0  0  0  0  0  0  0  0  0  0
   -1.4388   -0.0213    2.5975 H   0  0  0  0  0  0  0  0  0  0  0  0
   -2.4380    1.8496   -0.1057 H   0  0  0  0  0  0  0  0  0  0  0  0
   -3.4473   -0.2626    1.7079 H   0  0  0  0  0  0  0  0  0  0  0  0
   -4.3975    0.9298    0.8430 H   0  0  0  0  0  0  0  0  0  0  0  0
   -2.6279   -1.2225   -0.4240 H   0  0  0  0  0  0  0  0  0  0  0  0
   -3.4851   -0.0162   -1.3640 H   0  0  0  0  0  0  0  0  0  0  0  0
   -4.4319   -2.4963   -0.8449 H   0  0  0  0  0  0  0  0  0  0  0  0
   -5.0926   -1.7227    0.5846 H   0  0  0  0  0  0  0  0  0  0  0  0
   -5.5837   -0.9362   -2.3414 H   0  0  0  0  0  0  0  0  0  0  0  0
   -6.6849   -1.8305   -1.3035 H   0  0  0  0  0  0  0  0  0  0  0  0
   -5.8342    1.0873   -0.9411 H   0  0  0  0  0  0  0  0  0  0  0  0
   -6.8143    0.1933    0.2291 H   0  0  0  0  0  0  0  0  0  0  0  0
   -8.2261    1.5466   -1.2890 H   0  0  0  0  0  0  0  0  0  0  0  0
   -7.5603    0.7054   -2.6996 H   0  0  0  0  0  0  0  0  0  0  0  0
   -8.5565   -0.1778   -1.5259 H   0  0  0  0  0  0  0  0  0  0  0  0
    3.8694    2.5791   -0.3497 H   0  0  0  0  0  0  0  0  0  0  0  0
    6.0892    3.2166    0.0017 H   0  0  0  0  0  0  0  0  0  0  0  0
    7.2358    2.5983   -1.1898 H   0  0  0  0  0  0  0  0  0  0  0  0
    7.1516    1.8765    0.4440 H   0  0  0  0  0  0  0  0  0  0  0  0
    7.8729   -0.2916   -0.5763 H   0  0  0  0  0  0  0  0  0  0  0  0
    7.4971   -1.3160   -1.9625 H   0  0  0  0  0  0  0  0  0  0  0  0
    7.8977    0.3846   -2.2314 H   0  0  0  0  0  0  0  0  0  0  0  0
    5.2351   -1.7552   -2.3306 H   0  0  0  0  0  0  0  0  0  0  0  0
    3.6709   -0.5592    1.2319 H   0  0  0  0  0  0  0  0  0  0  0  0
   -0.5665   -1.6029    4.0868 H   0  0  0  0  0  0  0  0  0  0  0  0
    0.8626   -1.0786    5.0295 H   0  0  0  0  0  0  0  0  0  0  0  0
    0.8410   -2.6898    4.2370 H   0  0  0  0  0  0  0  0  0  0  0  0
  1  2  1  0
  2  3  1  0
  3  4  1  0
  4  5  1  0
  5  6  1  0
  6  7  1  0
  7  8  1  0
  8  9  1  0
  2 10  2  0
 10 11  1  0
 11 12  2  3
 12 13  1  0
 13 14  2  0
 14 15  1  0
 15 16  1  0
 15 17  2  0
 17 18  1  0
 17 19  1  0
 19 20  2  0
 20 21  1  0
 11 22  1  0
 22 23  1  0
 23 24  2  0
 24 25  1  0
 25 26  1  0
 25 27  1  0
 27  1  1  0
 20 13  1  0
 27 22  2  0
  1 28  1  0
  3 29  1  0
  4 30  1  0
  4 31  1  0
  5 32  1  0
  5 33  1  0
  6 34  1  0
  6 35  1  0
  7 36  1  0
  7 37  1  0
  8 38  1  0
  8 39  1  0
  9 40  1  0
  9 41  1  0
  9 42  1  0
 14 43  1  0
 16 44  1  0
 16 45  1  0
 16 46  1  0
 18 47  1  0
 18 48  1  0
 18 49  1  0
 19 50  1  0
 23 51  1  0
 26 52  1  0
 26 53  1  0
 26 54  1  0
M  END
>  <ScrubInfo>  (6) 
{"isomerGroup": 0, "isomerId": 5, "confId": 0, "nr_conformers:": 1, "nr_isomers:": 9}

$$$$
_i6
     RDKit          3D

 54 56  0  0  0  0  0  0  0  0999 V2000
   -1.5388   -1.2844   -2.9397 N   0  0  0  0  0  0  0  0  0  0  0  0
   -2.1636   -1.0067   -1.7282 C   0  0  0  0  0  0  0  0  0  0  0  0
   -1.3008   -0.8611   -0.7135 C   0  0  0  0  0  0  0  0  0  0  0  0
   -1.3156   -0.6025    0.7252 C   0  0  0  0  0  0  0  0  0  0  0  0
   -2.4560   -0.3655    1.4670 N   0  0  0  0  0  0  0  0  0  0  0  0
   -3.5555    0.3758    0.9768 C   0  0  0  0  0  0  0  0  0  0  0  0
   -4.8111   -0.2513    0.9922 C   0  0  0  0  0  0  0  0  0  0  0  0
   -5.9739    0.4072    0.5579 C   0  0  0  0  0  0  0  0  0  0  0  0
   -7.2870   -0.3274    0.5796 C   0  0  0  0  0  0  0  0  0  0  0  0
   -5.8832    1.7374    0.1098 C   0  0  0  0  0  0  0  0  0  0  0  0
   -7.0961    2.4934   -0.3607 C   0  0  0  0  0  0  0  0  0  0  0  0
   -4.6375    2.3835    0.1336 C   0  0  0  0  0  0  0  0  0  0  0  0
   -3.4880    1.7167    0.5723 C   0  0  0  0  0  0  0  0  0  0  0  0
   -1.8722    2.7152    0.6230 Br  0  0  0  0  0  0  0  0  0  0  0  0
   -0.1784   -0.6132    1.3652 N   0  0  0  0  0  0  0  0  0  0  0  0
    0.9858   -0.8488    0.6668 C   0  0  0  0  0  0  0  0  0  0  0  0
    2.0317   -0.8809    1.4133 N   0  0  0  0  0  0  0  0  0  0  0  0
    3.3387   -1.1272    0.8089 C   0  0  0  0  0  0  0  0  0  0  0  0
    3.9904    0.2032    0.4333 C   0  0  0  0  0  0  0  0  0  0  0  0
    5.3337    0.0413   -0.2831 C   0  0  0  0  0  0  0  0  0  0  0  0
    6.4240   -0.6892    0.5073 C   0  0  0  0  0  0  0  0  0  0  0  0
    6.7724   -0.0833    1.8688 C   0  0  0  0  0  0  0  0  0  0  0  0
    7.2841    1.3461    1.7836 C   0  0  0  0  0  0  0  0  0  0  0  0
    1.1094   -1.0295   -0.6921 N   0  0  0  0  0  0  0  0  0  0  0  0
    0.0143   -1.0253   -1.3691 C   0  0  0  0  0  0  0  0  0  0  0  0
   -0.1657   -1.1780   -2.7445 N   0  0  0  0  0  0  0  0  0  0  0  0
    0.7267   -2.0137   -3.5246 C   0  0  0  0  0  0  0  0  0  0  0  0
   -1.9219   -0.7511   -3.7238 H   0  0  0  0  0  0  0  0  0  0  0  0
   -3.2409   -0.9300   -1.7022 H   0  0  0  0  0  0  0  0  0  0  0  0
   -2.1897   -0.0420    2.3957 H   0  0  0  0  0  0  0  0  0  0  0  0
   -4.8757   -1.2813    1.3421 H   0  0  0  0  0  0  0  0  0  0  0  0
   -7.6721   -0.4445   -0.4382 H   0  0  0  0  0  0  0  0  0  0  0  0
   -8.0179    0.2151    1.1875 H   0  0  0  0  0  0  0  0  0  0  0  0
   -7.1810   -1.3283    1.0116 H   0  0  0  0  0  0  0  0  0  0  0  0
   -7.5991    1.9478   -1.1653 H   0  0  0  0  0  0  0  0  0  0  0  0
   -6.8271    3.4789   -0.7557 H   0  0  0  0  0  0  0  0  0  0  0  0
   -7.7927    2.6449    0.4698 H   0  0  0  0  0  0  0  0  0  0  0  0
   -4.5662    3.4226   -0.1831 H   0  0  0  0  0  0  0  0  0  0  0  0
    3.9503   -1.6419    1.5580 H   0  0  0  0  0  0  0  0  0  0  0  0
    3.2917   -1.8048   -0.0519 H   0  0  0  0  0  0  0  0  0  0  0  0
    3.3188    0.7634   -0.2295 H   0  0  0  0  0  0  0  0  0  0  0  0
    4.1088    0.8240    1.3291 H   0  0  0  0  0  0  0  0  0  0  0  0
    5.1690   -0.5013   -1.2228 H   0  0  0  0  0  0  0  0  0  0  0  0
    5.6978    1.0346   -0.5713 H   0  0  0  0  0  0  0  0  0  0  0  0
    7.3318   -0.7190   -0.1086 H   0  0  0  0  0  0  0  0  0  0  0  0
    6.1283   -1.7347    0.6547 H   0  0  0  0  0  0  0  0  0  0  0  0
    7.5492   -0.7034    2.3324 H   0  0  0  0  0  0  0  0  0  0  0  0
    5.9064   -0.1230    2.5383 H   0  0  0  0  0  0  0  0  0  0  0  0
    8.1406    1.4171    1.1057 H   0  0  0  0  0  0  0  0  0  0  0  0
    6.5064    2.0305    1.4322 H   0  0  0  0  0  0  0  0  0  0  0  0
    7.6055    1.6895    2.7722 H   0  0  0  0  0  0  0  0  0  0  0  0
    1.7659   -1.6955   -3.3932 H   0  0  0  0  0  0  0  0  0  0  0  0
    0.6403   -3.0628   -3.2229 H   0  0  0  0  0  0  0  0  0  0  0  0
    0.4859   -1.9369   -4.5899 H   0  0  0  0  0  0  0  0  0  0  0  0
  1  2  1  0
  2  3  2  0
  3  4  1  0
  4  5  1  0
  5  6  1  0
  6  7  2  0
  7  8  1  0
  8  9  1  0
  8 10  2  0
 10 11  1  0
 10 12  1  0
 12 13  2  0
 13 14  1  0
  4 15  2  0
 15 16  1  0
 16 17  2  3
 17 18  1  0
 18 19  1  0
 19 20  1  0
 20 21  1  0
 21 22  1  0
 22 23  1  0
 16 24  1  0
 24 25  2  0
 25 26  1  0
 26 27  1  0
 26  1  1  0
 25  3  1  0
 13  6  1  0
  1 28  1  0
  2 29  1  0
  5 30  1  0
  7 31  1  0
  9 32  1  0
  9 33  1  0
  9 34  1  0
 11 35  1  0
 11 36  1  0
 11 37  1  0
 12 38  1  0
 18 39  1  0
 18 40  1  0
 19 41  1  0
 19 42  1  0
 20 43  1  0
 20 44  1  0
 21 45  1  0
 21 46  1  0
 22 47  1  0
 22 48  1  0
 23 49  1  0
 23 50  1  0
 23 51  1  0
 27 52  1  0
 27 53  1  0
 27 54  1  0
M  END
>  <ScrubInfo>  (7) 
{"isomerGroup": 0, "isomerId": 6, "confId": 0, "nr_conformers:": 1, "nr_isomers:": 9}

$$$$
_i7
     RDKit          3D

 54 56  0  0  0  0  0  0  0  0999 V2000
   -0.9637   -5.0733   -0.8341 N   0  0  0  0  0  0  0  0  0  0  0  0
   -1.9471   -4.1801   -0.4228 C   0  0  0  0  0  0  0  0  0  0  0  0
   -1.4909   -2.9296   -0.2866 C   0  0  0  0  0  0  0  0  0  0  0  0
   -2.0215   -1.6105    0.0646 C   0  0  0  0  0  0  0  0  0  0  0  0
   -3.2754   -1.4948    0.3873 N   0  0  0  0  0  0  0  0  0  0  0  0
   -3.7658   -0.2238    0.7363 C   0  0  0  0  0  0  0  0  0  0  0  0
   -4.3380    0.5706   -0.2640 C   0  0  0  0  0  0  0  0  0  0  0  0
   -4.8431    1.8523    0.0130 C   0  0  0  0  0  0  0  0  0  0  0  0
   -5.4415    2.6635   -1.1039 C   0  0  0  0  0  0  0  0  0  0  0  0
   -4.7811    2.3470    1.3301 C   0  0  0  0  0  0  0  0  0  0  0  0
   -5.3108    3.7107    1.6821 C   0  0  0  0  0  0  0  0  0  0  0  0
   -4.2265    1.5438    2.3392 C   0  0  0  0  0  0  0  0  0  0  0  0
   -3.7289    0.2706    2.0464 C   0  0  0  0  0  0  0  0  0  0  0  0
   -2.9949   -0.7509    3.4700 Br  0  0  0  0  0  0  0  0  0  0  0  0
   -1.0622   -0.6325   -0.0085 N   0  0  0  0  0  0  0  0  0  0  0  0
    0.2521   -0.8007   -0.3552 C   0  0  0  0  0  0  0  0  0  0  0  0
    1.0070    0.2491   -0.3981 N   0  0  0  0  0  0  0  0  0  0  0  0
    2.4100    0.0447   -0.7657 C   0  0  0  0  0  0  0  0  0  0  0  0
    3.1041    1.4071   -0.7513 C   0  0  0  0  0  0  0  0  0  0  0  0
    4.5551    1.3579   -1.2366 C   0  0  0  0  0  0  0  0  0  0  0  0
    5.4958    0.4594   -0.4270 C   0  0  0  0  0  0  0  0  0  0  0  0
    5.5862    0.7730    1.0682 C   0  0  0  0  0  0  0  0  0  0  0  0
    6.0867    2.1781    1.3639 C   0  0  0  0  0  0  0  0  0  0  0  0
    0.7758   -2.0440   -0.6514 N   0  0  0  0  0  0  0  0  0  0  0  0
   -0.0342   -3.0556   -0.6040 C   0  0  0  0  0  0  0  0  0  0  0  0
    0.2581   -4.4023   -0.8367 N   0  0  0  0  0  0  0  0  0  0  0  0
    1.2744   -4.7917   -1.7948 C   0  0  0  0  0  0  0  0  0  0  0  0
   -0.9873   -5.9590   -0.3234 H   0  0  0  0  0  0  0  0  0  0  0  0
   -2.9539   -4.5327   -0.2477 H   0  0  0  0  0  0  0  0  0  0  0  0
   -4.3883    0.1725   -1.2759 H   0  0  0  0  0  0  0  0  0  0  0  0
   -6.4874    2.9000   -0.8844 H   0  0  0  0  0  0  0  0  0  0  0  0
   -4.8779    3.5913   -1.2436 H   0  0  0  0  0  0  0  0  0  0  0  0
   -5.4198    2.1183   -2.0536 H   0  0  0  0  0  0  0  0  0  0  0  0
   -4.8008    4.4809    1.0950 H   0  0  0  0  0  0  0  0  0  0  0  0
   -5.1488    3.9446    2.7397 H   0  0  0  0  0  0  0  0  0  0  0  0
   -6.3878    3.7596    1.4932 H   0  0  0  0  0  0  0  0  0  0  0  0
   -4.1854    1.9134    3.3619 H   0  0  0  0  0  0  0  0  0  0  0  0
   -1.3144    0.3215    0.1991 H   0  0  0  0  0  0  0  0  0  0  0  0
    2.8956   -0.6251   -0.0472 H   0  0  0  0  0  0  0  0  0  0  0  0
    2.4858   -0.3888   -1.7702 H   0  0  0  0  0  0  0  0  0  0  0  0
    2.5494    2.0971   -1.4006 H   0  0  0  0  0  0  0  0  0  0  0  0
    3.0532    1.8394    0.2550 H   0  0  0  0  0  0  0  0  0  0  0  0
    4.5673    1.0158   -2.2793 H   0  0  0  0  0  0  0  0  0  0  0  0
    4.9530    2.3796   -1.2523 H   0  0  0  0  0  0  0  0  0  0  0  0
    6.4997    0.5320   -0.8645 H   0  0  0  0  0  0  0  0  0  0  0  0
    5.1925   -0.5874   -0.5475 H   0  0  0  0  0  0  0  0  0  0  0  0
    6.2749    0.0545    1.5291 H   0  0  0  0  0  0  0  0  0  0  0  0
    4.6146    0.6211    1.5506 H   0  0  0  0  0  0  0  0  0  0  0  0
    7.0503    2.3622    0.8784 H   0  0  0  0  0  0  0  0  0  0  0  0
    5.3765    2.9371    1.0232 H   0  0  0  0  0  0  0  0  0  0  0  0
    6.2204    2.3099    2.4424 H   0  0  0  0  0  0  0  0  0  0  0  0
    2.2310   -4.3151   -1.5577 H   0  0  0  0  0  0  0  0  0  0  0  0
    1.4264   -5.8756   -1.7696 H   0  0  0  0  0  0  0  0  0  0  0  0
    0.9818   -4.5049   -2.8103 H   0  0  0  0  0  0  0  0  0  0  0  0
  1  2  1  0
  2  3  2  0
  3  4  1  0
  4  5  2  3
  5  6  1  0
  6  7  2  0
  7  8  1  0
  8  9  1  0
  8 10  2  0
 10 11  1  0
 10 12  1  0
 12 13  2  0
 13 14  1  0
  4 15  1  0
 15 16  1  0
 16 17  2  3
 17 18  1  0
 18 19  1  0
 19 20  1  0
 20 21  1  0
 21 22  1  0
 22 23  1  0
 16 24  1  0
 24 25  2  0
 25 26  1  0
 26 27  1  0
 26  1  1  0
 25  3  1  0
 13  6  1  0
  1 28  1  0
  2 29  1  0
  7 30  1  0
  9 31  1  0
  9 32  1  0
  9 33  1  0
 11 34  1  0
 11 35  1  0
 11 36  1  0
 12 37  1  0
 15 38  1  0
 18 39  1  0
 18 40  1  0
 19 41  1  0
 19 42  1  0
 20 43  1  0
 20 44  1  0
 21 45  1  0
 21 46  1  0
 22 47  1  0
 22 48  1  0
 23 49  1  0
 23 50  1  0
 23 51  1  0
 27 52  1  0
 27 53  1  0
 27 54  1  0
M  END
>  <ScrubInfo>  (8) 
{"isomerGroup": 0, "isomerId": 7, "confId": 0, "nr_conformers:": 1, "nr_isomers:": 9}

$$$$
_i8
     RDKit          3D

 54 56  0  0  0  0  0  0  0  0999 V2000
   -0.8067   -2.2502   -0.0792 N   0  0  0  0  0  0  0  0  0  0  0  0
   -0.3933   -0.9491    0.1677 C   0  0  0  0  0  0  0  0  0  0  0  0
   -1.0826    0.0301    0.6461 N   0  0  0  0  0  0  0  0  0  0  0  0
   -2.4785   -0.1681    1.0259 C   0  0  0  0  0  0  0  0  0  0  0  0
   -3.3824    0.0748   -0.1814 C   0  0  0  0  0  0  0  0  0  0  0  0
   -4.8639   -0.1583    0.1133 C   0  0  0  0  0  0  0  0  0  0  0  0
   -5.5015    0.7415    1.1778 C   0  0  0  0  0  0  0  0  0  0  0  0
   -5.5819    2.2244    0.8027 C   0  0  0  0  0  0  0  0  0  0  0  0
   -4.4194    3.0528    1.3288 C   0  0  0  0  0  0  0  0  0  0  0  0
    0.9282   -0.7151   -0.1599 N   0  0  0  0  0  0  0  0  0  0  0  0
    1.8938   -1.5480   -0.6899 C   0  0  0  0  0  0  0  0  0  0  0  0
    3.1299   -1.3361   -1.0002 N   0  0  0  0  0  0  0  0  0  0  0  0
    3.6482   -0.0449   -0.7992 C   0  0  0  0  0  0  0  0  0  0  0  0
    4.3160    0.2268    0.4006 C   0  0  0  0  0  0  0  0  0  0  0  0
    4.8566    1.4954    0.6715 C   0  0  0  0  0  0  0  0  0  0  0  0
    5.5603    1.7297    1.9806 C   0  0  0  0  0  0  0  0  0  0  0  0
    4.7321    2.5165   -0.2901 C   0  0  0  0  0  0  0  0  0  0  0  0
    5.2971    3.8909   -0.0532 C   0  0  0  0  0  0  0  0  0  0  0  0
    4.0804    2.2410   -1.5027 C   0  0  0  0  0  0  0  0  0  0  0  0
    3.5488    0.9731   -1.7564 C   0  0  0  0  0  0  0  0  0  0  0  0
    2.6831    0.6858   -3.4228 Br  0  0  0  0  0  0  0  0  0  0  0  0
    1.3618   -2.8714   -0.9101 C   0  0  0  0  0  0  0  0  0  0  0  0
    1.8721   -4.0745   -1.4187 C   0  0  0  0  0  0  0  0  0  0  0  0
    0.9542   -5.0535   -1.4257 N   0  0  0  0  0  0  0  0  0  0  0  0
   -0.1545   -4.4629   -0.9171 N   0  0  0  0  0  0  0  0  0  0  0  0
   -1.3598   -5.2418   -0.7876 C   0  0  0  0  0  0  0  0  0  0  0  0
    0.0548   -3.1553   -0.5983 C   0  0  0  0  0  0  0  0  0  0  0  0
   -1.7740   -2.4712    0.1095 H   0  0  0  0  0  0  0  0  0  0  0  0
   -2.7060    0.5515    1.8190 H   0  0  0  0  0  0  0  0  0  0  0  0
   -2.6536   -1.1575    1.4636 H   0  0  0  0  0  0  0  0  0  0  0  0
   -3.2258    1.0839   -0.5774 H   0  0  0  0  0  0  0  0  0  0  0  0
   -3.0898   -0.6050   -0.9919 H   0  0  0  0  0  0  0  0  0  0  0  0
   -5.4249   -0.0487   -0.8234 H   0  0  0  0  0  0  0  0  0  0  0  0
   -4.9965   -1.2025    0.4245 H   0  0  0  0  0  0  0  0  0  0  0  0
   -6.5306    0.3824    1.3125 H   0  0  0  0  0  0  0  0  0  0  0  0
   -5.0110    0.6080    2.1482 H   0  0  0  0  0  0  0  0  0  0  0  0
   -6.4998    2.6374    1.2397 H   0  0  0  0  0  0  0  0  0  0  0  0
   -5.6703    2.3481   -0.2824 H   0  0  0  0  0  0  0  0  0  0  0  0
   -4.5810    4.1112    1.0995 H   0  0  0  0  0  0  0  0  0  0  0  0
   -3.4689    2.7599    0.8784 H   0  0  0  0  0  0  0  0  0  0  0  0
   -4.3291    2.9556    2.4154 H   0  0  0  0  0  0  0  0  0  0  0  0
    1.2101    0.2373    0.0191 H   0  0  0  0  0  0  0  0  0  0  0  0
    4.4146   -0.5744    1.1311 H   0  0  0  0  0  0  0  0  0  0  0  0
    5.5737    0.8251    2.5978 H   0  0  0  0  0  0  0  0  0  0  0  0
    5.0492    2.5109    2.5520 H   0  0  0  0  0  0  0  0  0  0  0  0
    6.6000    2.0244    1.8062 H   0  0  0  0  0  0  0  0  0  0  0  0
    4.8601    4.3325    0.8479 H   0  0  0  0  0  0  0  0  0  0  0  0
    6.3851    3.8402    0.0544 H   0  0  0  0  0  0  0  0  0  0  0  0
    5.0776    4.5654   -0.8877 H   0  0  0  0  0  0  0  0  0  0  0  0
    3.9907    3.0207   -2.2565 H   0  0  0  0  0  0  0  0  0  0  0  0
    2.8700   -4.2792   -1.7851 H   0  0  0  0  0  0  0  0  0  0  0  0
   -2.0886   -4.7026   -0.1791 H   0  0  0  0  0  0  0  0  0  0  0  0
   -1.1121   -6.1904   -0.3041 H   0  0  0  0  0  0  0  0  0  0  0  0
   -1.7623   -5.4167   -1.7884 H   0  0  0  0  0  0  0  0  0  0  0  0
  1  2  1  0
  2  3  2  3
  3  4  1  0
  4  5  1  0
  5  6  1  0
  6  7  1  0
  7  8  1  0
  8  9  1  0
  2 10  1  0
 10 11  1  0
 11 12  2  3
 12 13  1  0
 13 14  2  0
 14 15  1  0
 15 16  1  0
 15 17  2  0
 17 18  1  0
 17 19  1  0
 19 20  2  0
 20 21  1  0
 11 22  1  0
 22 23  1  0
 23 24  2  0
 24 25  1  0
 25 26  1  0
 25 27  1  0
 27  1  1  0
 20 13  1  0
 27 22  2  0
  1 28  1  0
  4 29  1  0
  4 30  1  0
  5 31  1  0
  5 32  1  0
  6 33  1  0
  6 34  1  0
  7 35  1  0
  7 36  1  0
  8 37  1  0
  8 38  1  0
  9 39  1  0
  9 40  1  0
  9 41  1  0
 10 42  1  0
 14 43  1  0
 16 44  1  0
 16 45  1  0
 16 46  1  0
 18 47  1  0
 18 48  1  0
 18 49  1  0
 19 50  1  0
 23 51  1  0
 26 52  1  0
 26 53  1  0
 26 54  1  0
M  END
>  <ScrubInfo>  (9) 
{"isomerGroup": 0, "isomerId": 8, "confId": 0, "nr_conformers:": 1, "nr_isomers:": 9}

$$$$
