_i0
     RDKit          3D

 47 50  0  0  0  0  0  0  0  0999 V2000
    7.4861    1.3109   -2.0980 C   0  0  0  0  0  0  0  0  0  0  0  0
    6.4117    0.3976   -2.2818 O   0  0  0  0  0  0  0  0  0  0  0  0
    5.3030    0.5834   -1.5043 C   0  0  0  0  0  0  0  0  0  0  0  0
    5.1160    1.5971   -0.5678 C   0  0  0  0  0  0  0  0  0  0  0  0
    3.9221    1.6671    0.1615 C   0  0  0  0  0  0  0  0  0  0  0  0
    2.9003    0.7266   -0.0230 C   0  0  0  0  0  0  0  0  0  0  0  0
    1.7249    0.8585    0.7409 N   0  0  0  0  0  0  0  0  0  0  0  0
    0.7051   -0.0778    0.9599 C   0  0  0  0  0  0  0  0  0  0  0  0
   -0.5709    0.3776    0.8862 N   0  0  0  0  0  0  0  0  0  0  0  0
   -1.6044   -0.4597    1.1036 C   0  0  0  0  0  0  0  0  0  0  0  0
   -2.9026    0.0230    1.0169 N   0  0  0  0  0  0  0  0  0  0  0  0
   -3.0929    1.0411    0.0052 C   0  0  0  0  0  0  0  0  0  0  0  0
   -4.5721    1.3120   -0.1510 C   0  0  0  0  0  0  0  0  0  0  0  0
   -5.2783    1.9844    0.8579 C   0  0  0  0  0  0  0  0  0  0  0  0
   -6.6455    2.2295    0.7242 C   0  0  0  0  0  0  0  0  0  0  0  0
   -7.3218    1.8020   -0.4168 C   0  0  0  0  0  0  0  0  0  0  0  0
   -6.6330    1.1265   -1.4229 C   0  0  0  0  0  0  0  0  0  0  0  0
   -5.2651    0.8796   -1.2909 C   0  0  0  0  0  0  0  0  0  0  0  0
   -1.5059   -1.7604    1.4053 N   0  0  0  0  0  0  0  0  0  0  0  0
   -0.2351   -2.1773    1.5084 C   0  0  0  0  0  0  0  0  0  0  0  0
    0.8989   -1.4155    1.3095 C   0  0  0  0  0  0  0  0  0  0  0  0
    1.9660   -2.3005    1.5682 C   0  0  0  0  0  0  0  0  0  0  0  0
    1.5541   -3.5362    1.8765 N   0  0  0  0  0  0  0  0  0  0  0  0
    0.2055   -3.4298    1.8388 N   0  0  0  0  0  0  0  0  0  0  0  0
   -0.6048   -4.5809    2.1472 C   0  0  0  0  0  0  0  0  0  0  0  0
    3.0939   -0.2790   -0.9734 C   0  0  0  0  0  0  0  0  0  0  0  0
    4.2852   -0.3500   -1.7037 C   0  0  0  0  0  0  0  0  0  0  0  0
    7.1844    2.3315   -2.3556 H   0  0  0  0  0  0  0  0  0  0  0  0
    7.8781    1.2596   -1.0769 H   0  0  0  0  0  0  0  0  0  0  0  0
    8.2919    1.0203   -2.7789 H   0  0  0  0  0  0  0  0  0  0  0  0
    5.8745    2.3484   -0.3763 H   0  0  0  0  0  0  0  0  0  0  0  0
    3.7998    2.4613    0.8950 H   0  0  0  0  0  0  0  0  0  0  0  0
    1.2840    1.7629    0.5904 H   0  0  0  0  0  0  0  0  0  0  0  0
   -3.5106   -0.7828    0.9260 H   0  0  0  0  0  0  0  0  0  0  0  0
   -2.6761    0.7228   -0.9596 H   0  0  0  0  0  0  0  0  0  0  0  0
   -2.5946    1.9782    0.2853 H   0  0  0  0  0  0  0  0  0  0  0  0
   -4.7600    2.3116    1.7575 H   0  0  0  0  0  0  0  0  0  0  0  0
   -7.1826    2.7504    1.5124 H   0  0  0  0  0  0  0  0  0  0  0  0
   -8.3868    1.9922   -0.5201 H   0  0  0  0  0  0  0  0  0  0  0  0
   -7.1625    0.7901   -2.3106 H   0  0  0  0  0  0  0  0  0  0  0  0
   -4.7448    0.3475   -2.0841 H   0  0  0  0  0  0  0  0  0  0  0  0
    3.0286   -2.0937    1.5424 H   0  0  0  0  0  0  0  0  0  0  0  0
   -1.6632   -4.3349    2.0365 H   0  0  0  0  0  0  0  0  0  0  0  0
   -0.3987   -4.8795    3.1781 H   0  0  0  0  0  0  0  0  0  0  0  0
   -0.3383   -5.3845    1.4560 H   0  0  0  0  0  0  0  0  0  0  0  0
    2.3196   -1.0116   -1.1822 H   0  0  0  0  0  0  0  0  0  0  0  0
    4.4168   -1.1400   -2.4394 H   0  0  0  0  0  0  0  0  0  0  0  0
  1  2  1  0
  2  3  1  0
  3  4  2  0
  4  5  1  0
  5  6  2  0
  6  7  1  0
  7  8  1  0
  8  9  2  0
  9 10  1  0
 10 11  1  0
 11 12  1  0
 12 13  1  0
 13 14  2  0
 14 15  1  0
 15 16  2  0
 16 17  1  0
 17 18  2  0
 10 19  2  0
 19 20  1  0
 20 21  2  0
 21 22  1  0
 22 23  2  0
 23 24  1  0
 24 25  1  0
  6 26  1  0
 26 27  2  0
 27  3  1  0
 21  8  1  0
 18 13  1  0
 24 20  1  0
  1 28  1  0
  1 29  1  0
  1 30  1  0
  4 31  1  0
  5 32  1  0
  7 33  1  0
 11 34  1  0
 12 35  1  0
 12 36  1  0
 14 37  1  0
 15 38  1  0
 16 39  1  0
 17 40  1  0
 18 41  1  0
 22 42  1  0
 25 43  1  0
 25 44  1  0
 25 45  1  0
 26 46  1  0
 27 47  1  0
M  END
>  <ScrubInfo>  (1) 
{"isomerGroup": 0, "isomerId": 0, "confId": 0, "nr_conformers:": 1, "nr_isomers:": 9}

$$$$
_i1
     RDKit          3D

 47 50  0  0  0  0  0  0  0  0999 V2000
   -0.6201    0.5614    0.0138 N   0  0  0  0  0  0  0  0  0  0  0  0
   -1.6111   -0.3256   -0.3227 C   0  0  0  0  0  0  0  0  0  0  0  0
   -2.8802    0.1746   -0.3613 N   0  0  0  0  0  0  0  0  0  0  0  0
   -3.4386    0.9278    0.7488 C   0  0  0  0  0  0  0  0  0  0  0  0
   -4.9059    1.1767    0.5033 C   0  0  0  0  0  0  0  0  0  0  0  0
   -5.8815    0.4755    1.2264 C   0  0  0  0  0  0  0  0  0  0  0  0
   -7.2382    0.7020    0.9871 C   0  0  0  0  0  0  0  0  0  0  0  0
   -7.6327    1.6256    0.0209 C   0  0  0  0  0  0  0  0  0  0  0  0
   -6.6724    2.3220   -0.7101 C   0  0  0  0  0  0  0  0  0  0  0  0
   -5.3156    2.0978   -0.4726 C   0  0  0  0  0  0  0  0  0  0  0  0
   -1.4007   -1.5846   -0.6116 N   0  0  0  0  0  0  0  0  0  0  0  0
   -0.0793   -1.9060   -0.5132 C   0  0  0  0  0  0  0  0  0  0  0  0
    0.9884   -1.0835   -0.1845 C   0  0  0  0  0  0  0  0  0  0  0  0
    2.1065   -1.9354   -0.2197 C   0  0  0  0  0  0  0  0  0  0  0  0
    1.7893   -3.1945   -0.5480 N   0  0  0  0  0  0  0  0  0  0  0  0
    0.4498   -3.1478   -0.7267 N   0  0  0  0  0  0  0  0  0  0  0  0
   -0.2548   -4.3489   -1.0979 C   0  0  0  0  0  0  0  0  0  0  0  0
    0.7319    0.3174    0.0889 C   0  0  0  0  0  0  0  0  0  0  0  0
    1.5777    1.2654    0.3565 N   0  0  0  0  0  0  0  0  0  0  0  0
    2.9522    1.0350    0.4199 C   0  0  0  0  0  0  0  0  0  0  0  0
    3.7435    1.1572   -0.7247 C   0  0  0  0  0  0  0  0  0  0  0  0
    5.1274    0.9565   -0.6605 C   0  0  0  0  0  0  0  0  0  0  0  0
    5.7329    0.6478    0.5580 C   0  0  0  0  0  0  0  0  0  0  0  0
    7.0668    0.4266    0.7606 O   0  0  0  0  0  0  0  0  0  0  0  0
    7.9076    0.4753   -0.3852 C   0  0  0  0  0  0  0  0  0  0  0  0
    4.9443    0.5525    1.7075 C   0  0  0  0  0  0  0  0  0  0  0  0
    3.5632    0.7524    1.6416 C   0  0  0  0  0  0  0  0  0  0  0  0
   -0.8615    1.5376    0.0532 H   0  0  0  0  0  0  0  0  0  0  0  0
   -3.5173   -0.5690   -0.6420 H   0  0  0  0  0  0  0  0  0  0  0  0
   -2.9290    1.8916    0.8639 H   0  0  0  0  0  0  0  0  0  0  0  0
   -3.2992    0.3745    1.6854 H   0  0  0  0  0  0  0  0  0  0  0  0
   -5.5935   -0.2535    1.9810 H   0  0  0  0  0  0  0  0  0  0  0  0
   -7.9886    0.1558    1.5532 H   0  0  0  0  0  0  0  0  0  0  0  0
   -8.6894    1.7995   -0.1657 H   0  0  0  0  0  0  0  0  0  0  0  0
   -6.9802    3.0371   -1.4688 H   0  0  0  0  0  0  0  0  0  0  0  0
   -4.5758    2.6396   -1.0585 H   0  0  0  0  0  0  0  0  0  0  0  0
    3.1460   -1.7129   -0.0227 H   0  0  0  0  0  0  0  0  0  0  0  0
   -0.1628   -5.0667   -0.2788 H   0  0  0  0  0  0  0  0  0  0  0  0
    0.1997   -4.7482   -2.0082 H   0  0  0  0  0  0  0  0  0  0  0  0
   -1.3083   -4.1267   -1.2807 H   0  0  0  0  0  0  0  0  0  0  0  0
    3.2789    1.4086   -1.6745 H   0  0  0  0  0  0  0  0  0  0  0  0
    5.6988    1.0540   -1.5771 H   0  0  0  0  0  0  0  0  0  0  0  0
    7.9059    1.4745   -0.8330 H   0  0  0  0  0  0  0  0  0  0  0  0
    8.9295    0.2586   -0.0594 H   0  0  0  0  0  0  0  0  0  0  0  0
    7.6229   -0.2875   -1.1176 H   0  0  0  0  0  0  0  0  0  0  0  0
    5.4098    0.3239    2.6631 H   0  0  0  0  0  0  0  0  0  0  0  0
    2.9636    0.6861    2.5449 H   0  0  0  0  0  0  0  0  0  0  0  0
  1  2  1  0
  2  3  1  0
  3  4  1  0
  4  5  1  0
  5  6  2  0
  6  7  1  0
  7  8  2  0
  8  9  1  0
  9 10  2  0
  2 11  2  0
 11 12  1  0
 12 13  2  0
 13 14  1  0
 14 15  2  0
 15 16  1  0
 16 17  1  0
 13 18  1  0
 18 19  2  3
 19 20  1  0
 20 21  2  0
 21 22  1  0
 22 23  2  0
 23 24  1  0
 24 25  1  0
 23 26  1  0
 26 27  2  0
 18  1  1  0
 27 20  1  0
 10  5  1  0
 16 12  1  0
  1 28  1  0
  3 29  1  0
  4 30  1  0
  4 31  1  0
  6 32  1  0
  7 33  1  0
  8 34  1  0
  9 35  1  0
 10 36  1  0
 14 37  1  0
 17 38  1  0
 17 39  1  0
 17 40  1  0
 21 41  1  0
 22 42  1  0
 25 43  1  0
 25 44  1  0
 25 45  1  0
 26 46  1  0
 27 47  1  0
M  END
>  <ScrubInfo>  (2) 
{"isomerGroup": 0, "isomerId": 1, "confId": 0, "nr_conformers:": 1, "nr_isomers:": 9}

$$$$
_i2
     RDKit          3D

 47 50  0  0  0  0  0  0  0  0999 V2000
   -1.3093   -0.8611   -1.4172 N   0  0  0  0  0  0  0  0  0  0  0  0
    0.0529   -1.0765   -1.3016 C   0  0  0  0  0  0  0  0  0  0  0  0
    0.9587   -0.1356   -1.7542 N   0  0  0  0  0  0  0  0  0  0  0  0
    1.9459    0.5154   -0.9775 C   0  0  0  0  0  0  0  0  0  0  0  0
    2.8943    1.3046   -1.6401 C   0  0  0  0  0  0  0  0  0  0  0  0
    3.9171    1.9434   -0.9327 C   0  0  0  0  0  0  0  0  0  0  0  0
    4.0199    1.8028    0.4509 C   0  0  0  0  0  0  0  0  0  0  0  0
    5.0628    2.4783    1.0199 O   0  0  0  0  0  0  0  0  0  0  0  0
    5.2197    2.3515    2.4277 C   0  0  0  0  0  0  0  0  0  0  0  0
    3.0870    1.0146    1.1208 C   0  0  0  0  0  0  0  0  0  0  0  0
    2.0623    0.3734    0.4102 C   0  0  0  0  0  0  0  0  0  0  0  0
    0.4107   -2.2541   -0.7778 C   0  0  0  0  0  0  0  0  0  0  0  0
    1.6482   -2.9780   -0.4693 C   0  0  0  0  0  0  0  0  0  0  0  0
    1.4319   -4.1449    0.0857 N   0  0  0  0  0  0  0  0  0  0  0  0
    0.0340   -4.2842    0.1257 N   0  0  0  0  0  0  0  0  0  0  0  0
   -0.5453   -5.3265    0.9370 C   0  0  0  0  0  0  0  0  0  0  0  0
   -0.6537   -3.1713   -0.3297 C   0  0  0  0  0  0  0  0  0  0  0  0
   -1.9175   -2.9245   -0.3661 N   0  0  0  0  0  0  0  0  0  0  0  0
   -2.2726   -1.7018   -0.8952 C   0  0  0  0  0  0  0  0  0  0  0  0
   -3.5354   -1.4756   -0.8268 N   0  0  0  0  0  0  0  0  0  0  0  0
   -4.0981   -0.2481   -1.3821 C   0  0  0  0  0  0  0  0  0  0  0  0
   -3.7255    1.0195   -0.6455 C   0  0  0  0  0  0  0  0  0  0  0  0
   -3.5953    1.0324    0.7502 C   0  0  0  0  0  0  0  0  0  0  0  0
   -3.2482    2.2064    1.4196 C   0  0  0  0  0  0  0  0  0  0  0  0
   -3.0415    3.3831    0.7026 C   0  0  0  0  0  0  0  0  0  0  0  0
   -3.1897    3.3890   -0.6830 C   0  0  0  0  0  0  0  0  0  0  0  0
   -3.5359    2.2151   -1.3543 C   0  0  0  0  0  0  0  0  0  0  0  0
   -1.5808    0.0945   -1.5882 H   0  0  0  0  0  0  0  0  0  0  0  0
    0.5564    0.5112   -2.4277 H   0  0  0  0  0  0  0  0  0  0  0  0
    2.8553    1.4202   -2.7206 H   0  0  0  0  0  0  0  0  0  0  0  0
    4.6437    2.5506   -1.4673 H   0  0  0  0  0  0  0  0  0  0  0  0
    6.0948    2.9395    2.7208 H   0  0  0  0  0  0  0  0  0  0  0  0
    4.3526    2.7572    2.9593 H   0  0  0  0  0  0  0  0  0  0  0  0
    5.4072    1.3108    2.7121 H   0  0  0  0  0  0  0  0  0  0  0  0
    3.1216    0.8768    2.1965 H   0  0  0  0  0  0  0  0  0  0  0  0
    1.3450   -0.2154    0.9759 H   0  0  0  0  0  0  0  0  0  0  0  0
    2.6323   -2.5414   -0.6825 H   0  0  0  0  0  0  0  0  0  0  0  0
    0.0806   -6.2246    0.9199 H   0  0  0  0  0  0  0  0  0  0  0  0
   -0.6422   -4.9919    1.9745 H   0  0  0  0  0  0  0  0  0  0  0  0
   -1.5371   -5.6045    0.5662 H   0  0  0  0  0  0  0  0  0  0  0  0
   -5.1911   -0.3345   -1.3586 H   0  0  0  0  0  0  0  0  0  0  0  0
   -3.8243   -0.1691   -2.4423 H   0  0  0  0  0  0  0  0  0  0  0  0
   -3.7620    0.1197    1.3209 H   0  0  0  0  0  0  0  0  0  0  0  0
   -3.1456    2.2019    2.5017 H   0  0  0  0  0  0  0  0  0  0  0  0
   -2.7761    4.2980    1.2260 H   0  0  0  0  0  0  0  0  0  0  0  0
   -3.0445    4.3118   -1.2390 H   0  0  0  0  0  0  0  0  0  0  0  0
   -3.6632    2.2419   -2.4344 H   0  0  0  0  0  0  0  0  0  0  0  0
  1  2  1  0
  2  3  1  0
  3  4  1  0
  4  5  2  0
  5  6  1  0
  6  7  2  0
  7  8  1  0
  8  9  1  0
  7 10  1  0
 10 11  2  0
  2 12  2  0
 12 13  1  0
 13 14  2  0
 14 15  1  0
 15 16  1  0
 15 17  1  0
 17 18  2  0
 18 19  1  0
 19 20  2  3
 20 21  1  0
 21 22  1  0
 22 23  2  0
 23 24  1  0
 24 25  2  0
 25 26  1  0
 26 27  2  0
 19  1  1  0
 27 22  1  0
 11  4  1  0
 17 12  1  0
  1 28  1  0
  3 29  1  0
  5 30  1  0
  6 31  1  0
  9 32  1  0
  9 33  1  0
  9 34  1  0
 10 35  1  0
 11 36  1  0
 13 37  1  0
 16 38  1  0
 16 39  1  0
 16 40  1  0
 21 41  1  0
 21 42  1  0
 23 43  1  0
 24 44  1  0
 25 45  1  0
 26 46  1  0
 27 47  1  0
M  END
>  <ScrubInfo>  (3) 
{"isomerGroup": 0, "isomerId": 2, "confId": 0, "nr_conformers:": 1, "nr_isomers:": 9}

$$$$
_i3
     RDKit          3D

 47 50  0  0  0  0  0  0  0  0999 V2000
   -1.5585   -2.1638    0.6114 N   0  0  0  0  0  0  0  0  0  0  0  0
   -1.1913   -0.8475    0.3843 C   0  0  0  0  0  0  0  0  0  0  0  0
   -1.9637    0.1789    0.4206 N   0  0  0  0  0  0  0  0  0  0  0  0
   -3.3782    0.0014    0.7224 C   0  0  0  0  0  0  0  0  0  0  0  0
   -4.1616    1.2949    0.6769 C   0  0  0  0  0  0  0  0  0  0  0  0
   -5.3102    1.4474    1.4687 C   0  0  0  0  0  0  0  0  0  0  0  0
   -6.0682    2.6189    1.4056 C   0  0  0  0  0  0  0  0  0  0  0  0
   -5.6934    3.6473    0.5436 C   0  0  0  0  0  0  0  0  0  0  0  0
   -4.5626    3.5044   -0.2575 C   0  0  0  0  0  0  0  0  0  0  0  0
   -3.8049    2.3334   -0.1953 C   0  0  0  0  0  0  0  0  0  0  0  0
    0.1184   -0.5176    0.0805 N   0  0  0  0  0  0  0  0  0  0  0  0
    1.0429   -1.4278    0.0012 C   0  0  0  0  0  0  0  0  0  0  0  0
    2.3762   -1.2605   -0.2890 N   0  0  0  0  0  0  0  0  0  0  0  0
    3.0860   -0.0732   -0.5550 C   0  0  0  0  0  0  0  0  0  0  0  0
    2.5204    1.2034   -0.5449 C   0  0  0  0  0  0  0  0  0  0  0  0
    3.2920    2.3393   -0.8242 C   0  0  0  0  0  0  0  0  0  0  0  0
    4.6488    2.2293   -1.1222 C   0  0  0  0  0  0  0  0  0  0  0  0
    5.2816    3.4137   -1.3746 O   0  0  0  0  0  0  0  0  0  0  0  0
    6.6679    3.3502   -1.6825 C   0  0  0  0  0  0  0  0  0  0  0  0
    5.2307    0.9659   -1.1388 C   0  0  0  0  0  0  0  0  0  0  0  0
    4.4557   -0.1688   -0.8586 C   0  0  0  0  0  0  0  0  0  0  0  0
    0.6894   -2.8171    0.2350 C   0  0  0  0  0  0  0  0  0  0  0  0
    1.3319   -4.0668    0.2527 C   0  0  0  0  0  0  0  0  0  0  0  0
    0.4920   -5.0726    0.5387 N   0  0  0  0  0  0  0  0  0  0  0  0
   -0.7042   -4.4585    0.7069 N   0  0  0  0  0  0  0  0  0  0  0  0
   -1.8601   -5.2551    1.0316 C   0  0  0  0  0  0  0  0  0  0  0  0
   -0.6130   -3.1142    0.5318 C   0  0  0  0  0  0  0  0  0  0  0  0
   -2.5249   -2.3506    0.8288 H   0  0  0  0  0  0  0  0  0  0  0  0
   -3.8409   -0.6826   -0.0001 H   0  0  0  0  0  0  0  0  0  0  0  0
   -3.4798   -0.4304    1.7262 H   0  0  0  0  0  0  0  0  0  0  0  0
   -5.6204    0.6546    2.1448 H   0  0  0  0  0  0  0  0  0  0  0  0
   -6.9510    2.7291    2.0295 H   0  0  0  0  0  0  0  0  0  0  0  0
   -6.2809    4.5600    0.4957 H   0  0  0  0  0  0  0  0  0  0  0  0
   -4.2658    4.3037   -0.9311 H   0  0  0  0  0  0  0  0  0  0  0  0
   -2.9229    2.2347   -0.8258 H   0  0  0  0  0  0  0  0  0  0  0  0
    2.9574   -2.0842   -0.3181 H   0  0  0  0  0  0  0  0  0  0  0  0
    1.4691    1.3579   -0.3191 H   0  0  0  0  0  0  0  0  0  0  0  0
    2.8200    3.3190   -0.8066 H   0  0  0  0  0  0  0  0  0  0  0  0
    7.0193    4.3720   -1.8554 H   0  0  0  0  0  0  0  0  0  0  0  0
    7.2401    2.9387   -0.8444 H   0  0  0  0  0  0  0  0  0  0  0  0
    6.8428    2.7782   -2.5997 H   0  0  0  0  0  0  0  0  0  0  0  0
    6.2817    0.8232   -1.3653 H   0  0  0  0  0  0  0  0  0  0  0  0
    4.9464   -1.1389   -0.8829 H   0  0  0  0  0  0  0  0  0  0  0  0
    2.3711   -4.3067    0.0726 H   0  0  0  0  0  0  0  0  0  0  0  0
   -2.0162   -5.9790    0.2278 H   0  0  0  0  0  0  0  0  0  0  0  0
   -2.7394   -4.6151    1.1287 H   0  0  0  0  0  0  0  0  0  0  0  0
   -1.6696   -5.7685    1.9774 H   0  0  0  0  0  0  0  0  0  0  0  0
  1  2  1  0
  2  3  2  3
  3  4  1  0
  4  5  1  0
  5  6  2  0
  6  7  1  0
  7  8  2  0
  8  9  1  0
  9 10  2  0
  2 11  1  0
 11 12  2  0
 12 13  1  0
 13 14  1  0
 14 15  2  0
 15 16  1  0
 16 17  2  0
 17 18  1  0
 18 19  1  0
 17 20  1  0
 20 21  2  0
 12 22  1  0
 22 23  1  0
 23 24  2  0
 24 25  1  0
 25 26  1  0
 25 27  1  0
 27  1  1  0
 10  5  1  0
 21 14  1  0
 27 22  2  0
  1 28  1  0
  4 29  1  0
  4 30  1  0
  6 31  1  0
  7 32  1  0
  8 33  1  0
  9 34  1  0
 10 35  1  0
 13 36  1  0
 15 37  1  0
 16 38  1  0
 19 39  1  0
 19 40  1  0
 19 41  1  0
 20 42  1  0
 21 43  1  0
 23 44  1  0
 26 45  1  0
 26 46  1  0
 26 47  1  0
M  END
>  <ScrubInfo>  (4) 
{"isomerGroup": 0, "isomerId": 3, "confId": 0, "nr_conformers:": 1, "nr_isomers:": 9}

$$$$
_i4
     RDKit          3D

 47 50  0  0  0  0  0  0  0  0999 V2000
   -0.4863   -0.8221   -1.6145 N   0  0  0  0  0  0  0  0  0  0  0  0
   -0.5553    0.5164   -1.3192 C   0  0  0  0  0  0  0  0  0  0  0  0
   -1.2876    1.2612   -2.1970 N   0  0  0  0  0  0  0  0  0  0  0  0
   -2.6891    0.9521   -2.4366 C   0  0  0  0  0  0  0  0  0  0  0  0
   -3.2970    2.0058   -3.3286 C   0  0  0  0  0  0  0  0  0  0  0  0
   -4.2498    2.9044   -2.8274 C   0  0  0  0  0  0  0  0  0  0  0  0
   -4.8069    3.8800   -3.6562 C   0  0  0  0  0  0  0  0  0  0  0  0
   -4.4151    3.9708   -4.9905 C   0  0  0  0  0  0  0  0  0  0  0  0
   -3.4636    3.0886   -5.4983 C   0  0  0  0  0  0  0  0  0  0  0  0
   -2.9062    2.1115   -4.6723 C   0  0  0  0  0  0  0  0  0  0  0  0
    0.0225    1.0998   -0.3092 N   0  0  0  0  0  0  0  0  0  0  0  0
    0.7701    0.3481    0.5907 C   0  0  0  0  0  0  0  0  0  0  0  0
    1.2499    0.9939    1.6054 N   0  0  0  0  0  0  0  0  0  0  0  0
    2.0111    0.3769    2.5959 C   0  0  0  0  0  0  0  0  0  0  0  0
    1.3955   -0.1710    3.7238 C   0  0  0  0  0  0  0  0  0  0  0  0
    2.1578   -0.7675    4.7351 C   0  0  0  0  0  0  0  0  0  0  0  0
    3.5489   -0.8038    4.6317 C   0  0  0  0  0  0  0  0  0  0  0  0
    4.4094   -1.3540    5.5408 O   0  0  0  0  0  0  0  0  0  0  0  0
    3.8306   -1.9492    6.6950 C   0  0  0  0  0  0  0  0  0  0  0  0
    4.1661   -0.2301    3.5172 C   0  0  0  0  0  0  0  0  0  0  0  0
    3.4035    0.3653    2.5093 C   0  0  0  0  0  0  0  0  0  0  0  0
    0.9175   -1.0671    0.2890 C   0  0  0  0  0  0  0  0  0  0  0  0
    1.5890   -2.1827    0.8219 C   0  0  0  0  0  0  0  0  0  0  0  0
    1.3840   -3.3037    0.1111 N   0  0  0  0  0  0  0  0  0  0  0  0
    0.5788   -2.9024   -0.8972 N   0  0  0  0  0  0  0  0  0  0  0  0
    0.1489   -3.8689   -1.8749 C   0  0  0  0  0  0  0  0  0  0  0  0
    0.2768   -1.5814   -0.8108 C   0  0  0  0  0  0  0  0  0  0  0  0
   -0.7870   -1.1030   -2.5380 H   0  0  0  0  0  0  0  0  0  0  0  0
   -1.2008    2.2400   -1.9236 H   0  0  0  0  0  0  0  0  0  0  0  0
   -3.2277    0.9027   -1.4825 H   0  0  0  0  0  0  0  0  0  0  0  0
   -2.7976   -0.0259   -2.9205 H   0  0  0  0  0  0  0  0  0  0  0  0
   -4.5639    2.8546   -1.7869 H   0  0  0  0  0  0  0  0  0  0  0  0
   -5.5449    4.5727   -3.2595 H   0  0  0  0  0  0  0  0  0  0  0  0
   -4.8473    4.7333   -5.6333 H   0  0  0  0  0  0  0  0  0  0  0  0
   -3.1509    3.1654   -6.5364 H   0  0  0  0  0  0  0  0  0  0  0  0
   -2.1544    1.4375   -5.0773 H   0  0  0  0  0  0  0  0  0  0  0  0
    0.3132   -0.1298    3.8159 H   0  0  0  0  0  0  0  0  0  0  0  0
    1.6340   -1.1846    5.5881 H   0  0  0  0  0  0  0  0  0  0  0  0
    3.1841   -2.7906    6.4241 H   0  0  0  0  0  0  0  0  0  0  0  0
    3.2875   -1.2082    7.2908 H   0  0  0  0  0  0  0  0  0  0  0  0
    4.6446   -2.3408    7.3126 H   0  0  0  0  0  0  0  0  0  0  0  0
    5.2502   -0.2396    3.4360 H   0  0  0  0  0  0  0  0  0  0  0  0
    3.8956    0.8234    1.6557 H   0  0  0  0  0  0  0  0  0  0  0  0
    2.2263   -2.2489    1.6931 H   0  0  0  0  0  0  0  0  0  0  0  0
    1.0317   -4.2447   -2.3983 H   0  0  0  0  0  0  0  0  0  0  0  0
   -0.3623   -4.6831   -1.3547 H   0  0  0  0  0  0  0  0  0  0  0  0
   -0.5338   -3.4015   -2.5875 H   0  0  0  0  0  0  0  0  0  0  0  0
  1  2  1  0
  2  3  1  0
  3  4  1  0
  4  5  1  0
  5  6  2  0
  6  7  1  0
  7  8  2  0
  8  9  1  0
  9 10  2  0
  2 11  2  0
 11 12  1  0
 12 13  2  3
 13 14  1  0
 14 15  2  0
 15 16  1  0
 16 17  2  0
 17 18  1  0
 18 19  1  0
 17 20  1  0
 20 21  2  0
 12 22  1  0
 22 23  1  0
 23 24  2  0
 24 25  1  0
 25 26  1  0
 25 27  1  0
 27  1  1  0
 10  5  1  0
 21 14  1  0
 27 22  2  0
  1 28  1  0
  3 29  1  0
  4 30  1  0
  4 31  1  0
  6 32  1  0
  7 33  1  0
  8 34  1  0
  9 35  1  0
 10 36  1  0
 15 37  1  0
 16 38  1  0
 19 39  1  0
 19 40  1  0
 19 41  1  0
 20 42  1  0
 21 43  1  0
 23 44  1  0
 26 45  1  0
 26 46  1  0
 26 47  1  0
M  END
>  <ScrubInfo>  (5) 
{"isomerGroup": 0, "isomerId": 4, "confId": 0, "nr_conformers:": 1, "nr_isomers:": 9}

$$$$
_i5
     RDKit          3D

 47 50  0  0  0  0  0  0  0  0999 V2000
   -1.5796   -3.3091    0.2906 N   0  0  0  0  0  0  0  0  0  0  0  0
   -1.9521   -1.9707    0.3567 C   0  0  0  0  0  0  0  0  0  0  0  0
   -0.9198   -1.1217    0.2363 C   0  0  0  0  0  0  0  0  0  0  0  0
   -0.6597    0.3123    0.2439 C   0  0  0  0  0  0  0  0  0  0  0  0
   -1.4707    1.3158    0.3046 N   0  0  0  0  0  0  0  0  0  0  0  0
   -2.8496    1.1141    0.3738 C   0  0  0  0  0  0  0  0  0  0  0  0
   -3.4900    1.0262    1.6100 C   0  0  0  0  0  0  0  0  0  0  0  0
   -4.8727    0.8369    1.6738 C   0  0  0  0  0  0  0  0  0  0  0  0
   -5.6342    0.7548    0.5050 C   0  0  0  0  0  0  0  0  0  0  0  0
   -6.9731    0.5655    0.7074 O   0  0  0  0  0  0  0  0  0  0  0  0
   -7.8037    0.5644   -0.4468 C   0  0  0  0  0  0  0  0  0  0  0  0
   -4.9993    0.8686   -0.7323 C   0  0  0  0  0  0  0  0  0  0  0  0
   -3.6134    1.0549   -0.7941 C   0  0  0  0  0  0  0  0  0  0  0  0
    0.6696    0.6337    0.1732 N   0  0  0  0  0  0  0  0  0  0  0  0
    1.6134   -0.2472    0.0426 C   0  0  0  0  0  0  0  0  0  0  0  0
    2.9181    0.1397   -0.0128 N   0  0  0  0  0  0  0  0  0  0  0  0
    3.3041    1.4944   -0.3256 C   0  0  0  0  0  0  0  0  0  0  0  0
    4.8106    1.5904   -0.3595 C   0  0  0  0  0  0  0  0  0  0  0  0
    5.5437    1.6371    0.8357 C   0  0  0  0  0  0  0  0  0  0  0  0
    6.9373    1.7063    0.8099 C   0  0  0  0  0  0  0  0  0  0  0  0
    7.6120    1.7233   -0.4094 C   0  0  0  0  0  0  0  0  0  0  0  0
    6.8951    1.6674   -1.6035 C   0  0  0  0  0  0  0  0  0  0  0  0
    5.5010    1.5977   -1.5801 C   0  0  0  0  0  0  0  0  0  0  0  0
    1.4256   -1.5987   -0.0599 N   0  0  0  0  0  0  0  0  0  0  0  0
    0.2183   -2.0365    0.0276 C   0  0  0  0  0  0  0  0  0  0  0  0
   -0.2329   -3.3560   -0.0393 N   0  0  0  0  0  0  0  0  0  0  0  0
    0.5784   -4.4447    0.4718 C   0  0  0  0  0  0  0  0  0  0  0  0
   -2.2069   -3.8770   -0.2834 H   0  0  0  0  0  0  0  0  0  0  0  0
   -2.9984   -1.7380    0.4900 H   0  0  0  0  0  0  0  0  0  0  0  0
   -2.9099    1.1078    2.5251 H   0  0  0  0  0  0  0  0  0  0  0  0
   -5.3607    0.7642    2.6426 H   0  0  0  0  0  0  0  0  0  0  0  0
   -8.8386    0.4392   -0.1138 H   0  0  0  0  0  0  0  0  0  0  0  0
   -7.5618   -0.2766   -1.1048 H   0  0  0  0  0  0  0  0  0  0  0  0
   -7.7391    1.5175   -0.9822 H   0  0  0  0  0  0  0  0  0  0  0  0
   -5.5488    0.8247   -1.6663 H   0  0  0  0  0  0  0  0  0  0  0  0
   -3.1237    1.1609   -1.7586 H   0  0  0  0  0  0  0  0  0  0  0  0
    3.5310   -0.5843   -0.3638 H   0  0  0  0  0  0  0  0  0  0  0  0
    2.9153    2.1951    0.4235 H   0  0  0  0  0  0  0  0  0  0  0  0
    2.8888    1.7949   -1.2952 H   0  0  0  0  0  0  0  0  0  0  0  0
    5.0259    1.6145    1.7928 H   0  0  0  0  0  0  0  0  0  0  0  0
    7.4957    1.7444    1.7415 H   0  0  0  0  0  0  0  0  0  0  0  0
    8.6974    1.7772   -0.4288 H   0  0  0  0  0  0  0  0  0  0  0  0
    7.4225    1.6769   -2.5539 H   0  0  0  0  0  0  0  0  0  0  0  0
    4.9563    1.5498   -2.5205 H   0  0  0  0  0  0  0  0  0  0  0  0
    0.1015   -5.4070    0.2592 H   0  0  0  0  0  0  0  0  0  0  0  0
    1.5637   -4.4480   -0.0053 H   0  0  0  0  0  0  0  0  0  0  0  0
    0.7133   -4.3550    1.5548 H   0  0  0  0  0  0  0  0  0  0  0  0
  1  2  1  0
  2  3  2  0
  3  4  1  0
  4  5  2  3
  5  6  1  0
  6  7  2  0
  7  8  1  0
  8  9  2  0
  9 10  1  0
 10 11  1  0
  9 12  1  0
 12 13  2  0
  4 14  1  0
 14 15  2  0
 15 16  1  0
 16 17  1  0
 17 18  1  0
 18 19  2  0
 19 20  1  0
 20 21  2  0
 21 22  1  0
 22 23  2  0
 15 24  1  0
 24 25  2  0
 25 26  1  0
 26 27  1  0
 26  1  1  0
 25  3  1  0
 13  6  1  0
 23 18  1  0
  1 28  1  0
  2 29  1  0
  7 30  1  0
  8 31  1  0
 11 32  1  0
 11 33  1  0
 11 34  1  0
 12 35  1  0
 13 36  1  0
 16 37  1  0
 17 38  1  0
 17 39  1  0
 19 40  1  0
 20 41  1  0
 21 42  1  0
 22 43  1  0
 23 44  1  0
 27 45  1  0
 27 46  1  0
 27 47  1  0
M  END
>  <ScrubInfo>  (6) 
{"isomerGroup": 0, "isomerId": 5, "confId": 0, "nr_conformers:": 1, "nr_isomers:": 9}

$$$$
_i6
     RDKit          3D

 47 50  0  0  0  0  0  0  0  0999 V2000
    0.4296   -5.3407    0.8727 N   0  0  0  0  0  0  0  0  0  0  0  0
    1.2602   -4.2281    0.7899 C   0  0  0  0  0  0  0  0  0  0  0  0
    0.5977   -3.1021    0.4889 C   0  0  0  0  0  0  0  0  0  0  0  0
    0.8870   -1.6780    0.2909 C   0  0  0  0  0  0  0  0  0  0  0  0
    2.1924   -1.2346    0.4021 N   0  0  0  0  0  0  0  0  0  0  0  0
    2.7426    0.0241    0.0944 C   0  0  0  0  0  0  0  0  0  0  0  0
    2.0779    1.0154   -0.6296 C   0  0  0  0  0  0  0  0  0  0  0  0
    2.6761    2.2585   -0.8721 C   0  0  0  0  0  0  0  0  0  0  0  0
    3.9509    2.5462   -0.3880 C   0  0  0  0  0  0  0  0  0  0  0  0
    4.4153    3.7939   -0.6956 O   0  0  0  0  0  0  0  0  0  0  0  0
    5.7015    4.1425   -0.2003 C   0  0  0  0  0  0  0  0  0  0  0  0
    4.6255    1.5745    0.3443 C   0  0  0  0  0  0  0  0  0  0  0  0
    4.0239    0.3305    0.5833 C   0  0  0  0  0  0  0  0  0  0  0  0
   -0.1271   -0.9001    0.0380 N   0  0  0  0  0  0  0  0  0  0  0  0
   -1.4022   -1.4216   -0.0222 C   0  0  0  0  0  0  0  0  0  0  0  0
   -2.4052   -0.6332   -0.1809 N   0  0  0  0  0  0  0  0  0  0  0  0
   -2.1202    0.7980   -0.2799 C   0  0  0  0  0  0  0  0  0  0  0  0
   -3.3708    1.6419   -0.4296 C   0  0  0  0  0  0  0  0  0  0  0  0
   -4.6088    1.2212    0.0762 C   0  0  0  0  0  0  0  0  0  0  0  0
   -5.7391    2.0331   -0.0385 C   0  0  0  0  0  0  0  0  0  0  0  0
   -5.6431    3.2812   -0.6503 C   0  0  0  0  0  0  0  0  0  0  0  0
   -4.4165    3.7195   -1.1449 C   0  0  0  0  0  0  0  0  0  0  0  0
   -3.2861    2.9073   -1.0309 C   0  0  0  0  0  0  0  0  0  0  0  0
   -1.7517   -2.7470    0.0716 N   0  0  0  0  0  0  0  0  0  0  0  0
   -0.7930   -3.5699    0.3095 C   0  0  0  0  0  0  0  0  0  0  0  0
   -0.8389   -4.9565    0.4527 N   0  0  0  0  0  0  0  0  0  0  0  0
   -2.0055   -5.6082    1.0175 C   0  0  0  0  0  0  0  0  0  0  0  0
    0.8127   -6.1765    0.4242 H   0  0  0  0  0  0  0  0  0  0  0  0
    2.3180   -4.3593    0.9619 H   0  0  0  0  0  0  0  0  0  0  0  0
    2.8797   -1.9043    0.7196 H   0  0  0  0  0  0  0  0  0  0  0  0
    1.0887    0.8441   -1.0417 H   0  0  0  0  0  0  0  0  0  0  0  0
    2.1352    3.0076   -1.4457 H   0  0  0  0  0  0  0  0  0  0  0  0
    5.7209    4.1269    0.8945 H   0  0  0  0  0  0  0  0  0  0  0  0
    5.9179    5.1656   -0.5224 H   0  0  0  0  0  0  0  0  0  0  0  0
    6.4754    3.4908   -0.6191 H   0  0  0  0  0  0  0  0  0  0  0  0
    5.6168    1.7486    0.7487 H   0  0  0  0  0  0  0  0  0  0  0  0
    4.5755   -0.3991    1.1716 H   0  0  0  0  0  0  0  0  0  0  0  0
   -1.6004    1.1515    0.6199 H   0  0  0  0  0  0  0  0  0  0  0  0
   -1.4838    0.9814   -1.1551 H   0  0  0  0  0  0  0  0  0  0  0  0
   -4.6962    0.2494    0.5583 H   0  0  0  0  0  0  0  0  0  0  0  0
   -6.6927    1.6878    0.3509 H   0  0  0  0  0  0  0  0  0  0  0  0
   -6.5232    3.9118   -0.7394 H   0  0  0  0  0  0  0  0  0  0  0  0
   -4.3382    4.6943   -1.6182 H   0  0  0  0  0  0  0  0  0  0  0  0
   -2.3342    3.2660   -1.4154 H   0  0  0  0  0  0  0  0  0  0  0  0
   -1.8970   -6.6962    0.9629 H   0  0  0  0  0  0  0  0  0  0  0  0
   -2.9076   -5.3341    0.4612 H   0  0  0  0  0  0  0  0  0  0  0  0
   -2.1398   -5.3241    2.0664 H   0  0  0  0  0  0  0  0  0  0  0  0
  1  2  1  0
  2  3  2  0
  3  4  1  0
  4  5  1  0
  5  6  1  0
  6  7  2  0
  7  8  1  0
  8  9  2  0
  9 10  1  0
 10 11  1  0
  9 12  1  0
 12 13  2  0
  4 14  2  0
 14 15  1  0
 15 16  2  3
 16 17  1  0
 17 18  1  0
 18 19  2  0
 19 20  1  0
 20 21  2  0
 21 22  1  0
 22 23  2  0
 15 24  1  0
 24 25  2  0
 25 26  1  0
 26 27  1  0
 26  1  1  0
 25  3  1  0
 13  6  1  0
 23 18  1  0
  1 28  1  0
  2 29  1  0
  5 30  1  0
  7 31  1  0
  8 32  1  0
 11 33  1  0
 11 34  1  0
 11 35  1  0
 12 36  1  0
 13 37  1  0
 17 38  1  0
 17 39  1  0
 19 40  1  0
 20 41  1  0
 21 42  1  0
 22 43  1  0
 23 44  1  0
 27 45  1  0
 27 46  1  0
 27 47  1  0
M  END
>  <ScrubInfo>  (7) 
{"isomerGroup": 0, "isomerId": 6, "confId": 0, "nr_conformers:": 1, "nr_isomers:": 9}

$$$$
_i7
     RDKit          3D

 47 50  0  0  0  0  0  0  0  0999 V2000
   -1.3684   -2.3089   -0.0364 N   0  0  0  0  0  0  0  0  0  0  0  0
   -0.9170   -0.9965    0.0082 C   0  0  0  0  0  0  0  0  0  0  0  0
   -1.6120    0.0877   -0.0583 N   0  0  0  0  0  0  0  0  0  0  0  0
   -3.0616   -0.0208   -0.2016 C   0  0  0  0  0  0  0  0  0  0  0  0
   -3.7285    1.3347   -0.2176 C   0  0  0  0  0  0  0  0  0  0  0  0
   -3.4611    2.2702    0.7928 C   0  0  0  0  0  0  0  0  0  0  0  0
   -4.0984    3.5120    0.7997 C   0  0  0  0  0  0  0  0  0  0  0  0
   -5.0149    3.8305   -0.2001 C   0  0  0  0  0  0  0  0  0  0  0  0
   -5.2941    2.9081   -1.2068 C   0  0  0  0  0  0  0  0  0  0  0  0
   -4.6568    1.6654   -1.2149 C   0  0  0  0  0  0  0  0  0  0  0  0
    0.4537   -0.8849    0.1403 N   0  0  0  0  0  0  0  0  0  0  0  0
    1.4393   -1.8478    0.2305 C   0  0  0  0  0  0  0  0  0  0  0  0
    2.7218   -1.7486    0.3501 N   0  0  0  0  0  0  0  0  0  0  0  0
    3.2757   -0.4649    0.4059 C   0  0  0  0  0  0  0  0  0  0  0  0
    3.4421    0.1804    1.6310 C   0  0  0  0  0  0  0  0  0  0  0  0
    3.9886    1.4650    1.6800 C   0  0  0  0  0  0  0  0  0  0  0  0
    4.3859    2.1147    0.5085 C   0  0  0  0  0  0  0  0  0  0  0  0
    4.9016    3.3668    0.6968 O   0  0  0  0  0  0  0  0  0  0  0  0
    5.3361    4.0647   -0.4636 C   0  0  0  0  0  0  0  0  0  0  0  0
    4.2369    1.4633   -0.7162 C   0  0  0  0  0  0  0  0  0  0  0  0
    3.6884    0.1765   -0.7636 C   0  0  0  0  0  0  0  0  0  0  0  0
    0.8666   -3.1714    0.1738 C   0  0  0  0  0  0  0  0  0  0  0  0
    1.3782   -4.4763    0.2161 C   0  0  0  0  0  0  0  0  0  0  0  0
    0.4130   -5.4038    0.1214 N   0  0  0  0  0  0  0  0  0  0  0  0
   -0.7272   -4.6781    0.0238 N   0  0  0  0  0  0  0  0  0  0  0  0
   -1.9842   -5.3724   -0.0956 C   0  0  0  0  0  0  0  0  0  0  0  0
   -0.4912   -3.3364    0.0466 C   0  0  0  0  0  0  0  0  0  0  0  0
   -2.3633   -2.4569   -0.1321 H   0  0  0  0  0  0  0  0  0  0  0  0
   -3.2972   -0.5508   -1.1330 H   0  0  0  0  0  0  0  0  0  0  0  0
   -3.4925   -0.5917    0.6307 H   0  0  0  0  0  0  0  0  0  0  0  0
   -2.7433    2.0323    1.5752 H   0  0  0  0  0  0  0  0  0  0  0  0
   -3.8762    4.2302    1.5842 H   0  0  0  0  0  0  0  0  0  0  0  0
   -5.5092    4.7981   -0.1959 H   0  0  0  0  0  0  0  0  0  0  0  0
   -6.0078    3.1572   -1.9877 H   0  0  0  0  0  0  0  0  0  0  0  0
   -4.8873    0.9598   -2.0092 H   0  0  0  0  0  0  0  0  0  0  0  0
    0.7684    0.0748    0.1703 H   0  0  0  0  0  0  0  0  0  0  0  0
    3.1485   -0.3184    2.5505 H   0  0  0  0  0  0  0  0  0  0  0  0
    4.1115    1.9611    2.6397 H   0  0  0  0  0  0  0  0  0  0  0  0
    5.7211    5.0378   -0.1438 H   0  0  0  0  0  0  0  0  0  0  0  0
    4.5027    4.2458   -1.1504 H   0  0  0  0  0  0  0  0  0  0  0  0
    6.1520    3.5315   -0.9627 H   0  0  0  0  0  0  0  0  0  0  0  0
    4.5400    1.9222   -1.6511 H   0  0  0  0  0  0  0  0  0  0  0  0
    3.5843   -0.3311   -1.7192 H   0  0  0  0  0  0  0  0  0  0  0  0
    2.4099   -4.7909    0.3101 H   0  0  0  0  0  0  0  0  0  0  0  0
   -2.0342   -5.8188   -1.0918 H   0  0  0  0  0  0  0  0  0  0  0  0
   -2.8111   -4.6732    0.0442 H   0  0  0  0  0  0  0  0  0  0  0  0
   -2.0289   -6.1480    0.6734 H   0  0  0  0  0  0  0  0  0  0  0  0
  1  2  1  0
  2  3  2  3
  3  4  1  0
  4  5  1  0
  5  6  2  0
  6  7  1  0
  7  8  2  0
  8  9  1  0
  9 10  2  0
  2 11  1  0
 11 12  1  0
 12 13  2  3
 13 14  1  0
 14 15  2  0
 15 16  1  0
 16 17  2  0
 17 18  1  0
 18 19  1  0
 17 20  1  0
 20 21  2  0
 12 22  1  0
 22 23  1  0
 23 24  2  0
 24 25  1  0
 25 26  1  0
 25 27  1  0
 27  1  1  0
 10  5  1  0
 21 14  1  0
 27 22  2  0
  1 28  1  0
  4 29  1  0
  4 30  1  0
  6 31  1  0
  7 32  1  0
  8 33  1  0
  9 34  1  0
 10 35  1  0
 11 36  1  0
 15 37  1  0
 16 38  1  0
 19 39  1  0
 19 40  1  0
 19 41  1  0
 20 42  1  0
 21 43  1  0
 23 44  1  0
 26 45  1  0
 26 46  1  0
 26 47  1  0
M  END
>  <ScrubInfo>  (8) 
{"isomerGroup": 0, "isomerId": 7, "confId": 0, "nr_conformers:": 1, "nr_isomers:": 9}

$$$$
_i8
     RDKit          3D

 47 50  0  0  0  0  0  0  0  0999 V2000
   -1.6419   -3.2803   -0.4748 N   0  0  0  0  0  0  0  0  0  0  0  0
   -1.9831   -1.9747   -0.1406 C   0  0  0  0  0  0  0  0  0  0  0  0
   -0.9341   -1.1406   -0.1032 C   0  0  0  0  0  0  0  0  0  0  0  0
   -0.6125    0.2658    0.1983 C   0  0  0  0  0  0  0  0  0  0  0  0
   -1.4067    1.2455    0.5176 N   0  0  0  0  0  0  0  0  0  0  0  0
   -2.7860    1.0450    0.6104 C   0  0  0  0  0  0  0  0  0  0  0  0
   -3.3684    0.6881    1.8266 C   0  0  0  0  0  0  0  0  0  0  0  0
   -4.7506    0.5060    1.9172 C   0  0  0  0  0  0  0  0  0  0  0  0
   -5.5684    0.6971    0.8004 C   0  0  0  0  0  0  0  0  0  0  0  0
   -6.9000    0.4834    1.0245 O   0  0  0  0  0  0  0  0  0  0  0  0
   -7.7832    0.7289   -0.0628 C   0  0  0  0  0  0  0  0  0  0  0  0
   -4.9905    1.0782   -0.4109 C   0  0  0  0  0  0  0  0  0  0  0  0
   -3.6052    1.2576   -0.5006 C   0  0  0  0  0  0  0  0  0  0  0  0
    0.7303    0.5292    0.1199 N   0  0  0  0  0  0  0  0  0  0  0  0
    1.7328   -0.3504   -0.2065 C   0  0  0  0  0  0  0  0  0  0  0  0
    2.9926   -0.0999   -0.2467 N   0  0  0  0  0  0  0  0  0  0  0  0
    3.4654    1.2410    0.0807 C   0  0  0  0  0  0  0  0  0  0  0  0
    4.9678    1.3841   -0.0258 C   0  0  0  0  0  0  0  0  0  0  0  0
    5.6342    2.3486    0.7459 C   0  0  0  0  0  0  0  0  0  0  0  0
    7.0151    2.5237    0.6301 C   0  0  0  0  0  0  0  0  0  0  0  0
    7.7448    1.7446   -0.2652 C   0  0  0  0  0  0  0  0  0  0  0  0
    7.0945    0.7925   -1.0471 C   0  0  0  0  0  0  0  0  0  0  0  0
    5.7140    0.6174   -0.9321 C   0  0  0  0  0  0  0  0  0  0  0  0
    1.4410   -1.6556   -0.5445 N   0  0  0  0  0  0  0  0  0  0  0  0
    0.2029   -2.0346   -0.5133 C   0  0  0  0  0  0  0  0  0  0  0  0
   -0.3011   -3.2983   -0.8296 N   0  0  0  0  0  0  0  0  0  0  0  0
    0.4821   -4.4944   -0.5829 C   0  0  0  0  0  0  0  0  0  0  0  0
   -2.2900   -3.7152   -1.1352 H   0  0  0  0  0  0  0  0  0  0  0  0
   -3.0221   -1.7543    0.0552 H   0  0  0  0  0  0  0  0  0  0  0  0
   -2.7457    0.5511    2.7061 H   0  0  0  0  0  0  0  0  0  0  0  0
   -5.1941    0.2213    2.8683 H   0  0  0  0  0  0  0  0  0  0  0  0
   -8.8029    0.5380    0.2853 H   0  0  0  0  0  0  0  0  0  0  0  0
   -7.5822    0.0465   -0.8951 H   0  0  0  0  0  0  0  0  0  0  0  0
   -7.7317    1.7739   -0.3861 H   0  0  0  0  0  0  0  0  0  0  0  0
   -5.5849    1.2500   -1.3018 H   0  0  0  0  0  0  0  0  0  0  0  0
   -3.1611    1.5684   -1.4427 H   0  0  0  0  0  0  0  0  0  0  0  0
    0.9783    1.4798    0.3386 H   0  0  0  0  0  0  0  0  0  0  0  0
    3.1673    1.4868    1.1079 H   0  0  0  0  0  0  0  0  0  0  0  0
    3.0196    1.9780   -0.5991 H   0  0  0  0  0  0  0  0  0  0  0  0
    5.0807    2.9694    1.4462 H   0  0  0  0  0  0  0  0  0  0  0  0
    7.5208    3.2688    1.2382 H   0  0  0  0  0  0  0  0  0  0  0  0
    8.8192    1.8791   -0.3547 H   0  0  0  0  0  0  0  0  0  0  0  0
    7.6591    0.1831   -1.7474 H   0  0  0  0  0  0  0  0  0  0  0  0
    5.2183   -0.1299   -1.5493 H   0  0  0  0  0  0  0  0  0  0  0  0
   -0.0369   -5.3762   -0.9727 H   0  0  0  0  0  0  0  0  0  0  0  0
    1.4531   -4.4306   -1.0842 H   0  0  0  0  0  0  0  0  0  0  0  0
    0.6491   -4.6354    0.4901 H   0  0  0  0  0  0  0  0  0  0  0  0
  1  2  1  0
  2  3  2  0
  3  4  1  0
  4  5  2  3
  5  6  1  0
  6  7  2  0
  7  8  1  0
  8  9  2  0
  9 10  1  0
 10 11  1  0
  9 12  1  0
 12 13  2  0
  4 14  1  0
 14 15  1  0
 15 16  2  3
 16 17  1  0
 17 18  1  0
 18 19  2  0
 19 20  1  0
 20 21  2  0
 21 22  1  0
 22 23  2  0
 15 24  1  0
 24 25  2  0
 25 26  1  0
 26 27  1  0
 26  1  1  0
 25  3  1  0
 13  6  1  0
 23 18  1  0
  1 28  1  0
  2 29  1  0
  7 30  1  0
  8 31  1  0
 11 32  1  0
 11 33  1  0
 11 34  1  0
 12 35  1  0
 13 36  1  0
 14 37  1  0
 17 38  1  0
 17 39  1  0
 19 40  1  0
 20 41  1  0
 21 42  1  0
 22 43  1  0
 23 44  1  0
 27 45  1  0
 27 46  1  0
 27 47  1  0
M  END
>  <ScrubInfo>  (9) 
{"isomerGroup": 0, "isomerId": 8, "confId": 0, "nr_conformers:": 1, "nr_isomers:": 9}

$$$$
