REMARK SMILES COc1ccc(Nc2nc(NCc3ccccc3)nc3c2cnn3C)cc1
REMARK SMILES IDX 8 1 9 2 10 3 19 4 20 5 21 6 22 7 23 8 24 9 25 10 7 11 6 13
REMARK SMILES IDX 3 14 4 15 27 16 5 17 26 18 2 19 1 20 11 21 12 23 13 24 14 25
REMARK SMILES IDX 18 26 15 27 17 28 16 29
REMARK H PARENT 7 12 11 22
ROOT
ATOM      1  C   UNL     1       0.705  -0.078   0.960  1.00  0.00     0.147 A 
ATOM      2  N   UNL     1      -0.571   0.378   0.886  1.00  0.00    -0.195 NA
ATOM      3  C   UNL     1      -1.604  -0.460   1.104  1.00  0.00     0.227 A 
ATOM      4  N   UNL     1      -1.506  -1.760   1.405  1.00  0.00    -0.193 NA
ATOM      5  C   UNL     1      -0.235  -2.177   1.508  1.00  0.00     0.165 A 
ATOM      6  C   UNL     1       0.899  -1.415   1.310  1.00  0.00     0.082 A 
ATOM      7  C   UNL     1       1.966  -2.300   1.568  1.00  0.00     0.149 A 
ATOM      8  N   UNL     1       1.554  -3.536   1.877  1.00  0.00    -0.179 NA
ATOM      9  N   UNL     1       0.205  -3.430   1.839  1.00  0.00    -0.250 N 
ATOM     10  C   UNL     1      -0.605  -4.581   2.147  1.00  0.00     0.176 C 
ENDROOT
BRANCH   1  11
ATOM     11  N   UNL     1       1.725   0.859   0.741  1.00  0.00    -0.339 N 
ATOM     12  H   UNL     1       1.284   1.763   0.590  1.00  0.00     0.168 HD
BRANCH  11  13
ATOM     13  C   UNL     1       2.900   0.727  -0.023  1.00  0.00     0.040 A 
ATOM     14  C   UNL     1       5.303   0.583  -1.504  1.00  0.00     0.119 A 
ATOM     15  C   UNL     1       5.116   1.597  -0.568  1.00  0.00     0.048 A 
ATOM     16  C   UNL     1       4.285  -0.350  -1.704  1.00  0.00     0.048 A 
ATOM     17  C   UNL     1       3.922   1.667   0.162  1.00  0.00     0.030 A 
ATOM     18  C   UNL     1       3.094  -0.279  -0.973  1.00  0.00     0.030 A 
BRANCH  14  19
ATOM     19  O   UNL     1       6.412   0.398  -2.282  1.00  0.00    -0.497 OA
ATOM     20  C   UNL     1       7.486   1.311  -2.098  1.00  0.00     0.278 C 
ENDBRANCH  14  19
ENDBRANCH  11  13
ENDBRANCH   1  11
BRANCH   3  21
ATOM     21  N   UNL     1      -2.903   0.023   1.017  1.00  0.00    -0.350 N 
ATOM     22  H   UNL     1      -3.511  -0.783   0.926  1.00  0.00     0.164 HD
BRANCH  21  23
ATOM     23  C   UNL     1      -3.093   1.041   0.005  1.00  0.00     0.152 C 
BRANCH  23  24
ATOM     24  C   UNL     1      -4.572   1.312  -0.151  1.00  0.00    -0.029 A 
ATOM     25  C   UNL     1      -5.278   1.984   0.858  1.00  0.00     0.005 A 
ATOM     26  C   UNL     1      -5.265   0.880  -1.291  1.00  0.00     0.005 A 
ATOM     27  C   UNL     1      -6.646   2.229   0.724  1.00  0.00     0.000 A 
ATOM     28  C   UNL     1      -6.633   1.127  -1.423  1.00  0.00     0.000 A 
ATOM     29  C   UNL     1      -7.322   1.802  -0.417  1.00  0.00     0.000 A 
ENDBRANCH  23  24
ENDBRANCH  21  23
ENDBRANCH   3  21
TORSDOF 6
