REMARK SMILES Cc1ccc(Nc2nc(NCc3ccc(F)cc3)nc(N(C)C)n2)cc1F
REMARK SMILES IDX 7 1 8 2 9 3 19 4 20 5 24 6 6 7 5 9 2 10 3 11 26 12 4 13
REMARK SMILES IDX 25 14 1 15 27 16 10 17 11 19 12 20 13 21 18 22 14 23 17 24
REMARK SMILES IDX 15 25 16 26 21 27 22 28 23 29
REMARK H PARENT 6 8 10 18
ROOT
ATOM      1  C   UNL     1       1.323   1.289   0.425  1.00  0.00     0.233 A 
ATOM      2  N   UNL     1       0.292   0.546   0.055  1.00  0.00    -0.177 NA
ATOM      3  C   UNL     1      -0.843   1.193  -0.144  1.00  0.00     0.229 A 
ATOM      4  N   UNL     1      -0.993   2.498   0.006  1.00  0.00    -0.177 NA
ATOM      5  C   UNL     1       0.083   3.185   0.375  1.00  0.00     0.231 A 
ATOM      6  N   UNL     1       1.257   2.603   0.601  1.00  0.00    -0.176 NA
ENDROOT
BRANCH   1   7
ATOM      7  N   UNL     1       2.572   0.726   0.688  1.00  0.00    -0.324 N 
ATOM      8  H   UNL     1       3.205   1.456   0.983  1.00  0.00     0.170 HD
BRANCH   7   9
ATOM      9  C   UNL     1       3.112  -0.556   0.536  1.00  0.00     0.044 A 
ATOM     10  C   UNL     1       4.295  -3.131   0.336  1.00  0.00    -0.015 A 
ATOM     11  C   UNL     1       3.008  -2.900  -0.151  1.00  0.00     0.008 A 
ATOM     12  C   UNL     1       4.970  -2.073   0.941  1.00  0.00     0.128 A 
ATOM     13  C   UNL     1       2.428  -1.627  -0.051  1.00  0.00     0.026 A 
ATOM     14  C   UNL     1       4.395  -0.807   1.041  1.00  0.00     0.065 A 
ATOM     15  C   UNL     1       4.919  -4.490   0.266  1.00  0.00     0.047 C 
ATOM     16  F   UNL     1       6.198  -2.265   1.445  1.00  0.00    -0.207 F 
ENDBRANCH   7   9
ENDBRANCH   1   7
BRANCH   3  17
ATOM     17  N   UNL     1      -1.982   0.500  -0.537  1.00  0.00    -0.350 N 
ATOM     18  H   UNL     1      -2.769   1.113  -0.351  1.00  0.00     0.164 HD
BRANCH  17  19
ATOM     19  C   UNL     1      -2.097  -0.821   0.045  1.00  0.00     0.152 C 
BRANCH  19  20
ATOM     20  C   UNL     1      -3.455  -1.393  -0.297  1.00  0.00    -0.029 A 
ATOM     21  C   UNL     1      -3.742  -1.791  -1.614  1.00  0.00     0.008 A 
ATOM     22  C   UNL     1      -4.451  -1.514   0.685  1.00  0.00     0.008 A 
ATOM     23  C   UNL     1      -4.996  -2.310  -1.939  1.00  0.00     0.039 A 
ATOM     24  C   UNL     1      -5.705  -2.034   0.357  1.00  0.00     0.039 A 
ATOM     25  C   UNL     1      -5.964  -2.428  -0.950  1.00  0.00     0.123 A 
ATOM     26  F   UNL     1      -7.168  -2.925  -1.262  1.00  0.00    -0.207 F 
ENDBRANCH  19  20
ENDBRANCH  17  19
ENDBRANCH   3  17
BRANCH   5  27
ATOM     27  N   UNL     1      -0.033   4.566   0.568  1.00  0.00    -0.347 N 
ATOM     28  C   UNL     1       1.225   5.294   0.515  1.00  0.00     0.146 C 
ATOM     29  C   UNL     1      -1.168   5.177  -0.107  1.00  0.00     0.146 C 
ENDBRANCH   5  27
TORSDOF 6
