_i0
     RDKit          3D

 47 49  0  0  0  0  0  0  0  0999 V2000
    4.9193   -4.4904    0.2662 C   0  0  0  0  0  0  0  0  0  0  0  0
    4.2955   -3.1315    0.3364 C   0  0  0  0  0  0  0  0  0  0  0  0
    3.0079   -2.8998   -0.1507 C   0  0  0  0  0  0  0  0  0  0  0  0
    2.4280   -1.6269   -0.0505 C   0  0  0  0  0  0  0  0  0  0  0  0
    3.1119   -0.5557    0.5360 C   0  0  0  0  0  0  0  0  0  0  0  0
    2.5724    0.7264    0.6878 N   0  0  0  0  0  0  0  0  0  0  0  0
    1.3233    1.2886    0.4251 C   0  0  0  0  0  0  0  0  0  0  0  0
    0.2920    0.5462    0.0551 N   0  0  0  0  0  0  0  0  0  0  0  0
   -0.8433    1.1930   -0.1440 C   0  0  0  0  0  0  0  0  0  0  0  0
   -1.9824    0.5003   -0.5374 N   0  0  0  0  0  0  0  0  0  0  0  0
   -2.0966   -0.8211    0.0447 C   0  0  0  0  0  0  0  0  0  0  0  0
   -3.4550   -1.3930   -0.2974 C   0  0  0  0  0  0  0  0  0  0  0  0
   -3.7420   -1.7910   -1.6144 C   0  0  0  0  0  0  0  0  0  0  0  0
   -4.9958   -2.3099   -1.9392 C   0  0  0  0  0  0  0  0  0  0  0  0
   -5.9644   -2.4277   -0.9502 C   0  0  0  0  0  0  0  0  0  0  0  0
   -7.1685   -2.9252   -1.2617 F   0  0  0  0  0  0  0  0  0  0  0  0
   -5.7045   -2.0339    0.3572 C   0  0  0  0  0  0  0  0  0  0  0  0
   -4.4511   -1.5138    0.6850 C   0  0  0  0  0  0  0  0  0  0  0  0
   -0.9933    2.4984    0.0057 N   0  0  0  0  0  0  0  0  0  0  0  0
    0.0827    3.1847    0.3747 C   0  0  0  0  0  0  0  0  0  0  0  0
   -0.0329    4.5655    0.5682 N   0  0  0  0  0  0  0  0  0  0  0  0
    1.2252    5.2943    0.5155 C   0  0  0  0  0  0  0  0  0  0  0  0
   -1.1681    5.1773   -0.1072 C   0  0  0  0  0  0  0  0  0  0  0  0
    1.2568    2.6032    0.6008 N   0  0  0  0  0  0  0  0  0  0  0  0
    4.3951   -0.8066    1.0412 C   0  0  0  0  0  0  0  0  0  0  0  0
    4.9697   -2.0730    0.9413 C   0  0  0  0  0  0  0  0  0  0  0  0
    6.1977   -2.2647    1.4452 F   0  0  0  0  0  0  0  0  0  0  0  0
    5.9836   -4.4160    0.0197 H   0  0  0  0  0  0  0  0  0  0  0  0
    4.4485   -5.1016   -0.5111 H   0  0  0  0  0  0  0  0  0  0  0  0
    4.8098   -5.0036    1.2265 H   0  0  0  0  0  0  0  0  0  0  0  0
    2.4403   -3.7033   -0.6149 H   0  0  0  0  0  0  0  0  0  0  0  0
    1.4290   -1.4954   -0.4556 H   0  0  0  0  0  0  0  0  0  0  0  0
    3.2050    1.4565    0.9829 H   0  0  0  0  0  0  0  0  0  0  0  0
   -2.7691    1.1128   -0.3512 H   0  0  0  0  0  0  0  0  0  0  0  0
   -1.9782   -0.7842    1.1357 H   0  0  0  0  0  0  0  0  0  0  0  0
   -1.3270   -1.4985   -0.3475 H   0  0  0  0  0  0  0  0  0  0  0  0
   -2.9860   -1.6867   -2.3908 H   0  0  0  0  0  0  0  0  0  0  0  0
   -5.2228   -2.6176   -2.9547 H   0  0  0  0  0  0  0  0  0  0  0  0
   -6.4792   -2.1326    1.1109 H   0  0  0  0  0  0  0  0  0  0  0  0
   -4.2572   -1.2038    1.7097 H   0  0  0  0  0  0  0  0  0  0  0  0
    1.9247    4.9499    1.2859 H   0  0  0  0  0  0  0  0  0  0  0  0
    1.0561    6.3599    0.7078 H   0  0  0  0  0  0  0  0  0  0  0  0
    1.6990    5.2039   -0.4689 H   0  0  0  0  0  0  0  0  0  0  0  0
   -1.2108    6.2494    0.1164 H   0  0  0  0  0  0  0  0  0  0  0  0
   -2.1191    4.7537    0.2356 H   0  0  0  0  0  0  0  0  0  0  0  0
   -1.0938    5.0662   -1.1953 H   0  0  0  0  0  0  0  0  0  0  0  0
    4.9676   -0.0224    1.5269 H   0  0  0  0  0  0  0  0  0  0  0  0
  1  2  1  0
  2  3  2  0
  3  4  1  0
  4  5  2  0
  5  6  1  0
  6  7  1  0
  7  8  2  0
  8  9  1  0
  9 10  1  0
 10 11  1  0
 11 12  1  0
 12 13  2  0
 13 14  1  0
 14 15  2  0
 15 16  1  0
 15 17  1  0
 17 18  2  0
  9 19  2  0
 19 20  1  0
 20 21  1  0
 21 22  1  0
 21 23  1  0
 20 24  2  0
  5 25  1  0
 25 26  2  0
 26 27  1  0
 26  2  1  0
 24  7  1  0
 18 12  1  0
  1 28  1  0
  1 29  1  0
  1 30  1  0
  3 31  1  0
  4 32  1  0
  6 33  1  0
 10 34  1  0
 11 35  1  0
 11 36  1  0
 13 37  1  0
 14 38  1  0
 17 39  1  0
 18 40  1  0
 22 41  1  0
 22 42  1  0
 22 43  1  0
 23 44  1  0
 23 45  1  0
 23 46  1  0
 25 47  1  0
M  END
>  <ScrubInfo>  (1) 
{"isomerGroup": 0, "isomerId": 0, "confId": 0, "nr_conformers:": 1, "nr_isomers:": 9}

$$$$
_i1
     RDKit          3D

 47 49  0  0  0  0  0  0  0  0999 V2000
    0.3892   -0.9402   -0.0758 N   0  0  0  0  0  0  0  0  0  0  0  0
    1.3568   -0.0109   -0.1361 C   0  0  0  0  0  0  0  0  0  0  0  0
    2.6506   -0.4355   -0.1019 N   0  0  0  0  0  0  0  0  0  0  0  0
    3.1169   -1.4509    0.8226 C   0  0  0  0  0  0  0  0  0  0  0  0
    4.6150   -1.5957    0.6999 C   0  0  0  0  0  0  0  0  0  0  0  0
    5.4654   -1.1175    1.7098 C   0  0  0  0  0  0  0  0  0  0  0  0
    6.8500   -1.2455    1.5846 C   0  0  0  0  0  0  0  0  0  0  0  0
    7.3849   -1.8450    0.4507 C   0  0  0  0  0  0  0  0  0  0  0  0
    8.7136   -1.9654    0.3330 F   0  0  0  0  0  0  0  0  0  0  0  0
    6.5621   -2.3180   -0.5639 C   0  0  0  0  0  0  0  0  0  0  0  0
    5.1776   -2.1921   -0.4416 C   0  0  0  0  0  0  0  0  0  0  0  0
    1.0748    1.2490   -0.2315 N   0  0  0  0  0  0  0  0  0  0  0  0
   -0.2625    1.6017   -0.2559 C   0  0  0  0  0  0  0  0  0  0  0  0
   -0.5680    2.9530   -0.3208 N   0  0  0  0  0  0  0  0  0  0  0  0
    0.4653    3.9475   -0.0825 C   0  0  0  0  0  0  0  0  0  0  0  0
   -1.9390    3.3899   -0.0965 C   0  0  0  0  0  0  0  0  0  0  0  0
   -1.2315    0.7286   -0.2193 N   0  0  0  0  0  0  0  0  0  0  0  0
   -0.9137   -0.5961   -0.1716 C   0  0  0  0  0  0  0  0  0  0  0  0
   -1.8268   -1.5229   -0.2261 N   0  0  0  0  0  0  0  0  0  0  0  0
   -3.1712   -1.1359   -0.3297 C   0  0  0  0  0  0  0  0  0  0  0  0
   -3.7728   -1.0090   -1.5859 C   0  0  0  0  0  0  0  0  0  0  0  0
   -5.1196   -0.6507   -1.7001 C   0  0  0  0  0  0  0  0  0  0  0  0
   -5.8832   -0.4155   -0.5518 C   0  0  0  0  0  0  0  0  0  0  0  0
   -7.3344   -0.0588   -0.6485 C   0  0  0  0  0  0  0  0  0  0  0  0
   -5.2769   -0.5726    0.6978 C   0  0  0  0  0  0  0  0  0  0  0  0
   -5.9956   -0.3790    1.8139 F   0  0  0  0  0  0  0  0  0  0  0  0
   -3.9379   -0.9304    0.8165 C   0  0  0  0  0  0  0  0  0  0  0  0
    0.5926   -1.9123   -0.2231 H   0  0  0  0  0  0  0  0  0  0  0  0
    3.2731    0.3695   -0.1221 H   0  0  0  0  0  0  0  0  0  0  0  0
    2.6492   -2.4195    0.6106 H   0  0  0  0  0  0  0  0  0  0  0  0
    2.8448   -1.1769    1.8489 H   0  0  0  0  0  0  0  0  0  0  0  0
    5.0568   -0.6418    2.5992 H   0  0  0  0  0  0  0  0  0  0  0  0
    7.5144   -0.8803    2.3615 H   0  0  0  0  0  0  0  0  0  0  0  0
    7.0026   -2.7767   -1.4433 H   0  0  0  0  0  0  0  0  0  0  0  0
    4.5360   -2.5530   -1.2435 H   0  0  0  0  0  0  0  0  0  0  0  0
    1.3461    3.7611   -0.7061 H   0  0  0  0  0  0  0  0  0  0  0  0
    0.7680    3.9401    0.9698 H   0  0  0  0  0  0  0  0  0  0  0  0
    0.1148    4.9556   -0.3292 H   0  0  0  0  0  0  0  0  0  0  0  0
   -2.0697    4.4448   -0.3609 H   0  0  0  0  0  0  0  0  0  0  0  0
   -2.2124    3.2651    0.9565 H   0  0  0  0  0  0  0  0  0  0  0  0
   -2.6427    2.8220   -0.7149 H   0  0  0  0  0  0  0  0  0  0  0  0
   -3.1820   -1.1868   -2.4805 H   0  0  0  0  0  0  0  0  0  0  0  0
   -5.5623   -0.5576   -2.6887 H   0  0  0  0  0  0  0  0  0  0  0  0
   -7.9511   -0.9469   -0.4790 H   0  0  0  0  0  0  0  0  0  0  0  0
   -7.5955    0.7049    0.0915 H   0  0  0  0  0  0  0  0  0  0  0  0
   -7.5761    0.3498   -1.6354 H   0  0  0  0  0  0  0  0  0  0  0  0
   -3.4958   -1.0435    1.7995 H   0  0  0  0  0  0  0  0  0  0  0  0
  1  2  1  0
  2  3  1  0
  3  4  1  0
  4  5  1  0
  5  6  2  0
  6  7  1  0
  7  8  2  0
  8  9  1  0
  8 10  1  0
 10 11  2  0
  2 12  2  0
 12 13  1  0
 13 14  1  0
 14 15  1  0
 14 16  1  0
 13 17  2  0
 17 18  1  0
 18 19  2  3
 19 20  1  0
 20 21  2  0
 21 22  1  0
 22 23  2  0
 23 24  1  0
 23 25  1  0
 25 26  1  0
 25 27  2  0
 18  1  1  0
 27 20  1  0
 11  5  1  0
  1 28  1  0
  3 29  1  0
  4 30  1  0
  4 31  1  0
  6 32  1  0
  7 33  1  0
 10 34  1  0
 11 35  1  0
 15 36  1  0
 15 37  1  0
 15 38  1  0
 16 39  1  0
 16 40  1  0
 16 41  1  0
 21 42  1  0
 22 43  1  0
 24 44  1  0
 24 45  1  0
 24 46  1  0
 27 47  1  0
M  END
>  <ScrubInfo>  (2) 
{"isomerGroup": 0, "isomerId": 1, "confId": 0, "nr_conformers:": 1, "nr_isomers:": 9}

$$$$
_i2
     RDKit          3D

 47 49  0  0  0  0  0  0  0  0999 V2000
   -0.2386   -0.5101    0.5616 N   0  0  0  0  0  0  0  0  0  0  0  0
   -1.2976   -0.7071    1.3732 C   0  0  0  0  0  0  0  0  0  0  0  0
   -2.4824   -1.0506    0.7844 N   0  0  0  0  0  0  0  0  0  0  0  0
   -3.0688   -0.4352   -0.3446 C   0  0  0  0  0  0  0  0  0  0  0  0
   -2.6688    0.8160   -0.8344 C   0  0  0  0  0  0  0  0  0  0  0  0
   -3.2771    1.3764   -1.9644 C   0  0  0  0  0  0  0  0  0  0  0  0
   -4.2952    0.6908   -2.6329 C   0  0  0  0  0  0  0  0  0  0  0  0
   -4.9788    1.2893   -3.8238 C   0  0  0  0  0  0  0  0  0  0  0  0
   -4.7050   -0.5437   -2.1295 C   0  0  0  0  0  0  0  0  0  0  0  0
   -5.6959   -1.2150   -2.7337 F   0  0  0  0  0  0  0  0  0  0  0  0
   -4.1050   -1.1052   -1.0044 C   0  0  0  0  0  0  0  0  0  0  0  0
   -1.1776   -0.6410    2.6611 N   0  0  0  0  0  0  0  0  0  0  0  0
    0.0642   -0.3014    3.1640 C   0  0  0  0  0  0  0  0  0  0  0  0
    0.1809   -0.1699    4.5398 N   0  0  0  0  0  0  0  0  0  0  0  0
   -0.8651   -0.6746    5.4144 C   0  0  0  0  0  0  0  0  0  0  0  0
    1.5048   -0.0504    5.1360 C   0  0  0  0  0  0  0  0  0  0  0  0
    1.1080   -0.1023    2.4083 N   0  0  0  0  0  0  0  0  0  0  0  0
    0.9890   -0.2303    1.0574 C   0  0  0  0  0  0  0  0  0  0  0  0
    2.0867   -0.0677    0.4105 N   0  0  0  0  0  0  0  0  0  0  0  0
    2.0667   -0.1822   -1.0433 C   0  0  0  0  0  0  0  0  0  0  0  0
    3.4234    0.0526   -1.6733 C   0  0  0  0  0  0  0  0  0  0  0  0
    3.5078    0.5280   -2.9929 C   0  0  0  0  0  0  0  0  0  0  0  0
    4.7508    0.7129   -3.6015 C   0  0  0  0  0  0  0  0  0  0  0  0
    5.9107    0.4140   -2.8974 C   0  0  0  0  0  0  0  0  0  0  0  0
    7.1021    0.5907   -3.4841 F   0  0  0  0  0  0  0  0  0  0  0  0
    5.8523   -0.0696   -1.5970 C   0  0  0  0  0  0  0  0  0  0  0  0
    4.6101   -0.2554   -0.9878 C   0  0  0  0  0  0  0  0  0  0  0  0
   -0.3473   -0.7118   -0.4157 H   0  0  0  0  0  0  0  0  0  0  0  0
   -3.1903   -1.2676    1.4823 H   0  0  0  0  0  0  0  0  0  0  0  0
   -1.9015    1.3966   -0.3259 H   0  0  0  0  0  0  0  0  0  0  0  0
   -2.9547    2.3568   -2.3102 H   0  0  0  0  0  0  0  0  0  0  0  0
   -4.3474    2.0452   -4.3026 H   0  0  0  0  0  0  0  0  0  0  0  0
   -5.1914    0.5216   -4.5752 H   0  0  0  0  0  0  0  0  0  0  0  0
   -5.9179    1.7613   -3.5193 H   0  0  0  0  0  0  0  0  0  0  0  0
   -4.4512   -2.0754   -0.6603 H   0  0  0  0  0  0  0  0  0  0  0  0
   -0.8857   -1.7692    5.3942 H   0  0  0  0  0  0  0  0  0  0  0  0
   -1.8485   -0.2961    5.1157 H   0  0  0  0  0  0  0  0  0  0  0  0
   -0.7087   -0.3556    6.4505 H   0  0  0  0  0  0  0  0  0  0  0  0
    1.4418    0.2330    6.1922 H   0  0  0  0  0  0  0  0  0  0  0  0
    2.0956    0.7259    4.6379 H   0  0  0  0  0  0  0  0  0  0  0  0
    2.0416   -1.0026    5.0691 H   0  0  0  0  0  0  0  0  0  0  0  0
    1.3629    0.5525   -1.4550 H   0  0  0  0  0  0  0  0  0  0  0  0
    1.7380   -1.1859   -1.3410 H   0  0  0  0  0  0  0  0  0  0  0  0
    2.6052    0.7599   -3.5531 H   0  0  0  0  0  0  0  0  0  0  0  0
    4.8219    1.0858   -4.6179 H   0  0  0  0  0  0  0  0  0  0  0  0
    6.7688   -0.2988   -1.0638 H   0  0  0  0  0  0  0  0  0  0  0  0
    4.5674   -0.6344    0.0321 H   0  0  0  0  0  0  0  0  0  0  0  0
  1  2  1  0
  2  3  1  0
  3  4  1  0
  4  5  2  0
  5  6  1  0
  6  7  2  0
  7  8  1  0
  7  9  1  0
  9 10  1  0
  9 11  2  0
  2 12  2  0
 12 13  1  0
 13 14  1  0
 14 15  1  0
 14 16  1  0
 13 17  2  0
 17 18  1  0
 18 19  2  3
 19 20  1  0
 20 21  1  0
 21 22  2  0
 22 23  1  0
 23 24  2  0
 24 25  1  0
 24 26  1  0
 26 27  2  0
 18  1  1  0
 27 21  1  0
 11  4  1  0
  1 28  1  0
  3 29  1  0
  5 30  1  0
  6 31  1  0
  8 32  1  0
  8 33  1  0
  8 34  1  0
 11 35  1  0
 15 36  1  0
 15 37  1  0
 15 38  1  0
 16 39  1  0
 16 40  1  0
 16 41  1  0
 20 42  1  0
 20 43  1  0
 22 44  1  0
 23 45  1  0
 26 46  1  0
 27 47  1  0
M  END
>  <ScrubInfo>  (3) 
{"isomerGroup": 0, "isomerId": 2, "confId": 0, "nr_conformers:": 1, "nr_isomers:": 9}

$$$$
_i3
     RDKit          3D

 47 49  0  0  0  0  0  0  0  0999 V2000
   -1.4613    2.2893    0.0329 N   0  0  0  0  0  0  0  0  0  0  0  0
   -0.5502    3.1876    0.4560 C   0  0  0  0  0  0  0  0  0  0  0  0
   -0.9636    4.5025    0.5766 N   0  0  0  0  0  0  0  0  0  0  0  0
    0.0123    5.4904    1.0397 C   0  0  0  0  0  0  0  0  0  0  0  0
   -2.0232    5.0577   -0.2617 C   0  0  0  0  0  0  0  0  0  0  0  0
    0.6560    2.7917    0.7382 N   0  0  0  0  0  0  0  0  0  0  0  0
    0.9616    1.4553    0.5691 C   0  0  0  0  0  0  0  0  0  0  0  0
    2.2705    1.1730    0.8590 N   0  0  0  0  0  0  0  0  0  0  0  0
    3.0167   -0.0094    0.7540 C   0  0  0  0  0  0  0  0  0  0  0  0
    4.3426   -0.0022    1.2254 C   0  0  0  0  0  0  0  0  0  0  0  0
    5.1501   -1.1454    1.1736 C   0  0  0  0  0  0  0  0  0  0  0  0
    4.6494   -2.3333    0.6403 C   0  0  0  0  0  0  0  0  0  0  0  0
    5.4798   -3.5784    0.5994 C   0  0  0  0  0  0  0  0  0  0  0  0
    3.3299   -2.3492    0.1901 C   0  0  0  0  0  0  0  0  0  0  0  0
    2.8126   -3.4825   -0.3072 F   0  0  0  0  0  0  0  0  0  0  0  0
    2.5242   -1.2110    0.2421 C   0  0  0  0  0  0  0  0  0  0  0  0
    0.0968    0.5652    0.1837 N   0  0  0  0  0  0  0  0  0  0  0  0
   -1.1776    0.9743   -0.0599 C   0  0  0  0  0  0  0  0  0  0  0  0
   -2.1108    0.1353   -0.3628 N   0  0  0  0  0  0  0  0  0  0  0  0
   -1.7225   -1.2723   -0.4365 C   0  0  0  0  0  0  0  0  0  0  0  0
   -2.9195   -2.1303   -0.7805 C   0  0  0  0  0  0  0  0  0  0  0  0
   -3.2357   -2.4050   -2.1203 C   0  0  0  0  0  0  0  0  0  0  0  0
   -4.3524   -3.1797   -2.4367 C   0  0  0  0  0  0  0  0  0  0  0  0
   -5.1573   -3.6703   -1.4155 C   0  0  0  0  0  0  0  0  0  0  0  0
   -6.2305   -4.4122   -1.7205 F   0  0  0  0  0  0  0  0  0  0  0  0
   -4.8702   -3.3981   -0.0833 C   0  0  0  0  0  0  0  0  0  0  0  0
   -3.7539   -2.6235    0.2350 C   0  0  0  0  0  0  0  0  0  0  0  0
   -2.4385    2.5139   -0.0055 H   0  0  0  0  0  0  0  0  0  0  0  0
    0.5636    5.1217    1.9117 H   0  0  0  0  0  0  0  0  0  0  0  0
   -0.4819    6.4173    1.3504 H   0  0  0  0  0  0  0  0  0  0  0  0
    0.7252    5.7268    0.2428 H   0  0  0  0  0  0  0  0  0  0  0  0
   -2.9730    4.5426   -0.0878 H   0  0  0  0  0  0  0  0  0  0  0  0
   -1.7578    4.9694   -1.3204 H   0  0  0  0  0  0  0  0  0  0  0  0
   -2.1989    6.1169   -0.0441 H   0  0  0  0  0  0  0  0  0  0  0  0
    2.7804    1.9927    1.1539 H   0  0  0  0  0  0  0  0  0  0  0  0
    4.7661    0.9062    1.6494 H   0  0  0  0  0  0  0  0  0  0  0  0
    6.1678   -1.0968    1.5542 H   0  0  0  0  0  0  0  0  0  0  0  0
    6.5475   -3.3439    0.6658 H   0  0  0  0  0  0  0  0  0  0  0  0
    5.3239   -4.1170   -0.3411 H   0  0  0  0  0  0  0  0  0  0  0  0
    5.2152   -4.2335    1.4351 H   0  0  0  0  0  0  0  0  0  0  0  0
    1.5126   -1.3024   -0.1338 H   0  0  0  0  0  0  0  0  0  0  0  0
   -0.9502   -1.4257   -1.2016 H   0  0  0  0  0  0  0  0  0  0  0  0
   -1.3092   -1.6182    0.5201 H   0  0  0  0  0  0  0  0  0  0  0  0
   -2.6128   -2.0092   -2.9192 H   0  0  0  0  0  0  0  0  0  0  0  0
   -4.6007   -3.3981   -3.4699 H   0  0  0  0  0  0  0  0  0  0  0  0
   -5.5175   -3.7844    0.6967 H   0  0  0  0  0  0  0  0  0  0  0  0
   -3.5356   -2.3980    1.2764 H   0  0  0  0  0  0  0  0  0  0  0  0
  1  2  1  0
  2  3  1  0
  3  4  1  0
  3  5  1  0
  2  6  2  0
  6  7  1  0
  7  8  1  0
  8  9  1  0
  9 10  2  0
 10 11  1  0
 11 12  2  0
 12 13  1  0
 12 14  1  0
 14 15  1  0
 14 16  2  0
  7 17  2  0
 17 18  1  0
 18 19  2  3
 19 20  1  0
 20 21  1  0
 21 22  2  0
 22 23  1  0
 23 24  2  0
 24 25  1  0
 24 26  1  0
 26 27  2  0
 18  1  1  0
 27 21  1  0
 16  9  1  0
  1 28  1  0
  4 29  1  0
  4 30  1  0
  4 31  1  0
  5 32  1  0
  5 33  1  0
  5 34  1  0
  8 35  1  0
 10 36  1  0
 11 37  1  0
 13 38  1  0
 13 39  1  0
 13 40  1  0
 16 41  1  0
 20 42  1  0
 20 43  1  0
 22 44  1  0
 23 45  1  0
 26 46  1  0
 27 47  1  0
M  END
>  <ScrubInfo>  (4) 
{"isomerGroup": 0, "isomerId": 3, "confId": 0, "nr_conformers:": 1, "nr_isomers:": 9}

$$$$
_i4
     RDKit          3D

 47 49  0  0  0  0  0  0  0  0999 V2000
    0.5759    1.1203   -0.1921 N   0  0  0  0  0  0  0  0  0  0  0  0
    0.0975    1.7314    0.9131 C   0  0  0  0  0  0  0  0  0  0  0  0
    1.0046    2.4844    1.6399 N   0  0  0  0  0  0  0  0  0  0  0  0
    0.5468    3.0336    2.9199 C   0  0  0  0  0  0  0  0  0  0  0  0
    1.9782    3.3382    0.9589 C   0  0  0  0  0  0  0  0  0  0  0  0
   -1.1452    1.5764    1.2564 N   0  0  0  0  0  0  0  0  0  0  0  0
   -1.9381    0.8091    0.4383 C   0  0  0  0  0  0  0  0  0  0  0  0
   -3.2442    0.7374    0.8306 N   0  0  0  0  0  0  0  0  0  0  0  0
   -4.1246   -0.3302    0.4193 C   0  0  0  0  0  0  0  0  0  0  0  0
   -3.9757   -1.5206    1.3380 C   0  0  0  0  0  0  0  0  0  0  0  0
   -3.0197   -2.5120    1.0606 C   0  0  0  0  0  0  0  0  0  0  0  0
   -2.8619   -3.6018    1.9174 C   0  0  0  0  0  0  0  0  0  0  0  0
   -3.6546   -3.6989    3.0541 C   0  0  0  0  0  0  0  0  0  0  0  0
   -3.5030   -4.7444    3.8778 F   0  0  0  0  0  0  0  0  0  0  0  0
   -4.6009   -2.7253    3.3526 C   0  0  0  0  0  0  0  0  0  0  0  0
   -4.7603   -1.6334    2.4976 C   0  0  0  0  0  0  0  0  0  0  0  0
   -1.5177    0.1899   -0.6226 N   0  0  0  0  0  0  0  0  0  0  0  0
   -0.1966    0.2925   -0.9414 C   0  0  0  0  0  0  0  0  0  0  0  0
    0.1797   -0.4449   -1.9401 N   0  0  0  0  0  0  0  0  0  0  0  0
    1.5163   -0.4106   -2.3505 C   0  0  0  0  0  0  0  0  0  0  0  0
    1.9384    0.5259   -3.2991 C   0  0  0  0  0  0  0  0  0  0  0  0
    3.2723    0.5669   -3.7152 C   0  0  0  0  0  0  0  0  0  0  0  0
    4.2016   -0.3339   -3.1836 C   0  0  0  0  0  0  0  0  0  0  0  0
    5.6280   -0.3316   -3.6420 C   0  0  0  0  0  0  0  0  0  0  0  0
    3.7590   -1.2850   -2.2600 C   0  0  0  0  0  0  0  0  0  0  0  0
    4.6252   -2.1756   -1.7556 F   0  0  0  0  0  0  0  0  0  0  0  0
    2.4325   -1.3298   -1.8428 C   0  0  0  0  0  0  0  0  0  0  0  0
    1.5695    1.0367   -0.3008 H   0  0  0  0  0  0  0  0  0  0  0  0
    0.0488    2.2642    3.5201 H   0  0  0  0  0  0  0  0  0  0  0  0
    1.3925    3.3991    3.5124 H   0  0  0  0  0  0  0  0  0  0  0  0
   -0.1485    3.8641    2.7572 H   0  0  0  0  0  0  0  0  0  0  0  0
    2.6022    2.7661    0.2659 H   0  0  0  0  0  0  0  0  0  0  0  0
    1.4658    4.1289    0.4007 H   0  0  0  0  0  0  0  0  0  0  0  0
    2.6599    3.8100    1.6750 H   0  0  0  0  0  0  0  0  0  0  0  0
   -3.3605    1.0447    1.7866 H   0  0  0  0  0  0  0  0  0  0  0  0
   -5.1594    0.0304    0.4629 H   0  0  0  0  0  0  0  0  0  0  0  0
   -3.9613   -0.6248   -0.6244 H   0  0  0  0  0  0  0  0  0  0  0  0
   -2.3889   -2.4303    0.1757 H   0  0  0  0  0  0  0  0  0  0  0  0
   -2.1243   -4.3692    1.7062 H   0  0  0  0  0  0  0  0  0  0  0  0
   -5.2049   -2.8221    4.2489 H   0  0  0  0  0  0  0  0  0  0  0  0
   -5.4984   -0.8720    2.7395 H   0  0  0  0  0  0  0  0  0  0  0  0
    1.2158    1.2193   -3.7238 H   0  0  0  0  0  0  0  0  0  0  0  0
    3.5746    1.2976   -4.4622 H   0  0  0  0  0  0  0  0  0  0  0  0
    6.3049   -0.5277   -2.8039 H   0  0  0  0  0  0  0  0  0  0  0  0
    5.7767   -1.0981   -4.4088 H   0  0  0  0  0  0  0  0  0  0  0  0
    5.9055    0.6410   -4.0619 H   0  0  0  0  0  0  0  0  0  0  0  0
    2.1165   -2.0857   -1.1314 H   0  0  0  0  0  0  0  0  0  0  0  0
  1  2  1  0
  2  3  1  0
  3  4  1  0
  3  5  1  0
  2  6  2  0
  6  7  1  0
  7  8  1  0
  8  9  1  0
  9 10  1  0
 10 11  2  0
 11 12  1  0
 12 13  2  0
 13 14  1  0
 13 15  1  0
 15 16  2  0
  7 17  2  0
 17 18  1  0
 18 19  2  3
 19 20  1  0
 20 21  2  0
 21 22  1  0
 22 23  2  0
 23 24  1  0
 23 25  1  0
 25 26  1  0
 25 27  2  0
 18  1  1  0
 27 20  1  0
 16 10  1  0
  1 28  1  0
  4 29  1  0
  4 30  1  0
  4 31  1  0
  5 32  1  0
  5 33  1  0
  5 34  1  0
  8 35  1  0
  9 36  1  0
  9 37  1  0
 11 38  1  0
 12 39  1  0
 15 40  1  0
 16 41  1  0
 21 42  1  0
 22 43  1  0
 24 44  1  0
 24 45  1  0
 24 46  1  0
 27 47  1  0
M  END
>  <ScrubInfo>  (5) 
{"isomerGroup": 0, "isomerId": 4, "confId": 0, "nr_conformers:": 1, "nr_isomers:": 9}

$$$$
_i5
     RDKit          3D

 47 49  0  0  0  0  0  0  0  0999 V2000
    0.9228   -2.2553   -0.5141 N   0  0  0  0  0  0  0  0  0  0  0  0
    0.5799   -0.9966   -0.1455 C   0  0  0  0  0  0  0  0  0  0  0  0
    1.6466   -0.2158    0.1956 N   0  0  0  0  0  0  0  0  0  0  0  0
    1.4477    1.1935    0.4918 C   0  0  0  0  0  0  0  0  0  0  0  0
    2.7782    1.8122    0.8517 C   0  0  0  0  0  0  0  0  0  0  0  0
    3.4851    2.5845   -0.0842 C   0  0  0  0  0  0  0  0  0  0  0  0
    4.7243    3.1341    0.2488 C   0  0  0  0  0  0  0  0  0  0  0  0
    5.2590    2.9079    1.5117 C   0  0  0  0  0  0  0  0  0  0  0  0
    6.4495    3.4343    1.8272 F   0  0  0  0  0  0  0  0  0  0  0  0
    4.5794    2.1406    2.4497 C   0  0  0  0  0  0  0  0  0  0  0  0
    3.3404    1.5899    2.1201 C   0  0  0  0  0  0  0  0  0  0  0  0
   -0.6496   -0.6033   -0.1211 N   0  0  0  0  0  0  0  0  0  0  0  0
   -1.5754   -1.5607   -0.4854 C   0  0  0  0  0  0  0  0  0  0  0  0
   -2.8346   -1.2560   -0.5599 N   0  0  0  0  0  0  0  0  0  0  0  0
   -3.2415    0.0521   -0.2674 C   0  0  0  0  0  0  0  0  0  0  0  0
   -3.4692    0.9607   -1.3061 C   0  0  0  0  0  0  0  0  0  0  0  0
   -3.9019    2.2625   -1.0353 C   0  0  0  0  0  0  0  0  0  0  0  0
   -4.1138    2.6709    0.2858 C   0  0  0  0  0  0  0  0  0  0  0  0
   -4.6066    4.0501    0.5984 C   0  0  0  0  0  0  0  0  0  0  0  0
   -3.9118    1.7443    1.3128 C   0  0  0  0  0  0  0  0  0  0  0  0
   -4.1354    2.1046    2.5856 F   0  0  0  0  0  0  0  0  0  0  0  0
   -3.4843    0.4474    1.0479 C   0  0  0  0  0  0  0  0  0  0  0  0
   -1.2872   -2.8729   -0.7882 N   0  0  0  0  0  0  0  0  0  0  0  0
   -0.0287   -3.1865   -0.7958 C   0  0  0  0  0  0  0  0  0  0  0  0
    0.4432   -4.4622   -1.0585 N   0  0  0  0  0  0  0  0  0  0  0  0
    1.5978   -4.6516   -1.9369 C   0  0  0  0  0  0  0  0  0  0  0  0
   -0.5601   -5.5258   -1.1896 C   0  0  0  0  0  0  0  0  0  0  0  0
    1.7758   -2.6158   -0.1188 H   0  0  0  0  0  0  0  0  0  0  0  0
    2.4825   -0.3812   -0.3520 H   0  0  0  0  0  0  0  0  0  0  0  0
    0.7503    1.3210    1.3288 H   0  0  0  0  0  0  0  0  0  0  0  0
    1.0156    1.7077   -0.3754 H   0  0  0  0  0  0  0  0  0  0  0  0
    3.0731    2.7655   -1.0750 H   0  0  0  0  0  0  0  0  0  0  0  0
    5.2752    3.7369   -0.4663 H   0  0  0  0  0  0  0  0  0  0  0  0
    5.0174    1.9757    3.4290 H   0  0  0  0  0  0  0  0  0  0  0  0
    2.8110    0.9838    2.8533 H   0  0  0  0  0  0  0  0  0  0  0  0
   -3.3088    0.6437   -2.3332 H   0  0  0  0  0  0  0  0  0  0  0  0
   -4.0743    2.9475   -1.8617 H   0  0  0  0  0  0  0  0  0  0  0  0
   -4.3926    4.7417   -0.2233 H   0  0  0  0  0  0  0  0  0  0  0  0
   -4.1117    4.4452    1.4917 H   0  0  0  0  0  0  0  0  0  0  0  0
   -5.6879    4.0330    0.7665 H   0  0  0  0  0  0  0  0  0  0  0  0
   -3.3386   -0.2507    1.8644 H   0  0  0  0  0  0  0  0  0  0  0  0
    1.3495   -4.3556   -2.9616 H   0  0  0  0  0  0  0  0  0  0  0  0
    1.9147   -5.7001   -1.9472 H   0  0  0  0  0  0  0  0  0  0  0  0
    2.4600   -4.0663   -1.6030 H   0  0  0  0  0  0  0  0  0  0  0  0
   -1.1136   -5.4226   -2.1290 H   0  0  0  0  0  0  0  0  0  0  0  0
   -0.0842   -6.5122   -1.1731 H   0  0  0  0  0  0  0  0  0  0  0  0
   -1.2674   -5.5000   -0.3534 H   0  0  0  0  0  0  0  0  0  0  0  0
  1  2  1  0
  2  3  1  0
  3  4  1  0
  4  5  1  0
  5  6  2  0
  6  7  1  0
  7  8  2  0
  8  9  1  0
  8 10  1  0
 10 11  2  0
  2 12  2  0
 12 13  1  0
 13 14  2  3
 14 15  1  0
 15 16  2  0
 16 17  1  0
 17 18  2  0
 18 19  1  0
 18 20  1  0
 20 21  1  0
 20 22  2  0
 13 23  1  0
 23 24  2  0
 24 25  1  0
 25 26  1  0
 25 27  1  0
 24  1  1  0
 11  5  1  0
 22 15  1  0
  1 28  1  0
  3 29  1  0
  4 30  1  0
  4 31  1  0
  6 32  1  0
  7 33  1  0
 10 34  1  0
 11 35  1  0
 16 36  1  0
 17 37  1  0
 19 38  1  0
 19 39  1  0
 19 40  1  0
 22 41  1  0
 26 42  1  0
 26 43  1  0
 26 44  1  0
 27 45  1  0
 27 46  1  0
 27 47  1  0
M  END
>  <ScrubInfo>  (6) 
{"isomerGroup": 0, "isomerId": 5, "confId": 0, "nr_conformers:": 1, "nr_isomers:": 9}

$$$$
_i6
     RDKit          3D

 47 49  0  0  0  0  0  0  0  0999 V2000
    0.8872   -0.7449   -0.9823 N   0  0  0  0  0  0  0  0  0  0  0  0
    0.6378    0.4586   -0.4073 C   0  0  0  0  0  0  0  0  0  0  0  0
    1.6984    1.2956   -0.2059 N   0  0  0  0  0  0  0  0  0  0  0  0
    3.0006    0.9697    0.2269 C   0  0  0  0  0  0  0  0  0  0  0  0
    4.0077    1.9379    0.0875 C   0  0  0  0  0  0  0  0  0  0  0  0
    5.3311    1.6702    0.4569 C   0  0  0  0  0  0  0  0  0  0  0  0
    5.6800    0.4162    0.9635 C   0  0  0  0  0  0  0  0  0  0  0  0
    7.0833    0.1166    1.3928 C   0  0  0  0  0  0  0  0  0  0  0  0
    4.6760   -0.5405    1.1120 C   0  0  0  0  0  0  0  0  0  0  0  0
    4.9741   -1.7465    1.6168 F   0  0  0  0  0  0  0  0  0  0  0  0
    3.3564   -0.2778    0.7462 C   0  0  0  0  0  0  0  0  0  0  0  0
   -0.5702    0.8339   -0.1188 N   0  0  0  0  0  0  0  0  0  0  0  0
   -1.5496   -0.0903   -0.4205 C   0  0  0  0  0  0  0  0  0  0  0  0
   -2.7739    0.1414   -0.1005 N   0  0  0  0  0  0  0  0  0  0  0  0
   -3.0542    1.4015    0.5835 C   0  0  0  0  0  0  0  0  0  0  0  0
   -4.5289    1.5734    0.8931 C   0  0  0  0  0  0  0  0  0  0  0  0
   -5.5143    1.1117    0.0048 C   0  0  0  0  0  0  0  0  0  0  0  0
   -6.8681    1.3098    0.2799 C   0  0  0  0  0  0  0  0  0  0  0  0
   -7.2394    1.9801    1.4382 C   0  0  0  0  0  0  0  0  0  0  0  0
   -8.5387    2.1729    1.7025 F   0  0  0  0  0  0  0  0  0  0  0  0
   -6.2830    2.4585    2.3256 C   0  0  0  0  0  0  0  0  0  0  0  0
   -4.9284    2.2603    2.0515 C   0  0  0  0  0  0  0  0  0  0  0  0
   -1.3496   -1.2872   -1.0671 N   0  0  0  0  0  0  0  0  0  0  0  0
   -0.1163   -1.5904   -1.3295 C   0  0  0  0  0  0  0  0  0  0  0  0
    0.2697   -2.7500   -1.9804 N   0  0  0  0  0  0  0  0  0  0  0  0
    1.4365   -3.5038   -1.5195 C   0  0  0  0  0  0  0  0  0  0  0  0
   -0.8029   -3.6082   -2.4982 C   0  0  0  0  0  0  0  0  0  0  0  0
    1.7449   -0.8209   -1.5055 H   0  0  0  0  0  0  0  0  0  0  0  0
    1.4067    2.2113    0.1249 H   0  0  0  0  0  0  0  0  0  0  0  0
    3.7694    2.9174   -0.3240 H   0  0  0  0  0  0  0  0  0  0  0  0
    6.0840    2.4471    0.3402 H   0  0  0  0  0  0  0  0  0  0  0  0
    7.3667   -0.9016    1.1066 H   0  0  0  0  0  0  0  0  0  0  0  0
    7.1738    0.2214    2.4784 H   0  0  0  0  0  0  0  0  0  0  0  0
    7.7962    0.7977    0.9163 H   0  0  0  0  0  0  0  0  0  0  0  0
    2.6212   -1.0577    0.9160 H   0  0  0  0  0  0  0  0  0  0  0  0
   -2.4969    1.4372    1.5286 H   0  0  0  0  0  0  0  0  0  0  0  0
   -2.7536    2.2565   -0.0357 H   0  0  0  0  0  0  0  0  0  0  0  0
   -5.2224    0.5858   -0.9026 H   0  0  0  0  0  0  0  0  0  0  0  0
   -7.6293    0.9451   -0.4013 H   0  0  0  0  0  0  0  0  0  0  0  0
   -6.5967    2.9823    3.2223 H   0  0  0  0  0  0  0  0  0  0  0  0
   -4.1842    2.6408    2.7472 H   0  0  0  0  0  0  0  0  0  0  0  0
    1.6578   -4.3380   -2.1942 H   0  0  0  0  0  0  0  0  0  0  0  0
    1.2569   -3.9085   -0.5179 H   0  0  0  0  0  0  0  0  0  0  0  0
    2.3346   -2.8793   -1.4893 H   0  0  0  0  0  0  0  0  0  0  0  0
   -1.5306   -3.0218   -3.0698 H   0  0  0  0  0  0  0  0  0  0  0  0
   -1.3200   -4.1181   -1.6783 H   0  0  0  0  0  0  0  0  0  0  0  0
   -0.4000   -4.3654   -3.1795 H   0  0  0  0  0  0  0  0  0  0  0  0
  1  2  1  0
  2  3  1  0
  3  4  1  0
  4  5  2  0
  5  6  1  0
  6  7  2  0
  7  8  1  0
  7  9  1  0
  9 10  1  0
  9 11  2  0
  2 12  2  0
 12 13  1  0
 13 14  2  3
 14 15  1  0
 15 16  1  0
 16 17  2  0
 17 18  1  0
 18 19  2  0
 19 20  1  0
 19 21  1  0
 21 22  2  0
 13 23  1  0
 23 24  2  0
 24 25  1  0
 25 26  1  0
 25 27  1  0
 24  1  1  0
 11  4  1  0
 22 16  1  0
  1 28  1  0
  3 29  1  0
  5 30  1  0
  6 31  1  0
  8 32  1  0
  8 33  1  0
  8 34  1  0
 11 35  1  0
 15 36  1  0
 15 37  1  0
 17 38  1  0
 18 39  1  0
 21 40  1  0
 22 41  1  0
 26 42  1  0
 26 43  1  0
 26 44  1  0
 27 45  1  0
 27 46  1  0
 27 47  1  0
M  END
>  <ScrubInfo>  (7) 
{"isomerGroup": 0, "isomerId": 6, "confId": 0, "nr_conformers:": 1, "nr_isomers:": 9}

$$$$
_i7
     RDKit          3D

 47 49  0  0  0  0  0  0  0  0999 V2000
   -0.7657    2.0817    0.0254 N   0  0  0  0  0  0  0  0  0  0  0  0
    0.2211    3.0221   -0.1082 C   0  0  0  0  0  0  0  0  0  0  0  0
   -0.2338    4.3307   -0.0522 N   0  0  0  0  0  0  0  0  0  0  0  0
    0.7809    5.3643    0.1985 C   0  0  0  0  0  0  0  0  0  0  0  0
   -1.2408    4.7667   -1.0245 C   0  0  0  0  0  0  0  0  0  0  0  0
    1.4773    2.7113   -0.2441 N   0  0  0  0  0  0  0  0  0  0  0  0
    1.7681    1.3643   -0.2799 C   0  0  0  0  0  0  0  0  0  0  0  0
    3.0301    1.1041   -0.4367 N   0  0  0  0  0  0  0  0  0  0  0  0
    3.4569   -0.2266   -0.4904 C   0  0  0  0  0  0  0  0  0  0  0  0
    3.8143   -0.9002    0.6815 C   0  0  0  0  0  0  0  0  0  0  0  0
    4.2432   -2.2300    0.6361 C   0  0  0  0  0  0  0  0  0  0  0  0
    4.3214   -2.9014   -0.5890 C   0  0  0  0  0  0  0  0  0  0  0  0
    4.8098   -4.3157   -0.6641 C   0  0  0  0  0  0  0  0  0  0  0  0
    3.9928   -2.2055   -1.7556 C   0  0  0  0  0  0  0  0  0  0  0  0
    4.0868   -2.8183   -2.9447 F   0  0  0  0  0  0  0  0  0  0  0  0
    3.5642   -0.8826   -1.7154 C   0  0  0  0  0  0  0  0  0  0  0  0
    0.7522    0.4515   -0.1521 N   0  0  0  0  0  0  0  0  0  0  0  0
   -0.5683    0.7278    0.0360 C   0  0  0  0  0  0  0  0  0  0  0  0
   -1.4157   -0.2270    0.1982 N   0  0  0  0  0  0  0  0  0  0  0  0
   -2.8188    0.1287    0.3960 C   0  0  0  0  0  0  0  0  0  0  0  0
   -3.6983   -1.0986    0.4656 C   0  0  0  0  0  0  0  0  0  0  0  0
   -3.6659   -2.0514   -0.5664 C   0  0  0  0  0  0  0  0  0  0  0  0
   -4.4918   -3.1752   -0.5201 C   0  0  0  0  0  0  0  0  0  0  0  0
   -5.3539   -3.3459    0.5555 C   0  0  0  0  0  0  0  0  0  0  0  0
   -6.1481   -4.4237    0.6006 F   0  0  0  0  0  0  0  0  0  0  0  0
   -5.4060   -2.4144    1.5855 C   0  0  0  0  0  0  0  0  0  0  0  0
   -4.5801   -1.2894    1.5410 C   0  0  0  0  0  0  0  0  0  0  0  0
   -1.6668    2.4343    0.2970 H   0  0  0  0  0  0  0  0  0  0  0  0
    1.4049    5.0937    1.0574 H   0  0  0  0  0  0  0  0  0  0  0  0
    0.3035    6.3207    0.4374 H   0  0  0  0  0  0  0  0  0  0  0  0
    1.4218    5.5046   -0.6787 H   0  0  0  0  0  0  0  0  0  0  0  0
   -1.6117    5.7668   -0.7754 H   0  0  0  0  0  0  0  0  0  0  0  0
   -0.8123    4.7953   -2.0322 H   0  0  0  0  0  0  0  0  0  0  0  0
   -2.1080    4.0992   -1.0355 H   0  0  0  0  0  0  0  0  0  0  0  0
    3.7655   -0.3787    1.6347 H   0  0  0  0  0  0  0  0  0  0  0  0
    4.5213   -2.7313    1.5605 H   0  0  0  0  0  0  0  0  0  0  0  0
    4.6888   -4.8264    0.2970 H   0  0  0  0  0  0  0  0  0  0  0  0
    5.8694   -4.3325   -0.9371 H   0  0  0  0  0  0  0  0  0  0  0  0
    4.2398   -4.8836   -1.4068 H   0  0  0  0  0  0  0  0  0  0  0  0
    3.3233   -0.3661   -2.6385 H   0  0  0  0  0  0  0  0  0  0  0  0
    0.9959   -0.5259   -0.1520 H   0  0  0  0  0  0  0  0  0  0  0  0
   -3.1843    0.7538   -0.4288 H   0  0  0  0  0  0  0  0  0  0  0  0
   -2.9219    0.7038    1.3246 H   0  0  0  0  0  0  0  0  0  0  0  0
   -2.9846   -1.9205   -1.4049 H   0  0  0  0  0  0  0  0  0  0  0  0
   -4.4646   -3.9163   -1.3120 H   0  0  0  0  0  0  0  0  0  0  0  0
   -6.0866   -2.5708    2.4160 H   0  0  0  0  0  0  0  0  0  0  0  0
   -4.6256   -0.5676    2.3530 H   0  0  0  0  0  0  0  0  0  0  0  0
  1  2  1  0
  2  3  1  0
  3  4  1  0
  3  5  1  0
  2  6  2  0
  6  7  1  0
  7  8  2  3
  8  9  1  0
  9 10  2  0
 10 11  1  0
 11 12  2  0
 12 13  1  0
 12 14  1  0
 14 15  1  0
 14 16  2  0
  7 17  1  0
 17 18  1  0
 18 19  2  3
 19 20  1  0
 20 21  1  0
 21 22  2  0
 22 23  1  0
 23 24  2  0
 24 25  1  0
 24 26  1  0
 26 27  2  0
 18  1  1  0
 27 21  1  0
 16  9  1  0
  1 28  1  0
  4 29  1  0
  4 30  1  0
  4 31  1  0
  5 32  1  0
  5 33  1  0
  5 34  1  0
 10 35  1  0
 11 36  1  0
 13 37  1  0
 13 38  1  0
 13 39  1  0
 16 40  1  0
 17 41  1  0
 20 42  1  0
 20 43  1  0
 22 44  1  0
 23 45  1  0
 26 46  1  0
 27 47  1  0
M  END
>  <ScrubInfo>  (8) 
{"isomerGroup": 0, "isomerId": 7, "confId": 0, "nr_conformers:": 1, "nr_isomers:": 9}

$$$$
_i8
     RDKit          3D

 47 49  0  0  0  0  0  0  0  0999 V2000
    0.9947   -2.9238   -0.4768 N   0  0  0  0  0  0  0  0  0  0  0  0
   -0.3031   -3.2338   -0.7714 C   0  0  0  0  0  0  0  0  0  0  0  0
   -0.5349   -4.5664   -1.0763 N   0  0  0  0  0  0  0  0  0  0  0  0
   -0.0328   -5.6135   -0.1844 C   0  0  0  0  0  0  0  0  0  0  0  0
   -1.8449   -4.8933   -1.6537 C   0  0  0  0  0  0  0  0  0  0  0  0
   -1.2442   -2.3324   -0.7880 N   0  0  0  0  0  0  0  0  0  0  0  0
   -0.8715   -1.0469   -0.4645 C   0  0  0  0  0  0  0  0  0  0  0  0
   -1.8518   -0.2152   -0.4783 N   0  0  0  0  0  0  0  0  0  0  0  0
   -1.6020    1.1854   -0.1602 C   0  0  0  0  0  0  0  0  0  0  0  0
   -2.8516    2.0378   -0.2289 C   0  0  0  0  0  0  0  0  0  0  0  0
   -3.8988    1.7276   -1.1123 C   0  0  0  0  0  0  0  0  0  0  0  0
   -5.0275    2.5449   -1.1924 C   0  0  0  0  0  0  0  0  0  0  0  0
   -5.1070    3.6808   -0.3977 C   0  0  0  0  0  0  0  0  0  0  0  0
   -6.1888    4.4673   -0.4750 F   0  0  0  0  0  0  0  0  0  0  0  0
   -4.0783    4.0170    0.4737 C   0  0  0  0  0  0  0  0  0  0  0  0
   -2.9491    3.1998    0.5551 C   0  0  0  0  0  0  0  0  0  0  0  0
    0.4411   -0.7750   -0.1732 N   0  0  0  0  0  0  0  0  0  0  0  0
    1.4684   -1.6787   -0.1836 C   0  0  0  0  0  0  0  0  0  0  0  0
    2.7334   -1.4789    0.0301 N   0  0  0  0  0  0  0  0  0  0  0  0
    3.1673   -0.1802    0.3235 C   0  0  0  0  0  0  0  0  0  0  0  0
    3.2132    0.2645    1.6483 C   0  0  0  0  0  0  0  0  0  0  0  0
    3.6406    1.5610    1.9496 C   0  0  0  0  0  0  0  0  0  0  0  0
    4.0289    2.4291    0.9233 C   0  0  0  0  0  0  0  0  0  0  0  0
    4.5229    3.8108    1.2262 C   0  0  0  0  0  0  0  0  0  0  0  0
    4.0073    1.9606   -0.3932 C   0  0  0  0  0  0  0  0  0  0  0  0
    4.3995    2.7645   -1.3920 F   0  0  0  0  0  0  0  0  0  0  0  0
    3.5818    0.6717   -0.6985 C   0  0  0  0  0  0  0  0  0  0  0  0
    1.6995   -3.6236   -0.6411 H   0  0  0  0  0  0  0  0  0  0  0  0
    1.0447   -5.5238   -0.0175 H   0  0  0  0  0  0  0  0  0  0  0  0
   -0.2022   -6.6070   -0.6136 H   0  0  0  0  0  0  0  0  0  0  0  0
   -0.5414   -5.5645    0.7844 H   0  0  0  0  0  0  0  0  0  0  0  0
   -2.0845   -4.2182   -2.4827 H   0  0  0  0  0  0  0  0  0  0  0  0
   -1.8451   -5.9100   -2.0612 H   0  0  0  0  0  0  0  0  0  0  0  0
   -2.6326   -4.8223   -0.8959 H   0  0  0  0  0  0  0  0  0  0  0  0
   -1.1898    1.2576    0.8543 H   0  0  0  0  0  0  0  0  0  0  0  0
   -0.8768    1.6131   -0.8639 H   0  0  0  0  0  0  0  0  0  0  0  0
   -3.8389    0.8373   -1.7364 H   0  0  0  0  0  0  0  0  0  0  0  0
   -5.8400    2.2999   -1.8681 H   0  0  0  0  0  0  0  0  0  0  0  0
   -4.1615    4.9118    1.0815 H   0  0  0  0  0  0  0  0  0  0  0  0
   -2.1465    3.4731    1.2360 H   0  0  0  0  0  0  0  0  0  0  0  0
    0.6826    0.1788    0.0281 H   0  0  0  0  0  0  0  0  0  0  0  0
    2.9216   -0.4086    2.4512 H   0  0  0  0  0  0  0  0  0  0  0  0
    3.6758    1.8826    2.9883 H   0  0  0  0  0  0  0  0  0  0  0  0
    4.1620    4.5242    0.4779 H   0  0  0  0  0  0  0  0  0  0  0  0
    5.6171    3.8243    1.2349 H   0  0  0  0  0  0  0  0  0  0  0  0
    4.1617    4.1537    2.2015 H   0  0  0  0  0  0  0  0  0  0  0  0
    3.5817    0.3368   -1.7305 H   0  0  0  0  0  0  0  0  0  0  0  0
  1  2  1  0
  2  3  1  0
  3  4  1  0
  3  5  1  0
  2  6  2  0
  6  7  1  0
  7  8  2  3
  8  9  1  0
  9 10  1  0
 10 11  2  0
 11 12  1  0
 12 13  2  0
 13 14  1  0
 13 15  1  0
 15 16  2  0
  7 17  1  0
 17 18  1  0
 18 19  2  3
 19 20  1  0
 20 21  2  0
 21 22  1  0
 22 23  2  0
 23 24  1  0
 23 25  1  0
 25 26  1  0
 25 27  2  0
 18  1  1  0
 27 20  1  0
 16 10  1  0
  1 28  1  0
  4 29  1  0
  4 30  1  0
  4 31  1  0
  5 32  1  0
  5 33  1  0
  5 34  1  0
  9 35  1  0
  9 36  1  0
 11 37  1  0
 12 38  1  0
 15 39  1  0
 16 40  1  0
 17 41  1  0
 21 42  1  0
 22 43  1  0
 24 44  1  0
 24 45  1  0
 24 46  1  0
 27 47  1  0
M  END
>  <ScrubInfo>  (9) 
{"isomerGroup": 0, "isomerId": 8, "confId": 0, "nr_conformers:": 1, "nr_isomers:": 9}

$$$$
