_i0
     RDKit          3D

 46 48  0  0  0  0  0  0  0  0999 V2000
    6.8573    0.4684   -0.5356 C   0  0  0  0  0  0  0  0  0  0  0  0
    5.8838    1.6273   -0.6863 C   0  0  0  0  0  0  0  0  0  0  0  0
    4.5170    1.2836   -0.1529 C   0  0  0  0  0  0  0  0  0  0  0  0
    4.1938    1.5249    1.1859 C   0  0  0  0  0  0  0  0  0  0  0  0
    2.9306    1.1870    1.6805 C   0  0  0  0  0  0  0  0  0  0  0  0
    1.9671    0.5907    0.8571 C   0  0  0  0  0  0  0  0  0  0  0  0
    0.7135    0.2753    1.4167 N   0  0  0  0  0  0  0  0  0  0  0  0
   -0.2921   -0.5622    0.9158 C   0  0  0  0  0  0  0  0  0  0  0  0
   -1.5678   -0.1086    1.0015 N   0  0  0  0  0  0  0  0  0  0  0  0
   -2.5892   -0.8679    0.5581 C   0  0  0  0  0  0  0  0  0  0  0  0
   -3.8900   -0.3846    0.6436 N   0  0  0  0  0  0  0  0  0  0  0  0
   -4.0201    1.0513    0.4707 C   0  0  0  0  0  0  0  0  0  0  0  0
   -5.4979    1.4297    0.4512 C   0  0  0  0  0  0  0  0  0  0  0  0
   -5.6805    2.9331    0.3116 C   0  0  0  0  0  0  0  0  0  0  0  0
   -7.0701    3.2258    0.2590 O   0  0  0  0  0  0  0  0  0  0  0  0
   -2.4793   -2.0874    0.0158 N   0  0  0  0  0  0  0  0  0  0  0  0
   -1.2128   -2.5278   -0.0236 C   0  0  0  0  0  0  0  0  0  0  0  0
   -0.0909   -1.8439    0.3999 C   0  0  0  0  0  0  0  0  0  0  0  0
    0.9728   -2.7429    0.1783 C   0  0  0  0  0  0  0  0  0  0  0  0
    0.5737   -3.8956   -0.3732 N   0  0  0  0  0  0  0  0  0  0  0  0
   -0.7666   -3.7391   -0.4772 N   0  0  0  0  0  0  0  0  0  0  0  0
   -1.5650   -4.8110   -1.0158 C   0  0  0  0  0  0  0  0  0  0  0  0
    2.2945    0.3564   -0.4820 C   0  0  0  0  0  0  0  0  0  0  0  0
    3.5571    0.6935   -0.9820 C   0  0  0  0  0  0  0  0  0  0  0  0
    7.8398    0.7458   -0.9303 H   0  0  0  0  0  0  0  0  0  0  0  0
    6.9808    0.1875    0.5158 H   0  0  0  0  0  0  0  0  0  0  0  0
    6.5100   -0.4158   -1.0808 H   0  0  0  0  0  0  0  0  0  0  0  0
    5.8066    1.9117   -1.7428 H   0  0  0  0  0  0  0  0  0  0  0  0
    6.2733    2.5090   -0.1629 H   0  0  0  0  0  0  0  0  0  0  0  0
    4.9237    1.9737    1.8558 H   0  0  0  0  0  0  0  0  0  0  0  0
    2.7067    1.3770    2.7278 H   0  0  0  0  0  0  0  0  0  0  0  0
    0.2637    1.0995    1.8073 H   0  0  0  0  0  0  0  0  0  0  0  0
   -4.4436   -0.9560    0.0138 H   0  0  0  0  0  0  0  0  0  0  0  0
   -3.5518    1.3679   -0.4701 H   0  0  0  0  0  0  0  0  0  0  0  0
   -3.5262    1.5805    1.2951 H   0  0  0  0  0  0  0  0  0  0  0  0
   -6.0123    0.9180   -0.3725 H   0  0  0  0  0  0  0  0  0  0  0  0
   -5.9949    1.0831    1.3664 H   0  0  0  0  0  0  0  0  0  0  0  0
   -5.2147    3.3008   -0.6083 H   0  0  0  0  0  0  0  0  0  0  0  0
   -5.2452    3.4604    1.1665 H   0  0  0  0  0  0  0  0  0  0  0  0
   -7.1595    4.1926    0.2011 H   0  0  0  0  0  0  0  0  0  0  0  0
    2.0242   -2.6018    0.3953 H   0  0  0  0  0  0  0  0  0  0  0  0
   -1.2026   -5.0382   -2.0216 H   0  0  0  0  0  0  0  0  0  0  0  0
   -2.6143   -4.5110   -1.0607 H   0  0  0  0  0  0  0  0  0  0  0  0
   -1.4553   -5.6816   -0.3643 H   0  0  0  0  0  0  0  0  0  0  0  0
    1.5695   -0.0731   -1.1677 H   0  0  0  0  0  0  0  0  0  0  0  0
    3.7829    0.4940   -2.0274 H   0  0  0  0  0  0  0  0  0  0  0  0
  1  2  1  0
  2  3  1  0
  3  4  2  0
  4  5  1  0
  5  6  2  0
  6  7  1  0
  7  8  1  0
  8  9  2  0
  9 10  1  0
 10 11  1  0
 11 12  1  0
 12 13  1  0
 13 14  1  0
 14 15  1  0
 10 16  2  0
 16 17  1  0
 17 18  2  0
 18 19  1  0
 19 20  2  0
 20 21  1  0
 21 22  1  0
  6 23  1  0
 23 24  2  0
 24  3  1  0
 18  8  1  0
 21 17  1  0
  1 25  1  0
  1 26  1  0
  1 27  1  0
  2 28  1  0
  2 29  1  0
  4 30  1  0
  5 31  1  0
  7 32  1  0
 11 33  1  0
 12 34  1  0
 12 35  1  0
 13 36  1  0
 13 37  1  0
 14 38  1  0
 14 39  1  0
 15 40  1  0
 19 41  1  0
 22 42  1  0
 22 43  1  0
 22 44  1  0
 23 45  1  0
 24 46  1  0
M  END
>  <ScrubInfo>  (1) 
{"isomerGroup": 0, "isomerId": 0, "confId": 0, "nr_conformers:": 1, "nr_isomers:": 9}

$$$$
_i1
     RDKit          3D

 46 48  0  0  0  0  0  0  0  0999 V2000
   -1.9820   -0.0471    0.4679 N   0  0  0  0  0  0  0  0  0  0  0  0
   -2.8015    1.0405    0.2954 C   0  0  0  0  0  0  0  0  0  0  0  0
   -4.1420    0.8520    0.4727 N   0  0  0  0  0  0  0  0  0  0  0  0
   -4.7483   -0.0949    1.3882 C   0  0  0  0  0  0  0  0  0  0  0  0
   -5.4506   -1.2219    0.6335 C   0  0  0  0  0  0  0  0  0  0  0  0
   -4.5277   -2.0691   -0.2341 C   0  0  0  0  0  0  0  0  0  0  0  0
   -3.3915   -2.4805    0.5190 O   0  0  0  0  0  0  0  0  0  0  0  0
   -2.3705    2.2292   -0.0515 N   0  0  0  0  0  0  0  0  0  0  0  0
   -1.0155    2.2480   -0.2006 C   0  0  0  0  0  0  0  0  0  0  0  0
   -0.1153    1.2022   -0.0603 C   0  0  0  0  0  0  0  0  0  0  0  0
    1.1374    1.7858   -0.3210 C   0  0  0  0  0  0  0  0  0  0  0  0
    1.0530    3.0917   -0.6075 N   0  0  0  0  0  0  0  0  0  0  0  0
   -0.2727    3.3470   -0.5284 N   0  0  0  0  0  0  0  0  0  0  0  0
   -0.7494    4.6833   -0.7806 C   0  0  0  0  0  0  0  0  0  0  0  0
   -0.6205   -0.1131    0.2860 C   0  0  0  0  0  0  0  0  0  0  0  0
    0.0338   -1.2282    0.4113 N   0  0  0  0  0  0  0  0  0  0  0  0
    1.4136   -1.3028    0.2168 C   0  0  0  0  0  0  0  0  0  0  0  0
    2.2837   -1.1788    1.3016 C   0  0  0  0  0  0  0  0  0  0  0  0
    3.6650   -1.2751    1.1160 C   0  0  0  0  0  0  0  0  0  0  0  0
    4.1932   -1.5191   -0.1583 C   0  0  0  0  0  0  0  0  0  0  0  0
    5.6841   -1.5994   -0.3652 C   0  0  0  0  0  0  0  0  0  0  0  0
    6.2839   -0.2374   -0.6795 C   0  0  0  0  0  0  0  0  0  0  0  0
    3.3167   -1.6646   -1.2413 C   0  0  0  0  0  0  0  0  0  0  0  0
    1.9361   -1.5679   -1.0508 C   0  0  0  0  0  0  0  0  0  0  0  0
   -2.4151   -0.9449    0.6566 H   0  0  0  0  0  0  0  0  0  0  0  0
   -4.6460    1.7305    0.3892 H   0  0  0  0  0  0  0  0  0  0  0  0
   -4.0220   -0.4905    2.1072 H   0  0  0  0  0  0  0  0  0  0  0  0
   -5.4962    0.4393    1.9864 H   0  0  0  0  0  0  0  0  0  0  0  0
   -6.2558   -0.8166    0.0093 H   0  0  0  0  0  0  0  0  0  0  0  0
   -5.9206   -1.8736    1.3806 H   0  0  0  0  0  0  0  0  0  0  0  0
   -5.0581   -2.9596   -0.5865 H   0  0  0  0  0  0  0  0  0  0  0  0
   -4.1803   -1.5074   -1.1068 H   0  0  0  0  0  0  0  0  0  0  0  0
   -2.9164   -3.1433   -0.0190 H   0  0  0  0  0  0  0  0  0  0  0  0
    2.1192    1.3330   -0.3185 H   0  0  0  0  0  0  0  0  0  0  0  0
   -0.4376    4.9758   -1.7865 H   0  0  0  0  0  0  0  0  0  0  0  0
   -0.3092    5.3509   -0.0355 H   0  0  0  0  0  0  0  0  0  0  0  0
   -1.8386    4.7155   -0.7088 H   0  0  0  0  0  0  0  0  0  0  0  0
    1.8822   -1.0005    2.2953 H   0  0  0  0  0  0  0  0  0  0  0  0
    4.3248   -1.1598    1.9729 H   0  0  0  0  0  0  0  0  0  0  0  0
    5.9066   -2.2995   -1.1796 H   0  0  0  0  0  0  0  0  0  0  0  0
    6.1594   -2.0161    0.5312 H   0  0  0  0  0  0  0  0  0  0  0  0
    6.1071    0.4724    0.1358 H   0  0  0  0  0  0  0  0  0  0  0  0
    7.3653   -0.3246   -0.8248 H   0  0  0  0  0  0  0  0  0  0  0  0
    5.8518    0.1860   -1.5925 H   0  0  0  0  0  0  0  0  0  0  0  0
    3.7028   -1.8550   -2.2401 H   0  0  0  0  0  0  0  0  0  0  0  0
    1.2640   -1.6918   -1.8952 H   0  0  0  0  0  0  0  0  0  0  0  0
  1  2  1  0
  2  3  1  0
  3  4  1  0
  4  5  1  0
  5  6  1  0
  6  7  1  0
  2  8  2  0
  8  9  1  0
  9 10  2  0
 10 11  1  0
 11 12  2  0
 12 13  1  0
 13 14  1  0
 10 15  1  0
 15 16  2  3
 16 17  1  0
 17 18  2  0
 18 19  1  0
 19 20  2  0
 20 21  1  0
 21 22  1  0
 20 23  1  0
 23 24  2  0
 15  1  1  0
 24 17  1  0
 13  9  1  0
  1 25  1  0
  3 26  1  0
  4 27  1  0
  4 28  1  0
  5 29  1  0
  5 30  1  0
  6 31  1  0
  6 32  1  0
  7 33  1  0
 11 34  1  0
 14 35  1  0
 14 36  1  0
 14 37  1  0
 18 38  1  0
 19 39  1  0
 21 40  1  0
 21 41  1  0
 22 42  1  0
 22 43  1  0
 22 44  1  0
 23 45  1  0
 24 46  1  0
M  END
>  <ScrubInfo>  (2) 
{"isomerGroup": 0, "isomerId": 1, "confId": 0, "nr_conformers:": 1, "nr_isomers:": 9}

$$$$
_i2
     RDKit          3D

 46 48  0  0  0  0  0  0  0  0999 V2000
    1.4142    0.6033   -0.8435 N   0  0  0  0  0  0  0  0  0  0  0  0
    0.1996    0.0176   -1.1372 C   0  0  0  0  0  0  0  0  0  0  0  0
   -0.8715    0.7782   -1.5647 N   0  0  0  0  0  0  0  0  0  0  0  0
   -2.1808    0.7780   -1.0306 C   0  0  0  0  0  0  0  0  0  0  0  0
   -3.1897    1.4291   -1.7539 C   0  0  0  0  0  0  0  0  0  0  0  0
   -4.5128    1.4371   -1.3020 C   0  0  0  0  0  0  0  0  0  0  0  0
   -4.8595    0.7835   -0.1159 C   0  0  0  0  0  0  0  0  0  0  0  0
   -6.2810    0.8035    0.3844 C   0  0  0  0  0  0  0  0  0  0  0  0
   -6.5455    1.9972    1.2891 C   0  0  0  0  0  0  0  0  0  0  0  0
   -3.8580    0.1336    0.6124 C   0  0  0  0  0  0  0  0  0  0  0  0
   -2.5352    0.1268    0.1561 C   0  0  0  0  0  0  0  0  0  0  0  0
    0.1801   -1.3187   -1.0506 C   0  0  0  0  0  0  0  0  0  0  0  0
   -0.7590   -2.4126   -1.3220 C   0  0  0  0  0  0  0  0  0  0  0  0
   -0.2470   -3.5956   -1.0874 N   0  0  0  0  0  0  0  0  0  0  0  0
    1.0507   -3.3542   -0.6047 N   0  0  0  0  0  0  0  0  0  0  0  0
    1.9910   -4.4480   -0.5633 C   0  0  0  0  0  0  0  0  0  0  0  0
    1.4080   -2.0153   -0.6102 C   0  0  0  0  0  0  0  0  0  0  0  0
    2.5308   -1.4487   -0.3223 N   0  0  0  0  0  0  0  0  0  0  0  0
    2.5319   -0.0759   -0.4306 C   0  0  0  0  0  0  0  0  0  0  0  0
    3.5920    0.6051   -0.1383 N   0  0  0  0  0  0  0  0  0  0  0  0
    4.7638   -0.1557    0.3010 C   0  0  0  0  0  0  0  0  0  0  0  0
    5.8995    0.8172    0.6013 C   0  0  0  0  0  0  0  0  0  0  0  0
    5.6032    1.6993    1.8069 C   0  0  0  0  0  0  0  0  0  0  0  0
    6.7180    2.5474    2.0671 O   0  0  0  0  0  0  0  0  0  0  0  0
    1.4836    1.6084   -0.8365 H   0  0  0  0  0  0  0  0  0  0  0  0
   -0.6081    1.7110   -1.8693 H   0  0  0  0  0  0  0  0  0  0  0  0
   -2.9547    1.9291   -2.6907 H   0  0  0  0  0  0  0  0  0  0  0  0
   -5.2711    1.9537   -1.8864 H   0  0  0  0  0  0  0  0  0  0  0  0
   -6.4948   -0.1264    0.9255 H   0  0  0  0  0  0  0  0  0  0  0  0
   -6.9717    0.8238   -0.4675 H   0  0  0  0  0  0  0  0  0  0  0  0
   -5.8929    1.9815    2.1687 H   0  0  0  0  0  0  0  0  0  0  0  0
   -7.5833    1.9860    1.6367 H   0  0  0  0  0  0  0  0  0  0  0  0
   -6.3746    2.9415    0.7612 H   0  0  0  0  0  0  0  0  0  0  0  0
   -4.0986   -0.3711    1.5460 H   0  0  0  0  0  0  0  0  0  0  0  0
   -1.7893   -0.3745    0.7667 H   0  0  0  0  0  0  0  0  0  0  0  0
   -1.7680   -2.2164   -1.7064 H   0  0  0  0  0  0  0  0  0  0  0  0
    2.7812   -4.2556    0.1695 H   0  0  0  0  0  0  0  0  0  0  0  0
    1.4904   -5.3787   -0.2771 H   0  0  0  0  0  0  0  0  0  0  0  0
    2.4531   -4.5907   -1.5450 H   0  0  0  0  0  0  0  0  0  0  0  0
    5.0937   -0.8357   -0.4939 H   0  0  0  0  0  0  0  0  0  0  0  0
    4.5399   -0.7450    1.1986 H   0  0  0  0  0  0  0  0  0  0  0  0
    6.8224    0.2546    0.7890 H   0  0  0  0  0  0  0  0  0  0  0  0
    6.1037    1.4477   -0.2732 H   0  0  0  0  0  0  0  0  0  0  0  0
    5.4291    1.0924    2.7008 H   0  0  0  0  0  0  0  0  0  0  0  0
    4.7243    2.3309    1.6442 H   0  0  0  0  0  0  0  0  0  0  0  0
    6.8426    3.1009    1.2772 H   0  0  0  0  0  0  0  0  0  0  0  0
  1  2  1  0
  2  3  1  0
  3  4  1  0
  4  5  2  0
  5  6  1  0
  6  7  2  0
  7  8  1  0
  8  9  1  0
  7 10  1  0
 10 11  2  0
  2 12  2  0
 12 13  1  0
 13 14  2  0
 14 15  1  0
 15 16  1  0
 15 17  1  0
 17 18  2  0
 18 19  1  0
 19 20  2  3
 20 21  1  0
 21 22  1  0
 22 23  1  0
 23 24  1  0
 19  1  1  0
 11  4  1  0
 17 12  1  0
  1 25  1  0
  3 26  1  0
  5 27  1  0
  6 28  1  0
  8 29  1  0
  8 30  1  0
  9 31  1  0
  9 32  1  0
  9 33  1  0
 10 34  1  0
 11 35  1  0
 13 36  1  0
 16 37  1  0
 16 38  1  0
 16 39  1  0
 21 40  1  0
 21 41  1  0
 22 42  1  0
 22 43  1  0
 23 44  1  0
 23 45  1  0
 24 46  1  0
M  END
>  <ScrubInfo>  (3) 
{"isomerGroup": 0, "isomerId": 2, "confId": 0, "nr_conformers:": 1, "nr_isomers:": 9}

$$$$
_i3
     RDKit          3D

 46 48  0  0  0  0  0  0  0  0999 V2000
   -2.3948    1.3459   -0.3174 N   0  0  0  0  0  0  0  0  0  0  0  0
   -2.4825   -0.0078   -0.5995 C   0  0  0  0  0  0  0  0  0  0  0  0
   -3.5449   -0.7315   -0.5460 N   0  0  0  0  0  0  0  0  0  0  0  0
   -4.8104   -0.1244   -0.1539 C   0  0  0  0  0  0  0  0  0  0  0  0
   -5.9189   -1.1769   -0.2407 C   0  0  0  0  0  0  0  0  0  0  0  0
   -5.6725   -2.3703    0.6790 C   0  0  0  0  0  0  0  0  0  0  0  0
   -4.5911   -3.1662    0.2123 O   0  0  0  0  0  0  0  0  0  0  0  0
   -1.3677   -0.7388   -0.9800 N   0  0  0  0  0  0  0  0  0  0  0  0
   -0.2067   -0.1530   -1.0616 C   0  0  0  0  0  0  0  0  0  0  0  0
    0.9318   -0.8098   -1.4540 N   0  0  0  0  0  0  0  0  0  0  0  0
    2.1007   -0.9213   -0.6565 C   0  0  0  0  0  0  0  0  0  0  0  0
    2.1102   -0.7036    0.7259 C   0  0  0  0  0  0  0  0  0  0  0  0
    3.2866   -0.8632    1.4650 C   0  0  0  0  0  0  0  0  0  0  0  0
    4.4724   -1.2635    0.8391 C   0  0  0  0  0  0  0  0  0  0  0  0
    5.7439   -1.4167    1.6339 C   0  0  0  0  0  0  0  0  0  0  0  0
    6.5330   -0.1178    1.6932 C   0  0  0  0  0  0  0  0  0  0  0  0
    4.4628   -1.4976   -0.5399 C   0  0  0  0  0  0  0  0  0  0  0  0
    3.2859   -1.3376   -1.2762 C   0  0  0  0  0  0  0  0  0  0  0  0
   -0.0775    1.2625   -0.8053 C   0  0  0  0  0  0  0  0  0  0  0  0
    0.9302    2.2379   -0.8407 C   0  0  0  0  0  0  0  0  0  0  0  0
    0.4730    3.4538   -0.5000 N   0  0  0  0  0  0  0  0  0  0  0  0
   -0.8445    3.2495   -0.2563 N   0  0  0  0  0  0  0  0  0  0  0  0
   -1.6645    4.3681    0.1328 C   0  0  0  0  0  0  0  0  0  0  0  0
   -1.2000    1.9505   -0.4364 C   0  0  0  0  0  0  0  0  0  0  0  0
   -3.2438    1.8269   -0.0632 H   0  0  0  0  0  0  0  0  0  0  0  0
   -5.0661    0.7042   -0.8247 H   0  0  0  0  0  0  0  0  0  0  0  0
   -4.7520    0.2602    0.8712 H   0  0  0  0  0  0  0  0  0  0  0  0
   -6.8707   -0.7058    0.0292 H   0  0  0  0  0  0  0  0  0  0  0  0
   -5.9985   -1.5280   -1.2768 H   0  0  0  0  0  0  0  0  0  0  0  0
   -5.4517   -2.0453    1.7007 H   0  0  0  0  0  0  0  0  0  0  0  0
   -6.5608   -3.0085    0.7107 H   0  0  0  0  0  0  0  0  0  0  0  0
   -3.9082   -2.5387   -0.1168 H   0  0  0  0  0  0  0  0  0  0  0  0
    0.6780   -1.7518   -1.7488 H   0  0  0  0  0  0  0  0  0  0  0  0
    1.2047   -0.4167    1.2546 H   0  0  0  0  0  0  0  0  0  0  0  0
    3.2677   -0.6771    2.5368 H   0  0  0  0  0  0  0  0  0  0  0  0
    5.5054   -1.7524    2.6504 H   0  0  0  0  0  0  0  0  0  0  0  0
    6.3630   -2.2066    1.1913 H   0  0  0  0  0  0  0  0  0  0  0  0
    6.8160    0.2213    0.6908 H   0  0  0  0  0  0  0  0  0  0  0  0
    7.4495   -0.2580    2.2750 H   0  0  0  0  0  0  0  0  0  0  0  0
    5.9500    0.6802    2.1654 H   0  0  0  0  0  0  0  0  0  0  0  0
    5.3719   -1.8061   -1.0513 H   0  0  0  0  0  0  0  0  0  0  0  0
    3.3036   -1.5257   -2.3474 H   0  0  0  0  0  0  0  0  0  0  0  0
    1.9760    2.1236   -1.0964 H   0  0  0  0  0  0  0  0  0  0  0  0
   -1.2306    4.8197    1.0286 H   0  0  0  0  0  0  0  0  0  0  0  0
   -2.6803    4.0292    0.3465 H   0  0  0  0  0  0  0  0  0  0  0  0
   -1.6778    5.0871   -0.6902 H   0  0  0  0  0  0  0  0  0  0  0  0
  1  2  1  0
  2  3  2  3
  3  4  1  0
  4  5  1  0
  5  6  1  0
  6  7  1  0
  2  8  1  0
  8  9  2  0
  9 10  1  0
 10 11  1  0
 11 12  2  0
 12 13  1  0
 13 14  2  0
 14 15  1  0
 15 16  1  0
 14 17  1  0
 17 18  2  0
  9 19  1  0
 19 20  1  0
 20 21  2  0
 21 22  1  0
 22 23  1  0
 22 24  1  0
 24  1  1  0
 18 11  1  0
 24 19  2  0
  1 25  1  0
  4 26  1  0
  4 27  1  0
  5 28  1  0
  5 29  1  0
  6 30  1  0
  6 31  1  0
  7 32  1  0
 10 33  1  0
 12 34  1  0
 13 35  1  0
 15 36  1  0
 15 37  1  0
 16 38  1  0
 16 39  1  0
 16 40  1  0
 17 41  1  0
 18 42  1  0
 20 43  1  0
 23 44  1  0
 23 45  1  0
 23 46  1  0
M  END
>  <ScrubInfo>  (4) 
{"isomerGroup": 0, "isomerId": 3, "confId": 0, "nr_conformers:": 1, "nr_isomers:": 9}

$$$$
_i4
     RDKit          3D

 46 48  0  0  0  0  0  0  0  0999 V2000
   -2.2048    1.7532    0.5984 N   0  0  0  0  0  0  0  0  0  0  0  0
   -1.4494    0.6031    0.5756 C   0  0  0  0  0  0  0  0  0  0  0  0
   -2.1496   -0.5632    0.7019 N   0  0  0  0  0  0  0  0  0  0  0  0
   -3.3031   -0.8664   -0.1400 C   0  0  0  0  0  0  0  0  0  0  0  0
   -3.8343   -2.2563    0.2077 C   0  0  0  0  0  0  0  0  0  0  0  0
   -5.1263   -2.5747   -0.5303 C   0  0  0  0  0  0  0  0  0  0  0  0
   -4.9121   -2.5029   -1.9311 O   0  0  0  0  0  0  0  0  0  0  0  0
   -0.1500    0.5478    0.4648 N   0  0  0  0  0  0  0  0  0  0  0  0
    0.5696    1.7297    0.3431 C   0  0  0  0  0  0  0  0  0  0  0  0
    1.8544    1.7946    0.1971 N   0  0  0  0  0  0  0  0  0  0  0  0
    2.5762    0.5943    0.1539 C   0  0  0  0  0  0  0  0  0  0  0  0
    3.0943    0.0379    1.3252 C   0  0  0  0  0  0  0  0  0  0  0  0
    3.8439   -1.1407    1.2806 C   0  0  0  0  0  0  0  0  0  0  0  0
    4.0922   -1.7769    0.0575 C   0  0  0  0  0  0  0  0  0  0  0  0
    4.9160   -3.0376    0.0044 C   0  0  0  0  0  0  0  0  0  0  0  0
    6.3983   -2.7385   -0.1599 C   0  0  0  0  0  0  0  0  0  0  0  0
    3.5909   -1.2050   -1.1189 C   0  0  0  0  0  0  0  0  0  0  0  0
    2.8418   -0.0263   -1.0685 C   0  0  0  0  0  0  0  0  0  0  0  0
   -0.1791    2.9599    0.3898 C   0  0  0  0  0  0  0  0  0  0  0  0
    0.1260    4.3266    0.3453 C   0  0  0  0  0  0  0  0  0  0  0  0
   -0.9708    5.0961    0.4506 N   0  0  0  0  0  0  0  0  0  0  0  0
   -1.9844    4.2009    0.5619 N   0  0  0  0  0  0  0  0  0  0  0  0
   -3.3348    4.6847    0.6899 C   0  0  0  0  0  0  0  0  0  0  0  0
   -1.5393    2.9184    0.5216 C   0  0  0  0  0  0  0  0  0  0  0  0
   -3.1681    1.6700    0.8898 H   0  0  0  0  0  0  0  0  0  0  0  0
   -1.4721   -1.3252    0.6715 H   0  0  0  0  0  0  0  0  0  0  0  0
   -4.0924   -0.1243    0.0224 H   0  0  0  0  0  0  0  0  0  0  0  0
   -3.0065   -0.8213   -1.1941 H   0  0  0  0  0  0  0  0  0  0  0  0
   -3.0719   -3.0008   -0.0539 H   0  0  0  0  0  0  0  0  0  0  0  0
   -4.0065   -2.3361    1.2878 H   0  0  0  0  0  0  0  0  0  0  0  0
   -5.4613   -3.5862   -0.2794 H   0  0  0  0  0  0  0  0  0  0  0  0
   -5.9164   -1.8668   -0.2602 H   0  0  0  0  0  0  0  0  0  0  0  0
   -5.7258   -2.8152   -2.3651 H   0  0  0  0  0  0  0  0  0  0  0  0
    2.9101    0.5276    2.2769 H   0  0  0  0  0  0  0  0  0  0  0  0
    4.2350   -1.5547    2.2067 H   0  0  0  0  0  0  0  0  0  0  0  0
    4.7550   -3.6221    0.9184 H   0  0  0  0  0  0  0  0  0  0  0  0
    4.5712   -3.6689   -0.8236 H   0  0  0  0  0  0  0  0  0  0  0  0
    6.5919   -2.1861   -1.0857 H   0  0  0  0  0  0  0  0  0  0  0  0
    6.9707   -3.6709   -0.1953 H   0  0  0  0  0  0  0  0  0  0  0  0
    6.7776   -2.1389    0.6744 H   0  0  0  0  0  0  0  0  0  0  0  0
    3.7828   -1.6696   -2.0828 H   0  0  0  0  0  0  0  0  0  0  0  0
    2.4610    0.4136   -1.9855 H   0  0  0  0  0  0  0  0  0  0  0  0
    1.0966    4.7957    0.2464 H   0  0  0  0  0  0  0  0  0  0  0  0
   -4.0326    3.8447    0.6931 H   0  0  0  0  0  0  0  0  0  0  0  0
   -3.4139    5.2378    1.6291 H   0  0  0  0  0  0  0  0  0  0  0  0
   -3.5501    5.3390   -0.1588 H   0  0  0  0  0  0  0  0  0  0  0  0
  1  2  1  0
  2  3  1  0
  3  4  1  0
  4  5  1  0
  5  6  1  0
  6  7  1  0
  2  8  2  0
  8  9  1  0
  9 10  2  3
 10 11  1  0
 11 12  2  0
 12 13  1  0
 13 14  2  0
 14 15  1  0
 15 16  1  0
 14 17  1  0
 17 18  2  0
  9 19  1  0
 19 20  1  0
 20 21  2  0
 21 22  1  0
 22 23  1  0
 22 24  1  0
 24  1  1  0
 18 11  1  0
 24 19  2  0
  1 25  1  0
  3 26  1  0
  4 27  1  0
  4 28  1  0
  5 29  1  0
  5 30  1  0
  6 31  1  0
  6 32  1  0
  7 33  1  0
 12 34  1  0
 13 35  1  0
 15 36  1  0
 15 37  1  0
 16 38  1  0
 16 39  1  0
 16 40  1  0
 17 41  1  0
 18 42  1  0
 20 43  1  0
 23 44  1  0
 23 45  1  0
 23 46  1  0
M  END
>  <ScrubInfo>  (5) 
{"isomerGroup": 0, "isomerId": 4, "confId": 0, "nr_conformers:": 1, "nr_isomers:": 9}

$$$$
_i5
     RDKit          3D

 46 48  0  0  0  0  0  0  0  0999 V2000
    0.5363   -3.2782   -0.4458 N   0  0  0  0  0  0  0  0  0  0  0  0
    0.9773   -1.9891   -0.1647 C   0  0  0  0  0  0  0  0  0  0  0  0
   -0.0197   -1.1068    0.0039 C   0  0  0  0  0  0  0  0  0  0  0  0
   -0.2070    0.3032    0.3214 C   0  0  0  0  0  0  0  0  0  0  0  0
    0.6550    1.2508    0.4872 N   0  0  0  0  0  0  0  0  0  0  0  0
    2.0221    0.9985    0.3592 C   0  0  0  0  0  0  0  0  0  0  0  0
    2.6519    1.1281   -0.8804 C   0  0  0  0  0  0  0  0  0  0  0  0
    4.0224    0.8882   -1.0073 C   0  0  0  0  0  0  0  0  0  0  0  0
    4.7846    0.5256    0.1108 C   0  0  0  0  0  0  0  0  0  0  0  0
    6.2679    0.2902   -0.0186 C   0  0  0  0  0  0  0  0  0  0  0  0
    7.0644    1.5699    0.1854 C   0  0  0  0  0  0  0  0  0  0  0  0
    4.1562    0.4281    1.3592 C   0  0  0  0  0  0  0  0  0  0  0  0
    2.7854    0.6693    1.4809 C   0  0  0  0  0  0  0  0  0  0  0  0
   -1.5191    0.6673    0.4652 N   0  0  0  0  0  0  0  0  0  0  0  0
   -2.5132   -0.1437    0.2752 C   0  0  0  0  0  0  0  0  0  0  0  0
   -3.8047    0.2745    0.4394 N   0  0  0  0  0  0  0  0  0  0  0  0
   -4.1760    1.6736    0.3377 C   0  0  0  0  0  0  0  0  0  0  0  0
   -5.5383    1.9240    0.9865 C   0  0  0  0  0  0  0  0  0  0  0  0
   -6.7057    1.3153    0.2214 C   0  0  0  0  0  0  0  0  0  0  0  0
   -6.7964    1.8646   -1.0855 O   0  0  0  0  0  0  0  0  0  0  0  0
   -2.4037   -1.4550   -0.1022 N   0  0  0  0  0  0  0  0  0  0  0  0
   -1.2165   -1.9321   -0.2432 C   0  0  0  0  0  0  0  0  0  0  0  0
   -0.8397   -3.2237   -0.6162 N   0  0  0  0  0  0  0  0  0  0  0  0
   -1.6417   -4.3712   -0.2371 C   0  0  0  0  0  0  0  0  0  0  0  0
    1.0659   -3.7306   -1.1945 H   0  0  0  0  0  0  0  0  0  0  0  0
    2.0418   -1.8129   -0.1128 H   0  0  0  0  0  0  0  0  0  0  0  0
    2.0700    1.4250   -1.7488 H   0  0  0  0  0  0  0  0  0  0  0  0
    4.4921    0.9987   -1.9820 H   0  0  0  0  0  0  0  0  0  0  0  0
    6.4893   -0.1308   -1.0069 H   0  0  0  0  0  0  0  0  0  0  0  0
    6.5861   -0.4648    0.7106 H   0  0  0  0  0  0  0  0  0  0  0  0
    8.1357    1.3686    0.0858 H   0  0  0  0  0  0  0  0  0  0  0  0
    6.8896    1.9924    1.1807 H   0  0  0  0  0  0  0  0  0  0  0  0
    6.7917    2.3299   -0.5546 H   0  0  0  0  0  0  0  0  0  0  0  0
    4.7308    0.1753    2.2473 H   0  0  0  0  0  0  0  0  0  0  0  0
    2.3071    0.6063    2.4547 H   0  0  0  0  0  0  0  0  0  0  0  0
   -4.4400   -0.3691   -0.0171 H   0  0  0  0  0  0  0  0  0  0  0  0
   -3.4424    2.2967    0.8629 H   0  0  0  0  0  0  0  0  0  0  0  0
   -4.1755    1.9841   -0.7129 H   0  0  0  0  0  0  0  0  0  0  0  0
   -5.6870    3.0095    1.0426 H   0  0  0  0  0  0  0  0  0  0  0  0
   -5.5391    1.5385    2.0129 H   0  0  0  0  0  0  0  0  0  0  0  0
   -6.6025    0.2303    0.1295 H   0  0  0  0  0  0  0  0  0  0  0  0
   -7.6481    1.5140    0.7424 H   0  0  0  0  0  0  0  0  0  0  0  0
   -7.0440    2.8014   -0.9948 H   0  0  0  0  0  0  0  0  0  0  0  0
   -1.2379   -5.2835   -0.6881 H   0  0  0  0  0  0  0  0  0  0  0  0
   -1.6530   -4.4964    0.8507 H   0  0  0  0  0  0  0  0  0  0  0  0
   -2.6722   -4.2539   -0.5874 H   0  0  0  0  0  0  0  0  0  0  0  0
  1  2  1  0
  2  3  2  0
  3  4  1  0
  4  5  2  3
  5  6  1  0
  6  7  2  0
  7  8  1  0
  8  9  2  0
  9 10  1  0
 10 11  1  0
  9 12  1  0
 12 13  2  0
  4 14  1  0
 14 15  2  0
 15 16  1  0
 16 17  1  0
 17 18  1  0
 18 19  1  0
 19 20  1  0
 15 21  1  0
 21 22  2  0
 22 23  1  0
 23 24  1  0
 23  1  1  0
 22  3  1  0
 13  6  1  0
  1 25  1  0
  2 26  1  0
  7 27  1  0
  8 28  1  0
 10 29  1  0
 10 30  1  0
 11 31  1  0
 11 32  1  0
 11 33  1  0
 12 34  1  0
 13 35  1  0
 16 36  1  0
 17 37  1  0
 17 38  1  0
 18 39  1  0
 18 40  1  0
 19 41  1  0
 19 42  1  0
 20 43  1  0
 24 44  1  0
 24 45  1  0
 24 46  1  0
M  END
>  <ScrubInfo>  (6) 
{"isomerGroup": 0, "isomerId": 5, "confId": 0, "nr_conformers:": 1, "nr_isomers:": 9}

$$$$
_i6
     RDKit          3D

 46 48  0  0  0  0  0  0  0  0999 V2000
   -0.0095   -3.0918   -1.8570 N   0  0  0  0  0  0  0  0  0  0  0  0
    0.5331   -1.8154   -1.7570 C   0  0  0  0  0  0  0  0  0  0  0  0
   -0.3105   -0.9320   -1.2076 C   0  0  0  0  0  0  0  0  0  0  0  0
   -0.3509    0.4902   -0.8745 C   0  0  0  0  0  0  0  0  0  0  0  0
    0.7064    1.3537   -1.0666 N   0  0  0  0  0  0  0  0  0  0  0  0
    2.0288    1.0924   -0.6401 C   0  0  0  0  0  0  0  0  0  0  0  0
    2.3258    0.2795    0.4597 C   0  0  0  0  0  0  0  0  0  0  0  0
    3.6484    0.0943    0.8744 C   0  0  0  0  0  0  0  0  0  0  0  0
    4.6993    0.7323    0.2062 C   0  0  0  0  0  0  0  0  0  0  0  0
    6.1230    0.5493    0.6660 C   0  0  0  0  0  0  0  0  0  0  0  0
    6.5170    1.5802    1.7127 C   0  0  0  0  0  0  0  0  0  0  0  0
    4.4024    1.5756   -0.8698 C   0  0  0  0  0  0  0  0  0  0  0  0
    3.0793    1.7594   -1.2807 C   0  0  0  0  0  0  0  0  0  0  0  0
   -1.4648    0.9800   -0.4041 N   0  0  0  0  0  0  0  0  0  0  0  0
   -2.5398    0.1398   -0.2190 C   0  0  0  0  0  0  0  0  0  0  0  0
   -3.5924    0.7486    0.2049 N   0  0  0  0  0  0  0  0  0  0  0  0
   -4.7906   -0.0562    0.4430 C   0  0  0  0  0  0  0  0  0  0  0  0
   -5.9350    0.8667    0.8723 C   0  0  0  0  0  0  0  0  0  0  0  0
   -5.6319    1.6170    2.1665 C   0  0  0  0  0  0  0  0  0  0  0  0
   -4.6284    2.6049    1.9666 O   0  0  0  0  0  0  0  0  0  0  0  0
   -2.5758   -1.2205   -0.4247 N   0  0  0  0  0  0  0  0  0  0  0  0
   -1.5006   -1.7508   -0.8961 C   0  0  0  0  0  0  0  0  0  0  0  0
   -1.2403   -3.0864   -1.2067 N   0  0  0  0  0  0  0  0  0  0  0  0
   -2.2948   -3.9577   -1.6903 C   0  0  0  0  0  0  0  0  0  0  0  0
    0.6414   -3.8333   -1.5877 H   0  0  0  0  0  0  0  0  0  0  0  0
    1.5409   -1.6393   -2.1064 H   0  0  0  0  0  0  0  0  0  0  0  0
    0.4414    2.2963   -0.7841 H   0  0  0  0  0  0  0  0  0  0  0  0
    1.5339   -0.2061    1.0247 H   0  0  0  0  0  0  0  0  0  0  0  0
    3.8507   -0.5418    1.7336 H   0  0  0  0  0  0  0  0  0  0  0  0
    6.2516   -0.4608    1.0737 H   0  0  0  0  0  0  0  0  0  0  0  0
    6.7999    0.6172   -0.1944 H   0  0  0  0  0  0  0  0  0  0  0  0
    5.8788    1.5095    2.6001 H   0  0  0  0  0  0  0  0  0  0  0  0
    6.4326    2.5987    1.3188 H   0  0  0  0  0  0  0  0  0  0  0  0
    7.5536    1.4230    2.0272 H   0  0  0  0  0  0  0  0  0  0  0  0
    5.1987    2.1010   -1.3926 H   0  0  0  0  0  0  0  0  0  0  0  0
    2.8724    2.4218   -2.1185 H   0  0  0  0  0  0  0  0  0  0  0  0
   -5.0957   -0.5792   -0.4715 H   0  0  0  0  0  0  0  0  0  0  0  0
   -4.6097   -0.7981    1.2304 H   0  0  0  0  0  0  0  0  0  0  0  0
   -6.8384    0.2622    1.0112 H   0  0  0  0  0  0  0  0  0  0  0  0
   -6.1324    1.5892    0.0710 H   0  0  0  0  0  0  0  0  0  0  0  0
   -5.2971    0.9334    2.9532 H   0  0  0  0  0  0  0  0  0  0  0  0
   -6.5311    2.1292    2.5223 H   0  0  0  0  0  0  0  0  0  0  0  0
   -3.9708    2.2018    1.3563 H   0  0  0  0  0  0  0  0  0  0  0  0
   -1.9241   -4.9827   -1.7933 H   0  0  0  0  0  0  0  0  0  0  0  0
   -3.1332   -3.9746   -0.9866 H   0  0  0  0  0  0  0  0  0  0  0  0
   -2.6618   -3.6204   -2.6653 H   0  0  0  0  0  0  0  0  0  0  0  0
  1  2  1  0
  2  3  2  0
  3  4  1  0
  4  5  1  0
  5  6  1  0
  6  7  2  0
  7  8  1  0
  8  9  2  0
  9 10  1  0
 10 11  1  0
  9 12  1  0
 12 13  2  0
  4 14  2  0
 14 15  1  0
 15 16  2  3
 16 17  1  0
 17 18  1  0
 18 19  1  0
 19 20  1  0
 15 21  1  0
 21 22  2  0
 22 23  1  0
 23 24  1  0
 23  1  1  0
 22  3  1  0
 13  6  1  0
  1 25  1  0
  2 26  1  0
  5 27  1  0
  7 28  1  0
  8 29  1  0
 10 30  1  0
 10 31  1  0
 11 32  1  0
 11 33  1  0
 11 34  1  0
 12 35  1  0
 13 36  1  0
 17 37  1  0
 17 38  1  0
 18 39  1  0
 18 40  1  0
 19 41  1  0
 19 42  1  0
 20 43  1  0
 24 44  1  0
 24 45  1  0
 24 46  1  0
M  END
>  <ScrubInfo>  (7) 
{"isomerGroup": 0, "isomerId": 6, "confId": 0, "nr_conformers:": 1, "nr_isomers:": 9}

$$$$
_i7
     RDKit          3D

 46 48  0  0  0  0  0  0  0  0999 V2000
   -2.4520    1.7615   -0.2172 N   0  0  0  0  0  0  0  0  0  0  0  0
   -1.8106    0.5311   -0.1857 C   0  0  0  0  0  0  0  0  0  0  0  0
   -2.3441   -0.6426   -0.2800 N   0  0  0  0  0  0  0  0  0  0  0  0
   -3.7949   -0.7308   -0.4522 C   0  0  0  0  0  0  0  0  0  0  0  0
   -4.1964   -2.1984   -0.6244 C   0  0  0  0  0  0  0  0  0  0  0  0
   -3.8734   -3.0470    0.6029 C   0  0  0  0  0  0  0  0  0  0  0  0
   -2.4690   -3.1943    0.7691 O   0  0  0  0  0  0  0  0  0  0  0  0
   -0.4406    0.6217   -0.0310 N   0  0  0  0  0  0  0  0  0  0  0  0
    0.3874    1.7207    0.0948 C   0  0  0  0  0  0  0  0  0  0  0  0
    1.6681    1.8109    0.2379 N   0  0  0  0  0  0  0  0  0  0  0  0
    2.4030    0.6199    0.2814 C   0  0  0  0  0  0  0  0  0  0  0  0
    2.6271   -0.0276    1.4976 C   0  0  0  0  0  0  0  0  0  0  0  0
    3.3446   -1.2253    1.5396 C   0  0  0  0  0  0  0  0  0  0  0  0
    3.8541   -1.7877    0.3622 C   0  0  0  0  0  0  0  0  0  0  0  0
    4.6446   -3.0706    0.4077 C   0  0  0  0  0  0  0  0  0  0  0  0
    6.1301   -2.8133    0.6089 C   0  0  0  0  0  0  0  0  0  0  0  0
    3.6499   -1.1216   -0.8530 C   0  0  0  0  0  0  0  0  0  0  0  0
    2.9313    0.0756   -0.8904 C   0  0  0  0  0  0  0  0  0  0  0  0
   -0.3760    2.9445    0.0497 C   0  0  0  0  0  0  0  0  0  0  0  0
   -0.0664    4.3101    0.1243 C   0  0  0  0  0  0  0  0  0  0  0  0
   -1.1580    5.0844    0.0271 N   0  0  0  0  0  0  0  0  0  0  0  0
   -2.1746    4.1985   -0.1071 N   0  0  0  0  0  0  0  0  0  0  0  0
   -3.5187    4.7005   -0.2409 C   0  0  0  0  0  0  0  0  0  0  0  0
   -1.7408    2.9070   -0.1011 C   0  0  0  0  0  0  0  0  0  0  0  0
   -3.4563    1.7589   -0.3290 H   0  0  0  0  0  0  0  0  0  0  0  0
   -4.1076   -0.1800   -1.3473 H   0  0  0  0  0  0  0  0  0  0  0  0
   -4.3117   -0.3092    0.4180 H   0  0  0  0  0  0  0  0  0  0  0  0
   -5.2737   -2.2471   -0.8189 H   0  0  0  0  0  0  0  0  0  0  0  0
   -3.6772   -2.6113   -1.4979 H   0  0  0  0  0  0  0  0  0  0  0  0
   -4.2868   -2.6003    1.5128 H   0  0  0  0  0  0  0  0  0  0  0  0
   -4.3005   -4.0482    0.4914 H   0  0  0  0  0  0  0  0  0  0  0  0
   -2.0772   -2.3306    0.5179 H   0  0  0  0  0  0  0  0  0  0  0  0
    0.0233   -0.2757   -0.0157 H   0  0  0  0  0  0  0  0  0  0  0  0
    2.2427    0.4048    2.4175 H   0  0  0  0  0  0  0  0  0  0  0  0
    3.5082   -1.7133    2.4980 H   0  0  0  0  0  0  0  0  0  0  0  0
    4.4881   -3.6331   -0.5209 H   0  0  0  0  0  0  0  0  0  0  0  0
    4.2660   -3.7084    1.2157 H   0  0  0  0  0  0  0  0  0  0  0  0
    6.5423   -2.2077   -0.2054 H   0  0  0  0  0  0  0  0  0  0  0  0
    6.6777   -3.7606    0.6378 H   0  0  0  0  0  0  0  0  0  0  0  0
    6.3179   -2.2839    1.5492 H   0  0  0  0  0  0  0  0  0  0  0  0
    4.0544   -1.5275   -1.7775 H   0  0  0  0  0  0  0  0  0  0  0  0
    2.7844    0.5891   -1.8367 H   0  0  0  0  0  0  0  0  0  0  0  0
    0.9048    4.7734    0.2439 H   0  0  0  0  0  0  0  0  0  0  0  0
   -3.7055    5.4140    0.5659 H   0  0  0  0  0  0  0  0  0  0  0  0
   -4.2332    3.8778   -0.1731 H   0  0  0  0  0  0  0  0  0  0  0  0
   -3.6048    5.1918   -1.2132 H   0  0  0  0  0  0  0  0  0  0  0  0
  1  2  1  0
  2  3  2  3
  3  4  1  0
  4  5  1  0
  5  6  1  0
  6  7  1  0
  2  8  1  0
  8  9  1  0
  9 10  2  3
 10 11  1  0
 11 12  2  0
 12 13  1  0
 13 14  2  0
 14 15  1  0
 15 16  1  0
 14 17  1  0
 17 18  2  0
  9 19  1  0
 19 20  1  0
 20 21  2  0
 21 22  1  0
 22 23  1  0
 22 24  1  0
 24  1  1  0
 18 11  1  0
 24 19  2  0
  1 25  1  0
  4 26  1  0
  4 27  1  0
  5 28  1  0
  5 29  1  0
  6 30  1  0
  6 31  1  0
  7 32  1  0
  8 33  1  0
 12 34  1  0
 13 35  1  0
 15 36  1  0
 15 37  1  0
 16 38  1  0
 16 39  1  0
 16 40  1  0
 17 41  1  0
 18 42  1  0
 20 43  1  0
 23 44  1  0
 23 45  1  0
 23 46  1  0
M  END
>  <ScrubInfo>  (8) 
{"isomerGroup": 0, "isomerId": 7, "confId": 0, "nr_conformers:": 1, "nr_isomers:": 9}

$$$$
_i8
     RDKit          3D

 46 48  0  0  0  0  0  0  0  0999 V2000
    0.3395   -2.9695   -1.3366 N   0  0  0  0  0  0  0  0  0  0  0  0
    0.7700   -1.7919   -0.7353 C   0  0  0  0  0  0  0  0  0  0  0  0
   -0.2175   -1.0948   -0.1554 C   0  0  0  0  0  0  0  0  0  0  0  0
   -0.4291    0.1343    0.6301 C   0  0  0  0  0  0  0  0  0  0  0  0
    0.4274    1.0466    0.9851 N   0  0  0  0  0  0  0  0  0  0  0  0
    1.7706    0.9456    0.6118 C   0  0  0  0  0  0  0  0  0  0  0  0
    2.2150    1.5118   -0.5847 C   0  0  0  0  0  0  0  0  0  0  0  0
    3.5603    1.4264   -0.9517 C   0  0  0  0  0  0  0  0  0  0  0  0
    4.4825    0.7807   -0.1180 C   0  0  0  0  0  0  0  0  0  0  0  0
    5.9387    0.7070   -0.5010 C   0  0  0  0  0  0  0  0  0  0  0  0
    6.7203    1.9071    0.0112 C   0  0  0  0  0  0  0  0  0  0  0  0
    4.0391    0.2408    1.0963 C   0  0  0  0  0  0  0  0  0  0  0  0
    2.6928    0.3289    1.4593 C   0  0  0  0  0  0  0  0  0  0  0  0
   -1.7337    0.2931    1.0195 N   0  0  0  0  0  0  0  0  0  0  0  0
   -2.7908   -0.5328    0.7359 C   0  0  0  0  0  0  0  0  0  0  0  0
   -4.0121   -0.3839    1.1089 N   0  0  0  0  0  0  0  0  0  0  0  0
   -4.4178    0.7342    1.9519 C   0  0  0  0  0  0  0  0  0  0  0  0
   -4.8549    1.9234    1.0963 C   0  0  0  0  0  0  0  0  0  0  0  0
   -6.0524    1.6002    0.2064 C   0  0  0  0  0  0  0  0  0  0  0  0
   -5.6882    0.7053   -0.8354 O   0  0  0  0  0  0  0  0  0  0  0  0
   -2.6201   -1.6576   -0.0420 N   0  0  0  0  0  0  0  0  0  0  0  0
   -1.4293   -1.9245   -0.4769 C   0  0  0  0  0  0  0  0  0  0  0  0
   -1.0465   -2.9961   -1.2864 N   0  0  0  0  0  0  0  0  0  0  0  0
   -1.7314   -4.2722   -1.2117 C   0  0  0  0  0  0  0  0  0  0  0  0
    0.7592   -3.1318   -2.2550 H   0  0  0  0  0  0  0  0  0  0  0  0
    1.8213   -1.5489   -0.7846 H   0  0  0  0  0  0  0  0  0  0  0  0
    1.5094    2.0257   -1.2317 H   0  0  0  0  0  0  0  0  0  0  0  0
    3.8848    1.8761   -1.8874 H   0  0  0  0  0  0  0  0  0  0  0  0
    6.0299    0.6433   -1.5922 H   0  0  0  0  0  0  0  0  0  0  0  0
    6.3773   -0.2174   -0.1058 H   0  0  0  0  0  0  0  0  0  0  0  0
    6.3250    2.8429   -0.3982 H   0  0  0  0  0  0  0  0  0  0  0  0
    6.6761    1.9733    1.1036 H   0  0  0  0  0  0  0  0  0  0  0  0
    7.7720    1.8265   -0.2813 H   0  0  0  0  0  0  0  0  0  0  0  0
    4.7404   -0.2435    1.7721 H   0  0  0  0  0  0  0  0  0  0  0  0
    2.3604   -0.0827    2.4083 H   0  0  0  0  0  0  0  0  0  0  0  0
   -1.9090    1.1349    1.5418 H   0  0  0  0  0  0  0  0  0  0  0  0
   -3.6341    1.0350    2.6557 H   0  0  0  0  0  0  0  0  0  0  0  0
   -5.2581    0.4034    2.5737 H   0  0  0  0  0  0  0  0  0  0  0  0
   -4.0154    2.2515    0.4720 H   0  0  0  0  0  0  0  0  0  0  0  0
   -5.1211    2.7522    1.7620 H   0  0  0  0  0  0  0  0  0  0  0  0
   -6.8710    1.1562    0.7819 H   0  0  0  0  0  0  0  0  0  0  0  0
   -6.4260    2.5156   -0.2624 H   0  0  0  0  0  0  0  0  0  0  0  0
   -5.2135   -0.0403   -0.4058 H   0  0  0  0  0  0  0  0  0  0  0  0
   -1.3535   -4.9528   -1.9816 H   0  0  0  0  0  0  0  0  0  0  0  0
   -1.5806   -4.7375   -0.2321 H   0  0  0  0  0  0  0  0  0  0  0  0
   -2.8058   -4.1444   -1.3781 H   0  0  0  0  0  0  0  0  0  0  0  0
  1  2  1  0
  2  3  2  0
  3  4  1  0
  4  5  2  3
  5  6  1  0
  6  7  2  0
  7  8  1  0
  8  9  2  0
  9 10  1  0
 10 11  1  0
  9 12  1  0
 12 13  2  0
  4 14  1  0
 14 15  1  0
 15 16  2  3
 16 17  1  0
 17 18  1  0
 18 19  1  0
 19 20  1  0
 15 21  1  0
 21 22  2  0
 22 23  1  0
 23 24  1  0
 23  1  1  0
 22  3  1  0
 13  6  1  0
  1 25  1  0
  2 26  1  0
  7 27  1  0
  8 28  1  0
 10 29  1  0
 10 30  1  0
 11 31  1  0
 11 32  1  0
 11 33  1  0
 12 34  1  0
 13 35  1  0
 14 36  1  0
 17 37  1  0
 17 38  1  0
 18 39  1  0
 18 40  1  0
 19 41  1  0
 19 42  1  0
 20 43  1  0
 24 44  1  0
 24 45  1  0
 24 46  1  0
M  END
>  <ScrubInfo>  (9) 
{"isomerGroup": 0, "isomerId": 8, "confId": 0, "nr_conformers:": 1, "nr_isomers:": 9}

$$$$
