_i0
     RDKit          3D

 45 48  0  0  0  0  0  0  0  0999 V2000
    8.1708   -0.2949   -0.4659 C   0  0  0  0  0  0  0  0  0  0  0  0
    6.9735   -0.3435   -1.2315 O   0  0  0  0  0  0  0  0  0  0  0  0
    5.7964   -0.2350   -0.5454 C   0  0  0  0  0  0  0  0  0  0  0  0
    4.6505   -0.2633   -1.3414 C   0  0  0  0  0  0  0  0  0  0  0  0
    3.3781   -0.1605   -0.7695 C   0  0  0  0  0  0  0  0  0  0  0  0
    3.2301   -0.0103    0.6120 C   0  0  0  0  0  0  0  0  0  0  0  0
    1.9756    0.0588    1.2511 N   0  0  0  0  0  0  0  0  0  0  0  0
    0.7461    0.4454    0.6954 C   0  0  0  0  0  0  0  0  0  0  0  0
   -0.3433   -0.2925    1.0336 N   0  0  0  0  0  0  0  0  0  0  0  0
   -1.5574    0.0258    0.5440 C   0  0  0  0  0  0  0  0  0  0  0  0
   -2.5778   -0.8281    0.9458 N   0  0  0  0  0  0  0  0  0  0  0  0
   -3.8760   -0.2026    1.1663 C   0  0  0  0  0  0  0  0  0  0  0  0
   -4.7398   -0.1324   -0.1076 C   0  0  0  0  0  0  0  0  0  0  0  0
   -5.0688   -1.4969   -0.7058 C   0  0  0  0  0  0  0  0  0  0  0  0
   -6.3954   -1.8329   -0.0728 C   0  0  0  0  0  0  0  0  0  0  0  0
   -7.0552   -0.4760   -0.0032 C   0  0  0  0  0  0  0  0  0  0  0  0
   -6.0091    0.4736    0.2379 O   0  0  0  0  0  0  0  0  0  0  0  0
   -1.8274    1.0579   -0.2660 N   0  0  0  0  0  0  0  0  0  0  0  0
   -0.7416    1.7845   -0.5542 C   0  0  0  0  0  0  0  0  0  0  0  0
   -0.6932    2.9052   -1.3303 N   0  0  0  0  0  0  0  0  0  0  0  0
    0.5423    3.4402   -1.4316 N   0  0  0  0  0  0  0  0  0  0  0  0
    1.2914    2.6165   -0.6862 C   0  0  0  0  0  0  0  0  0  0  0  0
    0.5478    1.5574   -0.1247 C   0  0  0  0  0  0  0  0  0  0  0  0
    4.3832   -0.0098    1.4064 C   0  0  0  0  0  0  0  0  0  0  0  0
    5.6579   -0.1120    0.8353 C   0  0  0  0  0  0  0  0  0  0  0  0
    8.2655    0.6612    0.0596 H   0  0  0  0  0  0  0  0  0  0  0  0
    8.2274   -1.1372    0.2314 H   0  0  0  0  0  0  0  0  0  0  0  0
    9.0140   -0.3789   -1.1583 H   0  0  0  0  0  0  0  0  0  0  0  0
    4.7467   -0.3738   -2.4190 H   0  0  0  0  0  0  0  0  0  0  0  0
    2.5122   -0.2173   -1.4235 H   0  0  0  0  0  0  0  0  0  0  0  0
    1.8006   -0.7866    1.7911 H   0  0  0  0  0  0  0  0  0  0  0  0
   -2.2064   -1.3208    1.7520 H   0  0  0  0  0  0  0  0  0  0  0  0
   -4.4119   -0.7927    1.9210 H   0  0  0  0  0  0  0  0  0  0  0  0
   -3.7775    0.7948    1.6164 H   0  0  0  0  0  0  0  0  0  0  0  0
   -4.2627    0.5029   -0.8599 H   0  0  0  0  0  0  0  0  0  0  0  0
   -5.2044   -1.3935   -1.7898 H   0  0  0  0  0  0  0  0  0  0  0  0
   -4.3045   -2.2611   -0.5421 H   0  0  0  0  0  0  0  0  0  0  0  0
   -6.2375   -2.2281    0.9372 H   0  0  0  0  0  0  0  0  0  0  0  0
   -6.9794   -2.5624   -0.6398 H   0  0  0  0  0  0  0  0  0  0  0  0
   -7.5319   -0.2165   -0.9547 H   0  0  0  0  0  0  0  0  0  0  0  0
   -7.8030   -0.4108    0.7918 H   0  0  0  0  0  0  0  0  0  0  0  0
   -1.4669    3.3514   -1.8073 H   0  0  0  0  0  0  0  0  0  0  0  0
    2.3500    2.8201   -0.5825 H   0  0  0  0  0  0  0  0  0  0  0  0
    4.2949    0.0879    2.4864 H   0  0  0  0  0  0  0  0  0  0  0  0
    6.5160   -0.0932    1.4984 H   0  0  0  0  0  0  0  0  0  0  0  0
  1  2  1  0
  2  3  1  0
  3  4  2  0
  4  5  1  0
  5  6  2  0
  6  7  1  0
  7  8  1  0
  8  9  2  0
  9 10  1  0
 10 11  1  0
 11 12  1  0
 12 13  1  0
 13 14  1  0
 14 15  1  0
 15 16  1  0
 16 17  1  0
 10 18  2  0
 18 19  1  0
 19 20  1  0
 20 21  1  0
 21 22  2  0
 22 23  1  0
  6 24  1  0
 24 25  2  0
 25  3  1  0
 23  8  1  0
 17 13  1  0
 23 19  2  0
  1 26  1  0
  1 27  1  0
  1 28  1  0
  4 29  1  0
  5 30  1  0
  7 31  1  0
 11 32  1  0
 12 33  1  0
 12 34  1  0
 13 35  1  0
 14 36  1  0
 14 37  1  0
 15 38  1  0
 15 39  1  0
 16 40  1  0
 16 41  1  0
 20 42  1  0
 22 43  1  0
 24 44  1  0
 25 45  1  0
M  END
>  <ScrubInfo>  (1) 
{"isomerGroup": 0, "isomerId": 0, "confId": 0, "nr_conformers:": 1, "nr_isomers:": 16}

$$$$
_i1
     RDKit          3D

 45 48  0  0  0  0  0  0  0  0999 V2000
   -0.4520    0.5728    0.1847 N   0  0  0  0  0  0  0  0  0  0  0  0
   -1.3752   -0.0419   -0.6287 C   0  0  0  0  0  0  0  0  0  0  0  0
   -2.6618    0.3141   -0.3330 N   0  0  0  0  0  0  0  0  0  0  0  0
   -3.7878   -0.3701   -0.9643 C   0  0  0  0  0  0  0  0  0  0  0  0
   -5.0968    0.2566   -0.4754 C   0  0  0  0  0  0  0  0  0  0  0  0
   -6.3366   -0.4151   -1.0391 C   0  0  0  0  0  0  0  0  0  0  0  0
   -7.3614   -0.0930    0.0195 C   0  0  0  0  0  0  0  0  0  0  0  0
   -6.5501   -0.2151    1.2921 C   0  0  0  0  0  0  0  0  0  0  0  0
   -5.1968    0.1371    0.9634 O   0  0  0  0  0  0  0  0  0  0  0  0
   -1.0569   -0.8653   -1.5954 N   0  0  0  0  0  0  0  0  0  0  0  0
    0.2888   -1.0413   -1.6733 C   0  0  0  0  0  0  0  0  0  0  0  0
    0.9064   -1.8565   -2.5718 N   0  0  0  0  0  0  0  0  0  0  0  0
    2.2494   -1.8683   -2.4489 N   0  0  0  0  0  0  0  0  0  0  0  0
    2.4760   -1.0184   -1.4368 C   0  0  0  0  0  0  0  0  0  0  0  0
    1.2920   -0.4716   -0.9088 C   0  0  0  0  0  0  0  0  0  0  0  0
    0.9193    0.4582    0.1390 C   0  0  0  0  0  0  0  0  0  0  0  0
    1.6866    1.1255    0.9461 N   0  0  0  0  0  0  0  0  0  0  0  0
    3.0770    1.0194    0.9010 C   0  0  0  0  0  0  0  0  0  0  0  0
    3.7396    0.0913    1.7075 C   0  0  0  0  0  0  0  0  0  0  0  0
    5.1362   -0.0008    1.6904 C   0  0  0  0  0  0  0  0  0  0  0  0
    5.8827    0.8503    0.8749 C   0  0  0  0  0  0  0  0  0  0  0  0
    7.2452    0.8659    0.7615 O   0  0  0  0  0  0  0  0  0  0  0  0
    7.9643   -0.0995    1.5184 C   0  0  0  0  0  0  0  0  0  0  0  0
    5.2207    1.7964    0.0882 C   0  0  0  0  0  0  0  0  0  0  0  0
    3.8266    1.8869    0.1063 C   0  0  0  0  0  0  0  0  0  0  0  0
   -0.7849    1.2773    0.8218 H   0  0  0  0  0  0  0  0  0  0  0  0
   -2.8517    0.4650    0.6553 H   0  0  0  0  0  0  0  0  0  0  0  0
   -3.7201   -0.2896   -2.0548 H   0  0  0  0  0  0  0  0  0  0  0  0
   -3.7548   -1.4298   -0.6846 H   0  0  0  0  0  0  0  0  0  0  0  0
   -5.1093    1.3304   -0.7024 H   0  0  0  0  0  0  0  0  0  0  0  0
   -6.6062   -0.0445   -2.0319 H   0  0  0  0  0  0  0  0  0  0  0  0
   -6.2018   -1.5017   -1.1020 H   0  0  0  0  0  0  0  0  0  0  0  0
   -8.2326   -0.7530    0.0042 H   0  0  0  0  0  0  0  0  0  0  0  0
   -7.7110    0.9389   -0.1036 H   0  0  0  0  0  0  0  0  0  0  0  0
   -6.5441   -1.2463    1.6605 H   0  0  0  0  0  0  0  0  0  0  0  0
   -6.9174    0.4382    2.0885 H   0  0  0  0  0  0  0  0  0  0  0  0
    0.4687   -2.4256   -3.2856 H   0  0  0  0  0  0  0  0  0  0  0  0
    3.5021   -0.8474   -1.1415 H   0  0  0  0  0  0  0  0  0  0  0  0
    3.1635   -0.5658    2.3536 H   0  0  0  0  0  0  0  0  0  0  0  0
    5.6052   -0.7419    2.3285 H   0  0  0  0  0  0  0  0  0  0  0  0
    7.6896   -1.1178    1.2236 H   0  0  0  0  0  0  0  0  0  0  0  0
    7.8195    0.0545    2.5928 H   0  0  0  0  0  0  0  0  0  0  0  0
    9.0291    0.0331    1.3039 H   0  0  0  0  0  0  0  0  0  0  0  0
    5.7951    2.4712   -0.5416 H   0  0  0  0  0  0  0  0  0  0  0  0
    3.3254    2.6345   -0.5019 H   0  0  0  0  0  0  0  0  0  0  0  0
  1  2  1  0
  2  3  1  0
  3  4  1  0
  4  5  1  0
  5  6  1  0
  6  7  1  0
  7  8  1  0
  8  9  1  0
  2 10  2  0
 10 11  1  0
 11 12  1  0
 12 13  1  0
 13 14  2  0
 14 15  1  0
 15 16  1  0
 16 17  2  3
 17 18  1  0
 18 19  2  0
 19 20  1  0
 20 21  2  0
 21 22  1  0
 22 23  1  0
 21 24  1  0
 24 25  2  0
 16  1  1  0
 25 18  1  0
  9  5  1  0
 15 11  2  0
  1 26  1  0
  3 27  1  0
  4 28  1  0
  4 29  1  0
  5 30  1  0
  6 31  1  0
  6 32  1  0
  7 33  1  0
  7 34  1  0
  8 35  1  0
  8 36  1  0
 12 37  1  0
 14 38  1  0
 19 39  1  0
 20 40  1  0
 23 41  1  0
 23 42  1  0
 23 43  1  0
 24 44  1  0
 25 45  1  0
M  END
>  <ScrubInfo>  (2) 
{"isomerGroup": 0, "isomerId": 1, "confId": 0, "nr_conformers:": 1, "nr_isomers:": 16}

$$$$
_i2
     RDKit          3D

 45 48  0  0  0  0  0  0  0  0999 V2000
   -0.2867   -0.5848   -1.1169 N   0  0  0  0  0  0  0  0  0  0  0  0
    0.6093   -1.2658   -1.9242 C   0  0  0  0  0  0  0  0  0  0  0  0
    1.8820   -0.7885   -2.1783 N   0  0  0  0  0  0  0  0  0  0  0  0
    2.7273   -0.0566   -1.3203 C   0  0  0  0  0  0  0  0  0  0  0  0
    3.7810    0.6726   -1.8852 C   0  0  0  0  0  0  0  0  0  0  0  0
    4.6228    1.4547   -1.0881 C   0  0  0  0  0  0  0  0  0  0  0  0
    4.4291    1.5302    0.2908 C   0  0  0  0  0  0  0  0  0  0  0  0
    5.3201    2.3275    0.9525 O   0  0  0  0  0  0  0  0  0  0  0  0
    5.1657    2.4322    2.3626 C   0  0  0  0  0  0  0  0  0  0  0  0
    3.3821    0.8138    0.8651 C   0  0  0  0  0  0  0  0  0  0  0  0
    2.5377    0.0322    0.0638 C   0  0  0  0  0  0  0  0  0  0  0  0
    0.1318   -2.3850   -2.4805 C   0  0  0  0  0  0  0  0  0  0  0  0
    0.5876   -3.4522   -3.3808 C   0  0  0  0  0  0  0  0  0  0  0  0
   -0.3263   -4.3656   -3.5970 N   0  0  0  0  0  0  0  0  0  0  0  0
   -1.4308   -3.9576   -2.8537 N   0  0  0  0  0  0  0  0  0  0  0  0
   -1.2524   -2.7848   -2.1569 C   0  0  0  0  0  0  0  0  0  0  0  0
   -2.0701   -2.1489   -1.3957 N   0  0  0  0  0  0  0  0  0  0  0  0
   -1.5781   -0.9809   -0.8513 C   0  0  0  0  0  0  0  0  0  0  0  0
   -2.4373   -0.3579   -0.1288 N   0  0  0  0  0  0  0  0  0  0  0  0
   -2.0605    0.8963    0.5245 C   0  0  0  0  0  0  0  0  0  0  0  0
   -3.0428    1.2383    1.6527 C   0  0  0  0  0  0  0  0  0  0  0  0
   -4.5176    1.2136    1.2695 C   0  0  0  0  0  0  0  0  0  0  0  0
   -5.1722    0.8063    2.5662 C   0  0  0  0  0  0  0  0  0  0  0  0
   -4.1647   -0.1752    3.1213 C   0  0  0  0  0  0  0  0  0  0  0  0
   -2.8731    0.3354    2.7675 O   0  0  0  0  0  0  0  0  0  0  0  0
    0.0156    0.3290   -0.8188 H   0  0  0  0  0  0  0  0  0  0  0  0
    2.3924   -1.2534   -2.9229 H   0  0  0  0  0  0  0  0  0  0  0  0
    3.9509    0.6533   -2.9589 H   0  0  0  0  0  0  0  0  0  0  0  0
    5.4337    2.0142   -1.5486 H   0  0  0  0  0  0  0  0  0  0  0  0
    5.2977    1.4592    2.8473 H   0  0  0  0  0  0  0  0  0  0  0  0
    4.1988    2.8759    2.6219 H   0  0  0  0  0  0  0  0  0  0  0  0
    5.9488    3.0991    2.7359 H   0  0  0  0  0  0  0  0  0  0  0  0
    3.1937    0.8323    1.9337 H   0  0  0  0  0  0  0  0  0  0  0  0
    1.7530   -0.5364    0.5574 H   0  0  0  0  0  0  0  0  0  0  0  0
    1.5999   -3.4462   -3.8042 H   0  0  0  0  0  0  0  0  0  0  0  0
   -2.3023   -4.4769   -2.8272 H   0  0  0  0  0  0  0  0  0  0  0  0
   -2.0670    1.7038   -0.2163 H   0  0  0  0  0  0  0  0  0  0  0  0
   -1.0587    0.8210    0.9638 H   0  0  0  0  0  0  0  0  0  0  0  0
   -2.7872    2.2332    2.0386 H   0  0  0  0  0  0  0  0  0  0  0  0
   -4.8685    2.1791    0.8936 H   0  0  0  0  0  0  0  0  0  0  0  0
   -4.7333    0.4608    0.5037 H   0  0  0  0  0  0  0  0  0  0  0  0
   -5.2545    1.6762    3.2284 H   0  0  0  0  0  0  0  0  0  0  0  0
   -6.1672    0.3725    2.4380 H   0  0  0  0  0  0  0  0  0  0  0  0
   -4.2341   -0.2820    4.2072 H   0  0  0  0  0  0  0  0  0  0  0  0
   -4.2756   -1.1639    2.6625 H   0  0  0  0  0  0  0  0  0  0  0  0
  1  2  1  0
  2  3  1  0
  3  4  1  0
  4  5  2  0
  5  6  1  0
  6  7  2  0
  7  8  1  0
  8  9  1  0
  7 10  1  0
 10 11  2  0
  2 12  2  0
 12 13  1  0
 13 14  2  0
 14 15  1  0
 15 16  1  0
 16 17  2  0
 17 18  1  0
 18 19  2  3
 19 20  1  0
 20 21  1  0
 21 22  1  0
 22 23  1  0
 23 24  1  0
 24 25  1  0
 18  1  1  0
 25 21  1  0
 11  4  1  0
 16 12  1  0
  1 26  1  0
  3 27  1  0
  5 28  1  0
  6 29  1  0
  9 30  1  0
  9 31  1  0
  9 32  1  0
 10 33  1  0
 11 34  1  0
 13 35  1  0
 15 36  1  0
 20 37  1  0
 20 38  1  0
 21 39  1  0
 22 40  1  0
 22 41  1  0
 23 42  1  0
 23 43  1  0
 24 44  1  0
 24 45  1  0
M  END
>  <ScrubInfo>  (3) 
{"isomerGroup": 0, "isomerId": 2, "confId": 0, "nr_conformers:": 1, "nr_isomers:": 16}

$$$$
_i3
     RDKit          3D

 45 48  0  0  0  0  0  0  0  0999 V2000
   -1.8787   -1.0262    0.5365 N   0  0  0  0  0  0  0  0  0  0  0  0
   -1.4771   -1.2135   -0.7751 C   0  0  0  0  0  0  0  0  0  0  0  0
   -2.2099   -1.0872   -1.8241 N   0  0  0  0  0  0  0  0  0  0  0  0
   -3.6423   -0.8010   -1.7076 C   0  0  0  0  0  0  0  0  0  0  0  0
   -3.9161    0.6309   -1.2403 C   0  0  0  0  0  0  0  0  0  0  0  0
   -5.2818    1.1455   -1.6647 C   0  0  0  0  0  0  0  0  0  0  0  0
   -5.5302    2.2222   -0.6396 C   0  0  0  0  0  0  0  0  0  0  0  0
   -4.9610    1.5994    0.6167 C   0  0  0  0  0  0  0  0  0  0  0  0
   -3.9249    0.6880    0.2103 O   0  0  0  0  0  0  0  0  0  0  0  0
   -0.1695   -1.5765   -1.0790 N   0  0  0  0  0  0  0  0  0  0  0  0
    0.7072   -1.7019   -0.1226 C   0  0  0  0  0  0  0  0  0  0  0  0
    2.0058   -2.0819   -0.3491 N   0  0  0  0  0  0  0  0  0  0  0  0
    3.1345   -1.2867   -0.0225 C   0  0  0  0  0  0  0  0  0  0  0  0
    3.0574    0.0856    0.2433 C   0  0  0  0  0  0  0  0  0  0  0  0
    4.2105    0.8293    0.5284 C   0  0  0  0  0  0  0  0  0  0  0  0
    5.4602    0.2125    0.5373 C   0  0  0  0  0  0  0  0  0  0  0  0
    6.6570    0.8191    0.7984 O   0  0  0  0  0  0  0  0  0  0  0  0
    6.6185    2.2029    1.1240 C   0  0  0  0  0  0  0  0  0  0  0  0
    5.5458   -1.1504    0.2511 C   0  0  0  0  0  0  0  0  0  0  0  0
    4.3960   -1.8924   -0.0330 C   0  0  0  0  0  0  0  0  0  0  0  0
    0.3284   -1.5023    1.2561 C   0  0  0  0  0  0  0  0  0  0  0  0
    0.9180   -1.5570    2.5286 C   0  0  0  0  0  0  0  0  0  0  0  0
    0.0522   -1.2384    3.5070 N   0  0  0  0  0  0  0  0  0  0  0  0
   -1.1038   -0.9942    2.8458 N   0  0  0  0  0  0  0  0  0  0  0  0
   -0.9668   -1.1591    1.5091 C   0  0  0  0  0  0  0  0  0  0  0  0
   -2.7849   -0.5795    0.6709 H   0  0  0  0  0  0  0  0  0  0  0  0
   -4.0669   -0.9433   -2.7080 H   0  0  0  0  0  0  0  0  0  0  0  0
   -4.1232   -1.5350   -1.0493 H   0  0  0  0  0  0  0  0  0  0  0  0
   -3.1307    1.3141   -1.5873 H   0  0  0  0  0  0  0  0  0  0  0  0
   -6.0434    0.3620   -1.5680 H   0  0  0  0  0  0  0  0  0  0  0  0
   -5.2954    1.5154   -2.6936 H   0  0  0  0  0  0  0  0  0  0  0  0
   -6.5826    2.5000   -0.5384 H   0  0  0  0  0  0  0  0  0  0  0  0
   -4.9630    3.1236   -0.9005 H   0  0  0  0  0  0  0  0  0  0  0  0
   -5.7199    1.0182    1.1507 H   0  0  0  0  0  0  0  0  0  0  0  0
   -4.5459    2.3436    1.3023 H   0  0  0  0  0  0  0  0  0  0  0  0
    2.0965   -2.3474   -1.3288 H   0  0  0  0  0  0  0  0  0  0  0  0
    2.1024    0.6056    0.2227 H   0  0  0  0  0  0  0  0  0  0  0  0
    4.0933    1.8886    0.7320 H   0  0  0  0  0  0  0  0  0  0  0  0
    6.0340    2.3791    2.0331 H   0  0  0  0  0  0  0  0  0  0  0  0
    6.2354    2.7944    0.2860 H   0  0  0  0  0  0  0  0  0  0  0  0
    7.6446    2.5288    1.3197 H   0  0  0  0  0  0  0  0  0  0  0  0
    6.5165   -1.6404    0.2497 H   0  0  0  0  0  0  0  0  0  0  0  0
    4.4922   -2.9539   -0.2489 H   0  0  0  0  0  0  0  0  0  0  0  0
    1.9384   -1.8047    2.7925 H   0  0  0  0  0  0  0  0  0  0  0  0
   -1.9269   -0.7360    3.3782 H   0  0  0  0  0  0  0  0  0  0  0  0
  1  2  1  0
  2  3  2  3
  3  4  1  0
  4  5  1  0
  5  6  1  0
  6  7  1  0
  7  8  1  0
  8  9  1  0
  2 10  1  0
 10 11  2  0
 11 12  1  0
 12 13  1  0
 13 14  2  0
 14 15  1  0
 15 16  2  0
 16 17  1  0
 17 18  1  0
 16 19  1  0
 19 20  2  0
 11 21  1  0
 21 22  1  0
 22 23  2  0
 23 24  1  0
 24 25  1  0
 25  1  1  0
  9  5  1  0
 20 13  1  0
 25 21  2  0
  1 26  1  0
  4 27  1  0
  4 28  1  0
  5 29  1  0
  6 30  1  0
  6 31  1  0
  7 32  1  0
  7 33  1  0
  8 34  1  0
  8 35  1  0
 12 36  1  0
 14 37  1  0
 15 38  1  0
 18 39  1  0
 18 40  1  0
 18 41  1  0
 19 42  1  0
 20 43  1  0
 22 44  1  0
 24 45  1  0
M  END
>  <ScrubInfo>  (4) 
{"isomerGroup": 0, "isomerId": 3, "confId": 0, "nr_conformers:": 1, "nr_isomers:": 16}

$$$$
_i4
     RDKit          3D

 45 48  0  0  0  0  0  0  0  0999 V2000
   -1.5856    0.7705   -0.0765 N   0  0  0  0  0  0  0  0  0  0  0  0
   -1.3060    0.0459    1.0397 C   0  0  0  0  0  0  0  0  0  0  0  0
   -2.1475    0.2174    2.0984 N   0  0  0  0  0  0  0  0  0  0  0  0
   -3.5679   -0.1612    2.0954 C   0  0  0  0  0  0  0  0  0  0  0  0
   -4.3282    0.0820    0.7859 C   0  0  0  0  0  0  0  0  0  0  0  0
   -5.8206   -0.1855    0.9032 C   0  0  0  0  0  0  0  0  0  0  0  0
   -6.3652    0.6472   -0.2305 C   0  0  0  0  0  0  0  0  0  0  0  0
   -5.4808    1.8749   -0.1759 C   0  0  0  0  0  0  0  0  0  0  0  0
   -4.2117    1.4564    0.3533 O   0  0  0  0  0  0  0  0  0  0  0  0
   -0.2554   -0.7265    1.1537 N   0  0  0  0  0  0  0  0  0  0  0  0
    0.6085   -0.8364    0.0566 C   0  0  0  0  0  0  0  0  0  0  0  0
    1.7026   -1.6878    0.1904 N   0  0  0  0  0  0  0  0  0  0  0  0
    3.0489   -1.3136   -0.0441 C   0  0  0  0  0  0  0  0  0  0  0  0
    3.9880   -2.3269   -0.2618 C   0  0  0  0  0  0  0  0  0  0  0  0
    5.3380   -2.0198   -0.4534 C   0  0  0  0  0  0  0  0  0  0  0  0
    5.7792   -0.6968   -0.4111 C   0  0  0  0  0  0  0  0  0  0  0  0
    7.1209   -0.5334   -0.6156 O   0  0  0  0  0  0  0  0  0  0  0  0
    7.6109    0.8017   -0.6263 C   0  0  0  0  0  0  0  0  0  0  0  0
    4.8563    0.3174   -0.1619 C   0  0  0  0  0  0  0  0  0  0  0  0
    3.5030    0.0086    0.0308 C   0  0  0  0  0  0  0  0  0  0  0  0
    0.3648   -0.1823   -1.0940 C   0  0  0  0  0  0  0  0  0  0  0  0
    0.9443   -0.0491   -2.4088 C   0  0  0  0  0  0  0  0  0  0  0  0
    0.2505    0.7723   -3.1460 N   0  0  0  0  0  0  0  0  0  0  0  0
   -0.8773    1.2505   -2.3479 N   0  0  0  0  0  0  0  0  0  0  0  0
   -0.7996    0.6869   -1.1747 C   0  0  0  0  0  0  0  0  0  0  0  0
   -2.3895    1.3911   -0.0799 H   0  0  0  0  0  0  0  0  0  0  0  0
   -1.7046   -0.1948    2.9175 H   0  0  0  0  0  0  0  0  0  0  0  0
   -3.6478   -1.2210    2.3647 H   0  0  0  0  0  0  0  0  0  0  0  0
   -4.0409    0.4133    2.9002 H   0  0  0  0  0  0  0  0  0  0  0  0
   -3.9131   -0.5444   -0.0138 H   0  0  0  0  0  0  0  0  0  0  0  0
   -6.2150    0.1887    1.8556 H   0  0  0  0  0  0  0  0  0  0  0  0
   -6.0699   -1.2470    0.8204 H   0  0  0  0  0  0  0  0  0  0  0  0
   -6.2173    0.1222   -1.1818 H   0  0  0  0  0  0  0  0  0  0  0  0
   -7.4281    0.8828   -0.1330 H   0  0  0  0  0  0  0  0  0  0  0  0
   -5.8904    2.6290    0.5043 H   0  0  0  0  0  0  0  0  0  0  0  0
   -5.3362    2.3322   -1.1587 H   0  0  0  0  0  0  0  0  0  0  0  0
    1.6399   -2.1036    1.1207 H   0  0  0  0  0  0  0  0  0  0  0  0
    3.6697   -3.3659   -0.2999 H   0  0  0  0  0  0  0  0  0  0  0  0
    6.0508   -2.8199   -0.6370 H   0  0  0  0  0  0  0  0  0  0  0  0
    7.1452    1.3879   -1.4255 H   0  0  0  0  0  0  0  0  0  0  0  0
    8.6860    0.7614   -0.8263 H   0  0  0  0  0  0  0  0  0  0  0  0
    7.4715    1.2802    0.3486 H   0  0  0  0  0  0  0  0  0  0  0  0
    5.1527    1.3592   -0.1005 H   0  0  0  0  0  0  0  0  0  0  0  0
    2.8157    0.8211    0.2538 H   0  0  0  0  0  0  0  0  0  0  0  0
    1.8510   -0.5880   -2.7083 H   0  0  0  0  0  0  0  0  0  0  0  0
  1  2  1  0
  2  3  1  0
  3  4  1  0
  4  5  1  0
  5  6  1  0
  6  7  1  0
  7  8  1  0
  8  9  1  0
  2 10  2  0
 10 11  1  0
 11 12  1  0
 12 13  1  0
 13 14  2  0
 14 15  1  0
 15 16  2  0
 16 17  1  0
 17 18  1  0
 16 19  1  0
 19 20  2  0
 11 21  2  0
 21 22  1  0
 22 23  2  0
 23 24  1  0
 24 25  2  0
 25  1  1  0
  9  5  1  0
 20 13  1  0
 25 21  1  0
  1 26  1  0
  3 27  1  0
  4 28  1  0
  4 29  1  0
  5 30  1  0
  6 31  1  0
  6 32  1  0
  7 33  1  0
  7 34  1  0
  8 35  1  0
  8 36  1  0
 12 37  1  0
 14 38  1  0
 15 39  1  0
 18 40  1  0
 18 41  1  0
 18 42  1  0
 19 43  1  0
 20 44  1  0
 22 45  1  0
M  END
>  <ScrubInfo>  (5) 
{"isomerGroup": 0, "isomerId": 4, "confId": 0, "nr_conformers:": 1, "nr_isomers:": 16}

$$$$
_i5
     RDKit          3D

 45 48  0  0  0  0  0  0  0  0999 V2000
   -0.3583    0.2031    0.7505 N   0  0  0  0  0  0  0  0  0  0  0  0
   -1.3794    0.7134   -0.0105 C   0  0  0  0  0  0  0  0  0  0  0  0
   -2.4845   -0.0868    0.0172 N   0  0  0  0  0  0  0  0  0  0  0  0
   -3.7433    0.3712   -0.5709 C   0  0  0  0  0  0  0  0  0  0  0  0
   -4.7984   -0.7285   -0.4216 C   0  0  0  0  0  0  0  0  0  0  0  0
   -6.1652   -0.3298   -0.9504 C   0  0  0  0  0  0  0  0  0  0  0  0
   -7.0745   -1.2155   -0.1362 C   0  0  0  0  0  0  0  0  0  0  0  0
   -6.3948   -1.2058    1.2164 C   0  0  0  0  0  0  0  0  0  0  0  0
   -4.9869   -1.0502    0.9776 O   0  0  0  0  0  0  0  0  0  0  0  0
   -1.3083    1.8170   -0.6900 N   0  0  0  0  0  0  0  0  0  0  0  0
   -0.1190    2.4823   -0.6147 C   0  0  0  0  0  0  0  0  0  0  0  0
    0.1768    3.6185   -1.1846 N   0  0  0  0  0  0  0  0  0  0  0  0
    1.5665    3.9322   -0.8314 N   0  0  0  0  0  0  0  0  0  0  0  0
    2.0118    2.9670   -0.0768 C   0  0  0  0  0  0  0  0  0  0  0  0
    1.0062    1.9499    0.1363 C   0  0  0  0  0  0  0  0  0  0  0  0
    0.8978    0.7859    0.7882 C   0  0  0  0  0  0  0  0  0  0  0  0
    1.9200    0.2091    1.5157 N   0  0  0  0  0  0  0  0  0  0  0  0
    3.1978   -0.1619    1.0408 C   0  0  0  0  0  0  0  0  0  0  0  0
    4.1626   -0.5572    1.9762 C   0  0  0  0  0  0  0  0  0  0  0  0
    5.4589   -0.8932    1.5740 C   0  0  0  0  0  0  0  0  0  0  0  0
    5.8245   -0.8322    0.2299 C   0  0  0  0  0  0  0  0  0  0  0  0
    7.1191   -1.1850   -0.0290 O   0  0  0  0  0  0  0  0  0  0  0  0
    7.5501   -1.1015   -1.3819 C   0  0  0  0  0  0  0  0  0  0  0  0
    4.8776   -0.4316   -0.7095 C   0  0  0  0  0  0  0  0  0  0  0  0
    3.5778   -0.0950   -0.3048 C   0  0  0  0  0  0  0  0  0  0  0  0
   -0.3886   -0.7849    0.9567 H   0  0  0  0  0  0  0  0  0  0  0  0
   -2.6633   -0.5301    0.9157 H   0  0  0  0  0  0  0  0  0  0  0  0
   -4.0689    1.2740   -0.0405 H   0  0  0  0  0  0  0  0  0  0  0  0
   -3.6039    0.6135   -1.6302 H   0  0  0  0  0  0  0  0  0  0  0  0
   -4.4552   -1.6493   -0.9103 H   0  0  0  0  0  0  0  0  0  0  0  0
   -6.2636   -0.4802   -2.0289 H   0  0  0  0  0  0  0  0  0  0  0  0
   -6.3819    0.7223   -0.7288 H   0  0  0  0  0  0  0  0  0  0  0  0
   -7.0712   -2.2311   -0.5495 H   0  0  0  0  0  0  0  0  0  0  0  0
   -8.1093   -0.8658   -0.0961 H   0  0  0  0  0  0  0  0  0  0  0  0
   -6.7250   -0.3536    1.8197 H   0  0  0  0  0  0  0  0  0  0  0  0
   -6.5727   -2.1244    1.7826 H   0  0  0  0  0  0  0  0  0  0  0  0
    3.0133    2.8981    0.3651 H   0  0  0  0  0  0  0  0  0  0  0  0
    1.5927   -0.4311    2.2336 H   0  0  0  0  0  0  0  0  0  0  0  0
    3.9193   -0.5949    3.0353 H   0  0  0  0  0  0  0  0  0  0  0  0
    6.1919   -1.1969    2.3176 H   0  0  0  0  0  0  0  0  0  0  0  0
    6.9884   -1.7938   -2.0177 H   0  0  0  0  0  0  0  0  0  0  0  0
    8.6029   -1.3979   -1.4162 H   0  0  0  0  0  0  0  0  0  0  0  0
    7.4806   -0.0748   -1.7563 H   0  0  0  0  0  0  0  0  0  0  0  0
    5.1115   -0.3698   -1.7674 H   0  0  0  0  0  0  0  0  0  0  0  0
    2.8681    0.1953   -1.0751 H   0  0  0  0  0  0  0  0  0  0  0  0
  1  2  1  0
  2  3  1  0
  3  4  1  0
  4  5  1  0
  5  6  1  0
  6  7  1  0
  7  8  1  0
  8  9  1  0
  2 10  2  0
 10 11  1  0
 11 12  2  0
 12 13  1  0
 13 14  2  0
 14 15  1  0
 15 16  2  0
 16 17  1  0
 17 18  1  0
 18 19  2  0
 19 20  1  0
 20 21  2  0
 21 22  1  0
 22 23  1  0
 21 24  1  0
 24 25  2  0
 16  1  1  0
 25 18  1  0
  9  5  1  0
 15 11  1  0
  1 26  1  0
  3 27  1  0
  4 28  1  0
  4 29  1  0
  5 30  1  0
  6 31  1  0
  6 32  1  0
  7 33  1  0
  7 34  1  0
  8 35  1  0
  8 36  1  0
 14 37  1  0
 17 38  1  0
 19 39  1  0
 20 40  1  0
 23 41  1  0
 23 42  1  0
 23 43  1  0
 24 44  1  0
 25 45  1  0
M  END
>  <ScrubInfo>  (6) 
{"isomerGroup": 0, "isomerId": 5, "confId": 0, "nr_conformers:": 1, "nr_isomers:": 16}

$$$$
_i6
     RDKit          3D

 45 48  0  0  0  0  0  0  0  0999 V2000
    0.8750   -1.7514    1.0761 N   0  0  0  0  0  0  0  0  0  0  0  0
    1.3119   -0.8474    0.1387 C   0  0  0  0  0  0  0  0  0  0  0  0
    2.6549   -0.8810   -0.1038 N   0  0  0  0  0  0  0  0  0  0  0  0
    3.6213   -0.6788    0.9769 C   0  0  0  0  0  0  0  0  0  0  0  0
    5.0341   -0.5786    0.3916 C   0  0  0  0  0  0  0  0  0  0  0  0
    6.1107   -0.3948    1.4475 C   0  0  0  0  0  0  0  0  0  0  0  0
    7.1970    0.2888    0.6552 C   0  0  0  0  0  0  0  0  0  0  0  0
    6.3998    1.2059   -0.2481 C   0  0  0  0  0  0  0  0  0  0  0  0
    5.1333    0.5701   -0.4771 O   0  0  0  0  0  0  0  0  0  0  0  0
    0.5562   -0.0133   -0.5165 N   0  0  0  0  0  0  0  0  0  0  0  0
   -0.8134    0.0224   -0.2755 C   0  0  0  0  0  0  0  0  0  0  0  0
   -1.4829    0.9180   -0.9289 N   0  0  0  0  0  0  0  0  0  0  0  0
   -2.8602    1.0747   -0.7882 C   0  0  0  0  0  0  0  0  0  0  0  0
   -3.7348    0.4258   -1.6626 C   0  0  0  0  0  0  0  0  0  0  0  0
   -5.1190    0.5991   -1.5475 C   0  0  0  0  0  0  0  0  0  0  0  0
   -5.6383    1.4405   -0.5630 C   0  0  0  0  0  0  0  0  0  0  0  0
   -6.9629    1.6960   -0.3395 O   0  0  0  0  0  0  0  0  0  0  0  0
   -7.8956    1.0425   -1.1909 C   0  0  0  0  0  0  0  0  0  0  0  0
   -4.7618    2.1112    0.2939 C   0  0  0  0  0  0  0  0  0  0  0  0
   -3.3804    1.9378    0.1768 C   0  0  0  0  0  0  0  0  0  0  0  0
   -1.3293   -0.9502    0.6749 C   0  0  0  0  0  0  0  0  0  0  0  0
   -2.5726   -1.3484    1.2016 C   0  0  0  0  0  0  0  0  0  0  0  0
   -2.4688   -2.3658    2.0745 N   0  0  0  0  0  0  0  0  0  0  0  0
   -1.1452   -2.6223    2.1076 N   0  0  0  0  0  0  0  0  0  0  0  0
   -0.4466   -1.7931    1.2970 C   0  0  0  0  0  0  0  0  0  0  0  0
    1.5204   -2.4819    1.3434 H   0  0  0  0  0  0  0  0  0  0  0  0
    2.8589   -0.2040   -0.8454 H   0  0  0  0  0  0  0  0  0  0  0  0
    3.5730   -1.5102    1.6881 H   0  0  0  0  0  0  0  0  0  0  0  0
    3.3695    0.2493    1.5040 H   0  0  0  0  0  0  0  0  0  0  0  0
    5.2526   -1.4610   -0.2234 H   0  0  0  0  0  0  0  0  0  0  0  0
    5.7662    0.2700    2.2489 H   0  0  0  0  0  0  0  0  0  0  0  0
    6.4298   -1.3388    1.8976 H   0  0  0  0  0  0  0  0  0  0  0  0
    7.7389   -0.4504    0.0532 H   0  0  0  0  0  0  0  0  0  0  0  0
    7.9226    0.8240    1.2732 H   0  0  0  0  0  0  0  0  0  0  0  0
    6.8979    1.3906   -1.2040 H   0  0  0  0  0  0  0  0  0  0  0  0
    6.2052    2.1684    0.2367 H   0  0  0  0  0  0  0  0  0  0  0  0
   -3.3326   -0.2172   -2.4413 H   0  0  0  0  0  0  0  0  0  0  0  0
   -5.7575    0.0689   -2.2457 H   0  0  0  0  0  0  0  0  0  0  0  0
   -8.9003    1.3483   -0.8832 H   0  0  0  0  0  0  0  0  0  0  0  0
   -7.7596    1.3479   -2.2337 H   0  0  0  0  0  0  0  0  0  0  0  0
   -7.8319   -0.0456   -1.0852 H   0  0  0  0  0  0  0  0  0  0  0  0
   -5.1568    2.7803    1.0543 H   0  0  0  0  0  0  0  0  0  0  0  0
   -2.7080    2.4783    0.8371 H   0  0  0  0  0  0  0  0  0  0  0  0
   -3.5606   -0.9589    0.9962 H   0  0  0  0  0  0  0  0  0  0  0  0
   -0.8102   -3.3659    2.7090 H   0  0  0  0  0  0  0  0  0  0  0  0
  1  2  1  0
  2  3  1  0
  3  4  1  0
  4  5  1  0
  5  6  1  0
  6  7  1  0
  7  8  1  0
  8  9  1  0
  2 10  2  0
 10 11  1  0
 11 12  2  3
 12 13  1  0
 13 14  2  0
 14 15  1  0
 15 16  2  0
 16 17  1  0
 17 18  1  0
 16 19  1  0
 19 20  2  0
 11 21  1  0
 21 22  1  0
 22 23  2  0
 23 24  1  0
 24 25  1  0
 25  1  1  0
  9  5  1  0
 20 13  1  0
 25 21  2  0
  1 26  1  0
  3 27  1  0
  4 28  1  0
  4 29  1  0
  5 30  1  0
  6 31  1  0
  6 32  1  0
  7 33  1  0
  7 34  1  0
  8 35  1  0
  8 36  1  0
 14 37  1  0
 15 38  1  0
 18 39  1  0
 18 40  1  0
 18 41  1  0
 19 42  1  0
 20 43  1  0
 22 44  1  0
 24 45  1  0
M  END
>  <ScrubInfo>  (7) 
{"isomerGroup": 0, "isomerId": 6, "confId": 0, "nr_conformers:": 1, "nr_isomers:": 16}

$$$$
_i7
     RDKit          3D

 45 48  0  0  0  0  0  0  0  0999 V2000
    0.8175   -3.0173    0.9797 N   0  0  0  0  0  0  0  0  0  0  0  0
    1.4489   -1.7801    0.8949 C   0  0  0  0  0  0  0  0  0  0  0  0
    0.6095   -0.7425    1.0367 C   0  0  0  0  0  0  0  0  0  0  0  0
    0.6332    0.7141    1.0795 C   0  0  0  0  0  0  0  0  0  0  0  0
    1.5974    1.5463    0.8662 N   0  0  0  0  0  0  0  0  0  0  0  0
    2.8707    1.0863    0.5274 C   0  0  0  0  0  0  0  0  0  0  0  0
    3.8244    0.8532    1.5184 C   0  0  0  0  0  0  0  0  0  0  0  0
    5.1012    0.4031    1.1738 C   0  0  0  0  0  0  0  0  0  0  0  0
    5.4470    0.2012   -0.1650 C   0  0  0  0  0  0  0  0  0  0  0  0
    6.7244   -0.2435   -0.3643 O   0  0  0  0  0  0  0  0  0  0  0  0
    7.1565   -0.3743   -1.7129 C   0  0  0  0  0  0  0  0  0  0  0  0
    4.5031    0.4587   -1.1597 C   0  0  0  0  0  0  0  0  0  0  0  0
    3.2233    0.9064   -0.8121 C   0  0  0  0  0  0  0  0  0  0  0  0
   -0.5750    1.2775    1.3984 N   0  0  0  0  0  0  0  0  0  0  0  0
   -1.6624    0.5869    1.5758 C   0  0  0  0  0  0  0  0  0  0  0  0
   -2.7760    1.3014    1.8986 N   0  0  0  0  0  0  0  0  0  0  0  0
   -4.1347    0.8495    1.6782 C   0  0  0  0  0  0  0  0  0  0  0  0
   -4.5985    1.0890    0.2371 C   0  0  0  0  0  0  0  0  0  0  0  0
   -4.0175    0.1303   -0.7905 C   0  0  0  0  0  0  0  0  0  0  0  0
   -5.0562    0.1908   -1.8822 C   0  0  0  0  0  0  0  0  0  0  0  0
   -6.3410    0.2693   -1.0868 C   0  0  0  0  0  0  0  0  0  0  0  0
   -6.0322    0.9394    0.1446 O   0  0  0  0  0  0  0  0  0  0  0  0
   -1.7667   -0.7731    1.4552 N   0  0  0  0  0  0  0  0  0  0  0  0
   -0.6894   -1.4186    1.1858 C   0  0  0  0  0  0  0  0  0  0  0  0
   -0.5442   -2.7901    1.0264 N   0  0  0  0  0  0  0  0  0  0  0  0
    1.1497   -3.6934    0.2868 H   0  0  0  0  0  0  0  0  0  0  0  0
    2.5164   -1.7597    0.7291 H   0  0  0  0  0  0  0  0  0  0  0  0
    3.5723    1.0255    2.5612 H   0  0  0  0  0  0  0  0  0  0  0  0
    5.8351    0.2197    1.9547 H   0  0  0  0  0  0  0  0  0  0  0  0
    8.2013   -0.6993   -1.6991 H   0  0  0  0  0  0  0  0  0  0  0  0
    6.5767   -1.1397   -2.2392 H   0  0  0  0  0  0  0  0  0  0  0  0
    7.1132    0.5859   -2.2376 H   0  0  0  0  0  0  0  0  0  0  0  0
    4.7286    0.3300   -2.2128 H   0  0  0  0  0  0  0  0  0  0  0  0
    2.4958    1.1234   -1.5900 H   0  0  0  0  0  0  0  0  0  0  0  0
   -2.6241    2.3012    1.8318 H   0  0  0  0  0  0  0  0  0  0  0  0
   -4.7910    1.4102    2.3549 H   0  0  0  0  0  0  0  0  0  0  0  0
   -4.2652   -0.2017    1.9622 H   0  0  0  0  0  0  0  0  0  0  0  0
   -4.3759    2.1234   -0.0557 H   0  0  0  0  0  0  0  0  0  0  0  0
   -3.0199    0.4197   -1.1318 H   0  0  0  0  0  0  0  0  0  0  0  0
   -3.9680   -0.8904   -0.3931 H   0  0  0  0  0  0  0  0  0  0  0  0
   -5.0282   -0.6626   -2.5647 H   0  0  0  0  0  0  0  0  0  0  0  0
   -4.9236    1.1058   -2.4716 H   0  0  0  0  0  0  0  0  0  0  0  0
   -7.1290    0.8135   -1.6148 H   0  0  0  0  0  0  0  0  0  0  0  0
   -6.7139   -0.7295   -0.8367 H   0  0  0  0  0  0  0  0  0  0  0  0
   -1.1137   -3.3461    1.6627 H   0  0  0  0  0  0  0  0  0  0  0  0
  1  2  1  0
  2  3  2  0
  3  4  1  0
  4  5  2  3
  5  6  1  0
  6  7  2  0
  7  8  1  0
  8  9  2  0
  9 10  1  0
 10 11  1  0
  9 12  1  0
 12 13  2  0
  4 14  1  0
 14 15  2  0
 15 16  1  0
 16 17  1  0
 17 18  1  0
 18 19  1  0
 19 20  1  0
 20 21  1  0
 21 22  1  0
 15 23  1  0
 23 24  2  0
 24 25  1  0
 25  1  1  0
 24  3  1  0
 13  6  1  0
 22 18  1  0
  1 26  1  0
  2 27  1  0
  7 28  1  0
  8 29  1  0
 11 30  1  0
 11 31  1  0
 11 32  1  0
 12 33  1  0
 13 34  1  0
 16 35  1  0
 17 36  1  0
 17 37  1  0
 18 38  1  0
 19 39  1  0
 19 40  1  0
 20 41  1  0
 20 42  1  0
 21 43  1  0
 21 44  1  0
 25 45  1  0
M  END
>  <ScrubInfo>  (8) 
{"isomerGroup": 0, "isomerId": 7, "confId": 0, "nr_conformers:": 1, "nr_isomers:": 16}

$$$$
_i8
     RDKit          3D

 45 48  0  0  0  0  0  0  0  0999 V2000
    0.6948    2.9832    2.5536 N   0  0  0  0  0  0  0  0  0  0  0  0
    1.1624    2.3131    1.4570 C   0  0  0  0  0  0  0  0  0  0  0  0
    0.2983    1.2616    1.2988 C   0  0  0  0  0  0  0  0  0  0  0  0
    0.2914    0.2654    0.3276 C   0  0  0  0  0  0  0  0  0  0  0  0
    1.1918    0.0722   -0.7295 N   0  0  0  0  0  0  0  0  0  0  0  0
    2.6013    0.0775   -0.6521 C   0  0  0  0  0  0  0  0  0  0  0  0
    3.3328    0.3052   -1.8218 C   0  0  0  0  0  0  0  0  0  0  0  0
    4.7300    0.2673   -1.8088 C   0  0  0  0  0  0  0  0  0  0  0  0
    5.4226   -0.0224   -0.6326 C   0  0  0  0  0  0  0  0  0  0  0  0
    6.7840   -0.0283   -0.7561 O   0  0  0  0  0  0  0  0  0  0  0  0
    7.5342   -0.3370    0.4119 C   0  0  0  0  0  0  0  0  0  0  0  0
    4.7017   -0.2815    0.5316 C   0  0  0  0  0  0  0  0  0  0  0  0
    3.3010   -0.2410    0.5174 C   0  0  0  0  0  0  0  0  0  0  0  0
   -0.7789   -0.5703    0.4449 N   0  0  0  0  0  0  0  0  0  0  0  0
   -1.6860   -0.4196    1.4652 C   0  0  0  0  0  0  0  0  0  0  0  0
   -2.7375   -1.3277    1.5445 N   0  0  0  0  0  0  0  0  0  0  0  0
   -3.2752   -1.8032    0.2730 C   0  0  0  0  0  0  0  0  0  0  0  0
   -4.0676   -0.7105   -0.4582 C   0  0  0  0  0  0  0  0  0  0  0  0
   -4.6333   -1.1756   -1.7898 C   0  0  0  0  0  0  0  0  0  0  0  0
   -5.7986   -0.2345   -1.9663 C   0  0  0  0  0  0  0  0  0  0  0  0
   -6.3245   -0.1132   -0.5515 C   0  0  0  0  0  0  0  0  0  0  0  0
   -5.2091   -0.3068    0.3307 O   0  0  0  0  0  0  0  0  0  0  0  0
   -1.6970    0.5229    2.4346 N   0  0  0  0  0  0  0  0  0  0  0  0
   -0.6681    1.3863    2.3212 C   0  0  0  0  0  0  0  0  0  0  0  0
   -0.4117    2.4420    3.1006 N   0  0  0  0  0  0  0  0  0  0  0  0
    1.0765    3.8207    2.9821 H   0  0  0  0  0  0  0  0  0  0  0  0
    2.0352    2.6446    0.9127 H   0  0  0  0  0  0  0  0  0  0  0  0
    0.8775   -0.7648   -1.2181 H   0  0  0  0  0  0  0  0  0  0  0  0
    2.8167    0.5299   -2.7520 H   0  0  0  0  0  0  0  0  0  0  0  0
    5.2817    0.4618   -2.7252 H   0  0  0  0  0  0  0  0  0  0  0  0
    8.5952   -0.3024    0.1466 H   0  0  0  0  0  0  0  0  0  0  0  0
    7.3633    0.4055    1.1985 H   0  0  0  0  0  0  0  0  0  0  0  0
    7.3127   -1.3487    0.7675 H   0  0  0  0  0  0  0  0  0  0  0  0
    5.1928   -0.5285    1.4668 H   0  0  0  0  0  0  0  0  0  0  0  0
    2.7671   -0.4769    1.4348 H   0  0  0  0  0  0  0  0  0  0  0  0
   -3.4435   -0.8854    2.1316 H   0  0  0  0  0  0  0  0  0  0  0  0
   -2.4884   -2.2181   -0.3681 H   0  0  0  0  0  0  0  0  0  0  0  0
   -3.9529   -2.6319    0.5117 H   0  0  0  0  0  0  0  0  0  0  0  0
   -3.4538    0.1859   -0.6096 H   0  0  0  0  0  0  0  0  0  0  0  0
   -5.0003   -2.2069   -1.7232 H   0  0  0  0  0  0  0  0  0  0  0  0
   -3.9043   -1.1215   -2.6030 H   0  0  0  0  0  0  0  0  0  0  0  0
   -6.5521   -0.5938   -2.6719 H   0  0  0  0  0  0  0  0  0  0  0  0
   -5.4394    0.7405   -2.3165 H   0  0  0  0  0  0  0  0  0  0  0  0
   -6.7835    0.8602   -0.3570 H   0  0  0  0  0  0  0  0  0  0  0  0
   -7.0592   -0.8954   -0.3338 H   0  0  0  0  0  0  0  0  0  0  0  0
  1  2  1  0
  2  3  2  0
  3  4  1  0
  4  5  1  0
  5  6  1  0
  6  7  2  0
  7  8  1  0
  8  9  2  0
  9 10  1  0
 10 11  1  0
  9 12  1  0
 12 13  2  0
  4 14  2  0
 14 15  1  0
 15 16  1  0
 16 17  1  0
 17 18  1  0
 18 19  1  0
 19 20  1  0
 20 21  1  0
 21 22  1  0
 15 23  2  0
 23 24  1  0
 24 25  2  0
 25  1  1  0
 24  3  1  0
 13  6  1  0
 22 18  1  0
  1 26  1  0
  2 27  1  0
  5 28  1  0
  7 29  1  0
  8 30  1  0
 11 31  1  0
 11 32  1  0
 11 33  1  0
 12 34  1  0
 13 35  1  0
 16 36  1  0
 17 37  1  0
 17 38  1  0
 18 39  1  0
 19 40  1  0
 19 41  1  0
 20 42  1  0
 20 43  1  0
 21 44  1  0
 21 45  1  0
M  END
>  <ScrubInfo>  (9) 
{"isomerGroup": 0, "isomerId": 8, "confId": 0, "nr_conformers:": 1, "nr_isomers:": 16}

$$$$
_i9
     RDKit          3D

 45 48  0  0  0  0  0  0  0  0999 V2000
    0.8459    3.6989    1.5694 N   0  0  0  0  0  0  0  0  0  0  0  0
    1.3430    2.8459    0.5890 C   0  0  0  0  0  0  0  0  0  0  0  0
    0.4675    1.8957    0.2342 C   0  0  0  0  0  0  0  0  0  0  0  0
    0.3551    0.7882   -0.7121 C   0  0  0  0  0  0  0  0  0  0  0  0
    1.3764    0.3939   -1.5506 N   0  0  0  0  0  0  0  0  0  0  0  0
    2.7002    0.1516   -1.1183 C   0  0  0  0  0  0  0  0  0  0  0  0
    3.0098   -0.2772    0.1780 C   0  0  0  0  0  0  0  0  0  0  0  0
    4.3321   -0.5588    0.5465 C   0  0  0  0  0  0  0  0  0  0  0  0
    5.3616   -0.4338   -0.3845 C   0  0  0  0  0  0  0  0  0  0  0  0
    6.6876   -0.6746   -0.1574 O   0  0  0  0  0  0  0  0  0  0  0  0
    7.0484   -1.1148    1.1460 C   0  0  0  0  0  0  0  0  0  0  0  0
    5.0545   -0.0354   -1.6861 C   0  0  0  0  0  0  0  0  0  0  0  0
    3.7352    0.2425   -2.0540 C   0  0  0  0  0  0  0  0  0  0  0  0
   -0.7878    0.1633   -0.7978 N   0  0  0  0  0  0  0  0  0  0  0  0
   -1.8263    0.5484    0.0292 C   0  0  0  0  0  0  0  0  0  0  0  0
   -2.9661   -0.0363   -0.0731 N   0  0  0  0  0  0  0  0  0  0  0  0
   -3.1018   -1.1063   -1.0659 C   0  0  0  0  0  0  0  0  0  0  0  0
   -4.4707   -1.8011   -0.9506 C   0  0  0  0  0  0  0  0  0  0  0  0
   -5.6694   -0.8631   -0.9277 C   0  0  0  0  0  0  0  0  0  0  0  0
   -5.9839   -0.7358    0.5417 C   0  0  0  0  0  0  0  0  0  0  0  0
   -5.5884   -2.0921    1.0793 C   0  0  0  0  0  0  0  0  0  0  0  0
   -4.5299   -2.5919    0.2536 O   0  0  0  0  0  0  0  0  0  0  0  0
   -1.7923    1.5280    0.9956 N   0  0  0  0  0  0  0  0  0  0  0  0
   -0.6841    2.1665    1.1137 C   0  0  0  0  0  0  0  0  0  0  0  0
   -0.3709    3.1918    1.9953 N   0  0  0  0  0  0  0  0  0  0  0  0
    1.5275    3.9286    2.2976 H   0  0  0  0  0  0  0  0  0  0  0  0
    2.3405    3.0054    0.2038 H   0  0  0  0  0  0  0  0  0  0  0  0
    1.0690   -0.3782   -2.1395 H   0  0  0  0  0  0  0  0  0  0  0  0
    2.2268   -0.4183    0.9197 H   0  0  0  0  0  0  0  0  0  0  0  0
    4.5179   -0.8837    1.5650 H   0  0  0  0  0  0  0  0  0  0  0  0
    6.8102   -0.3558    1.8985 H   0  0  0  0  0  0  0  0  0  0  0  0
    8.1318   -1.2681    1.1592 H   0  0  0  0  0  0  0  0  0  0  0  0
    6.5735   -2.0721    1.3851 H   0  0  0  0  0  0  0  0  0  0  0  0
    5.8491    0.0550   -2.4231 H   0  0  0  0  0  0  0  0  0  0  0  0
    3.5237    0.5464   -3.0766 H   0  0  0  0  0  0  0  0  0  0  0  0
   -2.3220   -1.8636   -0.9175 H   0  0  0  0  0  0  0  0  0  0  0  0
   -3.0083   -0.6852   -2.0742 H   0  0  0  0  0  0  0  0  0  0  0  0
   -4.5599   -2.4961   -1.7939 H   0  0  0  0  0  0  0  0  0  0  0  0
   -5.4947    0.0954   -1.4246 H   0  0  0  0  0  0  0  0  0  0  0  0
   -6.5156   -1.3461   -1.4323 H   0  0  0  0  0  0  0  0  0  0  0  0
   -5.3674    0.0454    0.9988 H   0  0  0  0  0  0  0  0  0  0  0  0
   -7.0305   -0.4905    0.7426 H   0  0  0  0  0  0  0  0  0  0  0  0
   -6.4228   -2.7984    1.0122 H   0  0  0  0  0  0  0  0  0  0  0  0
   -5.2549   -2.0498    2.1200 H   0  0  0  0  0  0  0  0  0  0  0  0
   -1.1395    3.8332    2.1859 H   0  0  0  0  0  0  0  0  0  0  0  0
  1  2  1  0
  2  3  2  0
  3  4  1  0
  4  5  1  0
  5  6  1  0
  6  7  2  0
  7  8  1  0
  8  9  2  0
  9 10  1  0
 10 11  1  0
  9 12  1  0
 12 13  2  0
  4 14  2  0
 14 15  1  0
 15 16  2  3
 16 17  1  0
 17 18  1  0
 18 19  1  0
 19 20  1  0
 20 21  1  0
 21 22  1  0
 15 23  1  0
 23 24  2  0
 24 25  1  0
 25  1  1  0
 24  3  1  0
 13  6  1  0
 22 18  1  0
  1 26  1  0
  2 27  1  0
  5 28  1  0
  7 29  1  0
  8 30  1  0
 11 31  1  0
 11 32  1  0
 11 33  1  0
 12 34  1  0
 13 35  1  0
 17 36  1  0
 17 37  1  0
 18 38  1  0
 19 39  1  0
 19 40  1  0
 20 41  1  0
 20 42  1  0
 21 43  1  0
 21 44  1  0
 25 45  1  0
M  END
>  <ScrubInfo>  (10) 
{"isomerGroup": 0, "isomerId": 9, "confId": 0, "nr_conformers:": 1, "nr_isomers:": 16}

$$$$
_i10
     RDKit          3D

 45 48  0  0  0  0  0  0  0  0999 V2000
   -1.4579   -1.1255    0.0970 N   0  0  0  0  0  0  0  0  0  0  0  0
   -1.5935    0.0354    0.8425 C   0  0  0  0  0  0  0  0  0  0  0  0
   -2.6588    0.5221    1.3773 N   0  0  0  0  0  0  0  0  0  0  0  0
   -3.9470   -0.1612    1.2368 C   0  0  0  0  0  0  0  0  0  0  0  0
   -4.6515    0.2474   -0.0623 C   0  0  0  0  0  0  0  0  0  0  0  0
   -5.8671   -0.6162   -0.3637 C   0  0  0  0  0  0  0  0  0  0  0  0
   -6.6846    0.3019   -1.2369 C   0  0  0  0  0  0  0  0  0  0  0  0
   -6.4506    1.6458   -0.5816 C   0  0  0  0  0  0  0  0  0  0  0  0
   -5.1469    1.5983    0.0130 O   0  0  0  0  0  0  0  0  0  0  0  0
   -0.4088    0.7228    0.9992 N   0  0  0  0  0  0  0  0  0  0  0  0
    0.8712    0.4704    0.5536 C   0  0  0  0  0  0  0  0  0  0  0  0
    1.8527    1.2759    0.8280 N   0  0  0  0  0  0  0  0  0  0  0  0
    3.1553    1.0423    0.3875 C   0  0  0  0  0  0  0  0  0  0  0  0
    3.5963    1.5725   -0.8251 C   0  0  0  0  0  0  0  0  0  0  0  0
    4.9110    1.3612   -1.2481 C   0  0  0  0  0  0  0  0  0  0  0  0
    5.8048    0.6341   -0.4576 C   0  0  0  0  0  0  0  0  0  0  0  0
    7.0573    0.4986   -0.9890 O   0  0  0  0  0  0  0  0  0  0  0  0
    8.0045   -0.2353   -0.2234 C   0  0  0  0  0  0  0  0  0  0  0  0
    5.3733    0.1262    0.7682 C   0  0  0  0  0  0  0  0  0  0  0  0
    4.0556    0.3384    1.1902 C   0  0  0  0  0  0  0  0  0  0  0  0
    0.9127   -0.7630   -0.2143 C   0  0  0  0  0  0  0  0  0  0  0  0
    1.8721   -1.5299   -0.9034 C   0  0  0  0  0  0  0  0  0  0  0  0
    1.3531   -2.6356   -1.4614 N   0  0  0  0  0  0  0  0  0  0  0  0
    0.0484   -2.5768   -1.1326 N   0  0  0  0  0  0  0  0  0  0  0  0
   -0.2495   -1.4793   -0.3922 C   0  0  0  0  0  0  0  0  0  0  0  0
   -2.2872   -1.6807   -0.0571 H   0  0  0  0  0  0  0  0  0  0  0  0
   -3.8277   -1.2489    1.2972 H   0  0  0  0  0  0  0  0  0  0  0  0
   -4.5635    0.1315    2.0950 H   0  0  0  0  0  0  0  0  0  0  0  0
   -3.9532    0.2114   -0.9076 H   0  0  0  0  0  0  0  0  0  0  0  0
   -6.4238   -0.8438    0.5536 H   0  0  0  0  0  0  0  0  0  0  0  0
   -5.6065   -1.5601   -0.8507 H   0  0  0  0  0  0  0  0  0  0  0  0
   -7.7424    0.0319   -1.2917 H   0  0  0  0  0  0  0  0  0  0  0  0
   -6.2784    0.3058   -2.2553 H   0  0  0  0  0  0  0  0  0  0  0  0
   -7.1752    1.8277    0.2191 H   0  0  0  0  0  0  0  0  0  0  0  0
   -6.5021    2.4744   -1.2935 H   0  0  0  0  0  0  0  0  0  0  0  0
   -0.5031    1.5764    1.5317 H   0  0  0  0  0  0  0  0  0  0  0  0
    2.9157    2.1520   -1.4423 H   0  0  0  0  0  0  0  0  0  0  0  0
    5.2425    1.7720   -2.1986 H   0  0  0  0  0  0  0  0  0  0  0  0
    7.6795   -1.2712   -0.0807 H   0  0  0  0  0  0  0  0  0  0  0  0
    8.2004    0.2542    0.7363 H   0  0  0  0  0  0  0  0  0  0  0  0
    8.9439   -0.2556   -0.7843 H   0  0  0  0  0  0  0  0  0  0  0  0
    6.0336   -0.4323    1.4228 H   0  0  0  0  0  0  0  0  0  0  0  0
    3.7283   -0.0469    2.1523 H   0  0  0  0  0  0  0  0  0  0  0  0
    2.9303   -1.3482   -1.0340 H   0  0  0  0  0  0  0  0  0  0  0  0
   -0.5627   -3.3199   -1.4508 H   0  0  0  0  0  0  0  0  0  0  0  0
  1  2  1  0
  2  3  2  3
  3  4  1  0
  4  5  1  0
  5  6  1  0
  6  7  1  0
  7  8  1  0
  8  9  1  0
  2 10  1  0
 10 11  1  0
 11 12  2  3
 12 13  1  0
 13 14  2  0
 14 15  1  0
 15 16  2  0
 16 17  1  0
 17 18  1  0
 16 19  1  0
 19 20  2  0
 11 21  1  0
 21 22  1  0
 22 23  2  0
 23 24  1  0
 24 25  1  0
 25  1  1  0
  9  5  1  0
 20 13  1  0
 25 21  2  0
  1 26  1  0
  4 27  1  0
  4 28  1  0
  5 29  1  0
  6 30  1  0
  6 31  1  0
  7 32  1  0
  7 33  1  0
  8 34  1  0
  8 35  1  0
 10 36  1  0
 14 37  1  0
 15 38  1  0
 18 39  1  0
 18 40  1  0
 18 41  1  0
 19 42  1  0
 20 43  1  0
 22 44  1  0
 24 45  1  0
M  END
>  <ScrubInfo>  (11) 
{"isomerGroup": 0, "isomerId": 10, "confId": 0, "nr_conformers:": 1, "nr_isomers:": 16}

$$$$
_i11
     RDKit          3D

 45 48  0  0  0  0  0  0  0  0999 V2000
    1.0522   -3.3177    0.3665 N   0  0  0  0  0  0  0  0  0  0  0  0
    1.6409   -2.0980    0.1603 C   0  0  0  0  0  0  0  0  0  0  0  0
    0.7235   -1.1557    0.5698 C   0  0  0  0  0  0  0  0  0  0  0  0
    0.7001    0.2873    0.6243 C   0  0  0  0  0  0  0  0  0  0  0  0
    1.6296    1.1414    0.3218 N   0  0  0  0  0  0  0  0  0  0  0  0
    2.8873    0.7420   -0.1315 C   0  0  0  0  0  0  0  0  0  0  0  0
    3.9262    0.5180    0.7750 C   0  0  0  0  0  0  0  0  0  0  0  0
    5.2002    0.1516    0.3252 C   0  0  0  0  0  0  0  0  0  0  0  0
    5.4481    0.0227   -1.0418 C   0  0  0  0  0  0  0  0  0  0  0  0
    6.6384   -0.3312   -1.6139 O   0  0  0  0  0  0  0  0  0  0  0  0
    7.7351   -0.5470   -0.7345 C   0  0  0  0  0  0  0  0  0  0  0  0
    4.4151    0.2708   -1.9495 C   0  0  0  0  0  0  0  0  0  0  0  0
    3.1446    0.6380   -1.4987 C   0  0  0  0  0  0  0  0  0  0  0  0
   -0.5257    0.6847    1.0837 N   0  0  0  0  0  0  0  0  0  0  0  0
   -1.5631   -0.1064    1.4965 C   0  0  0  0  0  0  0  0  0  0  0  0
   -2.6539    0.5879    1.9494 N   0  0  0  0  0  0  0  0  0  0  0  0
   -3.3965    1.4867    1.0575 C   0  0  0  0  0  0  0  0  0  0  0  0
   -4.3540    0.6873    0.1661 C   0  0  0  0  0  0  0  0  0  0  0  0
   -5.1137    1.5482   -0.8273 C   0  0  0  0  0  0  0  0  0  0  0  0
   -6.3272    0.6930   -1.0949 C   0  0  0  0  0  0  0  0  0  0  0  0
   -6.6130    0.1060    0.2722 C   0  0  0  0  0  0  0  0  0  0  0  0
   -5.3642    0.0527    0.9792 O   0  0  0  0  0  0  0  0  0  0  0  0
   -1.5718   -1.4077    1.5045 N   0  0  0  0  0  0  0  0  0  0  0  0
   -0.3763   -1.9332    1.0005 C   0  0  0  0  0  0  0  0  0  0  0  0
   -0.1877   -3.2426    0.8776 N   0  0  0  0  0  0  0  0  0  0  0  0
    1.4373   -4.2375    0.1795 H   0  0  0  0  0  0  0  0  0  0  0  0
    2.6366   -2.0349   -0.2514 H   0  0  0  0  0  0  0  0  0  0  0  0
    3.7408    0.6287    1.8401 H   0  0  0  0  0  0  0  0  0  0  0  0
    5.9718   -0.0195    1.0679 H   0  0  0  0  0  0  0  0  0  0  0  0
    7.5414   -1.3894   -0.0623 H   0  0  0  0  0  0  0  0  0  0  0  0
    8.6073   -0.8019   -1.3443 H   0  0  0  0  0  0  0  0  0  0  0  0
    7.9758    0.3613   -0.1723 H   0  0  0  0  0  0  0  0  0  0  0  0
    4.6027    0.1851   -3.0169 H   0  0  0  0  0  0  0  0  0  0  0  0
    2.3537    0.8416   -2.2147 H   0  0  0  0  0  0  0  0  0  0  0  0
   -0.5986    1.6689    1.2868 H   0  0  0  0  0  0  0  0  0  0  0  0
   -3.3227   -0.0906    2.3286 H   0  0  0  0  0  0  0  0  0  0  0  0
   -2.7137    2.0902    0.4501 H   0  0  0  0  0  0  0  0  0  0  0  0
   -3.9694    2.1713    1.6932 H   0  0  0  0  0  0  0  0  0  0  0  0
   -3.8165   -0.1112   -0.3608 H   0  0  0  0  0  0  0  0  0  0  0  0
   -5.4243    2.4955   -0.3701 H   0  0  0  0  0  0  0  0  0  0  0  0
   -4.5338    1.7726   -1.7267 H   0  0  0  0  0  0  0  0  0  0  0  0
   -6.0703   -0.1078   -1.7985 H   0  0  0  0  0  0  0  0  0  0  0  0
   -7.1749    1.2474   -1.5061 H   0  0  0  0  0  0  0  0  0  0  0  0
   -7.0468   -0.8963    0.2149 H   0  0  0  0  0  0  0  0  0  0  0  0
   -7.2906    0.7476    0.8450 H   0  0  0  0  0  0  0  0  0  0  0  0
  1  2  1  0
  2  3  2  0
  3  4  1  0
  4  5  2  3
  5  6  1  0
  6  7  2  0
  7  8  1  0
  8  9  2  0
  9 10  1  0
 10 11  1  0
  9 12  1  0
 12 13  2  0
  4 14  1  0
 14 15  1  0
 15 16  1  0
 16 17  1  0
 17 18  1  0
 18 19  1  0
 19 20  1  0
 20 21  1  0
 21 22  1  0
 15 23  2  0
 23 24  1  0
 24 25  2  0
 25  1  1  0
 24  3  1  0
 13  6  1  0
 22 18  1  0
  1 26  1  0
  2 27  1  0
  7 28  1  0
  8 29  1  0
 11 30  1  0
 11 31  1  0
 11 32  1  0
 12 33  1  0
 13 34  1  0
 14 35  1  0
 16 36  1  0
 17 37  1  0
 17 38  1  0
 18 39  1  0
 19 40  1  0
 19 41  1  0
 20 42  1  0
 20 43  1  0
 21 44  1  0
 21 45  1  0
M  END
>  <ScrubInfo>  (12) 
{"isomerGroup": 0, "isomerId": 11, "confId": 0, "nr_conformers:": 1, "nr_isomers:": 16}

$$$$
_i12
     RDKit          3D

 45 48  0  0  0  0  0  0  0  0999 V2000
   -0.5251    5.0015    0.4541 N   0  0  0  0  0  0  0  0  0  0  0  0
    0.6329    4.2460    0.6079 C   0  0  0  0  0  0  0  0  0  0  0  0
    0.4741    2.9706    0.2349 C   0  0  0  0  0  0  0  0  0  0  0  0
    1.2533    1.7308    0.2032 C   0  0  0  0  0  0  0  0  0  0  0  0
    2.5004    1.7536    0.5679 N   0  0  0  0  0  0  0  0  0  0  0  0
    3.2277    0.5580    0.5347 C   0  0  0  0  0  0  0  0  0  0  0  0
    3.2570   -0.2832    1.6467 C   0  0  0  0  0  0  0  0  0  0  0  0
    3.9810   -1.4771    1.6057 C   0  0  0  0  0  0  0  0  0  0  0  0
    4.6929   -1.8388    0.4591 C   0  0  0  0  0  0  0  0  0  0  0  0
    5.3562   -3.0308    0.5510 O   0  0  0  0  0  0  0  0  0  0  0  0
    6.0956   -3.4456   -0.5906 C   0  0  0  0  0  0  0  0  0  0  0  0
    4.6788   -0.9899   -0.6480 C   0  0  0  0  0  0  0  0  0  0  0  0
    3.9521    0.2055   -0.6055 C   0  0  0  0  0  0  0  0  0  0  0  0
    0.5052    0.6642   -0.2281 N   0  0  0  0  0  0  0  0  0  0  0  0
   -0.8135    0.6839   -0.5996 C   0  0  0  0  0  0  0  0  0  0  0  0
   -1.3628   -0.4332   -0.9424 N   0  0  0  0  0  0  0  0  0  0  0  0
   -2.7791   -0.4287   -1.3391 C   0  0  0  0  0  0  0  0  0  0  0  0
   -3.7045   -0.4655   -0.1077 C   0  0  0  0  0  0  0  0  0  0  0  0
   -5.1661   -0.2527   -0.4807 C   0  0  0  0  0  0  0  0  0  0  0  0
   -5.6492   -1.6563   -0.7448 C   0  0  0  0  0  0  0  0  0  0  0  0
   -4.8880   -2.4486    0.2937 C   0  0  0  0  0  0  0  0  0  0  0  0
   -3.6440   -1.7714    0.5087 O   0  0  0  0  0  0  0  0  0  0  0  0
   -1.5500    1.8551   -0.6169 N   0  0  0  0  0  0  0  0  0  0  0  0
   -0.9386    2.9350   -0.2477 C   0  0  0  0  0  0  0  0  0  0  0  0
   -1.4667    4.2201   -0.1995 N   0  0  0  0  0  0  0  0  0  0  0  0
   -0.3525    5.9326    0.0654 H   0  0  0  0  0  0  0  0  0  0  0  0
    1.5290    4.7080    0.9987 H   0  0  0  0  0  0  0  0  0  0  0  0
    2.7163   -0.0091    2.5482 H   0  0  0  0  0  0  0  0  0  0  0  0
    3.9940   -2.1284    2.4763 H   0  0  0  0  0  0  0  0  0  0  0  0
    5.4389   -3.5919   -1.4546 H   0  0  0  0  0  0  0  0  0  0  0  0
    6.5581   -4.4094   -0.3572 H   0  0  0  0  0  0  0  0  0  0  0  0
    6.8989   -2.7374   -0.8191 H   0  0  0  0  0  0  0  0  0  0  0  0
    5.2238   -1.2226   -1.5565 H   0  0  0  0  0  0  0  0  0  0  0  0
    3.9521    0.8683   -1.4669 H   0  0  0  0  0  0  0  0  0  0  0  0
    0.9270   -0.2527   -0.2520 H   0  0  0  0  0  0  0  0  0  0  0  0
   -3.0067    0.4285   -1.9841 H   0  0  0  0  0  0  0  0  0  0  0  0
   -2.9379   -1.3247   -1.9506 H   0  0  0  0  0  0  0  0  0  0  0  0
   -3.3887    0.2742    0.6351 H   0  0  0  0  0  0  0  0  0  0  0  0
   -5.7068    0.1572    0.3815 H   0  0  0  0  0  0  0  0  0  0  0  0
   -5.3168    0.4277   -1.3234 H   0  0  0  0  0  0  0  0  0  0  0  0
   -5.3529   -1.9720   -1.7517 H   0  0  0  0  0  0  0  0  0  0  0  0
   -6.7328   -1.7713   -0.6576 H   0  0  0  0  0  0  0  0  0  0  0  0
   -4.6980   -3.4789   -0.0199 H   0  0  0  0  0  0  0  0  0  0  0  0
   -5.4256   -2.4687    1.2477 H   0  0  0  0  0  0  0  0  0  0  0  0
   -2.4390    4.2682    0.0996 H   0  0  0  0  0  0  0  0  0  0  0  0
  1  2  1  0
  2  3  2  0
  3  4  1  0
  4  5  2  3
  5  6  1  0
  6  7  2  0
  7  8  1  0
  8  9  2  0
  9 10  1  0
 10 11  1  0
  9 12  1  0
 12 13  2  0
  4 14  1  0
 14 15  1  0
 15 16  2  3
 16 17  1  0
 17 18  1  0
 18 19  1  0
 19 20  1  0
 20 21  1  0
 21 22  1  0
 15 23  1  0
 23 24  2  0
 24 25  1  0
 25  1  1  0
 24  3  1  0
 13  6  1  0
 22 18  1  0
  1 26  1  0
  2 27  1  0
  7 28  1  0
  8 29  1  0
 11 30  1  0
 11 31  1  0
 11 32  1  0
 12 33  1  0
 13 34  1  0
 14 35  1  0
 17 36  1  0
 17 37  1  0
 18 38  1  0
 19 39  1  0
 19 40  1  0
 20 41  1  0
 20 42  1  0
 21 43  1  0
 21 44  1  0
 25 45  1  0
M  END
>  <ScrubInfo>  (13) 
{"isomerGroup": 0, "isomerId": 12, "confId": 0, "nr_conformers:": 1, "nr_isomers:": 16}

$$$$
_i13
     RDKit          3D

 45 48  0  0  0  0  0  0  0  0999 V2000
   -1.6022    1.6395   -0.5397 N   0  0  0  0  0  0  0  0  0  0  0  0
   -0.4805    2.2584   -1.0046 C   0  0  0  0  0  0  0  0  0  0  0  0
   -0.3479    3.1545   -1.9458 N   0  0  0  0  0  0  0  0  0  0  0  0
    1.0680    3.4993   -2.0415 N   0  0  0  0  0  0  0  0  0  0  0  0
    1.7159    2.7950   -1.1571 C   0  0  0  0  0  0  0  0  0  0  0  0
    0.8193    1.9364   -0.4208 C   0  0  0  0  0  0  0  0  0  0  0  0
    0.8613    1.0255    0.5674 C   0  0  0  0  0  0  0  0  0  0  0  0
    2.0366    0.6711    1.2074 N   0  0  0  0  0  0  0  0  0  0  0  0
    3.2051    0.1505    0.6049 C   0  0  0  0  0  0  0  0  0  0  0  0
    3.2796   -0.2450   -0.7339 C   0  0  0  0  0  0  0  0  0  0  0  0
    4.4814   -0.7178   -1.2729 C   0  0  0  0  0  0  0  0  0  0  0  0
    5.6338   -0.7987   -0.4909 C   0  0  0  0  0  0  0  0  0  0  0  0
    6.7362   -1.2760   -1.1422 O   0  0  0  0  0  0  0  0  0  0  0  0
    7.9399   -1.3659   -0.3906 C   0  0  0  0  0  0  0  0  0  0  0  0
    5.5740   -0.4018    0.8424 C   0  0  0  0  0  0  0  0  0  0  0  0
    4.3699    0.0698    1.3814 C   0  0  0  0  0  0  0  0  0  0  0  0
   -0.3513    0.4833    0.9934 N   0  0  0  0  0  0  0  0  0  0  0  0
   -1.6109    0.7140    0.4748 C   0  0  0  0  0  0  0  0  0  0  0  0
   -2.6090    0.0715    0.9740 N   0  0  0  0  0  0  0  0  0  0  0  0
   -3.9420    0.3056    0.4055 C   0  0  0  0  0  0  0  0  0  0  0  0
   -4.9321   -0.7149    0.9990 C   0  0  0  0  0  0  0  0  0  0  0  0
   -6.3843   -0.3372    0.7339 C   0  0  0  0  0  0  0  0  0  0  0  0
   -6.6778   -1.0324   -0.5714 C   0  0  0  0  0  0  0  0  0  0  0  0
   -5.8902   -2.3135   -0.4223 C   0  0  0  0  0  0  0  0  0  0  0  0
   -4.7342   -1.9970    0.3622 O   0  0  0  0  0  0  0  0  0  0  0  0
   -2.4682    1.8932   -0.9875 H   0  0  0  0  0  0  0  0  0  0  0  0
    2.7947    2.8213   -0.9627 H   0  0  0  0  0  0  0  0  0  0  0  0
    1.8814    0.2406    2.1149 H   0  0  0  0  0  0  0  0  0  0  0  0
    2.4067   -0.2216   -1.3801 H   0  0  0  0  0  0  0  0  0  0  0  0
    4.5160   -1.0285   -2.3148 H   0  0  0  0  0  0  0  0  0  0  0  0
    7.8313   -2.0638    0.4462 H   0  0  0  0  0  0  0  0  0  0  0  0
    8.2632   -0.3789   -0.0434 H   0  0  0  0  0  0  0  0  0  0  0  0
    8.7186   -1.7577   -1.0519 H   0  0  0  0  0  0  0  0  0  0  0  0
    6.4428   -0.4398    1.4908 H   0  0  0  0  0  0  0  0  0  0  0  0
    4.3543    0.3906    2.4208 H   0  0  0  0  0  0  0  0  0  0  0  0
   -0.3111   -0.2448    1.6934 H   0  0  0  0  0  0  0  0  0  0  0  0
   -4.2612    1.3222    0.6622 H   0  0  0  0  0  0  0  0  0  0  0  0
   -3.9133    0.1971   -0.6853 H   0  0  0  0  0  0  0  0  0  0  0  0
   -4.7531   -0.8305    2.0740 H   0  0  0  0  0  0  0  0  0  0  0  0
   -6.5677    0.7405    0.7058 H   0  0  0  0  0  0  0  0  0  0  0  0
   -7.0207   -0.7636    1.5194 H   0  0  0  0  0  0  0  0  0  0  0  0
   -6.2834   -0.4420   -1.4065 H   0  0  0  0  0  0  0  0  0  0  0  0
   -7.7428   -1.2048   -0.7473 H   0  0  0  0  0  0  0  0  0  0  0  0
   -5.5808   -2.7320   -1.3840 H   0  0  0  0  0  0  0  0  0  0  0  0
   -6.4655   -3.0717    0.1198 H   0  0  0  0  0  0  0  0  0  0  0  0
  1  2  1  0
  2  3  2  0
  3  4  1  0
  4  5  2  0
  5  6  1  0
  6  7  2  0
  7  8  1  0
  8  9  1  0
  9 10  2  0
 10 11  1  0
 11 12  2  0
 12 13  1  0
 13 14  1  0
 12 15  1  0
 15 16  2  0
  7 17  1  0
 17 18  1  0
 18 19  2  3
 19 20  1  0
 20 21  1  0
 21 22  1  0
 22 23  1  0
 23 24  1  0
 24 25  1  0
 18  1  1  0
 25 21  1  0
  6  2  1  0
 16  9  1  0
  1 26  1  0
  5 27  1  0
  8 28  1  0
 10 29  1  0
 11 30  1  0
 14 31  1  0
 14 32  1  0
 14 33  1  0
 15 34  1  0
 16 35  1  0
 17 36  1  0
 20 37  1  0
 20 38  1  0
 21 39  1  0
 22 40  1  0
 22 41  1  0
 23 42  1  0
 23 43  1  0
 24 44  1  0
 24 45  1  0
M  END
>  <ScrubInfo>  (14) 
{"isomerGroup": 0, "isomerId": 13, "confId": 0, "nr_conformers:": 1, "nr_isomers:": 16}

$$$$
_i14
     RDKit          3D

 45 48  0  0  0  0  0  0  0  0999 V2000
    0.9863   -3.7270    1.5467 N   0  0  0  0  0  0  0  0  0  0  0  0
    1.6206   -3.0643    0.5338 C   0  0  0  0  0  0  0  0  0  0  0  0
    0.7064   -2.1481    0.0721 C   0  0  0  0  0  0  0  0  0  0  0  0
    0.7093   -1.1534   -0.9645 C   0  0  0  0  0  0  0  0  0  0  0  0
    1.8601   -1.0202   -1.7006 N   0  0  0  0  0  0  0  0  0  0  0  0
    3.0975   -0.5981   -1.1466 C   0  0  0  0  0  0  0  0  0  0  0  0
    4.2641   -0.8145   -1.8880 C   0  0  0  0  0  0  0  0  0  0  0  0
    5.5029   -0.3792   -1.4096 C   0  0  0  0  0  0  0  0  0  0  0  0
    5.5978    0.2986   -0.1934 C   0  0  0  0  0  0  0  0  0  0  0  0
    6.8658    0.6691    0.1581 O   0  0  0  0  0  0  0  0  0  0  0  0
    7.0104    1.3914    1.3747 C   0  0  0  0  0  0  0  0  0  0  0  0
    4.4374    0.5422    0.5393 C   0  0  0  0  0  0  0  0  0  0  0  0
    3.1955    0.1038    0.0610 C   0  0  0  0  0  0  0  0  0  0  0  0
   -0.3706   -0.4770   -1.1972 N   0  0  0  0  0  0  0  0  0  0  0  0
   -1.4877   -0.6844   -0.4066 C   0  0  0  0  0  0  0  0  0  0  0  0
   -2.4605    0.0841   -0.7543 N   0  0  0  0  0  0  0  0  0  0  0  0
   -3.7314    0.0183   -0.0320 C   0  0  0  0  0  0  0  0  0  0  0  0
   -4.6167    1.1956   -0.4578 C   0  0  0  0  0  0  0  0  0  0  0  0
   -6.0907    0.9614   -0.1661 C   0  0  0  0  0  0  0  0  0  0  0  0
   -6.6140    2.3742   -0.1043 C   0  0  0  0  0  0  0  0  0  0  0  0
   -5.4790    3.1013    0.5849 C   0  0  0  0  0  0  0  0  0  0  0  0
   -4.2728    2.3881    0.2804 O   0  0  0  0  0  0  0  0  0  0  0  0
   -1.5265   -1.6075    0.6131 N   0  0  0  0  0  0  0  0  0  0  0  0
   -0.4400   -2.3490    0.8493 C   0  0  0  0  0  0  0  0  0  0  0  0
   -0.2775   -3.3068    1.7602 N   0  0  0  0  0  0  0  0  0  0  0  0
    1.3498   -4.4748    2.1293 H   0  0  0  0  0  0  0  0  0  0  0  0
    2.6351   -3.2986    0.2449 H   0  0  0  0  0  0  0  0  0  0  0  0
    1.6623   -0.4013   -2.4861 H   0  0  0  0  0  0  0  0  0  0  0  0
    4.2180   -1.3378   -2.8401 H   0  0  0  0  0  0  0  0  0  0  0  0
    6.4012   -0.5668   -1.9930 H   0  0  0  0  0  0  0  0  0  0  0  0
    8.0730    1.6180    1.5045 H   0  0  0  0  0  0  0  0  0  0  0  0
    6.6914    0.7888    2.2315 H   0  0  0  0  0  0  0  0  0  0  0  0
    6.4694    2.3427    1.3360 H   0  0  0  0  0  0  0  0  0  0  0  0
    4.4572    1.0772    1.4829 H   0  0  0  0  0  0  0  0  0  0  0  0
    2.3074    0.3333    0.6456 H   0  0  0  0  0  0  0  0  0  0  0  0
   -3.5677    0.0677    1.0510 H   0  0  0  0  0  0  0  0  0  0  0  0
   -4.2286   -0.9256   -0.2836 H   0  0  0  0  0  0  0  0  0  0  0  0
   -4.4779    1.4214   -1.5229 H   0  0  0  0  0  0  0  0  0  0  0  0
   -6.5828    0.3500   -0.9276 H   0  0  0  0  0  0  0  0  0  0  0  0
   -6.2251    0.4759    0.8082 H   0  0  0  0  0  0  0  0  0  0  0  0
   -6.7480    2.7667   -1.1193 H   0  0  0  0  0  0  0  0  0  0  0  0
   -7.5654    2.4692    0.4255 H   0  0  0  0  0  0  0  0  0  0  0  0
   -5.6049    3.0911    1.6726 H   0  0  0  0  0  0  0  0  0  0  0  0
   -5.3867    4.1400    0.2553 H   0  0  0  0  0  0  0  0  0  0  0  0
   -2.3645   -1.7357    1.1526 H   0  0  0  0  0  0  0  0  0  0  0  0
  1  2  1  0
  2  3  2  0
  3  4  1  0
  4  5  1  0
  5  6  1  0
  6  7  2  0
  7  8  1  0
  8  9  2  0
  9 10  1  0
 10 11  1  0
  9 12  1  0
 12 13  2  0
  4 14  2  0
 14 15  1  0
 15 16  2  3
 16 17  1  0
 17 18  1  0
 18 19  1  0
 19 20  1  0
 20 21  1  0
 21 22  1  0
 15 23  1  0
 23 24  1  0
 24 25  2  0
 25  1  1  0
 24  3  1  0
 13  6  1  0
 22 18  1  0
  1 26  1  0
  2 27  1  0
  5 28  1  0
  7 29  1  0
  8 30  1  0
 11 31  1  0
 11 32  1  0
 11 33  1  0
 12 34  1  0
 13 35  1  0
 17 36  1  0
 17 37  1  0
 18 38  1  0
 19 39  1  0
 19 40  1  0
 20 41  1  0
 20 42  1  0
 21 43  1  0
 21 44  1  0
 23 45  1  0
M  END
>  <ScrubInfo>  (15) 
{"isomerGroup": 0, "isomerId": 14, "confId": 0, "nr_conformers:": 1, "nr_isomers:": 16}

$$$$
_i15
     RDKit          3D

 45 48  0  0  0  0  0  0  0  0999 V2000
    0.3069    4.8134   -2.6464 N   0  0  0  0  0  0  0  0  0  0  0  0
    1.1394    4.1814   -1.7671 C   0  0  0  0  0  0  0  0  0  0  0  0
    0.6726    2.8908   -1.6919 C   0  0  0  0  0  0  0  0  0  0  0  0
    1.1101    1.7320   -0.9670 C   0  0  0  0  0  0  0  0  0  0  0  0
    2.1068    1.8313   -0.1466 N   0  0  0  0  0  0  0  0  0  0  0  0
    2.4983    0.6827    0.5532 C   0  0  0  0  0  0  0  0  0  0  0  0
    1.9588    0.4030    1.8094 C   0  0  0  0  0  0  0  0  0  0  0  0
    2.3672   -0.7314    2.5156 C   0  0  0  0  0  0  0  0  0  0  0  0
    3.3287   -1.5931    1.9819 C   0  0  0  0  0  0  0  0  0  0  0  0
    3.6371   -2.6656    2.7728 O   0  0  0  0  0  0  0  0  0  0  0  0
    4.6290   -3.5590    2.2830 C   0  0  0  0  0  0  0  0  0  0  0  0
    3.8829   -1.3069    0.7338 C   0  0  0  0  0  0  0  0  0  0  0  0
    3.4715   -0.1700    0.0278 C   0  0  0  0  0  0  0  0  0  0  0  0
    0.4096    0.5699   -1.2112 N   0  0  0  0  0  0  0  0  0  0  0  0
   -0.6191    0.6164   -2.0073 C   0  0  0  0  0  0  0  0  0  0  0  0
   -1.3013   -0.5499   -2.2198 N   0  0  0  0  0  0  0  0  0  0  0  0
   -2.7487   -0.6499   -2.0452 C   0  0  0  0  0  0  0  0  0  0  0  0
   -3.2009   -0.3084   -0.6198 C   0  0  0  0  0  0  0  0  0  0  0  0
   -2.6176   -1.2115    0.4564 C   0  0  0  0  0  0  0  0  0  0  0  0
   -3.6431   -1.0729    1.5532 C   0  0  0  0  0  0  0  0  0  0  0  0
   -4.9376   -1.0194    0.7705 C   0  0  0  0  0  0  0  0  0  0  0  0
   -4.6325   -0.4493   -0.5119 O   0  0  0  0  0  0  0  0  0  0  0  0
   -1.1210    1.7040   -2.6656 N   0  0  0  0  0  0  0  0  0  0  0  0
   -0.4390    2.8501   -2.5422 C   0  0  0  0  0  0  0  0  0  0  0  0
   -0.6645    4.0178   -3.1417 N   0  0  0  0  0  0  0  0  0  0  0  0
    0.3420    5.7793   -2.9566 H   0  0  0  0  0  0  0  0  0  0  0  0
    1.9691    4.6840   -1.2910 H   0  0  0  0  0  0  0  0  0  0  0  0
    1.2166    1.0702    2.2371 H   0  0  0  0  0  0  0  0  0  0  0  0
    1.9355   -0.9415    3.4906 H   0  0  0  0  0  0  0  0  0  0  0  0
    4.3067   -4.0335    1.3502 H   0  0  0  0  0  0  0  0  0  0  0  0
    4.7645   -4.3488    3.0282 H   0  0  0  0  0  0  0  0  0  0  0  0
    5.5911   -3.0513    2.1576 H   0  0  0  0  0  0  0  0  0  0  0  0
    4.6358   -1.9413    0.2796 H   0  0  0  0  0  0  0  0  0  0  0  0
    3.9083    0.0523   -0.9417 H   0  0  0  0  0  0  0  0  0  0  0  0
   -0.8220   -1.2982   -1.7211 H   0  0  0  0  0  0  0  0  0  0  0  0
   -3.2690   -0.0055   -2.7637 H   0  0  0  0  0  0  0  0  0  0  0  0
   -3.0623   -1.6703   -2.2970 H   0  0  0  0  0  0  0  0  0  0  0  0
   -2.9686    0.7394   -0.3910 H   0  0  0  0  0  0  0  0  0  0  0  0
   -2.5802   -2.2535    0.1165 H   0  0  0  0  0  0  0  0  0  0  0  0
   -1.6125   -0.9135    0.7677 H   0  0  0  0  0  0  0  0  0  0  0  0
   -3.4900   -0.1281    2.0881 H   0  0  0  0  0  0  0  0  0  0  0  0
   -3.6195   -1.8858    2.2837 H   0  0  0  0  0  0  0  0  0  0  0  0
   -5.7037   -0.4179    1.2679 H   0  0  0  0  0  0  0  0  0  0  0  0
   -5.3389   -2.0238    0.5994 H   0  0  0  0  0  0  0  0  0  0  0  0
   -1.7969    1.5825   -3.4033 H   0  0  0  0  0  0  0  0  0  0  0  0
  1  2  1  0
  2  3  2  0
  3  4  1  0
  4  5  2  3
  5  6  1  0
  6  7  2  0
  7  8  1  0
  8  9  2  0
  9 10  1  0
 10 11  1  0
  9 12  1  0
 12 13  2  0
  4 14  1  0
 14 15  2  0
 15 16  1  0
 16 17  1  0
 17 18  1  0
 18 19  1  0
 19 20  1  0
 20 21  1  0
 21 22  1  0
 15 23  1  0
 23 24  1  0
 24 25  2  0
 25  1  1  0
 24  3  1  0
 13  6  1  0
 22 18  1  0
  1 26  1  0
  2 27  1  0
  7 28  1  0
  8 29  1  0
 11 30  1  0
 11 31  1  0
 11 32  1  0
 12 33  1  0
 13 34  1  0
 16 35  1  0
 17 36  1  0
 17 37  1  0
 18 38  1  0
 19 39  1  0
 19 40  1  0
 20 41  1  0
 20 42  1  0
 21 43  1  0
 21 44  1  0
 23 45  1  0
M  END
>  <ScrubInfo>  (16) 
{"isomerGroup": 0, "isomerId": 15, "confId": 0, "nr_conformers:": 1, "nr_isomers:": 16}

$$$$
