REMARK SMILES COc1ccc(Nc2nc(NC[C@H]3CCCO3)nc3[nH]ncc23)cc1
REMARK SMILES IDX 8 1 9 2 10 3 18 4 19 5 20 6 21 7 22 8 23 9 7 11 6 13 3 14
REMARK SMILES IDX 4 15 25 16 5 17 24 18 2 19 1 20 11 21 12 23 13 24 14 25
REMARK SMILES IDX 17 26 15 27 16 28
REMARK H PARENT 20 10 7 12 11 22
ROOT
ATOM      1  C   UNL     1       0.746   0.445   0.695  1.00  0.00     0.147 A 
ATOM      2  N   UNL     1      -0.343  -0.292   1.034  1.00  0.00    -0.195 NA
ATOM      3  C   UNL     1      -1.557   0.026   0.544  1.00  0.00     0.226 A 
ATOM      4  N   UNL     1      -1.827   1.058  -0.266  1.00  0.00    -0.193 NA
ATOM      5  C   UNL     1      -0.742   1.784  -0.554  1.00  0.00     0.162 A 
ATOM      6  N   UNL     1      -0.693   2.905  -1.330  1.00  0.00    -0.261 N 
ATOM      7  N   UNL     1       0.542   3.440  -1.432  1.00  0.00    -0.181 NA
ATOM      8  C   UNL     1       1.291   2.616  -0.686  1.00  0.00     0.149 A 
ATOM      9  C   UNL     1       0.548   1.557  -0.125  1.00  0.00     0.082 A 
ATOM     10  H   UNL     1      -1.467   3.351  -1.807  1.00  0.00     0.192 HD
ENDROOT
BRANCH   1  11
ATOM     11  N   UNL     1       1.976   0.059   1.251  1.00  0.00    -0.339 N 
ATOM     12  H   UNL     1       1.801  -0.787   1.791  1.00  0.00     0.168 HD
BRANCH  11  13
ATOM     13  C   UNL     1       3.230  -0.010   0.612  1.00  0.00     0.040 A 
ATOM     14  C   UNL     1       5.796  -0.235  -0.545  1.00  0.00     0.119 A 
ATOM     15  C   UNL     1       4.651  -0.263  -1.341  1.00  0.00     0.048 A 
ATOM     16  C   UNL     1       5.658  -0.112   0.835  1.00  0.00     0.048 A 
ATOM     17  C   UNL     1       3.378  -0.161  -0.769  1.00  0.00     0.030 A 
ATOM     18  C   UNL     1       4.383  -0.010   1.406  1.00  0.00     0.030 A 
BRANCH  14  19
ATOM     19  O   UNL     1       6.973  -0.344  -1.232  1.00  0.00    -0.497 OA
ATOM     20  C   UNL     1       8.171  -0.295  -0.466  1.00  0.00     0.278 C 
ENDBRANCH  14  19
ENDBRANCH  11  13
ENDBRANCH   1  11
BRANCH   3  21
ATOM     21  N   UNL     1      -2.578  -0.828   0.946  1.00  0.00    -0.351 N 
ATOM     22  H   UNL     1      -2.206  -1.321   1.752  1.00  0.00     0.163 HD
BRANCH  21  23
ATOM     23  C   UNL     1      -3.876  -0.203   1.166  1.00  0.00     0.148 C 
BRANCH  23  24
ATOM     24  C   UNL     1      -4.740  -0.132  -0.108  1.00  0.00     0.137 C 
ATOM     25  C   UNL     1      -5.069  -1.497  -0.706  1.00  0.00     0.036 C 
ATOM     26  O   UNL     1      -6.009   0.474   0.238  1.00  0.00    -0.376 OA
ATOM     27  C   UNL     1      -6.395  -1.833  -0.073  1.00  0.00     0.031 C 
ATOM     28  C   UNL     1      -7.055  -0.476  -0.003  1.00  0.00     0.160 C 
ENDBRANCH  23  24
ENDBRANCH  21  23
ENDBRANCH   3  21
TORSDOF 6
